=
 OpenBabel11042412063D

 30 32  0  0  1  0  0  0  0  0999 V2000
  186.5050  178.5150  143.6580 C   0  0  1  0  0  3  0  0  0  0  0  0
  189.2000  178.2230  139.5760 N   0  0  0  0  0  0  0  0  0  0  0  0
  185.4820  178.4920  141.4960 O   0  0  0  0  0  0  0  0  0  0  0  0
  186.5510  178.4540  142.1640 C   0  0  0  0  0  0  0  0  0  0  0  0
  187.8350  178.1870  137.8610 C   0  0  0  0  0  0  0  0  0  0  0  0
  187.8220  178.3680  141.5130 N   0  0  0  0  0  2  0  0  0  0  0  0
  186.9500  178.2800  139.0590 C   0  0  0  0  0  2  0  0  0  0  0  0
  188.0230  178.2930  140.0980 C   0  0  0  0  0  0  0  0  0  0  0  0
  189.0830  178.1580  138.1860 N   0  0  0  0  0  0  0  0  0  0  0  0
  186.2280  177.6400  136.1700 N   0  0  0  0  0  2  0  0  0  0  0  0
  187.3820  178.1340  136.4710 C   0  0  0  0  0  3  0  0  0  0  0  0
  182.9290  178.7290  144.3040 C   0  0  0  0  0  0  0  0  0  0  0  0
  183.3870  179.1310  145.4670 O   0  0  0  0  0  0  0  0  0  0  0  0
  181.2260  178.5810  143.9290 Cl  0  0  0  0  0  0  0  0  0  0  0  0
  183.9610  178.4380  143.4240 C   0  0  0  0  0  3  0  0  0  0  0  0
  185.1040  178.7070  144.1520 C   0  0  0  0  0  0  0  0  0  0  0  0
  185.5440  179.4930  146.4810 N   0  0  0  0  0  1  0  0  0  0  0  0
  184.6920  179.1220  145.4020 C   0  0  0  0  0  0  0  0  0  0  0  0
  187.1010  177.3240  144.2460 N   0  0  0  0  0  2  0  0  0  0  0  0
  190.3680  176.9530  146.8310 C   0  0  0  0  0  0  0  0  0  0  0  0
  189.5120  177.0380  144.5340 C   0  0  1  0  0  3  0  0  0  0  0  0
  188.9550  176.6300  147.2420 C   0  0  0  0  0  2  0  0  0  0  0  0
  190.6210  177.1480  145.5380 C   0  0  0  0  0  3  0  0  0  0  0  0
  188.2480  177.7530  145.0300 C   0  0  2  0  0  3  0  0  0  0  0  0
  187.9570  177.5530  146.5320 C   0  0  0  0  0  2  0  0  0  0  0  0
  189.9190  177.5730  143.3260 F   0  0  0  0  0  0  0  0  0  0  0  0
  193.3940  176.4380  148.9520 N   0  0  0  0  0  1  0  0  0  0  0  0
  192.4000  176.1620  147.9730 C   0  0  0  0  0  0  0  0  0  0  0  0
  192.4630  174.9340  147.2520 N   0  0  0  0  0  1  0  0  0  0  0  0
  191.4570  177.0340  147.7660 N   0  0  0  0  0  0  0  0  0  0  0  0
  1  4  1  6  0  0  0
  1 16  1  0  0  0  0
  1 19  1  0  0  0  0
  2  8  2  0  0  0  0
  3  4  2  0  0  0  0
  5  9  2  0  0  0  0
  5  7  1  0  0  0  0
  6  4  1  0  0  0  0
  7  8  1  0  0  0  0
  8  6  1  0  0  0  0
  9  2  1  0  0  0  0
 10 11  2  0  0  0  0
 11  5  1  0  0  0  0
 12 13  1  0  0  0  0
 14 12  1  0  0  0  0
 15 16  1  0  0  0  0
 15 12  2  0  0  0  0
 16 18  2  0  0  0  0
 18 13  1  0  0  0  0
 18 17  1  0  0  0  0
 20 22  1  0  0  0  0
 20 30  1  0  0  0  0
 21 26  1  6  0  0  0
 21 24  1  0  0  0  0
 21 23  1  0  0  0  0
 23 20  2  0  0  0  0
 24 19  1  6  0  0  0
 24 25  1  0  0  0  0
 25 22  1  0  0  0  0
 28 27  1  0  0  0  0
 29 28  1  0  0  0  0
 30 28  2  0  0  0  0
M  END
>  <MODEL>
1

>  <REMARK>
 VINA RESULT:      -9.0      0.000      0.000
  Name = 
  6 active torsions:
  status: ('A' for Active; 'I' for Inactive)
    1  A    between atoms: C_3  and  N_24
    2  A    between atoms: C_8  and  C_25
    3  A    between atoms: C_12  and  C_25
    4  A    between atoms: C_13  and  C_21
    5  A    between atoms: C_25  and  N_27
    6  A    between atoms: C_26  and  N_27
                            x       y       z     vdW  Elec       q    Type
                         _______ _______ _______ _____ _____    ______ ____

>  <TORSDO>
F 6

$$$$
=
 OpenBabel11042412063D

 30 32  0  0  1  0  0  0  0  0999 V2000
  189.9980  177.6010  142.1150 C   0  0  1  0  0  3  0  0  0  0  0  0
  185.7520  179.2600  140.3190 N   0  0  0  0  0  0  0  0  0  0  0  0
  187.9640  177.4010  143.3580 O   0  0  0  0  0  0  0  0  0  0  0  0
  188.5250  177.7900  142.2980 C   0  0  0  0  0  0  0  0  0  0  0  0
  184.1760  178.8180  141.7780 C   0  0  0  0  0  0  0  0  0  0  0  0
  187.7750  178.4310  141.2610 N   0  0  0  0  0  2  0  0  0  0  0  0
  185.4310  178.2910  142.3910 C   0  0  0  0  0  2  0  0  0  0  0  0
  186.3640  178.6720  141.2890 C   0  0  0  0  0  0  0  0  0  0  0  0
  184.3920  179.3510  140.6240 N   0  0  0  0  0  0  0  0  0  0  0  0
  182.6840  178.9390  143.6490 N   0  0  0  0  0  2  0  0  0  0  0  0
  182.8440  178.7560  142.3810 C   0  0  0  0  0  3  0  0  0  0  0  0
  191.6470  176.5440  145.1840 C   0  0  0  0  0  0  0  0  0  0  0  0
  191.7710  177.8460  145.3050 O   0  0  0  0  0  0  0  0  0  0  0  0
  192.2610  175.3960  146.3540 Cl  0  0  0  0  0  0  0  0  0  0  0  0
  190.9780  176.2030  144.0180 C   0  0  0  0  0  3  0  0  0  0  0  0
  190.6900  177.4210  143.4320 C   0  0  0  0  0  0  0  0  0  0  0  0
  191.1480  179.7990  144.0380 N   0  0  0  0  0  1  0  0  0  0  0  0
  191.2070  178.3940  144.2610 C   0  0  0  0  0  0  0  0  0  0  0  0
  190.2720  176.4790  141.2290 N   0  0  0  0  0  2  0  0  0  0  0  0
  192.9150  176.6350  137.9910 C   0  0  0  0  0  0  0  0  0  0  0  0
  190.7010  176.0380  138.8630 C   0  0  1  0  0  3  0  0  0  0  0  0
  193.3730  176.6300  139.4250 C   0  0  0  0  0  2  0  0  0  0  0  0
  191.6370  176.3540  137.7350 C   0  0  0  0  0  3  0  0  0  0  0  0
  190.8950  177.0160  140.0300 C   0  0  2  0  0  3  0  0  0  0  0  0
  192.3700  177.3660  140.3210 C   0  0  0  0  0  2  0  0  0  0  0  0
  189.3940  176.0860  138.4140 F   0  0  0  0  0  0  0  0  0  0  0  0
  195.2530  176.5200  135.0850 N   0  0  0  0  0  1  0  0  0  0  0  0
  194.4230  176.0430  136.1380 C   0  0  0  0  0  0  0  0  0  0  0  0
  194.3090  174.6370  136.3440 N   0  0  0  0  0  1  0  0  0  0  0  0
  193.7960  176.9020  136.8870 N   0  0  0  0  0  0  0  0  0  0  0  0
  1 19  1  6  0  0  0
  1  4  1  0  0  0  0
  1 16  1  0  0  0  0
  2  9  1  0  0  0  0
  2  8  2  0  0  0  0
  4  3  2  0  0  0  0
  5 11  1  0  0  0  0
  5  7  1  0  0  0  0
  6  8  1  0  0  0  0
  6  4  1  0  0  0  0
  8  7  1  0  0  0  0
  9  5  2  0  0  0  0
 11 10  2  0  0  0  0
 12 13  1  0  0  0  0
 12 14  1  0  0  0  0
 15 12  2  0  0  0  0
 16 15  1  0  0  0  0
 16 18  2  0  0  0  0
 17 18  1  0  0  0  0
 18 13  1  0  0  0  0
 20 22  1  0  0  0  0
 21 26  1  6  0  0  0
 21 24  1  0  0  0  0
 22 25  1  0  0  0  0
 23 20  2  0  0  0  0
 23 21  1  0  0  0  0
 24 25  1  0  0  0  0
 24 19  1  1  0  0  0
 27 28  1  0  0  0  0
 28 29  1  0  0  0  0
 28 30  2  0  0  0  0
 30 20  1  0  0  0  0
M  END
>  <MODEL>
2

>  <REMARK>
 VINA RESULT:      -8.9      4.521      7.513
  Name = 
  6 active torsions:
  status: ('A' for Active; 'I' for Inactive)
    1  A    between atoms: C_3  and  N_24
    2  A    between atoms: C_8  and  C_25
    3  A    between atoms: C_12  and  C_25
    4  A    between atoms: C_13  and  C_21
    5  A    between atoms: C_25  and  N_27
    6  A    between atoms: C_26  and  N_27
                            x       y       z     vdW  Elec       q    Type
                         _______ _______ _______ _____ _____    ______ ____

>  <TORSDO>
F 6

$$$$
=
 OpenBabel11042412063D

 30 32  0  0  1  0  0  0  0  0999 V2000
  188.7890  177.1240  143.6740 C   0  0  1  0  0  3  0  0  0  0  0  0
  188.9080  178.6260  139.0110 N   0  0  0  0  0  0  0  0  0  0  0  0
  189.9810  175.8930  142.0050 O   0  0  0  0  0  0  0  0  0  0  0  0
  189.2700  176.8990  142.2750 C   0  0  0  0  0  0  0  0  0  0  0  0
  190.1470  177.2190  137.8740 C   0  0  0  0  0  0  0  0  0  0  0  0
  188.8960  177.8310  141.2550 N   0  0  0  0  0  2  0  0  0  0  0  0
  190.1540  176.7000  139.2730 C   0  0  0  0  0  2  0  0  0  0  0  0
  189.2860  177.7520  139.8800 C   0  0  0  0  0  0  0  0  0  0  0  0
  189.4430  178.2940  137.7650 N   0  0  0  0  0  0  0  0  0  0  0  0
  191.9840  176.0350  136.8940 N   0  0  0  0  0  2  0  0  0  0  0  0
  190.8410  176.6130  136.7380 C   0  0  0  0  0  3  0  0  0  0  0  0
  191.2970  176.7930  146.2920 C   0  0  0  0  0  0  0  0  0  0  0  0
  191.8470  177.7500  145.5800 O   0  0  0  0  0  0  0  0  0  0  0  0
  192.0170  176.1210  147.7390 Cl  0  0  0  0  0  0  0  0  0  0  0  0
  190.0860  176.3880  145.7500 C   0  0  0  0  0  3  0  0  0  0  0  0
  189.9340  177.1930  144.6370 C   0  0  0  0  0  0  0  0  0  0  0  0
  191.3140  178.9850  143.5800 N   0  0  0  0  0  1  0  0  0  0  0  0
  191.0480  178.0050  144.5770 C   0  0  0  0  0  0  0  0  0  0  0  0
  187.9720  178.3270  143.7550 N   0  0  0  0  0  2  0  0  0  0  0  0
  183.8460  178.7030  144.3260 C   0  0  0  0  0  0  0  0  0  0  0  0
  185.7540  178.6700  142.7850 C   0  0  1  0  0  3  0  0  0  0  0  0
  184.8530  178.9720  145.4120 C   0  0  0  0  0  2  0  0  0  0  0  0
  184.2880  178.5580  143.0770 C   0  0  0  0  0  3  0  0  0  0  0  0
  186.5830  177.9030  143.8250 C   0  0  2  0  0  3  0  0  0  0  0  0
  186.0670  178.0460  145.2730 C   0  0  0  0  0  2  0  0  0  0  0  0
  186.0170  178.1870  141.5160 F   0  0  0  0  0  0  0  0  0  0  0  0
  180.1190  178.6430  144.1640 N   0  0  0  0  0  1  0  0  0  0  0  0
  181.4630  178.7650  143.7140 C   0  0  0  0  0  0  0  0  0  0  0  0
  181.7060  179.0470  142.3370 N   0  0  0  0  0  1  0  0  0  0  0  0
  182.4310  178.6220  144.5690 N   0  0  0  0  0  0  0  0  0  0  0  0
  1  4  1  6  0  0  0
  1 19  1  0  0  0  0
  1 16  1  0  0  0  0
  2  8  2  0  0  0  0
  3  4  2  0  0  0  0
  5  7  1  0  0  0  0
  6  4  1  0  0  0  0
  7  8  1  0  0  0  0
  8  6  1  0  0  0  0
  9  5  2  0  0  0  0
  9  2  1  0  0  0  0
 11 10  2  0  0  0  0
 11  5  1  0  0  0  0
 12 14  1  0  0  0  0
 13 12  1  0  0  0  0
 15 12  2  0  0  0  0
 16 15  1  0  0  0  0
 17 18  1  0  0  0  0
 18 16  2  0  0  0  0
 18 13  1  0  0  0  0
 20 30  1  0  0  0  0
 20 22  1  0  0  0  0
 21 26  1  6  0  0  0
 21 23  1  0  0  0  0
 21 24  1  0  0  0  0
 23 20  2  0  0  0  0
 24 19  1  1  0  0  0
 24 25  1  0  0  0  0
 25 22  1  0  0  0  0
 28 27  1  0  0  0  0
 28 30  2  0  0  0  0
 29 28  1  0  0  0  0
M  END
>  <MODEL>
3

>  <REMARK>
 VINA RESULT:      -8.8      3.745      6.682
  Name = 
  6 active torsions:
  status: ('A' for Active; 'I' for Inactive)
    1  A    between atoms: C_3  and  N_24
    2  A    between atoms: C_8  and  C_25
    3  A    between atoms: C_12  and  C_25
    4  A    between atoms: C_13  and  C_21
    5  A    between atoms: C_25  and  N_27
    6  A    between atoms: C_26  and  N_27
                            x       y       z     vdW  Elec       q    Type
                         _______ _______ _______ _____ _____    ______ ____

>  <TORSDO>
F 6

$$$$
=
 OpenBabel11042412063D

 30 32  0  0  1  0  0  0  0  0999 V2000
  189.8410  177.1440  142.4260 C   0  0  1  0  0  3  0  0  0  0  0  0
  190.6440  175.3350  137.9430 N   0  0  0  0  0  0  0  0  0  0  0  0
  191.8790  177.5910  141.2560 O   0  0  0  0  0  0  0  0  0  0  0  0
  190.7520  177.0250  141.2450 C   0  0  0  0  0  0  0  0  0  0  0  0
  192.6050  176.0430  137.2650 C   0  0  0  0  0  0  0  0  0  0  0  0
  190.3290  176.2500  140.1190 N   0  0  0  0  0  2  0  0  0  0  0  0
  192.4320  176.6270  138.6270 C   0  0  0  0  0  2  0  0  0  0  0  0
  191.0840  176.0530  138.9200 C   0  0  0  0  0  0  0  0  0  0  0  0
  191.5890  175.3290  136.9150 N   0  0  0  0  0  0  0  0  0  0  0  0
  194.1250  175.3200  135.5600 N   0  0  0  0  0  2  0  0  0  0  0  0
  193.7690  176.2340  136.3990 C   0  0  0  0  0  3  0  0  0  0  0  0
  191.6730  176.4700  145.4990 C   0  0  0  0  0  0  0  0  0  0  0  0
  191.8050  177.7760  145.4460 O   0  0  0  0  0  0  0  0  0  0  0  0
  192.3550  175.4750  146.7670 Cl  0  0  0  0  0  0  0  0  0  0  0  0
  190.9330  175.9900  144.4280 C   0  0  0  0  0  3  0  0  0  0  0  0
  190.6110  177.1260  143.7100 C   0  0  0  0  0  0  0  0  0  0  0  0
  191.1090  179.5580  143.9800 N   0  0  0  0  0  1  0  0  0  0  0  0
  191.1790  178.1920  144.3770 C   0  0  0  0  0  0  0  0  0  0  0  0
  189.0220  178.3450  142.3320 N   0  0  0  0  0  2  0  0  0  0  0  0
  184.8800  178.6180  142.8430 C   0  0  0  0  0  0  0  0  0  0  0  0
  186.8320  178.8670  141.3790 C   0  0  1  0  0  3  0  0  0  0  0  0
  185.8550  178.6790  143.9890 C   0  0  0  0  0  2  0  0  0  0  0  0
  185.3580  178.7060  141.6020 C   0  0  0  0  0  3  0  0  0  0  0  0
  187.6330  177.9190  142.2820 C   0  0  2  0  0  3  0  0  0  0  0  0
  187.0750  177.7920  143.7150 C   0  0  0  0  0  2  0  0  0  0  0  0
  187.1330  178.6270  140.0510 F   0  0  0  0  0  0  0  0  0  0  0  0
  181.3560  178.5650  144.0690 N   0  0  0  0  0  1  0  0  0  0  0  0
  182.7670  178.7490  144.0980 C   0  0  0  0  0  0  0  0  0  0  0  0
  183.3790  179.2010  145.3030 N   0  0  0  0  0  1  0  0  0  0  0  0
  183.4590  178.4960  143.0270 N   0  0  0  0  0  0  0  0  0  0  0  0
  1  4  1  6  0  0  0
  1 16  1  0  0  0  0
  2  8  2  0  0  0  0
  4  3  2  0  0  0  0
  5  7  1  0  0  0  0
  6  4  1  0  0  0  0
  7  8  1  0  0  0  0
  8  6  1  0  0  0  0
  9  5  2  0  0  0  0
  9  2  1  0  0  0  0
 10 11  2  0  0  0  0
 11  5  1  0  0  0  0
 12 14  1  0  0  0  0
 13 12  1  0  0  0  0
 15 12  2  0  0  0  0
 16 18  2  0  0  0  0
 16 15  1  0  0  0  0
 17 18  1  0  0  0  0
 18 13  1  0  0  0  0
 19  1  1  0  0  0  0
 20 30  1  0  0  0  0
 20 22  1  0  0  0  0
 21 26  1  6  0  0  0
 21 23  1  0  0  0  0
 21 24  1  0  0  0  0
 23 20  2  0  0  0  0
 24 19  1  1  0  0  0
 24 25  1  0  0  0  0
 25 22  1  0  0  0  0
 27 28  1  0  0  0  0
 28 29  1  0  0  0  0
 30 28  2  0  0  0  0
M  END
>  <MODEL>
4

>  <REMARK>
 VINA RESULT:      -8.7      4.233      6.927
  Name = 
  6 active torsions:
  status: ('A' for Active; 'I' for Inactive)
    1  A    between atoms: C_3  and  N_24
    2  A    between atoms: C_8  and  C_25
    3  A    between atoms: C_12  and  C_25
    4  A    between atoms: C_13  and  C_21
    5  A    between atoms: C_25  and  N_27
    6  A    between atoms: C_26  and  N_27
                            x       y       z     vdW  Elec       q    Type
                         _______ _______ _______ _____ _____    ______ ____

>  <TORSDO>
F 6

$$$$
=
 OpenBabel11042412063D

 30 32  0  0  1  0  0  0  0  0999 V2000
  190.1930  177.3100  139.3780 C   0  0  1  0  0  3  0  0  0  0  0  0
  192.3660  175.6690  135.3040 N   0  0  0  0  0  0  0  0  0  0  0  0
  192.5570  176.9500  139.2930 O   0  0  0  0  0  0  0  0  0  0  0  0
  191.4550  176.9090  138.6800 C   0  0  0  0  0  0  0  0  0  0  0  0
  194.5210  175.5410  135.6860 C   0  0  0  0  0  0  0  0  0  0  0  0
  191.3840  176.4670  137.3210 N   0  0  0  0  0  2  0  0  0  0  0  0
  193.9290  176.0410  136.9620 C   0  0  0  0  0  2  0  0  0  0  0  0
  192.5020  176.0630  136.5240 C   0  0  0  0  0  0  0  0  0  0  0  0
  193.6200  175.3450  134.7830 N   0  0  0  0  0  0  0  0  0  0  0  0
  196.8430  176.0690  135.9480 N   0  0  0  0  0  2  0  0  0  0  0  0
  195.9430  175.2920  135.4470 C   0  0  0  0  0  3  0  0  0  0  0  0
  187.2730  176.6970  137.2930 C   0  0  0  0  0  0  0  0  0  0  0  0
  187.4640  177.9700  137.0350 O   0  0  0  0  0  0  0  0  0  0  0  0
  185.9740  175.7490  136.6010 Cl  0  0  0  0  0  0  0  0  0  0  0  0
  188.2220  176.2090  138.1790 C   0  0  0  0  0  3  0  0  0  0  0  0
  189.0270  177.3020  138.4380 C   0  0  0  0  0  0  0  0  0  0  0  0
  189.0230  179.6860  137.6950 N   0  0  0  0  0  1  0  0  0  0  0  0
  188.5100  178.3580  137.7150 C   0  0  0  0  0  0  0  0  0  0  0  0
  189.9380  176.4510  140.5250 N   0  0  0  0  0  2  0  0  0  0  0  0
  189.3190  177.4800  144.5320 C   0  0  0  0  0  0  0  0  0  0  0  0
  190.8570  177.2910  142.6300 C   0  0  1  0  0  3  0  0  0  0  0  0
  188.4310  176.5210  143.7840 C   0  0  0  0  0  2  0  0  0  0  0  0
  190.4720  177.8420  143.9700 C   0  0  0  0  0  3  0  0  0  0  0  0
  189.6650  177.3150  141.6620 C   0  0  2  0  0  3  0  0  0  0  0  0
  188.3200  176.9190  142.3070 C   0  0  0  0  0  2  0  0  0  0  0  0
  191.9090  178.0200  142.1080 F   0  0  0  0  0  0  0  0  0  0  0  0
  188.9910  178.2630  148.1650 N   0  0  0  0  0  1  0  0  0  0  0  0
  189.4430  177.6070  146.9870 C   0  0  0  0  0  0  0  0  0  0  0  0
  190.3730  176.5330  147.1090 N   0  0  0  0  0  1  0  0  0  0  0  0
  188.9930  178.0000  145.8320 N   0  0  0  0  0  0  0  0  0  0  0  0
  1  4  1  6  0  0  0
  1 19  1  0  0  0  0
  2  8  2  0  0  0  0
  4  3  2  0  0  0  0
  5  7  1  0  0  0  0
  6  4  1  0  0  0  0
  8  7  1  0  0  0  0
  8  6  1  0  0  0  0
  9  2  1  0  0  0  0
  9  5  2  0  0  0  0
 11  5  1  0  0  0  0
 11 10  2  0  0  0  0
 12 15  2  0  0  0  0
 13 12  1  0  0  0  0
 13 18  1  0  0  0  0
 14 12  1  0  0  0  0
 15 16  1  0  0  0  0
 16  1  1  0  0  0  0
 17 18  1  0  0  0  0
 18 16  2  0  0  0  0
 20 30  1  0  0  0  0
 21 26  1  6  0  0  0
 21 23  1  0  0  0  0
 22 20  1  0  0  0  0
 23 20  2  0  0  0  0
 24 19  1  6  0  0  0
 24 25  1  0  0  0  0
 24 21  1  0  0  0  0
 25 22  1  0  0  0  0
 28 29  1  0  0  0  0
 28 27  1  0  0  0  0
 30 28  2  0  0  0  0
M  END
>  <MODEL>
5

>  <REMARK>
 VINA RESULT:      -8.2      4.470      6.424
  Name = 
  6 active torsions:
  status: ('A' for Active; 'I' for Inactive)
    1  A    between atoms: C_3  and  N_24
    2  A    between atoms: C_8  and  C_25
    3  A    between atoms: C_12  and  C_25
    4  A    between atoms: C_13  and  C_21
    5  A    between atoms: C_25  and  N_27
    6  A    between atoms: C_26  and  N_27
                            x       y       z     vdW  Elec       q    Type
                         _______ _______ _______ _____ _____    ______ ____

>  <TORSDO>
F 6

$$$$
=
 OpenBabel11042412063D

 30 32  0  0  1  0  0  0  0  0999 V2000
  187.6360  177.8840  141.2270 C   0  0  1  0  0  3  0  0  0  0  0  0
  190.9290  178.6200  144.7790 N   0  0  0  0  0  0  0  0  0  0  0  0
  188.5390  176.0560  142.4780 O   0  0  0  0  0  0  0  0  0  0  0  0
  188.5150  177.3020  142.2890 C   0  0  0  0  0  0  0  0  0  0  0  0
  191.4230  176.6750  145.6630 C   0  0  0  0  0  0  0  0  0  0  0  0
  189.3340  178.1800  143.0680 N   0  0  0  0  0  2  0  0  0  0  0  0
  190.4260  176.3740  144.5950 C   0  0  0  0  0  2  0  0  0  0  0  0
  190.2150  177.7730  144.1200 C   0  0  0  0  0  0  0  0  0  0  0  0
  191.6810  177.9370  145.7380 N   0  0  0  0  0  0  0  0  0  0  0  0
  192.4300  176.0090  147.7320 N   0  0  0  0  0  2  0  0  0  0  0  0
  192.0560  175.6880  146.5390 C   0  0  0  0  0  3  0  0  0  0  0  0
  184.6850  178.7850  143.1590 C   0  0  0  0  0  0  0  0  0  0  0  0
  184.3330  179.2600  141.9860 O   0  0  0  0  0  0  0  0  0  0  0  0
  183.6880  178.9010  144.5930 Cl  0  0  0  0  0  0  0  0  0  0  0  0
  185.9370  178.1900  143.1130 C   0  0  0  0  0  3  0  0  0  0  0  0
  186.3240  178.3340  141.7940 C   0  0  0  0  0  0  0  0  0  0  0  0
  185.2880  179.3770  139.7760 N   0  0  0  0  0  1  0  0  0  0  0  0
  185.3050  179.0050  141.1500 C   0  0  0  0  0  0  0  0  0  0  0  0
  188.3050  178.9800  140.5410 N   0  0  0  0  0  2  0  0  0  0  0  0
  190.0940  176.0210  138.1870 C   0  0  0  0  0  0  0  0  0  0  0  0
  188.1130  177.3690  138.7110 C   0  0  1  0  0  3  0  0  0  0  0  0
  190.5830  176.3820  139.5650 C   0  0  0  0  0  2  0  0  0  0  0  0
  188.9150  176.5000  137.7900 C   0  0  0  0  0  3  0  0  0  0  0  0
  189.0030  178.4140  139.3980 C   0  0  2  0  0  3  0  0  0  0  0  0
  190.3800  177.8770  139.8420 C   0  0  0  0  0  2  0  0  0  0  0  0
  187.1030  177.9940  138.0040 F   0  0  0  0  0  0  0  0  0  0  0  0
  191.3550  173.3070  135.9590 N   0  0  0  0  0  1  0  0  0  0  0  0
  190.4790  173.9950  136.8450 C   0  0  0  0  0  0  0  0  0  0  0  0
  189.2500  173.3760  137.2180 N   0  0  0  0  0  1  0  0  0  0  0  0
  190.8260  175.1650  137.2940 N   0  0  0  0  0  0  0  0  0  0  0  0
  1 19  1  1  0  0  0
  1 16  1  0  0  0  0
  1  4  1  0  0  0  0
  2  9  1  0  0  0  0
  4  3  2  0  0  0  0
  4  6  1  0  0  0  0
  5  9  2  0  0  0  0
  5 11  1  0  0  0  0
  6  8  1  0  0  0  0
  7  5  1  0  0  0  0
  8  7  1  0  0  0  0
  8  2  2  0  0  0  0
 11 10  2  0  0  0  0
 12 14  1  0  0  0  0
 13 12  1  0  0  0  0
 15 12  2  0  0  0  0
 16 15  1  0  0  0  0
 17 18  1  0  0  0  0
 18 16  2  0  0  0  0
 18 13  1  0  0  0  0
 20 22  1  0  0  0  0
 21 26  1  6  0  0  0
 21 24  1  0  0  0  0
 22 25  1  0  0  0  0
 23 20  2  0  0  0  0
 23 21  1  0  0  0  0
 24 25  1  0  0  0  0
 24 19  1  1  0  0  0
 27 28  1  0  0  0  0
 28 29  1  0  0  0  0
 28 30  2  0  0  0  0
 30 20  1  0  0  0  0
M  END
>  <MODEL>
6

>  <REMARK>
 VINA RESULT:      -8.2      2.842      7.282
  Name = 
  6 active torsions:
  status: ('A' for Active; 'I' for Inactive)
    1  A    between atoms: C_3  and  N_24
    2  A    between atoms: C_8  and  C_25
    3  A    between atoms: C_12  and  C_25
    4  A    between atoms: C_13  and  C_21
    5  A    between atoms: C_25  and  N_27
    6  A    between atoms: C_26  and  N_27
                            x       y       z     vdW  Elec       q    Type
                         _______ _______ _______ _____ _____    ______ ____

>  <TORSDO>
F 6

$$$$
=
 OpenBabel11042412063D

 30 32  0  0  1  0  0  0  0  0999 V2000
  187.6130  177.4310  141.3170 C   0  0  1  0  0  3  0  0  0  0  0  0
  191.2400  178.5150  144.4280 N   0  0  0  0  0  0  0  0  0  0  0  0
  188.2470  175.9170  143.0580 O   0  0  0  0  0  0  0  0  0  0  0  0
  188.4440  177.0280  142.4950 C   0  0  0  0  0  0  0  0  0  0  0  0
  191.4240  176.8660  145.8600 C   0  0  0  0  0  0  0  0  0  0  0  0
  189.4680  177.9150  142.9550 N   0  0  0  0  0  2  0  0  0  0  0  0
  190.3120  176.4660  144.9490 C   0  0  0  0  0  2  0  0  0  0  0  0
  190.3320  177.6730  144.0700 C   0  0  0  0  0  0  0  0  0  0  0  0
  191.9190  178.0130  145.5400 N   0  0  0  0  0  0  0  0  0  0  0  0
  192.2440  176.6510  148.1010 N   0  0  0  0  0  2  0  0  0  0  0  0
  191.9240  176.0800  146.9890 C   0  0  0  0  0  3  0  0  0  0  0  0
  184.9140  179.2590  142.9370 C   0  0  0  0  0  0  0  0  0  0  0  0
  184.6540  179.5490  141.6830 O   0  0  0  0  0  0  0  0  0  0  0  0
  183.9710  179.8530  144.2880 Cl  0  0  0  0  0  0  0  0  0  0  0  0
  186.0230  178.4340  143.0500 C   0  0  0  0  0  3  0  0  0  0  0  0
  186.4210  178.2320  141.7420 C   0  0  0  0  0  0  0  0  0  0  0  0
  185.5940  179.0310  139.5250 N   0  0  0  0  0  1  0  0  0  0  0  0
  185.5490  178.9460  140.9460 C   0  0  0  0  0  0  0  0  0  0  0  0
  188.4100  178.1660  140.3450 N   0  0  0  0  0  2  0  0  0  0  0  0
  190.5900  176.7350  137.0750 C   0  0  0  0  0  0  0  0  0  0  0  0
  190.5700  177.5170  139.4000 C   0  0  1  0  0  3  0  0  0  0  0  0
  189.2550  177.4180  136.9370 C   0  0  0  0  0  2  0  0  0  0  0  0
  191.2060  176.7870  138.2560 C   0  0  0  0  0  3  0  0  0  0  0  0
  189.0740  177.1870  139.4990 C   0  0  2  0  0  3  0  0  0  0  0  0
  188.3540  177.1030  138.1370 C   0  0  0  0  0  2  0  0  0  0  0  0
  191.2100  177.1860  140.5800 F   0  0  0  0  0  0  0  0  0  0  0  0
  191.9610  174.3090  134.5940 N   0  0  0  0  0  1  0  0  0  0  0  0
  191.2530  174.7810  135.7340 C   0  0  0  0  0  0  0  0  0  0  0  0
  190.5820  173.8380  136.5680 N   0  0  0  0  0  1  0  0  0  0  0  0
  191.2400  176.0560  135.9880 N   0  0  0  0  0  0  0  0  0  0  0  0
  1 19  1  6  0  0  0
  1 16  1  0  0  0  0
  1  4  1  0  0  0  0
  2  9  1  0  0  0  0
  4  6  1  0  0  0  0
  4  3  2  0  0  0  0
  5 11  1  0  0  0  0
  6  8  1  0  0  0  0
  7  5  1  0  0  0  0
  8  2  2  0  0  0  0
  8  7  1  0  0  0  0
  9  5  2  0  0  0  0
 11 10  2  0  0  0  0
 12 15  2  0  0  0  0
 12 14  1  0  0  0  0
 13 12  1  0  0  0  0
 16 15  1  0  0  0  0
 17 18  1  0  0  0  0
 18 13  1  0  0  0  0
 18 16  2  0  0  0  0
 20 23  2  0  0  0  0
 21 24  1  0  0  0  0
 21 26  1  1  0  0  0
 22 20  1  0  0  0  0
 22 25  1  0  0  0  0
 23 21  1  0  0  0  0
 24 19  1  1  0  0  0
 25 24  1  0  0  0  0
 27 28  1  0  0  0  0
 28 30  2  0  0  0  0
 28 29  1  0  0  0  0
 30 20  1  0  0  0  0
M  END
>  <MODEL>
7

>  <REMARK>
 VINA RESULT:      -8.1      2.767      7.615
  Name = 
  6 active torsions:
  status: ('A' for Active; 'I' for Inactive)
    1  A    between atoms: C_3  and  N_24
    2  A    between atoms: C_8  and  C_25
    3  A    between atoms: C_12  and  C_25
    4  A    between atoms: C_13  and  C_21
    5  A    between atoms: C_25  and  N_27
    6  A    between atoms: C_26  and  N_27
                            x       y       z     vdW  Elec       q    Type
                         _______ _______ _______ _____ _____    ______ ____

>  <TORSDO>
F 6

$$$$
=
 OpenBabel11042412063D

 30 32  0  0  1  0  0  0  0  0999 V2000
  187.8850  177.7120  142.0380 C   0  0  1  0  0  3  0  0  0  0  0  0
  183.6620  178.5110  144.3920 N   0  0  0  0  0  0  0  0  0  0  0  0
  185.8900  178.2820  140.8470 O   0  0  0  0  0  0  0  0  0  0  0  0
  186.4320  178.0660  141.9640 C   0  0  0  0  0  0  0  0  0  0  0  0
  182.1430  179.0430  142.9040 C   0  0  0  0  0  0  0  0  0  0  0  0
  185.6750  178.1370  143.1770 N   0  0  0  0  0  2  0  0  0  0  0  0
  183.3910  178.8120  142.1190 C   0  0  0  0  0  2  0  0  0  0  0  0
  184.2860  178.4710  143.2650 C   0  0  0  0  0  0  0  0  0  0  0  0
  182.3310  178.8660  144.1680 N   0  0  0  0  0  0  0  0  0  0  0  0
  180.6720  179.5030  141.0690 N   0  0  0  0  0  2  0  0  0  0  0  0
  180.8450  179.4230  142.3460 C   0  0  0  0  0  3  0  0  0  0  0  0
  189.0670  178.4580  138.6770 C   0  0  0  0  0  0  0  0  0  0  0  0
  189.9510  177.5520  139.0250 O   0  0  0  0  0  0  0  0  0  0  0  0
  189.0670  179.2700  137.1260 Cl  0  0  0  0  0  0  0  0  0  0  0  0
  188.1460  178.6850  139.6880 C   0  0  0  0  0  3  0  0  0  0  0  0
  188.5400  177.8260  140.6960 C   0  0  0  0  0  0  0  0  0  0  0  0
  190.4030  176.1830  140.9570 N   0  0  0  0  0  1  0  0  0  0  0  0
  189.6580  177.1600  140.2370 C   0  0  0  0  0  0  0  0  0  0  0  0
  188.5720  178.5390  143.0200 N   0  0  0  0  0  2  0  0  0  0  0  0
  190.8240  177.4270  146.3650 C   0  0  0  0  0  0  0  0  0  0  0  0
  188.6250  177.8710  145.3720 C   0  0  1  0  0  3  0  0  0  0  0  0
  191.3930  178.2200  145.2180 C   0  0  0  0  0  2  0  0  0  0  0  0
  189.5020  177.2650  146.4260 C   0  0  0  0  0  3  0  0  0  0  0  0
  189.2100  177.6430  143.9710 C   0  0  2  0  0  3  0  0  0  0  0  0
  190.7430  177.8060  143.8920 C   0  0  0  0  0  2  0  0  0  0  0  0
  187.3550  177.3300  145.4510 F   0  0  0  0  0  0  0  0  0  0  0  0
  193.0880  175.3880  148.5190 N   0  0  0  0  0  1  0  0  0  0  0  0
  192.3470  175.7740  147.3670 C   0  0  0  0  0  0  0  0  0  0  0  0
  192.4020  174.9510  146.2040 N   0  0  0  0  0  1  0  0  0  0  0  0
  191.6360  176.8620  147.4070 N   0  0  0  0  0  0  0  0  0  0  0  0
  1  4  1  6  0  0  0
  1 19  1  0  0  0  0
  3  4  2  0  0  0  0
  4  6  1  0  0  0  0
  5  9  2  0  0  0  0
  6  8  1  0  0  0  0
  7  5  1  0  0  0  0
  7  8  1  0  0  0  0
  8  2  2  0  0  0  0
  9  2  1  0  0  0  0
 10 11  2  0  0  0  0
 11  5  1  0  0  0  0
 12 13  1  0  0  0  0
 12 15  2  0  0  0  0
 13 18  1  0  0  0  0
 14 12  1  0  0  0  0
 15 16  1  0  0  0  0
 16  1  1  0  0  0  0
 18 16  2  0  0  0  0
 18 17  1  0  0  0  0
 20 23  2  0  0  0  0
 20 30  1  0  0  0  0
 21 26  1  6  0  0  0
 21 23  1  0  0  0  0
 22 20  1  0  0  0  0
 24 19  1  6  0  0  0
 24 21  1  0  0  0  0
 25 24  1  0  0  0  0
 25 22  1  0  0  0  0
 28 30  2  0  0  0  0
 28 27  1  0  0  0  0
 29 28  1  0  0  0  0
M  END
>  <MODEL>
8

>  <REMARK>
 VINA RESULT:      -8.1      3.014      5.435
  Name = 
  6 active torsions:
  status: ('A' for Active; 'I' for Inactive)
    1  A    between atoms: C_3  and  N_24
    2  A    between atoms: C_8  and  C_25
    3  A    between atoms: C_12  and  C_25
    4  A    between atoms: C_13  and  C_21
    5  A    between atoms: C_25  and  N_27
    6  A    between atoms: C_26  and  N_27
                            x       y       z     vdW  Elec       q    Type
                         _______ _______ _______ _____ _____    ______ ____

>  <TORSDO>
F 6

$$$$
=
 OpenBabel11042412063D

 30 32  0  0  1  0  0  0  0  0999 V2000
  188.7830  178.0570  142.3050 C   0  0  1  0  0  3  0  0  0  0  0  0
  184.3170  178.5250  144.2660 N   0  0  0  0  0  0  0  0  0  0  0  0
  186.8480  178.3340  140.9270 O   0  0  0  0  0  0  0  0  0  0  0  0
  187.3140  178.2440  142.0950 C   0  0  0  0  0  0  0  0  0  0  0  0
  182.8820  178.7990  142.6310 C   0  0  0  0  0  0  0  0  0  0  0  0
  186.4530  178.3030  143.2380 N   0  0  0  0  0  2  0  0  0  0  0  0
  184.2090  178.6610  141.9630 C   0  0  0  0  0  2  0  0  0  0  0  0
  185.0350  178.4870  143.1950 C   0  0  0  0  0  0  0  0  0  0  0  0
  182.9800  178.7190  143.9150 N   0  0  0  0  0  0  0  0  0  0  0  0
  181.2680  178.2690  140.9420 N   0  0  0  0  0  2  0  0  0  0  0  0
  181.6030  179.0020  141.9500 C   0  0  0  0  0  3  0  0  0  0  0  0
  189.1180  177.4220  145.8740 C   0  0  0  0  0  0  0  0  0  0  0  0
  190.1590  178.2010  145.6910 O   0  0  0  0  0  0  0  0  0  0  0  0
  188.6870  176.7230  147.4200 Cl  0  0  0  0  0  0  0  0  0  0  0  0
  188.4150  177.2250  144.6950 C   0  0  0  0  0  3  0  0  0  0  0  0
  189.1170  177.9660  143.7630 C   0  0  0  0  0  0  0  0  0  0  0  0
  191.1760  179.3770  143.8490 N   0  0  0  0  0  1  0  0  0  0  0  0
  190.1820  178.5380  144.4280 C   0  0  0  0  0  0  0  0  0  0  0  0
  189.2650  176.8820  141.5910 N   0  0  0  0  0  2  0  0  0  0  0  0
  192.2250  176.7450  138.6400 C   0  0  0  0  0  0  0  0  0  0  0  0
  189.8750  176.4270  139.2680 C   0  0  1  0  0  3  0  0  0  0  0  0
  192.5290  176.6570  140.1120 C   0  0  0  0  0  2  0  0  0  0  0  0
  190.9550  176.6370  138.2490 C   0  0  0  0  0  3  0  0  0  0  0  0
  190.0720  177.3530  140.4770 C   0  0  2  0  0  3  0  0  0  0  0  0
  191.5410  177.5030  140.9250 C   0  0  0  0  0  2  0  0  0  0  0  0
  188.6390  176.6530  138.6920 F   0  0  0  0  0  0  0  0  0  0  0  0
  194.9270  176.3740  136.0930 N   0  0  0  0  0  1  0  0  0  0  0  0
  193.9690  175.9940  137.0740 C   0  0  0  0  0  0  0  0  0  0  0  0
  193.8390  174.6150  137.4120 N   0  0  0  0  0  1  0  0  0  0  0  0
  193.2420  176.9130  137.6380 N   0  0  0  0  0  0  0  0  0  0  0  0
  1 19  1  6  0  0  0
  1 16  1  0  0  0  0
  3  4  2  0  0  0  0
  4  1  1  0  0  0  0
  4  6  1  0  0  0  0
  5  9  2  0  0  0  0
  7  5  1  0  0  0  0
  7  8  1  0  0  0  0
  8  6  1  0  0  0  0
  8  2  2  0  0  0  0
  9  2  1  0  0  0  0
 10 11  2  0  0  0  0
 11  5  1  0  0  0  0
 12 14  1  0  0  0  0
 13 12  1  0  0  0  0
 15 12  2  0  0  0  0
 16 18  2  0  0  0  0
 16 15  1  0  0  0  0
 17 18  1  0  0  0  0
 18 13  1  0  0  0  0
 20 22  1  0  0  0  0
 21 26  1  6  0  0  0
 21 24  1  0  0  0  0
 22 25  1  0  0  0  0
 23 20  2  0  0  0  0
 23 21  1  0  0  0  0
 24 25  1  0  0  0  0
 24 19  1  1  0  0  0
 27 28  1  0  0  0  0
 28 29  1  0  0  0  0
 28 30  2  0  0  0  0
 30 20  1  0  0  0  0
M  END
>  <MODEL>
9

>  <REMARK>
 VINA RESULT:      -7.9      3.975      6.855
  Name = 
  6 active torsions:
  status: ('A' for Active; 'I' for Inactive)
    1  A    between atoms: C_3  and  N_24
    2  A    between atoms: C_8  and  C_25
    3  A    between atoms: C_12  and  C_25
    4  A    between atoms: C_13  and  C_21
    5  A    between atoms: C_25  and  N_27
    6  A    between atoms: C_26  and  N_27
                            x       y       z     vdW  Elec       q    Type
                         _______ _______ _______ _____ _____    ______ ____

>  <TORSDO>
F 6

$$$$
