=
 OpenBabel11032421063D

 59 63  0  0  1  0  0  0  0  0999 V2000
  187.2430  175.5660  136.2470 C   0  0  0  0  0  3  0  0  0  0  0  0
  187.9970  176.6230  136.0410 C   0  0  0  0  0  0  0  0  0  0  0  0
  187.2090  177.8640  136.3450 C   0  0  1  0  0  3  0  0  0  0  0  0
  185.9700  176.0040  136.6880 N   0  0  0  0  0  0  0  0  0  0  0  0
  185.8780  177.4030  136.7640 N   0  0  0  0  0  2  0  0  0  0  0  0
  184.9530  173.8210  136.8330 C   0  0  0  0  0  3  0  0  0  0  0  0
  184.8800  175.1430  137.0420 C   0  0  0  0  0  0  0  0  0  0  0  0
  183.6380  175.7240  137.6710 C   0  0  0  0  0  2  0  0  0  0  0  0
  182.5050  173.5860  136.9410 C   0  0  0  0  0  0  0  0  0  0  0  0
  182.3650  175.0870  137.0960 C   0  0  1  0  0  3  0  0  0  0  0  0
  181.5490  172.9160  136.5850 O   0  0  0  0  0  0  0  0  0  0  0  0
  183.8210  172.9140  137.2200 C   0  0  0  0  0  2  0  0  0  0  0  0
  181.2410  175.4050  137.9630 N   0  0  0  0  0  2  0  0  0  0  0  0
  181.4890  176.7270  138.5110 C   0  0  0  0  0  2  0  0  0  0  0  0
  179.6480  176.1120  140.1830 C   0  0  0  0  0  3  0  0  0  0  0  0
  180.0410  177.5580  141.7570 N   0  0  0  0  0  0  0  0  0  0  0  0
  179.9200  178.2710  143.0190 C   0  0  0  0  0  1  0  0  0  0  0  0
  179.2590  176.5470  141.4040 N   0  0  0  0  0  0  0  0  0  0  0  0
  180.7100  176.8980  139.7710 C   0  0  0  0  0  0  0  0  0  0  0  0
  180.9400  177.7960  140.7900 C   0  0  0  0  0  0  0  0  0  0  0  0
  182.0010  178.8490  140.8360 C   0  0  0  0  0  1  0  0  0  0  0  0
  191.6540  175.6540  135.5290 C   0  0  0  0  0  3  0  0  0  0  0  0
  189.6890  177.4520  134.6220 O   0  0  0  0  0  0  0  0  0  0  0  0
  190.2440  174.7400  136.9260 C   0  0  0  0  0  3  0  0  0  0  0  0
  192.3210  174.6440  136.1950 C   0  0  0  0  0  0  0  0  0  0  0  0
  189.3840  176.6150  135.5170 C   0  0  0  0  0  0  0  0  0  0  0  0
  191.4390  174.0620  137.0940 C   0  0  0  0  0  3  0  0  0  0  0  0
  190.3870  175.6930  135.9820 N   0  0  0  0  0  0  0  0  0  0  0  0
  193.7180  174.2990  136.0450 N   0  0  0  0  0  0  0  0  0  0  0  0
  195.2080  172.9290  134.8440 O   0  0  0  0  0  0  0  0  0  0  0  0
  194.7200  175.1670  136.6190 C   0  0  0  0  0  0  0  0  0  0  0  0
  193.2600  171.9390  135.5130 O   0  0  0  0  0  1  0  0  0  0  0  0
  194.5820  175.5690  137.8060 O   0  0  0  0  0  0  0  0  0  0  0  0
  194.1000  173.0470  135.4340 C   0  0  0  0  0  0  0  0  0  0  0  0
  195.9130  175.6470  135.8370 C   0  0  1  0  0  3  0  0  0  0  0  0
  195.6100  176.9600  135.1300 C   0  0  0  0  0  1  0  0  0  0  0  0
  197.0390  175.7800  136.6590 O   0  0  0  0  0  0  0  0  0  0  0  0
  197.7520  174.5860  136.5000 C   0  0  0  0  0  2  0  0  0  0  0  0
  198.6540  174.3680  137.7050 C   0  0  0  0  0  1  0  0  0  0  0  0
  188.9450  179.4280  136.9440 O   0  0  0  0  0  1  0  0  0  0  0  0
  187.8680  178.6870  137.4520 C   0  0  2  0  0  3  0  0  0  0  0  0
  188.3330  177.7650  138.5710 C   0  0  0  0  0  2  0  0  0  0  0  0
  187.5630  178.0450  139.8500 C   0  0  0  0  0  2  0  0  0  0  0  0
  188.5250  178.4200  140.9700 C   0  0  0  0  0  2  0  0  0  0  0  0
  188.5060  177.4090  142.1170 C   0  0  1  0  0  3  0  0  0  0  0  0
  190.9290  176.9200  141.0380 O   0  0  0  0  0  0  0  0  0  0  0  0
  190.0740  175.2880  142.6690 O   0  0  0  0  0  0  0  0  0  0  0  0
  190.1570  176.7510  142.3180 S   0  0  0  0  0  0  0  0  0  0  0  0
  190.9500  177.6180  143.5860 N   0  0  0  0  0  2  0  0  0  0  0  0
  191.5130  176.6340  144.5050 C   0  0  0  0  0  2  0  0  0  0  0  0
  191.9350  176.9450  146.8450 O   0  0  0  0  0  1  0  0  0  0  0  0
  189.9730  177.9660  145.9570 C   0  0  0  0  0  1  0  0  0  0  0  0
  190.9210  176.7870  145.8940 C   0  0  1  0  0  3  0  0  0  0  0  0
  188.1090  178.0370  143.3010 O   0  0  0  0  0  0  0  0  0  0  0  0
  184.6460  178.4440  143.9940 C   0  0  0  0  0  2  0  0  0  0  0  0
  186.8320  177.5420  143.5800 C   0  0  0  0  0  3  0  0  0  0  0  0
  185.3090  178.2700  145.3440 C   0  0  0  0  0  2  0  0  0  0  0  0
  185.7760  178.4590  142.9970 C   0  0  0  0  0  2  0  0  0  0  0  0
  186.6040  177.5220  145.0790 C   0  0  0  0  0  2  0  0  0  0  0  0
  1  4  1  0  0  0  0
  2  1  2  0  0  0  0
  2  3  1  0  0  0  0
  3  5  1  0  0  0  0
  3 41  1  1  0  0  0
  4  5  1  0  0  0  0
  4  7  1  0  0  0  0
  6  7  2  0  0  0  0
  6 12  1  0  0  0  0
  7  8  1  0  0  0  0
  9 10  1  0  0  0  0
  9 12  1  0  0  0  0
 10  8  1  0  0  0  0
 10 13  1  1  0  0  0
 11  9  2  0  0  0  0
 13 14  1  0  0  0  0
 14 19  1  0  0  0  0
 15 18  2  0  0  0  0
 16 17  1  0  0  0  0
 18 16  1  0  0  0  0
 19 15  1  0  0  0  0
 19 20  2  0  0  0  0
 20 21  1  0  0  0  0
 20 16  1  0  0  0  0
 22 28  1  0  0  0  0
 22 25  2  0  0  0  0
 23 26  2  0  0  0  0
 24 27  2  0  0  0  0
 25 27  1  0  0  0  0
 26 28  1  0  0  0  0
 26  2  1  0  0  0  0
 28 24  1  0  0  0  0
 29 25  1  0  0  0  0
 29 31  1  0  0  0  0
 30 34  2  0  0  0  0
 31 33  2  0  0  0  0
 34 32  1  0  0  0  0
 34 29  1  0  0  0  0
 35 36  1  1  0  0  0
 35 31  1  0  0  0  0
 35 37  1  0  0  0  0
 38 37  1  0  0  0  0
 38 39  1  0  0  0  0
 41 40  1  6  0  0  0
 41 42  1  0  0  0  0
 42 43  1  0  0  0  0
 43 44  1  0  0  0  0
 45 44  1  6  0  0  0
 45 48  1  0  0  0  0
 45 54  1  0  0  0  0
 46 48  2  0  0  0  0
 48 47  2  0  0  0  0
 48 49  1  0  0  0  0
 49 50  1  0  0  0  0
 50 53  1  0  0  0  0
 53 52  1  6  0  0  0
 53 51  1  0  0  0  0
 54 56  1  0  0  0  0
 55 57  1  0  0  0  0
 56 59  1  0  0  0  0
 58 56  1  0  0  0  0
 58 55  1  0  0  0  0
 59 57  1  0  0  0  0
M  END
>  <MODEL>
1

>  <REMARK>
 VINA RESULT:      -7.6      0.000      0.000
  Name = 
  20 active torsions:
  status: ('A' for Active; 'I' for Inactive)
    1  A    between atoms: O_1  and  C_7
    2  A    between atoms: O_1  and  C_29
    3  A    between atoms: N_4  and  C_5
    4  A    between atoms: N_4  and  C_38
    5  A    between atoms: C_5  and  C_46
    6  A    between atoms: C_6  and  N_48
    7  A    between atoms: C_6  and  C_52
    8  A    between atoms: C_7  and  C_39
    9  A    between atoms: C_10  and  C_15
   10  A    between atoms: C_10  and  O_17
   11  A    between atoms: C_10  and  S_51
   12  A    between atoms: N_11  and  C_22
   13  A    between atoms: C_14  and  O_17
   14  A    between atoms: C_15  and  C_24
   15  A    between atoms: C_18  and  N_42
   16  A    between atoms: C_24  and  C_31
   17  A    between atoms: C_31  and  C_54
   18  A    between atoms: C_33  and  C_34
   19  A    between atoms: C_36  and  C_54
   20  A    between atoms: N_48  and  S_51
                            x       y       z     vdW  Elec       q    Type
                         _______ _______ _______ _____ _____    ______ ____

>  <TORSDO>
F 20

$$$$
=
 OpenBabel11032421063D

 59 63  0  0  1  0  0  0  0  0999 V2000
  185.2110  178.4470  142.1010 C   0  0  0  0  0  3  0  0  0  0  0  0
  185.5010  178.7460  140.8550 C   0  0  0  0  0  0  0  0  0  0  0  0
  186.9900  178.8750  140.7070 C   0  0  1  0  0  3  0  0  0  0  0  0
  186.4220  178.3510  142.8310 N   0  0  0  0  0  0  0  0  0  0  0  0
  187.5510  178.6090  142.0380 N   0  0  0  0  0  2  0  0  0  0  0  0
  185.5510  178.3580  145.0820 C   0  0  0  0  0  3  0  0  0  0  0  0
  186.5200  178.0140  144.2210 C   0  0  0  0  0  0  0  0  0  0  0  0
  187.7180  177.2490  144.7250 C   0  0  0  0  0  2  0  0  0  0  0  0
  187.0650  178.1120  147.0070 C   0  0  0  0  0  0  0  0  0  0  0  0
  188.2130  177.7990  146.0700 C   0  0  1  0  0  3  0  0  0  0  0  0
  187.2900  178.4690  148.1530 O   0  0  0  0  0  0  0  0  0  0  0  0
  185.6430  177.9900  146.5340 C   0  0  0  0  0  2  0  0  0  0  0  0
  189.1140  176.8330  146.6770 N   0  0  0  0  0  2  0  0  0  0  0  0
  190.4570  177.3740  146.5580 C   0  0  0  0  0  2  0  0  0  0  0  0
  191.4220  175.7250  144.8510 C   0  0  0  0  0  3  0  0  0  0  0  0
  191.6910  177.0360  143.1400 N   0  0  0  0  0  0  0  0  0  0  0  0
  192.0210  177.4740  141.7930 C   0  0  0  0  0  1  0  0  0  0  0  0
  191.8250  175.7870  143.5610 N   0  0  0  0  0  0  0  0  0  0  0  0
  191.0330  176.9960  145.2350 C   0  0  0  0  0  0  0  0  0  0  0  0
  191.2060  177.8000  144.1300 C   0  0  0  0  0  0  0  0  0  0  0  0
  190.9060  179.2610  144.0270 C   0  0  0  0  0  1  0  0  0  0  0  0
  182.6310  178.2240  138.3920 C   0  0  0  0  0  3  0  0  0  0  0  0
  184.5630  180.1130  139.1760 O   0  0  0  0  0  0  0  0  0  0  0  0
  183.3490  176.7960  139.8830 C   0  0  0  0  0  3  0  0  0  0  0  0
  181.8480  177.0880  138.2960 C   0  0  0  0  0  0  0  0  0  0  0  0
  184.5240  178.9980  139.7680 C   0  0  0  0  0  0  0  0  0  0  0  0
  182.3010  176.1700  139.2320 C   0  0  0  0  0  3  0  0  0  0  0  0
  183.5350  178.0300  139.3700 N   0  0  0  0  0  0  0  0  0  0  0  0
  180.7900  176.8600  137.3370 N   0  0  0  0  0  0  0  0  0  0  0  0
  179.8210  177.6860  135.3580 O   0  0  0  0  0  0  0  0  0  0  0  0
  180.1180  175.5810  137.3270 C   0  0  0  0  0  0  0  0  0  0  0  0
  180.4220  179.2560  136.9070 O   0  0  0  0  0  1  0  0  0  0  0  0
  179.7220  175.0830  138.4140 O   0  0  0  0  0  0  0  0  0  0  0  0
  180.3320  177.9320  136.4840 C   0  0  0  0  0  0  0  0  0  0  0  0
  179.9050  174.7930  136.0610 C   0  0  1  0  0  3  0  0  0  0  0  0
  181.2290  174.5000  135.3720 C   0  0  0  0  0  1  0  0  0  0  0  0
  179.2100  173.6050  136.3140 O   0  0  0  0  0  0  0  0  0  0  0  0
  180.1990  172.6270  136.4660 C   0  0  0  0  0  2  0  0  0  0  0  0
  179.5460  171.2660  136.6530 C   0  0  0  0  0  1  0  0  0  0  0  0
  188.5810  177.1250  140.2340 O   0  0  0  0  0  1  0  0  0  0  0  0
  187.5370  177.8810  139.6820 C   0  0  2  0  0  3  0  0  0  0  0  0
  188.0120  178.6260  138.4430 C   0  0  0  0  0  2  0  0  0  0  0  0
  189.3530  178.0870  137.9740 C   0  0  0  0  0  2  0  0  0  0  0  0
  189.2500  177.6140  136.5300 C   0  0  0  0  0  2  0  0  0  0  0  0
  188.9640  176.1150  136.4270 C   0  0  1  0  0  3  0  0  0  0  0  0
  190.3910  173.8310  136.2830 O   0  0  0  0  0  0  0  0  0  0  0  0
  190.6050  175.1620  138.3410 O   0  0  0  0  0  0  0  0  0  0  0  0
  190.4590  175.2250  136.8420 S   0  0  0  0  0  0  0  0  0  0  0  0
  191.8100  176.0560  136.1540 N   0  0  0  0  0  2  0  0  0  0  0  0
  192.7660  175.0480  135.7090 C   0  0  0  0  0  2  0  0  0  0  0  0
  194.3470  176.5710  136.6740 O   0  0  0  0  0  1  0  0  0  0  0  0
  194.1480  174.4290  137.6990 C   0  0  0  0  0  1  0  0  0  0  0  0
  194.1020  175.2200  136.4080 C   0  0  1  0  0  3  0  0  0  0  0  0
  187.9480  175.7590  137.3180 O   0  0  0  0  0  0  0  0  0  0  0  0
  185.6730  175.9910  134.5970 C   0  0  0  0  0  2  0  0  0  0  0  0
  186.9060  175.2700  136.5260 C   0  0  0  0  0  3  0  0  0  0  0  0
  184.8980  176.4610  135.8110 C   0  0  0  0  0  2  0  0  0  0  0  0
  187.0730  175.7370  135.0940 C   0  0  0  0  0  2  0  0  0  0  0  0
  185.5840  175.8320  137.0110 C   0  0  0  0  0  2  0  0  0  0  0  0
  1  4  1  0  0  0  0
  2  1  2  0  0  0  0
  3 41  1  6  0  0  0
  3  2  1  0  0  0  0
  3  5  1  0  0  0  0
  4  7  1  0  0  0  0
  5  4  1  0  0  0  0
  6 12  1  0  0  0  0
  7  8  1  0  0  0  0
  7  6  2  0  0  0  0
  8 10  1  0  0  0  0
  9 11  2  0  0  0  0
 10 13  1  1  0  0  0
 10  9  1  0  0  0  0
 12  9  1  0  0  0  0
 14 13  1  0  0  0  0
 15 19  1  0  0  0  0
 16 18  1  0  0  0  0
 16 20  1  0  0  0  0
 17 16  1  0  0  0  0
 18 15  2  0  0  0  0
 19 14  1  0  0  0  0
 20 19  2  0  0  0  0
 21 20  1  0  0  0  0
 22 28  1  0  0  0  0
 23 26  2  0  0  0  0
 25 22  2  0  0  0  0
 25 27  1  0  0  0  0
 26  2  1  0  0  0  0
 27 24  2  0  0  0  0
 28 26  1  0  0  0  0
 28 24  1  0  0  0  0
 29 25  1  0  0  0  0
 30 34  2  0  0  0  0
 31 29  1  0  0  0  0
 31 33  2  0  0  0  0
 34 32  1  0  0  0  0
 34 29  1  0  0  0  0
 35 36  1  1  0  0  0
 35 37  1  0  0  0  0
 35 31  1  0  0  0  0
 37 38  1  0  0  0  0
 38 39  1  0  0  0  0
 41 40  1  1  0  0  0
 42 41  1  0  0  0  0
 43 42  1  0  0  0  0
 44 43  1  0  0  0  0
 45 44  1  1  0  0  0
 45 48  1  0  0  0  0
 45 54  1  0  0  0  0
 46 48  2  0  0  0  0
 48 47  2  0  0  0  0
 49 48  1  0  0  0  0
 50 49  1  0  0  0  0
 50 53  1  0  0  0  0
 53 51  1  0  0  0  0
 53 52  1  1  0  0  0
 55 58  1  0  0  0  0
 55 57  1  0  0  0  0
 56 59  1  0  0  0  0
 56 54  1  0  0  0  0
 57 59  1  0  0  0  0
 58 56  1  0  0  0  0
M  END
>  <MODEL>
2

>  <REMARK>
 VINA RESULT:      -7.2      2.625     10.559
  Name = 
  20 active torsions:
  status: ('A' for Active; 'I' for Inactive)
    1  A    between atoms: O_1  and  C_7
    2  A    between atoms: O_1  and  C_29
    3  A    between atoms: N_4  and  C_5
    4  A    between atoms: N_4  and  C_38
    5  A    between atoms: C_5  and  C_46
    6  A    between atoms: C_6  and  N_48
    7  A    between atoms: C_6  and  C_52
    8  A    between atoms: C_7  and  C_39
    9  A    between atoms: C_10  and  C_15
   10  A    between atoms: C_10  and  O_17
   11  A    between atoms: C_10  and  S_51
   12  A    between atoms: N_11  and  C_22
   13  A    between atoms: C_14  and  O_17
   14  A    between atoms: C_15  and  C_24
   15  A    between atoms: C_18  and  N_42
   16  A    between atoms: C_24  and  C_31
   17  A    between atoms: C_31  and  C_54
   18  A    between atoms: C_33  and  C_34
   19  A    between atoms: C_36  and  C_54
   20  A    between atoms: N_48  and  S_51
                            x       y       z     vdW  Elec       q    Type
                         _______ _______ _______ _____ _____    ______ ____

>  <TORSDO>
F 20

$$$$
=
 OpenBabel11032421063D

 59 63  0  0  1  0  0  0  0  0999 V2000
  189.7570  176.4520  138.6920 C   0  0  0  0  0  3  0  0  0  0  0  0
  188.8240  177.3050  139.0500 C   0  0  0  0  0  0  0  0  0  0  0  0
  187.9680  177.6370  137.8620 C   0  0  1  0  0  3  0  0  0  0  0  0
  189.5930  176.1630  137.3140 N   0  0  0  0  0  0  0  0  0  0  0  0
  188.5180  176.8620  136.7420 N   0  0  0  0  0  2  0  0  0  0  0  0
  189.8550  174.4230  135.6630 C   0  0  0  0  0  3  0  0  0  0  0  0
  190.4050  175.2520  136.5620 C   0  0  0  0  0  0  0  0  0  0  0  0
  191.8980  175.2320  136.7690 C   0  0  0  0  0  2  0  0  0  0  0  0
  191.8170  172.9380  135.7150 C   0  0  0  0  0  0  0  0  0  0  0  0
  192.4450  173.7970  136.7920 C   0  0  1  0  0  3  0  0  0  0  0  0
  192.2110  171.7950  135.5360 O   0  0  0  0  0  0  0  0  0  0  0  0
  190.7050  173.4810  134.8610 C   0  0  0  0  0  2  0  0  0  0  0  0
  193.8900  173.8360  136.6350 N   0  0  0  0  0  2  0  0  0  0  0  0
  194.1830  174.8810  135.6700 C   0  0  0  0  0  2  0  0  0  0  0  0
  196.2530  176.3920  135.6540 C   0  0  0  0  0  3  0  0  0  0  0  0
  197.8330  174.9030  135.7410 N   0  0  0  0  0  0  0  0  0  0  0  0
  199.1680  174.3300  135.8090 C   0  0  0  0  0  1  0  0  0  0  0  0
  197.5920  176.2060  135.7040 N   0  0  0  0  0  0  0  0  0  0  0  0
  195.6510  175.1460  135.6520 C   0  0  0  0  0  0  0  0  0  0  0  0
  196.6750  174.2260  135.7170 C   0  0  0  0  0  0  0  0  0  0  0  0
  196.5430  172.7380  135.7620 C   0  0  0  0  0  1  0  0  0  0  0  0
  189.0650  177.8280  142.8250 C   0  0  0  0  0  3  0  0  0  0  0  0
  188.0680  179.0220  140.4800 O   0  0  0  0  0  0  0  0  0  0  0  0
  189.8440  176.1310  141.6880 C   0  0  0  0  0  3  0  0  0  0  0  0
  189.6790  176.9720  143.7190 C   0  0  0  0  0  0  0  0  0  0  0  0
  188.6700  177.9160  140.3930 C   0  0  0  0  0  0  0  0  0  0  0  0
  190.1690  175.8840  143.0100 C   0  0  0  0  0  3  0  0  0  0  0  0
  189.1830  177.3030  141.5910 N   0  0  0  0  0  0  0  0  0  0  0  0
  189.7360  177.1350  145.1550 N   0  0  0  0  0  0  0  0  0  0  0  0
  188.4610  176.9820  147.1270 O   0  0  0  0  0  1  0  0  0  0  0  0
  191.0260  177.2190  145.7990 C   0  0  0  0  0  0  0  0  0  0  0  0
  187.4140  177.9350  145.3330 O   0  0  0  0  0  0  0  0  0  0  0  0
  191.9060  177.9840  145.3220 O   0  0  0  0  0  0  0  0  0  0  0  0
  188.5250  177.3300  145.9170 C   0  0  0  0  0  0  0  0  0  0  0  0
  191.3780  176.3920  147.0070 C   0  0  1  0  0  3  0  0  0  0  0  0
  192.2030  175.1750  146.6130 C   0  0  0  0  0  1  0  0  0  0  0  0
  192.0560  177.1550  147.9650 O   0  0  0  0  0  0  0  0  0  0  0  0
  192.9150  176.2560  148.6080 C   0  0  0  0  0  2  0  0  0  0  0  0
  193.5710  176.9410  149.7970 C   0  0  0  0  0  1  0  0  0  0  0  0
  186.0670  176.3260  137.1640 O   0  0  0  0  0  1  0  0  0  0  0  0
  186.5050  177.2670  138.1070 C   0  0  2  0  0  3  0  0  0  0  0  0
  185.6410  178.5180  138.0550 C   0  0  0  0  0  2  0  0  0  0  0  0
  184.8000  178.6420  139.3150 C   0  0  0  0  0  2  0  0  0  0  0  0
  183.3680  179.0120  138.9540 C   0  0  0  0  0  2  0  0  0  0  0  0
  182.4360  178.9860  140.1670 C   0  0  1  0  0  3  0  0  0  0  0  0
  179.8510  179.5120  139.6050 O   0  0  0  0  0  0  0  0  0  0  0  0
  180.3630  177.3200  140.6000 O   0  0  0  0  0  0  0  0  0  0  0  0
  180.8390  178.3780  139.6390 S   0  0  0  0  0  0  0  0  0  0  0  0
  180.9970  177.7060  138.0540 N   0  0  0  0  0  2  0  0  0  0  0  0
  180.9110  176.2550  138.1810 C   0  0  0  0  0  2  0  0  0  0  0  0
  182.6130  176.4530  136.5030 O   0  0  0  0  0  1  0  0  0  0  0  0
  183.1080  175.0790  138.3860 C   0  0  0  0  0  1  0  0  0  0  0  0
  182.0430  175.5760  137.4320 C   0  0  1  0  0  3  0  0  0  0  0  0
  182.9540  178.1380  141.1500 O   0  0  0  0  0  0  0  0  0  0  0  0
  184.1380  178.6990  144.4540 C   0  0  0  0  0  2  0  0  0  0  0  0
  183.2740  178.9650  142.2310 C   0  0  0  0  0  3  0  0  0  0  0  0
  182.6280  178.6730  144.5670 C   0  0  0  0  0  2  0  0  0  0  0  0
  184.4340  178.3800  143.0120 C   0  0  0  0  0  2  0  0  0  0  0  0
  182.1020  179.0350  143.1890 C   0  0  0  0  0  2  0  0  0  0  0  0
  1  2  2  0  0  0  0
  2 26  1  0  0  0  0
  3 41  1  1  0  0  0
  3  2  1  0  0  0  0
  4  1  1  0  0  0  0
  5  4  1  0  0  0  0
  5  3  1  0  0  0  0
  6  7  2  0  0  0  0
  7  8  1  0  0  0  0
  7  4  1  0  0  0  0
  8 10  1  0  0  0  0
  9 10  1  0  0  0  0
 10 13  1  6  0  0  0
 11  9  2  0  0  0  0
 12  6  1  0  0  0  0
 12  9  1  0  0  0  0
 14 13  1  0  0  0  0
 15 18  2  0  0  0  0
 16 17  1  0  0  0  0
 18 16  1  0  0  0  0
 19 15  1  0  0  0  0
 19 14  1  0  0  0  0
 19 20  2  0  0  0  0
 20 16  1  0  0  0  0
 20 21  1  0  0  0  0
 22 25  2  0  0  0  0
 24 27  2  0  0  0  0
 25 29  1  0  0  0  0
 26 23  2  0  0  0  0
 26 28  1  0  0  0  0
 27 25  1  0  0  0  0
 28 24  1  0  0  0  0
 28 22  1  0  0  0  0
 29 31  1  0  0  0  0
 29 34  1  0  0  0  0
 31 35  1  0  0  0  0
 32 34  2  0  0  0  0
 33 31  2  0  0  0  0
 34 30  1  0  0  0  0
 35 36  1  6  0  0  0
 35 37  1  0  0  0  0
 37 38  1  0  0  0  0
 38 39  1  0  0  0  0
 41 40  1  6  0  0  0
 42 41  1  0  0  0  0
 42 43  1  0  0  0  0
 44 43  1  0  0  0  0
 45 44  1  6  0  0  0
 45 54  1  0  0  0  0
 46 48  2  0  0  0  0
 48 45  1  0  0  0  0
 48 47  2  0  0  0  0
 49 50  1  0  0  0  0
 49 48  1  0  0  0  0
 51 53  1  0  0  0  0
 53 50  1  0  0  0  0
 53 52  1  1  0  0  0
 54 56  1  0  0  0  0
 55 57  1  0  0  0  0
 56 58  1  0  0  0  0
 56 59  1  0  0  0  0
 58 55  1  0  0  0  0
 59 57  1  0  0  0  0
M  END
>  <MODEL>
3

>  <REMARK>
 VINA RESULT:      -7.0      2.832     10.351
  Name = 
  20 active torsions:
  status: ('A' for Active; 'I' for Inactive)
    1  A    between atoms: O_1  and  C_7
    2  A    between atoms: O_1  and  C_29
    3  A    between atoms: N_4  and  C_5
    4  A    between atoms: N_4  and  C_38
    5  A    between atoms: C_5  and  C_46
    6  A    between atoms: C_6  and  N_48
    7  A    between atoms: C_6  and  C_52
    8  A    between atoms: C_7  and  C_39
    9  A    between atoms: C_10  and  C_15
   10  A    between atoms: C_10  and  O_17
   11  A    between atoms: C_10  and  S_51
   12  A    between atoms: N_11  and  C_22
   13  A    between atoms: C_14  and  O_17
   14  A    between atoms: C_15  and  C_24
   15  A    between atoms: C_18  and  N_42
   16  A    between atoms: C_24  and  C_31
   17  A    between atoms: C_31  and  C_54
   18  A    between atoms: C_33  and  C_34
   19  A    between atoms: C_36  and  C_54
   20  A    between atoms: N_48  and  S_51
                            x       y       z     vdW  Elec       q    Type
                         _______ _______ _______ _____ _____    ______ ____

>  <TORSDO>
F 20

$$$$
=
 OpenBabel11032421063D

 59 63  0  0  1  0  0  0  0  0999 V2000
  184.5360  177.8730  137.7810 C   0  0  0  0  0  3  0  0  0  0  0  0
  185.5460  178.1520  138.5740 C   0  0  0  0  0  0  0  0  0  0  0  0
  185.0440  178.8960  139.7780 C   0  0  1  0  0  3  0  0  0  0  0  0
  183.3510  178.3760  138.3730 N   0  0  0  0  0  0  0  0  0  0  0  0
  183.5920  179.0210  139.5960 N   0  0  0  0  0  2  0  0  0  0  0  0
  181.2920  177.1560  138.0670 C   0  0  0  0  0  3  0  0  0  0  0  0
  182.0350  178.2440  137.8200 C   0  0  0  0  0  0  0  0  0  0  0  0
  181.4680  179.3460  136.9610 C   0  0  0  0  0  2  0  0  0  0  0  0
  179.8590  177.5920  136.1140 C   0  0  0  0  0  0  0  0  0  0  0  0
  180.7190  178.7840  135.7450 C   0  0  1  0  0  3  0  0  0  0  0  0
  179.1250  177.0850  135.2800 O   0  0  0  0  0  0  0  0  0  0  0  0
  179.9060  177.0230  137.5050 C   0  0  0  0  0  2  0  0  0  0  0  0
  179.9040  179.8360  135.1590 N   0  0  0  0  0  2  0  0  0  0  0  0
  179.3960  180.6400  136.2580 C   0  0  0  0  0  2  0  0  0  0  0  0
  180.4090  182.6310  135.0040 C   0  0  0  0  0  3  0  0  0  0  0  0
  180.5010  184.1010  136.6010 N   0  0  0  0  0  0  0  0  0  0  0  0
  180.7370  185.3630  137.2840 C   0  0  0  0  0  1  0  0  0  0  0  0
  180.7490  183.9030  135.3140 N   0  0  0  0  0  0  0  0  0  0  0  0
  179.9400  182.0240  136.1560 C   0  0  0  0  0  0  0  0  0  0  0  0
  180.0020  182.9810  137.1450 C   0  0  0  0  0  0  0  0  0  0  0  0
  179.5850  182.8250  138.5720 C   0  0  0  0  0  1  0  0  0  0  0  0
  188.6950  176.3510  137.3840 C   0  0  0  0  0  3  0  0  0  0  0  0
  187.8380  178.7060  138.6630 O   0  0  0  0  0  0  0  0  0  0  0  0
  186.6360  175.6410  137.2020 C   0  0  0  0  0  3  0  0  0  0  0  0
  188.7300  175.1260  136.7450 C   0  0  0  0  0  0  0  0  0  0  0  0
  186.9740  177.8570  138.3040 C   0  0  0  0  0  0  0  0  0  0  0  0
  187.4280  174.6600  136.6320 C   0  0  0  0  0  3  0  0  0  0  0  0
  187.4100  176.6520  137.6480 N   0  0  0  0  0  0  0  0  0  0  0  0
  189.9180  174.4130  136.3320 N   0  0  0  0  0  0  0  0  0  0  0  0
  190.8380  173.1170  134.5960 O   0  0  0  0  0  0  0  0  0  0  0  0
  191.1590  174.6550  137.0310 C   0  0  0  0  0  0  0  0  0  0  0  0
  188.6660  172.6610  135.1380 O   0  0  0  0  0  1  0  0  0  0  0  0
  191.1670  174.6550  138.2910 O   0  0  0  0  0  0  0  0  0  0  0  0
  189.8400  173.3880  135.3170 C   0  0  0  0  0  0  0  0  0  0  0  0
  192.4470  174.9480  136.3080 C   0  0  1  0  0  3  0  0  0  0  0  0
  192.9050  176.3750  136.5680 C   0  0  0  0  0  1  0  0  0  0  0  0
  193.4480  174.0380  136.6660 O   0  0  0  0  0  0  0  0  0  0  0  0
  194.6450  174.6210  136.2320 C   0  0  0  0  0  2  0  0  0  0  0  0
  195.7800  174.1970  137.1510 C   0  0  0  0  0  1  0  0  0  0  0  0
  184.2030  177.9670  141.8390 O   0  0  0  0  0  1  0  0  0  0  0  0
  185.3630  178.1450  141.0710 C   0  0  2  0  0  3  0  0  0  0  0  0
  186.4180  178.9050  141.8620 C   0  0  0  0  0  2  0  0  0  0  0  0
  186.6380  178.2590  143.2200 C   0  0  0  0  0  2  0  0  0  0  0  0
  187.4310  176.9690  143.0630 C   0  0  0  0  0  2  0  0  0  0  0  0
  188.4220  176.7510  144.2070 C   0  0  1  0  0  3  0  0  0  0  0  0
  190.1150  175.2660  142.7230 O   0  0  0  0  0  0  0  0  0  0  0  0
  191.0740  176.5070  144.6190 O   0  0  0  0  0  0  0  0  0  0  0  0
  190.0560  176.5470  143.5090 S   0  0  0  0  0  0  0  0  0  0  0  0
  190.3810  177.8810  142.4580 N   0  0  0  0  0  2  0  0  0  0  0  0
  191.7700  177.7710  142.0260 C   0  0  0  0  0  2  0  0  0  0  0  0
  190.7970  177.5990  139.8420 O   0  0  0  0  0  1  0  0  0  0  0  0
  193.1750  177.5220  139.9720 C   0  0  0  0  0  1  0  0  0  0  0  0
  191.8620  177.1650  140.6370 C   0  0  1  0  0  3  0  0  0  0  0  0
  188.4170  177.8580  145.0620 O   0  0  0  0  0  0  0  0  0  0  0  0
  187.5340  178.2080  148.4870 C   0  0  0  0  0  2  0  0  0  0  0  0
  188.1760  177.3470  146.3400 C   0  0  0  0  0  3  0  0  0  0  0  0
  189.0480  178.1800  148.4630 C   0  0  0  0  0  2  0  0  0  0  0  0
  187.1130  178.1700  147.0400 C   0  0  0  0  0  2  0  0  0  0  0  0
  189.4300  177.4560  147.1830 C   0  0  0  0  0  2  0  0  0  0  0  0
  1  4  1  0  0  0  0
  1  2  2  0  0  0  0
  2  3  1  0  0  0  0
  3 41  1  1  0  0  0
  4  5  1  0  0  0  0
  5  3  1  0  0  0  0
  7  6  2  0  0  0  0
  7  4  1  0  0  0  0
  8  7  1  0  0  0  0
  9 12  1  0  0  0  0
 10 13  1  1  0  0  0
 10  9  1  0  0  0  0
 10  8  1  0  0  0  0
 11  9  2  0  0  0  0
 12  6  1  0  0  0  0
 13 14  1  0  0  0  0
 15 18  2  0  0  0  0
 15 19  1  0  0  0  0
 16 20  1  0  0  0  0
 16 17  1  0  0  0  0
 18 16  1  0  0  0  0
 19 14  1  0  0  0  0
 19 20  2  0  0  0  0
 20 21  1  0  0  0  0
 22 28  1  0  0  0  0
 24 28  1  0  0  0  0
 25 22  2  0  0  0  0
 26  2  1  0  0  0  0
 26 23  2  0  0  0  0
 27 25  1  0  0  0  0
 27 24  2  0  0  0  0
 28 26  1  0  0  0  0
 29 25  1  0  0  0  0
 29 31  1  0  0  0  0
 30 34  2  0  0  0  0
 31 33  2  0  0  0  0
 32 34  1  0  0  0  0
 34 29  1  0  0  0  0
 35 36  1  1  0  0  0
 35 37  1  0  0  0  0
 35 31  1  0  0  0  0
 38 37  1  0  0  0  0
 38 39  1  0  0  0  0
 41 40  1  1  0  0  0
 41 42  1  0  0  0  0
 42 43  1  0  0  0  0
 44 43  1  0  0  0  0
 45 44  1  6  0  0  0
 45 54  1  0  0  0  0
 46 48  2  0  0  0  0
 48 45  1  0  0  0  0
 48 47  2  0  0  0  0
 49 48  1  0  0  0  0
 50 49  1  0  0  0  0
 51 53  1  0  0  0  0
 53 52  1  6  0  0  0
 53 50  1  0  0  0  0
 54 56  1  0  0  0  0
 56 58  1  0  0  0  0
 56 59  1  0  0  0  0
 57 55  1  0  0  0  0
 58 55  1  0  0  0  0
 59 57  1  0  0  0  0
M  END
>  <MODEL>
4

>  <REMARK>
 VINA RESULT:      -6.9      3.429      4.756
  Name = 
  20 active torsions:
  status: ('A' for Active; 'I' for Inactive)
    1  A    between atoms: O_1  and  C_7
    2  A    between atoms: O_1  and  C_29
    3  A    between atoms: N_4  and  C_5
    4  A    between atoms: N_4  and  C_38
    5  A    between atoms: C_5  and  C_46
    6  A    between atoms: C_6  and  N_48
    7  A    between atoms: C_6  and  C_52
    8  A    between atoms: C_7  and  C_39
    9  A    between atoms: C_10  and  C_15
   10  A    between atoms: C_10  and  O_17
   11  A    between atoms: C_10  and  S_51
   12  A    between atoms: N_11  and  C_22
   13  A    between atoms: C_14  and  O_17
   14  A    between atoms: C_15  and  C_24
   15  A    between atoms: C_18  and  N_42
   16  A    between atoms: C_24  and  C_31
   17  A    between atoms: C_31  and  C_54
   18  A    between atoms: C_33  and  C_34
   19  A    between atoms: C_36  and  C_54
   20  A    between atoms: N_48  and  S_51
                            x       y       z     vdW  Elec       q    Type
                         _______ _______ _______ _____ _____    ______ ____

>  <TORSDO>
F 20

$$$$
=
 OpenBabel11032421063D

 59 63  0  0  1  0  0  0  0  0999 V2000
  191.2720  176.8430  139.2900 C   0  0  0  0  0  3  0  0  0  0  0  0
  190.9520  176.6560  138.0290 C   0  0  0  0  0  0  0  0  0  0  0  0
  189.4620  176.7540  137.8730 C   0  0  1  0  0  3  0  0  0  0  0  0
  190.0820  177.0760  140.0230 N   0  0  0  0  0  0  0  0  0  0  0  0
  188.9340  177.0290  139.2160 N   0  0  0  0  0  2  0  0  0  0  0  0
  191.0800  177.8600  142.0760 C   0  0  0  0  0  3  0  0  0  0  0  0
  190.0220  177.3500  141.4300 C   0  0  0  0  0  0  0  0  0  0  0  0
  188.7510  177.0760  142.1930 C   0  0  0  0  0  2  0  0  0  0  0  0
  190.2130  177.1080  144.2530 C   0  0  0  0  0  0  0  0  0  0  0  0
  189.0410  176.4430  143.5610 C   0  0  1  0  0  3  0  0  0  0  0  0
  190.5150  176.7860  145.3920 O   0  0  0  0  0  0  0  0  0  0  0  0
  191.0130  178.1660  143.5440 C   0  0  0  0  0  2  0  0  0  0  0  0
  187.8480  176.5280  144.3880 N   0  0  0  0  0  2  0  0  0  0  0  0
  187.7050  177.9190  144.7840 C   0  0  0  0  0  2  0  0  0  0  0  0
  185.7400  178.4390  146.3440 C   0  0  0  0  0  3  0  0  0  0  0  0
  184.1370  178.6840  144.8980 N   0  0  0  0  0  0  0  0  0  0  0  0
  182.8140  178.9500  144.3570 C   0  0  0  0  0  1  0  0  0  0  0  0
  184.4270  178.7250  146.1910 N   0  0  0  0  0  0  0  0  0  0  0  0
  186.2730  178.2050  145.0890 C   0  0  0  0  0  0  0  0  0  0  0  0
  185.2390  178.3770  144.1950 C   0  0  0  0  0  0  0  0  0  0  0  0
  185.3090  178.2560  142.7070 C   0  0  0  0  0  1  0  0  0  0  0  0
  194.0880  175.4740  136.1990 C   0  0  0  0  0  3  0  0  0  0  0  0
  191.5120  176.5080  135.7420 O   0  0  0  0  0  0  0  0  0  0  0  0
  193.7810  175.5310  138.3630 C   0  0  0  0  0  3  0  0  0  0  0  0
  195.2360  174.9910  136.7980 C   0  0  0  0  0  0  0  0  0  0  0  0
  191.8920  176.3220  136.9320 C   0  0  0  0  0  0  0  0  0  0  0  0
  195.0580  175.0320  138.1730 C   0  0  0  0  0  3  0  0  0  0  0  0
  193.2090  175.7910  137.1690 N   0  0  0  0  0  0  0  0  0  0  0  0
  196.4470  174.5850  136.1190 N   0  0  0  0  0  0  0  0  0  0  0  0
  198.7030  175.1560  135.7720 O   0  0  0  0  0  1  0  0  0  0  0  0
  196.5310  173.2480  135.5770 C   0  0  0  0  0  0  0  0  0  0  0  0
  197.2170  176.8920  135.7370 O   0  0  0  0  0  0  0  0  0  0  0  0
  195.5740  172.7980  134.8920 O   0  0  0  0  0  0  0  0  0  0  0  0
  197.5060  175.5370  135.8810 C   0  0  0  0  0  0  0  0  0  0  0  0
  197.7110  172.3480  135.8340 C   0  0  1  0  0  3  0  0  0  0  0  0
  198.1850  172.4680  137.2750 C   0  0  0  0  0  1  0  0  0  0  0  0
  197.4110  171.0160  135.5250 O   0  0  0  0  0  0  0  0  0  0  0  0
  197.0140  170.4400  136.7380 C   0  0  0  0  0  2  0  0  0  0  0  0
  195.7440  169.6300  136.5250 C   0  0  0  0  0  1  0  0  0  0  0  0
  189.1020  179.1170  137.5460 O   0  0  0  0  0  1  0  0  0  0  0  0
  189.0750  177.8710  136.9030 C   0  0  2  0  0  3  0  0  0  0  0  0
  187.6950  177.5960  136.3250 C   0  0  0  0  0  2  0  0  0  0  0  0
  186.6850  177.3640  137.4360 C   0  0  0  0  0  2  0  0  0  0  0  0
  185.2720  177.3640  136.8680 C   0  0  0  0  0  2  0  0  0  0  0  0
  184.2710  176.6770  137.7970 C   0  0  1  0  0  3  0  0  0  0  0  0
  182.4620  178.6770  137.8680 O   0  0  0  0  0  0  0  0  0  0  0  0
  184.4420  178.8980  139.3130 O   0  0  0  0  0  0  0  0  0  0  0  0
  183.4290  177.9350  138.7490 S   0  0  0  0  0  0  0  0  0  0  0  0
  182.5630  177.1710  140.0370 N   0  0  0  0  0  2  0  0  0  0  0  0
  181.8800  178.2170  140.7890 C   0  0  0  0  0  2  0  0  0  0  0  0
  179.7380  177.3200  141.3850 O   0  0  0  0  0  1  0  0  0  0  0  0
  179.7920  179.5850  140.6470 C   0  0  0  0  0  1  0  0  0  0  0  0
  180.3870  178.1990  140.5130 C   0  0  1  0  0  3  0  0  0  0  0  0
  183.3360  175.9590  137.0450 O   0  0  0  0  0  0  0  0  0  0  0  0
  183.8590  172.4440  137.1110 C   0  0  0  0  0  2  0  0  0  0  0  0
  183.2500  174.7020  137.6510 C   0  0  0  0  0  3  0  0  0  0  0  0
  182.4260  172.6290  136.6590 C   0  0  0  0  0  2  0  0  0  0  0  0
  184.4210  173.8370  137.2290 C   0  0  0  0  0  2  0  0  0  0  0  0
  181.9980  173.9890  137.1810 C   0  0  0  0  0  2  0  0  0  0  0  0
  1  4  1  0  0  0  0
  2  1  2  0  0  0  0
  3 41  1  6  0  0  0
  3  2  1  0  0  0  0
  3  5  1  0  0  0  0
  4  7  1  0  0  0  0
  5  4  1  0  0  0  0
  6 12  1  0  0  0  0
  7  6  2  0  0  0  0
  7  8  1  0  0  0  0
  8 10  1  0  0  0  0
  9 11  2  0  0  0  0
 10  9  1  0  0  0  0
 10 13  1  1  0  0  0
 12  9  1  0  0  0  0
 13 14  1  0  0  0  0
 14 19  1  0  0  0  0
 16 18  1  0  0  0  0
 17 16  1  0  0  0  0
 18 15  2  0  0  0  0
 19 15  1  0  0  0  0
 20 16  1  0  0  0  0
 20 19  2  0  0  0  0
 21 20  1  0  0  0  0
 22 25  2  0  0  0  0
 22 28  1  0  0  0  0
 23 26  2  0  0  0  0
 25 27  1  0  0  0  0
 26 28  1  0  0  0  0
 26  2  1  0  0  0  0
 27 24  2  0  0  0  0
 28 24  1  0  0  0  0
 29 25  1  0  0  0  0
 30 34  1  0  0  0  0
 31 35  1  0  0  0  0
 31 29  1  0  0  0  0
 32 34  2  0  0  0  0
 33 31  2  0  0  0  0
 34 29  1  0  0  0  0
 35 36  1  1  0  0  0
 37 35  1  0  0  0  0
 37 38  1  0  0  0  0
 39 38  1  0  0  0  0
 41 40  1  1  0  0  0
 42 41  1  0  0  0  0
 42 43  1  0  0  0  0
 44 43  1  0  0  0  0
 45 44  1  6  0  0  0
 45 48  1  0  0  0  0
 46 48  2  0  0  0  0
 48 47  2  0  0  0  0
 48 49  1  0  0  0  0
 49 50  1  0  0  0  0
 53 52  1  1  0  0  0
 53 50  1  0  0  0  0
 53 51  1  0  0  0  0
 54 56  1  0  0  0  0
 54 45  1  0  0  0  0
 55 58  1  0  0  0  0
 57 55  1  0  0  0  0
 57 59  1  0  0  0  0
 58 56  1  0  0  0  0
 59 56  1  0  0  0  0
M  END
>  <MODEL>
5

>  <REMARK>
 VINA RESULT:      -6.9      2.774      7.041
  Name = 
  20 active torsions:
  status: ('A' for Active; 'I' for Inactive)
    1  A    between atoms: O_1  and  C_7
    2  A    between atoms: O_1  and  C_29
    3  A    between atoms: N_4  and  C_5
    4  A    between atoms: N_4  and  C_38
    5  A    between atoms: C_5  and  C_46
    6  A    between atoms: C_6  and  N_48
    7  A    between atoms: C_6  and  C_52
    8  A    between atoms: C_7  and  C_39
    9  A    between atoms: C_10  and  C_15
   10  A    between atoms: C_10  and  O_17
   11  A    between atoms: C_10  and  S_51
   12  A    between atoms: N_11  and  C_22
   13  A    between atoms: C_14  and  O_17
   14  A    between atoms: C_15  and  C_24
   15  A    between atoms: C_18  and  N_42
   16  A    between atoms: C_24  and  C_31
   17  A    between atoms: C_31  and  C_54
   18  A    between atoms: C_33  and  C_34
   19  A    between atoms: C_36  and  C_54
   20  A    between atoms: N_48  and  S_51
                            x       y       z     vdW  Elec       q    Type
                         _______ _______ _______ _____ _____    ______ ____

>  <TORSDO>
F 20

$$$$
=
 OpenBabel11032421063D

 59 63  0  0  1  0  0  0  0  0999 V2000
  190.7770  176.7230  139.9870 C   0  0  0  0  0  3  0  0  0  0  0  0
  190.2010  176.5870  138.8130 C   0  0  0  0  0  0  0  0  0  0  0  0
  188.7840  177.0770  138.8940 C   0  0  1  0  0  3  0  0  0  0  0  0
  189.8370  177.2920  140.8820 N   0  0  0  0  0  0  0  0  0  0  0  0
  188.5920  177.5270  140.2780 N   0  0  0  0  0  2  0  0  0  0  0  0
  191.3510  177.5970  142.7370 C   0  0  0  0  0  3  0  0  0  0  0  0
  190.1000  177.6170  142.2540 C   0  0  0  0  0  0  0  0  0  0  0  0
  188.9620  178.0030  143.1640 C   0  0  0  0  0  2  0  0  0  0  0  0
  190.5370  177.4280  145.0540 C   0  0  0  0  0  0  0  0  0  0  0  0
  189.1090  177.3640  144.5520 C   0  0  1  0  0  3  0  0  0  0  0  0
  190.8070  177.0480  146.1830 O   0  0  0  0  0  0  0  0  0  0  0  0
  191.6310  177.9570  144.1680 C   0  0  0  0  0  2  0  0  0  0  0  0
  188.2130  178.0320  145.4820 N   0  0  0  0  0  2  0  0  0  0  0  0
  187.1080  177.1240  145.7330 C   0  0  0  0  0  2  0  0  0  0  0  0
  185.0390  178.3910  146.5580 C   0  0  0  0  0  3  0  0  0  0  0  0
  184.0960  178.8890  144.6650 N   0  0  0  0  0  0  0  0  0  0  0  0
  183.1450  179.4490  143.7180 C   0  0  0  0  0  1  0  0  0  0  0  0
  183.9900  179.0190  145.9800 N   0  0  0  0  0  0  0  0  0  0  0  0
  185.8160  177.8480  145.5500 C   0  0  0  0  0  0  0  0  0  0  0  0
  185.2000  178.1870  144.3660 C   0  0  0  0  0  0  0  0  0  0  0  0
  185.6630  177.8520  142.9840 C   0  0  0  0  0  1  0  0  0  0  0  0
  192.8240  175.2430  136.3860 C   0  0  0  0  0  3  0  0  0  0  0  0
  190.0480  175.5990  136.6770 O   0  0  0  0  0  0  0  0  0  0  0  0
  193.1940  176.1380  138.3450 C   0  0  0  0  0  3  0  0  0  0  0  0
  194.1890  175.2280  136.6020 C   0  0  0  0  0  0  0  0  0  0  0  0
  190.8130  175.9770  137.6080 C   0  0  0  0  0  0  0  0  0  0  0  0
  194.4380  175.8030  137.8400 C   0  0  0  0  0  3  0  0  0  0  0  0
  192.2340  175.7950  137.4630 N   0  0  0  0  0  0  0  0  0  0  0  0
  195.1950  174.7650  135.6720 N   0  0  0  0  0  0  0  0  0  0  0  0
  197.3730  175.1790  134.8810 O   0  0  0  0  0  0  0  0  0  0  0  0
  195.0520  173.4540  135.0810 C   0  0  0  0  0  0  0  0  0  0  0  0
  196.0630  177.0230  135.2140 O   0  0  0  0  0  1  0  0  0  0  0  0
  193.9400  173.1130  134.5960 O   0  0  0  0  0  0  0  0  0  0  0  0
  196.2600  175.6440  135.2490 C   0  0  0  0  0  0  0  0  0  0  0  0
  196.1790  172.4560  135.0550 C   0  0  1  0  0  3  0  0  0  0  0  0
  196.8570  172.3630  136.4140 C   0  0  0  0  0  1  0  0  0  0  0  0
  195.7310  171.1950  134.6430 O   0  0  0  0  0  0  0  0  0  0  0  0
  196.0800  170.3250  135.6820 C   0  0  0  0  0  2  0  0  0  0  0  0
  194.9280  170.2220  136.6690 C   0  0  0  0  0  1  0  0  0  0  0  0
  189.0400  179.4290  138.4220 O   0  0  0  0  0  1  0  0  0  0  0  0
  188.5340  178.2240  137.9130 C   0  0  2  0  0  3  0  0  0  0  0  0
  187.0430  178.3450  137.6320 C   0  0  0  0  0  2  0  0  0  0  0  0
  186.4810  177.0200  137.1420 C   0  0  0  0  0  2  0  0  0  0  0  0
  184.9640  177.1010  137.0430 C   0  0  0  0  0  2  0  0  0  0  0  0
  184.3110  175.7200  136.9760 C   0  0  1  0  0  3  0  0  0  0  0  0
  182.1980  177.3560  137.3460 O   0  0  0  0  0  0  0  0  0  0  0  0
  182.2930  175.3130  138.7160 O   0  0  0  0  0  0  0  0  0  0  0  0
  182.5720  175.8990  137.3550 S   0  0  0  0  0  0  0  0  0  0  0  0
  181.6520  175.0620  136.1540 N   0  0  0  0  0  2  0  0  0  0  0  0
  180.5430  174.4000  136.8320 C   0  0  0  0  0  2  0  0  0  0  0  0
  181.7200  172.4880  135.9910 O   0  0  0  0  0  1  0  0  0  0  0  0
  180.0540  172.0870  137.6470 C   0  0  0  0  0  1  0  0  0  0  0  0
  180.4790  172.9290  136.4620 C   0  0  1  0  0  3  0  0  0  0  0  0
  184.4540  175.1840  135.6930 O   0  0  0  0  0  0  0  0  0  0  0  0
  186.2360  172.6770  137.4730 C   0  0  0  0  0  2  0  0  0  0  0  0
  184.8990  173.8730  135.8780 C   0  0  0  0  0  3  0  0  0  0  0  0
  187.1720  173.1300  136.3720 C   0  0  0  0  0  2  0  0  0  0  0  0
  185.0260  173.5680  137.3570 C   0  0  0  0  0  2  0  0  0  0  0  0
  186.2840  173.7100  135.2850 C   0  0  0  0  0  2  0  0  0  0  0  0
  1  4  1  0  0  0  0
  2  3  1  0  0  0  0
  2  1  2  0  0  0  0
  3 41  1  6  0  0  0
  3  5  1  0  0  0  0
  4  7  1  0  0  0  0
  5  4  1  0  0  0  0
  6 12  1  0  0  0  0
  7  6  2  0  0  0  0
  7  8  1  0  0  0  0
  8 10  1  0  0  0  0
  9 11  2  0  0  0  0
 10  9  1  0  0  0  0
 10 13  1  1  0  0  0
 12  9  1  0  0  0  0
 13 14  1  0  0  0  0
 16 18  1  0  0  0  0
 17 16  1  0  0  0  0
 18 15  2  0  0  0  0
 19 14  1  0  0  0  0
 19 15  1  0  0  0  0
 20 16  1  0  0  0  0
 20 19  2  0  0  0  0
 21 20  1  0  0  0  0
 22 25  2  0  0  0  0
 22 28  1  0  0  0  0
 23 26  2  0  0  0  0
 25 27  1  0  0  0  0
 26  2  1  0  0  0  0
 27 24  2  0  0  0  0
 28 26  1  0  0  0  0
 28 24  1  0  0  0  0
 29 25  1  0  0  0  0
 30 34  2  0  0  0  0
 31 29  1  0  0  0  0
 32 34  1  0  0  0  0
 33 31  2  0  0  0  0
 34 29  1  0  0  0  0
 35 31  1  0  0  0  0
 35 36  1  1  0  0  0
 37 35  1  0  0  0  0
 37 38  1  0  0  0  0
 38 39  1  0  0  0  0
 41 40  1  1  0  0  0
 42 41  1  0  0  0  0
 43 42  1  0  0  0  0
 44 43  1  0  0  0  0
 45 44  1  6  0  0  0
 45 48  1  0  0  0  0
 46 48  2  0  0  0  0
 48 47  2  0  0  0  0
 49 50  1  0  0  0  0
 49 48  1  0  0  0  0
 51 53  1  0  0  0  0
 53 50  1  0  0  0  0
 53 52  1  1  0  0  0
 54 56  1  0  0  0  0
 54 45  1  0  0  0  0
 56 58  1  0  0  0  0
 57 55  1  0  0  0  0
 58 55  1  0  0  0  0
 59 56  1  0  0  0  0
 59 57  1  0  0  0  0
M  END
>  <MODEL>
6

>  <REMARK>
 VINA RESULT:      -6.4      2.724      7.656
  Name = 
  20 active torsions:
  status: ('A' for Active; 'I' for Inactive)
    1  A    between atoms: O_1  and  C_7
    2  A    between atoms: O_1  and  C_29
    3  A    between atoms: N_4  and  C_5
    4  A    between atoms: N_4  and  C_38
    5  A    between atoms: C_5  and  C_46
    6  A    between atoms: C_6  and  N_48
    7  A    between atoms: C_6  and  C_52
    8  A    between atoms: C_7  and  C_39
    9  A    between atoms: C_10  and  C_15
   10  A    between atoms: C_10  and  O_17
   11  A    between atoms: C_10  and  S_51
   12  A    between atoms: N_11  and  C_22
   13  A    between atoms: C_14  and  O_17
   14  A    between atoms: C_15  and  C_24
   15  A    between atoms: C_18  and  N_42
   16  A    between atoms: C_24  and  C_31
   17  A    between atoms: C_31  and  C_54
   18  A    between atoms: C_33  and  C_34
   19  A    between atoms: C_36  and  C_54
   20  A    between atoms: N_48  and  S_51
                            x       y       z     vdW  Elec       q    Type
                         _______ _______ _______ _____ _____    ______ ____

>  <TORSDO>
F 20

$$$$
=
 OpenBabel11032421063D

 59 63  0  0  1  0  0  0  0  0999 V2000
  189.4140  176.7320  140.0500 C   0  0  0  0  0  3  0  0  0  0  0  0
  189.3650  176.6240  138.7410 C   0  0  0  0  0  0  0  0  0  0  0  0
  188.1610  177.3580  138.2250 C   0  0  1  0  0  3  0  0  0  0  0  0
  188.3100  177.5130  140.4750 N   0  0  0  0  0  0  0  0  0  0  0  0
  187.4970  177.9230  139.4070 N   0  0  0  0  0  2  0  0  0  0  0  0
  188.9000  177.5800  142.8140 C   0  0  0  0  0  3  0  0  0  0  0  0
  188.0330  177.8750  141.8350 C   0  0  0  0  0  0  0  0  0  0  0  0
  186.7610  178.6110  142.1710 C   0  0  0  0  0  2  0  0  0  0  0  0
  187.1570  177.8160  144.5360 C   0  0  0  0  0  0  0  0  0  0  0  0
  186.1230  178.0730  143.4590 C   0  0  1  0  0  3  0  0  0  0  0  0
  186.8040  177.4750  145.6540 O   0  0  0  0  0  0  0  0  0  0  0  0
  188.6220  177.9750  144.2360 C   0  0  0  0  0  2  0  0  0  0  0  0
  185.1260  179.0210  143.9280 N   0  0  0  0  0  2  0  0  0  0  0  0
  183.9390  178.2560  144.2680 C   0  0  0  0  0  2  0  0  0  0  0  0
  181.7030  179.4570  143.9170 C   0  0  0  0  0  3  0  0  0  0  0  0
  181.4740  179.2520  141.7660 N   0  0  0  0  0  0  0  0  0  0  0  0
  180.9080  179.3870  140.4330 C   0  0  0  0  0  1  0  0  0  0  0  0
  180.9150  179.7540  142.8580 N   0  0  0  0  0  0  0  0  0  0  0  0
  182.7860  178.7340  143.4500 C   0  0  0  0  0  0  0  0  0  0  0  0
  182.6180  178.6290  142.0870 C   0  0  0  0  0  0  0  0  0  0  0  0
  183.5360  177.9550  141.1190 C   0  0  0  0  0  1  0  0  0  0  0  0
  192.6060  175.2730  137.2420 C   0  0  0  0  0  3  0  0  0  0  0  0
  189.8090  175.0250  137.0640 O   0  0  0  0  0  0  0  0  0  0  0  0
  192.4230  176.7840  138.8110 C   0  0  0  0  0  3  0  0  0  0  0  0
  193.8840  175.6510  137.6110 C   0  0  0  0  0  0  0  0  0  0  0  0
  190.2980  175.8410  137.8960 C   0  0  0  0  0  0  0  0  0  0  0  0
  193.7800  176.6180  138.6000 C   0  0  0  0  0  3  0  0  0  0  0  0
  191.7290  175.9680  137.9900 N   0  0  0  0  0  0  0  0  0  0  0  0
  195.1170  175.1820  137.0190 N   0  0  0  0  0  0  0  0  0  0  0  0
  196.8900  175.8020  135.6020 O   0  0  0  0  0  1  0  0  0  0  0  0
  195.7410  173.9920  137.5510 C   0  0  0  0  0  0  0  0  0  0  0  0
  194.8030  176.4470  134.9310 O   0  0  0  0  0  0  0  0  0  0  0  0
  195.0380  172.9670  137.7610 O   0  0  0  0  0  0  0  0  0  0  0  0
  195.6520  175.8220  135.8400 C   0  0  0  0  0  0  0  0  0  0  0  0
  197.2030  173.9390  137.9050 C   0  0  1  0  0  3  0  0  0  0  0  0
  198.0020  173.2350  136.8180 C   0  0  0  0  0  1  0  0  0  0  0  0
  197.7160  175.2210  138.1370 O   0  0  0  0  0  0  0  0  0  0  0  0
  198.5410  175.0880  139.2600 C   0  0  0  0  0  2  0  0  0  0  0  0
  197.7120  175.2600  140.5240 C   0  0  0  0  0  1  0  0  0  0  0  0
  189.0250  179.5930  137.9420 O   0  0  0  0  0  1  0  0  0  0  0  0
  188.5600  178.4660  137.2480 C   0  0  2  0  0  3  0  0  0  0  0  0
  187.3720  178.8310  136.3700 C   0  0  0  0  0  2  0  0  0  0  0  0
  186.4170  177.6550  136.2450 C   0  0  0  0  0  2  0  0  0  0  0  0
  185.1080  177.9660  136.9590 C   0  0  0  0  0  2  0  0  0  0  0  0
  184.2290  176.7260  137.1300 C   0  0  1  0  0  3  0  0  0  0  0  0
  182.4550  177.0420  135.1230 O   0  0  0  0  0  0  0  0  0  0  0  0
  182.2390  178.5410  137.0630 O   0  0  0  0  0  0  0  0  0  0  0  0
  182.5660  177.1380  136.6200 S   0  0  0  0  0  0  0  0  0  0  0  0
  181.4670  176.0200  137.3510 N   0  0  0  0  0  2  0  0  0  0  0  0
  181.5260  176.2250  138.7940 C   0  0  0  0  0  2  0  0  0  0  0  0
  179.5760  175.8790  140.1450 O   0  0  0  0  0  1  0  0  0  0  0  0
  180.1150  174.1730  138.5710 C   0  0  0  0  0  1  0  0  0  0  0  0
  180.6440  175.2260  139.5210 C   0  0  1  0  0  3  0  0  0  0  0  0
  184.7140  175.6830  136.3370 O   0  0  0  0  0  0  0  0  0  0  0  0
  186.2610  172.6010  137.2010 C   0  0  0  0  0  2  0  0  0  0  0  0
  184.9780  174.6300  137.2170 C   0  0  0  0  0  3  0  0  0  0  0  0
  184.8630  172.2360  136.7490 C   0  0  0  0  0  2  0  0  0  0  0  0
  186.3740  174.0880  136.9820 C   0  0  0  0  0  2  0  0  0  0  0  0
  184.0220  173.4840  136.9510 C   0  0  0  0  0  2  0  0  0  0  0  0
  1  4  1  0  0  0  0
  2  1  2  0  0  0  0
  3 41  1  6  0  0  0
  3  2  1  0  0  0  0
  3  5  1  0  0  0  0
  4  7  1  0  0  0  0
  5  4  1  0  0  0  0
  6 12  1  0  0  0  0
  7  8  1  0  0  0  0
  7  6  2  0  0  0  0
  8 10  1  0  0  0  0
  9 11  2  0  0  0  0
 10 13  1  1  0  0  0
 10  9  1  0  0  0  0
 12  9  1  0  0  0  0
 13 14  1  0  0  0  0
 16 20  1  0  0  0  0
 16 18  1  0  0  0  0
 17 16  1  0  0  0  0
 18 15  2  0  0  0  0
 19 15  1  0  0  0  0
 19 14  1  0  0  0  0
 20 19  2  0  0  0  0
 21 20  1  0  0  0  0
 22 25  2  0  0  0  0
 22 28  1  0  0  0  0
 23 26  2  0  0  0  0
 25 27  1  0  0  0  0
 26 28  1  0  0  0  0
 26  2  1  0  0  0  0
 27 24  2  0  0  0  0
 28 24  1  0  0  0  0
 29 31  1  0  0  0  0
 29 25  1  0  0  0  0
 30 34  1  0  0  0  0
 31 33  2  0  0  0  0
 31 35  1  0  0  0  0
 32 34  2  0  0  0  0
 34 29  1  0  0  0  0
 35 36  1  6  0  0  0
 35 37  1  0  0  0  0
 37 38  1  0  0  0  0
 38 39  1  0  0  0  0
 41 40  1  1  0  0  0
 42 41  1  0  0  0  0
 43 42  1  0  0  0  0
 43 44  1  0  0  0  0
 45 44  1  6  0  0  0
 46 48  2  0  0  0  0
 48 47  2  0  0  0  0
 48 45  1  0  0  0  0
 48 49  1  0  0  0  0
 49 50  1  0  0  0  0
 50 53  1  0  0  0  0
 53 52  1  6  0  0  0
 53 51  1  0  0  0  0
 54 45  1  0  0  0  0
 54 56  1  0  0  0  0
 57 59  1  0  0  0  0
 57 55  1  0  0  0  0
 58 55  1  0  0  0  0
 58 56  1  0  0  0  0
 59 56  1  0  0  0  0
M  END
>  <MODEL>
7

>  <REMARK>
 VINA RESULT:      -6.4      2.632      6.631
  Name = 
  20 active torsions:
  status: ('A' for Active; 'I' for Inactive)
    1  A    between atoms: O_1  and  C_7
    2  A    between atoms: O_1  and  C_29
    3  A    between atoms: N_4  and  C_5
    4  A    between atoms: N_4  and  C_38
    5  A    between atoms: C_5  and  C_46
    6  A    between atoms: C_6  and  N_48
    7  A    between atoms: C_6  and  C_52
    8  A    between atoms: C_7  and  C_39
    9  A    between atoms: C_10  and  C_15
   10  A    between atoms: C_10  and  O_17
   11  A    between atoms: C_10  and  S_51
   12  A    between atoms: N_11  and  C_22
   13  A    between atoms: C_14  and  O_17
   14  A    between atoms: C_15  and  C_24
   15  A    between atoms: C_18  and  N_42
   16  A    between atoms: C_24  and  C_31
   17  A    between atoms: C_31  and  C_54
   18  A    between atoms: C_33  and  C_34
   19  A    between atoms: C_36  and  C_54
   20  A    between atoms: N_48  and  S_51
                            x       y       z     vdW  Elec       q    Type
                         _______ _______ _______ _____ _____    ______ ____

>  <TORSDO>
F 20

$$$$
=
 OpenBabel11032421063D

 59 63  0  0  1  0  0  0  0  0999 V2000
  190.8500  177.3430  141.2960 C   0  0  0  0  0  3  0  0  0  0  0  0
  191.0820  177.1220  140.0210 C   0  0  0  0  0  0  0  0  0  0  0  0
  189.7810  177.1240  139.2700 C   0  0  1  0  0  3  0  0  0  0  0  0
  189.4540  177.5080  141.4730 N   0  0  0  0  0  0  0  0  0  0  0  0
  188.7390  177.3790  140.2720 N   0  0  0  0  0  2  0  0  0  0  0  0
  189.4810  177.6830  143.8800 C   0  0  0  0  0  3  0  0  0  0  0  0
  188.8120  177.7930  142.7240 C   0  0  0  0  0  0  0  0  0  0  0  0
  187.3710  178.2370  142.7430 C   0  0  0  0  0  2  0  0  0  0  0  0
  187.3890  177.5290  145.1680 C   0  0  0  0  0  0  0  0  0  0  0  0
  186.5900  177.5660  143.8810 C   0  0  1  0  0  3  0  0  0  0  0  0
  186.8760  177.1130  146.1950 O   0  0  0  0  0  0  0  0  0  0  0  0
  188.8170  177.9990  145.1890 C   0  0  0  0  0  2  0  0  0  0  0  0
  185.3370  178.2760  144.0820 N   0  0  0  0  0  2  0  0  0  0  0  0
  184.8110  178.5890  142.7640 C   0  0  0  0  0  2  0  0  0  0  0  0
  182.5760  178.8420  143.9920 C   0  0  0  0  0  3  0  0  0  0  0  0
  181.2090  178.9640  142.3070 N   0  0  0  0  0  0  0  0  0  0  0  0
  179.9680  179.1060  141.5630 C   0  0  0  0  0  1  0  0  0  0  0  0
  181.2810  178.9920  143.6310 N   0  0  0  0  0  0  0  0  0  0  0  0
  183.3260  178.7100  142.8360 C   0  0  0  0  0  0  0  0  0  0  0  0
  182.4350  178.8010  141.7890 C   0  0  0  0  0  0  0  0  0  0  0  0
  182.7560  178.7390  140.3300 C   0  0  0  0  0  1  0  0  0  0  0  0
  193.7780  175.5370  137.8310 C   0  0  0  0  0  3  0  0  0  0  0  0
  193.3960  177.5170  139.7930 O   0  0  0  0  0  0  0  0  0  0  0  0
  191.6590  175.0030  137.8860 C   0  0  0  0  0  3  0  0  0  0  0  0
  193.5780  174.5210  136.9150 C   0  0  0  0  0  0  0  0  0  0  0  0
  192.4030  176.8360  139.4120 C   0  0  0  0  0  0  0  0  0  0  0  0
  192.2370  174.1660  136.9480 C   0  0  0  0  0  3  0  0  0  0  0  0
  192.5960  175.8230  138.4070 N   0  0  0  0  0  0  0  0  0  0  0  0
  194.5980  173.8810  136.1150 N   0  0  0  0  0  0  0  0  0  0  0  0
  196.5530  174.2830  134.8680 O   0  0  0  0  0  1  0  0  0  0  0  0
  194.7320  172.4430  136.1710 C   0  0  0  0  0  0  0  0  0  0  0  0
  194.8680  175.8040  134.6020 O   0  0  0  0  0  0  0  0  0  0  0  0
  193.7030  171.7230  136.0720 O   0  0  0  0  0  0  0  0  0  0  0  0
  195.3900  174.6520  135.1860 C   0  0  0  0  0  0  0  0  0  0  0  0
  196.0610  171.7660  136.3820 C   0  0  1  0  0  3  0  0  0  0  0  0
  196.7320  172.2670  137.6520 C   0  0  0  0  0  1  0  0  0  0  0  0
  195.9210  170.3740  136.4170 O   0  0  0  0  0  0  0  0  0  0  0  0
  197.1290  169.8970  136.9380 C   0  0  0  0  0  2  0  0  0  0  0  0
  198.1400  169.7360  135.8130 C   0  0  0  0  0  1  0  0  0  0  0  0
  188.6510  179.0420  138.3410 O   0  0  0  0  0  1  0  0  0  0  0  0
  189.7640  178.2030  138.1870 C   0  0  2  0  0  3  0  0  0  0  0  0
  189.7580  177.5520  136.8110 C   0  0  0  0  0  2  0  0  0  0  0  0
  188.3360  177.2560  136.3650 C   0  0  0  0  0  2  0  0  0  0  0  0
  187.7730  176.0810  137.1540 C   0  0  0  0  0  2  0  0  0  0  0  0
  186.5390  175.4700  136.4890 C   0  0  1  0  0  3  0  0  0  0  0  0
  184.5670  177.1360  135.7080 O   0  0  0  0  0  0  0  0  0  0  0  0
  185.5160  177.4890  137.9510 O   0  0  0  0  0  0  0  0  0  0  0  0
  185.1130  176.4540  136.9320 S   0  0  0  0  0  0  0  0  0  0  0  0
  183.9040  175.4120  137.5970 N   0  0  0  0  0  2  0  0  0  0  0  0
  182.6100  176.0540  137.3930 C   0  0  0  0  0  2  0  0  0  0  0  0
  181.5210  175.6230  139.4850 O   0  0  0  0  0  1  0  0  0  0  0  0
  180.1520  175.6220  137.5350 C   0  0  0  0  0  1  0  0  0  0  0  0
  181.5100  175.3050  138.1230 C   0  0  1  0  0  3  0  0  0  0  0  0
  186.6930  175.4740  135.1000 O   0  0  0  0  0  0  0  0  0  0  0  0
  186.8060  171.9900  135.7960 C   0  0  0  0  0  2  0  0  0  0  0  0
  186.9310  174.1430  134.7430 C   0  0  0  0  0  3  0  0  0  0  0  0
  188.2270  172.4820  135.9770 C   0  0  0  0  0  2  0  0  0  0  0  0
  185.9930  173.2230  135.4990 C   0  0  0  0  0  2  0  0  0  0  0  0
  188.3380  173.7460  135.1430 C   0  0  0  0  0  2  0  0  0  0  0  0
  1  4  1  0  0  0  0
  2  1  2  0  0  0  0
  3 41  1  6  0  0  0
  3  2  1  0  0  0  0
  3  5  1  0  0  0  0
  4  7  1  0  0  0  0
  5  4  1  0  0  0  0
  6 12  1  0  0  0  0
  7  8  1  0  0  0  0
  7  6  2  0  0  0  0
  8 10  1  0  0  0  0
  9 12  1  0  0  0  0
  9 11  2  0  0  0  0
 10 13  1  1  0  0  0
 10  9  1  0  0  0  0
 14 19  1  0  0  0  0
 14 13  1  0  0  0  0
 16 18  1  0  0  0  0
 17 16  1  0  0  0  0
 18 15  2  0  0  0  0
 19 15  1  0  0  0  0
 20 16  1  0  0  0  0
 20 19  2  0  0  0  0
 21 20  1  0  0  0  0
 22 28  1  0  0  0  0
 24 28  1  0  0  0  0
 25 27  1  0  0  0  0
 25 22  2  0  0  0  0
 26 23  2  0  0  0  0
 26  2  1  0  0  0  0
 27 24  2  0  0  0  0
 28 26  1  0  0  0  0
 29 31  1  0  0  0  0
 29 25  1  0  0  0  0
 30 34  1  0  0  0  0
 31 35  1  0  0  0  0
 32 34  2  0  0  0  0
 33 31  2  0  0  0  0
 34 29  1  0  0  0  0
 35 37  1  0  0  0  0
 35 36  1  1  0  0  0
 37 38  1  0  0  0  0
 39 38  1  0  0  0  0
 41 40  1  1  0  0  0
 42 41  1  0  0  0  0
 43 42  1  0  0  0  0
 43 44  1  0  0  0  0
 45 48  1  0  0  0  0
 45 44  1  1  0  0  0
 46 48  2  0  0  0  0
 48 49  1  0  0  0  0
 48 47  2  0  0  0  0
 50 49  1  0  0  0  0
 50 53  1  0  0  0  0
 53 52  1  6  0  0  0
 53 51  1  0  0  0  0
 54 45  1  0  0  0  0
 55 57  1  0  0  0  0
 56 54  1  0  0  0  0
 56 59  1  0  0  0  0
 56 58  1  0  0  0  0
 58 55  1  0  0  0  0
 59 57  1  0  0  0  0
M  END
>  <MODEL>
8

>  <REMARK>
 VINA RESULT:      -6.4      2.667      6.852
  Name = 
  20 active torsions:
  status: ('A' for Active; 'I' for Inactive)
    1  A    between atoms: O_1  and  C_7
    2  A    between atoms: O_1  and  C_29
    3  A    between atoms: N_4  and  C_5
    4  A    between atoms: N_4  and  C_38
    5  A    between atoms: C_5  and  C_46
    6  A    between atoms: C_6  and  N_48
    7  A    between atoms: C_6  and  C_52
    8  A    between atoms: C_7  and  C_39
    9  A    between atoms: C_10  and  C_15
   10  A    between atoms: C_10  and  O_17
   11  A    between atoms: C_10  and  S_51
   12  A    between atoms: N_11  and  C_22
   13  A    between atoms: C_14  and  O_17
   14  A    between atoms: C_15  and  C_24
   15  A    between atoms: C_18  and  N_42
   16  A    between atoms: C_24  and  C_31
   17  A    between atoms: C_31  and  C_54
   18  A    between atoms: C_33  and  C_34
   19  A    between atoms: C_36  and  C_54
   20  A    between atoms: N_48  and  S_51
                            x       y       z     vdW  Elec       q    Type
                         _______ _______ _______ _____ _____    ______ ____

>  <TORSDO>
F 20

$$$$
=
 OpenBabel11032421063D

 59 63  0  0  1  0  0  0  0  0999 V2000
  185.6460  178.7140  140.0050 C   0  0  0  0  0  3  0  0  0  0  0  0
  186.8560  178.2560  139.7720 C   0  0  0  0  0  0  0  0  0  0  0  0
  186.9140  177.6830  138.3860 C   0  0  1  0  0  3  0  0  0  0  0  0
  184.8570  178.4980  138.8480 N   0  0  0  0  0  0  0  0  0  0  0  0
  185.5710  177.8630  137.8200 N   0  0  0  0  0  2  0  0  0  0  0  0
  183.0680  180.0990  139.0970 C   0  0  0  0  0  3  0  0  0  0  0  0
  183.4840  178.8860  138.7050 C   0  0  0  0  0  0  0  0  0  0  0  0
  182.4940  177.9280  138.0910 C   0  0  0  0  0  2  0  0  0  0  0  0
  180.7260  179.3490  139.2050 C   0  0  0  0  0  0  0  0  0  0  0  0
  181.1560  177.9420  138.8440 C   0  0  1  0  0  3  0  0  0  0  0  0
  179.6380  179.5420  139.7240 O   0  0  0  0  0  0  0  0  0  0  0  0
  181.6350  180.5150  138.9300 C   0  0  0  0  0  2  0  0  0  0  0  0
  180.1430  177.2950  138.0260 N   0  0  0  0  0  2  0  0  0  0  0  0
  179.9320  175.9700  138.5830 C   0  0  0  0  0  2  0  0  0  0  0  0
  179.1550  174.4930  136.6380 C   0  0  0  0  0  3  0  0  0  0  0  0
  181.0250  173.5260  136.1010 N   0  0  0  0  0  0  0  0  0  0  0  0
  181.9720  172.6820  135.3890 C   0  0  0  0  0  1  0  0  0  0  0  0
  179.7410  173.6200  135.7870 N   0  0  0  0  0  0  0  0  0  0  0  0
  180.1240  174.9440  137.5160 C   0  0  0  0  0  0  0  0  0  0  0  0
  181.2960  174.3230  137.1460 C   0  0  0  0  0  0  0  0  0  0  0  0
  182.6420  174.4960  137.7740 C   0  0  0  0  0  1  0  0  0  0  0  0
  188.7940  177.8850  143.0410 C   0  0  0  0  0  3  0  0  0  0  0  0
  189.1400  178.4870  140.3150 O   0  0  0  0  0  0  0  0  0  0  0  0
  186.6410  177.6270  142.7620 C   0  0  0  0  0  3  0  0  0  0  0  0
  188.2500  177.5480  144.2670 C   0  0  0  0  0  0  0  0  0  0  0  0
  187.9790  178.2300  140.7400 C   0  0  0  0  0  0  0  0  0  0  0  0
  186.8810  177.3920  144.1040 C   0  0  0  0  0  3  0  0  0  0  0  0
  187.7990  177.9200  142.1350 N   0  0  0  0  0  0  0  0  0  0  0  0
  188.9650  177.4510  145.5200 N   0  0  0  0  0  0  0  0  0  0  0  0
  188.7120  176.9650  147.8080 O   0  0  0  0  0  1  0  0  0  0  0  0
  190.4090  177.4000  145.5000 C   0  0  0  0  0  0  0  0  0  0  0  0
  187.0630  178.2390  146.8700 O   0  0  0  0  0  0  0  0  0  0  0  0
  191.0460  178.2270  144.7940 O   0  0  0  0  0  0  0  0  0  0  0  0
  188.2540  177.5230  146.7750 C   0  0  0  0  0  0  0  0  0  0  0  0
  191.1880  176.3650  146.2670 C   0  0  1  0  0  3  0  0  0  0  0  0
  192.0510  175.5290  145.3320 C   0  0  0  0  0  1  0  0  0  0  0  0
  191.9740  176.9570  147.2630 O   0  0  0  0  0  0  0  0  0  0  0  0
  192.5650  175.8870  147.9470 C   0  0  0  0  0  2  0  0  0  0  0  0
  193.2080  176.3950  149.2280 C   0  0  0  0  0  1  0  0  0  0  0  0
  187.3540  179.3540  136.7020 O   0  0  0  0  0  1  0  0  0  0  0  0
  187.9610  178.3980  137.5300 C   0  0  2  0  0  3  0  0  0  0  0  0
  188.7300  177.3810  136.7000 C   0  0  0  0  0  2  0  0  0  0  0  0
  190.2270  177.6020  136.8340 C   0  0  0  0  0  2  0  0  0  0  0  0
  190.8420  176.5090  137.6990 C   0  0  0  0  0  2  0  0  0  0  0  0
  191.8440  175.6500  136.9260 C   0  0  1  0  0  3  0  0  0  0  0  0
  193.3630  176.7410  138.8710 O   0  0  0  0  0  0  0  0  0  0  0  0
  194.3080  176.6920  136.5990 O   0  0  0  0  0  0  0  0  0  0  0  0
  193.4740  175.9380  137.6030 S   0  0  0  0  0  0  0  0  0  0  0  0
  194.2090  174.4120  137.9520 N   0  0  0  0  0  2  0  0  0  0  0  0
  195.5720  174.4520  137.4330 C   0  0  0  0  0  2  0  0  0  0  0  0
  194.5070  173.0080  135.8420 O   0  0  0  0  0  1  0  0  0  0  0  0
  196.5170  174.0850  135.1480 C   0  0  0  0  0  1  0  0  0  0  0  0
  195.7500  173.4630  136.2960 C   0  0  1  0  0  3  0  0  0  0  0  0
  191.5180  174.2980  137.0600 O   0  0  0  0  0  0  0  0  0  0  0  0
  188.7700  172.4150  135.8180 C   0  0  0  0  0  2  0  0  0  0  0  0
  190.4750  174.0710  136.1570 C   0  0  0  0  0  3  0  0  0  0  0  0
  189.9570  171.9970  134.9770 C   0  0  0  0  0  2  0  0  0  0  0  0
  189.3280  173.3620  136.8500 C   0  0  0  0  0  2  0  0  0  0  0  0
  190.9450  173.1480  135.0500 C   0  0  0  0  0  2  0  0  0  0  0  0
  2  1  2  0  0  0  0
  2 26  1  0  0  0  0
  3 41  1  6  0  0  0
  3  2  1  0  0  0  0
  4  1  1  0  0  0  0
  5  3  1  0  0  0  0
  5  4  1  0  0  0  0
  7  4  1  0  0  0  0
  7  6  2  0  0  0  0
  8  7  1  0  0  0  0
  8 10  1  0  0  0  0
  9 11  2  0  0  0  0
 10 13  1  6  0  0  0
 10  9  1  0  0  0  0
 12  6  1  0  0  0  0
 12  9  1  0  0  0  0
 13 14  1  0  0  0  0
 15 19  1  0  0  0  0
 16 20  1  0  0  0  0
 17 16  1  0  0  0  0
 18 16  1  0  0  0  0
 18 15  2  0  0  0  0
 19 14  1  0  0  0  0
 20 19  2  0  0  0  0
 20 21  1  0  0  0  0
 22 25  2  0  0  0  0
 23 26  2  0  0  0  0
 24 27  2  0  0  0  0
 25 29  1  0  0  0  0
 26 28  1  0  0  0  0
 27 25  1  0  0  0  0
 28 24  1  0  0  0  0
 28 22  1  0  0  0  0
 29 34  1  0  0  0  0
 31 29  1  0  0  0  0
 31 35  1  0  0  0  0
 33 31  2  0  0  0  0
 34 32  2  0  0  0  0
 34 30  1  0  0  0  0
 35 36  1  6  0  0  0
 35 37  1  0  0  0  0
 37 38  1  0  0  0  0
 38 39  1  0  0  0  0
 41 40  1  6  0  0  0
 42 43  1  0  0  0  0
 42 41  1  0  0  0  0
 43 44  1  0  0  0  0
 45 54  1  0  0  0  0
 45 48  1  0  0  0  0
 45 44  1  1  0  0  0
 47 48  2  0  0  0  0
 48 49  1  0  0  0  0
 48 46  2  0  0  0  0
 50 49  1  0  0  0  0
 51 53  1  0  0  0  0
 53 52  1  6  0  0  0
 53 50  1  0  0  0  0
 55 58  1  0  0  0  0
 56 58  1  0  0  0  0
 56 54  1  0  0  0  0
 57 59  1  0  0  0  0
 57 55  1  0  0  0  0
 59 56  1  0  0  0  0
M  END
>  <MODEL>
9

>  <REMARK>
 VINA RESULT:      -6.2      2.434      8.256
  Name = 
  20 active torsions:
  status: ('A' for Active; 'I' for Inactive)
    1  A    between atoms: O_1  and  C_7
    2  A    between atoms: O_1  and  C_29
    3  A    between atoms: N_4  and  C_5
    4  A    between atoms: N_4  and  C_38
    5  A    between atoms: C_5  and  C_46
    6  A    between atoms: C_6  and  N_48
    7  A    between atoms: C_6  and  C_52
    8  A    between atoms: C_7  and  C_39
    9  A    between atoms: C_10  and  C_15
   10  A    between atoms: C_10  and  O_17
   11  A    between atoms: C_10  and  S_51
   12  A    between atoms: N_11  and  C_22
   13  A    between atoms: C_14  and  O_17
   14  A    between atoms: C_15  and  C_24
   15  A    between atoms: C_18  and  N_42
   16  A    between atoms: C_24  and  C_31
   17  A    between atoms: C_31  and  C_54
   18  A    between atoms: C_33  and  C_34
   19  A    between atoms: C_36  and  C_54
   20  A    between atoms: N_48  and  S_51
                            x       y       z     vdW  Elec       q    Type
                         _______ _______ _______ _____ _____    ______ ____

>  <TORSDO>
F 20

$$$$
