=
 OpenBabel11042410573D

 56 60  0  0  1  0  0  0  0  0999 V2000
  184.5510  178.1600  141.2790 C   0  0  2  0  0  3  0  0  0  0  0  0
  184.8600  179.5980  139.2210 N   0  0  0  0  0  2  0  0  0  0  0  0
  186.6920  178.8310  140.4410 O   0  0  0  0  0  0  0  0  0  0  0  0
  185.4420  178.8700  140.3060 C   0  0  0  0  0  0  0  0  0  0  0  0
  183.4100  179.7550  139.1450 C   0  0  0  0  0  2  0  0  0  0  0  0
  183.2490  177.7850  140.6150 C   0  0  0  0  0  3  0  0  0  0  0  0
  182.7130  178.5040  139.6200 C   0  0  0  0  0  0  0  0  0  0  0  0
  181.4320  178.1110  139.1080 N   0  0  0  0  0  2  0  0  0  0  0  0
  181.6440  177.9250  136.7190 C   0  0  0  0  0  2  0  0  0  0  0  0
  181.1530  177.4530  137.8620 C   0  0  0  0  0  0  0  0  0  0  0  0
  180.5630  176.0610  137.8760 C   0  0  1  0  0  3  0  0  0  0  0  0
  178.9960  174.6470  136.9530 C   0  0  0  0  0  1  0  0  0  0  0  0
  179.8550  175.7310  136.6940 O   0  0  0  0  0  0  0  0  0  0  0  0
  181.5450  174.9690  138.3200 C   0  0  0  0  0  2  0  0  0  0  0  0
  182.4650  174.5790  137.1760 C   0  0  0  0  0  2  0  0  0  0  0  0
  184.4980  173.1620  137.4900 C   0  0  0  0  0  2  0  0  0  0  0  0
  182.4500  172.2600  136.2330 C   0  0  0  0  0  2  0  0  0  0  0  0
  182.9680  173.1590  137.3680 C   0  0  2  0  0  3  0  0  0  0  0  0
  183.3470  171.0410  136.0430 C   0  0  0  0  0  2  0  0  0  0  0  0
  184.7710  171.4520  135.6460 C   0  0  0  0  0  2  0  0  0  0  0  0
  185.1770  172.8410  136.1570 C   0  0  2  0  0  3  0  0  0  0  0  0
  186.6870  172.9070  136.2970 C   0  0  0  0  0  2  0  0  0  0  0  0
  187.4330  176.3490  135.7790 C   0  0  1  0  0  3  0  0  0  0  0  0
  187.2270  173.9760  135.4700 N   0  0  0  0  0  0  0  0  0  0  0  0
  188.8110  175.7330  135.8150 C   0  0  0  0  0  2  0  0  0  0  0  0
  186.4680  175.1770  135.7830 C   0  0  0  0  0  2  0  0  0  0  0  0
  188.5760  174.2450  135.9350 C   0  0  0  0  0  2  0  0  0  0  0  0
  187.2260  177.2090  137.0120 C   0  0  0  0  0  2  0  0  0  0  0  0
  187.3650  178.6790  136.6620 C   0  0  0  0  0  1  0  0  0  0  0  0
  184.2970  179.0490  142.4890 C   0  0  0  0  0  2  0  0  0  0  0  0
  186.1690  177.6220  143.9080 S   0  0  0  0  0  0  0  0  0  0  0  0
  185.9470  177.5510  145.7060 C   0  0  2  0  0  3  0  0  0  0  0  0
  184.4850  178.2800  143.7860 C   0  0  1  0  0  3  0  0  0  0  0  0
  184.2500  179.2000  144.9700 C   0  0  0  0  0  2  0  0  0  0  0  0
  185.1900  178.8080  146.1000 C   0  0  0  0  0  2  0  0  0  0  0  0
  187.2990  177.4500  146.4290 C   0  0  1  0  0  3  0  0  0  0  0  0
  188.4890  177.5420  145.5130 C   0  0  0  0  0  0  0  0  0  0  0  0
  189.6810  178.5680  143.6660 C   0  0  0  0  0  3  0  0  0  0  0  0
  189.5600  176.6630  145.7080 C   0  0  0  0  0  3  0  0  0  0  0  0
  188.5570  178.5020  144.4930 C   0  0  0  0  0  3  0  0  0  0  0  0
  190.7570  177.6910  143.8680 C   0  0  0  0  0  0  0  0  0  0  0  0
  190.6870  176.7350  144.8850 C   0  0  0  0  0  3  0  0  0  0  0  0
  191.9480  177.7030  142.9640 C   0  0  0  0  0  2  0  0  0  0  0  0
  190.7330  176.7880  140.9490 C   0  0  0  0  0  0  0  0  0  0  0  0
  191.5510  177.7860  141.5650 N   0  0  0  0  0  2  0  0  0  0  0  0
  190.3670  175.7740  141.6000 O   0  0  0  0  0  0  0  0  0  0  0  0
  189.6700  178.1770  139.3620 O   0  0  0  0  0  1  0  0  0  0  0  0
  190.2980  176.9410  139.5290 C   0  0  1  0  0  3  0  0  0  0  0  0
  191.8270  175.6380  137.9760 C   0  0  0  0  0  0  0  0  0  0  0  0
  191.4360  176.8510  138.6230 N   0  0  0  0  0  2  0  0  0  0  0  0
  191.1960  174.5670  138.1910 O   0  0  0  0  0  0  0  0  0  0  0  0
  193.8080  176.7020  137.1060 N   0  0  0  0  0  1  0  0  0  0  0  0
  192.9180  175.6510  137.1110 O   0  0  0  0  0  0  0  0  0  0  0  0
  187.4210  178.4190  147.6090 C   0  0  0  0  0  2  0  0  0  0  0  0
  189.5700  178.3720  148.8440 C   0  0  0  0  0  1  0  0  0  0  0  0
  188.1620  177.8140  148.7930 C   0  0  0  0  0  2  0  0  0  0  0  0
  1 30  1  1  0  0  0
  2  4  1  0  0  0  0
  4  3  2  0  0  0  0
  4  1  1  0  0  0  0
  5  2  1  0  0  0  0
  5  7  1  0  0  0  0
  6  1  1  0  0  0  0
  7  6  2  0  0  0  0
  8  7  1  0  0  0  0
  9 10  2  0  0  0  0
 10 11  1  0  0  0  0
 10  8  1  0  0  0  0
 11 14  1  6  0  0  0
 13 12  1  0  0  0  0
 13 11  1  0  0  0  0
 15 14  1  0  0  0  0
 17 18  1  0  0  0  0
 18 15  1  6  0  0  0
 18 16  1  0  0  0  0
 19 17  1  0  0  0  0
 20 19  1  0  0  0  0
 20 21  1  0  0  0  0
 21 22  1  1  0  0  0
 21 16  1  0  0  0  0
 23 26  1  0  0  0  0
 23 25  1  0  0  0  0
 23 28  1  1  0  0  0
 24 26  1  0  0  0  0
 24 27  1  0  0  0  0
 24 22  1  0  0  0  0
 25 27  1  0  0  0  0
 29 28  1  0  0  0  0
 31 32  1  0  0  0  0
 32 35  1  0  0  0  0
 32 36  1  1  0  0  0
 33 30  1  6  0  0  0
 33 31  1  0  0  0  0
 33 34  1  0  0  0  0
 34 35  1  0  0  0  0
 36 54  1  1  0  0  0
 37 39  1  0  0  0  0
 37 36  1  0  0  0  0
 38 41  2  0  0  0  0
 38 40  1  0  0  0  0
 40 37  2  0  0  0  0
 41 42  1  0  0  0  0
 42 39  2  0  0  0  0
 43 41  1  0  0  0  0
 44 45  1  0  0  0  0
 44 46  2  0  0  0  0
 45 43  1  0  0  0  0
 48 47  1  1  0  0  0
 48 44  1  0  0  0  0
 49 51  2  0  0  0  0
 49 50  1  0  0  0  0
 50 48  1  0  0  0  0
 52 53  1  0  0  0  0
 53 49  1  0  0  0  0
 54 56  1  0  0  0  0
 56 55  1  0  0  0  0
M  END
>  <MODEL>
1

>  <REMARK>
 VINA RESULT:      -7.7      0.000      0.000
  Name = 
  21 active torsions:
  status: ('A' for Active; 'I' for Inactive)
    1  A    between atoms: C_1  and  C_11
    2  A    between atoms: C_2  and  N_19
    3  A    between atoms: C_2  and  C_54
    4  A    between atoms: C_4  and  C_14
    5  A    between atoms: C_7  and  C_11
    6  A    between atoms: C_8  and  C_10
    7  A    between atoms: C_11  and  C_17
    8  A    between atoms: C_14  and  C_47
    9  A    between atoms: N_15  and  C_30
   10  A    between atoms: N_15  and  C_42
   11  A    between atoms: C_17  and  C_25
   12  A    between atoms: C_20  and  O_41
   13  A    between atoms: C_24  and  N_27
   14  A    between atoms: C_24  and  C_33
   15  A    between atoms: C_26  and  C_50
   16  A    between atoms: N_34  and  C_39
   17  A    between atoms: C_35  and  C_50
   18  A    between atoms: C_35  and  C_56
   19  A    between atoms: C_39  and  C_43
   20  A    between atoms: C_42  and  C_56
   21  A    between atoms: O_55  and  C_56
                            x       y       z     vdW  Elec       q    Type
                         _______ _______ _______ _____ _____    ______ ____

>  <TORSDO>
F 21

$$$$
=
 OpenBabel11042410573D

 56 60  0  0  1  0  0  0  0  0999 V2000
  183.8440  179.0820  140.6580 C   0  0  2  0  0  3  0  0  0  0  0  0
  181.6440  177.9220  141.1180 N   0  0  0  0  0  2  0  0  0  0  0  0
  182.7220  179.1620  142.7720 O   0  0  0  0  0  0  0  0  0  0  0  0
  182.7200  178.7400  141.5870 C   0  0  0  0  0  0  0  0  0  0  0  0
  181.7120  177.3220  139.7890 C   0  0  0  0  0  2  0  0  0  0  0  0
  183.3620  179.0620  139.2280 C   0  0  0  0  0  3  0  0  0  0  0  0
  182.3710  178.2640  138.8120 C   0  0  0  0  0  0  0  0  0  0  0  0
  182.0390  178.2600  137.4170 N   0  0  0  0  0  2  0  0  0  0  0  0
  180.2370  177.9430  135.8550 C   0  0  0  0  0  2  0  0  0  0  0  0
  181.0750  177.4290  136.7500 C   0  0  0  0  0  0  0  0  0  0  0  0
  181.2130  175.9250  136.8320 C   0  0  1  0  0  3  0  0  0  0  0  0
  179.5640  174.4940  137.5660 C   0  0  0  0  0  1  0  0  0  0  0  0
  180.0370  175.2250  136.4610 O   0  0  0  0  0  0  0  0  0  0  0  0
  182.4810  175.3750  136.1680 C   0  0  0  0  0  2  0  0  0  0  0  0
  183.5430  175.0700  137.2100 C   0  0  0  0  0  2  0  0  0  0  0  0
  185.0870  173.1390  137.5670 C   0  0  0  0  0  2  0  0  0  0  0  0
  182.8400  172.8190  136.3700 C   0  0  0  0  0  2  0  0  0  0  0  0
  183.6190  173.5750  137.4590 C   0  0  2  0  0  3  0  0  0  0  0  0
  183.3430  171.3870  136.2250 C   0  0  0  0  0  2  0  0  0  0  0  0
  184.8160  171.3530  135.7980 C   0  0  0  0  0  2  0  0  0  0  0  0
  185.6160  172.5850  136.2430 C   0  0  2  0  0  3  0  0  0  0  0  0
  187.0840  172.2170  136.3670 C   0  0  0  0  0  2  0  0  0  0  0  0
  187.5380  175.4500  134.9480 C   0  0  1  0  0  3  0  0  0  0  0  0
  187.9110  173.1890  135.6690 N   0  0  0  0  0  0  0  0  0  0  0  0
  188.5430  175.4590  136.0740 C   0  0  0  0  0  2  0  0  0  0  0  0
  187.0130  174.0270  134.8900 C   0  0  0  0  0  2  0  0  0  0  0  0
  188.4830  174.0720  136.6710 C   0  0  0  0  0  2  0  0  0  0  0  0
  186.4110  176.4160  135.2630 C   0  0  0  0  0  2  0  0  0  0  0  0
  186.8410  177.8430  134.9800 C   0  0  0  0  0  1  0  0  0  0  0  0
  184.9900  178.0970  140.8490 C   0  0  0  0  0  2  0  0  0  0  0  0
  187.7000  178.2250  141.2940 S   0  0  0  0  0  0  0  0  0  0  0  0
  188.7560  178.4100  139.8320 C   0  0  2  0  0  3  0  0  0  0  0  0
  186.2790  178.6270  140.2430 C   0  0  1  0  0  3  0  0  0  0  0  0
  186.5050  178.0000  138.8800 C   0  0  0  0  0  2  0  0  0  0  0  0
  187.9970  177.7960  138.6670 C   0  0  0  0  0  2  0  0  0  0  0  0
  190.1190  177.7330  140.0430 C   0  0  1  0  0  3  0  0  0  0  0  0
  190.4530  177.4700  141.4870 C   0  0  0  0  0  0  0  0  0  0  0  0
  191.4810  178.1150  143.5880 C   0  0  0  0  0  3  0  0  0  0  0  0
  189.9810  176.2960  142.0850 C   0  0  0  0  0  3  0  0  0  0  0  0
  191.1970  178.3840  142.2470 C   0  0  0  0  0  3  0  0  0  0  0  0
  191.0010  176.9410  144.1870 C   0  0  0  0  0  0  0  0  0  0  0  0
  190.2600  176.0310  143.4290 C   0  0  0  0  0  3  0  0  0  0  0  0
  191.3360  176.6010  145.6050 C   0  0  0  0  0  2  0  0  0  0  0  0
  189.2350  177.5280  146.6530 C   0  0  0  0  0  0  0  0  0  0  0  0
  190.1330  176.4430  146.4110 N   0  0  0  0  0  2  0  0  0  0  0  0
  189.4890  178.6780  146.2040 O   0  0  0  0  0  0  0  0  0  0  0  0
  188.2260  177.5470  148.7880 O   0  0  0  0  0  1  0  0  0  0  0  0
  187.9810  177.3090  147.4340 C   0  0  1  0  0  3  0  0  0  0  0  0
  186.2250  178.0040  145.7370 C   0  0  0  0  0  0  0  0  0  0  0  0
  186.9180  178.1920  146.9720 N   0  0  0  0  0  2  0  0  0  0  0  0
  186.5360  177.0520  144.9690 O   0  0  0  0  0  0  0  0  0  0  0  0
  184.0210  178.9190  146.0820 N   0  0  0  0  0  1  0  0  0  0  0  0
  185.2090  178.8880  145.3860 O   0  0  0  0  0  0  0  0  0  0  0  0
  190.3050  176.4780  139.1860 C   0  0  0  0  0  2  0  0  0  0  0  0
  191.8240  175.0740  137.8200 C   0  0  0  0  0  1  0  0  0  0  0  0
  191.7000  176.3750  138.5870 C   0  0  0  0  0  2  0  0  0  0  0  0
  1 30  1  6  0  0  0
  1  4  1  0  0  0  0
  2  4  1  0  0  0  0
  4  3  2  0  0  0  0
  5  2  1  0  0  0  0
  6  1  1  0  0  0  0
  7  6  2  0  0  0  0
  7  5  1  0  0  0  0
  8  7  1  0  0  0  0
  9 10  2  0  0  0  0
 10 11  1  0  0  0  0
 10  8  1  0  0  0  0
 11 14  1  6  0  0  0
 13 11  1  0  0  0  0
 13 12  1  0  0  0  0
 14 15  1  0  0  0  0
 17 18  1  0  0  0  0
 18 15  1  6  0  0  0
 18 16  1  0  0  0  0
 19 17  1  0  0  0  0
 20 19  1  0  0  0  0
 20 21  1  0  0  0  0
 21 22  1  1  0  0  0
 21 16  1  0  0  0  0
 23 28  1  1  0  0  0
 23 25  1  0  0  0  0
 24 22  1  0  0  0  0
 24 27  1  0  0  0  0
 25 27  1  0  0  0  0
 26 23  1  0  0  0  0
 26 24  1  0  0  0  0
 29 28  1  0  0  0  0
 32 36  1  1  0  0  0
 32 31  1  0  0  0  0
 33 30  1  1  0  0  0
 33 31  1  0  0  0  0
 34 33  1  0  0  0  0
 35 34  1  0  0  0  0
 35 32  1  0  0  0  0
 36 54  1  6  0  0  0
 36 37  1  0  0  0  0
 37 39  2  0  0  0  0
 37 40  1  0  0  0  0
 38 41  1  0  0  0  0
 39 42  1  0  0  0  0
 40 38  2  0  0  0  0
 41 43  1  0  0  0  0
 42 41  2  0  0  0  0
 43 45  1  0  0  0  0
 44 48  1  0  0  0  0
 45 44  1  0  0  0  0
 46 44  2  0  0  0  0
 48 47  1  1  0  0  0
 49 50  1  0  0  0  0
 50 48  1  0  0  0  0
 51 49  2  0  0  0  0
 53 49  1  0  0  0  0
 53 52  1  0  0  0  0
 55 56  1  0  0  0  0
 56 54  1  0  0  0  0
M  END
>  <MODEL>
2

>  <REMARK>
 VINA RESULT:      -7.0      2.929      5.279
  Name = 
  21 active torsions:
  status: ('A' for Active; 'I' for Inactive)
    1  A    between atoms: C_1  and  C_11
    2  A    between atoms: C_2  and  N_19
    3  A    between atoms: C_2  and  C_54
    4  A    between atoms: C_4  and  C_14
    5  A    between atoms: C_7  and  C_11
    6  A    between atoms: C_8  and  C_10
    7  A    between atoms: C_11  and  C_17
    8  A    between atoms: C_14  and  C_47
    9  A    between atoms: N_15  and  C_30
   10  A    between atoms: N_15  and  C_42
   11  A    between atoms: C_17  and  C_25
   12  A    between atoms: C_20  and  O_41
   13  A    between atoms: C_24  and  N_27
   14  A    between atoms: C_24  and  C_33
   15  A    between atoms: C_26  and  C_50
   16  A    between atoms: N_34  and  C_39
   17  A    between atoms: C_35  and  C_50
   18  A    between atoms: C_35  and  C_56
   19  A    between atoms: C_39  and  C_43
   20  A    between atoms: C_42  and  C_56
   21  A    between atoms: O_55  and  C_56
                            x       y       z     vdW  Elec       q    Type
                         _______ _______ _______ _____ _____    ______ ____

>  <TORSDO>
F 21

$$$$
=
 OpenBabel11042410573D

 56 60  0  0  1  0  0  0  0  0999 V2000
  186.1220  174.4080  136.1220 C   0  0  2  0  0  3  0  0  0  0  0  0
  184.2030  173.0650  137.0780 N   0  0  0  0  0  2  0  0  0  0  0  0
  186.3500  172.9040  137.9710 O   0  0  0  0  0  0  0  0  0  0  0  0
  185.5880  173.4210  137.1140 C   0  0  0  0  0  0  0  0  0  0  0  0
  183.3530  173.5610  135.9990 C   0  0  0  0  0  2  0  0  0  0  0  0
  185.0230  175.3410  135.6730 C   0  0  0  0  0  3  0  0  0  0  0  0
  183.7380  174.9700  135.6220 C   0  0  0  0  0  0  0  0  0  0  0  0
  182.7790  175.9030  135.1060 N   0  0  0  0  0  2  0  0  0  0  0  0
  180.4840  175.3810  134.6100 C   0  0  0  0  0  2  0  0  0  0  0  0
  181.3750  175.9680  135.4040 C   0  0  0  0  0  0  0  0  0  0  0  0
  180.9290  176.4360  136.7710 C   0  0  1  0  0  3  0  0  0  0  0  0
  181.0360  175.2140  138.7210 C   0  0  0  0  0  1  0  0  0  0  0  0
  180.3000  175.4260  137.5410 O   0  0  0  0  0  0  0  0  0  0  0  0
  182.0020  177.2110  137.5480 C   0  0  0  0  0  2  0  0  0  0  0  0
  182.0200  178.6700  137.1250 C   0  0  0  0  0  2  0  0  0  0  0  0
  182.7180  179.2520  139.4520 C   0  0  0  0  0  2  0  0  0  0  0  0
  180.2590  179.4250  138.7360 C   0  0  0  0  0  2  0  0  0  0  0  0
  181.7330  179.5650  138.3170 C   0  0  2  0  0  3  0  0  0  0  0  0
  180.0640  179.8090  140.1990 C   0  0  0  0  0  2  0  0  0  0  0  0
  180.8620  178.8880  141.1310 C   0  0  0  0  0  2  0  0  0  0  0  0
  182.1180  178.2910  140.4800 C   0  0  2  0  0  3  0  0  0  0  0  0
  183.1350  177.9580  141.5570 C   0  0  0  0  0  2  0  0  0  0  0  0
  183.8990  179.4200  144.7120 C   0  0  1  0  0  3  0  0  0  0  0  0
  183.4050  179.1280  142.3790 N   0  0  0  0  0  0  0  0  0  0  0  0
  185.1350  179.7470  143.9090 C   0  0  0  0  0  2  0  0  0  0  0  0
  182.9190  178.8260  143.7170 C   0  0  0  0  0  2  0  0  0  0  0  0
  184.8460  179.2420  142.5140 C   0  0  0  0  0  2  0  0  0  0  0  0
  184.2430  178.4040  145.7860 C   0  0  0  0  0  2  0  0  0  0  0  0
  185.4730  178.8440  146.5570 C   0  0  0  0  0  1  0  0  0  0  0  0
  186.7160  173.6710  134.9290 C   0  0  0  0  0  2  0  0  0  0  0  0
  188.5890  175.6770  135.0870 S   0  0  0  0  0  0  0  0  0  0  0  0
  190.2770  175.1810  135.5200 C   0  0  2  0  0  3  0  0  0  0  0  0
  188.2090  173.9260  134.8120 C   0  0  1  0  0  3  0  0  0  0  0  0
  188.9560  173.1110  135.8520 C   0  0  0  0  0  2  0  0  0  0  0  0
  190.1590  173.9050  136.3370 C   0  0  0  0  0  2  0  0  0  0  0  0
  190.9990  176.2910  136.3000 C   0  0  1  0  0  3  0  0  0  0  0  0
  190.1930  176.8630  137.4350 C   0  0  0  0  0  0  0  0  0  0  0  0
  188.4520  178.3220  138.2880 C   0  0  0  0  0  3  0  0  0  0  0  0
  190.4360  176.4030  138.7340 C   0  0  0  0  0  3  0  0  0  0  0  0
  189.1900  177.8190  137.2150 C   0  0  0  0  0  3  0  0  0  0  0  0
  188.6930  177.8540  139.5890 C   0  0  0  0  0  0  0  0  0  0  0  0
  189.6920  176.9020  139.8070 C   0  0  0  0  0  3  0  0  0  0  0  0
  187.9550  178.4150  140.7630 C   0  0  0  0  0  2  0  0  0  0  0  0
  188.5030  177.6650  143.1110 C   0  0  0  0  0  0  0  0  0  0  0  0
  188.7970  178.4490  141.9520 N   0  0  0  0  0  2  0  0  0  0  0  0
  187.4670  176.9490  143.1500 O   0  0  0  0  0  0  0  0  0  0  0  0
  190.3400  178.7270  144.1470 O   0  0  0  0  0  1  0  0  0  0  0  0
  189.4250  177.6830  144.2860 C   0  0  1  0  0  3  0  0  0  0  0  0
  189.0980  177.2850  146.7730 C   0  0  0  0  0  0  0  0  0  0  0  0
  188.6820  177.8520  145.5280 N   0  0  0  0  0  2  0  0  0  0  0  0
  190.1400  176.5770  146.8350 O   0  0  0  0  0  0  0  0  0  0  0  0
  188.8500  178.2070  148.9870 N   0  0  0  0  0  1  0  0  0  0  0  0
  188.3330  177.5150  147.9130 O   0  0  0  0  0  0  0  0  0  0  0  0
  192.4040  175.8880  136.7570 C   0  0  0  0  0  2  0  0  0  0  0  0
  194.5270  174.8980  135.9460 C   0  0  0  0  0  1  0  0  0  0  0  0
  193.4100  175.8690  135.6160 C   0  0  0  0  0  2  0  0  0  0  0  0
  1 30  1  6  0  0  0
  1  4  1  0  0  0  0
  2  4  1  0  0  0  0
  4  3  2  0  0  0  0
  5  2  1  0  0  0  0
  6  1  1  0  0  0  0
  7  6  2  0  0  0  0
  7  5  1  0  0  0  0
  8 10  1  0  0  0  0
  8  7  1  0  0  0  0
  9 10  2  0  0  0  0
 10 11  1  0  0  0  0
 11 13  1  0  0  0  0
 11 14  1  1  0  0  0
 13 12  1  0  0  0  0
 15 14  1  0  0  0  0
 16 21  1  0  0  0  0
 17 19  1  0  0  0  0
 18 15  1  6  0  0  0
 18 17  1  0  0  0  0
 18 16  1  0  0  0  0
 19 20  1  0  0  0  0
 21 20  1  0  0  0  0
 21 22  1  1  0  0  0
 22 24  1  0  0  0  0
 23 28  1  1  0  0  0
 24 27  1  0  0  0  0
 24 26  1  0  0  0  0
 25 23  1  0  0  0  0
 26 23  1  0  0  0  0
 27 25  1  0  0  0  0
 28 29  1  0  0  0  0
 31 32  1  0  0  0  0
 32 36  1  1  0  0  0
 32 35  1  0  0  0  0
 33 30  1  1  0  0  0
 33 31  1  0  0  0  0
 33 34  1  0  0  0  0
 34 35  1  0  0  0  0
 36 54  1  1  0  0  0
 36 37  1  0  0  0  0
 37 39  1  0  0  0  0
 38 41  2  0  0  0  0
 39 42  2  0  0  0  0
 40 37  2  0  0  0  0
 40 38  1  0  0  0  0
 41 42  1  0  0  0  0
 41 43  1  0  0  0  0
 43 45  1  0  0  0  0
 44 46  2  0  0  0  0
 44 48  1  0  0  0  0
 45 44  1  0  0  0  0
 48 47  1  6  0  0  0
 48 50  1  0  0  0  0
 49 51  2  0  0  0  0
 49 53  1  0  0  0  0
 50 49  1  0  0  0  0
 53 52  1  0  0  0  0
 56 55  1  0  0  0  0
 56 54  1  0  0  0  0
M  END
>  <MODEL>
3

>  <REMARK>
 VINA RESULT:      -6.9      2.949      8.184
  Name = 
  21 active torsions:
  status: ('A' for Active; 'I' for Inactive)
    1  A    between atoms: C_1  and  C_11
    2  A    between atoms: C_2  and  N_19
    3  A    between atoms: C_2  and  C_54
    4  A    between atoms: C_4  and  C_14
    5  A    between atoms: C_7  and  C_11
    6  A    between atoms: C_8  and  C_10
    7  A    between atoms: C_11  and  C_17
    8  A    between atoms: C_14  and  C_47
    9  A    between atoms: N_15  and  C_30
   10  A    between atoms: N_15  and  C_42
   11  A    between atoms: C_17  and  C_25
   12  A    between atoms: C_20  and  O_41
   13  A    between atoms: C_24  and  N_27
   14  A    between atoms: C_24  and  C_33
   15  A    between atoms: C_26  and  C_50
   16  A    between atoms: N_34  and  C_39
   17  A    between atoms: C_35  and  C_50
   18  A    between atoms: C_35  and  C_56
   19  A    between atoms: C_39  and  C_43
   20  A    between atoms: C_42  and  C_56
   21  A    between atoms: O_55  and  C_56
                            x       y       z     vdW  Elec       q    Type
                         _______ _______ _______ _____ _____    ______ ____

>  <TORSDO>
F 21

$$$$
=
 OpenBabel11042410573D

 56 60  0  0  1  0  0  0  0  0999 V2000
  189.8890  177.1960  141.8150 C   0  0  2  0  0  3  0  0  0  0  0  0
  190.2520  179.3130  143.1500 N   0  0  0  0  0  2  0  0  0  0  0  0
  188.7840  179.2670  141.3400 O   0  0  0  0  0  0  0  0  0  0  0  0
  189.5960  178.6430  142.0700 C   0  0  0  0  0  0  0  0  0  0  0  0
  191.2940  178.6250  143.9080 C   0  0  0  0  0  2  0  0  0  0  0  0
  190.3160  176.5170  143.0930 C   0  0  0  0  0  3  0  0  0  0  0  0
  190.9550  177.1640  144.0750 C   0  0  0  0  0  0  0  0  0  0  0  0
  191.3890  176.4130  145.2170 N   0  0  0  0  0  2  0  0  0  0  0  0
  191.7040  176.6320  147.5920 C   0  0  0  0  0  2  0  0  0  0  0  0
  190.8800  176.4880  146.5580 C   0  0  0  0  0  0  0  0  0  0  0  0
  189.4000  176.7130  146.7760 C   0  0  1  0  0  3  0  0  0  0  0  0
  188.1520  176.9430  148.6990 C   0  0  0  0  0  1  0  0  0  0  0  0
  188.8820  176.0360  147.9090 O   0  0  0  0  0  0  0  0  0  0  0  0
  188.9720  178.1840  146.7010 C   0  0  0  0  0  2  0  0  0  0  0  0
  188.1270  178.4340  145.4640 C   0  0  0  0  0  2  0  0  0  0  0  0
  186.1550  177.3550  144.3760 C   0  0  0  0  0  2  0  0  0  0  0  0
  185.8410  179.0480  146.2790 C   0  0  0  0  0  2  0  0  0  0  0  0
  186.7130  177.9290  145.6860 C   0  0  2  0  0  3  0  0  0  0  0  0
  184.3630  178.8110  145.9840 C   0  0  0  0  0  2  0  0  0  0  0  0
  184.0880  178.8100  144.4750 C   0  0  0  0  0  2  0  0  0  0  0  0
  185.2920  178.3750  143.6280 C   0  0  2  0  0  3  0  0  0  0  0  0
  184.8030  177.7970  142.3120 C   0  0  0  0  0  2  0  0  0  0  0  0
  184.7070  179.0980  139.0000 C   0  0  1  0  0  3  0  0  0  0  0  0
  184.4770  178.8660  141.3800 N   0  0  0  0  0  0  0  0  0  0  0  0
  183.2400  178.9990  139.3390 C   0  0  0  0  0  2  0  0  0  0  0  0
  185.4400  178.7860  140.2920 C   0  0  0  0  0  2  0  0  0  0  0  0
  183.1950  178.5430  140.7790 C   0  0  0  0  0  2  0  0  0  0  0  0
  185.0550  178.0760  137.9340 C   0  0  0  0  0  2  0  0  0  0  0  0
  183.8700  177.1690  137.6630 C   0  0  0  0  0  1  0  0  0  0  0  0
  190.9760  177.0690  140.7550 C   0  0  0  0  0  2  0  0  0  0  0  0
  191.1020  175.8960  138.2710 S   0  0  0  0  0  0  0  0  0  0  0  0
  189.6350  176.0620  137.2180 C   0  0  2  0  0  3  0  0  0  0  0  0
  190.3930  177.1650  139.3540 C   0  0  1  0  0  3  0  0  0  0  0  0
  188.8900  176.9580  139.4060 C   0  0  0  0  0  2  0  0  0  0  0  0
  188.4460  176.2200  138.1520 C   0  0  0  0  0  2  0  0  0  0  0  0
  189.4750  174.8440  136.2940 C   0  0  1  0  0  3  0  0  0  0  0  0
  188.0660  174.3220  136.2120 C   0  0  0  0  0  0  0  0  0  0  0  0
  186.3770  172.6590  136.7330 C   0  0  0  0  0  3  0  0  0  0  0  0
  187.1030  175.0800  135.5380 C   0  0  0  0  0  3  0  0  0  0  0  0
  187.6960  173.1120  136.8180 C   0  0  0  0  0  3  0  0  0  0  0  0
  185.4120  173.4260  136.0620 C   0  0  0  0  0  0  0  0  0  0  0  0
  185.7830  174.6300  135.4590 C   0  0  0  0  0  3  0  0  0  0  0  0
  184.0060  172.9390  135.9080 C   0  0  0  0  0  2  0  0  0  0  0  0
  181.8740  173.5400  137.1200 C   0  0  0  0  0  0  0  0  0  0  0  0
  183.0480  173.9210  136.3980 N   0  0  0  0  0  2  0  0  0  0  0  0
  181.6130  172.3220  137.3140 O   0  0  0  0  0  0  0  0  0  0  0  0
  180.1800  175.1060  136.6180 O   0  0  0  0  0  1  0  0  0  0  0  0
  180.9480  174.5810  137.6580 C   0  0  1  0  0  3  0  0  0  0  0  0
  179.8300  174.6480  139.9370 C   0  0  0  0  0  0  0  0  0  0  0  0
  180.0680  174.0210  138.6750 N   0  0  0  0  0  2  0  0  0  0  0  0
  180.4090  175.7300  140.2320 O   0  0  0  0  0  0  0  0  0  0  0  0
  179.4260  173.4410  141.9850 N   0  0  0  0  0  1  0  0  0  0  0  0
  178.9570  174.0480  140.8400 O   0  0  0  0  0  0  0  0  0  0  0  0
  190.0750  175.0650  134.9030 C   0  0  0  0  0  2  0  0  0  0  0  0
  191.3730  173.1120  135.7060 C   0  0  0  0  0  1  0  0  0  0  0  0
  191.2880  174.1850  134.6390 C   0  0  0  0  0  2  0  0  0  0  0  0
  1 30  1  6  0  0  0
  1  4  1  0  0  0  0
  1  6  1  0  0  0  0
  2  5  1  0  0  0  0
  3  4  2  0  0  0  0
  4  2  1  0  0  0  0
  5  7  1  0  0  0  0
  6  7  2  0  0  0  0
  7  8  1  0  0  0  0
  8 10  1  0  0  0  0
 10 11  1  0  0  0  0
 10  9  2  0  0  0  0
 11 14  1  1  0  0  0
 11 13  1  0  0  0  0
 13 12  1  0  0  0  0
 15 14  1  0  0  0  0
 16 18  1  0  0  0  0
 18 15  1  6  0  0  0
 18 17  1  0  0  0  0
 19 17  1  0  0  0  0
 20 19  1  0  0  0  0
 21 22  1  6  0  0  0
 21 16  1  0  0  0  0
 21 20  1  0  0  0  0
 23 28  1  6  0  0  0
 23 25  1  0  0  0  0
 23 26  1  0  0  0  0
 24 22  1  0  0  0  0
 25 27  1  0  0  0  0
 26 24  1  0  0  0  0
 27 24  1  0  0  0  0
 29 28  1  0  0  0  0
 31 33  1  0  0  0  0
 32 36  1  1  0  0  0
 32 35  1  0  0  0  0
 32 31  1  0  0  0  0
 33 34  1  0  0  0  0
 33 30  1  1  0  0  0
 35 34  1  0  0  0  0
 36 54  1  6  0  0  0
 37 36  1  0  0  0  0
 37 40  1  0  0  0  0
 38 40  2  0  0  0  0
 39 37  2  0  0  0  0
 41 38  1  0  0  0  0
 42 39  1  0  0  0  0
 42 41  2  0  0  0  0
 43 41  1  0  0  0  0
 43 45  1  0  0  0  0
 44 46  2  0  0  0  0
 44 48  1  0  0  0  0
 45 44  1  0  0  0  0
 48 47  1  6  0  0  0
 48 50  1  0  0  0  0
 49 51  2  0  0  0  0
 49 53  1  0  0  0  0
 50 49  1  0  0  0  0
 53 52  1  0  0  0  0
 56 54  1  0  0  0  0
 56 55  1  0  0  0  0
M  END
>  <MODEL>
4

>  <REMARK>
 VINA RESULT:      -6.8      2.622     10.360
  Name = 
  21 active torsions:
  status: ('A' for Active; 'I' for Inactive)
    1  A    between atoms: C_1  and  C_11
    2  A    between atoms: C_2  and  N_19
    3  A    between atoms: C_2  and  C_54
    4  A    between atoms: C_4  and  C_14
    5  A    between atoms: C_7  and  C_11
    6  A    between atoms: C_8  and  C_10
    7  A    between atoms: C_11  and  C_17
    8  A    between atoms: C_14  and  C_47
    9  A    between atoms: N_15  and  C_30
   10  A    between atoms: N_15  and  C_42
   11  A    between atoms: C_17  and  C_25
   12  A    between atoms: C_20  and  O_41
   13  A    between atoms: C_24  and  N_27
   14  A    between atoms: C_24  and  C_33
   15  A    between atoms: C_26  and  C_50
   16  A    between atoms: N_34  and  C_39
   17  A    between atoms: C_35  and  C_50
   18  A    between atoms: C_35  and  C_56
   19  A    between atoms: C_39  and  C_43
   20  A    between atoms: C_42  and  C_56
   21  A    between atoms: O_55  and  C_56
                            x       y       z     vdW  Elec       q    Type
                         _______ _______ _______ _____ _____    ______ ____

>  <TORSDO>
F 21

$$$$
=
 OpenBabel11042410573D

 56 60  0  0  1  0  0  0  0  0999 V2000
  186.9870  177.5010  146.4450 C   0  0  2  0  0  3  0  0  0  0  0  0
  188.9070  178.3940  147.8280 N   0  0  0  0  0  2  0  0  0  0  0  0
  186.7470  178.2820  148.6960 O   0  0  0  0  0  0  0  0  0  0  0  0
  187.5170  178.0760  147.7230 C   0  0  0  0  0  0  0  0  0  0  0  0
  189.7700  178.2830  146.6550 C   0  0  0  0  0  2  0  0  0  0  0  0
  188.0800  176.7570  145.7160 C   0  0  0  0  0  3  0  0  0  0  0  0
  189.3710  177.0980  145.8110 C   0  0  0  0  0  0  0  0  0  0  0  0
  190.3260  176.3790  145.0180 N   0  0  0  0  0  2  0  0  0  0  0  0
  190.2740  175.3330  142.8520 C   0  0  0  0  0  2  0  0  0  0  0  0
  190.4840  176.4190  143.5900 C   0  0  0  0  0  0  0  0  0  0  0  0
  190.5870  177.7580  142.8950 C   0  0  1  0  0  3  0  0  0  0  0  0
  191.2870  179.7060  143.9060 C   0  0  0  0  0  1  0  0  0  0  0  0
  191.7170  178.5180  143.2870 O   0  0  0  0  0  0  0  0  0  0  0  0
  190.4010  177.6890  141.3730 C   0  0  0  0  0  2  0  0  0  0  0  0
  189.0440  178.2410  140.9730 C   0  0  0  0  0  2  0  0  0  0  0  0
  189.3580  176.4170  139.2950 C   0  0  0  0  0  2  0  0  0  0  0  0
  189.0030  178.8460  138.5440 C   0  0  0  0  0  2  0  0  0  0  0  0
  188.6720  177.7600  139.5820 C   0  0  2  0  0  3  0  0  0  0  0  0
  189.2030  178.2410  137.1590 C   0  0  0  0  0  2  0  0  0  0  0  0
  190.3820  177.2600  137.1420 C   0  0  0  0  0  2  0  0  0  0  0  0
  190.6530  176.5970  138.4990 C   0  0  2  0  0  3  0  0  0  0  0  0
  191.3360  175.2590  138.2810 C   0  0  0  0  0  2  0  0  0  0  0  0
  194.6780  174.7140  137.1830 C   0  0  1  0  0  3  0  0  0  0  0  0
  192.3710  175.3770  137.2650 N   0  0  0  0  0  0  0  0  0  0  0  0
  193.8900  173.8530  136.2250 C   0  0  0  0  0  2  0  0  0  0  0  0
  193.6400  175.4970  137.9660 C   0  0  0  0  0  2  0  0  0  0  0  0
  192.4400  174.1070  136.5640 C   0  0  0  0  0  2  0  0  0  0  0  0
  195.4880  173.8310  138.1140 C   0  0  0  0  0  2  0  0  0  0  0  0
  195.6510  174.4970  139.4670 C   0  0  0  0  0  1  0  0  0  0  0  0
  186.4260  178.6150  145.5710 C   0  0  0  0  0  2  0  0  0  0  0  0
  183.9910  178.9870  144.3500 S   0  0  0  0  0  0  0  0  0  0  0  0
  183.8410  178.4040  142.6400 C   0  0  2  0  0  3  0  0  0  0  0  0
  185.5430  178.0580  144.4670 C   0  0  1  0  0  3  0  0  0  0  0  0
  186.2580  178.1600  143.1330 C   0  0  0  0  0  2  0  0  0  0  0  0
  185.2370  178.4490  142.0420 C   0  0  0  0  0  2  0  0  0  0  0  0
  182.8530  179.2700  141.8430 C   0  0  1  0  0  3  0  0  0  0  0  0
  182.6240  178.7940  140.4340 C   0  0  0  0  0  0  0  0  0  0  0  0
  182.5990  177.0430  138.7550 C   0  0  0  0  0  3  0  0  0  0  0  0
  182.1690  179.7090  139.4780 C   0  0  0  0  0  3  0  0  0  0  0  0
  182.8300  177.4560  140.0690 C   0  0  0  0  0  3  0  0  0  0  0  0
  182.1350  177.9610  137.8000 C   0  0  0  0  0  0  0  0  0  0  0  0
  181.9310  179.2940  138.1650 C   0  0  0  0  0  3  0  0  0  0  0  0
  181.9310  177.5590  136.3740 C   0  0  0  0  0  2  0  0  0  0  0  0
  183.1080  175.4370  135.6790 C   0  0  0  0  0  0  0  0  0  0  0  0
  181.9700  176.1110  136.2190 N   0  0  0  0  0  2  0  0  0  0  0  0
  184.1050  176.0930  135.2740 O   0  0  0  0  0  0  0  0  0  0  0  0
  184.3800  173.4730  136.0010 O   0  0  0  0  0  1  0  0  0  0  0  0
  183.1310  173.9460  135.5930 C   0  0  1  0  0  3  0  0  0  0  0  0
  181.7630  171.9700  136.4110 C   0  0  0  0  0  0  0  0  0  0  0  0
  182.0940  173.3600  136.4320 N   0  0  0  0  0  2  0  0  0  0  0  0
  182.3580  171.1830  135.6250 O   0  0  0  0  0  0  0  0  0  0  0  0
  179.9890  172.3630  137.9970 N   0  0  0  0  0  1  0  0  0  0  0  0
  180.7680  171.4960  137.2630 O   0  0  0  0  0  0  0  0  0  0  0  0
  181.5300  179.5020  142.5800 C   0  0  0  0  0  2  0  0  0  0  0  0
  179.9620  178.1790  143.9710 C   0  0  0  0  0  1  0  0  0  0  0  0
  180.6550  178.2580  142.6250 C   0  0  0  0  0  2  0  0  0  0  0  0
  1 30  1  6  0  0  0
  1  4  1  0  0  0  0
  4  2  1  0  0  0  0
  4  3  2  0  0  0  0
  5  2  1  0  0  0  0
  6  7  2  0  0  0  0
  6  1  1  0  0  0  0
  7  5  1  0  0  0  0
  8  7  1  0  0  0  0
  9 10  2  0  0  0  0
 10  8  1  0  0  0  0
 11 14  1  6  0  0  0
 11 13  1  0  0  0  0
 11 10  1  0  0  0  0
 13 12  1  0  0  0  0
 15 14  1  0  0  0  0
 16 18  1  0  0  0  0
 17 18  1  0  0  0  0
 18 15  1  1  0  0  0
 19 17  1  0  0  0  0
 20 19  1  0  0  0  0
 20 21  1  0  0  0  0
 21 22  1  6  0  0  0
 21 16  1  0  0  0  0
 23 26  1  0  0  0  0
 23 28  1  1  0  0  0
 24 26  1  0  0  0  0
 24 22  1  0  0  0  0
 25 27  1  0  0  0  0
 25 23  1  0  0  0  0
 27 24  1  0  0  0  0
 28 29  1  0  0  0  0
 31 33  1  0  0  0  0
 32 36  1  6  0  0  0
 32 31  1  0  0  0  0
 33 30  1  1  0  0  0
 34 33  1  0  0  0  0
 35 32  1  0  0  0  0
 35 34  1  0  0  0  0
 36 54  1  1  0  0  0
 37 36  1  0  0  0  0
 38 40  2  0  0  0  0
 39 37  2  0  0  0  0
 40 37  1  0  0  0  0
 41 42  2  0  0  0  0
 41 38  1  0  0  0  0
 42 39  1  0  0  0  0
 43 41  1  0  0  0  0
 44 45  1  0  0  0  0
 45 43  1  0  0  0  0
 46 44  2  0  0  0  0
 48 44  1  0  0  0  0
 48 47  1  1  0  0  0
 48 50  1  0  0  0  0
 49 50  1  0  0  0  0
 49 53  1  0  0  0  0
 51 49  2  0  0  0  0
 53 52  1  0  0  0  0
 54 56  1  0  0  0  0
 56 55  1  0  0  0  0
M  END
>  <MODEL>
5

>  <REMARK>
 VINA RESULT:      -6.2      2.988      8.985
  Name = 
  21 active torsions:
  status: ('A' for Active; 'I' for Inactive)
    1  A    between atoms: C_1  and  C_11
    2  A    between atoms: C_2  and  N_19
    3  A    between atoms: C_2  and  C_54
    4  A    between atoms: C_4  and  C_14
    5  A    between atoms: C_7  and  C_11
    6  A    between atoms: C_8  and  C_10
    7  A    between atoms: C_11  and  C_17
    8  A    between atoms: C_14  and  C_47
    9  A    between atoms: N_15  and  C_30
   10  A    between atoms: N_15  and  C_42
   11  A    between atoms: C_17  and  C_25
   12  A    between atoms: C_20  and  O_41
   13  A    between atoms: C_24  and  N_27
   14  A    between atoms: C_24  and  C_33
   15  A    between atoms: C_26  and  C_50
   16  A    between atoms: N_34  and  C_39
   17  A    between atoms: C_35  and  C_50
   18  A    between atoms: C_35  and  C_56
   19  A    between atoms: C_39  and  C_43
   20  A    between atoms: C_42  and  C_56
   21  A    between atoms: O_55  and  C_56
                            x       y       z     vdW  Elec       q    Type
                         _______ _______ _______ _____ _____    ______ ____

>  <TORSDO>
F 21

$$$$
=
 OpenBabel11042410573D

 56 60  0  0  1  0  0  0  0  0999 V2000
  186.9540  177.4780  145.8800 C   0  0  2  0  0  3  0  0  0  0  0  0
  189.1660  178.4080  146.6820 N   0  0  0  0  0  2  0  0  0  0  0  0
  187.3340  178.2500  148.1150 O   0  0  0  0  0  0  0  0  0  0  0  0
  187.8070  178.0610  146.9650 C   0  0  0  0  0  0  0  0  0  0  0  0
  189.6700  178.3150  145.3150 C   0  0  0  0  0  2  0  0  0  0  0  0
  187.8150  176.7580  144.8720 C   0  0  0  0  0  3  0  0  0  0  0  0
  189.0750  177.1240  144.6070 C   0  0  0  0  0  0  0  0  0  0  0  0
  189.7860  176.4260  143.5740 N   0  0  0  0  0  2  0  0  0  0  0  0
  191.6550  177.4750  142.4820 C   0  0  0  0  0  2  0  0  0  0  0  0
  190.4180  176.9900  142.4140 C   0  0  0  0  0  0  0  0  0  0  0  0
  189.8060  176.7570  141.0510 C   0  0  1  0  0  3  0  0  0  0  0  0
  188.5440  178.6550  140.7150 C   0  0  0  0  0  1  0  0  0  0  0  0
  188.4890  177.2650  140.9250 O   0  0  0  0  0  0  0  0  0  0  0  0
  190.7190  177.1430  139.8800 C   0  0  0  0  0  2  0  0  0  0  0  0
  190.8290  175.9990  138.8870 C   0  0  0  0  0  2  0  0  0  0  0  0
  190.3900  176.8510  136.5800 C   0  0  0  0  0  2  0  0  0  0  0  0
  192.4650  175.4260  137.0800 C   0  0  0  0  0  2  0  0  0  0  0  0
  191.4750  176.4820  137.6010 C   0  0  2  0  0  3  0  0  0  0  0  0
  192.6850  175.5710  135.5780 C   0  0  0  0  0  2  0  0  0  0  0  0
  191.3820  175.3550  134.7990 C   0  0  0  0  0  2  0  0  0  0  0  0
  190.1200  175.7110  135.5970 C   0  0  2  0  0  3  0  0  0  0  0  0
  189.0040  176.0850  134.6380 C   0  0  0  0  0  2  0  0  0  0  0  0
  186.3930  176.2580  137.0520 C   0  0  1  0  0  3  0  0  0  0  0  0
  187.7200  175.6300  135.1510 N   0  0  0  0  0  0  0  0  0  0  0  0
  185.6880  176.7100  135.7970 C   0  0  0  0  0  2  0  0  0  0  0  0
  187.7630  175.7870  136.5960 C   0  0  0  0  0  2  0  0  0  0  0  0
  186.7110  176.5690  134.6940 C   0  0  0  0  0  2  0  0  0  0  0  0
  186.5280  177.4260  138.0110 C   0  0  0  0  0  2  0  0  0  0  0  0
  186.7630  178.7150  137.2460 C   0  0  0  0  0  1  0  0  0  0  0  0
  186.1510  178.5820  145.2050 C   0  0  0  0  0  2  0  0  0  0  0  0
  183.7240  179.0490  144.0030 S   0  0  0  0  0  0  0  0  0  0  0  0
  183.4910  178.3560  142.3440 C   0  0  2  0  0  3  0  0  0  0  0  0
  185.2040  178.0150  144.1620 C   0  0  1  0  0  3  0  0  0  0  0  0
  185.8940  177.9650  142.8110 C   0  0  0  0  0  2  0  0  0  0  0  0
  184.8730  178.2510  141.7200 C   0  0  0  0  0  2  0  0  0  0  0  0
  182.5520  179.2340  141.5020 C   0  0  1  0  0  3  0  0  0  0  0  0
  182.3940  178.7690  140.0800 C   0  0  0  0  0  0  0  0  0  0  0  0
  182.7870  177.1560  138.3100 C   0  0  0  0  0  3  0  0  0  0  0  0
  181.6380  179.5460  139.1950 C   0  0  0  0  0  3  0  0  0  0  0  0
  182.9610  177.5660  139.6340 C   0  0  0  0  0  3  0  0  0  0  0  0
  182.0230  177.9340  137.4270 C   0  0  0  0  0  0  0  0  0  0  0  0
  181.4590  179.1320  137.8730 C   0  0  0  0  0  3  0  0  0  0  0  0
  181.8660  177.5480  135.9900 C   0  0  0  0  0  2  0  0  0  0  0  0
  180.5520  175.4010  136.1860 C   0  0  0  0  0  0  0  0  0  0  0  0
  181.7480  176.1040  135.8390 N   0  0  0  0  0  2  0  0  0  0  0  0
  179.5710  176.0170  136.6810 O   0  0  0  0  0  0  0  0  0  0  0  0
  180.3120  173.6730  134.5940 O   0  0  0  0  0  1  0  0  0  0  0  0
  180.4510  173.9280  135.9590 C   0  0  1  0  0  3  0  0  0  0  0  0
  181.8400  171.8330  136.3220 C   0  0  0  0  0  0  0  0  0  0  0  0
  181.6340  173.2410  136.4610 N   0  0  0  0  0  2  0  0  0  0  0  0
  180.9680  171.1120  135.7640 O   0  0  0  0  0  0  0  0  0  0  0  0
  184.0780  172.0530  137.1930 N   0  0  0  0  0  1  0  0  0  0  0  0
  183.0100  171.2660  136.8180 O   0  0  0  0  0  0  0  0  0  0  0  0
  181.1950  179.4730  142.1700 C   0  0  0  0  0  2  0  0  0  0  0  0
  179.3010  177.9530  141.6740 C   0  0  0  0  0  1  0  0  0  0  0  0
  180.5010  178.1800  142.5710 C   0  0  0  0  0  2  0  0  0  0  0  0
  1 30  1  6  0  0  0
  1  4  1  0  0  0  0
  2  4  1  0  0  0  0
  4  3  2  0  0  0  0
  5  2  1  0  0  0  0
  6  1  1  0  0  0  0
  7  6  2  0  0  0  0
  7  5  1  0  0  0  0
  8  7  1  0  0  0  0
 10  9  2  0  0  0  0
 10  8  1  0  0  0  0
 11 14  1  6  0  0  0
 11 10  1  0  0  0  0
 12 13  1  0  0  0  0
 13 11  1  0  0  0  0
 15 14  1  0  0  0  0
 16 18  1  0  0  0  0
 17 18  1  0  0  0  0
 18 15  1  1  0  0  0
 19 17  1  0  0  0  0
 20 19  1  0  0  0  0
 20 21  1  0  0  0  0
 21 22  1  6  0  0  0
 21 16  1  0  0  0  0
 22 24  1  0  0  0  0
 23 28  1  1  0  0  0
 24 26  1  0  0  0  0
 25 23  1  0  0  0  0
 26 23  1  0  0  0  0
 27 24  1  0  0  0  0
 27 25  1  0  0  0  0
 29 28  1  0  0  0  0
 31 33  1  0  0  0  0
 32 36  1  6  0  0  0
 32 31  1  0  0  0  0
 33 30  1  1  0  0  0
 34 33  1  0  0  0  0
 35 32  1  0  0  0  0
 35 34  1  0  0  0  0
 36 54  1  1  0  0  0
 37 36  1  0  0  0  0
 38 40  2  0  0  0  0
 39 37  2  0  0  0  0
 40 37  1  0  0  0  0
 41 42  2  0  0  0  0
 41 38  1  0  0  0  0
 42 39  1  0  0  0  0
 43 41  1  0  0  0  0
 44 46  2  0  0  0  0
 45 43  1  0  0  0  0
 45 44  1  0  0  0  0
 48 47  1  6  0  0  0
 48 44  1  0  0  0  0
 48 50  1  0  0  0  0
 49 50  1  0  0  0  0
 49 53  1  0  0  0  0
 51 49  2  0  0  0  0
 53 52  1  0  0  0  0
 54 56  1  0  0  0  0
 55 56  1  0  0  0  0
M  END
>  <MODEL>
6

>  <REMARK>
 VINA RESULT:      -6.1      2.526      8.564
  Name = 
  21 active torsions:
  status: ('A' for Active; 'I' for Inactive)
    1  A    between atoms: C_1  and  C_11
    2  A    between atoms: C_2  and  N_19
    3  A    between atoms: C_2  and  C_54
    4  A    between atoms: C_4  and  C_14
    5  A    between atoms: C_7  and  C_11
    6  A    between atoms: C_8  and  C_10
    7  A    between atoms: C_11  and  C_17
    8  A    between atoms: C_14  and  C_47
    9  A    between atoms: N_15  and  C_30
   10  A    between atoms: N_15  and  C_42
   11  A    between atoms: C_17  and  C_25
   12  A    between atoms: C_20  and  O_41
   13  A    between atoms: C_24  and  N_27
   14  A    between atoms: C_24  and  C_33
   15  A    between atoms: C_26  and  C_50
   16  A    between atoms: N_34  and  C_39
   17  A    between atoms: C_35  and  C_50
   18  A    between atoms: C_35  and  C_56
   19  A    between atoms: C_39  and  C_43
   20  A    between atoms: C_42  and  C_56
   21  A    between atoms: O_55  and  C_56
                            x       y       z     vdW  Elec       q    Type
                         _______ _______ _______ _____ _____    ______ ____

>  <TORSDO>
F 21

$$$$
=
 OpenBabel11042410573D

 56 60  0  0  1  0  0  0  0  0999 V2000
  181.4000  177.5330  139.2680 C   0  0  2  0  0  3  0  0  0  0  0  0
  180.1930  178.4630  137.2490 N   0  0  0  0  0  2  0  0  0  0  0  0
  181.9650  179.6170  138.2310 O   0  0  0  0  0  0  0  0  0  0  0  0
  181.2210  178.6020  138.2340 C   0  0  0  0  0  0  0  0  0  0  0  0
  179.2460  177.3550  137.3370 C   0  0  0  0  0  2  0  0  0  0  0  0
  180.9170  176.2070  138.7350 C   0  0  0  0  0  3  0  0  0  0  0  0
  179.9310  176.1070  137.8340 C   0  0  0  0  0  0  0  0  0  0  0  0
  179.4900  174.7970  137.4490 N   0  0  0  0  0  2  0  0  0  0  0  0
  179.3360  174.3600  135.0890 C   0  0  0  0  0  2  0  0  0  0  0  0
  179.8620  174.0610  136.2730 C   0  0  0  0  0  0  0  0  0  0  0  0
  181.0700  173.1530  136.3200 C   0  0  1  0  0  3  0  0  0  0  0  0
  181.6720  171.1250  135.4080 C   0  0  0  0  0  1  0  0  0  0  0  0
  180.7490  171.7740  136.2480 O   0  0  0  0  0  0  0  0  0  0  0  0
  182.1990  173.5630  135.3650 C   0  0  0  0  0  2  0  0  0  0  0  0
  182.7640  174.9180  135.7530 C   0  0  0  0  0  2  0  0  0  0  0  0
  185.1100  175.3740  136.4790 C   0  0  0  0  0  2  0  0  0  0  0  0
  183.8640  173.2860  137.3010 C   0  0  0  0  0  2  0  0  0  0  0  0
  183.7620  174.7640  136.8870 C   0  0  2  0  0  3  0  0  0  0  0  0
  185.2000  172.9940  137.9760 C   0  0  0  0  0  2  0  0  0  0  0  0
  186.3760  173.2540  137.0260 C   0  0  0  0  0  2  0  0  0  0  0  0
  186.0810  174.3140  135.9550 C   0  0  2  0  0  3  0  0  0  0  0  0
  187.3820  174.9560  135.5080 C   0  0  0  0  0  2  0  0  0  0  0  0
  190.8260  175.0010  136.4080 C   0  0  1  0  0  3  0  0  0  0  0  0
  188.4520  174.6360  136.4400 N   0  0  0  0  0  0  0  0  0  0  0  0
  190.2140  175.8800  137.4710 C   0  0  0  0  0  2  0  0  0  0  0  0
  189.6510  174.4120  135.6480 C   0  0  0  0  0  2  0  0  0  0  0  0
  188.7250  175.8330  137.2160 C   0  0  0  0  0  2  0  0  0  0  0  0
  191.6860  175.8420  135.4820 C   0  0  0  0  0  2  0  0  0  0  0  0
  193.0000  175.1410  135.1960 C   0  0  0  0  0  1  0  0  0  0  0  0
  180.6390  177.9080  140.5340 C   0  0  0  0  0  2  0  0  0  0  0  0
  183.2200  178.2050  141.4340 S   0  0  0  0  0  0  0  0  0  0  0  0
  183.4370  178.4540  143.2160 C   0  0  2  0  0  3  0  0  0  0  0  0
  181.5050  177.7270  141.7700 C   0  0  1  0  0  3  0  0  0  0  0  0
  180.9830  178.5970  142.8980 C   0  0  0  0  0  2  0  0  0  0  0  0
  182.1580  179.1010  143.7230 C   0  0  0  0  0  2  0  0  0  0  0  0
  184.6690  179.3240  143.5090 C   0  0  1  0  0  3  0  0  0  0  0  0
  185.4750  178.8610  144.6920 C   0  0  0  0  0  0  0  0  0  0  0  0
  187.1080  177.3820  145.7090 C   0  0  0  0  0  3  0  0  0  0  0  0
  185.3490  179.5450  145.9060 C   0  0  0  0  0  3  0  0  0  0  0  0
  186.3660  177.7820  144.5950 C   0  0  0  0  0  3  0  0  0  0  0  0
  186.9850  178.0750  146.9230 C   0  0  0  0  0  0  0  0  0  0  0  0
  186.0970  179.1490  147.0180 C   0  0  0  0  0  3  0  0  0  0  0  0
  187.7260  177.6350  148.1450 C   0  0  0  0  0  2  0  0  0  0  0  0
  190.0660  176.8700  147.5870 C   0  0  0  0  0  0  0  0  0  0  0  0
  189.1550  177.8840  148.0180 N   0  0  0  0  0  2  0  0  0  0  0  0
  189.6530  175.7040  147.3470 O   0  0  0  0  0  0  0  0  0  0  0  0
  192.2680  176.4470  148.3280 O   0  0  0  0  0  1  0  0  0  0  0  0
  191.5160  177.1830  147.4110 C   0  0  1  0  0  3  0  0  0  0  0  0
  191.4040  177.4810  144.8920 C   0  0  0  0  0  0  0  0  0  0  0  0
  191.9570  176.8680  146.0590 N   0  0  0  0  0  2  0  0  0  0  0  0
  190.4710  178.3240  144.9940 O   0  0  0  0  0  0  0  0  0  0  0  0
  191.6350  177.8990  142.5290 N   0  0  0  0  0  1  0  0  0  0  0  0
  191.9020  177.1300  143.6400 O   0  0  0  0  0  0  0  0  0  0  0  0
  185.5530  179.5470  142.2790 C   0  0  0  0  0  2  0  0  0  0  0  0
  187.4640  178.6240  140.9980 C   0  0  0  0  0  1  0  0  0  0  0  0
  186.2280  178.2700  141.8010 C   0  0  0  0  0  2  0  0  0  0  0  0
  1 30  1  1  0  0  0
  2  5  1  0  0  0  0
  2  4  1  0  0  0  0
  3  4  2  0  0  0  0
  4  1  1  0  0  0  0
  5  7  1  0  0  0  0
  6  1  1  0  0  0  0
  7  6  2  0  0  0  0
  8  7  1  0  0  0  0
  9 10  2  0  0  0  0
 10 11  1  0  0  0  0
 10  8  1  0  0  0  0
 11 14  1  6  0  0  0
 12 13  1  0  0  0  0
 13 11  1  0  0  0  0
 14 15  1  0  0  0  0
 16 18  1  0  0  0  0
 17 19  1  0  0  0  0
 18 15  1  6  0  0  0
 18 17  1  0  0  0  0
 20 19  1  0  0  0  0
 21 22  1  1  0  0  0
 21 16  1  0  0  0  0
 21 20  1  0  0  0  0
 22 24  1  0  0  0  0
 23 28  1  6  0  0  0
 23 25  1  0  0  0  0
 24 27  1  0  0  0  0
 26 23  1  0  0  0  0
 26 24  1  0  0  0  0
 27 25  1  0  0  0  0
 29 28  1  0  0  0  0
 31 33  1  0  0  0  0
 31 32  1  0  0  0  0
 32 36  1  6  0  0  0
 32 35  1  0  0  0  0
 33 30  1  6  0  0  0
 33 34  1  0  0  0  0
 34 35  1  0  0  0  0
 36 54  1  6  0  0  0
 36 37  1  0  0  0  0
 37 39  1  0  0  0  0
 38 41  2  0  0  0  0
 39 42  2  0  0  0  0
 40 37  2  0  0  0  0
 40 38  1  0  0  0  0
 41 42  1  0  0  0  0
 41 43  1  0  0  0  0
 44 45  1  0  0  0  0
 45 43  1  0  0  0  0
 46 44  2  0  0  0  0
 48 44  1  0  0  0  0
 48 47  1  1  0  0  0
 49 51  2  0  0  0  0
 49 50  1  0  0  0  0
 50 48  1  0  0  0  0
 52 53  1  0  0  0  0
 53 49  1  0  0  0  0
 55 56  1  0  0  0  0
 56 54  1  0  0  0  0
M  END
>  <MODEL>
7

>  <REMARK>
 VINA RESULT:      -6.0      2.624      4.920
  Name = 
  21 active torsions:
  status: ('A' for Active; 'I' for Inactive)
    1  A    between atoms: C_1  and  C_11
    2  A    between atoms: C_2  and  N_19
    3  A    between atoms: C_2  and  C_54
    4  A    between atoms: C_4  and  C_14
    5  A    between atoms: C_7  and  C_11
    6  A    between atoms: C_8  and  C_10
    7  A    between atoms: C_11  and  C_17
    8  A    between atoms: C_14  and  C_47
    9  A    between atoms: N_15  and  C_30
   10  A    between atoms: N_15  and  C_42
   11  A    between atoms: C_17  and  C_25
   12  A    between atoms: C_20  and  O_41
   13  A    between atoms: C_24  and  N_27
   14  A    between atoms: C_24  and  C_33
   15  A    between atoms: C_26  and  C_50
   16  A    between atoms: N_34  and  C_39
   17  A    between atoms: C_35  and  C_50
   18  A    between atoms: C_35  and  C_56
   19  A    between atoms: C_39  and  C_43
   20  A    between atoms: C_42  and  C_56
   21  A    between atoms: O_55  and  C_56
                            x       y       z     vdW  Elec       q    Type
                         _______ _______ _______ _____ _____    ______ ____

>  <TORSDO>
F 21

$$$$
=
 OpenBabel11042410573D

 56 60  0  0  1  0  0  0  0  0999 V2000
  184.4290  178.0090  142.9620 C   0  0  2  0  0  3  0  0  0  0  0  0
  184.3770  179.0240  145.2790 N   0  0  0  0  0  2  0  0  0  0  0  0
  182.4230  178.7510  144.0390 O   0  0  0  0  0  0  0  0  0  0  0  0
  183.6700  178.6090  144.1070 C   0  0  0  0  0  0  0  0  0  0  0  0
  185.8370  178.9840  145.3000 C   0  0  0  0  0  2  0  0  0  0  0  0
  185.6920  177.3520  143.4620 C   0  0  0  0  0  3  0  0  0  0  0  0
  186.3490  177.7810  144.5460 C   0  0  0  0  0  0  0  0  0  0  0  0
  187.5830  177.1390  144.8950 N   0  0  0  0  0  2  0  0  0  0  0  0
  189.4740  177.8830  146.1820 C   0  0  0  0  0  2  0  0  0  0  0  0
  188.8830  177.7410  144.9990 C   0  0  0  0  0  0  0  0  0  0  0  0
  189.7100  177.9360  143.7480 C   0  0  1  0  0  3  0  0  0  0  0  0
  191.5870  176.6800  143.2940 C   0  0  0  0  0  1  0  0  0  0  0  0
  191.1060  177.8190  143.9650 O   0  0  0  0  0  0  0  0  0  0  0  0
  189.2160  177.1320  142.5390 C   0  0  0  0  0  2  0  0  0  0  0  0
  189.7750  177.7060  141.2490 C   0  0  0  0  0  2  0  0  0  0  0  0
  189.7030  176.3130  139.1760 C   0  0  0  0  0  2  0  0  0  0  0  0
  188.4040  178.5220  139.3200 C   0  0  0  0  0  2  0  0  0  0  0  0
  188.9170  177.2810  140.0710 C   0  0  2  0  0  3  0  0  0  0  0  0
  188.0580  178.1860  137.8730 C   0  0  0  0  0  2  0  0  0  0  0  0
  189.2910  177.7000  137.1020 C   0  0  0  0  0  2  0  0  0  0  0  0
  190.3490  177.0300  137.9890 C   0  0  2  0  0  3  0  0  0  0  0  0
  191.1650  176.0570  137.1570 C   0  0  0  0  0  2  0  0  0  0  0  0
  194.5190  175.1780  137.9640 C   0  0  1  0  0  3  0  0  0  0  0  0
  192.5800  176.3900  137.2290 N   0  0  0  0  0  0  0  0  0  0  0  0
  194.5930  175.3510  136.4670 C   0  0  0  0  0  2  0  0  0  0  0  0
  193.1310  175.6530  138.3550 C   0  0  0  0  0  2  0  0  0  0  0  0
  193.2190  175.8260  136.0540 C   0  0  0  0  0  2  0  0  0  0  0  0
  194.6960  173.7130  138.3180 C   0  0  0  0  0  2  0  0  0  0  0  0
  196.1650  173.3370  138.3010 C   0  0  0  0  0  1  0  0  0  0  0  0
  184.7580  179.0900  141.9400 C   0  0  0  0  0  2  0  0  0  0  0  0
  183.1000  177.4550  140.4790 S   0  0  0  0  0  0  0  0  0  0  0  0
  182.9030  177.8560  138.7220 C   0  0  2  0  0  3  0  0  0  0  0  0
  184.5000  178.6040  140.5230 C   0  0  1  0  0  3  0  0  0  0  0  0
  184.1740  179.7830  139.6240 C   0  0  0  0  0  2  0  0  0  0  0  0
  183.1490  179.3500  138.5870 C   0  0  0  0  0  2  0  0  0  0  0  0
  181.5080  177.4610  138.2150 C   0  0  1  0  0  3  0  0  0  0  0  0
  181.4820  176.1690  137.4440 C   0  0  0  0  0  0  0  0  0  0  0  0
  181.5560  174.9310  135.3580 C   0  0  0  0  0  3  0  0  0  0  0  0
  181.3950  174.9630  138.1490 C   0  0  0  0  0  3  0  0  0  0  0  0
  181.5720  176.1480  136.0440 C   0  0  0  0  0  3  0  0  0  0  0  0
  181.4750  173.7240  136.0680 C   0  0  0  0  0  0  0  0  0  0  0  0
  181.3860  173.7470  137.4620 C   0  0  0  0  0  3  0  0  0  0  0  0
  181.4010  172.4100  135.3570 C   0  0  0  0  0  2  0  0  0  0  0  0
  183.4490  171.1030  136.0440 C   0  0  0  0  0  0  0  0  0  0  0  0
  182.7300  171.8790  135.0820 N   0  0  0  0  0  2  0  0  0  0  0  0
  182.9620  170.8940  137.1870 O   0  0  0  0  0  0  0  0  0  0  0  0
  184.6490  169.6420  134.6290 O   0  0  0  0  0  1  0  0  0  0  0  0
  184.7830  170.5260  135.7010 C   0  0  1  0  0  3  0  0  0  0  0  0
  186.2020  172.5510  136.2780 C   0  0  0  0  0  0  0  0  0  0  0  0
  185.7300  171.5770  135.3460 N   0  0  0  0  0  2  0  0  0  0  0  0
  185.7860  172.5510  137.4700 O   0  0  0  0  0  0  0  0  0  0  0  0
  187.0310  174.0720  134.6000 N   0  0  0  0  0  1  0  0  0  0  0  0
  187.1210  173.5070  135.8540 O   0  0  0  0  0  0  0  0  0  0  0  0
  180.4420  177.4800  139.3140 C   0  0  0  0  0  2  0  0  0  0  0  0
  179.8170  179.8110  139.8830 C   0  0  0  0  0  1  0  0  0  0  0  0
  179.4050  178.5740  139.1090 C   0  0  0  0  0  2  0  0  0  0  0  0
  1 30  1  6  0  0  0
  1  6  1  0  0  0  0
  1  4  1  0  0  0  0
  2  5  1  0  0  0  0
  3  4  2  0  0  0  0
  4  2  1  0  0  0  0
  6  7  2  0  0  0  0
  7  8  1  0  0  0  0
  7  5  1  0  0  0  0
  8 10  1  0  0  0  0
 10  9  2  0  0  0  0
 11 14  1  6  0  0  0
 11 13  1  0  0  0  0
 11 10  1  0  0  0  0
 12 13  1  0  0  0  0
 15 14  1  0  0  0  0
 16 18  1  0  0  0  0
 17 18  1  0  0  0  0
 18 15  1  1  0  0  0
 19 17  1  0  0  0  0
 20 19  1  0  0  0  0
 20 21  1  0  0  0  0
 21 22  1  6  0  0  0
 21 16  1  0  0  0  0
 22 24  1  0  0  0  0
 23 28  1  6  0  0  0
 23 26  1  0  0  0  0
 24 26  1  0  0  0  0
 25 23  1  0  0  0  0
 27 25  1  0  0  0  0
 27 24  1  0  0  0  0
 29 28  1  0  0  0  0
 31 33  1  0  0  0  0
 32 36  1  1  0  0  0
 32 31  1  0  0  0  0
 33 30  1  1  0  0  0
 34 33  1  0  0  0  0
 35 32  1  0  0  0  0
 35 34  1  0  0  0  0
 36 54  1  1  0  0  0
 37 39  1  0  0  0  0
 37 36  1  0  0  0  0
 38 40  1  0  0  0  0
 38 41  2  0  0  0  0
 40 37  2  0  0  0  0
 41 42  1  0  0  0  0
 42 39  2  0  0  0  0
 43 41  1  0  0  0  0
 44 46  2  0  0  0  0
 45 43  1  0  0  0  0
 45 44  1  0  0  0  0
 48 47  1  6  0  0  0
 48 44  1  0  0  0  0
 49 51  2  0  0  0  0
 50 48  1  0  0  0  0
 50 49  1  0  0  0  0
 52 53  1  0  0  0  0
 53 49  1  0  0  0  0
 56 54  1  0  0  0  0
 56 55  1  0  0  0  0
M  END
>  <MODEL>
8

>  <REMARK>
 VINA RESULT:      -6.0      2.846      9.027
  Name = 
  21 active torsions:
  status: ('A' for Active; 'I' for Inactive)
    1  A    between atoms: C_1  and  C_11
    2  A    between atoms: C_2  and  N_19
    3  A    between atoms: C_2  and  C_54
    4  A    between atoms: C_4  and  C_14
    5  A    between atoms: C_7  and  C_11
    6  A    between atoms: C_8  and  C_10
    7  A    between atoms: C_11  and  C_17
    8  A    between atoms: C_14  and  C_47
    9  A    between atoms: N_15  and  C_30
   10  A    between atoms: N_15  and  C_42
   11  A    between atoms: C_17  and  C_25
   12  A    between atoms: C_20  and  O_41
   13  A    between atoms: C_24  and  N_27
   14  A    between atoms: C_24  and  C_33
   15  A    between atoms: C_26  and  C_50
   16  A    between atoms: N_34  and  C_39
   17  A    between atoms: C_35  and  C_50
   18  A    between atoms: C_35  and  C_56
   19  A    between atoms: C_39  and  C_43
   20  A    between atoms: C_42  and  C_56
   21  A    between atoms: O_55  and  C_56
                            x       y       z     vdW  Elec       q    Type
                         _______ _______ _______ _____ _____    ______ ____

>  <TORSDO>
F 21

$$$$
=
 OpenBabel11042410573D

 56 60  0  0  1  0  0  0  0  0999 V2000
  186.8120  173.1520  135.9780 C   0  0  2  0  0  3  0  0  0  0  0  0
  186.0240  171.1860  134.5940 N   0  0  0  0  0  2  0  0  0  0  0  0
  188.2930  171.6650  134.8250 O   0  0  0  0  0  0  0  0  0  0  0  0
  187.1060  171.9680  135.1080 C   0  0  0  0  0  0  0  0  0  0  0  0
  184.6460  171.6200  134.8100 C   0  0  0  0  0  2  0  0  0  0  0  0
  185.4980  172.9570  136.6950 C   0  0  0  0  0  3  0  0  0  0  0  0
  184.4920  172.2430  136.1750 C   0  0  0  0  0  0  0  0  0  0  0  0
  183.2540  172.1830  136.8980 N   0  0  0  0  0  2  0  0  0  0  0  0
  182.6460  174.4170  137.5510 C   0  0  0  0  0  2  0  0  0  0  0  0
  182.2870  173.2320  137.0650 C   0  0  0  0  0  0  0  0  0  0  0  0
  180.9310  173.0990  136.4080 C   0  0  1  0  0  3  0  0  0  0  0  0
  179.3310  171.6730  135.5630 C   0  0  0  0  0  1  0  0  0  0  0  0
  180.7060  171.8300  135.8190 O   0  0  0  0  0  0  0  0  0  0  0  0
  179.7630  173.5790  137.2810 C   0  0  0  0  0  2  0  0  0  0  0  0
  179.4420  175.0350  136.9920 C   0  0  0  0  0  2  0  0  0  0  0  0
  179.3000  177.2370  138.1620 C   0  0  0  0  0  2  0  0  0  0  0  0
  179.6530  175.0680  139.4870 C   0  0  0  0  0  2  0  0  0  0  0  0
  179.0010  175.7360  138.2650 C   0  0  2  0  0  3  0  0  0  0  0  0
  179.7270  176.0300  140.6670 C   0  0  0  0  0  2  0  0  0  0  0  0
  180.5910  177.2540  140.3370 C   0  0  0  0  0  2  0  0  0  0  0  0
  180.6210  177.6030  138.8430 C   0  0  2  0  0  3  0  0  0  0  0  0
  180.9170  179.0830  138.6750 C   0  0  0  0  0  2  0  0  0  0  0  0
  184.4620  179.0830  138.9950 C   0  0  1  0  0  3  0  0  0  0  0  0
  182.2410  179.2740  138.1020 N   0  0  0  0  0  0  0  0  0  0  0  0
  184.2380  177.9630  138.0080 C   0  0  0  0  0  2  0  0  0  0  0  0
  183.1040  179.7370  139.1760 C   0  0  0  0  0  2  0  0  0  0  0  0
  182.7510  177.9630  137.7400 C   0  0  0  0  0  2  0  0  0  0  0  0
  184.9540  178.5120  140.3120 C   0  0  0  0  0  2  0  0  0  0  0  0
  183.9540  178.7910  141.4180 C   0  0  0  0  0  1  0  0  0  0  0  0
  186.7760  174.4180  135.1320 C   0  0  0  0  0  2  0  0  0  0  0  0
  188.7410  174.8600  137.0020 S   0  0  0  0  0  0  0  0  0  0  0  0
  189.7480  176.3520  136.7880 C   0  0  2  0  0  3  0  0  0  0  0  0
  187.5950  175.5290  135.7680 C   0  0  1  0  0  3  0  0  0  0  0  0
  188.4080  176.2450  134.7060 C   0  0  0  0  0  2  0  0  0  0  0  0
  189.7410  176.6710  135.3020 C   0  0  0  0  0  2  0  0  0  0  0  0
  191.1750  176.1410  137.3170 C   0  0  1  0  0  3  0  0  0  0  0  0
  191.3540  176.5290  138.7600 C   0  0  0  0  0  0  0  0  0  0  0  0
  192.6870  177.4410  140.5710 C   0  0  0  0  0  3  0  0  0  0  0  0
  190.2820  176.3590  139.6430 C   0  0  0  0  0  3  0  0  0  0  0  0
  192.5550  177.0810  139.2280 C   0  0  0  0  0  3  0  0  0  0  0  0
  191.6070  177.2760  141.4530 C   0  0  0  0  0  0  0  0  0  0  0  0
  190.4110  176.7260  140.9850 C   0  0  0  0  0  3  0  0  0  0  0  0
  191.7380  177.6020  142.9070 C   0  0  0  0  0  2  0  0  0  0  0  0
  189.3440  178.0880  143.5460 C   0  0  0  0  0  0  0  0  0  0  0  0
  190.5180  177.2770  143.6350 N   0  0  0  0  0  2  0  0  0  0  0  0
  189.3500  179.1440  142.8590 O   0  0  0  0  0  0  0  0  0  0  0  0
  187.6270  176.4790  143.7410 O   0  0  0  0  0  1  0  0  0  0  0  0
  188.0950  177.6870  144.2600 C   0  0  1  0  0  3  0  0  0  0  0  0
  187.2970  177.5720  146.6680 C   0  0  0  0  0  0  0  0  0  0  0  0
  188.3380  177.5380  145.6890 N   0  0  0  0  0  2  0  0  0  0  0  0
  186.0990  177.7610  146.3200 O   0  0  0  0  0  0  0  0  0  0  0  0
  188.6350  178.1300  148.5940 N   0  0  0  0  0  1  0  0  0  0  0  0
  187.6210  177.4020  148.0110 O   0  0  0  0  0  0  0  0  0  0  0  0
  191.7140  174.7340  137.0430 C   0  0  0  0  0  2  0  0  0  0  0  0
  194.0640  174.9040  136.2740 C   0  0  0  0  0  1  0  0  0  0  0  0
  192.6310  174.6810  135.8310 C   0  0  0  0  0  2  0  0  0  0  0  0
  1 30  1  6  0  0  0
  1  6  1  0  0  0  0
  2  5  1  0  0  0  0
  2  4  1  0  0  0  0
  3  4  2  0  0  0  0
  4  1  1  0  0  0  0
  5  7  1  0  0  0  0
  7  6  2  0  0  0  0
  7  8  1  0  0  0  0
  8 10  1  0  0  0  0
 10  9  2  0  0  0  0
 11 10  1  0  0  0  0
 11 14  1  1  0  0  0
 12 13  1  0  0  0  0
 13 11  1  0  0  0  0
 15 14  1  0  0  0  0
 16 18  1  0  0  0  0
 16 21  1  0  0  0  0
 17 19  1  0  0  0  0
 18 15  1  6  0  0  0
 18 17  1  0  0  0  0
 20 19  1  0  0  0  0
 21 22  1  1  0  0  0
 21 20  1  0  0  0  0
 23 26  1  0  0  0  0
 23 28  1  1  0  0  0
 24 22  1  0  0  0  0
 24 26  1  0  0  0  0
 25 23  1  0  0  0  0
 27 25  1  0  0  0  0
 27 24  1  0  0  0  0
 28 29  1  0  0  0  0
 32 31  1  0  0  0  0
 32 36  1  6  0  0  0
 33 30  1  6  0  0  0
 33 31  1  0  0  0  0
 34 35  1  0  0  0  0
 34 33  1  0  0  0  0
 35 32  1  0  0  0  0
 36 54  1  1  0  0  0
 36 37  1  0  0  0  0
 37 40  2  0  0  0  0
 37 39  1  0  0  0  0
 38 41  2  0  0  0  0
 39 42  2  0  0  0  0
 40 38  1  0  0  0  0
 41 43  1  0  0  0  0
 42 41  1  0  0  0  0
 43 45  1  0  0  0  0
 44 45  1  0  0  0  0
 44 48  1  0  0  0  0
 46 44  2  0  0  0  0
 48 47  1  6  0  0  0
 48 50  1  0  0  0  0
 49 53  1  0  0  0  0
 50 49  1  0  0  0  0
 51 49  2  0  0  0  0
 53 52  1  0  0  0  0
 56 55  1  0  0  0  0
 56 54  1  0  0  0  0
M  END
>  <MODEL>
9

>  <REMARK>
 VINA RESULT:      -5.8      2.817      7.688
  Name = 
  21 active torsions:
  status: ('A' for Active; 'I' for Inactive)
    1  A    between atoms: C_1  and  C_11
    2  A    between atoms: C_2  and  N_19
    3  A    between atoms: C_2  and  C_54
    4  A    between atoms: C_4  and  C_14
    5  A    between atoms: C_7  and  C_11
    6  A    between atoms: C_8  and  C_10
    7  A    between atoms: C_11  and  C_17
    8  A    between atoms: C_14  and  C_47
    9  A    between atoms: N_15  and  C_30
   10  A    between atoms: N_15  and  C_42
   11  A    between atoms: C_17  and  C_25
   12  A    between atoms: C_20  and  O_41
   13  A    between atoms: C_24  and  N_27
   14  A    between atoms: C_24  and  C_33
   15  A    between atoms: C_26  and  C_50
   16  A    between atoms: N_34  and  C_39
   17  A    between atoms: C_35  and  C_50
   18  A    between atoms: C_35  and  C_56
   19  A    between atoms: C_39  and  C_43
   20  A    between atoms: C_42  and  C_56
   21  A    between atoms: O_55  and  C_56
                            x       y       z     vdW  Elec       q    Type
                         _______ _______ _______ _____ _____    ______ ____

>  <TORSDO>
F 21

$$$$
