=
 OpenBabel11042410463D

 38 43  0  0  1  0  0  0  0  0999 V2000
  186.6770  177.6220  137.5420 C   0  0  1  0  0  3  0  0  0  0  0  0
  187.2930  176.3120  137.7210 N   0  0  0  0  0  0  0  0  0  0  0  0
  186.6970  178.6490  140.8400 C   0  0  2  0  0  3  0  0  0  0  0  0
  184.4450  177.6760  138.6950 N   0  0  0  0  0  2  0  0  0  0  0  0
  188.7490  177.5000  140.0780 C   0  0  0  0  0  2  0  0  0  0  0  0
  183.2190  178.4880  141.3820 C   0  0  0  0  0  2  0  0  0  0  0  0
  187.6670  177.7190  142.8410 N   0  0  0  0  0  0  0  0  0  0  0  0
  180.9330  180.0040  138.8340 N   0  0  0  0  0  0  0  0  0  0  0  0
  184.6960  178.6610  141.5550 C   0  0  0  0  0  0  0  0  0  0  0  0
  180.7920  180.0540  136.3740 C   0  0  0  0  0  1  0  0  0  0  0  0
  185.4720  179.1020  140.5550 N   0  0  0  0  0  0  0  0  0  0  0  0
  181.4540  179.6320  137.6370 C   0  0  0  0  0  0  0  0  0  0  0  0
  186.4140  175.4010  136.9980 C   0  0  0  0  0  2  0  0  0  0  0  0
  185.0080  175.9730  136.9900 C   0  0  2  0  0  3  0  0  0  0  0  0
  185.3840  178.0490  142.5420 N   0  0  0  0  0  2  0  0  0  0  0  0
  187.5730  178.3970  139.8590 C   0  0  1  0  0  3  0  0  0  0  0  0
  185.1600  177.4250  137.4440 C   0  0  2  0  0  3  0  0  0  0  0  0
  183.2410  178.4580  138.7700 C   0  0  0  0  0  0  0  0  0  0  0  0
  189.0630  177.8590  142.5230 C   0  0  0  0  0  3  0  0  0  0  0  0
  182.6130  178.8610  137.5860 C   0  0  0  0  0  3  0  0  0  0  0  0
  181.5200  179.6430  140.0090 C   0  0  0  0  0  3  0  0  0  0  0  0
  186.6580  178.0870  142.1040 C   0  0  0  0  0  0  0  0  0  0  0  0
  189.5590  177.8320  141.2880 C   0  0  0  0  0  3  0  0  0  0  0  0
  182.6880  178.8760  140.0190 C   0  0  0  0  0  0  0  0  0  0  0  0
  187.1500  178.6370  138.5050 N   0  0  0  0  0  2  0  0  0  0  0  0
  184.1640  175.1740  137.8720 N   0  0  0  0  0  2  0  0  0  0  0  0
  183.2520  174.4080  137.0430 C   0  0  2  0  0  3  0  0  0  0  0  0
  182.2400  175.3570  136.4260 C   0  0  0  0  0  2  0  0  0  0  0  0
  181.8480  174.5040  137.6160 C   0  0  1  0  0  3  0  0  0  0  0  0
  180.4640  173.3120  135.4150 O   0  0  0  0  0  0  0  0  0  0  0  0
  179.5830  172.9960  137.8550 O   0  0  0  0  0  1  0  0  0  0  0  0
  181.7250  171.6370  137.2120 O   0  0  0  0  0  1  0  0  0  0  0  0
  180.8590  173.0850  137.0480 P   0  0  0  0  0  0  0  0  0  0  0  0
  188.5740  176.3290  137.0130 C   0  0  0  0  0  2  0  0  0  0  0  0
  189.3440  175.1810  135.0170 N   0  0  0  0  0  1  0  0  0  0  0  0
  188.8940  174.9720  136.3780 C   0  0  1  0  0  3  0  0  0  0  0  0
  190.5200  175.0250  138.1420 O   0  0  0  0  0  1  0  0  0  0  0  0
  189.9710  174.2120  137.1420 C   0  0  0  0  0  2  0  0  0  0  0  0
  1  2  1  0  0  0  0
  1 25  1  1  0  0  0
  3 11  1  6  0  0  0
  3 22  1  0  0  0  0
  4 18  1  0  0  0  0
  5 23  1  0  0  0  0
  6  9  1  0  0  0  0
  8 21  1  0  0  0  0
  9 15  1  0  0  0  0
 10 12  1  0  0  0  0
 11  9  2  0  0  0  0
 12  8  2  0  0  0  0
 13  2  1  0  0  0  0
 14 13  1  0  0  0  0
 14 17  1  0  0  0  0
 14 26  1  1  0  0  0
 16  5  1  6  0  0  0
 16  3  1  0  0  0  0
 17  1  1  0  0  0  0
 17  4  1  1  0  0  0
 18 24  1  0  0  0  0
 19  7  1  0  0  0  0
 20 12  1  0  0  0  0
 20 18  2  0  0  0  0
 21 24  2  0  0  0  0
 22 15  1  0  0  0  0
 22  7  2  0  0  0  0
 23 19  2  0  0  0  0
 24  6  1  0  0  0  0
 25 16  1  0  0  0  0
 27 29  1  0  0  0  0
 27 26  1  1  0  0  0
 28 27  1  0  0  0  0
 28 29  1  0  0  0  0
 29 33  1  6  0  0  0
 30 33  2  0  0  0  0
 33 32  1  0  0  0  0
 33 31  1  0  0  0  0
 34  2  1  0  0  0  0
 36 35  1  6  0  0  0
 36 34  1  0  0  0  0
 36 38  1  0  0  0  0
 38 37  1  0  0  0  0
M  END
>  <MODEL>
1

>  <REMARK>
 VINA RESULT:      -6.7      0.000      0.000
  Name = 
  6 active torsions:
  status: ('A' for Active; 'I' for Inactive)
    1  A    between atoms: N_2  and  C_38
    2  A    between atoms: C_8  and  N_29
    3  A    between atoms: CA_13  and  C_17
    4  A    between atoms: CA_13  and  C_38
    5  A    between atoms: C_23  and  N_29
    6  A    between atoms: P_24  and  C_37
                            x       y       z     vdW  Elec       q    Type
                         _______ _______ _______ _____ _____    ______ ____

>  <TORSDO>
F 6

$$$$
=
 OpenBabel11042410463D

 38 43  0  0  1  0  0  0  0  0999 V2000
  187.5120  177.6120  137.2420 C   0  0  1  0  0  3  0  0  0  0  0  0
  186.8590  177.8000  138.5330 N   0  0  0  0  0  0  0  0  0  0  0  0
  186.3470  174.4370  136.5400 C   0  0  2  0  0  3  0  0  0  0  0  0
  189.1980  175.7560  137.4050 N   0  0  0  0  0  2  0  0  0  0  0  0
  184.6810  175.9830  137.5110 C   0  0  0  0  0  2  0  0  0  0  0  0
  189.4120  172.7400  136.9160 C   0  0  0  0  0  2  0  0  0  0  0  0
  184.7270  173.0100  137.6120 N   0  0  0  0  0  0  0  0  0  0  0  0
  192.4610  174.1550  135.2710 N   0  0  0  0  0  0  0  0  0  0  0  0
  187.9700  173.0730  136.6910 C   0  0  0  0  0  0  0  0  0  0  0  0
  193.4570  176.3920  134.9890 C   0  0  0  0  0  1  0  0  0  0  0  0
  187.5980  174.2280  136.1190 N   0  0  0  0  0  0  0  0  0  0  0  0
  192.3900  175.4910  135.5000 C   0  0  0  0  0  0  0  0  0  0  0  0
  187.9260  178.2660  139.4100 C   0  0  0  0  0  2  0  0  0  0  0  0
  189.2520  177.7220  138.9070 C   0  0  2  0  0  3  0  0  0  0  0  0
  186.9730  172.4590  137.3630 N   0  0  0  0  0  2  0  0  0  0  0  0
  185.8680  175.6820  136.6530 C   0  0  1  0  0  3  0  0  0  0  0  0
  188.9650  177.1970  137.5000 C   0  0  2  0  0  3  0  0  0  0  0  0
  190.3070  175.1830  136.6920 C   0  0  0  0  0  0  0  0  0  0  0  0
  183.5320  173.7770  137.3760 C   0  0  0  0  0  3  0  0  0  0  0  0
  191.3150  176.0240  136.2070 C   0  0  0  0  0  3  0  0  0  0  0  0
  191.4960  173.3040  135.7150 C   0  0  0  0  0  3  0  0  0  0  0  0
  185.9340  173.3060  137.2220 C   0  0  0  0  0  0  0  0  0  0  0  0
  183.5010  175.1030  137.2600 C   0  0  0  0  0  3  0  0  0  0  0  0
  190.3910  173.7830  136.4240 C   0  0  0  0  0  0  0  0  0  0  0  0
  186.7420  176.7710  136.3040 N   0  0  0  0  0  2  0  0  0  0  0  0
  189.7230  176.6930  139.8260 N   0  0  0  0  0  2  0  0  0  0  0  0
  190.1020  177.3440  141.0680 C   0  0  2  0  0  3  0  0  0  0  0  0
  191.6150  177.4510  141.1200 C   0  0  0  0  0  2  0  0  0  0  0  0
  190.9060  176.3770  141.9200 C   0  0  1  0  0  3  0  0  0  0  0  0
  191.3710  178.4750  143.8070 O   0  0  0  0  0  0  0  0  0  0  0  0
  191.6890  175.9760  144.5060 O   0  0  0  0  0  1  0  0  0  0  0  0
  189.2180  176.7990  144.2370 O   0  0  0  0  0  1  0  0  0  0  0  0
  190.8130  176.8800  143.6670 P   0  0  0  0  0  0  0  0  0  0  0  0
  185.9080  178.9030  138.3860 C   0  0  0  0  0  2  0  0  0  0  0  0
  185.2730  179.4360  140.6680 N   0  0  0  0  0  1  0  0  0  0  0  0
  184.7950  178.8410  139.4380 C   0  0  1  0  0  3  0  0  0  0  0  0
  183.7880  180.9420  138.8680 O   0  0  0  0  0  1  0  0  0  0  0  0
  183.5340  179.5710  138.9940 C   0  0  0  0  0  2  0  0  0  0  0  0
  1 25  1  1  0  0  0
  1 17  1  0  0  0  0
  1  2  1  0  0  0  0
  2 13  1  0  0  0  0
  3 11  1  1  0  0  0
  3 16  1  0  0  0  0
  3 22  1  0  0  0  0
  8 12  2  0  0  0  0
  8 21  1  0  0  0  0
  9  6  1  0  0  0  0
  9 15  1  0  0  0  0
 10 12  1  0  0  0  0
 11  9  2  0  0  0  0
 12 20  1  0  0  0  0
 14 13  1  0  0  0  0
 14 26  1  1  0  0  0
 16  5  1  1  0  0  0
 17  4  1  1  0  0  0
 17 14  1  0  0  0  0
 18  4  1  0  0  0  0
 19  7  1  0  0  0  0
 20 18  2  0  0  0  0
 21 24  2  0  0  0  0
 22 15  1  0  0  0  0
 22  7  2  0  0  0  0
 23 19  2  0  0  0  0
 23  5  1  0  0  0  0
 24 18  1  0  0  0  0
 24  6  1  0  0  0  0
 25 16  1  0  0  0  0
 27 26  1  6  0  0  0
 27 28  1  0  0  0  0
 27 29  1  0  0  0  0
 28 29  1  0  0  0  0
 29 33  1  1  0  0  0
 33 30  2  0  0  0  0
 33 32  1  0  0  0  0
 33 31  1  0  0  0  0
 34  2  1  0  0  0  0
 34 36  1  0  0  0  0
 36 35  1  1  0  0  0
 37 38  1  0  0  0  0
 38 36  1  0  0  0  0
M  END
>  <MODEL>
2

>  <REMARK>
 VINA RESULT:      -6.1      3.952      8.732
  Name = 
  6 active torsions:
  status: ('A' for Active; 'I' for Inactive)
    1  A    between atoms: N_2  and  C_38
    2  A    between atoms: C_8  and  N_29
    3  A    between atoms: CA_13  and  C_17
    4  A    between atoms: CA_13  and  C_38
    5  A    between atoms: C_23  and  N_29
    6  A    between atoms: P_24  and  C_37
                            x       y       z     vdW  Elec       q    Type
                         _______ _______ _______ _____ _____    ______ ____

>  <TORSDO>
F 6

$$$$
=
 OpenBabel11042410463D

 38 43  0  0  1  0  0  0  0  0999 V2000
  187.1250  177.4650  137.0080 C   0  0  1  0  0  3  0  0  0  0  0  0
  186.4230  177.6900  138.2660 N   0  0  0  0  0  0  0  0  0  0  0  0
  186.1170  174.2110  136.4360 C   0  0  2  0  0  3  0  0  0  0  0  0
  188.8810  175.6940  137.3190 N   0  0  0  0  0  2  0  0  0  0  0  0
  184.3570  175.7310  137.2740 C   0  0  0  0  0  2  0  0  0  0  0  0
  189.2360  172.6690  136.9940 C   0  0  0  0  0  2  0  0  0  0  0  0
  184.5240  172.7710  137.5320 N   0  0  0  0  0  0  0  0  0  0  0  0
  192.2760  174.1300  135.3720 N   0  0  0  0  0  0  0  0  0  0  0  0
  187.7900  172.9280  136.7080 C   0  0  0  0  0  0  0  0  0  0  0  0
  193.1870  176.3910  135.0040 C   0  0  0  0  0  1  0  0  0  0  0  0
  187.3890  174.0350  136.0660 N   0  0  0  0  0  0  0  0  0  0  0  0
  192.1410  175.4720  135.5280 C   0  0  0  0  0  0  0  0  0  0  0  0
  187.4400  178.2450  139.1500 C   0  0  0  0  0  2  0  0  0  0  0  0
  188.8030  177.7350  138.7170 C   0  0  2  0  0  3  0  0  0  0  0  0
  186.7980  172.3060  137.3800 N   0  0  0  0  0  2  0  0  0  0  0  0
  185.5830  175.4380  136.4710 C   0  0  1  0  0  3  0  0  0  0  0  0
  188.5850  177.1270  137.3310 C   0  0  2  0  0  3  0  0  0  0  0  0
  190.0360  175.1350  136.6710 C   0  0  0  0  0  0  0  0  0  0  0  0
  183.3070  173.4730  137.2200 C   0  0  0  0  0  3  0  0  0  0  0  0
  191.0220  175.9940  136.1740 C   0  0  0  0  0  3  0  0  0  0  0  0
  191.3330  173.2620  135.8300 C   0  0  0  0  0  3  0  0  0  0  0  0
  185.7290  173.0990  137.1640 C   0  0  0  0  0  0  0  0  0  0  0  0
  183.2240  174.7890  137.0340 C   0  0  0  0  0  3  0  0  0  0  0  0
  190.1860  173.7280  136.4790 C   0  0  0  0  0  0  0  0  0  0  0  0
  186.4220  176.5440  136.0920 N   0  0  0  0  0  2  0  0  0  0  0  0
  189.2870  176.7750  139.7030 N   0  0  0  0  0  2  0  0  0  0  0  0
  189.8520  177.5220  140.8120 C   0  0  2  0  0  3  0  0  0  0  0  0
  191.3640  177.3970  140.7630 C   0  0  0  0  0  2  0  0  0  0  0  0
  190.5690  176.5670  141.7510 C   0  0  1  0  0  3  0  0  0  0  0  0
  189.1360  177.7790  143.9090 O   0  0  0  0  0  1  0  0  0  0  0  0
  191.5750  178.5360  143.3550 O   0  0  0  0  0  0  0  0  0  0  0  0
  191.3220  176.2080  144.5260 O   0  0  0  0  0  1  0  0  0  0  0  0
  190.6870  177.3130  143.4080 P   0  0  0  0  0  0  0  0  0  0  0  0
  185.4320  178.7410  138.0330 C   0  0  0  0  0  2  0  0  0  0  0  0
  184.0230  180.4070  139.0990 N   0  0  0  0  0  1  0  0  0  0  0  0
  184.7340  179.1670  139.3300 C   0  0  1  0  0  3  0  0  0  0  0  0
  182.4860  178.3330  139.2660 O   0  0  0  0  0  1  0  0  0  0  0  0
  183.7490  178.1190  139.8320 C   0  0  0  0  0  2  0  0  0  0  0  0
  1 25  1  1  0  0  0
  1 17  1  0  0  0  0
  1  2  1  0  0  0  0
  2 13  1  0  0  0  0
  3 11  1  1  0  0  0
  3 16  1  0  0  0  0
  3 22  1  0  0  0  0
  8 12  2  0  0  0  0
  8 21  1  0  0  0  0
  9  6  1  0  0  0  0
  9 15  1  0  0  0  0
 10 12  1  0  0  0  0
 11  9  2  0  0  0  0
 12 20  1  0  0  0  0
 14 13  1  0  0  0  0
 14 26  1  1  0  0  0
 16  5  1  1  0  0  0
 17  4  1  1  0  0  0
 17 14  1  0  0  0  0
 18  4  1  0  0  0  0
 19  7  1  0  0  0  0
 20 18  2  0  0  0  0
 21 24  2  0  0  0  0
 22 15  1  0  0  0  0
 22  7  2  0  0  0  0
 23 19  2  0  0  0  0
 23  5  1  0  0  0  0
 24 18  1  0  0  0  0
 24  6  1  0  0  0  0
 25 16  1  0  0  0  0
 27 26  1  6  0  0  0
 27 29  1  0  0  0  0
 28 27  1  0  0  0  0
 28 29  1  0  0  0  0
 29 33  1  1  0  0  0
 31 33  2  0  0  0  0
 33 30  1  0  0  0  0
 33 32  1  0  0  0  0
 34  2  1  0  0  0  0
 34 36  1  0  0  0  0
 36 35  1  6  0  0  0
 36 38  1  0  0  0  0
 37 38  1  0  0  0  0
M  END
>  <MODEL>
3

>  <REMARK>
 VINA RESULT:      -5.8      3.586      8.655
  Name = 
  6 active torsions:
  status: ('A' for Active; 'I' for Inactive)
    1  A    between atoms: N_2  and  C_38
    2  A    between atoms: C_8  and  N_29
    3  A    between atoms: CA_13  and  C_17
    4  A    between atoms: CA_13  and  C_38
    5  A    between atoms: C_23  and  N_29
    6  A    between atoms: P_24  and  C_37
                            x       y       z     vdW  Elec       q    Type
                         _______ _______ _______ _____ _____    ______ ____

>  <TORSDO>
F 6

$$$$
=
 OpenBabel11042410463D

 38 43  0  0  1  0  0  0  0  0999 V2000
  184.7690  178.8220  138.7430 C   0  0  1  0  0  3  0  0  0  0  0  0
  185.3320  177.5220  138.3930 N   0  0  0  0  0  0  0  0  0  0  0  0
  185.6540  178.8750  142.0820 C   0  0  2  0  0  3  0  0  0  0  0  0
  182.8930  178.5190  140.3880 N   0  0  0  0  0  2  0  0  0  0  0  0
  187.3870  178.0150  140.5430 C   0  0  0  0  0  2  0  0  0  0  0  0
  182.4110  178.5230  143.4130 C   0  0  0  0  0  2  0  0  0  0  0  0
  187.0270  177.4300  143.4380 N   0  0  0  0  0  0  0  0  0  0  0  0
  179.6660  180.6670  142.0420 N   0  0  0  0  0  0  0  0  0  0  0  0
  183.8930  178.6590  143.2510 C   0  0  0  0  0  0  0  0  0  0  0  0
  178.9310  181.4090  139.8080 C   0  0  0  0  0  1  0  0  0  0  0  0
  184.4260  179.3750  142.2500 N   0  0  0  0  0  0  0  0  0  0  0  0
  179.8560  180.6550  140.6970 C   0  0  0  0  0  0  0  0  0  0  0  0
  184.2510  176.8410  137.6900 C   0  0  0  0  0  2  0  0  0  0  0  0
  182.9220  177.3740  138.1950 C   0  0  2  0  0  3  0  0  0  0  0  0
  184.7630  177.8020  143.8250 N   0  0  0  0  0  2  0  0  0  0  0  0
  186.2480  178.9220  140.8830 C   0  0  1  0  0  3  0  0  0  0  0  0
  183.2660  178.6410  138.9780 C   0  0  2  0  0  3  0  0  0  0  0  0
  181.7920  179.2330  140.9760 C   0  0  0  0  0  0  0  0  0  0  0  0
  188.3090  177.6730  142.8310 C   0  0  0  0  0  3  0  0  0  0  0  0
  180.9200  179.9450  140.1460 C   0  0  0  0  0  3  0  0  0  0  0  0
  180.4990  179.9970  142.8840 C   0  0  0  0  0  3  0  0  0  0  0  0
  185.8920  177.9790  143.1090 C   0  0  0  0  0  0  0  0  0  0  0  0
  188.4860  178.0020  141.5540 C   0  0  0  0  0  3  0  0  0  0  0  0
  181.5870  179.2730  142.3880 C   0  0  0  0  0  0  0  0  0  0  0  0
  185.5220  179.5290  139.7990 N   0  0  0  0  0  2  0  0  0  0  0  0
  182.2740  176.3480  139.0030 N   0  0  0  0  0  2  0  0  0  0  0  0
  181.2100  175.7610  138.2090 C   0  0  2  0  0  3  0  0  0  0  0  0
  180.1630  175.1850  139.1470 C   0  0  0  0  0  2  0  0  0  0  0  0
  181.1550  174.2640  138.4650 C   0  0  1  0  0  3  0  0  0  0  0  0
  179.9620  171.8460  137.5120 O   0  0  0  0  0  1  0  0  0  0  0  0
  181.2960  173.3920  135.8810 O   0  0  0  0  0  0  0  0  0  0  0  0
  178.9310  174.2440  136.6090 O   0  0  0  0  0  1  0  0  0  0  0  0
  180.3500  173.4330  137.0600 P   0  0  0  0  0  0  0  0  0  0  0  0
  186.4000  177.7560  137.4200 C   0  0  0  0  0  2  0  0  0  0  0  0
  187.0710  176.3430  135.5620 N   0  0  0  0  0  1  0  0  0  0  0  0
  187.0910  176.4510  137.0060 C   0  0  1  0  0  3  0  0  0  0  0  0
  189.4120  176.5250  136.4040 O   0  0  0  0  0  1  0  0  0  0  0  0
  188.5350  176.3800  137.4860 C   0  0  0  0  0  2  0  0  0  0  0  0
  1 17  1  0  0  0  0
  1 25  1  1  0  0  0
  2  1  1  0  0  0  0
  3 11  1  6  0  0  0
  3 22  1  0  0  0  0
  4 18  1  0  0  0  0
  5 23  1  0  0  0  0
  8 21  1  0  0  0  0
  9  6  1  0  0  0  0
  9 15  1  0  0  0  0
 10 12  1  0  0  0  0
 11  9  2  0  0  0  0
 12  8  2  0  0  0  0
 13 14  1  0  0  0  0
 13  2  1  0  0  0  0
 14 17  1  0  0  0  0
 14 26  1  1  0  0  0
 16  5  1  6  0  0  0
 16  3  1  0  0  0  0
 17  4  1  1  0  0  0
 18 24  1  0  0  0  0
 19  7  1  0  0  0  0
 20 12  1  0  0  0  0
 20 18  2  0  0  0  0
 22  7  2  0  0  0  0
 22 15  1  0  0  0  0
 23 19  2  0  0  0  0
 24 21  2  0  0  0  0
 24  6  1  0  0  0  0
 25 16  1  0  0  0  0
 27 29  1  0  0  0  0
 27 26  1  1  0  0  0
 27 28  1  0  0  0  0
 29 33  1  6  0  0  0
 29 28  1  0  0  0  0
 31 33  2  0  0  0  0
 32 33  1  0  0  0  0
 33 30  1  0  0  0  0
 34  2  1  0  0  0  0
 36 35  1  6  0  0  0
 36 34  1  0  0  0  0
 36 38  1  0  0  0  0
 37 38  1  0  0  0  0
M  END
>  <MODEL>
4

>  <REMARK>
 VINA RESULT:      -5.6      1.708      2.505
  Name = 
  6 active torsions:
  status: ('A' for Active; 'I' for Inactive)
    1  A    between atoms: N_2  and  C_38
    2  A    between atoms: C_8  and  N_29
    3  A    between atoms: CA_13  and  C_17
    4  A    between atoms: CA_13  and  C_38
    5  A    between atoms: C_23  and  N_29
    6  A    between atoms: P_24  and  C_37
                            x       y       z     vdW  Elec       q    Type
                         _______ _______ _______ _____ _____    ______ ____

>  <TORSDO>
F 6

$$$$
=
 OpenBabel11042410463D

 38 43  0  0  1  0  0  0  0  0999 V2000
  182.2590  178.4260  136.9070 C   0  0  1  0  0  3  0  0  0  0  0  0
  181.2440  178.5120  137.9510 N   0  0  0  0  0  0  0  0  0  0  0  0
  181.9350  175.0700  136.1580 C   0  0  2  0  0  3  0  0  0  0  0  0
  184.1360  176.9380  137.6690 N   0  0  0  0  0  2  0  0  0  0  0  0
  179.8110  176.2830  136.5130 C   0  0  0  0  0  2  0  0  0  0  0  0
  185.0210  174.0110  137.4900 C   0  0  0  0  0  2  0  0  0  0  0  0
  180.3630  173.3790  136.8510 N   0  0  0  0  0  0  0  0  0  0  0  0
  188.1040  175.9560  136.6420 N   0  0  0  0  0  0  0  0  0  0  0  0
  183.6670  174.0520  136.8530 C   0  0  0  0  0  0  0  0  0  0  0  0
  188.7180  178.3370  136.4740 C   0  0  0  0  0  1  0  0  0  0  0  0
  183.2710  175.0990  136.1140 N   0  0  0  0  0  0  0  0  0  0  0  0
  187.7300  177.2570  136.7390 C   0  0  0  0  0  0  0  0  0  0  0  0
  181.9150  179.1970  139.0490 C   0  0  0  0  0  2  0  0  0  0  0  0
  183.4040  178.9100  138.9720 C   0  0  2  0  0  3  0  0  0  0  0  0
  182.6480  173.2710  137.2710 N   0  0  0  0  0  2  0  0  0  0  0  0
  181.2270  176.2000  136.0400 C   0  0  1  0  0  3  0  0  0  0  0  0
  183.6290  178.3080  137.5850 C   0  0  2  0  0  3  0  0  0  0  0  0
  185.4870  176.5760  137.3340 C   0  0  0  0  0  0  0  0  0  0  0  0
  179.1670  173.8930  136.2370 C   0  0  0  0  0  3  0  0  0  0  0  0
  186.4210  177.5870  137.0810 C   0  0  0  0  0  3  0  0  0  0  0  0
  187.2230  174.9430  136.8690 C   0  0  0  0  0  3  0  0  0  0  0  0
  181.5570  173.8950  136.7850 C   0  0  0  0  0  0  0  0  0  0  0  0
  178.9310  175.1840  136.0160 C   0  0  0  0  0  3  0  0  0  0  0  0
  185.8940  175.2140  137.2080 C   0  0  0  0  0  0  0  0  0  0  0  0
  181.9530  177.4290  135.8610 N   0  0  0  0  0  2  0  0  0  0  0  0
  183.7730  178.0140  140.0620 N   0  0  0  0  0  2  0  0  0  0  0  0
  184.0370  178.8260  141.2370 C   0  0  2  0  0  3  0  0  0  0  0  0
  185.5390  178.9730  141.3990 C   0  0  0  0  0  2  0  0  0  0  0  0
  184.7770  177.9930  142.2700 C   0  0  1  0  0  3  0  0  0  0  0  0
  182.8940  178.5650  144.3450 O   0  0  0  0  0  1  0  0  0  0  0  0
  184.9040  180.1770  143.9050 O   0  0  0  0  0  0  0  0  0  0  0  0
  185.4740  177.9100  145.0810 O   0  0  0  0  0  1  0  0  0  0  0  0
  184.5300  178.7120  143.9240 P   0  0  0  0  0  0  0  0  0  0  0  0
  180.1910  179.4050  137.4640 C   0  0  0  0  0  2  0  0  0  0  0  0
  180.3000  180.7990  135.4800 N   0  0  0  0  0  1  0  0  0  0  0  0
  180.7670  180.6840  136.8460 C   0  0  1  0  0  3  0  0  0  0  0  0
  181.4960  182.6650  137.9860 O   0  0  0  0  0  1  0  0  0  0  0  0
  180.3600  181.9350  137.6130 C   0  0  0  0  0  2  0  0  0  0  0  0
  1 25  1  6  0  0  0
  1 17  1  0  0  0  0
  1  2  1  0  0  0  0
  2 13  1  0  0  0  0
  3 11  1  1  0  0  0
  3 22  1  0  0  0  0
  8 12  2  0  0  0  0
  8 21  1  0  0  0  0
  9 15  1  0  0  0  0
  9  6  1  0  0  0  0
 10 12  1  0  0  0  0
 11  9  2  0  0  0  0
 12 20  1  0  0  0  0
 14 13  1  0  0  0  0
 14 26  1  1  0  0  0
 16  3  1  0  0  0  0
 16  5  1  1  0  0  0
 17  4  1  1  0  0  0
 17 14  1  0  0  0  0
 18  4  1  0  0  0  0
 19  7  1  0  0  0  0
 20 18  2  0  0  0  0
 21 24  2  0  0  0  0
 22  7  2  0  0  0  0
 22 15  1  0  0  0  0
 23 19  2  0  0  0  0
 23  5  1  0  0  0  0
 24 18  1  0  0  0  0
 24  6  1  0  0  0  0
 25 16  1  0  0  0  0
 27 26  1  6  0  0  0
 27 28  1  0  0  0  0
 27 29  1  0  0  0  0
 28 29  1  0  0  0  0
 29 33  1  1  0  0  0
 31 33  2  0  0  0  0
 33 30  1  0  0  0  0
 33 32  1  0  0  0  0
 34  2  1  0  0  0  0
 36 35  1  6  0  0  0
 36 34  1  0  0  0  0
 36 38  1  0  0  0  0
 38 37  1  0  0  0  0
M  END
>  <MODEL>
5

>  <REMARK>
 VINA RESULT:      -5.1      3.961      8.113
  Name = 
  6 active torsions:
  status: ('A' for Active; 'I' for Inactive)
    1  A    between atoms: N_2  and  C_38
    2  A    between atoms: C_8  and  N_29
    3  A    between atoms: CA_13  and  C_17
    4  A    between atoms: CA_13  and  C_38
    5  A    between atoms: C_23  and  N_29
    6  A    between atoms: P_24  and  C_37
                            x       y       z     vdW  Elec       q    Type
                         _______ _______ _______ _____ _____    ______ ____

>  <TORSDO>
F 6

$$$$
=
 OpenBabel11042410463D

 38 43  0  0  1  0  0  0  0  0999 V2000
  182.6090  179.3350  138.7300 C   0  0  1  0  0  3  0  0  0  0  0  0
  181.7680  179.0380  139.8840 N   0  0  0  0  0  0  0  0  0  0  0  0
  181.9040  176.5250  136.8490 C   0  0  2  0  0  3  0  0  0  0  0  0
  184.4480  177.6310  138.5570 N   0  0  0  0  0  2  0  0  0  0  0  0
  179.9620  177.5550  137.9790 C   0  0  0  0  0  2  0  0  0  0  0  0
  185.0530  174.9760  137.1560 C   0  0  0  0  0  2  0  0  0  0  0  0
  180.3160  174.7310  137.1130 N   0  0  0  0  0  0  0  0  0  0  0  0
  188.1290  177.0340  136.5920 N   0  0  0  0  0  0  0  0  0  0  0  0
  183.6290  175.2850  136.8150 C   0  0  0  0  0  0  0  0  0  0  0  0
  188.9050  179.2870  137.2230 C   0  0  0  0  0  1  0  0  0  0  0  0
  183.2160  176.5420  136.5970 N   0  0  0  0  0  0  0  0  0  0  0  0
  187.8820  178.2080  137.2280 C   0  0  0  0  0  0  0  0  0  0  0  0
  182.6470  179.2390  141.0290 C   0  0  0  0  0  2  0  0  0  0  0  0
  184.0810  178.9730  140.6040 C   0  0  2  0  0  3  0  0  0  0  0  0
  182.6220  174.4240  137.0750 N   0  0  0  0  0  2  0  0  0  0  0  0
  181.2810  177.6300  137.2800 C   0  0  1  0  0  3  0  0  0  0  0  0
  184.0490  178.9400  139.0760 C   0  0  2  0  0  3  0  0  0  0  0  0
  185.7010  177.3970  137.8910 C   0  0  0  0  0  0  0  0  0  0  0  0
  179.0890  175.4640  136.9450 C   0  0  0  0  0  3  0  0  0  0  0  0
  186.6680  178.4090  137.8810 C   0  0  0  0  0  3  0  0  0  0  0  0
  187.2100  176.0300  136.5680 C   0  0  0  0  0  3  0  0  0  0  0  0
  181.5260  175.2090  137.0470 C   0  0  0  0  0  0  0  0  0  0  0  0
  178.9300  176.7470  137.2630 C   0  0  0  0  0  3  0  0  0  0  0  0
  185.9720  176.1780  137.2000 C   0  0  0  0  0  0  0  0  0  0  0  0
  182.0720  178.8190  137.4540 N   0  0  0  0  0  2  0  0  0  0  0  0
  184.5300  177.7210  141.2030 N   0  0  0  0  0  2  0  0  0  0  0  0
  185.4800  178.0450  142.2520 C   0  0  2  0  0  3  0  0  0  0  0  0
  186.3680  179.1800  141.7730 C   0  0  0  0  0  2  0  0  0  0  0  0
  186.8890  177.7560  141.7650 C   0  0  1  0  0  3  0  0  0  0  0  0
  188.4280  175.8660  143.2610 O   0  0  0  0  0  1  0  0  0  0  0  0
  187.2640  177.8700  144.4680 O   0  0  0  0  0  1  0  0  0  0  0  0
  189.3900  178.4470  143.0550 O   0  0  0  0  0  0  0  0  0  0  0  0
  187.9890  177.5020  143.1930 P   0  0  0  0  0  0  0  0  0  0  0  0
  180.7330  180.0700  139.9480 C   0  0  0  0  0  2  0  0  0  0  0  0
  179.8460  178.3850  141.4540 N   0  0  0  0  0  1  0  0  0  0  0  0
  179.5120  179.6050  140.7510 C   0  0  1  0  0  3  0  0  0  0  0  0
  180.0330  180.8420  142.7400 O   0  0  0  0  0  1  0  0  0  0  0  0
  179.0500  180.6460  141.7620 C   0  0  0  0  0  2  0  0  0  0  0  0
  1 25  1  6  0  0  0
  1 17  1  0  0  0  0
  1  2  1  0  0  0  0
  2 34  1  0  0  0  0
  2 13  1  0  0  0  0
  3 11  1  1  0  0  0
  3 22  1  0  0  0  0
  3 16  1  0  0  0  0
  6 24  1  0  0  0  0
  8 12  1  0  0  0  0
  9 15  1  0  0  0  0
  9  6  1  0  0  0  0
 10 12  1  0  0  0  0
 11  9  2  0  0  0  0
 12 20  2  0  0  0  0
 14 13  1  0  0  0  0
 14 26  1  1  0  0  0
 16 25  1  0  0  0  0
 16  5  1  1  0  0  0
 17  4  1  1  0  0  0
 17 14  1  0  0  0  0
 18  4  1  0  0  0  0
 19  7  1  0  0  0  0
 19 23  2  0  0  0  0
 20 18  1  0  0  0  0
 21  8  2  0  0  0  0
 21 24  1  0  0  0  0
 22 15  1  0  0  0  0
 22  7  2  0  0  0  0
 23  5  1  0  0  0  0
 24 18  2  0  0  0  0
 27 26  1  6  0  0  0
 28 27  1  0  0  0  0
 29 28  1  0  0  0  0
 29 27  1  0  0  0  0
 29 33  1  1  0  0  0
 32 33  2  0  0  0  0
 33 30  1  0  0  0  0
 33 31  1  0  0  0  0
 34 36  1  0  0  0  0
 36 35  1  1  0  0  0
 36 38  1  0  0  0  0
 38 37  1  0  0  0  0
M  END
>  <MODEL>
6

>  <REMARK>
 VINA RESULT:      -4.5      3.775      8.229
  Name = 
  6 active torsions:
  status: ('A' for Active; 'I' for Inactive)
    1  A    between atoms: N_2  and  C_38
    2  A    between atoms: C_8  and  N_29
    3  A    between atoms: CA_13  and  C_17
    4  A    between atoms: CA_13  and  C_38
    5  A    between atoms: C_23  and  N_29
    6  A    between atoms: P_24  and  C_37
                            x       y       z     vdW  Elec       q    Type
                         _______ _______ _______ _____ _____    ______ ____

>  <TORSDO>
F 6

$$$$
=
 OpenBabel11042410463D

 38 43  0  0  1  0  0  0  0  0999 V2000
  184.8500  174.8460  137.2720 C   0  0  1  0  0  3  0  0  0  0  0  0
  185.3880  175.1930  135.9610 N   0  0  0  0  0  0  0  0  0  0  0  0
  183.7240  171.6650  136.5350 C   0  0  2  0  0  3  0  0  0  0  0  0
  182.3570  174.5640  137.1190 N   0  0  0  0  0  2  0  0  0  0  0  0
  185.9310  172.2510  135.5880 C   0  0  0  0  0  2  0  0  0  0  0  0
  180.2730  172.3590  136.7010 C   0  0  0  0  0  2  0  0  0  0  0  0
  183.9650  170.2470  134.6000 N   0  0  0  0  0  0  0  0  0  0  0  0
  178.9730  174.3090  139.6190 N   0  0  0  0  0  0  0  0  0  0  0  0
  181.5990  171.6860  136.5230 C   0  0  0  0  0  0  0  0  0  0  0  0
  179.6810  176.2990  140.8890 C   0  0  0  0  0  1  0  0  0  0  0  0
  182.6640  172.0280  137.2630 N   0  0  0  0  0  0  0  0  0  0  0  0
  179.8780  175.3040  139.8010 C   0  0  0  0  0  0  0  0  0  0  0  0
  184.8240  176.5070  135.6780 C   0  0  0  0  0  2  0  0  0  0  0  0
  183.4960  176.6410  136.4020 C   0  0  2  0  0  3  0  0  0  0  0  0
  181.9170  171.0030  135.4030 N   0  0  0  0  0  2  0  0  0  0  0  0
  184.8870  172.3180  136.6560 C   0  0  1  0  0  3  0  0  0  0  0  0
  183.4610  175.4830  137.3990 C   0  0  2  0  0  3  0  0  0  0  0  0
  181.1870  174.4630  137.9490 C   0  0  0  0  0  0  0  0  0  0  0  0
  185.3840  170.0100  134.6480 C   0  0  0  0  0  3  0  0  0  0  0  0
  180.9960  175.3940  138.9760 C   0  0  0  0  0  3  0  0  0  0  0  0
  179.1280  173.3760  138.6400 C   0  0  0  0  0  3  0  0  0  0  0  0
  183.2640  170.9510  135.4420 C   0  0  0  0  0  0  0  0  0  0  0  0
  186.2730  170.8660  135.1480 C   0  0  0  0  0  3  0  0  0  0  0  0
  180.2350  173.4120  137.7860 C   0  0  0  0  0  0  0  0  0  0  0  0
  184.9480  173.4080  137.5930 N   0  0  0  0  0  2  0  0  0  0  0  0
  182.4150  176.5990  135.4240 N   0  0  0  0  0  2  0  0  0  0  0  0
  181.3800  177.5170  135.8630 C   0  0  2  0  0  3  0  0  0  0  0  0
  180.3280  177.6230  134.7740 C   0  0  0  0  0  2  0  0  0  0  0  0
  181.3530  178.7260  134.9440 C   0  0  1  0  0  3  0  0  0  0  0  0
  178.9310  179.8510  135.9660 O   0  0  0  0  0  1  0  0  0  0  0  0
  180.8040  181.4010  135.0080 O   0  0  0  0  0  0  0  0  0  0  0  0
  181.2690  180.3340  137.3530 O   0  0  0  0  0  1  0  0  0  0  0  0
  180.5950  180.1360  135.8110 P   0  0  0  0  0  0  0  0  0  0  0  0
  186.8330  175.3660  136.1130 C   0  0  0  0  0  2  0  0  0  0  0  0
  187.6500  176.9320  137.7790 N   0  0  0  0  0  1  0  0  0  0  0  0
  187.2060  176.8240  136.4050 C   0  0  1  0  0  3  0  0  0  0  0  0
  189.2620  178.0480  136.2300 O   0  0  0  0  0  1  0  0  0  0  0  0
  188.3090  177.3370  135.4890 C   0  0  0  0  0  2  0  0  0  0  0  0
  1 17  1  0  0  0  0
  1 25  1  6  0  0  0
  2 34  1  0  0  0  0
  2  1  1  0  0  0  0
  3 22  1  6  0  0  0
  3 16  1  0  0  0  0
  3 11  1  0  0  0  0
  4 18  1  0  0  0  0
  6 24  1  0  0  0  0
  7 19  1  0  0  0  0
  7 22  2  0  0  0  0
  8 12  1  0  0  0  0
  9  6  1  0  0  0  0
  9 11  2  0  0  0  0
 12 10  1  0  0  0  0
 13  2  1  0  0  0  0
 13 14  1  0  0  0  0
 14 26  1  6  0  0  0
 14 17  1  0  0  0  0
 15 22  1  0  0  0  0
 15  9  1  0  0  0  0
 16  5  1  6  0  0  0
 16 25  1  0  0  0  0
 17  4  1  6  0  0  0
 18 20  1  0  0  0  0
 19 23  2  0  0  0  0
 20 12  2  0  0  0  0
 21  8  2  0  0  0  0
 23  5  1  0  0  0  0
 24 18  2  0  0  0  0
 24 21  1  0  0  0  0
 27 26  1  6  0  0  0
 28 29  1  0  0  0  0
 28 27  1  0  0  0  0
 29 33  1  1  0  0  0
 29 27  1  0  0  0  0
 31 33  2  0  0  0  0
 33 30  1  0  0  0  0
 33 32  1  0  0  0  0
 34 36  1  0  0  0  0
 36 35  1  1  0  0  0
 38 37  1  0  0  0  0
 38 36  1  0  0  0  0
M  END
>  <MODEL>
7

>  <REMARK>
 VINA RESULT:      -4.3      4.189      6.639
  Name = 
  6 active torsions:
  status: ('A' for Active; 'I' for Inactive)
    1  A    between atoms: N_2  and  C_38
    2  A    between atoms: C_8  and  N_29
    3  A    between atoms: CA_13  and  C_17
    4  A    between atoms: CA_13  and  C_38
    5  A    between atoms: C_23  and  N_29
    6  A    between atoms: P_24  and  C_37
                            x       y       z     vdW  Elec       q    Type
                         _______ _______ _______ _____ _____    ______ ____

>  <TORSDO>
F 6

$$$$
=
 OpenBabel11042410463D

 38 43  0  0  1  0  0  0  0  0999 V2000
  187.4050  178.6510  140.0120 C   0  0  1  0  0  3  0  0  0  0  0  0
  186.2990  178.1430  140.8160 N   0  0  0  0  0  0  0  0  0  0  0  0
  186.9500  176.6770  137.2140 C   0  0  2  0  0  3  0  0  0  0  0  0
  189.1020  176.8310  139.6560 N   0  0  0  0  0  2  0  0  0  0  0  0
  184.8800  177.5850  138.2150 C   0  0  0  0  0  2  0  0  0  0  0  0
  189.8180  174.6680  137.6090 C   0  0  0  0  0  2  0  0  0  0  0  0
  185.2150  175.1360  136.5580 N   0  0  0  0  0  0  0  0  0  0  0  0
  193.0840  176.3320  138.3660 N   0  0  0  0  0  0  0  0  0  0  0  0
  188.5380  175.2680  137.1150 C   0  0  0  0  0  0  0  0  0  0  0  0
  193.8580  178.1490  139.8410 C   0  0  0  0  0  1  0  0  0  0  0  0
  188.2820  176.5780  137.2450 N   0  0  0  0  0  0  0  0  0  0  0  0
  192.7840  177.2800  139.2900 C   0  0  0  0  0  0  0  0  0  0  0  0
  186.9010  177.8560  142.1130 C   0  0  0  0  0  2  0  0  0  0  0  0
  188.3700  177.5270  141.9140 C   0  0  2  0  0  3  0  0  0  0  0  0
  187.4370  174.5250  136.8760 N   0  0  0  0  0  2  0  0  0  0  0  0
  186.3280  177.6760  137.8530 C   0  0  1  0  0  3  0  0  0  0  0  0
  188.6920  177.9640  140.4850 C   0  0  2  0  0  3  0  0  0  0  0  0
  190.4550  176.6320  139.2090 C   0  0  0  0  0  0  0  0  0  0  0  0
  184.1190  176.0560  136.4020 C   0  0  0  0  0  3  0  0  0  0  0  0
  191.4700  177.4470  139.7210 C   0  0  0  0  0  3  0  0  0  0  0  0
  192.1240  175.5260  137.8350 C   0  0  0  0  0  3  0  0  0  0  0  0
  186.4390  175.4310  136.8920 C   0  0  0  0  0  0  0  0  0  0  0  0
  183.9870  177.1910  137.0860 C   0  0  0  0  0  3  0  0  0  0  0  0
  190.7870  175.6530  138.2240 C   0  0  0  0  0  0  0  0  0  0  0  0
  187.1420  178.6290  138.5590 N   0  0  0  0  0  2  0  0  0  0  0  0
  188.5730  176.1020  142.1460 N   0  0  0  0  0  2  0  0  0  0  0  0
  189.2710  175.9510  143.4100 C   0  0  2  0  0  3  0  0  0  0  0  0
  188.5400  176.7560  144.4700 C   0  0  0  0  0  2  0  0  0  0  0  0
  189.8140  177.2990  143.8520 C   0  0  1  0  0  3  0  0  0  0  0  0
  190.5930  176.9310  146.5790 O   0  0  0  0  0  1  0  0  0  0  0  0
  192.1440  178.2340  144.9280 O   0  0  0  0  0  1  0  0  0  0  0  0
  192.0550  175.6350  144.6280 O   0  0  0  0  0  0  0  0  0  0  0  0
  191.2030  177.0520  145.0020 P   0  0  0  0  0  0  0  0  0  0  0  0
  185.3570  179.2450  141.0100 C   0  0  0  0  0  2  0  0  0  0  0  0
  184.1380  179.6300  143.0750 N   0  0  0  0  0  1  0  0  0  0  0  0
  184.1580  178.8270  141.8700 C   0  0  1  0  0  3  0  0  0  0  0  0
  181.7670  178.9000  142.0450 O   0  0  0  0  0  1  0  0  0  0  0  0
  182.8320  178.9970  141.1410 C   0  0  0  0  0  2  0  0  0  0  0  0
  1 25  1  6  0  0  0
  1 17  1  0  0  0  0
  1  2  1  0  0  0  0
  2 34  1  0  0  0  0
  2 13  1  0  0  0  0
  3 22  1  1  0  0  0
  3 11  1  0  0  0  0
  3 16  1  0  0  0  0
  6 24  1  0  0  0  0
  7 22  2  0  0  0  0
  8 12  1  0  0  0  0
  9 11  2  0  0  0  0
  9  6  1  0  0  0  0
 12 20  2  0  0  0  0
 12 10  1  0  0  0  0
 14 13  1  0  0  0  0
 14 26  1  6  0  0  0
 15 22  1  0  0  0  0
 15  9  1  0  0  0  0
 16  5  1  1  0  0  0
 16 25  1  0  0  0  0
 17  4  1  6  0  0  0
 17 14  1  0  0  0  0
 18  4  1  0  0  0  0
 18 20  1  0  0  0  0
 19  7  1  0  0  0  0
 19 23  2  0  0  0  0
 21 24  1  0  0  0  0
 21  8  2  0  0  0  0
 23  5  1  0  0  0  0
 24 18  2  0  0  0  0
 27 26  1  6  0  0  0
 27 29  1  0  0  0  0
 27 28  1  0  0  0  0
 29 28  1  0  0  0  0
 29 33  1  1  0  0  0
 31 33  1  0  0  0  0
 32 33  2  0  0  0  0
 33 30  1  0  0  0  0
 34 36  1  0  0  0  0
 36 35  1  1  0  0  0
 38 36  1  0  0  0  0
 38 37  1  0  0  0  0
M  END
>  <MODEL>
8

>  <REMARK>
 VINA RESULT:      -4.0      3.873      8.877
  Name = 
  6 active torsions:
  status: ('A' for Active; 'I' for Inactive)
    1  A    between atoms: N_2  and  C_38
    2  A    between atoms: C_8  and  N_29
    3  A    between atoms: CA_13  and  C_17
    4  A    between atoms: CA_13  and  C_38
    5  A    between atoms: C_23  and  N_29
    6  A    between atoms: P_24  and  C_37
                            x       y       z     vdW  Elec       q    Type
                         _______ _______ _______ _____ _____    ______ ____

>  <TORSDO>
F 6

$$$$
=
 OpenBabel11042410463D

 38 43  0  0  1  0  0  0  0  0999 V2000
  183.6070  177.6990  139.8430 C   0  0  1  0  0  3  0  0  0  0  0  0
  183.7150  179.0890  139.4140 N   0  0  0  0  0  0  0  0  0  0  0  0
  184.0410  176.1820  136.7700 C   0  0  2  0  0  3  0  0  0  0  0  0
  181.5590  176.6530  138.8290 N   0  0  0  0  0  2  0  0  0  0  0  0
  185.5340  178.1000  137.2220 C   0  0  0  0  0  2  0  0  0  0  0  0
  180.7450  174.9990  136.3830 C   0  0  0  0  0  2  0  0  0  0  0  0
  184.6410  177.0280  134.5940 N   0  0  0  0  0  0  0  0  0  0  0  0
  179.1180  173.2440  139.2610 N   0  0  0  0  0  0  0  0  0  0  0  0
  182.1880  175.3340  136.1680 C   0  0  0  0  0  0  0  0  0  0  0  0
  178.9690  173.5810  141.6990 C   0  0  0  0  0  1  0  0  0  0  0  0
  183.0560  175.3810  137.1890 N   0  0  0  0  0  0  0  0  0  0  0  0
  179.4540  173.9810  140.3510 C   0  0  0  0  0  0  0  0  0  0  0  0
  182.5570  179.7400  140.0150 C   0  0  0  0  0  2  0  0  0  0  0  0
  181.4500  178.7170  140.1890 C   0  0  2  0  0  3  0  0  0  0  0  0
  182.6250  175.9660  135.0580 N   0  0  0  0  0  2  0  0  0  0  0  0
  184.7540  176.8970  137.6490 C   0  0  1  0  0  3  0  0  0  0  0  0
  182.1190  177.3580  139.9820 C   0  0  2  0  0  3  0  0  0  0  0  0
  180.7170  175.4940  138.9470 C   0  0  0  0  0  0  0  0  0  0  0  0
  185.9910  177.4510  134.8610 C   0  0  0  0  0  3  0  0  0  0  0  0
  180.2580  175.1100  140.2120 C   0  0  0  0  0  3  0  0  0  0  0  0
  179.5530  173.5770  138.0150 C   0  0  0  0  0  3  0  0  0  0  0  0
  183.8220  176.4610  135.4320 C   0  0  0  0  0  0  0  0  0  0  0  0
  186.4260  177.8700  136.0480 C   0  0  0  0  0  3  0  0  0  0  0  0
  180.3680  174.6950  137.8170 C   0  0  0  0  0  0  0  0  0  0  0  0
  184.4260  176.7650  139.0440 N   0  0  0  0  0  2  0  0  0  0  0  0
  180.3890  178.9950  139.2280 N   0  0  0  0  0  2  0  0  0  0  0  0
  180.4260  180.4140  138.9220 C   0  0  2  0  0  3  0  0  0  0  0  0
  179.0210  180.9760  139.0480 C   0  0  0  0  0  2  0  0  0  0  0  0
  179.5990  180.6840  137.6770 C   0  0  1  0  0  3  0  0  0  0  0  0
  181.3580  182.9300  137.8680 O   0  0  0  0  0  1  0  0  0  0  0  0
  178.9850  183.1980  136.8060 O   0  0  0  0  0  1  0  0  0  0  0  0
  180.7710  181.9550  135.3520 O   0  0  0  0  0  0  0  0  0  0  0  0
  180.1480  182.2370  136.9030 P   0  0  0  0  0  0  0  0  0  0  0  0
  184.9060  179.6520  140.0500 C   0  0  0  0  0  2  0  0  0  0  0  0
  186.8870  178.6350  141.0170 N   0  0  0  0  0  1  0  0  0  0  0  0
  185.4500  178.7400  141.1560 C   0  0  1  0  0  3  0  0  0  0  0  0
  184.1540  178.4510  143.1540 O   0  0  0  0  0  1  0  0  0  0  0  0
  185.1250  179.2600  142.5500 C   0  0  0  0  0  2  0  0  0  0  0  0
  1 25  1  6  0  0  0
  1 17  1  0  0  0  0
  2  1  1  0  0  0  0
  2 13  1  0  0  0  0
  2 34  1  0  0  0  0
  3 22  1  6  0  0  0
  3 11  1  0  0  0  0
  3 16  1  0  0  0  0
  4 18  1  0  0  0  0
  6 24  1  0  0  0  0
  7 19  1  0  0  0  0
  7 22  2  0  0  0  0
  8 12  1  0  0  0  0
  9  6  1  0  0  0  0
  9 11  2  0  0  0  0
 12 10  1  0  0  0  0
 13 14  1  0  0  0  0
 14 26  1  6  0  0  0
 15 22  1  0  0  0  0
 15  9  1  0  0  0  0
 16  5  1  6  0  0  0
 16 25  1  0  0  0  0
 17  4  1  6  0  0  0
 17 14  1  0  0  0  0
 18 20  1  0  0  0  0
 19 23  2  0  0  0  0
 20 12  2  0  0  0  0
 21  8  2  0  0  0  0
 23  5  1  0  0  0  0
 24 21  1  0  0  0  0
 24 18  2  0  0  0  0
 27 28  1  0  0  0  0
 27 26  1  1  0  0  0
 29 33  1  6  0  0  0
 29 27  1  0  0  0  0
 29 28  1  0  0  0  0
 31 33  1  0  0  0  0
 32 33  2  0  0  0  0
 33 30  1  0  0  0  0
 34 36  1  0  0  0  0
 36 35  1  1  0  0  0
 36 38  1  0  0  0  0
 38 37  1  0  0  0  0
M  END
>  <MODEL>
9

>  <REMARK>
 VINA RESULT:      -3.8      4.040      6.846
  Name = 
  6 active torsions:
  status: ('A' for Active; 'I' for Inactive)
    1  A    between atoms: N_2  and  C_38
    2  A    between atoms: C_8  and  N_29
    3  A    between atoms: CA_13  and  C_17
    4  A    between atoms: CA_13  and  C_38
    5  A    between atoms: C_23  and  N_29
    6  A    between atoms: P_24  and  C_37
                            x       y       z     vdW  Elec       q    Type
                         _______ _______ _______ _____ _____    ______ ____

>  <TORSDO>
F 6

$$$$
