=
 OpenBabel11032419283D

 36 38  0  0  1  0  0  0  0  0999 V2000
  187.6700  177.6110  145.0660 C   0  0  2  0  0  3  0  0  0  0  0  0
  185.6660  178.3210  143.6730 C   0  0  0  0  0  0  0  0  0  0  0  0
  183.8450  177.8870  141.8530 C   0  0  0  0  0  3  0  0  0  0  0  0
  186.6710  177.5830  146.2380 C   0  0  2  0  0  3  0  0  0  0  0  0
  185.5290  178.6190  146.1600 C   0  0  0  0  0  2  0  0  0  0  0  0
  188.5120  178.8850  145.0740 C   0  0  0  0  0  1  0  0  0  0  0  0
  184.7530  178.1060  142.7640 C   0  0  0  0  0  0  0  0  0  0  0  0
  186.8850  177.4330  143.7520 C   0  0  1  0  0  3  0  0  0  0  0  0
  185.3850  179.2860  144.7840 C   0  0  0  0  0  2  0  0  0  0  0  0
  189.3690  177.4540  140.2340 C   0  0  0  0  0  0  0  0  0  0  0  0
  187.7420  177.4560  142.5160 C   0  0  0  0  0  0  0  0  0  0  0  0
  190.2300  177.4510  139.0240 C   0  0  0  0  0  1  0  0  0  0  0  0
  188.4030  178.4510  140.4020 C   0  0  0  0  0  3  0  0  0  0  0  0
  187.5930  178.4530  141.5400 C   0  0  0  0  0  3  0  0  0  0  0  0
  189.5220  176.4580  141.2030 C   0  0  0  0  0  3  0  0  0  0  0  0
  188.7100  176.4600  142.3420 C   0  0  0  0  0  3  0  0  0  0  0  0
  182.5740  178.9010  139.8650 C   0  0  1  0  0  3  0  0  0  0  0  0
  184.2150  180.2240  139.1630 N   0  0  0  0  0  0  0  0  0  0  0  0
  182.9450  179.8420  138.9290 C   0  0  0  0  0  0  0  0  0  0  0  0
  183.6890  178.7400  140.6650 C   0  0  0  0  0  0  0  0  0  0  0  0
  184.6680  179.5480  140.2110 N   0  0  0  0  0  0  0  0  0  0  0  0
  181.2700  178.3760  140.0930 N   0  0  0  0  0  1  0  0  0  0  0  0
  182.1230  180.4460  137.9230 N   0  0  0  0  0  2  0  0  0  0  0  0
  181.1330  181.4530  138.1520 C   0  0  0  0  0  0  0  0  0  0  0  0
  180.6900  181.6650  139.3130 O   0  0  0  0  0  0  0  0  0  0  0  0
  180.6260  182.1630  137.0640 O   0  0  0  0  0  0  0  0  0  0  0  0
  180.7360  183.5750  136.9720 C   0  0  0  0  0  2  0  0  0  0  0  0
  180.8720  183.9780  135.5200 C   0  0  0  0  0  1  0  0  0  0  0  0
  187.3120  177.4740  147.6200 C   0  0  0  0  0  2  0  0  0  0  0  0
  188.4750  176.4920  147.6470 C   0  0  0  0  0  2  0  0  0  0  0  0
  189.8000  177.2370  147.6980 C   0  0  0  0  0  2  0  0  0  0  0  0
  190.9550  176.3310  147.2960 C   0  0  0  0  0  2  0  0  0  0  0  0
  191.7660  176.9690  146.1800 C   0  0  0  0  0  2  0  0  0  0  0  0
  191.2090  176.5610  144.8250 C   0  0  0  0  0  2  0  0  0  0  0  0
  191.5790  178.8600  143.9310 C   0  0  0  0  0  1  0  0  0  0  0  0
  191.8310  177.3810  143.7060 C   0  0  0  0  0  2  0  0  0  0  0  0
  1  6  1  6  0  0  0
  1  4  1  0  0  0  0
  2  8  1  0  0  0  0
  2  9  1  0  0  0  0
  3  7  2  0  0  0  0
  4 29  1  1  0  0  0
  5  4  1  0  0  0  0
  7  2  2  0  0  0  0
  8 11  1  6  0  0  0
  8  1  1  0  0  0  0
  9  5  1  0  0  0  0
 10 13  2  0  0  0  0
 10 15  1  0  0  0  0
 12 10  1  0  0  0  0
 13 14  1  0  0  0  0
 14 11  2  0  0  0  0
 15 16  2  0  0  0  0
 16 11  1  0  0  0  0
 17 22  1  1  0  0  0
 17 20  1  0  0  0  0
 18 21  1  0  0  0  0
 19 18  2  0  0  0  0
 19 17  1  0  0  0  0
 20  3  1  0  0  0  0
 21 20  2  0  0  0  0
 23 24  1  0  0  0  0
 23 19  1  0  0  0  0
 24 25  2  0  0  0  0
 26 24  1  0  0  0  0
 27 26  1  0  0  0  0
 28 27  1  0  0  0  0
 29 30  1  0  0  0  0
 30 31  1  0  0  0  0
 32 31  1  0  0  0  0
 33 32  1  0  0  0  0
 34 33  1  0  0  0  0
 36 35  1  0  0  0  0
 36 34  1  0  0  0  0
M  END
>  <MODEL>
1

>  <REMARK>
 VINA RESULT:      -8.1      0.000      0.000
  Name = 
  12 active torsions:
  status: ('A' for Active; 'I' for Inactive)
    1  A    between atoms: O_3  and  C_7
    2  A    between atoms: O_3  and  C_30
    3  A    between atoms: C_4  and  C_33
    4  A    between atoms: C_6  and  C_11
    5  A    between atoms: C_6  and  C_26
    6  A    between atoms: C_9  and  C_23
    7  A    between atoms: C_10  and  C_15
    8  A    between atoms: C_10  and  C_20
    9  A    between atoms: C_11  and  C_17
   10  A    between atoms: C_15  and  C_25
   11  A    between atoms: N_19  and  C_21
   12  A    between atoms: C_20  and  C_26
                            x       y       z     vdW  Elec       q    Type
                         _______ _______ _______ _____ _____    ______ ____

>  <TORSDO>
F 12

$$$$
=
 OpenBabel11032419283D

 36 38  0  0  1  0  0  0  0  0999 V2000
  189.0980  177.9980  143.6030 C   0  0  2  0  0  3  0  0  0  0  0  0
  189.2490  177.7090  141.0830 C   0  0  0  0  0  0  0  0  0  0  0  0
  188.9790  178.5790  138.6360 C   0  0  0  0  0  3  0  0  0  0  0  0
  190.6370  177.9980  143.5580 C   0  0  2  0  0  3  0  0  0  0  0  0
  191.2660  177.1220  142.4530 C   0  0  0  0  0  2  0  0  0  0  0  0
  188.5460  176.6430  144.0410 C   0  0  0  0  0  1  0  0  0  0  0  0
  189.1160  178.1420  139.8580 C   0  0  0  0  0  0  0  0  0  0  0  0
  188.5680  178.4300  142.2220 C   0  0  1  0  0  3  0  0  0  0  0  0
  190.2680  176.6530  141.3830 C   0  0  0  0  0  2  0  0  0  0  0  0
  184.2690  178.5000  141.9860 C   0  0  0  0  0  0  0  0  0  0  0  0
  187.0670  178.4600  142.1200 C   0  0  0  0  0  0  0  0  0  0  0  0
  182.7850  178.5230  141.9160 C   0  0  0  0  0  1  0  0  0  0  0  0
  185.0260  178.7420  140.8360 C   0  0  0  0  0  3  0  0  0  0  0  0
  186.4220  178.7210  140.9020 C   0  0  0  0  0  3  0  0  0  0  0  0
  184.9070  178.2390  143.2010 C   0  0  0  0  0  3  0  0  0  0  0  0
  186.3040  178.2180  143.2680 C   0  0  0  0  0  3  0  0  0  0  0  0
  188.2900  176.6470  137.0900 C   0  0  1  0  0  3  0  0  0  0  0  0
  186.4350  177.5920  136.3150 N   0  0  0  0  0  0  0  0  0  0  0  0
  187.2030  176.4880  136.2580 C   0  0  0  0  0  0  0  0  0  0  0  0
  188.1310  177.9040  137.6410 C   0  0  0  0  0  0  0  0  0  0  0  0
  187.0040  178.4550  137.1480 N   0  0  0  0  0  0  0  0  0  0  0  0
  189.2440  175.6590  137.4650 N   0  0  0  0  0  1  0  0  0  0  0  0
  186.8300  175.3170  135.5220 N   0  0  0  0  0  2  0  0  0  0  0  0
  186.1790  174.1650  136.0650 C   0  0  0  0  0  0  0  0  0  0  0  0
  186.1610  173.9650  137.3100 O   0  0  0  0  0  0  0  0  0  0  0  0
  185.6060  173.2380  135.1940 O   0  0  0  0  0  0  0  0  0  0  0  0
  185.5780  171.8490  135.4890 C   0  0  0  0  0  2  0  0  0  0  0  0
  184.2080  171.4700  136.0060 C   0  0  0  0  0  1  0  0  0  0  0  0
  191.3150  177.8570  144.9180 C   0  0  0  0  0  2  0  0  0  0  0  0
  191.6470  176.4100  145.2560 C   0  0  0  0  0  2  0  0  0  0  0  0
  191.3690  176.1280  146.7240 C   0  0  0  0  0  2  0  0  0  0  0  0
  190.5160  177.2270  147.3420 C   0  0  0  0  0  2  0  0  0  0  0  0
  189.1110  176.7180  147.6190 C   0  0  0  0  0  2  0  0  0  0  0  0
  188.1460  177.8850  147.7590 C   0  0  0  0  0  2  0  0  0  0  0  0
  186.0110  178.9040  146.9680 C   0  0  0  0  0  1  0  0  0  0  0  0
  186.9240  177.6970  146.8750 C   0  0  0  0  0  2  0  0  0  0  0  0
  1  6  1  6  0  0  0
  2  9  1  0  0  0  0
  2  8  1  0  0  0  0
  3  7  2  0  0  0  0
  4  1  1  0  0  0  0
  4 29  1  1  0  0  0
  5  4  1  0  0  0  0
  7  2  2  0  0  0  0
  8 11  1  1  0  0  0
  8  1  1  0  0  0  0
  9  5  1  0  0  0  0
 10 15  1  0  0  0  0
 11 16  1  0  0  0  0
 12 10  1  0  0  0  0
 13 14  1  0  0  0  0
 13 10  2  0  0  0  0
 14 11  2  0  0  0  0
 15 16  2  0  0  0  0
 17 22  1  1  0  0  0
 17 20  1  0  0  0  0
 18 21  1  0  0  0  0
 19 18  2  0  0  0  0
 19 17  1  0  0  0  0
 20  3  1  0  0  0  0
 21 20  2  0  0  0  0
 23 24  1  0  0  0  0
 23 19  1  0  0  0  0
 24 25  2  0  0  0  0
 26 27  1  0  0  0  0
 26 24  1  0  0  0  0
 27 28  1  0  0  0  0
 29 30  1  0  0  0  0
 30 31  1  0  0  0  0
 31 32  1  0  0  0  0
 32 33  1  0  0  0  0
 33 34  1  0  0  0  0
 36 35  1  0  0  0  0
 36 34  1  0  0  0  0
M  END
>  <MODEL>
2

>  <REMARK>
 VINA RESULT:      -7.8      3.945      6.252
  Name = 
  12 active torsions:
  status: ('A' for Active; 'I' for Inactive)
    1  A    between atoms: O_3  and  C_7
    2  A    between atoms: O_3  and  C_30
    3  A    between atoms: C_4  and  C_33
    4  A    between atoms: C_6  and  C_11
    5  A    between atoms: C_6  and  C_26
    6  A    between atoms: C_9  and  C_23
    7  A    between atoms: C_10  and  C_15
    8  A    between atoms: C_10  and  C_20
    9  A    between atoms: C_11  and  C_17
   10  A    between atoms: C_15  and  C_25
   11  A    between atoms: N_19  and  C_21
   12  A    between atoms: C_20  and  C_26
                            x       y       z     vdW  Elec       q    Type
                         _______ _______ _______ _____ _____    ______ ____

>  <TORSDO>
F 12

$$$$
=
 OpenBabel11032419283D

 36 38  0  0  1  0  0  0  0  0999 V2000
  186.1350  178.1230  145.3940 C   0  0  2  0  0  3  0  0  0  0  0  0
  187.1870  177.8870  143.0920 C   0  0  0  0  0  0  0  0  0  0  0  0
  187.8440  178.8210  140.7450 C   0  0  0  0  0  3  0  0  0  0  0  0
  187.5850  178.0770  145.9100 C   0  0  2  0  0  3  0  0  0  0  0  0
  188.5560  177.2080  145.0820 C   0  0  0  0  0  2  0  0  0  0  0  0
  185.4350  176.7750  145.5570 C   0  0  0  0  0  1  0  0  0  0  0  0
  187.5180  178.3520  141.9180 C   0  0  0  0  0  0  0  0  0  0  0  0
  186.1530  178.6020  143.9290 C   0  0  1  0  0  3  0  0  0  0  0  0
  188.0060  176.7940  143.7080 C   0  0  0  0  0  2  0  0  0  0  0  0
  182.2400  178.8470  142.1500 C   0  0  0  0  0  0  0  0  0  0  0  0
  184.7930  178.6800  143.2910 C   0  0  0  0  0  0  0  0  0  0  0  0
  180.8860  178.9370  141.5440 C   0  0  0  0  0  1  0  0  0  0  0  0
  183.2870  178.2590  141.4340 C   0  0  0  0  0  3  0  0  0  0  0  0
  184.5600  178.1740  142.0030 C   0  0  0  0  0  3  0  0  0  0  0  0
  182.4670  179.3520  143.4330 C   0  0  0  0  0  3  0  0  0  0  0  0
  183.7420  179.2670  144.0020 C   0  0  0  0  0  3  0  0  0  0  0  0
  188.1060  177.3390  138.6640 C   0  0  1  0  0  3  0  0  0  0  0  0
  186.0520  177.6420  137.8760 N   0  0  0  0  0  0  0  0  0  0  0  0
  187.2220  177.0140  137.6570 C   0  0  0  0  0  0  0  0  0  0  0  0
  187.4030  178.1960  139.4880 C   0  0  0  0  0  0  0  0  0  0  0  0
  186.1650  178.3660  138.9820 N   0  0  0  0  0  0  0  0  0  0  0  0
  189.3810  176.7560  138.9170 N   0  0  0  0  0  1  0  0  0  0  0  0
  187.4150  176.0730  136.5950 N   0  0  0  0  0  2  0  0  0  0  0  0
  186.7980  174.7860  136.5000 C   0  0  0  0  0  0  0  0  0  0  0  0
  186.2710  174.2520  137.5130 O   0  0  0  0  0  0  0  0  0  0  0  0
  186.8330  174.1060  135.2830 O   0  0  0  0  0  0  0  0  0  0  0  0
  187.2570  172.7550  135.1900 C   0  0  0  0  0  2  0  0  0  0  0  0
  186.0490  171.8540  135.0500 C   0  0  0  0  0  1  0  0  0  0  0  0
  187.7190  177.8840  147.4190 C   0  0  0  0  0  2  0  0  0  0  0  0
  189.1690  177.9150  147.8840 C   0  0  0  0  0  2  0  0  0  0  0  0
  189.8480  176.5850  147.5990 C   0  0  0  0  0  2  0  0  0  0  0  0
  191.3600  176.7440  147.5270 C   0  0  0  0  0  2  0  0  0  0  0  0
  191.9070  176.0630  146.2830 C   0  0  0  0  0  2  0  0  0  0  0  0
  191.7180  176.9570  145.0680 C   0  0  0  0  0  2  0  0  0  0  0  0
  191.5240  177.0500  142.5820 C   0  0  0  0  0  1  0  0  0  0  0  0
  191.6740  176.1400  143.7860 C   0  0  0  0  0  2  0  0  0  0  0  0
  1  6  1  6  0  0  0
  1  4  1  0  0  0  0
  2  9  1  0  0  0  0
  2  8  1  0  0  0  0
  3  7  2  0  0  0  0
  4 29  1  1  0  0  0
  5  4  1  0  0  0  0
  7  2  2  0  0  0  0
  8 11  1  6  0  0  0
  8  1  1  0  0  0  0
  9  5  1  0  0  0  0
 10 15  1  0  0  0  0
 11 16  1  0  0  0  0
 12 10  1  0  0  0  0
 13 14  1  0  0  0  0
 13 10  2  0  0  0  0
 14 11  2  0  0  0  0
 15 16  2  0  0  0  0
 17 22  1  1  0  0  0
 17 20  1  0  0  0  0
 18 21  1  0  0  0  0
 19 18  2  0  0  0  0
 19 17  1  0  0  0  0
 20  3  1  0  0  0  0
 21 20  2  0  0  0  0
 23 19  1  0  0  0  0
 24 23  1  0  0  0  0
 24 25  2  0  0  0  0
 26 24  1  0  0  0  0
 27 26  1  0  0  0  0
 28 27  1  0  0  0  0
 29 30  1  0  0  0  0
 31 30  1  0  0  0  0
 32 31  1  0  0  0  0
 33 32  1  0  0  0  0
 34 33  1  0  0  0  0
 35 36  1  0  0  0  0
 36 34  1  0  0  0  0
M  END
>  <MODEL>
3

>  <REMARK>
 VINA RESULT:      -6.9      3.596      5.801
  Name = 
  12 active torsions:
  status: ('A' for Active; 'I' for Inactive)
    1  A    between atoms: O_3  and  C_7
    2  A    between atoms: O_3  and  C_30
    3  A    between atoms: C_4  and  C_33
    4  A    between atoms: C_6  and  C_11
    5  A    between atoms: C_6  and  C_26
    6  A    between atoms: C_9  and  C_23
    7  A    between atoms: C_10  and  C_15
    8  A    between atoms: C_10  and  C_20
    9  A    between atoms: C_11  and  C_17
   10  A    between atoms: C_15  and  C_25
   11  A    between atoms: N_19  and  C_21
   12  A    between atoms: C_20  and  C_26
                            x       y       z     vdW  Elec       q    Type
                         _______ _______ _______ _____ _____    ______ ____

>  <TORSDO>
F 12

$$$$
=
 OpenBabel11032419283D

 36 38  0  0  1  0  0  0  0  0999 V2000
  185.3810  177.7890  143.1160 C   0  0  2  0  0  3  0  0  0  0  0  0
  183.1900  179.0690  142.9650 C   0  0  0  0  0  0  0  0  0  0  0  0
  180.6440  179.2380  142.4120 C   0  0  0  0  0  3  0  0  0  0  0  0
  185.1750  177.8880  144.6390 C   0  0  2  0  0  3  0  0  0  0  0  0
  184.4580  179.1650  145.1280 C   0  0  0  0  0  2  0  0  0  0  0  0
  186.3840  178.8250  142.6130 C   0  0  0  0  0  1  0  0  0  0  0  0
  181.9170  179.1560  142.6910 C   0  0  0  0  0  0  0  0  0  0  0  0
  184.0070  177.9180  142.4280 C   0  0  1  0  0  3  0  0  0  0  0  0
  183.7810  179.9690  144.0070 C   0  0  0  0  0  2  0  0  0  0  0  0
  184.2000  177.7730  138.1290 C   0  0  0  0  0  0  0  0  0  0  0  0
  184.0620  177.8520  140.9270 C   0  0  0  0  0  0  0  0  0  0  0  0
  184.2750  177.7310  136.6460 C   0  0  0  0  0  1  0  0  0  0  0  0
  183.3460  176.9010  138.8100 C   0  0  0  0  0  3  0  0  0  0  0  0
  183.2760  176.9400  140.2050 C   0  0  0  0  0  3  0  0  0  0  0  0
  184.9850  178.6830  138.8430 C   0  0  0  0  0  3  0  0  0  0  0  0
  184.9150  178.7220  140.2390 C   0  0  0  0  0  3  0  0  0  0  0  0
  180.2720  180.2400  140.0780 C   0  0  1  0  0  3  0  0  0  0  0  0
  178.9310  181.8900  140.7210 N   0  0  0  0  0  0  0  0  0  0  0  0
  179.5200  181.3160  139.6560 C   0  0  0  0  0  0  0  0  0  0  0  0
  180.1030  180.2080  141.4480 C   0  0  0  0  0  0  0  0  0  0  0  0
  179.2920  181.2230  141.8090 N   0  0  0  0  0  0  0  0  0  0  0  0
  180.9030  179.2550  139.2660 N   0  0  0  0  0  1  0  0  0  0  0  0
  179.2680  181.7310  138.3080 N   0  0  0  0  0  2  0  0  0  0  0  0
  180.2360  182.2850  137.4130 C   0  0  0  0  0  0  0  0  0  0  0  0
  181.3280  182.7410  137.8500 O   0  0  0  0  0  0  0  0  0  0  0  0
  179.9360  182.3610  136.0530 O   0  0  0  0  0  0  0  0  0  0  0  0
  180.2540  183.5060  135.2770 C   0  0  0  0  0  2  0  0  0  0  0  0
  179.2760  184.6170  135.5900 C   0  0  0  0  0  1  0  0  0  0  0  0
  186.3970  177.5090  145.4730 C   0  0  0  0  0  2  0  0  0  0  0  0
  186.4820  178.2990  146.7730 C   0  0  0  0  0  2  0  0  0  0  0  0
  187.8320  178.0850  147.4380 C   0  0  0  0  0  2  0  0  0  0  0  0
  188.5850  176.9300  146.7940 C   0  0  0  0  0  2  0  0  0  0  0  0
  189.9330  177.3990  146.2730 C   0  0  0  0  0  2  0  0  0  0  0  0
  190.1340  176.9320  144.8390 C   0  0  0  0  0  2  0  0  0  0  0  0
  191.5390  178.7370  143.8420 C   0  0  0  0  0  1  0  0  0  0  0  0
  190.1580  178.1090  143.8770 C   0  0  0  0  0  2  0  0  0  0  0  0
  1  6  1  6  0  0  0
  1  4  1  0  0  0  0
  2  9  1  0  0  0  0
  3  7  2  0  0  0  0
  4  5  1  0  0  0  0
  4 29  1  1  0  0  0
  7  2  2  0  0  0  0
  8 11  1  6  0  0  0
  8  2  1  0  0  0  0
  8  1  1  0  0  0  0
  9  5  1  0  0  0  0
 10 13  2  0  0  0  0
 10 15  1  0  0  0  0
 12 10  1  0  0  0  0
 13 14  1  0  0  0  0
 14 11  2  0  0  0  0
 15 16  2  0  0  0  0
 16 11  1  0  0  0  0
 17 22  1  6  0  0  0
 17 20  1  0  0  0  0
 18 21  1  0  0  0  0
 19 17  1  0  0  0  0
 19 18  2  0  0  0  0
 20 21  2  0  0  0  0
 20  3  1  0  0  0  0
 23 19  1  0  0  0  0
 24 25  2  0  0  0  0
 24 23  1  0  0  0  0
 26 24  1  0  0  0  0
 27 28  1  0  0  0  0
 27 26  1  0  0  0  0
 29 30  1  0  0  0  0
 30 31  1  0  0  0  0
 32 31  1  0  0  0  0
 33 32  1  0  0  0  0
 34 33  1  0  0  0  0
 35 36  1  0  0  0  0
 36 34  1  0  0  0  0
M  END
>  <MODEL>
4

>  <REMARK>
 VINA RESULT:      -6.7      2.064      3.451
  Name = 
  12 active torsions:
  status: ('A' for Active; 'I' for Inactive)
    1  A    between atoms: O_3  and  C_7
    2  A    between atoms: O_3  and  C_30
    3  A    between atoms: C_4  and  C_33
    4  A    between atoms: C_6  and  C_11
    5  A    between atoms: C_6  and  C_26
    6  A    between atoms: C_9  and  C_23
    7  A    between atoms: C_10  and  C_15
    8  A    between atoms: C_10  and  C_20
    9  A    between atoms: C_11  and  C_17
   10  A    between atoms: C_15  and  C_25
   11  A    between atoms: N_19  and  C_21
   12  A    between atoms: C_20  and  C_26
                            x       y       z     vdW  Elec       q    Type
                         _______ _______ _______ _____ _____    ______ ____

>  <TORSDO>
F 12

$$$$
=
 OpenBabel11032419283D

 36 38  0  0  1  0  0  0  0  0999 V2000
  185.5800  178.2530  145.2270 C   0  0  2  0  0  3  0  0  0  0  0  0
  187.0170  177.9020  143.1610 C   0  0  0  0  0  0  0  0  0  0  0  0
  188.5080  176.4280  141.6050 C   0  0  0  0  0  3  0  0  0  0  0  0
  184.4080  178.3250  144.2310 C   0  0  2  0  0  3  0  0  0  0  0  0
  184.7480  178.9250  142.8500 C   0  0  0  0  0  2  0  0  0  0  0  0
  186.0190  179.6430  145.6820 C   0  0  0  0  0  1  0  0  0  0  0  0
  187.7620  177.1670  142.3800 C   0  0  0  0  0  0  0  0  0  0  0  0
  186.7270  177.4580  144.5750 C   0  0  1  0  0  3  0  0  0  0  0  0
  186.2550  179.0530  142.5790 C   0  0  0  0  0  2  0  0  0  0  0  0
  190.2630  177.0800  147.0040 C   0  0  0  0  0  0  0  0  0  0  0  0
  187.9510  177.3220  145.4400 C   0  0  0  0  0  0  0  0  0  0  0  0
  191.4890  176.9540  147.8340 C   0  0  0  0  0  1  0  0  0  0  0  0
  189.0110  176.8070  147.5620 C   0  0  0  0  0  3  0  0  0  0  0  0
  187.8580  176.9260  146.7830 C   0  0  0  0  0  3  0  0  0  0  0  0
  190.3610  177.4740  145.6670 C   0  0  0  0  0  3  0  0  0  0  0  0
  189.2070  177.5940  144.8860 C   0  0  0  0  0  3  0  0  0  0  0  0
  190.5070  176.7520  140.0260 C   0  0  1  0  0  3  0  0  0  0  0  0
  191.9190  177.5200  141.5590 N   0  0  0  0  0  0  0  0  0  0  0  0
  191.7830  177.2220  140.2540 C   0  0  0  0  0  0  0  0  0  0  0  0
  189.8940  176.7820  141.2640 C   0  0  0  0  0  0  0  0  0  0  0  0
  190.7760  177.2440  142.1730 N   0  0  0  0  0  0  0  0  0  0  0  0
  189.8910  176.4990  138.7680 N   0  0  0  0  0  1  0  0  0  0  0  0
  192.8020  177.4890  139.2830 N   0  0  0  0  0  2  0  0  0  0  0  0
  193.2290  176.5890  138.2550 C   0  0  0  0  0  0  0  0  0  0  0  0
  192.9510  175.3610  138.3220 O   0  0  0  0  0  0  0  0  0  0  0  0
  194.0020  177.0810  137.2040 O   0  0  0  0  0  0  0  0  0  0  0  0
  194.1930  176.3450  136.0050 C   0  0  0  0  0  2  0  0  0  0  0  0
  195.1310  177.1020  135.0910 C   0  0  0  0  0  1  0  0  0  0  0  0
  183.0980  178.8420  144.8230 C   0  0  0  0  0  2  0  0  0  0  0  0
  182.1140  179.2940  143.7520 C   0  0  0  0  0  2  0  0  0  0  0  0
  180.7690  178.6100  143.9430 C   0  0  0  0  0  2  0  0  0  0  0  0
  180.0510  178.4310  142.6130 C   0  0  0  0  0  2  0  0  0  0  0  0
  180.5190  179.4740  141.6120 C   0  0  0  0  0  2  0  0  0  0  0  0
  180.8570  178.8140  140.2840 C   0  0  0  0  0  2  0  0  0  0  0  0
  182.8420  177.3110  140.1310 C   0  0  0  0  0  1  0  0  0  0  0  0
  182.3610  178.7480  140.0700 C   0  0  0  0  0  2  0  0  0  0  0  0
  1  6  1  6  0  0  0
  2  8  1  0  0  0  0
  3  7  2  0  0  0  0
  4 29  1  1  0  0  0
  4  1  1  0  0  0  0
  5  4  1  0  0  0  0
  7  2  2  0  0  0  0
  8  1  1  0  0  0  0
  8 11  1  1  0  0  0
  9  5  1  0  0  0  0
  9  2  1  0  0  0  0
 10 13  1  0  0  0  0
 10 12  1  0  0  0  0
 11 14  1  0  0  0  0
 14 13  2  0  0  0  0
 15 10  2  0  0  0  0
 16 11  2  0  0  0  0
 16 15  1  0  0  0  0
 17 22  1  6  0  0  0
 17 19  1  0  0  0  0
 17 20  1  0  0  0  0
 18 21  1  0  0  0  0
 19 18  2  0  0  0  0
 20  3  1  0  0  0  0
 20 21  2  0  0  0  0
 23 19  1  0  0  0  0
 24 25  2  0  0  0  0
 24 23  1  0  0  0  0
 26 24  1  0  0  0  0
 27 26  1  0  0  0  0
 28 27  1  0  0  0  0
 30 31  1  0  0  0  0
 30 29  1  0  0  0  0
 32 31  1  0  0  0  0
 33 32  1  0  0  0  0
 34 33  1  0  0  0  0
 36 35  1  0  0  0  0
 36 34  1  0  0  0  0
M  END
>  <MODEL>
5

>  <REMARK>
 VINA RESULT:      -6.7      4.647      8.682
  Name = 
  12 active torsions:
  status: ('A' for Active; 'I' for Inactive)
    1  A    between atoms: O_3  and  C_7
    2  A    between atoms: O_3  and  C_30
    3  A    between atoms: C_4  and  C_33
    4  A    between atoms: C_6  and  C_11
    5  A    between atoms: C_6  and  C_26
    6  A    between atoms: C_9  and  C_23
    7  A    between atoms: C_10  and  C_15
    8  A    between atoms: C_10  and  C_20
    9  A    between atoms: C_11  and  C_17
   10  A    between atoms: C_15  and  C_25
   11  A    between atoms: N_19  and  C_21
   12  A    between atoms: C_20  and  C_26
                            x       y       z     vdW  Elec       q    Type
                         _______ _______ _______ _____ _____    ______ ____

>  <TORSDO>
F 12

$$$$
=
 OpenBabel11032419283D

 36 38  0  0  1  0  0  0  0  0999 V2000
  189.1060  177.7820  142.6590 C   0  0  2  0  0  3  0  0  0  0  0  0
  188.2420  177.5180  140.2840 C   0  0  0  0  0  0  0  0  0  0  0  0
  187.1050  178.4390  138.1220 C   0  0  0  0  0  3  0  0  0  0  0  0
  190.5010  177.6700  142.0180 C   0  0  2  0  0  3  0  0  0  0  0  0
  190.5850  176.7650  140.7690 C   0  0  0  0  0  2  0  0  0  0  0  0
  188.6710  176.4650  143.2990 C   0  0  0  0  0  1  0  0  0  0  0  0
  187.6750  177.9770  139.2010 C   0  0  0  0  0  0  0  0  0  0  0  0
  188.1130  178.2710  141.5870 C   0  0  1  0  0  3  0  0  0  0  0  0
  189.2180  176.3860  140.1800 C   0  0  0  0  0  2  0  0  0  0  0  0
  184.0480  178.6990  142.9400 C   0  0  0  0  0  0  0  0  0  0  0  0
  186.6980  178.4130  142.0770 C   0  0  0  0  0  0  0  0  0  0  0  0
  182.6420  178.8490  143.3960 C   0  0  0  0  0  1  0  0  0  0  0  0
  185.0280  178.2530  143.8320 C   0  0  0  0  0  3  0  0  0  0  0  0
  186.3490  178.1120  143.4030 C   0  0  0  0  0  3  0  0  0  0  0  0
  184.3900  179.0010  141.6190 C   0  0  0  0  0  3  0  0  0  0  0  0
  185.7130  178.8590  141.1890 C   0  0  0  0  0  3  0  0  0  0  0  0
  185.7880  176.7850  136.6640 C   0  0  1  0  0  3  0  0  0  0  0  0
  183.7640  177.5040  137.2300 N   0  0  0  0  0  0  0  0  0  0  0  0
  184.4330  176.6030  136.4870 C   0  0  0  0  0  0  0  0  0  0  0  0
  185.8890  177.8430  137.5470 C   0  0  0  0  0  0  0  0  0  0  0  0
  184.6480  178.2620  137.8660 N   0  0  0  0  0  0  0  0  0  0  0  0
  186.8410  175.9390  136.2130 N   0  0  0  0  0  1  0  0  0  0  0  0
  183.7810  175.5660  135.7450 N   0  0  0  0  0  2  0  0  0  0  0  0
  182.9480  174.5440  136.2990 C   0  0  0  0  0  0  0  0  0  0  0  0
  182.9750  174.2940  137.5340 O   0  0  0  0  0  0  0  0  0  0  0  0
  182.1410  173.7920  135.4450 O   0  0  0  0  0  0  0  0  0  0  0  0
  180.7450  173.6530  135.6610 C   0  0  0  0  0  2  0  0  0  0  0  0
  180.4390  172.2370  136.0990 C   0  0  0  0  0  1  0  0  0  0  0  0
  191.6440  177.4600  143.0090 C   0  0  0  0  0  2  0  0  0  0  0  0
  191.4730  178.2850  144.2780 C   0  0  0  0  0  2  0  0  0  0  0  0
  191.3160  177.3760  145.4860 C   0  0  0  0  0  2  0  0  0  0  0  0
  190.2430  177.8990  146.4310 C   0  0  0  0  0  2  0  0  0  0  0  0
  189.4770  176.7450  147.0560 C   0  0  0  0  0  2  0  0  0  0  0  0
  188.2390  177.2620  147.7730 C   0  0  0  0  0  2  0  0  0  0  0  0
  186.3950  178.8700  147.2890 C   0  0  0  0  0  1  0  0  0  0  0  0
  187.1570  177.6610  146.7820 C   0  0  0  0  0  2  0  0  0  0  0  0
  1  6  1  6  0  0  0
  2  8  1  0  0  0  0
  3  7  2  0  0  0  0
  4  1  1  0  0  0  0
  4 29  1  1  0  0  0
  5  4  1  0  0  0  0
  7  2  2  0  0  0  0
  8 11  1  1  0  0  0
  8  1  1  0  0  0  0
  9  2  1  0  0  0  0
  9  5  1  0  0  0  0
 10 12  1  0  0  0  0
 10 13  1  0  0  0  0
 11 14  1  0  0  0  0
 14 13  2  0  0  0  0
 15 10  2  0  0  0  0
 16 15  1  0  0  0  0
 16 11  2  0  0  0  0
 17 22  1  1  0  0  0
 17 20  1  0  0  0  0
 18 21  1  0  0  0  0
 19 17  1  0  0  0  0
 19 18  2  0  0  0  0
 20 21  2  0  0  0  0
 20  3  1  0  0  0  0
 23 24  1  0  0  0  0
 23 19  1  0  0  0  0
 24 25  2  0  0  0  0
 26 27  1  0  0  0  0
 26 24  1  0  0  0  0
 27 28  1  0  0  0  0
 29 30  1  0  0  0  0
 30 31  1  0  0  0  0
 31 32  1  0  0  0  0
 32 33  1  0  0  0  0
 33 34  1  0  0  0  0
 36 35  1  0  0  0  0
 36 34  1  0  0  0  0
M  END
>  <MODEL>
6

>  <REMARK>
 VINA RESULT:      -6.3      3.572      5.722
  Name = 
  12 active torsions:
  status: ('A' for Active; 'I' for Inactive)
    1  A    between atoms: O_3  and  C_7
    2  A    between atoms: O_3  and  C_30
    3  A    between atoms: C_4  and  C_33
    4  A    between atoms: C_6  and  C_11
    5  A    between atoms: C_6  and  C_26
    6  A    between atoms: C_9  and  C_23
    7  A    between atoms: C_10  and  C_15
    8  A    between atoms: C_10  and  C_20
    9  A    between atoms: C_11  and  C_17
   10  A    between atoms: C_15  and  C_25
   11  A    between atoms: N_19  and  C_21
   12  A    between atoms: C_20  and  C_26
                            x       y       z     vdW  Elec       q    Type
                         _______ _______ _______ _____ _____    ______ ____

>  <TORSDO>
F 12

$$$$
=
 OpenBabel11032419283D

 36 38  0  0  1  0  0  0  0  0999 V2000
  185.3030  178.6300  143.4850 C   0  0  2  0  0  3  0  0  0  0  0  0
  183.0850  178.6270  142.2430 C   0  0  0  0  0  0  0  0  0  0  0  0
  181.3350  177.5400  140.6400 C   0  0  0  0  0  3  0  0  0  0  0  0
  184.4400  178.4370  144.7460 C   0  0  2  0  0  3  0  0  0  0  0  0
  183.0490  179.1060  144.7050 C   0  0  0  0  0  2  0  0  0  0  0  0
  185.7490  180.0810  143.3230 C   0  0  0  0  0  1  0  0  0  0  0  0
  182.2070  178.0850  141.4430 C   0  0  0  0  0  0  0  0  0  0  0  0
  184.5080  178.1210  142.2660 C   0  0  1  0  0  3  0  0  0  0  0  0
  182.6230  179.5760  143.3060 C   0  0  0  0  0  2  0  0  0  0  0  0
  186.5300  178.5330  138.4870 C   0  0  0  0  0  0  0  0  0  0  0  0
  185.2320  178.2640  140.9560 C   0  0  0  0  0  0  0  0  0  0  0  0
  187.2180  178.6780  137.1790 C   0  0  0  0  0  1  0  0  0  0  0  0
  187.2760  178.3050  139.6470 C   0  0  0  0  0  3  0  0  0  0  0  0
  186.6300  178.1690  140.8780 C   0  0  0  0  0  3  0  0  0  0  0  0
  185.1370  178.6270  138.5590 C   0  0  0  0  0  3  0  0  0  0  0  0
  184.4900  178.4920  139.7920 C   0  0  0  0  0  3  0  0  0  0  0  0
  180.1900  179.4060  139.2970 C   0  0  1  0  0  3  0  0  0  0  0  0
  180.5670  178.5410  137.2870 N   0  0  0  0  0  0  0  0  0  0  0  0
  180.0220  179.5830  137.9410 C   0  0  0  0  0  0  0  0  0  0  0  0
  180.8580  178.2030  139.4160 C   0  0  0  0  0  0  0  0  0  0  0  0
  181.0660  177.6990  138.1830 N   0  0  0  0  0  0  0  0  0  0  0  0
  179.9290  180.3500  140.3310 N   0  0  0  0  0  1  0  0  0  0  0  0
  179.4770  180.7250  137.2690 N   0  0  0  0  0  2  0  0  0  0  0  0
  180.1490  181.9720  137.0670 C   0  0  0  0  0  0  0  0  0  0  0  0
  181.1710  182.2660  137.7440 O   0  0  0  0  0  0  0  0  0  0  0  0
  179.6270  182.8800  136.1460 O   0  0  0  0  0  0  0  0  0  0  0  0
  180.3990  183.3770  135.0640 C   0  0  0  0  0  2  0  0  0  0  0  0
  180.8070  184.8060  135.3480 C   0  0  0  0  0  1  0  0  0  0  0  0
  185.1840  178.6380  146.0640 C   0  0  0  0  0  2  0  0  0  0  0  0
  186.3640  177.6890  146.2180 C   0  0  0  0  0  2  0  0  0  0  0  0
  187.1950  178.0650  147.4340 C   0  0  0  0  0  2  0  0  0  0  0  0
  188.6820  177.8910  147.1590 C   0  0  0  0  0  2  0  0  0  0  0  0
  188.8960  177.1270  145.8630 C   0  0  0  0  0  2  0  0  0  0  0  0
  189.6830  177.9770  144.8760 C   0  0  0  0  0  2  0  0  0  0  0  0
  188.5740  176.4000  143.2920 C   0  0  0  0  0  1  0  0  0  0  0  0
  189.1720  177.7840  143.4560 C   0  0  0  0  0  2  0  0  0  0  0  0
  1  6  1  6  0  0  0
  1  4  1  0  0  0  0
  2  8  1  0  0  0  0
  2  9  1  0  0  0  0
  3  7  2  0  0  0  0
  4 29  1  1  0  0  0
  5  4  1  0  0  0  0
  7  2  2  0  0  0  0
  8 11  1  6  0  0  0
  8  1  1  0  0  0  0
  9  5  1  0  0  0  0
 10 15  2  0  0  0  0
 10 13  1  0  0  0  0
 12 10  1  0  0  0  0
 13 14  2  0  0  0  0
 14 11  1  0  0  0  0
 15 16  1  0  0  0  0
 16 11  2  0  0  0  0
 17 20  1  0  0  0  0
 17 22  1  6  0  0  0
 18 19  2  0  0  0  0
 18 21  1  0  0  0  0
 19 17  1  0  0  0  0
 20  3  1  0  0  0  0
 21 20  2  0  0  0  0
 23 19  1  0  0  0  0
 24 23  1  0  0  0  0
 24 25  2  0  0  0  0
 26 24  1  0  0  0  0
 27 28  1  0  0  0  0
 27 26  1  0  0  0  0
 29 30  1  0  0  0  0
 30 31  1  0  0  0  0
 32 31  1  0  0  0  0
 33 32  1  0  0  0  0
 34 33  1  0  0  0  0
 35 36  1  0  0  0  0
 36 34  1  0  0  0  0
M  END
>  <MODEL>
7

>  <REMARK>
 VINA RESULT:      -6.2      1.982      3.062
  Name = 
  12 active torsions:
  status: ('A' for Active; 'I' for Inactive)
    1  A    between atoms: O_3  and  C_7
    2  A    between atoms: O_3  and  C_30
    3  A    between atoms: C_4  and  C_33
    4  A    between atoms: C_6  and  C_11
    5  A    between atoms: C_6  and  C_26
    6  A    between atoms: C_9  and  C_23
    7  A    between atoms: C_10  and  C_15
    8  A    between atoms: C_10  and  C_20
    9  A    between atoms: C_11  and  C_17
   10  A    between atoms: C_15  and  C_25
   11  A    between atoms: N_19  and  C_21
   12  A    between atoms: C_20  and  C_26
                            x       y       z     vdW  Elec       q    Type
                         _______ _______ _______ _____ _____    ______ ____

>  <TORSDO>
F 12

$$$$
=
 OpenBabel11032419283D

 36 38  0  0  1  0  0  0  0  0999 V2000
  185.1360  178.7340  143.7810 C   0  0  2  0  0  3  0  0  0  0  0  0
  183.3940  178.3920  141.9620 C   0  0  0  0  0  0  0  0  0  0  0  0
  182.3110  177.0120  140.0290 C   0  0  0  0  0  3  0  0  0  0  0  0
  183.9640  178.5090  144.7540 C   0  0  2  0  0  3  0  0  0  0  0  0
  182.5870  179.0020  144.2580 C   0  0  0  0  0  2  0  0  0  0  0  0
  185.4630  180.2180  143.6250 C   0  0  0  0  0  1  0  0  0  0  0  0
  182.8490  177.7030  140.9960 C   0  0  0  0  0  0  0  0  0  0  0  0
  184.7900  178.0640  142.4370 C   0  0  1  0  0  3  0  0  0  0  0  0
  182.5470  179.3370  142.7590 C   0  0  0  0  0  2  0  0  0  0  0  0
  187.8650  178.5040  139.4550 C   0  0  0  0  0  0  0  0  0  0  0  0
  185.8500  178.2200  141.3810 C   0  0  0  0  0  0  0  0  0  0  0  0
  188.9330  178.6530  138.4340 C   0  0  0  0  0  1  0  0  0  0  0  0
  186.5220  178.6270  139.0840 C   0  0  0  0  0  3  0  0  0  0  0  0
  185.5170  178.4860  140.0440 C   0  0  0  0  0  3  0  0  0  0  0  0
  188.2010  178.2400  140.7850 C   0  0  0  0  0  3  0  0  0  0  0  0
  187.1950  178.0980  141.7470 C   0  0  0  0  0  3  0  0  0  0  0  0
  181.1490  178.3520  138.1720 C   0  0  1  0  0  3  0  0  0  0  0  0
  182.6590  177.9590  136.5920 N   0  0  0  0  0  0  0  0  0  0  0  0
  181.5020  178.5920  136.8610 C   0  0  0  0  0  0  0  0  0  0  0  0
  182.1530  177.5410  138.6660 C   0  0  0  0  0  0  0  0  0  0  0  0
  183.0490  177.3140  137.6840 N   0  0  0  0  0  0  0  0  0  0  0  0
  180.1040  178.9740  138.9130 N   0  0  0  0  0  1  0  0  0  0  0  0
  180.8530  179.4610  135.9260 N   0  0  0  0  0  2  0  0  0  0  0  0
  180.8140  180.8890  136.0050 C   0  0  0  0  0  0  0  0  0  0  0  0
  181.0900  181.4790  137.0840 O   0  0  0  0  0  0  0  0  0  0  0  0
  180.4170  181.6180  134.8850 O   0  0  0  0  0  0  0  0  0  0  0  0
  179.6400  182.8010  134.9960 C   0  0  0  0  0  2  0  0  0  0  0  0
  180.5560  184.0030  135.0570 C   0  0  0  0  0  1  0  0  0  0  0  0
  184.2620  178.8740  146.2070 C   0  0  0  0  0  2  0  0  0  0  0  0
  185.3040  177.9580  146.8350 C   0  0  0  0  0  2  0  0  0  0  0  0
  186.5420  178.7500  147.2250 C   0  0  0  0  0  2  0  0  0  0  0  0
  187.7950  177.8910  147.1330 C   0  0  0  0  0  2  0  0  0  0  0  0
  188.0490  177.4750  145.6940 C   0  0  0  0  0  2  0  0  0  0  0  0
  189.5420  177.3230  145.4450 C   0  0  0  0  0  2  0  0  0  0  0  0
  191.3050  176.6870  143.7990 C   0  0  0  0  0  1  0  0  0  0  0  0
  189.8210  176.9230  144.0050 C   0  0  0  0  0  2  0  0  0  0  0  0
  1  6  1  6  0  0  0
  1  4  1  0  0  0  0
  2  8  1  0  0  0  0
  2  9  1  0  0  0  0
  3  7  2  0  0  0  0
  4 29  1  1  0  0  0
  5  4  1  0  0  0  0
  7  2  2  0  0  0  0
  8 11  1  6  0  0  0
  8  1  1  0  0  0  0
  9  5  1  0  0  0  0
 10 15  1  0  0  0  0
 11 16  1  0  0  0  0
 12 10  1  0  0  0  0
 13 10  2  0  0  0  0
 13 14  1  0  0  0  0
 14 11  2  0  0  0  0
 15 16  2  0  0  0  0
 17 20  1  0  0  0  0
 17 22  1  1  0  0  0
 18 19  2  0  0  0  0
 18 21  1  0  0  0  0
 19 17  1  0  0  0  0
 20  3  1  0  0  0  0
 21 20  2  0  0  0  0
 23 24  1  0  0  0  0
 23 19  1  0  0  0  0
 24 25  2  0  0  0  0
 26 27  1  0  0  0  0
 26 24  1  0  0  0  0
 27 28  1  0  0  0  0
 29 30  1  0  0  0  0
 30 31  1  0  0  0  0
 32 31  1  0  0  0  0
 33 32  1  0  0  0  0
 34 33  1  0  0  0  0
 35 36  1  0  0  0  0
 36 34  1  0  0  0  0
M  END
>  <MODEL>
8

>  <REMARK>
 VINA RESULT:      -6.0      1.813      2.787
  Name = 
  12 active torsions:
  status: ('A' for Active; 'I' for Inactive)
    1  A    between atoms: O_3  and  C_7
    2  A    between atoms: O_3  and  C_30
    3  A    between atoms: C_4  and  C_33
    4  A    between atoms: C_6  and  C_11
    5  A    between atoms: C_6  and  C_26
    6  A    between atoms: C_9  and  C_23
    7  A    between atoms: C_10  and  C_15
    8  A    between atoms: C_10  and  C_20
    9  A    between atoms: C_11  and  C_17
   10  A    between atoms: C_15  and  C_25
   11  A    between atoms: N_19  and  C_21
   12  A    between atoms: C_20  and  C_26
                            x       y       z     vdW  Elec       q    Type
                         _______ _______ _______ _____ _____    ______ ____

>  <TORSDO>
F 12

$$$$
=
 OpenBabel11032419283D

 36 38  0  0  1  0  0  0  0  0999 V2000
  187.0840  178.1820  140.8130 C   0  0  2  0  0  3  0  0  0  0  0  0
  188.9250  177.4040  139.2420 C   0  0  0  0  0  0  0  0  0  0  0  0
  190.5180  175.5770  138.2720 C   0  0  0  0  0  3  0  0  0  0  0  0
  186.2240  178.2730  139.5390 C   0  0  2  0  0  3  0  0  0  0  0  0
  186.9870  178.6520  138.2510 C   0  0  0  0  0  2  0  0  0  0  0  0
  187.6000  179.5530  141.2440 C   0  0  0  0  0  1  0  0  0  0  0  0
  189.7210  176.4920  138.7540 C   0  0  0  0  0  0  0  0  0  0  0  0
  188.2250  177.1770  140.5610 C   0  0  1  0  0  3  0  0  0  0  0  0
  188.5150  178.5600  138.3800 C   0  0  0  0  0  2  0  0  0  0  0  0
  190.8500  176.6560  143.9340 C   0  0  0  0  0  0  0  0  0  0  0  0
  189.1580  177.0000  141.7280 C   0  0  0  0  0  0  0  0  0  0  0  0
  191.7480  176.4720  145.1040 C   0  0  0  0  0  1  0  0  0  0  0  0
  191.3720  177.1070  142.7180 C   0  0  0  0  0  3  0  0  0  0  0  0
  190.5290  177.2800  141.6180 C   0  0  0  0  0  3  0  0  0  0  0  0
  189.4860  176.3770  144.0490 C   0  0  0  0  0  3  0  0  0  0  0  0
  188.6410  176.5490  142.9470 C   0  0  0  0  0  3  0  0  0  0  0  0
  192.9260  174.8670  137.7320 C   0  0  1  0  0  3  0  0  0  0  0  0
  193.9210  176.6330  138.6410 N   0  0  0  0  0  0  0  0  0  0  0  0
  194.1360  175.4790  137.9810 C   0  0  0  0  0  0  0  0  0  0  0  0
  191.9820  175.7130  138.2820 C   0  0  0  0  0  0  0  0  0  0  0  0
  192.6150  176.7690  138.8320 N   0  0  0  0  0  0  0  0  0  0  0  0
  192.6850  173.7320  136.9060 N   0  0  0  0  0  1  0  0  0  0  0  0
  195.4320  175.0690  137.5300 N   0  0  0  0  0  2  0  0  0  0  0  0
  196.1580  173.9320  138.0060 C   0  0  0  0  0  0  0  0  0  0  0  0
  195.8390  173.3760  139.0920 O   0  0  0  0  0  0  0  0  0  0  0  0
  197.2570  173.4770  137.2780 O   0  0  0  0  0  0  0  0  0  0  0  0
  197.2530  173.4410  135.8590 C   0  0  0  0  0  2  0  0  0  0  0  0
  198.6760  173.3580  135.3510 C   0  0  0  0  0  1  0  0  0  0  0  0
  184.9020  179.0170  139.7140 C   0  0  0  0  0  2  0  0  0  0  0  0
  183.9220  178.2610  140.6030 C   0  0  0  0  0  2  0  0  0  0  0  0
  183.7100  179.0040  141.9120 C   0  0  0  0  0  2  0  0  0  0  0  0
  184.2100  178.1870  143.0950 C   0  0  0  0  0  2  0  0  0  0  0  0
  185.0740  179.0440  144.0050 C   0  0  0  0  0  2  0  0  0  0  0  0
  184.5400  179.0030  145.4290 C   0  0  0  0  0  2  0  0  0  0  0  0
  186.7470  177.9290  145.8750 C   0  0  0  0  0  1  0  0  0  0  0  0
  185.6680  178.8360  146.4340 C   0  0  0  0  0  2  0  0  0  0  0  0
  1  6  1  6  0  0  0
  2  8  1  0  0  0  0
  3 20  1  0  0  0  0
  3  7  2  0  0  0  0
  4 29  1  1  0  0  0
  4  1  1  0  0  0  0
  5  9  1  0  0  0  0
  5  4  1  0  0  0  0
  7  2  2  0  0  0  0
  8  1  1  0  0  0  0
  8 11  1  1  0  0  0
  9  2  1  0  0  0  0
 10 15  1  0  0  0  0
 10 12  1  0  0  0  0
 11 16  1  0  0  0  0
 13 10  2  0  0  0  0
 14 11  2  0  0  0  0
 14 13  1  0  0  0  0
 16 15  2  0  0  0  0
 17 22  1  6  0  0  0
 17 19  1  0  0  0  0
 17 20  1  0  0  0  0
 18 21  1  0  0  0  0
 19 18  2  0  0  0  0
 20 21  2  0  0  0  0
 23 19  1  0  0  0  0
 23 24  1  0  0  0  0
 24 25  2  0  0  0  0
 26 24  1  0  0  0  0
 27 26  1  0  0  0  0
 28 27  1  0  0  0  0
 29 30  1  0  0  0  0
 30 31  1  0  0  0  0
 31 32  1  0  0  0  0
 32 33  1  0  0  0  0
 33 34  1  0  0  0  0
 34 36  1  0  0  0  0
 35 36  1  0  0  0  0
M  END
>  <MODEL>
9

>  <REMARK>
 VINA RESULT:      -6.0      6.182      9.928
  Name = 
  12 active torsions:
  status: ('A' for Active; 'I' for Inactive)
    1  A    between atoms: O_3  and  C_7
    2  A    between atoms: O_3  and  C_30
    3  A    between atoms: C_4  and  C_33
    4  A    between atoms: C_6  and  C_11
    5  A    between atoms: C_6  and  C_26
    6  A    between atoms: C_9  and  C_23
    7  A    between atoms: C_10  and  C_15
    8  A    between atoms: C_10  and  C_20
    9  A    between atoms: C_11  and  C_17
   10  A    between atoms: C_15  and  C_25
   11  A    between atoms: N_19  and  C_21
   12  A    between atoms: C_20  and  C_26
                            x       y       z     vdW  Elec       q    Type
                         _______ _______ _______ _____ _____    ______ ____

>  <TORSDO>
F 12

$$$$
