=
 OpenBabel11032420353D

 27 29  0  0  1  0  0  0  0  0999 V2000
  187.1150  178.4600  141.8150 C   0  0  0  0  0  0  0  0  0  0  0  0
  188.2980  178.6180  140.9220 C   0  0  1  0  0  3  0  0  0  0  0  0
  187.4900  178.0560  143.0110 C   0  0  0  0  0  0  0  0  0  0  0  0
  185.6910  178.8100  141.5010 C   0  0  0  0  0  2  0  0  0  0  0  0
  189.4140  178.1790  141.8350 C   0  0  0  0  0  3  0  0  0  0  0  0
  184.7400  178.0950  142.4750 C   0  0  1  0  0  3  0  0  0  0  0  0
  185.2230  178.2660  143.9240 C   0  0  0  0  0  2  0  0  0  0  0  0
  188.9290  177.8580  143.0330 C   0  0  0  0  0  0  0  0  0  0  0  0
  186.5860  177.8470  144.0540 O   0  0  0  0  0  0  0  0  0  0  0  0
  190.9580  176.7290  143.9680 C   0  0  0  0  0  3  0  0  0  0  0  0
  191.6960  176.2990  145.0260 N   0  0  0  0  0  0  0  0  0  0  0  0
  191.2840  176.4890  146.3080 C   0  0  0  0  0  0  0  0  0  0  0  0
  190.0750  177.1400  146.5640 C   0  0  0  0  0  3  0  0  0  0  0  0
  189.7370  177.3870  144.1760 C   0  0  0  0  0  0  0  0  0  0  0  0
  189.3030  177.5880  145.4920 C   0  0  0  0  0  3  0  0  0  0  0  0
  192.0910  176.0200  147.3990 C   0  0  0  0  0  0  0  0  0  0  0  0
  192.7420  175.6430  148.2780 N   0  0  0  0  0  0  0  0  0  0  0  0
  188.9770  179.2340  138.2140 O   0  0  0  0  0  0  0  0  0  0  0  0
  188.5550  178.0730  138.4640 C   0  0  0  0  0  0  0  0  0  0  0  0
  188.4390  177.1250  137.4120 N   0  0  0  0  0  1  0  0  0  0  0  0
  188.1890  177.7030  139.7940 N   0  0  0  0  0  2  0  0  0  0  0  0
  183.4520  178.6140  142.3420 O   0  0  0  0  0  0  0  0  0  0  0  0
  183.0540  178.9230  143.6440 C   0  0  0  0  0  2  0  0  0  0  0  0
  181.5400  178.9770  143.7220 C   0  0  0  0  0  2  0  0  0  0  0  0
  180.9960  178.8520  142.4430 O   0  0  0  0  0  0  0  0  0  0  0  0
  179.6870  177.7650  143.9540 O   0  0  0  0  0  1  0  0  0  0  0  0
  179.7600  178.2410  142.6460 C   0  0  0  0  0  2  0  0  0  0  0  0
  1  3  2  0  0  0  0
  2 21  1  6  0  0  0
  2  1  1  0  0  0  0
  2  5  1  0  0  0  0
  3  8  1  0  0  0  0
  3  9  1  0  0  0  0
  4  1  1  0  0  0  0
  4  6  1  0  0  0  0
  5  8  2  0  0  0  0
  6 22  1  1  0  0  0
  6  7  1  0  0  0  0
  7  9  1  0  0  0  0
  8 14  1  0  0  0  0
 10 14  2  0  0  0  0
 10 11  1  0  0  0  0
 11 12  2  0  0  0  0
 12 13  1  0  0  0  0
 12 16  1  0  0  0  0
 14 15  1  0  0  0  0
 15 13  2  0  0  0  0
 16 17  3  0  0  0  0
 18 19  2  0  0  0  0
 19 21  1  0  0  0  0
 20 19  1  0  0  0  0
 22 23  1  0  0  0  0
 23 24  1  0  0  0  0
 25 27  1  0  0  0  0
 25 24  1  0  0  0  0
 27 26  1  0  0  0  0
M  END
>  <MODEL>
1

>  <REMARK>
 VINA RESULT:      -7.6      0.000      0.000
  Name = 
  8 active torsions:
  status: ('A' for Active; 'I' for Inactive)
    1  A    between atoms: C_5  and  O_23
    2  A    between atoms: C_6  and  C_8
    3  A    between atoms: C_7  and  N_26
    4  A    between atoms: O_14  and  C_15
    5  A    between atoms: O_14  and  C_19
    6  A    between atoms: C_19  and  C_27
    7  A    between atoms: C_21  and  C_22
    8  A    between atoms: O_23  and  C_27
                            x       y       z     vdW  Elec       q    Type
                         _______ _______ _______ _____ _____    ______ ____

>  <TORSDO>
F 8

$$$$
=
 OpenBabel11032420353D

 27 29  0  0  1  0  0  0  0  0999 V2000
  189.6320  177.6560  144.3900 C   0  0  0  0  0  0  0  0  0  0  0  0
  189.4890  177.8190  145.8650 C   0  0  1  0  0  3  0  0  0  0  0  0
  188.4710  177.8260  143.7930 C   0  0  0  0  0  0  0  0  0  0  0  0
  190.9030  177.4510  143.6220 C   0  0  0  0  0  2  0  0  0  0  0  0
  188.0080  178.0680  145.9890 C   0  0  0  0  0  3  0  0  0  0  0  0
  190.5960  176.8870  142.2250 C   0  0  1  0  0  3  0  0  0  0  0  0
  189.4690  177.6890  141.5550 C   0  0  0  0  0  2  0  0  0  0  0  0
  187.4390  178.0670  144.7850 C   0  0  0  0  0  0  0  0  0  0  0  0
  188.3190  177.7510  142.4060 O   0  0  0  0  0  0  0  0  0  0  0  0
  185.4680  178.1090  143.2410 C   0  0  0  0  0  3  0  0  0  0  0  0
  184.1430  178.3090  143.0130 N   0  0  0  0  0  0  0  0  0  0  0  0
  183.2950  178.6780  144.0100 C   0  0  0  0  0  0  0  0  0  0  0  0
  183.7790  178.8610  145.3070 C   0  0  0  0  0  3  0  0  0  0  0  0
  186.0000  178.2820  144.5270 C   0  0  0  0  0  0  0  0  0  0  0  0
  185.1360  178.6620  145.5610 C   0  0  0  0  0  3  0  0  0  0  0  0
  181.9020  178.8800  143.7290 C   0  0  0  0  0  0  0  0  0  0  0  0
  180.7780  179.0430  143.5030 N   0  0  0  0  0  0  0  0  0  0  0  0
  192.0440  177.2070  146.9920 O   0  0  0  0  0  0  0  0  0  0  0  0
  191.1370  176.3360  147.0850 C   0  0  0  0  0  0  0  0  0  0  0  0
  191.4090  175.1040  147.7390 N   0  0  0  0  0  1  0  0  0  0  0  0
  189.8420  176.5740  146.5340 N   0  0  0  0  0  2  0  0  0  0  0  0
  191.7440  176.9350  141.4340 O   0  0  0  0  0  0  0  0  0  0  0  0
  191.2900  177.3010  140.1650 C   0  0  0  0  0  2  0  0  0  0  0  0
  192.3170  176.9120  139.1180 C   0  0  0  0  0  2  0  0  0  0  0  0
  191.6840  176.6890  137.8950 O   0  0  0  0  0  0  0  0  0  0  0  0
  190.9560  174.5350  138.0150 O   0  0  0  0  0  1  0  0  0  0  0  0
  190.6000  175.8700  138.2050 C   0  0  0  0  0  2  0  0  0  0  0  0
  1  2  1  0  0  0  0
  2  5  1  0  0  0  0
  2 21  1  1  0  0  0
  3  1  2  0  0  0  0
  3  8  1  0  0  0  0
  4  1  1  0  0  0  0
  6 22  1  6  0  0  0
  6  4  1  0  0  0  0
  7  6  1  0  0  0  0
  7  9  1  0  0  0  0
  8  5  2  0  0  0  0
  9  3  1  0  0  0  0
 10 14  1  0  0  0  0
 11 10  2  0  0  0  0
 11 12  1  0  0  0  0
 12 13  2  0  0  0  0
 13 15  1  0  0  0  0
 14  8  1  0  0  0  0
 14 15  2  0  0  0  0
 16 12  1  0  0  0  0
 17 16  3  0  0  0  0
 18 19  2  0  0  0  0
 19 20  1  0  0  0  0
 21 19  1  0  0  0  0
 23 22  1  0  0  0  0
 24 23  1  0  0  0  0
 25 27  1  0  0  0  0
 25 24  1  0  0  0  0
 26 27  1  0  0  0  0
M  END
>  <MODEL>
2

>  <REMARK>
 VINA RESULT:      -7.3      3.319      8.194
  Name = 
  8 active torsions:
  status: ('A' for Active; 'I' for Inactive)
    1  A    between atoms: C_5  and  O_23
    2  A    between atoms: C_6  and  C_8
    3  A    between atoms: C_7  and  N_26
    4  A    between atoms: O_14  and  C_15
    5  A    between atoms: O_14  and  C_19
    6  A    between atoms: C_19  and  C_27
    7  A    between atoms: C_21  and  C_22
    8  A    between atoms: O_23  and  C_27
                            x       y       z     vdW  Elec       q    Type
                         _______ _______ _______ _____ _____    ______ ____

>  <TORSDO>
F 8

$$$$
=
 OpenBabel11032420353D

 27 29  0  0  1  0  0  0  0  0999 V2000
  183.3440  178.7300  141.6260 C   0  0  0  0  0  0  0  0  0  0  0  0
  182.1420  178.6340  142.5030 C   0  0  1  0  0  3  0  0  0  0  0  0
  184.4460  178.6370  142.3410 C   0  0  0  0  0  0  0  0  0  0  0  0
  183.3690  178.7990  140.1280 C   0  0  0  0  0  2  0  0  0  0  0  0
  182.7820  178.5150  143.8620 C   0  0  0  0  0  3  0  0  0  0  0  0
  184.7250  179.3350  139.6410 C   0  0  1  0  0  3  0  0  0  0  0  0
  185.8780  178.6070  140.3490 C   0  0  0  0  0  2  0  0  0  0  0  0
  184.1090  178.5210  143.7490 C   0  0  0  0  0  0  0  0  0  0  0  0
  185.7210  178.6750  141.7710 O   0  0  0  0  0  0  0  0  0  0  0  0
  184.7470  178.9780  146.1260 C   0  0  0  0  0  3  0  0  0  0  0  0
  185.6240  178.8800  147.1600 N   0  0  0  0  0  0  0  0  0  0  0  0
  186.8180  178.2440  147.0240 C   0  0  0  0  0  0  0  0  0  0  0  0
  187.1700  177.6710  145.7990 C   0  0  0  0  0  3  0  0  0  0  0  0
  185.0560  178.4190  144.8770 C   0  0  0  0  0  0  0  0  0  0  0  0
  186.2830  177.7620  144.7260 C   0  0  0  0  0  3  0  0  0  0  0  0
  187.7190  178.1600  148.1390 C   0  0  0  0  0  0  0  0  0  0  0  0
  188.4460  178.0940  149.0370 N   0  0  0  0  0  0  0  0  0  0  0  0
  179.6810  178.9640  141.0860 O   0  0  0  0  0  0  0  0  0  0  0  0
  180.1430  179.9620  141.7010 C   0  0  0  0  0  0  0  0  0  0  0  0
  179.4350  181.1950  141.6760 N   0  0  0  0  0  1  0  0  0  0  0  0
  181.3740  179.8680  142.4200 N   0  0  0  0  0  2  0  0  0  0  0  0
  184.8320  179.1610  138.2610 O   0  0  0  0  0  0  0  0  0  0  0  0
  185.5360  177.9650  138.1050 C   0  0  0  0  0  2  0  0  0  0  0  0
  186.4850  178.0760  136.9260 C   0  0  0  0  0  2  0  0  0  0  0  0
  187.2730  179.2190  137.0590 O   0  0  0  0  0  0  0  0  0  0  0  0
  189.0100  179.2180  138.5310 O   0  0  0  0  0  1  0  0  0  0  0  0
  188.5560  178.7330  137.3050 C   0  0  0  0  0  2  0  0  0  0  0  0
  1  3  2  0  0  0  0
  1  2  1  0  0  0  0
  2 21  1  1  0  0  0
  2  5  1  0  0  0  0
  3  8  1  0  0  0  0
  4  1  1  0  0  0  0
  6 22  1  6  0  0  0
  6  4  1  0  0  0  0
  6  7  1  0  0  0  0
  7  9  1  0  0  0  0
  8  5  2  0  0  0  0
  8 14  1  0  0  0  0
  9  3  1  0  0  0  0
 10 11  1  0  0  0  0
 12 11  2  0  0  0  0
 12 16  1  0  0  0  0
 13 12  1  0  0  0  0
 14 10  2  0  0  0  0
 15 14  1  0  0  0  0
 15 13  2  0  0  0  0
 16 17  3  0  0  0  0
 18 19  2  0  0  0  0
 19 21  1  0  0  0  0
 20 19  1  0  0  0  0
 23 22  1  0  0  0  0
 24 25  1  0  0  0  0
 24 23  1  0  0  0  0
 25 27  1  0  0  0  0
 27 26  1  0  0  0  0
M  END
>  <MODEL>
3

>  <REMARK>
 VINA RESULT:      -7.2      3.627      6.555
  Name = 
  8 active torsions:
  status: ('A' for Active; 'I' for Inactive)
    1  A    between atoms: C_5  and  O_23
    2  A    between atoms: C_6  and  C_8
    3  A    between atoms: C_7  and  N_26
    4  A    between atoms: O_14  and  C_15
    5  A    between atoms: O_14  and  C_19
    6  A    between atoms: C_19  and  C_27
    7  A    between atoms: C_21  and  C_22
    8  A    between atoms: O_23  and  C_27
                            x       y       z     vdW  Elec       q    Type
                         _______ _______ _______ _____ _____    ______ ____

>  <TORSDO>
F 8

$$$$
=
 OpenBabel11032420353D

 27 29  0  0  1  0  0  0  0  0999 V2000
  186.2750  177.9110  144.5440 C   0  0  0  0  0  0  0  0  0  0  0  0
  187.2550  177.1810  145.3980 C   0  0  1  0  0  3  0  0  0  0  0  0
  186.6950  177.9570  143.2970 C   0  0  0  0  0  0  0  0  0  0  0  0
  184.9300  178.4310  144.9530 C   0  0  0  0  0  2  0  0  0  0  0  0
  188.3360  176.8650  144.3970 C   0  0  0  0  0  3  0  0  0  0  0  0
  184.4400  179.4880  143.9490 C   0  0  1  0  0  3  0  0  0  0  0  0
  184.6110  178.9820  142.5080 C   0  0  0  0  0  2  0  0  0  0  0  0
  187.9970  177.3210  143.1930 C   0  0  0  0  0  0  0  0  0  0  0  0
  185.9600  178.5640  142.2760 O   0  0  0  0  0  0  0  0  0  0  0  0
  189.9680  176.3840  141.9670 C   0  0  0  0  0  3  0  0  0  0  0  0
  190.7190  176.2660  140.8400 N   0  0  0  0  0  0  0  0  0  0  0  0
  190.3870  176.9130  139.6910 C   0  0  0  0  0  0  0  0  0  0  0  0
  189.2500  177.7230  139.6480 C   0  0  0  0  0  3  0  0  0  0  0  0
  188.8180  177.1870  141.9730 C   0  0  0  0  0  0  0  0  0  0  0  0
  188.4670  177.8580  140.7950 C   0  0  0  0  0  3  0  0  0  0  0  0
  191.2050  176.7630  138.5200 C   0  0  0  0  0  0  0  0  0  0  0  0
  191.8640  176.6430  137.5770 N   0  0  0  0  0  0  0  0  0  0  0  0
  188.6980  176.3700  147.7290 O   0  0  0  0  0  0  0  0  0  0  0  0
  188.4960  177.6030  147.5620 C   0  0  0  0  0  0  0  0  0  0  0  0
  188.9890  178.5330  148.5190 N   0  0  0  0  0  1  0  0  0  0  0  0
  187.7730  178.0740  146.4250 N   0  0  0  0  0  2  0  0  0  0  0  0
  183.0980  179.7820  144.1910 O   0  0  0  0  0  0  0  0  0  0  0  0
  182.3900  179.0070  143.2700 C   0  0  0  0  0  2  0  0  0  0  0  0
  180.9620  178.8180  143.7460 C   0  0  0  0  0  2  0  0  0  0  0  0
  180.1140  178.6640  142.6500 O   0  0  0  0  0  0  0  0  0  0  0  0
  179.7490  180.8770  142.2650 O   0  0  0  0  0  1  0  0  0  0  0  0
  180.4180  179.7390  141.8170 C   0  0  0  0  0  2  0  0  0  0  0  0
  1  4  1  0  0  0  0
  1  2  1  0  0  0  0
  2 21  1  1  0  0  0
  3  1  2  0  0  0  0
  5  2  1  0  0  0  0
  6 22  1  1  0  0  0
  6  4  1  0  0  0  0
  7  6  1  0  0  0  0
  8  3  1  0  0  0  0
  8  5  2  0  0  0  0
  9  7  1  0  0  0  0
  9  3  1  0  0  0  0
 10 14  1  0  0  0  0
 11 10  2  0  0  0  0
 12 11  1  0  0  0  0
 13 12  2  0  0  0  0
 13 15  1  0  0  0  0
 14  8  1  0  0  0  0
 15 14  2  0  0  0  0
 16 12  1  0  0  0  0
 17 16  3  0  0  0  0
 19 18  2  0  0  0  0
 19 20  1  0  0  0  0
 21 19  1  0  0  0  0
 23 24  1  0  0  0  0
 23 22  1  0  0  0  0
 25 24  1  0  0  0  0
 27 26  1  0  0  0  0
 27 25  1  0  0  0  0
M  END
>  <MODEL>
4

>  <REMARK>
 VINA RESULT:      -7.2      2.415      5.386
  Name = 
  8 active torsions:
  status: ('A' for Active; 'I' for Inactive)
    1  A    between atoms: C_5  and  O_23
    2  A    between atoms: C_6  and  C_8
    3  A    between atoms: C_7  and  N_26
    4  A    between atoms: O_14  and  C_15
    5  A    between atoms: O_14  and  C_19
    6  A    between atoms: C_19  and  C_27
    7  A    between atoms: C_21  and  C_22
    8  A    between atoms: O_23  and  C_27
                            x       y       z     vdW  Elec       q    Type
                         _______ _______ _______ _____ _____    ______ ____

>  <TORSDO>
F 8

$$$$
=
 OpenBabel11032420353D

 27 29  0  0  1  0  0  0  0  0999 V2000
  188.5770  177.6690  141.0900 C   0  0  0  0  0  0  0  0  0  0  0  0
  188.2750  178.5310  139.9120 C   0  0  1  0  0  3  0  0  0  0  0  0
  189.6660  176.9610  140.8770 C   0  0  0  0  0  0  0  0  0  0  0  0
  187.8600  177.6530  142.4070 C   0  0  0  0  0  2  0  0  0  0  0  0
  189.3830  178.1360  138.9700 C   0  0  0  0  0  3  0  0  0  0  0  0
  188.1680  176.3520  143.1650 C   0  0  1  0  0  3  0  0  0  0  0  0
  189.6790  176.0710  143.1630 C   0  0  0  0  0  2  0  0  0  0  0  0
  190.1730  177.2290  139.5430 C   0  0  0  0  0  0  0  0  0  0  0  0
  190.1920  176.0820  141.8270 O   0  0  0  0  0  0  0  0  0  0  0  0
  192.6490  177.0790  139.2110 C   0  0  0  0  0  3  0  0  0  0  0  0
  193.7370  176.5120  138.6240 N   0  0  0  0  0  0  0  0  0  0  0  0
  193.6160  175.4890  137.7370 C   0  0  0  0  0  0  0  0  0  0  0  0
  192.3510  174.9950  137.4070 C   0  0  0  0  0  3  0  0  0  0  0  0
  191.3600  176.6180  138.9100 C   0  0  0  0  0  0  0  0  0  0  0  0
  191.2230  175.5650  137.9970 C   0  0  0  0  0  3  0  0  0  0  0  0
  194.7880  174.9150  137.1380 C   0  0  0  0  0  0  0  0  0  0  0  0
  195.7320  174.4530  136.6550 N   0  0  0  0  0  0  0  0  0  0  0  0
  185.7440  179.5770  140.7290 O   0  0  0  0  0  0  0  0  0  0  0  0
  185.7550  178.7280  139.7970 C   0  0  0  0  0  0  0  0  0  0  0  0
  184.5320  178.3310  139.1910 N   0  0  0  0  0  1  0  0  0  0  0  0
  186.9860  178.1590  139.3480 N   0  0  0  0  0  2  0  0  0  0  0  0
  187.7070  176.4510  144.4780 O   0  0  0  0  0  0  0  0  0  0  0  0
  188.3560  177.5710  145.0020 C   0  0  0  0  0  2  0  0  0  0  0  0
  187.7470  177.9410  146.3400 C   0  0  0  0  0  2  0  0  0  0  0  0
  186.3870  177.6280  146.3440 O   0  0  0  0  0  0  0  0  0  0  0  0
  184.3850  178.6950  146.5270 O   0  0  0  0  0  1  0  0  0  0  0  0
  185.7440  178.8620  146.2680 C   0  0  0  0  0  2  0  0  0  0  0  0
  1  4  1  0  0  0  0
  2 21  1  6  0  0  0
  2  1  1  0  0  0  0
  3  1  2  0  0  0  0
  3  9  1  0  0  0  0
  4  6  1  0  0  0  0
  5  8  2  0  0  0  0
  5  2  1  0  0  0  0
  6 22  1  1  0  0  0
  7  6  1  0  0  0  0
  8  3  1  0  0  0  0
  9  7  1  0  0  0  0
 11 10  2  0  0  0  0
 12 11  1  0  0  0  0
 13 12  2  0  0  0  0
 13 15  1  0  0  0  0
 14 10  1  0  0  0  0
 14  8  1  0  0  0  0
 15 14  2  0  0  0  0
 16 12  1  0  0  0  0
 17 16  3  0  0  0  0
 19 18  2  0  0  0  0
 20 19  1  0  0  0  0
 21 19  1  0  0  0  0
 22 23  1  0  0  0  0
 23 24  1  0  0  0  0
 24 25  1  0  0  0  0
 27 25  1  0  0  0  0
 27 26  1  0  0  0  0
M  END
>  <MODEL>
5

>  <REMARK>
 VINA RESULT:      -7.1      3.784      6.034
  Name = 
  8 active torsions:
  status: ('A' for Active; 'I' for Inactive)
    1  A    between atoms: C_5  and  O_23
    2  A    between atoms: C_6  and  C_8
    3  A    between atoms: C_7  and  N_26
    4  A    between atoms: O_14  and  C_15
    5  A    between atoms: O_14  and  C_19
    6  A    between atoms: C_19  and  C_27
    7  A    between atoms: C_21  and  C_22
    8  A    between atoms: O_23  and  C_27
                            x       y       z     vdW  Elec       q    Type
                         _______ _______ _______ _____ _____    ______ ____

>  <TORSDO>
F 8

$$$$
=
 OpenBabel11032420353D

 27 29  0  0  1  0  0  0  0  0999 V2000
  188.4590  177.1630  144.4350 C   0  0  0  0  0  0  0  0  0  0  0  0
  188.4910  176.7630  142.9990 C   0  0  1  0  0  3  0  0  0  0  0  0
  187.2810  177.6590  144.7490 C   0  0  0  0  0  0  0  0  0  0  0  0
  189.5330  176.9460  145.4590 C   0  0  0  0  0  2  0  0  0  0  0  0
  187.1130  177.1740  142.5510 C   0  0  0  0  0  3  0  0  0  0  0  0
  189.3160  177.8780  146.6630 C   0  0  1  0  0  3  0  0  0  0  0  0
  187.8530  177.8250  147.1300 C   0  0  0  0  0  2  0  0  0  0  0  0
  186.4310  177.6900  143.5720 C   0  0  0  0  0  0  0  0  0  0  0  0
  186.9660  178.0950  146.0390 O   0  0  0  0  0  0  0  0  0  0  0  0
  184.3680  178.2530  142.2700 C   0  0  0  0  0  3  0  0  0  0  0  0
  183.0930  178.7200  142.2100 N   0  0  0  0  0  0  0  0  0  0  0  0
  182.4350  179.1420  143.3220 C   0  0  0  0  0  0  0  0  0  0  0  0
  183.0680  179.1020  144.5670 C   0  0  0  0  0  3  0  0  0  0  0  0
  185.0450  178.1960  143.4970 C   0  0  0  0  0  0  0  0  0  0  0  0
  184.3770  178.6280  144.6490 C   0  0  0  0  0  3  0  0  0  0  0  0
  181.0880  179.6280  143.2180 C   0  0  0  0  0  0  0  0  0  0  0  0
  180.0020  180.0200  143.1350 N   0  0  0  0  0  0  0  0  0  0  0  0
  191.1870  175.9440  142.5140 O   0  0  0  0  0  0  0  0  0  0  0  0
  190.8280  177.0700  142.0770 C   0  0  0  0  0  0  0  0  0  0  0  0
  191.7560  177.8780  141.3650 N   0  0  0  0  0  1  0  0  0  0  0  0
  189.4980  177.5440  142.2940 N   0  0  0  0  0  2  0  0  0  0  0  0
  190.1600  177.5010  147.7090 O   0  0  0  0  0  0  0  0  0  0  0  0
  190.6400  176.2410  147.3440 C   0  0  0  0  0  2  0  0  0  0  0  0
  192.0920  176.1030  147.7610 C   0  0  0  0  0  2  0  0  0  0  0  0
  192.4300  177.1280  148.6450 O   0  0  0  0  0  0  0  0  0  0  0  0
  194.2600  177.4190  149.9680 O   0  0  0  0  0  1  0  0  0  0  0  0
  193.2660  176.5210  149.5810 C   0  0  0  0  0  2  0  0  0  0  0  0
  1  3  2  0  0  0  0
  1  4  1  0  0  0  0
  2 21  1  6  0  0  0
  2  1  1  0  0  0  0
  3  9  1  0  0  0  0
  4  6  1  0  0  0  0
  5  2  1  0  0  0  0
  5  8  2  0  0  0  0
  6  7  1  0  0  0  0
  6 22  1  1  0  0  0
  8  3  1  0  0  0  0
  9  7  1  0  0  0  0
 10 14  1  0  0  0  0
 11 10  2  0  0  0  0
 11 12  1  0  0  0  0
 12 13  2  0  0  0  0
 13 15  1  0  0  0  0
 14  8  1  0  0  0  0
 14 15  2  0  0  0  0
 16 12  1  0  0  0  0
 17 16  3  0  0  0  0
 19 21  1  0  0  0  0
 19 18  2  0  0  0  0
 20 19  1  0  0  0  0
 23 22  1  0  0  0  0
 23 24  1  0  0  0  0
 24 25  1  0  0  0  0
 25 27  1  0  0  0  0
 27 26  1  0  0  0  0
M  END
>  <MODEL>
6

>  <REMARK>
 VINA RESULT:      -7.0      3.741      8.294
  Name = 
  8 active torsions:
  status: ('A' for Active; 'I' for Inactive)
    1  A    between atoms: C_5  and  O_23
    2  A    between atoms: C_6  and  C_8
    3  A    between atoms: C_7  and  N_26
    4  A    between atoms: O_14  and  C_15
    5  A    between atoms: O_14  and  C_19
    6  A    between atoms: C_19  and  C_27
    7  A    between atoms: C_21  and  C_22
    8  A    between atoms: O_23  and  C_27
                            x       y       z     vdW  Elec       q    Type
                         _______ _______ _______ _____ _____    ______ ____

>  <TORSDO>
F 8

$$$$
=
 OpenBabel11032420353D

 27 29  0  0  1  0  0  0  0  0999 V2000
  186.6690  177.8160  144.0700 C   0  0  0  0  0  0  0  0  0  0  0  0
  187.5080  177.1100  145.0800 C   0  0  1  0  0  3  0  0  0  0  0  0
  187.3000  177.8920  142.9170 C   0  0  0  0  0  0  0  0  0  0  0  0
  185.2550  178.2870  144.2390 C   0  0  0  0  0  2  0  0  0  0  0  0
  188.7590  176.8420  144.2830 C   0  0  0  0  0  3  0  0  0  0  0  0
  184.9130  179.3390  143.1710 C   0  0  1  0  0  3  0  0  0  0  0  0
  185.3520  178.8560  141.7790 C   0  0  0  0  0  2  0  0  0  0  0  0
  188.6210  177.3020  143.0410 C   0  0  0  0  0  0  0  0  0  0  0  0
  186.7350  178.4860  141.7860 O   0  0  0  0  0  0  0  0  0  0  0  0
  189.3040  176.8230  140.6800 C   0  0  0  0  0  3  0  0  0  0  0  0
  190.2560  176.7410  139.7130 N   0  0  0  0  0  0  0  0  0  0  0  0
  191.5600  177.0280  139.9700 C   0  0  0  0  0  0  0  0  0  0  0  0
  191.9510  177.4180  141.2540 C   0  0  0  0  0  3  0  0  0  0  0  0
  189.6490  177.2100  141.9840 C   0  0  0  0  0  0  0  0  0  0  0  0
  190.9880  177.5070  142.2600 C   0  0  0  0  0  3  0  0  0  0  0  0
  192.5370  176.9300  138.9220 C   0  0  0  0  0  0  0  0  0  0  0  0
  193.3240  176.8500  138.0780 N   0  0  0  0  0  0  0  0  0  0  0  0
  188.7790  176.3600  147.5280 O   0  0  0  0  0  0  0  0  0  0  0  0
  188.4530  177.5690  147.3820 C   0  0  0  0  0  0  0  0  0  0  0  0
  188.7290  178.5030  148.4170 N   0  0  0  0  0  1  0  0  0  0  0  0
  187.8060  178.0080  146.1870 N   0  0  0  0  0  2  0  0  0  0  0  0
  183.5400  179.5850  143.1750 O   0  0  0  0  0  0  0  0  0  0  0  0
  183.0470  178.8480  144.2530 C   0  0  0  0  0  2  0  0  0  0  0  0
  181.5560  178.6260  144.0870 C   0  0  0  0  0  2  0  0  0  0  0  0
  181.1560  179.0290  142.8130 O   0  0  0  0  0  0  0  0  0  0  0  0
  179.2210  178.3050  143.7680 O   0  0  0  0  0  1  0  0  0  0  0  0
  179.9620  178.3470  142.5880 C   0  0  0  0  0  2  0  0  0  0  0  0
  1  4  1  0  0  0  0
  1  2  1  0  0  0  0
  2 21  1  1  0  0  0
  3  8  1  0  0  0  0
  3  1  2  0  0  0  0
  5  2  1  0  0  0  0
  6 22  1  6  0  0  0
  6  4  1  0  0  0  0
  7  9  1  0  0  0  0
  7  6  1  0  0  0  0
  8  5  2  0  0  0  0
  9  3  1  0  0  0  0
 10 14  1  0  0  0  0
 11 12  1  0  0  0  0
 11 10  2  0  0  0  0
 12 13  2  0  0  0  0
 13 15  1  0  0  0  0
 14 15  2  0  0  0  0
 14  8  1  0  0  0  0
 16 12  1  0  0  0  0
 17 16  3  0  0  0  0
 19 18  2  0  0  0  0
 19 20  1  0  0  0  0
 21 19  1  0  0  0  0
 22 23  1  0  0  0  0
 24 23  1  0  0  0  0
 25 24  1  0  0  0  0
 27 25  1  0  0  0  0
 27 26  1  0  0  0  0
M  END
>  <MODEL>
7

>  <REMARK>
 VINA RESULT:      -7.0      2.398      5.130
  Name = 
  8 active torsions:
  status: ('A' for Active; 'I' for Inactive)
    1  A    between atoms: C_5  and  O_23
    2  A    between atoms: C_6  and  C_8
    3  A    between atoms: C_7  and  N_26
    4  A    between atoms: O_14  and  C_15
    5  A    between atoms: O_14  and  C_19
    6  A    between atoms: C_19  and  C_27
    7  A    between atoms: C_21  and  C_22
    8  A    between atoms: O_23  and  C_27
                            x       y       z     vdW  Elec       q    Type
                         _______ _______ _______ _____ _____    ______ ____

>  <TORSDO>
F 8

$$$$
=
 OpenBabel11032420353D

 27 29  0  0  1  0  0  0  0  0999 V2000
  187.1910  178.1170  145.0270 C   0  0  0  0  0  0  0  0  0  0  0  0
  186.6050  178.8150  146.2070 C   0  0  1  0  0  3  0  0  0  0  0  0
  186.3050  178.0290  144.0570 C   0  0  0  0  0  0  0  0  0  0  0  0
  188.6100  177.6660  144.8550 C   0  0  0  0  0  2  0  0  0  0  0  0
  185.1980  179.0620  145.7310 C   0  0  0  0  0  3  0  0  0  0  0  0
  188.7040  176.6170  143.7350 C   0  0  1  0  0  3  0  0  0  0  0  0
  187.9400  177.0890  142.4880 C   0  0  0  0  0  2  0  0  0  0  0  0
  185.0430  178.6010  144.4920 C   0  0  0  0  0  0  0  0  0  0  0  0
  186.5930  177.4390  142.8240 O   0  0  0  0  0  0  0  0  0  0  0  0
  182.5610  178.8920  144.3450 C   0  0  0  0  0  3  0  0  0  0  0  0
  181.4140  178.9600  143.6180 N   0  0  0  0  0  0  0  0  0  0  0  0
  181.4180  178.8220  142.2650 C   0  0  0  0  0  0  0  0  0  0  0  0
  182.6210  178.6050  141.5880 C   0  0  0  0  0  3  0  0  0  0  0  0
  183.7920  178.6760  143.7090 C   0  0  0  0  0  0  0  0  0  0  0  0
  183.8080  178.5320  142.3170 C   0  0  0  0  0  3  0  0  0  0  0  0
  180.1860  178.8990  141.5310 C   0  0  0  0  0  0  0  0  0  0  0  0
  179.1940  178.9600  140.9400 N   0  0  0  0  0  0  0  0  0  0  0  0
  188.6550  178.6270  148.1910 O   0  0  0  0  0  0  0  0  0  0  0  0
  187.6470  177.8790  148.3150 C   0  0  0  0  0  0  0  0  0  0  0  0
  187.5630  176.9890  149.4200 N   0  0  0  0  0  1  0  0  0  0  0  0
  186.5930  177.9160  147.3530 N   0  0  0  0  0  2  0  0  0  0  0  0
  190.0420  176.3900  143.4120 O   0  0  0  0  0  0  0  0  0  0  0  0
  190.7630  177.2210  144.2710 C   0  0  0  0  0  2  0  0  0  0  0  0
  191.7100  176.3910  145.1170 C   0  0  0  0  0  2  0  0  0  0  0  0
  192.0410  177.0870  146.2800 O   0  0  0  0  0  0  0  0  0  0  0  0
  192.6330  175.7920  148.0560 O   0  0  0  0  0  1  0  0  0  0  0  0
  191.5610  176.2860  147.3150 C   0  0  0  0  0  2  0  0  0  0  0  0
  1  2  1  0  0  0  0
  2 21  1  1  0  0  0
  3  8  1  0  0  0  0
  3  1  2  0  0  0  0
  4  1  1  0  0  0  0
  5  2  1  0  0  0  0
  6 22  1  6  0  0  0
  6  4  1  0  0  0  0
  7  9  1  0  0  0  0
  7  6  1  0  0  0  0
  8  5  2  0  0  0  0
  9  3  1  0  0  0  0
 11 10  2  0  0  0  0
 12 11  1  0  0  0  0
 13 12  2  0  0  0  0
 13 15  1  0  0  0  0
 14 10  1  0  0  0  0
 14  8  1  0  0  0  0
 15 14  2  0  0  0  0
 16 12  1  0  0  0  0
 17 16  3  0  0  0  0
 18 19  2  0  0  0  0
 19 20  1  0  0  0  0
 21 19  1  0  0  0  0
 22 23  1  0  0  0  0
 23 24  1  0  0  0  0
 24 25  1  0  0  0  0
 25 27  1  0  0  0  0
 27 26  1  0  0  0  0
M  END
>  <MODEL>
8

>  <REMARK>
 VINA RESULT:      -6.9      3.803      8.968
  Name = 
  8 active torsions:
  status: ('A' for Active; 'I' for Inactive)
    1  A    between atoms: C_5  and  O_23
    2  A    between atoms: C_6  and  C_8
    3  A    between atoms: C_7  and  N_26
    4  A    between atoms: O_14  and  C_15
    5  A    between atoms: O_14  and  C_19
    6  A    between atoms: C_19  and  C_27
    7  A    between atoms: C_21  and  C_22
    8  A    between atoms: O_23  and  C_27
                            x       y       z     vdW  Elec       q    Type
                         _______ _______ _______ _____ _____    ______ ____

>  <TORSDO>
F 8

$$$$
=
 OpenBabel11032420353D

 27 29  0  0  1  0  0  0  0  0999 V2000
  187.1160  178.4710  141.7520 C   0  0  0  0  0  0  0  0  0  0  0  0
  188.2860  178.6320  140.8410 C   0  0  1  0  0  3  0  0  0  0  0  0
  187.5090  178.0540  142.9380 C   0  0  0  0  0  0  0  0  0  0  0  0
  185.6900  178.8320  141.4660 C   0  0  0  0  0  2  0  0  0  0  0  0
  189.4130  178.1780  141.7320 C   0  0  0  0  0  3  0  0  0  0  0  0
  184.7500  178.1130  142.4480 C   0  0  1  0  0  3  0  0  0  0  0  0
  185.2580  178.2670  143.8900 C   0  0  0  0  0  2  0  0  0  0  0  0
  188.9460  177.8480  142.9340 C   0  0  0  0  0  0  0  0  0  0  0  0
  186.6200  177.8400  143.9940 O   0  0  0  0  0  0  0  0  0  0  0  0
  189.4340  177.6770  145.3840 C   0  0  0  0  0  3  0  0  0  0  0  0
  190.1980  177.2250  146.4140 N   0  0  0  0  0  0  0  0  0  0  0  0
  191.3020  176.4610  146.2010 C   0  0  0  0  0  0  0  0  0  0  0  0
  191.6770  176.1210  144.8990 C   0  0  0  0  0  3  0  0  0  0  0  0
  189.7710  177.3620  144.0600 C   0  0  0  0  0  0  0  0  0  0  0  0
  190.9060  176.5750  143.8290 C   0  0  0  0  0  3  0  0  0  0  0  0
  192.0840  176.0030  147.3150 C   0  0  0  0  0  0  0  0  0  0  0  0
  192.7140  175.6340  148.2130 N   0  0  0  0  0  0  0  0  0  0  0  0
  189.0430  179.2260  138.1500 O   0  0  0  0  0  0  0  0  0  0  0  0
  188.5610  178.0860  138.3860 C   0  0  0  0  0  0  0  0  0  0  0  0
  188.4180  177.1490  137.3270 N   0  0  0  0  0  1  0  0  0  0  0  0
  188.1530  177.7280  139.7070 N   0  0  0  0  0  2  0  0  0  0  0  0
  183.4630  178.6400  142.3410 O   0  0  0  0  0  0  0  0  0  0  0  0
  183.1800  178.6160  140.9740 C   0  0  0  0  0  2  0  0  0  0  0  0
  181.7580  178.1360  140.7510 C   0  0  0  0  0  2  0  0  0  0  0  0
  181.7240  177.2370  139.6850 O   0  0  0  0  0  0  0  0  0  0  0  0
  180.4690  175.4190  140.2370 O   0  0  0  0  0  1  0  0  0  0  0  0
  180.4340  176.7100  139.7120 C   0  0  0  0  0  2  0  0  0  0  0  0
  1  3  2  0  0  0  0
  2 21  1  6  0  0  0
  2  5  1  0  0  0  0
  2  1  1  0  0  0  0
  3  9  1  0  0  0  0
  4  1  1  0  0  0  0
  4  6  1  0  0  0  0
  5  8  2  0  0  0  0
  6 22  1  1  0  0  0
  6  7  1  0  0  0  0
  7  9  1  0  0  0  0
  8  3  1  0  0  0  0
  8 14  1  0  0  0  0
 10 11  1  0  0  0  0
 12 11  2  0  0  0  0
 12 16  1  0  0  0  0
 13 12  1  0  0  0  0
 14 10  2  0  0  0  0
 15 14  1  0  0  0  0
 15 13  2  0  0  0  0
 16 17  3  0  0  0  0
 18 19  2  0  0  0  0
 19 21  1  0  0  0  0
 20 19  1  0  0  0  0
 23 22  1  0  0  0  0
 24 23  1  0  0  0  0
 25 27  1  0  0  0  0
 25 24  1  0  0  0  0
 27 26  1  0  0  0  0
M  END
>  <MODEL>
9

>  <REMARK>
 VINA RESULT:      -6.8      1.474      1.743
  Name = 
  8 active torsions:
  status: ('A' for Active; 'I' for Inactive)
    1  A    between atoms: C_5  and  O_23
    2  A    between atoms: C_6  and  C_8
    3  A    between atoms: C_7  and  N_26
    4  A    between atoms: O_14  and  C_15
    5  A    between atoms: O_14  and  C_19
    6  A    between atoms: C_19  and  C_27
    7  A    between atoms: C_21  and  C_22
    8  A    between atoms: O_23  and  C_27
                            x       y       z     vdW  Elec       q    Type
                         _______ _______ _______ _____ _____    ______ ____

>  <TORSDO>
F 8

$$$$
