=
 OpenBabel11042411123D

 54 59  0  0  1  0  0  0  0  0999 V2000
  180.9550  177.7920  140.3740 C   0  0  1  0  0  3  0  0  0  0  0  0
  180.9640  177.4850  138.8850 C   0  0  1  0  0  3  0  0  0  0  0  0
  182.3290  178.4350  140.2500 C   0  0  2  0  0  3  0  0  0  0  0  0
  182.3280  178.1390  138.7610 C   0  0  0  0  0  2  0  0  0  0  0  0
  182.1000  175.3610  138.0180 N   0  0  0  0  0  0  0  0  0  0  0  0
  182.7780  174.1560  137.4590 C   0  0  0  0  0  2  0  0  0  0  0  0
  183.4340  175.3650  137.3430 C   0  0  1  0  0  3  0  0  0  0  0  0
  180.9960  176.0000  138.6590 C   0  0  0  0  0  0  0  0  0  0  0  0
  180.0260  175.3030  139.0520 O   0  0  0  0  0  0  0  0  0  0  0  0
  182.4350  175.5310  135.1880 O   0  0  0  0  0  0  0  0  0  0  0  0
  183.3170  175.9100  135.9470 C   0  0  0  0  0  0  0  0  0  0  0  0
  184.2620  176.9750  135.5020 C   0  0  0  0  0  2  0  0  0  0  0  0
  185.5890  176.4130  135.3240 N   0  0  0  0  0  2  0  0  0  0  0  0
  186.4530  177.4920  135.0710 N   0  0  0  0  0  2  0  0  0  0  0  0
  189.1440  175.9110  134.7920 O   0  0  0  0  0  1  0  0  0  0  0  0
  190.6440  177.1430  137.1330 O   0  0  0  0  0  1  0  0  0  0  0  0
  188.2330  175.9580  135.8460 C   0  0  1  0  0  3  0  0  0  0  0  0
  188.9090  175.4910  137.1430 C   0  0  0  0  0  2  0  0  0  0  0  0
  187.3190  177.7860  137.3830 C   0  0  2  0  0  3  0  0  0  0  0  0
  189.5840  176.6410  137.8930 C   0  0  2  0  0  3  0  0  0  0  0  0
  186.7140  179.0450  137.4200 O   0  0  0  0  0  1  0  0  0  0  0  0
  189.2130  179.0020  138.3030 O   0  0  0  0  0  1  0  0  0  0  0  0
  188.5810  177.7530  138.2680 C   0  0  1  0  0  3  0  0  0  0  0  0
  187.6260  177.3700  135.9390 C   0  0  2  0  0  3  0  0  0  0  0  0
  183.2840  177.6240  140.8900 O   0  0  0  0  0  0  0  0  0  0  0  0
  184.1000  178.4180  141.7340 C   0  0  1  0  0  3  0  0  0  0  0  0
  186.4550  178.5430  140.8650 C   0  0  0  0  0  1  0  0  0  0  0  0
  184.6860  179.6910  139.7650 F   0  0  0  0  0  0  0  0  0  0  0  0
  185.1370  179.2790  141.0060 C   0  0  1  0  0  3  0  0  0  0  0  0
  183.3250  179.1900  142.8030 C   0  0  0  0  0  2  0  0  0  0  0  0
  185.4370  178.8660  145.8560 C   0  0  0  0  0  0  0  0  0  0  0  0
  184.2540  178.7370  146.3540 N   0  0  0  0  0  0  0  0  0  0  0  0
  186.1860  178.0430  143.7160 N   0  0  0  0  0  0  0  0  0  0  0  0
  187.4530  177.6600  145.7470 C   0  0  0  0  0  0  0  0  0  0  0  0
  187.1580  177.4110  144.3110 C   0  0  0  0  0  3  0  0  0  0  0  0
  183.3320  178.8880  145.2850 C   0  0  0  0  0  3  0  0  0  0  0  0
  186.5890  178.3040  146.4840 N   0  0  0  0  0  0  0  0  0  0  0  0
  183.9790  179.0510  144.1380 C   0  0  0  0  0  0  0  0  0  0  0  0
  185.4410  179.1120  144.3890 C   0  0  1  0  0  3  0  0  0  0  0  0
  188.6620  177.0200  146.3680 C   0  0  1  0  0  3  0  0  0  0  0  0
  189.8760  177.7440  146.0070 N   0  0  0  0  0  2  0  0  0  0  0  0
  190.7200  177.3670  144.9160 C   0  0  0  0  0  0  0  0  0  0  0  0
  191.9040  178.1090  144.6640 N   0  0  0  0  0  1  0  0  0  0  0  0
  190.4130  176.4020  144.1670 O   0  0  0  0  0  0  0  0  0  0  0  0
  189.1660  178.2100  148.5120 C   0  0  0  0  0  1  0  0  0  0  0  0
  188.5340  176.9810  147.8830 C   0  0  0  0  0  2  0  0  0  0  0  0
  179.8820  178.8380  140.6730 C   0  0  2  0  0  3  0  0  0  0  0  0
  179.6810  177.6690  142.7420 O   0  0  0  0  0  0  0  0  0  0  0  0
  179.2250  178.9620  143.0510 C   0  0  0  0  0  2  0  0  0  0  0  0
  178.9320  178.3270  141.7480 C   0  0  1  0  0  3  0  0  0  0  0  0
  179.1570  179.1080  139.5080 O   0  0  0  0  0  0  0  0  0  0  0  0
  179.1650  180.4990  139.3920 C   0  0  0  0  0  2  0  0  0  0  0  0
  180.3170  182.2920  138.1080 C   0  0  0  0  0  1  0  0  0  0  0  0
  179.7170  180.9020  138.0360 C   0  0  0  0  0  2  0  0  0  0  0  0
  1 47  1  6  0  0  0
  2  8  1  1  0  0  0
  2  1  1  0  0  0  0
  3  1  1  0  0  0  0
  3 25  1  1  0  0  0
  4  2  1  0  0  0  0
  4  3  1  0  0  0  0
  5  8  1  0  0  0  0
  6  5  1  0  0  0  0
  7 11  1  6  0  0  0
  7  6  1  0  0  0  0
  7  5  1  0  0  0  0
  8  9  2  0  0  0  0
 10 11  2  0  0  0  0
 12 11  1  0  0  0  0
 13 12  1  0  0  0  0
 14 13  1  0  0  0  0
 17 15  1  6  0  0  0
 17 24  1  0  0  0  0
 17 18  1  0  0  0  0
 18 20  1  0  0  0  0
 19 21  1  6  0  0  0
 19 23  1  0  0  0  0
 20 16  1  6  0  0  0
 20 23  1  0  0  0  0
 23 22  1  6  0  0  0
 24 14  1  6  0  0  0
 24 19  1  0  0  0  0
 25 26  1  0  0  0  0
 26 30  1  6  0  0  0
 28 29  1  0  0  0  0
 29 27  1  6  0  0  0
 29 26  1  0  0  0  0
 30 38  1  0  0  0  0
 31 32  2  0  0  0  0
 31 37  1  0  0  0  0
 33 35  2  0  0  0  0
 34 40  1  0  0  0  0
 34 37  2  0  0  0  0
 35 34  1  0  0  0  0
 36 32  1  0  0  0  0
 38 39  1  0  0  0  0
 38 36  2  0  0  0  0
 39 33  1  6  0  0  0
 39 31  1  0  0  0  0
 40 46  1  1  0  0  0
 41 40  1  0  0  0  0
 42 41  1  0  0  0  0
 43 42  1  0  0  0  0
 44 42  2  0  0  0  0
 46 45  1  0  0  0  0
 47 51  1  6  0  0  0
 48 49  1  0  0  0  0
 50 47  1  6  0  0  0
 50 48  1  0  0  0  0
 50 49  1  0  0  0  0
 52 51  1  0  0  0  0
 54 53  1  0  0  0  0
 54 52  1  0  0  0  0
M  END
>  <MODEL>
1

>  <REMARK>
 VINA RESULT:      -7.3      0.000      0.000
  Name = 
  19 active torsions:
  status: ('A' for Active; 'I' for Inactive)
    1  A    between atoms: C_2  and  C_7
    2  A    between atoms: C_2  and  C_39
    3  A    between atoms: C_3  and  C_24
    4  A    between atoms: C_3  and  O_26
    5  A    between atoms: N_4  and  C_21
    6  A    between atoms: C_5  and  C_15
    7  A    between atoms: C_5  and  O_26
    8  A    between atoms: C_5  and  C_45
    9  A    between atoms: C_7  and  N_16
   10  A    between atoms: N_8  and  N_16
   11  A    between atoms: N_8  and  C_46
   12  A    between atoms: C_21  and  C_25
   13  A    between atoms: C_21  and  C_36
   14  A    between atoms: C_22  and  C_41
   15  A    between atoms: O_23  and  C_42
   16  A    between atoms: O_23  and  C_47
   17  A    between atoms: C_33  and  C_42
   18  A    between atoms: C_33  and  C_51
   19  A    between atoms: C_42  and  C_53
                            x       y       z     vdW  Elec       q    Type
                         _______ _______ _______ _____ _____    ______ ____

>  <TORSDO>
F 19

$$$$
=
 OpenBabel11042411123D

 54 59  0  0  1  0  0  0  0  0999 V2000
  186.5810  177.0370  138.2860 C   0  0  1  0  0  3  0  0  0  0  0  0
  187.8580  177.6120  137.6930 C   0  0  1  0  0  3  0  0  0  0  0  0
  185.9850  178.4360  138.3590 C   0  0  2  0  0  3  0  0  0  0  0  0
  187.2560  179.0050  137.7540 C   0  0  0  0  0  2  0  0  0  0  0  0
  190.2690  176.9210  138.2050 N   0  0  0  0  0  0  0  0  0  0  0  0
  191.6660  176.4660  138.4660 C   0  0  0  0  0  2  0  0  0  0  0  0
  191.2090  176.3990  137.1650 C   0  0  1  0  0  3  0  0  0  0  0  0
  189.0060  177.4210  138.6430 C   0  0  0  0  0  0  0  0  0  0  0  0
  188.8500  177.7180  139.8560 O   0  0  0  0  0  0  0  0  0  0  0  0
  190.2610  174.2540  137.5740 O   0  0  0  0  0  0  0  0  0  0  0  0
  190.8500  174.9880  136.7910 C   0  0  0  0  0  0  0  0  0  0  0  0
  191.1690  174.4960  135.4200 C   0  0  0  0  0  2  0  0  0  0  0  0
  192.5410  174.8320  135.0830 N   0  0  0  0  0  2  0  0  0  0  0  0
  193.3610  174.0800  135.9420 N   0  0  0  0  0  2  0  0  0  0  0  0
  194.5920  176.9100  136.4940 O   0  0  0  0  0  1  0  0  0  0  0  0
  197.5360  176.1560  136.3940 O   0  0  0  0  0  1  0  0  0  0  0  0
  194.7320  176.0660  135.3930 C   0  0  1  0  0  3  0  0  0  0  0  0
  195.9840  176.4540  134.5940 C   0  0  0  0  0  2  0  0  0  0  0  0
  195.6360  173.7050  135.0100 C   0  0  2  0  0  3  0  0  0  0  0  0
  197.2380  175.7360  135.0940 C   0  0  2  0  0  3  0  0  0  0  0  0
  195.5580  172.3740  135.4300 O   0  0  0  0  0  1  0  0  0  0  0  0
  197.8420  173.5790  136.0220 O   0  0  0  0  0  1  0  0  0  0  0  0
  197.0950  174.2000  135.0150 C   0  0  1  0  0  3  0  0  0  0  0  0
  194.7280  174.6000  135.8630 C   0  0  2  0  0  3  0  0  0  0  0  0
  185.8870  178.8320  139.7050 O   0  0  0  0  0  0  0  0  0  0  0  0
  184.5480  179.1910  140.0030 C   0  0  1  0  0  3  0  0  0  0  0  0
  182.3400  178.9550  138.8270 C   0  0  0  0  0  1  0  0  0  0  0  0
  183.5770  180.9830  138.7040 F   0  0  0  0  0  0  0  0  0  0  0  0
  183.7070  179.6090  138.7920 C   0  0  1  0  0  3  0  0  0  0  0  0
  183.8280  178.2030  140.9210 C   0  0  0  0  0  2  0  0  0  0  0  0
  185.1270  178.9030  144.3430 C   0  0  0  0  0  0  0  0  0  0  0  0
  183.8600  178.8100  144.5700 N   0  0  0  0  0  0  0  0  0  0  0  0
  186.3970  177.6030  142.7580 N   0  0  0  0  0  0  0  0  0  0  0  0
  187.1310  177.8960  145.0510 C   0  0  0  0  0  0  0  0  0  0  0  0
  187.2040  177.2440  143.7170 C   0  0  0  0  0  3  0  0  0  0  0  0
  183.2270  178.5840  143.3180 C   0  0  0  0  0  3  0  0  0  0  0  0
  186.0980  178.6350  145.3540 N   0  0  0  0  0  0  0  0  0  0  0  0
  184.1340  178.4880  142.3540 C   0  0  0  0  0  0  0  0  0  0  0  0
  185.4880  178.7430  142.9090 C   0  0  1  0  0  3  0  0  0  0  0  0
  188.1610  177.5560  146.0890 C   0  0  1  0  0  3  0  0  0  0  0  0
  189.4250  178.2250  145.8040 N   0  0  0  0  0  2  0  0  0  0  0  0
  190.4940  177.6100  145.0810 C   0  0  0  0  0  0  0  0  0  0  0  0
  191.7050  178.3250  144.8860 N   0  0  0  0  0  1  0  0  0  0  0  0
  190.3640  176.4540  144.5980 O   0  0  0  0  0  0  0  0  0  0  0  0
  188.8040  177.8340  148.4930 C   0  0  0  0  0  1  0  0  0  0  0  0
  187.6830  177.9590  147.4760 C   0  0  0  0  0  2  0  0  0  0  0  0
  185.8690  176.1880  137.2340 C   0  0  2  0  0  3  0  0  0  0  0  0
  187.7120  175.6080  135.8370 O   0  0  0  0  0  0  0  0  0  0  0  0
  186.6040  175.0820  135.1520 C   0  0  0  0  0  2  0  0  0  0  0  0
  186.5290  176.3690  135.8740 C   0  0  1  0  0  3  0  0  0  0  0  0
  184.5270  176.5760  137.1510 O   0  0  0  0  0  0  0  0  0  0  0  0
  183.8010  175.3880  137.2550 C   0  0  0  0  0  2  0  0  0  0  0  0
  181.4100  175.3970  137.9400 C   0  0  0  0  0  1  0  0  0  0  0  0
  182.8420  175.4690  138.4290 C   0  0  0  0  0  2  0  0  0  0  0  0
  1 47  1  6  0  0  0
  1  3  1  0  0  0  0
  2  4  1  0  0  0  0
  2  1  1  0  0  0  0
  2  8  1  1  0  0  0
  3 25  1  1  0  0  0
  4  3  1  0  0  0  0
  5  6  1  0  0  0  0
  5  8  1  0  0  0  0
  7 11  1  1  0  0  0
  7  5  1  0  0  0  0
  7  6  1  0  0  0  0
  8  9  2  0  0  0  0
 11 10  2  0  0  0  0
 12 11  1  0  0  0  0
 13 12  1  0  0  0  0
 13 14  1  0  0  0  0
 17 24  1  0  0  0  0
 17 15  1  1  0  0  0
 18 20  1  0  0  0  0
 18 17  1  0  0  0  0
 19 23  1  0  0  0  0
 19 21  1  1  0  0  0
 19 24  1  0  0  0  0
 20 16  1  1  0  0  0
 23 20  1  0  0  0  0
 23 22  1  1  0  0  0
 24 14  1  6  0  0  0
 25 26  1  0  0  0  0
 26 30  1  6  0  0  0
 28 29  1  0  0  0  0
 29 27  1  1  0  0  0
 29 26  1  0  0  0  0
 30 38  1  0  0  0  0
 31 32  2  0  0  0  0
 31 37  1  0  0  0  0
 33 39  1  0  0  0  0
 33 35  2  0  0  0  0
 34 37  2  0  0  0  0
 34 40  1  0  0  0  0
 35 34  1  0  0  0  0
 36 32  1  0  0  0  0
 38 36  2  0  0  0  0
 39 38  1  6  0  0  0
 39 31  1  0  0  0  0
 40 46  1  1  0  0  0
 41 40  1  0  0  0  0
 42 41  1  0  0  0  0
 43 42  1  0  0  0  0
 44 42  2  0  0  0  0
 46 45  1  0  0  0  0
 47 51  1  6  0  0  0
 48 50  1  0  0  0  0
 49 48  1  0  0  0  0
 49 50  1  0  0  0  0
 50 47  1  1  0  0  0
 51 52  1  0  0  0  0
 52 54  1  0  0  0  0
 53 54  1  0  0  0  0
M  END
>  <MODEL>
2

>  <REMARK>
 VINA RESULT:      -7.3      3.649      6.341
  Name = 
  19 active torsions:
  status: ('A' for Active; 'I' for Inactive)
    1  A    between atoms: C_2  and  C_7
    2  A    between atoms: C_2  and  C_39
    3  A    between atoms: C_3  and  C_24
    4  A    between atoms: C_3  and  O_26
    5  A    between atoms: N_4  and  C_21
    6  A    between atoms: C_5  and  C_15
    7  A    between atoms: C_5  and  O_26
    8  A    between atoms: C_5  and  C_45
    9  A    between atoms: C_7  and  N_16
   10  A    between atoms: N_8  and  N_16
   11  A    between atoms: N_8  and  C_46
   12  A    between atoms: C_21  and  C_25
   13  A    between atoms: C_21  and  C_36
   14  A    between atoms: C_22  and  C_41
   15  A    between atoms: O_23  and  C_42
   16  A    between atoms: O_23  and  C_47
   17  A    between atoms: C_33  and  C_42
   18  A    between atoms: C_33  and  C_51
   19  A    between atoms: C_42  and  C_53
                            x       y       z     vdW  Elec       q    Type
                         _______ _______ _______ _____ _____    ______ ____

>  <TORSDO>
F 19

$$$$
=
 OpenBabel11042411123D

 54 59  0  0  1  0  0  0  0  0999 V2000
  191.7300  175.5910  136.9590 C   0  0  1  0  0  3  0  0  0  0  0  0
  190.3600  175.1480  136.4680 C   0  0  1  0  0  3  0  0  0  0  0  0
  191.1540  175.8320  138.3470 C   0  0  2  0  0  3  0  0  0  0  0  0
  189.7910  175.3770  137.8560 C   0  0  0  0  0  2  0  0  0  0  0  0
  188.4630  176.5070  135.4160 N   0  0  0  0  0  0  0  0  0  0  0  0
  187.3190  177.2460  134.8070 C   0  0  0  0  0  2  0  0  0  0  0  0
  187.0530  176.4660  135.9150 C   0  0  1  0  0  3  0  0  0  0  0  0
  189.8350  176.1160  135.4460 C   0  0  0  0  0  0  0  0  0  0  0  0
  190.6300  176.5990  134.5990 O   0  0  0  0  0  0  0  0  0  0  0  0
  187.0470  174.1650  135.3060 O   0  0  0  0  0  0  0  0  0  0  0  0
  186.3910  175.1760  135.5200 C   0  0  0  0  0  0  0  0  0  0  0  0
  184.9030  175.1160  135.4450 C   0  0  0  0  0  2  0  0  0  0  0  0
  184.3240  175.8180  136.5770 N   0  0  0  0  0  2  0  0  0  0  0  0
  183.8840  177.0630  136.0960 N   0  0  0  0  0  2  0  0  0  0  0  0
  185.5470  178.8350  138.0750 O   0  0  0  0  0  1  0  0  0  0  0  0
  183.2450  180.2780  139.4420 O   0  0  0  0  0  1  0  0  0  0  0  0
  184.5850  177.8600  138.3320 C   0  0  1  0  0  3  0  0  0  0  0  0
  184.0290  178.0350  139.7510 C   0  0  0  0  0  2  0  0  0  0  0  0
  182.1100  177.5500  137.7680 C   0  0  2  0  0  3  0  0  0  0  0  0
  182.8340  178.9890  139.7940 C   0  0  2  0  0  3  0  0  0  0  0  0
  181.1710  177.5390  136.7330 O   0  0  0  0  0  1  0  0  0  0  0  0
  180.9410  179.5850  138.4010 O   0  0  0  0  0  1  0  0  0  0  0  0
  181.6740  178.5020  138.8990 C   0  0  1  0  0  3  0  0  0  0  0  0
  183.5040  177.9010  137.2350 C   0  0  2  0  0  3  0  0  0  0  0  0
  191.1220  177.2140  138.6060 O   0  0  0  0  0  0  0  0  0  0  0  0
  190.4580  177.4580  139.8340 C   0  0  1  0  0  3  0  0  0  0  0  0
  188.9770  178.8590  138.3640 C   0  0  0  0  0  1  0  0  0  0  0  0
  188.0470  177.3010  139.9020 F   0  0  0  0  0  0  0  0  0  0  0  0
  189.1060  178.1690  139.7070 C   0  0  1  0  0  3  0  0  0  0  0  0
  190.4140  176.2490  140.7680 C   0  0  0  0  0  2  0  0  0  0  0  0
  190.3890  177.0430  144.4090 C   0  0  0  0  0  0  0  0  0  0  0  0
  191.4530  177.6620  144.0240 N   0  0  0  0  0  0  0  0  0  0  0  0
  188.3390  176.8070  143.1600 N   0  0  0  0  0  0  0  0  0  0  0  0
  188.3490  177.5230  145.4770 C   0  0  0  0  0  0  0  0  0  0  0  0
  187.6810  177.3140  144.1640 C   0  0  0  0  0  3  0  0  0  0  0  0
  191.6100  177.4010  142.6370 C   0  0  0  0  0  3  0  0  0  0  0  0
  189.6490  177.4500  145.5600 N   0  0  0  0  0  0  0  0  0  0  0  0
  190.5990  176.6680  142.1890 C   0  0  0  0  0  0  0  0  0  0  0  0
  189.7060  176.2990  143.3170 C   0  0  1  0  0  3  0  0  0  0  0  0
  187.5300  177.9810  146.6490 C   0  0  1  0  0  3  0  0  0  0  0  0
  186.1050  177.8130  146.3860 N   0  0  0  0  0  2  0  0  0  0  0  0
  185.2010  178.9090  146.2270 C   0  0  0  0  0  0  0  0  0  0  0  0
  183.8220  178.6470  146.0130 N   0  0  0  0  0  1  0  0  0  0  0  0
  185.6170  180.0970  146.2540 O   0  0  0  0  0  0  0  0  0  0  0  0
  188.5990  178.1060  148.9100 C   0  0  0  0  0  1  0  0  0  0  0  0
  187.9030  177.2060  147.9040 C   0  0  0  0  0  2  0  0  0  0  0  0
  192.6820  174.3950  136.9570 C   0  0  2  0  0  3  0  0  0  0  0  0
  194.3120  175.9150  137.8070 O   0  0  0  0  0  0  0  0  0  0  0  0
  194.8190  174.6550  138.1680 C   0  0  0  0  0  2  0  0  0  0  0  0
  194.1260  174.8720  136.8800 C   0  0  1  0  0  3  0  0  0  0  0  0
  192.4060  173.5800  135.8550 O   0  0  0  0  0  0  0  0  0  0  0  0
  193.5060  172.7270  135.7520 C   0  0  0  0  0  2  0  0  0  0  0  0
  193.9910  170.4400  136.6010 C   0  0  0  0  0  1  0  0  0  0  0  0
  193.0440  171.2810  135.7690 C   0  0  0  0  0  2  0  0  0  0  0  0
  1 47  1  1  0  0  0
  1  3  1  0  0  0  0
  2  8  1  6  0  0  0
  2  1  1  0  0  0  0
  2  4  1  0  0  0  0
  3 25  1  6  0  0  0
  4  3  1  0  0  0  0
  5  8  1  0  0  0  0
  5  7  1  0  0  0  0
  6  5  1  0  0  0  0
  6  7  1  0  0  0  0
  7 11  1  6  0  0  0
  9  8  2  0  0  0  0
 10 11  2  0  0  0  0
 12 11  1  0  0  0  0
 12 13  1  0  0  0  0
 14 13  1  0  0  0  0
 17 15  1  6  0  0  0
 17 18  1  0  0  0  0
 18 20  1  0  0  0  0
 19 21  1  6  0  0  0
 19 23  1  0  0  0  0
 20 16  1  6  0  0  0
 23 22  1  6  0  0  0
 23 20  1  0  0  0  0
 24 14  1  6  0  0  0
 24 19  1  0  0  0  0
 24 17  1  0  0  0  0
 25 26  1  0  0  0  0
 26 30  1  6  0  0  0
 29 27  1  6  0  0  0
 29 26  1  0  0  0  0
 29 28  1  0  0  0  0
 30 38  1  0  0  0  0
 31 37  1  0  0  0  0
 32 31  2  0  0  0  0
 33 39  1  0  0  0  0
 33 35  2  0  0  0  0
 34 37  2  0  0  0  0
 34 40  1  0  0  0  0
 35 34  1  0  0  0  0
 36 32  1  0  0  0  0
 38 36  2  0  0  0  0
 39 38  1  6  0  0  0
 39 31  1  0  0  0  0
 40 46  1  1  0  0  0
 41 40  1  0  0  0  0
 42 44  2  0  0  0  0
 42 41  1  0  0  0  0
 43 42  1  0  0  0  0
 46 45  1  0  0  0  0
 47 51  1  6  0  0  0
 48 49  1  0  0  0  0
 50 47  1  1  0  0  0
 50 48  1  0  0  0  0
 50 49  1  0  0  0  0
 52 54  1  0  0  0  0
 52 51  1  0  0  0  0
 54 53  1  0  0  0  0
M  END
>  <MODEL>
3

>  <REMARK>
 VINA RESULT:      -7.1      2.791      8.516
  Name = 
  19 active torsions:
  status: ('A' for Active; 'I' for Inactive)
    1  A    between atoms: C_2  and  C_7
    2  A    between atoms: C_2  and  C_39
    3  A    between atoms: C_3  and  C_24
    4  A    between atoms: C_3  and  O_26
    5  A    between atoms: N_4  and  C_21
    6  A    between atoms: C_5  and  C_15
    7  A    between atoms: C_5  and  O_26
    8  A    between atoms: C_5  and  C_45
    9  A    between atoms: C_7  and  N_16
   10  A    between atoms: N_8  and  N_16
   11  A    between atoms: N_8  and  C_46
   12  A    between atoms: C_21  and  C_25
   13  A    between atoms: C_21  and  C_36
   14  A    between atoms: C_22  and  C_41
   15  A    between atoms: O_23  and  C_42
   16  A    between atoms: O_23  and  C_47
   17  A    between atoms: C_33  and  C_42
   18  A    between atoms: C_33  and  C_51
   19  A    between atoms: C_42  and  C_53
                            x       y       z     vdW  Elec       q    Type
                         _______ _______ _______ _____ _____    ______ ____

>  <TORSDO>
F 19

$$$$
=
 OpenBabel11042411123D

 54 59  0  0  1  0  0  0  0  0999 V2000
  187.6590  175.3870  137.0440 C   0  0  1  0  0  3  0  0  0  0  0  0
  187.7110  174.3780  135.9080 C   0  0  1  0  0  3  0  0  0  0  0  0
  189.1670  175.5700  136.9510 C   0  0  2  0  0  3  0  0  0  0  0  0
  189.2130  174.5720  135.8070 C   0  0  0  0  0  2  0  0  0  0  0  0
  186.1400  172.3570  135.9430 N   0  0  0  0  0  0  0  0  0  0  0  0
  185.1750  171.2200  135.9670 C   0  0  0  0  0  2  0  0  0  0  0  0
  184.8910  172.2770  135.1260 C   0  0  1  0  0  3  0  0  0  0  0  0
  187.3210  173.0140  136.4030 C   0  0  0  0  0  0  0  0  0  0  0  0
  188.0620  172.4350  137.2380 O   0  0  0  0  0  0  0  0  0  0  0  0
  183.1670  172.8050  136.6800 O   0  0  0  0  0  0  0  0  0  0  0  0
  183.8220  173.1580  135.7080 C   0  0  0  0  0  0  0  0  0  0  0  0
  183.5970  174.5110  135.1220 C   0  0  0  0  0  2  0  0  0  0  0  0
  182.4020  175.1040  135.6970 N   0  0  0  0  0  2  0  0  0  0  0  0
  182.8140  176.2680  136.3670 N   0  0  0  0  0  2  0  0  0  0  0  0
  182.7990  175.7150  139.4520 O   0  0  0  0  0  1  0  0  0  0  0  0
  180.3970  177.4180  140.2110 O   0  0  0  0  0  1  0  0  0  0  0  0
  181.8280  175.4560  138.4860 C   0  0  1  0  0  3  0  0  0  0  0  0
  180.4610  175.2670  139.1580 C   0  0  0  0  0  2  0  0  0  0  0  0
  180.4530  176.8710  136.8600 C   0  0  2  0  0  3  0  0  0  0  0  0
  179.7070  176.5880  139.3220 C   0  0  2  0  0  3  0  0  0  0  0  0
  180.5210  177.8430  135.8580 O   0  0  0  0  0  1  0  0  0  0  0  0
  179.4310  178.6790  138.1250 O   0  0  0  0  0  1  0  0  0  0  0  0
  179.4650  177.2890  137.9670 C   0  0  1  0  0  3  0  0  0  0  0  0
  181.8470  176.5710  137.4240 C   0  0  2  0  0  3  0  0  0  0  0  0
  189.7760  175.0090  138.0880 O   0  0  0  0  0  0  0  0  0  0  0  0
  190.8720  175.8130  138.4900 C   0  0  1  0  0  3  0  0  0  0  0  0
  193.1940  176.6550  138.0230 C   0  0  0  0  0  1  0  0  0  0  0  0
  192.3160  174.7820  136.8490 F   0  0  0  0  0  0  0  0  0  0  0  0
  191.9680  175.9860  137.4330 C   0  0  1  0  0  3  0  0  0  0  0  0
  190.4690  177.1290  139.1560 C   0  0  0  0  0  2  0  0  0  0  0  0
  190.3600  176.7350  142.8600 C   0  0  0  0  0  0  0  0  0  0  0  0
  191.5210  177.2750  142.6990 N   0  0  0  0  0  0  0  0  0  0  0  0
  188.3690  177.2180  141.5890 N   0  0  0  0  0  0  0  0  0  0  0  0
  188.3550  177.1610  144.0130 C   0  0  0  0  0  0  0  0  0  0  0  0
  187.7370  177.4780  142.6980 C   0  0  0  0  0  3  0  0  0  0  0  0
  191.7140  177.4410  141.3020 C   0  0  0  0  0  3  0  0  0  0  0  0
  189.6260  176.8690  144.0770 N   0  0  0  0  0  0  0  0  0  0  0  0
  190.6340  177.0480  140.6380 C   0  0  0  0  0  0  0  0  0  0  0  0
  189.6380  176.4850  141.5840 C   0  0  1  0  0  3  0  0  0  0  0  0
  187.5480  177.3470  145.2650 C   0  0  1  0  0  3  0  0  0  0  0  0
  188.3020  178.0990  146.2620 N   0  0  0  0  0  2  0  0  0  0  0  0
  188.6570  177.5710  147.5430 C   0  0  0  0  0  0  0  0  0  0  0  0
  189.3580  178.3920  148.4650 N   0  0  0  0  0  1  0  0  0  0  0  0
  188.3730  176.3830  147.8510 O   0  0  0  0  0  0  0  0  0  0  0  0
  185.6980  178.7400  146.2180 C   0  0  0  0  0  1  0  0  0  0  0  0
  186.2470  178.0770  144.9670 C   0  0  0  0  0  2  0  0  0  0  0  0
  186.9210  176.6420  136.5780 C   0  0  2  0  0  3  0  0  0  0  0  0
  188.3500  177.6950  134.9860 O   0  0  0  0  0  0  0  0  0  0  0  0
  187.4010  178.6880  135.2810 C   0  0  0  0  0  2  0  0  0  0  0  0
  187.9110  177.7700  136.3210 C   0  0  1  0  0  3  0  0  0  0  0  0
  186.0120  177.0420  137.5630 O   0  0  0  0  0  0  0  0  0  0  0  0
  186.7250  177.9220  138.3780 C   0  0  0  0  0  2  0  0  0  0  0  0
  184.4400  178.8280  138.7510 C   0  0  0  0  0  1  0  0  0  0  0  0
  185.7910  178.5670  139.3850 C   0  0  0  0  0  2  0  0  0  0  0  0
  1 47  1  6  0  0  0
  2  8  1  1  0  0  0
  2  1  1  0  0  0  0
  3  1  1  0  0  0  0
  3 25  1  1  0  0  0
  4  2  1  0  0  0  0
  4  3  1  0  0  0  0
  5  6  1  0  0  0  0
  5  8  1  0  0  0  0
  7 11  1  1  0  0  0
  7  5  1  0  0  0  0
  7  6  1  0  0  0  0
  8  9  2  0  0  0  0
 11 10  2  0  0  0  0
 12 13  1  0  0  0  0
 12 11  1  0  0  0  0
 13 14  1  0  0  0  0
 17 18  1  0  0  0  0
 17 15  1  1  0  0  0
 18 20  1  0  0  0  0
 19 21  1  6  0  0  0
 19 24  1  0  0  0  0
 19 23  1  0  0  0  0
 20 16  1  1  0  0  0
 23 22  1  1  0  0  0
 23 20  1  0  0  0  0
 24 14  1  6  0  0  0
 24 17  1  0  0  0  0
 25 26  1  0  0  0  0
 26 30  1  6  0  0  0
 28 29  1  0  0  0  0
 29 27  1  1  0  0  0
 29 26  1  0  0  0  0
 30 38  1  0  0  0  0
 31 37  1  0  0  0  0
 32 31  2  0  0  0  0
 33 35  2  0  0  0  0
 34 37  2  0  0  0  0
 34 40  1  0  0  0  0
 35 34  1  0  0  0  0
 36 32  1  0  0  0  0
 38 36  2  0  0  0  0
 39 38  1  6  0  0  0
 39 33  1  0  0  0  0
 39 31  1  0  0  0  0
 40 46  1  6  0  0  0
 40 41  1  0  0  0  0
 41 42  1  0  0  0  0
 42 44  2  0  0  0  0
 42 43  1  0  0  0  0
 46 45  1  0  0  0  0
 47 51  1  1  0  0  0
 48 49  1  0  0  0  0
 48 50  1  0  0  0  0
 49 50  1  0  0  0  0
 50 47  1  6  0  0  0
 51 52  1  0  0  0  0
 52 54  1  0  0  0  0
 53 54  1  0  0  0  0
M  END
>  <MODEL>
4

>  <REMARK>
 VINA RESULT:      -6.8      2.793      7.026
  Name = 
  19 active torsions:
  status: ('A' for Active; 'I' for Inactive)
    1  A    between atoms: C_2  and  C_7
    2  A    between atoms: C_2  and  C_39
    3  A    between atoms: C_3  and  C_24
    4  A    between atoms: C_3  and  O_26
    5  A    between atoms: N_4  and  C_21
    6  A    between atoms: C_5  and  C_15
    7  A    between atoms: C_5  and  O_26
    8  A    between atoms: C_5  and  C_45
    9  A    between atoms: C_7  and  N_16
   10  A    between atoms: N_8  and  N_16
   11  A    between atoms: N_8  and  C_46
   12  A    between atoms: C_21  and  C_25
   13  A    between atoms: C_21  and  C_36
   14  A    between atoms: C_22  and  C_41
   15  A    between atoms: O_23  and  C_42
   16  A    between atoms: O_23  and  C_47
   17  A    between atoms: C_33  and  C_42
   18  A    between atoms: C_33  and  C_51
   19  A    between atoms: C_42  and  C_53
                            x       y       z     vdW  Elec       q    Type
                         _______ _______ _______ _____ _____    ______ ____

>  <TORSDO>
F 19

$$$$
=
 OpenBabel11042411123D

 54 59  0  0  1  0  0  0  0  0999 V2000
  180.8450  177.8000  139.0570 C   0  0  1  0  0  3  0  0  0  0  0  0
  179.6700  177.9870  140.0020 C   0  0  1  0  0  3  0  0  0  0  0  0
  180.2290  176.5060  138.5450 C   0  0  2  0  0  3  0  0  0  0  0  0
  179.0490  176.7030  139.4810 C   0  0  0  0  0  2  0  0  0  0  0  0
  181.3520  178.4730  141.8700 N   0  0  0  0  0  0  0  0  0  0  0  0
  182.3800  178.7410  142.9170 C   0  0  0  0  0  2  0  0  0  0  0  0
  182.6190  179.2380  141.6510 C   0  0  1  0  0  3  0  0  0  0  0  0
  180.1270  177.8870  141.4300 C   0  0  0  0  0  0  0  0  0  0  0  0
  179.4060  177.2760  142.2590 O   0  0  0  0  0  0  0  0  0  0  0  0
  183.3380  177.2770  140.5080 O   0  0  0  0  0  0  0  0  0  0  0  0
  183.6250  178.3930  140.9210 C   0  0  0  0  0  0  0  0  0  0  0  0
  184.9800  178.9520  140.6470 C   0  0  0  0  0  2  0  0  0  0  0  0
  185.6920  179.1520  141.8970 N   0  0  0  0  0  2  0  0  0  0  0  0
  185.9330  177.8760  142.4310 N   0  0  0  0  0  2  0  0  0  0  0  0
  188.7240  178.4360  141.1220 O   0  0  0  0  0  1  0  0  0  0  0  0
  190.4220  178.4330  143.6450 O   0  0  0  0  0  1  0  0  0  0  0  0
  188.2860  177.3480  141.8750 C   0  0  1  0  0  3  0  0  0  0  0  0
  189.4910  176.5830  142.4400 C   0  0  0  0  0  2  0  0  0  0  0  0
  187.3950  177.0170  144.2490 C   0  0  2  0  0  3  0  0  0  0  0  0
  189.9410  177.1280  143.7960 C   0  0  2  0  0  3  0  0  0  0  0  0
  186.4450  177.4470  145.1790 O   0  0  0  0  0  1  0  0  0  0  0  0
  188.9430  178.0960  145.7830 O   0  0  0  0  0  1  0  0  0  0  0  0
  188.8140  177.0610  144.8500 C   0  0  1  0  0  3  0  0  0  0  0  0
  187.2990  177.8330  142.9540 C   0  0  2  0  0  3  0  0  0  0  0  0
  181.0000  175.4160  138.9850 O   0  0  0  0  0  0  0  0  0  0  0  0
  181.1070  174.4540  137.9490 C   0  0  1  0  0  3  0  0  0  0  0  0
  179.5030  173.7470  136.1480 C   0  0  0  0  0  1  0  0  0  0  0  0
  179.8540  172.3910  138.0690 F   0  0  0  0  0  0  0  0  0  0  0  0
  179.8100  173.7020  137.6310 C   0  0  1  0  0  3  0  0  0  0  0  0
  181.8260  174.9620  136.6990 C   0  0  0  0  0  2  0  0  0  0  0  0
  185.4780  174.3160  137.0630 C   0  0  0  0  0  0  0  0  0  0  0  0
  185.1610  173.4580  136.1530 N   0  0  0  0  0  0  0  0  0  0  0  0
  184.5620  176.5310  137.3240 N   0  0  0  0  0  0  0  0  0  0  0  0
  186.9520  176.1250  137.3550 C   0  0  0  0  0  0  0  0  0  0  0  0
  185.7680  177.0230  137.2890 C   0  0  0  0  0  3  0  0  0  0  0  0
  183.7600  173.5680  135.9450 C   0  0  0  0  0  3  0  0  0  0  0  0
  186.8000  174.8400  137.1820 N   0  0  0  0  0  0  0  0  0  0  0  0
  183.2570  174.5370  136.7000 C   0  0  0  0  0  0  0  0  0  0  0  0
  184.3220  175.1050  137.5660 C   0  0  1  0  0  3  0  0  0  0  0  0
  188.3240  176.7290  137.4490 C   0  0  1  0  0  3  0  0  0  0  0  0
  189.3500  175.7350  137.1540 N   0  0  0  0  0  2  0  0  0  0  0  0
  190.4460  175.4530  138.0290 C   0  0  0  0  0  0  0  0  0  0  0  0
  191.4190  174.4950  137.6380 N   0  0  0  0  0  1  0  0  0  0  0  0
  190.5430  176.0270  139.1450 O   0  0  0  0  0  0  0  0  0  0  0  0
  188.9860  179.1310  137.2030 C   0  0  0  0  0  1  0  0  0  0  0  0
  188.4670  177.8970  136.4850 C   0  0  0  0  0  2  0  0  0  0  0  0
  180.8140  178.8880  137.9840 C   0  0  2  0  0  3  0  0  0  0  0  0
  180.6460  179.2800  135.6380 O   0  0  0  0  0  0  0  0  0  0  0  0
  181.7460  178.4120  135.7460 C   0  0  0  0  0  2  0  0  0  0  0  0
  180.5580  178.2710  136.6150 C   0  0  1  0  0  3  0  0  0  0  0  0
  182.0400  179.5610  137.9650 O   0  0  0  0  0  0  0  0  0  0  0  0
  181.8000  180.7670  138.6250 C   0  0  0  0  0  2  0  0  0  0  0  0
  179.7360  181.6600  139.6870 C   0  0  0  0  0  1  0  0  0  0  0  0
  180.3690  181.2130  138.3850 C   0  0  0  0  0  2  0  0  0  0  0  0
  1 47  1  6  0  0  0
  1  2  1  0  0  0  0
  2  8  1  1  0  0  0
  3 25  1  1  0  0  0
  3  1  1  0  0  0  0
  3  4  1  0  0  0  0
  4  2  1  0  0  0  0
  5  6  1  0  0  0  0
  7 11  1  6  0  0  0
  7  5  1  0  0  0  0
  7  6  1  0  0  0  0
  8  5  1  0  0  0  0
  8  9  2  0  0  0  0
 10 11  2  0  0  0  0
 12 11  1  0  0  0  0
 12 13  1  0  0  0  0
 13 14  1  0  0  0  0
 17 15  1  1  0  0  0
 17 18  1  0  0  0  0
 17 24  1  0  0  0  0
 18 20  1  0  0  0  0
 19 23  1  0  0  0  0
 19 21  1  1  0  0  0
 20 16  1  6  0  0  0
 20 23  1  0  0  0  0
 23 22  1  1  0  0  0
 24 14  1  6  0  0  0
 24 19  1  0  0  0  0
 26 30  1  6  0  0  0
 26 25  1  0  0  0  0
 29 27  1  6  0  0  0
 29 26  1  0  0  0  0
 29 28  1  0  0  0  0
 30 38  1  0  0  0  0
 31 37  1  0  0  0  0
 31 39  1  0  0  0  0
 32 31  2  0  0  0  0
 33 39  1  0  0  0  0
 34 40  1  0  0  0  0
 35 33  2  0  0  0  0
 35 34  1  0  0  0  0
 36 32  1  0  0  0  0
 36 38  2  0  0  0  0
 37 34  2  0  0  0  0
 39 38  1  6  0  0  0
 40 46  1  6  0  0  0
 41 40  1  0  0  0  0
 41 42  1  0  0  0  0
 42 44  2  0  0  0  0
 43 42  1  0  0  0  0
 46 45  1  0  0  0  0
 47 51  1  6  0  0  0
 48 49  1  0  0  0  0
 48 50  1  0  0  0  0
 49 50  1  0  0  0  0
 50 47  1  1  0  0  0
 51 52  1  0  0  0  0
 54 52  1  0  0  0  0
 54 53  1  0  0  0  0
M  END
>  <MODEL>
5

>  <REMARK>
 VINA RESULT:      -6.7      2.719      7.024
  Name = 
  19 active torsions:
  status: ('A' for Active; 'I' for Inactive)
    1  A    between atoms: C_2  and  C_7
    2  A    between atoms: C_2  and  C_39
    3  A    between atoms: C_3  and  C_24
    4  A    between atoms: C_3  and  O_26
    5  A    between atoms: N_4  and  C_21
    6  A    between atoms: C_5  and  C_15
    7  A    between atoms: C_5  and  O_26
    8  A    between atoms: C_5  and  C_45
    9  A    between atoms: C_7  and  N_16
   10  A    between atoms: N_8  and  N_16
   11  A    between atoms: N_8  and  C_46
   12  A    between atoms: C_21  and  C_25
   13  A    between atoms: C_21  and  C_36
   14  A    between atoms: C_22  and  C_41
   15  A    between atoms: O_23  and  C_42
   16  A    between atoms: O_23  and  C_47
   17  A    between atoms: C_33  and  C_42
   18  A    between atoms: C_33  and  C_51
   19  A    between atoms: C_42  and  C_53
                            x       y       z     vdW  Elec       q    Type
                         _______ _______ _______ _____ _____    ______ ____

>  <TORSDO>
F 19

$$$$
=
 OpenBabel11042411123D

 54 59  0  0  1  0  0  0  0  0999 V2000
  187.9100  177.6200  141.5010 C   0  0  1  0  0  3  0  0  0  0  0  0
  186.9220  178.7470  141.7540 C   0  0  1  0  0  3  0  0  0  0  0  0
  188.0130  178.0380  140.0410 C   0  0  2  0  0  3  0  0  0  0  0  0
  187.0350  179.1710  140.3010 C   0  0  0  0  0  2  0  0  0  0  0  0
  184.5580  177.9990  141.1180 N   0  0  0  0  0  0  0  0  0  0  0  0
  183.1750  177.6160  140.7100 C   0  0  0  0  0  2  0  0  0  0  0  0
  184.0240  178.0720  139.7230 C   0  0  1  0  0  3  0  0  0  0  0  0
  185.5720  178.1880  142.1040 C   0  0  0  0  0  0  0  0  0  0  0  0
  185.3340  177.8720  143.2980 O   0  0  0  0  0  0  0  0  0  0  0  0
  184.5950  180.2910  139.0760 O   0  0  0  0  0  0  0  0  0  0  0  0
  183.7080  179.4940  139.3530 C   0  0  0  0  0  0  0  0  0  0  0  0
  182.2820  179.9230  139.2690 C   0  0  0  0  0  2  0  0  0  0  0  0
  181.8290  179.8620  137.8910 N   0  0  0  0  0  2  0  0  0  0  0  0
  180.5540  179.2730  137.9120 N   0  0  0  0  0  2  0  0  0  0  0  0
  182.1390  177.2640  136.1030 O   0  0  0  0  0  1  0  0  0  0  0  0
  181.8460  174.7720  137.8210 O   0  0  0  0  0  1  0  0  0  0  0  0
  180.8090  177.2430  136.5200 C   0  0  1  0  0  3  0  0  0  0  0  0
  180.2420  175.8230  136.3860 C   0  0  0  0  0  2  0  0  0  0  0  0
  179.6090  177.1420  138.7760 C   0  0  2  0  0  3  0  0  0  0  0  0
  180.4750  174.9830  137.6420 C   0  0  2  0  0  3  0  0  0  0  0  0
  179.5080  177.7310  140.0390 O   0  0  0  0  0  1  0  0  0  0  0  0
  180.5610  175.2990  140.0440 O   0  0  0  0  0  1  0  0  0  0  0  0
  179.8340  175.6210  138.8930 C   0  0  1  0  0  3  0  0  0  0  0  0
  180.7080  177.8180  137.9450 C   0  0  2  0  0  3  0  0  0  0  0  0
  187.3990  177.0640  139.2330 O   0  0  0  0  0  0  0  0  0  0  0  0
  188.0480  177.0070  137.9740 C   0  0  1  0  0  3  0  0  0  0  0  0
  185.8990  177.6320  136.8310 C   0  0  0  0  0  1  0  0  0  0  0  0
  187.6790  179.1970  137.0220 F   0  0  0  0  0  0  0  0  0  0  0  0
  187.3970  177.8510  136.8730 C   0  0  1  0  0  3  0  0  0  0  0  0
  189.5650  177.1830  138.0470 C   0  0  0  0  0  2  0  0  0  0  0  0
  191.7260  174.2820  137.1500 C   0  0  0  0  0  0  0  0  0  0  0  0
  190.7420  174.1260  136.3300 N   0  0  0  0  0  0  0  0  0  0  0  0
  192.6730  176.3820  137.8640 N   0  0  0  0  0  0  0  0  0  0  0  0
  194.0610  174.5540  137.0830 C   0  0  0  0  0  0  0  0  0  0  0  0
  193.8480  175.9720  137.4750 C   0  0  0  0  0  3  0  0  0  0  0  0
  189.8050  175.1580  136.6000 C   0  0  0  0  0  3  0  0  0  0  0  0
  193.0320  173.7790  136.8710 N   0  0  0  0  0  0  0  0  0  0  0  0
  190.2670  175.9630  137.5490 C   0  0  0  0  0  0  0  0  0  0  0  0
  191.5610  175.4470  138.0610 C   0  0  1  0  0  3  0  0  0  0  0  0
  195.4520  174.0820  136.7700 C   0  0  1  0  0  3  0  0  0  0  0  0
  196.3760  174.4460  137.8380 N   0  0  0  0  0  2  0  0  0  0  0  0
  197.6510  175.0490  137.6030 C   0  0  0  0  0  0  0  0  0  0  0  0
  198.5010  175.3320  138.7050 N   0  0  0  0  0  1  0  0  0  0  0  0
  198.0160  175.3510  136.4360 O   0  0  0  0  0  0  0  0  0  0  0  0
  195.7920  171.8650  137.8830 C   0  0  0  0  0  1  0  0  0  0  0  0
  195.4800  172.5740  136.5760 C   0  0  0  0  0  2  0  0  0  0  0  0
  189.2120  177.9070  142.2490 C   0  0  2  0  0  3  0  0  0  0  0  0
  190.5370  176.3290  141.0480 O   0  0  0  0  0  0  0  0  0  0  0  0
  191.4550  176.9230  141.9310 C   0  0  0  0  0  2  0  0  0  0  0  0
  190.0600  176.6450  142.3340 C   0  0  1  0  0  3  0  0  0  0  0  0
  188.9190  178.3540  143.5420 O   0  0  0  0  0  0  0  0  0  0  0  0
  188.8360  177.1950  144.3150 C   0  0  0  0  0  2  0  0  0  0  0  0
  187.2880  177.7260  146.1880 C   0  0  0  0  0  1  0  0  0  0  0  0
  188.7390  177.5600  145.7850 C   0  0  0  0  0  2  0  0  0  0  0  0
  1  2  1  0  0  0  0
  1 47  1  1  0  0  0
  2  8  1  6  0  0  0
  3 25  1  6  0  0  0
  3  4  1  0  0  0  0
  3  1  1  0  0  0  0
  4  2  1  0  0  0  0
  5  8  1  0  0  0  0
  6  5  1  0  0  0  0
  7 11  1  1  0  0  0
  7  6  1  0  0  0  0
  7  5  1  0  0  0  0
  8  9  2  0  0  0  0
 10 11  2  0  0  0  0
 12 11  1  0  0  0  0
 13 14  1  0  0  0  0
 13 12  1  0  0  0  0
 17 15  1  1  0  0  0
 17 24  1  0  0  0  0
 18 17  1  0  0  0  0
 18 20  1  0  0  0  0
 19 23  1  0  0  0  0
 19 21  1  1  0  0  0
 20 16  1  1  0  0  0
 20 23  1  0  0  0  0
 23 22  1  1  0  0  0
 24 14  1  6  0  0  0
 24 19  1  0  0  0  0
 26 30  1  1  0  0  0
 26 25  1  0  0  0  0
 29 27  1  1  0  0  0
 29 28  1  0  0  0  0
 29 26  1  0  0  0  0
 32 36  1  0  0  0  0
 32 31  2  0  0  0  0
 33 39  1  0  0  0  0
 34 35  1  0  0  0  0
 35 33  2  0  0  0  0
 36 38  2  0  0  0  0
 37 34  2  0  0  0  0
 37 31  1  0  0  0  0
 38 30  1  0  0  0  0
 38 39  1  0  0  0  0
 39 31  1  6  0  0  0
 40 46  1  1  0  0  0
 40 34  1  0  0  0  0
 40 41  1  0  0  0  0
 42 41  1  0  0  0  0
 42 43  1  0  0  0  0
 44 42  2  0  0  0  0
 46 45  1  0  0  0  0
 47 51  1  1  0  0  0
 48 49  1  0  0  0  0
 48 50  1  0  0  0  0
 49 50  1  0  0  0  0
 50 47  1  6  0  0  0
 51 52  1  0  0  0  0
 52 54  1  0  0  0  0
 54 53  1  0  0  0  0
M  END
>  <MODEL>
6

>  <REMARK>
 VINA RESULT:      -6.5      3.950      9.045
  Name = 
  19 active torsions:
  status: ('A' for Active; 'I' for Inactive)
    1  A    between atoms: C_2  and  C_7
    2  A    between atoms: C_2  and  C_39
    3  A    between atoms: C_3  and  C_24
    4  A    between atoms: C_3  and  O_26
    5  A    between atoms: N_4  and  C_21
    6  A    between atoms: C_5  and  C_15
    7  A    between atoms: C_5  and  O_26
    8  A    between atoms: C_5  and  C_45
    9  A    between atoms: C_7  and  N_16
   10  A    between atoms: N_8  and  N_16
   11  A    between atoms: N_8  and  C_46
   12  A    between atoms: C_21  and  C_25
   13  A    between atoms: C_21  and  C_36
   14  A    between atoms: C_22  and  C_41
   15  A    between atoms: O_23  and  C_42
   16  A    between atoms: O_23  and  C_47
   17  A    between atoms: C_33  and  C_42
   18  A    between atoms: C_33  and  C_51
   19  A    between atoms: C_42  and  C_53
                            x       y       z     vdW  Elec       q    Type
                         _______ _______ _______ _____ _____    ______ ____

>  <TORSDO>
F 19

$$$$
=
 OpenBabel11042411123D

 54 59  0  0  1  0  0  0  0  0999 V2000
  186.0230  177.7980  143.9370 C   0  0  1  0  0  3  0  0  0  0  0  0
  185.1660  179.0040  143.5850 C   0  0  1  0  0  3  0  0  0  0  0  0
  187.1200  178.3070  143.0130 C   0  0  2  0  0  3  0  0  0  0  0  0
  186.2670  179.5170  142.6750 C   0  0  0  0  0  2  0  0  0  0  0  0
  184.0110  177.9910  141.5380 N   0  0  0  0  0  0  0  0  0  0  0  0
  183.3760  177.4370  140.3070 C   0  0  0  0  0  2  0  0  0  0  0  0
  184.7530  177.5190  140.3290 C   0  0  1  0  0  3  0  0  0  0  0  0
  183.9360  178.5700  142.8400 C   0  0  0  0  0  0  0  0  0  0  0  0
  182.8110  178.7160  143.3850 O   0  0  0  0  0  0  0  0  0  0  0  0
  185.0520  179.8400  139.8890 O   0  0  0  0  0  0  0  0  0  0  0  0
  185.2370  178.6890  139.5170 C   0  0  0  0  0  0  0  0  0  0  0  0
  186.0050  178.4350  138.2640 C   0  0  0  0  0  2  0  0  0  0  0  0
  185.1480  177.7960  137.2820 N   0  0  0  0  0  2  0  0  0  0  0  0
  185.9950  177.1260  136.3840 N   0  0  0  0  0  2  0  0  0  0  0  0
  183.3640  175.4900  135.9110 O   0  0  0  0  0  1  0  0  0  0  0  0
  184.5650  172.6960  135.8620 O   0  0  0  0  0  1  0  0  0  0  0  0
  184.2740  175.4470  136.9670 C   0  0  1  0  0  3  0  0  0  0  0  0
  184.1230  174.1250  137.7330 C   0  0  0  0  0  2  0  0  0  0  0  0
  186.7620  174.9090  137.2080 C   0  0  2  0  0  3  0  0  0  0  0  0
  184.9990  173.0140  137.1520 C   0  0  2  0  0  3  0  0  0  0  0  0
  188.0420  175.2060  136.7320 O   0  0  0  0  0  1  0  0  0  0  0  0
  187.1740  172.7810  136.1060 O   0  0  0  0  0  1  0  0  0  0  0  0
  186.4970  173.3910  137.1680 C   0  0  1  0  0  3  0  0  0  0  0  0
  185.6970  175.6940  136.4320 C   0  0  2  0  0  3  0  0  0  0  0  0
  187.2110  177.4670  141.8890 O   0  0  0  0  0  0  0  0  0  0  0  0
  188.5720  177.1920  141.6040 C   0  0  1  0  0  3  0  0  0  0  0  0
  190.2480  176.7320  143.4180 C   0  0  0  0  0  1  0  0  0  0  0  0
  188.2710  175.4250  143.2250 F   0  0  0  0  0  0  0  0  0  0  0  0
  189.2150  176.1230  142.4930 C   0  0  1  0  0  3  0  0  0  0  0  0
  188.8690  176.9930  140.1170 C   0  0  0  0  0  2  0  0  0  0  0  0
  192.4080  177.0460  138.9500 C   0  0  0  0  0  0  0  0  0  0  0  0
  192.5380  177.4600  140.1650 N   0  0  0  0  0  0  0  0  0  0  0  0
  190.8500  175.3820  138.1640 N   0  0  0  0  0  0  0  0  0  0  0  0
  193.2010  175.3100  137.5760 C   0  0  0  0  0  0  0  0  0  0  0  0
  191.8420  174.7110  137.6500 C   0  0  0  0  0  3  0  0  0  0  0  0
  191.2340  177.5310  140.7240 C   0  0  0  0  0  3  0  0  0  0  0  0
  193.4690  176.3930  138.2540 N   0  0  0  0  0  0  0  0  0  0  0  0
  190.3330  177.1030  139.8490 C   0  0  0  0  0  0  0  0  0  0  0  0
  190.9960  176.7860  138.5580 C   0  0  1  0  0  3  0  0  0  0  0  0
  194.2910  174.5670  136.8580 C   0  0  1  0  0  3  0  0  0  0  0  0
  195.5980  174.8990  137.4120 N   0  0  0  0  0  2  0  0  0  0  0  0
  196.7920  174.9590  136.6270 C   0  0  0  0  0  0  0  0  0  0  0  0
  198.0280  175.2520  137.2620 N   0  0  0  0  0  1  0  0  0  0  0  0
  196.7540  174.7780  135.3820 O   0  0  0  0  0  0  0  0  0  0  0  0
  194.0330  172.4340  135.5720 C   0  0  0  0  0  1  0  0  0  0  0  0
  194.0730  173.0650  136.9540 C   0  0  0  0  0  2  0  0  0  0  0  0
  186.4500  177.8860  145.4020 C   0  0  2  0  0  3  0  0  0  0  0  0
  184.3680  178.7010  146.2320 O   0  0  0  0  0  0  0  0  0  0  0  0
  185.1630  178.5970  147.3860 C   0  0  0  0  0  2  0  0  0  0  0  0
  185.7290  179.0350  146.0930 C   0  0  1  0  0  3  0  0  0  0  0  0
  187.8310  178.0980  145.4730 O   0  0  0  0  0  0  0  0  0  0  0  0
  188.2730  177.2540  146.4930 C   0  0  0  0  0  2  0  0  0  0  0  0
  190.1700  177.6550  148.0510 C   0  0  0  0  0  1  0  0  0  0  0  0
  189.7830  177.3440  146.6200 C   0  0  0  0  0  2  0  0  0  0  0  0
  1 47  1  1  0  0  0
  2  8  1  6  0  0  0
  2  1  1  0  0  0  0
  3 25  1  6  0  0  0
  3  1  1  0  0  0  0
  4  3  1  0  0  0  0
  4  2  1  0  0  0  0
  5  8  1  0  0  0  0
  6  7  1  0  0  0  0
  6  5  1  0  0  0  0
  7 11  1  6  0  0  0
  7  5  1  0  0  0  0
  8  9  2  0  0  0  0
 11 10  2  0  0  0  0
 12 11  1  0  0  0  0
 13 12  1  0  0  0  0
 14 13  1  0  0  0  0
 17 15  1  6  0  0  0
 17 18  1  0  0  0  0
 19 21  1  6  0  0  0
 20 16  1  6  0  0  0
 20 23  1  0  0  0  0
 20 18  1  0  0  0  0
 23 22  1  6  0  0  0
 23 19  1  0  0  0  0
 24 14  1  1  0  0  0
 24 17  1  0  0  0  0
 24 19  1  0  0  0  0
 26 30  1  6  0  0  0
 26 25  1  0  0  0  0
 26 29  1  0  0  0  0
 29 28  1  0  0  0  0
 29 27  1  1  0  0  0
 31 32  2  0  0  0  0
 32 36  1  0  0  0  0
 34 35  1  0  0  0  0
 34 37  2  0  0  0  0
 35 33  2  0  0  0  0
 37 31  1  0  0  0  0
 38 30  1  0  0  0  0
 38 36  2  0  0  0  0
 39 33  1  1  0  0  0
 39 31  1  0  0  0  0
 39 38  1  0  0  0  0
 40 46  1  1  0  0  0
 40 41  1  0  0  0  0
 40 34  1  0  0  0  0
 42 43  1  0  0  0  0
 42 41  1  0  0  0  0
 44 42  2  0  0  0  0
 45 46  1  0  0  0  0
 47 51  1  6  0  0  0
 48 49  1  0  0  0  0
 50 47  1  6  0  0  0
 50 48  1  0  0  0  0
 50 49  1  0  0  0  0
 51 52  1  0  0  0  0
 52 54  1  0  0  0  0
 54 53  1  0  0  0  0
M  END
>  <MODEL>
7

>  <REMARK>
 VINA RESULT:      -6.4      3.800      7.989
  Name = 
  19 active torsions:
  status: ('A' for Active; 'I' for Inactive)
    1  A    between atoms: C_2  and  C_7
    2  A    between atoms: C_2  and  C_39
    3  A    between atoms: C_3  and  C_24
    4  A    between atoms: C_3  and  O_26
    5  A    between atoms: N_4  and  C_21
    6  A    between atoms: C_5  and  C_15
    7  A    between atoms: C_5  and  O_26
    8  A    between atoms: C_5  and  C_45
    9  A    between atoms: C_7  and  N_16
   10  A    between atoms: N_8  and  N_16
   11  A    between atoms: N_8  and  C_46
   12  A    between atoms: C_21  and  C_25
   13  A    between atoms: C_21  and  C_36
   14  A    between atoms: C_22  and  C_41
   15  A    between atoms: O_23  and  C_42
   16  A    between atoms: O_23  and  C_47
   17  A    between atoms: C_33  and  C_42
   18  A    between atoms: C_33  and  C_51
   19  A    between atoms: C_42  and  C_53
                            x       y       z     vdW  Elec       q    Type
                         _______ _______ _______ _____ _____    ______ ____

>  <TORSDO>
F 19

$$$$
=
 OpenBabel11042411123D

 54 59  0  0  1  0  0  0  0  0999 V2000
  189.0920  178.0730  142.0800 C   0  0  1  0  0  3  0  0  0  0  0  0
  189.9790  176.8380  142.0630 C   0  0  1  0  0  3  0  0  0  0  0  0
  188.5080  177.6720  140.7330 C   0  0  2  0  0  3  0  0  0  0  0  0
  189.3850  176.4330  140.7250 C   0  0  0  0  0  2  0  0  0  0  0  0
  192.0650  177.4630  140.7170 N   0  0  0  0  0  0  0  0  0  0  0  0
  193.2680  177.7780  139.8920 C   0  0  0  0  0  2  0  0  0  0  0  0
  192.0880  177.5210  139.2230 C   0  0  1  0  0  3  0  0  0  0  0  0
  191.4250  177.2360  141.9720 C   0  0  0  0  0  0  0  0  0  0  0  0
  192.0850  177.3790  143.0340 O   0  0  0  0  0  0  0  0  0  0  0  0
  191.0890  175.4300  138.6780 O   0  0  0  0  0  0  0  0  0  0  0  0
  192.0890  176.1350  138.6410 C   0  0  0  0  0  0  0  0  0  0  0  0
  193.3160  175.6340  137.9570 C   0  0  0  0  0  2  0  0  0  0  0  0
  193.0300  174.3780  137.2890 N   0  0  0  0  0  2  0  0  0  0  0  0
  194.0480  173.4840  137.6600 N   0  0  0  0  0  2  0  0  0  0  0  0
  195.1740  174.5880  134.9520 O   0  0  0  0  0  1  0  0  0  0  0  0
  197.7280  175.8610  136.0020 O   0  0  0  0  0  1  0  0  0  0  0  0
  195.7200  173.6670  135.8450 C   0  0  1  0  0  3  0  0  0  0  0  0
  197.2330  173.5500  135.6150 C   0  0  0  0  0  2  0  0  0  0  0  0
  196.4410  173.7150  138.2970 C   0  0  2  0  0  3  0  0  0  0  0  0
  198.0260  174.5660  136.4370 C   0  0  2  0  0  3  0  0  0  0  0  0
  196.0350  174.0310  139.5970 O   0  0  0  0  0  1  0  0  0  0  0  0
  197.8960  175.6380  138.6090 O   0  0  0  0  0  1  0  0  0  0  0  0
  197.7740  174.4080  137.9520 C   0  0  1  0  0  3  0  0  0  0  0  0
  195.3410  174.0590  137.2850 C   0  0  2  0  0  3  0  0  0  0  0  0
  188.9530  178.5690  139.7460 O   0  0  0  0  0  0  0  0  0  0  0  0
  188.1390  178.4550  138.5910 C   0  0  1  0  0  3  0  0  0  0  0  0
  189.3860  177.7510  136.5250 C   0  0  0  0  0  1  0  0  0  0  0  0
  187.9130  179.6190  136.4850 F   0  0  0  0  0  0  0  0  0  0  0  0
  188.7970  178.9210  137.2880 C   0  0  1  0  0  3  0  0  0  0  0  0
  187.4350  177.1040  138.4570 C   0  0  0  0  0  2  0  0  0  0  0  0
  183.9290  178.0130  137.5810 C   0  0  0  0  0  0  0  0  0  0  0  0
  184.0430  176.8660  137.0010 N   0  0  0  0  0  0  0  0  0  0  0  0
  184.9030  178.6520  139.6920 N   0  0  0  0  0  0  0  0  0  0  0  0
  182.5660  179.0550  139.1890 C   0  0  0  0  0  0  0  0  0  0  0  0
  183.7200  178.9890  140.1240 C   0  0  0  0  0  3  0  0  0  0  0  0
  185.3730  176.4170  137.2210 C   0  0  0  0  0  3  0  0  0  0  0  0
  182.6650  178.5270  138.0000 N   0  0  0  0  0  0  0  0  0  0  0  0
  186.0300  177.2810  137.9840 C   0  0  0  0  0  0  0  0  0  0  0  0
  185.1720  178.4610  138.2640 C   0  0  1  0  0  3  0  0  0  0  0  0
  181.2490  179.5760  139.6880 C   0  0  1  0  0  3  0  0  0  0  0  0
  180.9440  180.8730  139.0930 N   0  0  0  0  0  2  0  0  0  0  0  0
  180.2520  181.0240  137.8510 C   0  0  0  0  0  0  0  0  0  0  0  0
  180.0350  182.3260  137.3290 N   0  0  0  0  0  1  0  0  0  0  0  0
  179.8160  180.0190  137.2290 O   0  0  0  0  0  0  0  0  0  0  0  0
  180.2000  177.3760  140.2620 C   0  0  0  0  0  1  0  0  0  0  0  0
  180.1260  178.6020  139.3680 C   0  0  0  0  0  2  0  0  0  0  0  0
  188.0540  177.9390  143.1930 C   0  0  2  0  0  3  0  0  0  0  0  0
  189.4940  177.7340  145.0830 O   0  0  0  0  0  0  0  0  0  0  0  0
  188.2120  177.5430  145.6260 C   0  0  0  0  0  2  0  0  0  0  0  0
  188.5740  177.0210  144.2920 C   0  0  1  0  0  3  0  0  0  0  0  0
  186.8720  177.4060  142.6680 O   0  0  0  0  0  0  0  0  0  0  0  0
  185.9250  178.4220  142.8080 C   0  0  0  0  0  2  0  0  0  0  0  0
  184.3180  179.4450  144.4070 C   0  0  0  0  0  1  0  0  0  0  0  0
  185.1110  178.1990  144.0700 C   0  0  0  0  0  2  0  0  0  0  0  0
  1 47  1  1  0  0  0
  2  8  1  6  0  0  0
  2  1  1  0  0  0  0
  3 25  1  6  0  0  0
  3  1  1  0  0  0  0
  4  3  1  0  0  0  0
  4  2  1  0  0  0  0
  5  8  1  0  0  0  0
  6  5  1  0  0  0  0
  7 11  1  6  0  0  0
  7  6  1  0  0  0  0
  7  5  1  0  0  0  0
  8  9  2  0  0  0  0
 11 10  2  0  0  0  0
 12 11  1  0  0  0  0
 13 14  1  0  0  0  0
 13 12  1  0  0  0  0
 17 15  1  6  0  0  0
 17 24  1  0  0  0  0
 18 17  1  0  0  0  0
 18 20  1  0  0  0  0
 19 21  1  1  0  0  0
 20 16  1  6  0  0  0
 20 23  1  0  0  0  0
 23 19  1  0  0  0  0
 23 22  1  1  0  0  0
 24 14  1  1  0  0  0
 24 19  1  0  0  0  0
 26 30  1  6  0  0  0
 26 25  1  0  0  0  0
 28 29  1  0  0  0  0
 29 27  1  6  0  0  0
 29 26  1  0  0  0  0
 31 37  1  0  0  0  0
 32 36  1  0  0  0  0
 32 31  2  0  0  0  0
 33 35  2  0  0  0  0
 34 40  1  0  0  0  0
 34 35  1  0  0  0  0
 36 38  2  0  0  0  0
 37 34  2  0  0  0  0
 38 39  1  0  0  0  0
 38 30  1  0  0  0  0
 39 31  1  6  0  0  0
 39 33  1  0  0  0  0
 40 46  1  6  0  0  0
 41 40  1  0  0  0  0
 42 41  1  0  0  0  0
 43 42  1  0  0  0  0
 44 42  2  0  0  0  0
 46 45  1  0  0  0  0
 47 51  1  6  0  0  0
 48 49  1  0  0  0  0
 50 47  1  6  0  0  0
 50 48  1  0  0  0  0
 50 49  1  0  0  0  0
 51 52  1  0  0  0  0
 52 54  1  0  0  0  0
 54 53  1  0  0  0  0
M  END
>  <MODEL>
8

>  <REMARK>
 VINA RESULT:      -6.3      4.342      9.117
  Name = 
  19 active torsions:
  status: ('A' for Active; 'I' for Inactive)
    1  A    between atoms: C_2  and  C_7
    2  A    between atoms: C_2  and  C_39
    3  A    between atoms: C_3  and  C_24
    4  A    between atoms: C_3  and  O_26
    5  A    between atoms: N_4  and  C_21
    6  A    between atoms: C_5  and  C_15
    7  A    between atoms: C_5  and  O_26
    8  A    between atoms: C_5  and  C_45
    9  A    between atoms: C_7  and  N_16
   10  A    between atoms: N_8  and  N_16
   11  A    between atoms: N_8  and  C_46
   12  A    between atoms: C_21  and  C_25
   13  A    between atoms: C_21  and  C_36
   14  A    between atoms: C_22  and  C_41
   15  A    between atoms: O_23  and  C_42
   16  A    between atoms: O_23  and  C_47
   17  A    between atoms: C_33  and  C_42
   18  A    between atoms: C_33  and  C_51
   19  A    between atoms: C_42  and  C_53
                            x       y       z     vdW  Elec       q    Type
                         _______ _______ _______ _____ _____    ______ ____

>  <TORSDO>
F 19

$$$$
=
 OpenBabel11042411123D

 54 59  0  0  1  0  0  0  0  0999 V2000
  187.1760  177.7690  142.8570 C   0  0  1  0  0  3  0  0  0  0  0  0
  186.0980  178.8400  142.9110 C   0  0  1  0  0  3  0  0  0  0  0  0
  187.7020  178.3640  141.5570 C   0  0  2  0  0  3  0  0  0  0  0  0
  186.6320  179.4400  141.6220 C   0  0  0  0  0  2  0  0  0  0  0  0
  184.1730  177.9580  141.4730 N   0  0  0  0  0  0  0  0  0  0  0  0
  183.0580  177.4960  140.5970 C   0  0  0  0  0  2  0  0  0  0  0  0
  184.1950  177.9740  139.9770 C   0  0  1  0  0  3  0  0  0  0  0  0
  184.7380  178.2210  142.7570 C   0  0  0  0  0  0  0  0  0  0  0  0
  184.0860  177.9190  143.7890 O   0  0  0  0  0  0  0  0  0  0  0  0
  184.9280  180.1190  139.2520 O   0  0  0  0  0  0  0  0  0  0  0  0
  183.9830  179.3690  139.4610 C   0  0  0  0  0  0  0  0  0  0  0  0
  182.5980  179.8250  139.1460 C   0  0  0  0  0  2  0  0  0  0  0  0
  182.1420  179.1990  137.9180 N   0  0  0  0  0  2  0  0  0  0  0  0
  180.7880  178.8770  138.1100 N   0  0  0  0  0  2  0  0  0  0  0  0
  181.8370  176.6280  136.1960 O   0  0  0  0  0  1  0  0  0  0  0  0
  181.1400  174.2110  137.9040 O   0  0  0  0  0  1  0  0  0  0  0  0
  180.5540  176.8660  136.6870 C   0  0  1  0  0  3  0  0  0  0  0  0
  179.7060  175.5920  136.5720 C   0  0  0  0  0  2  0  0  0  0  0  0
  179.4810  176.9610  139.0060 C   0  0  2  0  0  3  0  0  0  0  0  0
  179.8330  174.6960  137.8050 C   0  0  2  0  0  3  0  0  0  0  0  0
  179.5690  177.5330  140.2790 O   0  0  0  0  0  1  0  0  0  0  0  0
  180.1090  174.9400  140.2020 O   0  0  0  0  0  1  0  0  0  0  0  0
  179.4010  175.4250  139.0960 C   0  0  1  0  0  3  0  0  0  0  0  0
  180.6470  177.4200  138.1210 C   0  0  2  0  0  3  0  0  0  0  0  0
  187.4210  177.4860  140.4950 O   0  0  0  0  0  0  0  0  0  0  0  0
  188.6130  177.1930  139.7870 C   0  0  1  0  0  3  0  0  0  0  0  0
  188.0090  178.3120  137.6200 C   0  0  0  0  0  1  0  0  0  0  0  0
  189.1930  179.4900  139.3120 F   0  0  0  0  0  0  0  0  0  0  0  0
  189.0200  178.2410  138.7460 C   0  0  1  0  0  3  0  0  0  0  0  0
  189.7740  176.7510  140.6780 C   0  0  0  0  0  2  0  0  0  0  0  0
  192.7990  176.9340  138.5100 C   0  0  0  0  0  0  0  0  0  0  0  0
  193.2380  177.4690  139.5990 N   0  0  0  0  0  0  0  0  0  0  0  0
  191.2420  175.1000  138.3430 N   0  0  0  0  0  0  0  0  0  0  0  0
  193.3170  175.1330  137.0880 C   0  0  0  0  0  0  0  0  0  0  0  0
  192.1000  174.4530  137.6060 C   0  0  0  0  0  3  0  0  0  0  0  0
  192.1530  177.5040  140.5140 C   0  0  0  0  0  3  0  0  0  0  0  0
  193.6690  176.2910  137.5780 N   0  0  0  0  0  0  0  0  0  0  0  0
  191.0800  176.9340  139.9790 C   0  0  0  0  0  0  0  0  0  0  0  0
  191.3660  176.5420  138.5760 C   0  0  1  0  0  3  0  0  0  0  0  0
  194.2140  174.4010  136.1330 C   0  0  1  0  0  3  0  0  0  0  0  0
  195.6160  174.6920  136.4100 N   0  0  0  0  0  2  0  0  0  0  0  0
  196.3610  175.7000  135.7200 C   0  0  0  0  0  0  0  0  0  0  0  0
  197.7340  175.8850  136.0310 N   0  0  0  0  0  1  0  0  0  0  0  0
  195.8080  176.4340  134.8600 O   0  0  0  0  0  0  0  0  0  0  0  0
  194.9960  172.2540  137.1560 C   0  0  0  0  0  1  0  0  0  0  0  0
  193.9880  172.8990  136.2210 C   0  0  0  0  0  2  0  0  0  0  0  0
  188.1660  177.9840  144.0010 C   0  0  2  0  0  3  0  0  0  0  0  0
  190.2100  179.0110  143.3300 O   0  0  0  0  0  0  0  0  0  0  0  0
  190.5670  178.2970  144.4870 C   0  0  0  0  0  2  0  0  0  0  0  0
  189.5910  177.7610  143.5150 C   0  0  1  0  0  3  0  0  0  0  0  0
  187.8850  177.0850  145.0350 O   0  0  0  0  0  0  0  0  0  0  0  0
  187.5930  177.8860  146.1410 C   0  0  0  0  0  2  0  0  0  0  0  0
  188.2890  178.2580  148.4990 C   0  0  0  0  0  1  0  0  0  0  0  0
  188.0990  177.2230  147.4090 C   0  0  0  0  0  2  0  0  0  0  0  0
  1  2  1  0  0  0  0
  1 47  1  1  0  0  0
  2  8  1  6  0  0  0
  3 25  1  6  0  0  0
  3  4  1  0  0  0  0
  3  1  1  0  0  0  0
  4  2  1  0  0  0  0
  5  8  1  0  0  0  0
  6  5  1  0  0  0  0
  7 11  1  1  0  0  0
  7  6  1  0  0  0  0
  7  5  1  0  0  0  0
  8  9  2  0  0  0  0
 10 11  2  0  0  0  0
 12 11  1  0  0  0  0
 13 14  1  0  0  0  0
 13 12  1  0  0  0  0
 17 15  1  1  0  0  0
 17 24  1  0  0  0  0
 18 17  1  0  0  0  0
 18 20  1  0  0  0  0
 19 23  1  0  0  0  0
 19 21  1  1  0  0  0
 20 16  1  1  0  0  0
 20 23  1  0  0  0  0
 23 22  1  1  0  0  0
 24 14  1  6  0  0  0
 24 19  1  0  0  0  0
 26 25  1  0  0  0  0
 26 30  1  1  0  0  0
 29 27  1  6  0  0  0
 29 28  1  0  0  0  0
 29 26  1  0  0  0  0
 31 39  1  0  0  0  0
 31 32  2  0  0  0  0
 32 36  1  0  0  0  0
 34 37  2  0  0  0  0
 34 35  1  0  0  0  0
 35 33  2  0  0  0  0
 37 31  1  0  0  0  0
 38 36  2  0  0  0  0
 38 30  1  0  0  0  0
 39 33  1  1  0  0  0
 39 38  1  0  0  0  0
 40 46  1  1  0  0  0
 40 41  1  0  0  0  0
 40 34  1  0  0  0  0
 42 43  1  0  0  0  0
 42 41  1  0  0  0  0
 44 42  2  0  0  0  0
 46 45  1  0  0  0  0
 47 51  1  1  0  0  0
 48 50  1  0  0  0  0
 48 49  1  0  0  0  0
 50 47  1  1  0  0  0
 50 49  1  0  0  0  0
 51 52  1  0  0  0  0
 52 54  1  0  0  0  0
 54 53  1  0  0  0  0
M  END
>  <MODEL>
9

>  <REMARK>
 VINA RESULT:      -6.2      3.757      8.918
  Name = 
  19 active torsions:
  status: ('A' for Active; 'I' for Inactive)
    1  A    between atoms: C_2  and  C_7
    2  A    between atoms: C_2  and  C_39
    3  A    between atoms: C_3  and  C_24
    4  A    between atoms: C_3  and  O_26
    5  A    between atoms: N_4  and  C_21
    6  A    between atoms: C_5  and  C_15
    7  A    between atoms: C_5  and  O_26
    8  A    between atoms: C_5  and  C_45
    9  A    between atoms: C_7  and  N_16
   10  A    between atoms: N_8  and  N_16
   11  A    between atoms: N_8  and  C_46
   12  A    between atoms: C_21  and  C_25
   13  A    between atoms: C_21  and  C_36
   14  A    between atoms: C_22  and  C_41
   15  A    between atoms: O_23  and  C_42
   16  A    between atoms: O_23  and  C_47
   17  A    between atoms: C_33  and  C_42
   18  A    between atoms: C_33  and  C_51
   19  A    between atoms: C_42  and  C_53
                            x       y       z     vdW  Elec       q    Type
                         _______ _______ _______ _____ _____    ______ ____

>  <TORSDO>
F 19

$$$$
