=
 OpenBabel11042410503D

 31 32  0  0  1  0  0  0  0  0999 V2000
  186.8270  178.4640  145.4280 C   0  0  2  0  0  3  0  0  0  0  0  0
  184.1690  178.7630  140.2490 C   0  0  0  0  0  2  0  0  0  0  0  0
  184.3480  178.8260  142.7790 C   0  0  0  0  0  3  0  0  0  0  0  0
  185.5700  179.1630  140.1300 N   0  0  0  0  0  2  0  0  0  0  0  0
  187.5990  178.8900  141.3390 C   0  0  0  0  0  3  0  0  0  0  0  0
  189.3120  178.9550  142.9010 F   0  0  0  0  0  0  0  0  0  0  0  0
  185.4390  178.4660  143.4120 C   0  0  0  0  0  0  0  0  0  0  0  0
  186.5670  178.1250  143.9980 C   0  0  0  0  0  0  0  0  0  0  0  0
  183.8790  178.0490  141.5850 C   0  0  0  0  0  2  0  0  0  0  0  0
  186.5810  178.3400  140.6940 C   0  0  0  0  0  3  0  0  0  0  0  0
  188.4750  178.0700  142.2440 C   0  0  1  0  0  0  0  0  0  0  0  0
  188.5040  177.8710  145.8220 S   0  0  0  0  0  0  0  0  0  0  0  0
  188.4280  176.6710  144.4570 C   0  0  1  0  0  3  0  0  0  0  0  0
  187.6190  177.2890  143.3070 C   0  0  1  0  0  3  0  0  0  0  0  0
  185.8150  177.7780  146.3360 C   0  0  0  0  0  2  0  0  0  0  0  0
  184.9600  178.7270  146.8950 O   0  0  0  0  0  1  0  0  0  0  0  0
  189.3630  177.1290  141.4090 C   0  0  0  0  0  2  0  0  0  0  0  0
  190.7670  177.6660  141.1620 C   0  0  0  0  0  2  0  0  0  0  0  0
  191.3560  177.0180  139.9240 C   0  0  0  0  0  2  0  0  0  0  0  0
  190.2530  176.6660  138.9400 C   0  0  0  0  0  2  0  0  0  0  0  0
  190.3700  177.4530  137.7820 O   0  0  0  0  0  0  0  0  0  0  0  0
  188.0720  177.4950  137.9190 F   0  0  0  0  0  0  0  0  0  0  0  0
  189.2800  179.2550  138.6170 F   0  0  0  0  0  0  0  0  0  0  0  0
  189.2120  178.2470  137.6740 C   0  0  0  0  0  0  0  0  0  0  0  0
  189.1310  178.8290  136.4180 F   0  0  0  0  0  0  0  0  0  0  0  0
  189.7110  176.2710  144.0820 O   0  0  0  0  0  0  0  0  0  0  0  0
  190.5670  176.9990  144.9130 C   0  0  0  0  0  2  0  0  0  0  0  0
  191.9480  176.2140  146.8800 C   0  0  0  0  0  0  0  0  0  0  0  0
  191.5460  176.1060  145.5140 N   0  0  0  0  0  2  0  0  0  0  0  0
  191.4800  177.1230  147.6180 O   0  0  0  0  0  0  0  0  0  0  0  0
  192.8900  175.2920  147.4120 N   0  0  0  0  0  1  0  0  0  0  0  0
  1 12  1  0  0  0  0
  1 15  1  1  0  0  0
  2  9  1  0  0  0  0
  3  7  2  0  0  0  0
  4  2  1  0  0  0  0
  4 10  1  0  0  0  0
  5 11  1  0  0  0  0
  7  8  2  0  0  0  0
  8  1  1  0  0  0  0
  9  3  1  0  0  0  0
 10  5  2  0  0  0  0
 11  6  1  1  0  0  0
 11 14  1  0  0  0  0
 13 26  1  6  0  0  0
 13 12  1  0  0  0  0
 14  8  1  1  0  0  0
 14 13  1  0  0  0  0
 15 16  1  0  0  0  0
 17 11  1  0  0  0  0
 18 17  1  0  0  0  0
 19 18  1  0  0  0  0
 20 19  1  0  0  0  0
 21 20  1  0  0  0  0
 24 21  1  0  0  0  0
 24 22  1  0  0  0  0
 24 23  1  0  0  0  0
 25 24  1  0  0  0  0
 26 27  1  0  0  0  0
 27 29  1  0  0  0  0
 28 31  1  0  0  0  0
 28 30  2  0  0  0  0
 29 28  1  0  0  0  0
M  END
>  <MODEL>
1

>  <REMARK>
 VINA RESULT:      -7.6      0.000      0.000
  Name = 
  10 active torsions:
  status: ('A' for Active; 'I' for Inactive)
    1  A    between atoms: C_1  and  N_10
    2  A    between atoms: C_1  and  O_16
    3  A    between atoms: C_2  and  C_5
    4  A    between atoms: C_3  and  C_8
    5  A    between atoms: C_3  and  C_23
    6  A    between atoms: C_8  and  C_29
    7  A    between atoms: O_16  and  C_26
    8  A    between atoms: C_18  and  O_27
    9  A    between atoms: C_18  and  C_29
   10  A    between atoms: C_24  and  O_27
                            x       y       z     vdW  Elec       q    Type
                         _______ _______ _______ _____ _____    ______ ____

>  <TORSDO>
F 10

$$$$
=
 OpenBabel11042410503D

 31 32  0  0  1  0  0  0  0  0999 V2000
  184.1890  178.2490  143.4370 C   0  0  2  0  0  3  0  0  0  0  0  0
  187.4930  178.2450  148.2390 C   0  0  0  0  0  2  0  0  0  0  0  0
  185.3600  178.4680  146.8820 C   0  0  0  0  0  3  0  0  0  0  0  0
  188.0500  177.3430  147.2320 N   0  0  0  0  0  2  0  0  0  0  0  0
  187.9140  177.0110  144.8820 C   0  0  0  0  0  3  0  0  0  0  0  0
  187.2440  176.5330  142.7140 F   0  0  0  0  0  0  0  0  0  0  0  0
  185.3640  178.4830  145.5700 C   0  0  0  0  0  0  0  0  0  0  0  0
  185.4180  178.4610  144.2560 C   0  0  0  0  0  0  0  0  0  0  0  0
  186.4290  179.1920  147.6460 C   0  0  0  0  0  2  0  0  0  0  0  0
  188.2170  177.8050  145.8980 C   0  0  0  0  0  3  0  0  0  0  0  0
  187.7300  177.5650  143.4970 C   0  0  1  0  0  0  0  0  0  0  0  0
  184.7060  178.2290  141.6910 S   0  0  0  0  0  0  0  0  0  0  0  0
  186.2070  179.1720  142.0980 C   0  0  1  0  0  3  0  0  0  0  0  0
  186.6900  178.7460  143.4920 C   0  0  1  0  0  3  0  0  0  0  0  0
  183.1920  179.3780  143.6620 C   0  0  0  0  0  2  0  0  0  0  0  0
  181.9030  178.9410  143.3600 O   0  0  0  0  0  1  0  0  0  0  0  0
  189.0900  177.9880  142.9120 C   0  0  0  0  0  2  0  0  0  0  0  0
  190.1290  176.8740  142.9060 C   0  0  0  0  0  2  0  0  0  0  0  0
  191.3840  177.3370  143.6200 C   0  0  0  0  0  2  0  0  0  0  0  0
  191.7150  176.3940  144.7650 C   0  0  0  0  0  2  0  0  0  0  0  0
  191.7250  177.0970  145.9810 O   0  0  0  0  0  0  0  0  0  0  0  0
  190.5410  175.7540  147.4280 F   0  0  0  0  0  0  0  0  0  0  0  0
  192.4940  175.0490  146.5730 F   0  0  0  0  0  0  0  0  0  0  0  0
  191.8060  176.1580  147.0280 C   0  0  0  0  0  0  0  0  0  0  0  0
  192.4960  176.6860  148.1090 F   0  0  0  0  0  0  0  0  0  0  0  0
  187.1730  179.0150  141.1020 O   0  0  0  0  0  0  0  0  0  0  0  0
  186.5000  178.3840  140.0530 C   0  0  0  0  0  2  0  0  0  0  0  0
  188.4560  177.7670  138.5730 C   0  0  0  0  0  0  0  0  0  0  0  0
  187.2680  178.5200  138.8240 N   0  0  0  0  0  2  0  0  0  0  0  0
  188.9030  176.9650  139.4360 O   0  0  0  0  0  0  0  0  0  0  0  0
  189.1440  177.9280  137.3390 N   0  0  0  0  0  1  0  0  0  0  0  0
  1 15  1  6  0  0  0
  1  8  1  0  0  0  0
  3  9  1  0  0  0  0
  4  2  1  0  0  0  0
  5 10  2  0  0  0  0
  7  3  2  0  0  0  0
  8  7  2  0  0  0  0
  9  2  1  0  0  0  0
 10  4  1  0  0  0  0
 11  6  1  6  0  0  0
 11  5  1  0  0  0  0
 12 13  1  0  0  0  0
 12  1  1  0  0  0  0
 13 26  1  6  0  0  0
 13 14  1  0  0  0  0
 14 11  1  0  0  0  0
 14  8  1  1  0  0  0
 16 15  1  0  0  0  0
 17 11  1  0  0  0  0
 18 17  1  0  0  0  0
 18 19  1  0  0  0  0
 19 20  1  0  0  0  0
 20 21  1  0  0  0  0
 21 24  1  0  0  0  0
 23 24  1  0  0  0  0
 24 22  1  0  0  0  0
 24 25  1  0  0  0  0
 27 26  1  0  0  0  0
 28 29  1  0  0  0  0
 28 30  2  0  0  0  0
 29 27  1  0  0  0  0
 31 28  1  0  0  0  0
M  END
>  <MODEL>
2

>  <REMARK>
 VINA RESULT:      -7.5      3.033      6.587
  Name = 
  10 active torsions:
  status: ('A' for Active; 'I' for Inactive)
    1  A    between atoms: C_1  and  N_10
    2  A    between atoms: C_1  and  O_16
    3  A    between atoms: C_2  and  C_5
    4  A    between atoms: C_3  and  C_8
    5  A    between atoms: C_3  and  C_23
    6  A    between atoms: C_8  and  C_29
    7  A    between atoms: O_16  and  C_26
    8  A    between atoms: C_18  and  O_27
    9  A    between atoms: C_18  and  C_29
   10  A    between atoms: C_24  and  O_27
                            x       y       z     vdW  Elec       q    Type
                         _______ _______ _______ _____ _____    ______ ____

>  <TORSDO>
F 10

$$$$
=
 OpenBabel11042410503D

 31 32  0  0  1  0  0  0  0  0999 V2000
  183.7060  178.2340  143.6480 C   0  0  2  0  0  3  0  0  0  0  0  0
  187.6620  178.1900  147.9290 C   0  0  0  0  0  2  0  0  0  0  0  0
  185.3480  178.3580  146.9000 C   0  0  0  0  0  3  0  0  0  0  0  0
  188.1100  177.3670  146.8060 N   0  0  0  0  0  2  0  0  0  0  0  0
  187.6540  177.1370  144.4850 C   0  0  0  0  0  3  0  0  0  0  0  0
  186.7030  176.7230  142.4110 F   0  0  0  0  0  0  0  0  0  0  0  0
  185.1630  178.4340  145.6040 C   0  0  0  0  0  0  0  0  0  0  0  0
  185.0280  178.4750  144.2960 C   0  0  0  0  0  0  0  0  0  0  0  0
  186.4800  179.1030  147.5440 C   0  0  0  0  0  2  0  0  0  0  0  0
  188.0620  177.8980  145.4890 C   0  0  0  0  0  3  0  0  0  0  0  0
  187.2470  177.7430  143.1710 C   0  0  1  0  0  0  0  0  0  0  0  0
  183.9670  178.3230  141.8480 S   0  0  0  0  0  0  0  0  0  0  0  0
  185.4640  179.3270  142.0890 C   0  0  1  0  0  3  0  0  0  0  0  0
  186.1620  178.8640  143.3760 C   0  0  1  0  0  3  0  0  0  0  0  0
  182.6990  179.2950  144.0720 C   0  0  0  0  0  2  0  0  0  0  0  0
  181.4020  178.8340  143.8510 O   0  0  0  0  0  1  0  0  0  0  0  0
  188.4870  178.2660  142.4230 C   0  0  0  0  0  2  0  0  0  0  0  0
  188.8740  177.4270  141.2120 C   0  0  0  0  0  2  0  0  0  0  0  0
  190.3830  177.2970  141.1370 C   0  0  0  0  0  2  0  0  0  0  0  0
  191.0100  177.6830  142.4660 C   0  0  0  0  0  2  0  0  0  0  0  0
  191.9900  176.7440  142.8270 O   0  0  0  0  0  0  0  0  0  0  0  0
  192.3480  174.9030  144.1610 F   0  0  0  0  0  0  0  0  0  0  0  0
  190.9960  176.5560  144.8540 F   0  0  0  0  0  0  0  0  0  0  0  0
  191.4180  175.8440  143.7460 C   0  0  0  0  0  0  0  0  0  0  0  0
  190.3180  175.2070  143.1920 F   0  0  0  0  0  0  0  0  0  0  0  0
  186.2830  179.2690  140.9600 O   0  0  0  0  0  0  0  0  0  0  0  0
  185.4400  178.8400  139.9320 C   0  0  0  0  0  2  0  0  0  0  0  0
  185.7640  177.6950  137.7010 C   0  0  0  0  0  0  0  0  0  0  0  0
  186.2220  178.5660  138.7360 N   0  0  0  0  0  2  0  0  0  0  0  0
  184.6570  177.1010  137.8050 O   0  0  0  0  0  0  0  0  0  0  0  0
  186.5670  177.4910  136.5460 N   0  0  0  0  0  1  0  0  0  0  0  0
  1 15  1  1  0  0  0
  1  8  1  0  0  0  0
  3  9  1  0  0  0  0
  4  2  1  0  0  0  0
  5 10  2  0  0  0  0
  7  3  2  0  0  0  0
  8  7  2  0  0  0  0
  9  2  1  0  0  0  0
 10  4  1  0  0  0  0
 11  6  1  6  0  0  0
 11 14  1  0  0  0  0
 11  5  1  0  0  0  0
 12 13  1  0  0  0  0
 12  1  1  0  0  0  0
 13 26  1  6  0  0  0
 13 14  1  0  0  0  0
 14  8  1  1  0  0  0
 16 15  1  0  0  0  0
 17 11  1  0  0  0  0
 18 17  1  0  0  0  0
 19 18  1  0  0  0  0
 19 20  1  0  0  0  0
 20 21  1  0  0  0  0
 21 24  1  0  0  0  0
 24 22  1  0  0  0  0
 24 23  1  0  0  0  0
 25 24  1  0  0  0  0
 27 26  1  0  0  0  0
 28 30  2  0  0  0  0
 28 29  1  0  0  0  0
 29 27  1  0  0  0  0
 31 28  1  0  0  0  0
M  END
>  <MODEL>
3

>  <REMARK>
 VINA RESULT:      -7.3      3.229      6.301
  Name = 
  10 active torsions:
  status: ('A' for Active; 'I' for Inactive)
    1  A    between atoms: C_1  and  N_10
    2  A    between atoms: C_1  and  O_16
    3  A    between atoms: C_2  and  C_5
    4  A    between atoms: C_3  and  C_8
    5  A    between atoms: C_3  and  C_23
    6  A    between atoms: C_8  and  C_29
    7  A    between atoms: O_16  and  C_26
    8  A    between atoms: C_18  and  O_27
    9  A    between atoms: C_18  and  C_29
   10  A    between atoms: C_24  and  O_27
                            x       y       z     vdW  Elec       q    Type
                         _______ _______ _______ _____ _____    ______ ____

>  <TORSDO>
F 10

$$$$
=
 OpenBabel11042410503D

 31 32  0  0  1  0  0  0  0  0999 V2000
  185.4130  178.1360  140.9000 C   0  0  2  0  0  3  0  0  0  0  0  0
  185.7380  178.4440  146.7120 C   0  0  0  0  0  2  0  0  0  0  0  0
  184.6400  178.6160  144.4310 C   0  0  0  0  0  3  0  0  0  0  0  0
  186.6700  177.4420  146.1980 N   0  0  0  0  0  2  0  0  0  0  0  0
  187.7480  176.9120  144.1470 C   0  0  0  0  0  3  0  0  0  0  0  0
  188.2670  176.2690  141.9800 F   0  0  0  0  0  0  0  0  0  0  0  0
  185.3250  178.5170  143.3160 C   0  0  0  0  0  0  0  0  0  0  0  0
  186.0500  178.3790  142.2270 C   0  0  0  0  0  0  0  0  0  0  0  0
  185.2070  179.3690  145.5980 C   0  0  0  0  0  2  0  0  0  0  0  0
  187.5370  177.7800  145.1250 C   0  0  0  0  0  3  0  0  0  0  0  0
  188.3490  177.3500  142.8410 C   0  0  1  0  0  0  0  0  0  0  0  0
  186.7570  177.9490  139.6870 S   0  0  0  0  0  0  0  0  0  0  0  0
  187.8930  178.8760  140.7630 C   0  0  1  0  0  3  0  0  0  0  0  0
  187.5510  178.5570  142.2250 C   0  0  1  0  0  3  0  0  0  0  0  0
  184.5280  179.3110  140.5060 C   0  0  0  0  0  2  0  0  0  0  0  0
  184.8370  179.7250  139.2110 O   0  0  0  0  0  1  0  0  0  0  0  0
  189.8420  177.6760  143.0290 C   0  0  0  0  0  2  0  0  0  0  0  0
  190.7710  176.5070  142.7280 C   0  0  0  0  0  2  0  0  0  0  0  0
  191.4200  176.0220  144.0100 C   0  0  0  0  0  2  0  0  0  0  0  0
  191.2630  177.0640  145.1050 C   0  0  0  0  0  2  0  0  0  0  0  0
  192.1190  176.7680  146.1780 O   0  0  0  0  0  0  0  0  0  0  0  0
  191.5520  177.3360  148.3360 F   0  0  0  0  0  0  0  0  0  0  0  0
  189.9950  176.5330  146.9300 F   0  0  0  0  0  0  0  0  0  0  0  0
  191.3250  176.4460  147.2960 C   0  0  0  0  0  0  0  0  0  0  0  0
  191.5770  175.1510  147.7220 F   0  0  0  0  0  0  0  0  0  0  0  0
  189.2210  178.6030  140.4290 O   0  0  0  0  0  0  0  0  0  0  0  0
  189.1530  178.0020  139.1700 C   0  0  0  0  0  2  0  0  0  0  0  0
  191.1580  176.5840  138.5650 C   0  0  0  0  0  0  0  0  0  0  0  0
  190.4940  177.8470  138.6260 N   0  0  0  0  0  2  0  0  0  0  0  0
  190.6050  175.5450  139.0150 O   0  0  0  0  0  0  0  0  0  0  0  0
  192.4580  176.5000  137.9960 N   0  0  0  0  0  1  0  0  0  0  0  0
  1 15  1  6  0  0  0
  1  8  1  0  0  0  0
  3  9  1  0  0  0  0
  4  2  1  0  0  0  0
  5 10  2  0  0  0  0
  7  3  2  0  0  0  0
  8  7  2  0  0  0  0
  9  2  1  0  0  0  0
 10  4  1  0  0  0  0
 11  6  1  6  0  0  0
 11 17  1  0  0  0  0
 11  5  1  0  0  0  0
 12 13  1  0  0  0  0
 12  1  1  0  0  0  0
 13 26  1  6  0  0  0
 13 14  1  0  0  0  0
 14  8  1  6  0  0  0
 14 11  1  0  0  0  0
 16 15  1  0  0  0  0
 18 17  1  0  0  0  0
 18 19  1  0  0  0  0
 19 20  1  0  0  0  0
 20 21  1  0  0  0  0
 21 24  1  0  0  0  0
 23 24  1  0  0  0  0
 24 25  1  0  0  0  0
 24 22  1  0  0  0  0
 27 26  1  0  0  0  0
 28 29  1  0  0  0  0
 28 30  2  0  0  0  0
 29 27  1  0  0  0  0
 31 28  1  0  0  0  0
M  END
>  <MODEL>
4

>  <REMARK>
 VINA RESULT:      -7.3      3.341      6.386
  Name = 
  10 active torsions:
  status: ('A' for Active; 'I' for Inactive)
    1  A    between atoms: C_1  and  N_10
    2  A    between atoms: C_1  and  O_16
    3  A    between atoms: C_2  and  C_5
    4  A    between atoms: C_3  and  C_8
    5  A    between atoms: C_3  and  C_23
    6  A    between atoms: C_8  and  C_29
    7  A    between atoms: O_16  and  C_26
    8  A    between atoms: C_18  and  O_27
    9  A    between atoms: C_18  and  C_29
   10  A    between atoms: C_24  and  O_27
                            x       y       z     vdW  Elec       q    Type
                         _______ _______ _______ _____ _____    ______ ____

>  <TORSDO>
F 10

$$$$
=
 OpenBabel11042410503D

 31 32  0  0  1  0  0  0  0  0999 V2000
  183.9780  178.2590  143.6600 C   0  0  2  0  0  3  0  0  0  0  0  0
  187.6780  178.2910  148.1630 C   0  0  0  0  0  2  0  0  0  0  0  0
  185.4360  178.4930  146.9930 C   0  0  0  0  0  3  0  0  0  0  0  0
  188.1560  177.3940  147.1120 N   0  0  0  0  0  2  0  0  0  0  0  0
  187.8240  177.0580  144.7830 C   0  0  0  0  0  3  0  0  0  0  0  0
  186.9760  176.5720  142.6800 F   0  0  0  0  0  0  0  0  0  0  0  0
  185.3280  178.5070  145.6860 C   0  0  0  0  0  0  0  0  0  0  0  0
  185.2700  178.4830  144.3710 C   0  0  0  0  0  0  0  0  0  0  0  0
  186.5590  179.2280  147.6630 C   0  0  0  0  0  2  0  0  0  0  0  0
  188.2050  177.8550  145.7700 C   0  0  0  0  0  3  0  0  0  0  0  0
  187.5170  177.6090  143.4180 C   0  0  1  0  0  0  0  0  0  0  0  0
  184.3450  178.2420  141.8760 S   0  0  0  0  0  0  0  0  0  0  0  0
  185.8660  179.2000  142.1540 C   0  0  1  0  0  3  0  0  0  0  0  0
  186.4690  178.7790  143.5010 C   0  0  1  0  0  3  0  0  0  0  0  0
  182.9930  179.3790  143.9690 C   0  0  0  0  0  2  0  0  0  0  0  0
  181.8050  179.1740  143.2680 O   0  0  0  0  0  1  0  0  0  0  0  0
  188.8180  178.0440  142.7190 C   0  0  0  0  0  2  0  0  0  0  0  0
  189.7190  176.8820  142.3190 C   0  0  0  0  0  2  0  0  0  0  0  0
  191.1300  177.3840  142.0770 C   0  0  0  0  0  2  0  0  0  0  0  0
  191.4720  177.2940  140.6000 C   0  0  0  0  0  2  0  0  0  0  0  0
  190.5670  176.4410  139.9460 O   0  0  0  0  0  0  0  0  0  0  0  0
  189.7380  178.3970  139.0580 F   0  0  0  0  0  0  0  0  0  0  0  0
  191.1540  177.1240  137.8670 F   0  0  0  0  0  0  0  0  0  0  0  0
  190.1170  177.0910  138.7810 C   0  0  0  0  0  0  0  0  0  0  0  0
  189.0560  176.4030  138.2130 F   0  0  0  0  0  0  0  0  0  0  0  0
  186.7440  179.0510  141.0790 O   0  0  0  0  0  0  0  0  0  0  0  0
  185.9390  178.6280  140.0190 C   0  0  0  0  0  2  0  0  0  0  0  0
  186.2130  178.0730  137.5670 C   0  0  0  0  0  0  0  0  0  0  0  0
  186.7110  178.6270  138.7860 N   0  0  0  0  0  2  0  0  0  0  0  0
  185.0770  177.5290  137.5260 O   0  0  0  0  0  0  0  0  0  0  0  0
  187.0080  178.1290  136.3910 N   0  0  0  0  0  1  0  0  0  0  0  0
  1 15  1  6  0  0  0
  1  8  1  0  0  0  0
  3  9  1  0  0  0  0
  4  2  1  0  0  0  0
  5 10  2  0  0  0  0
  7  3  2  0  0  0  0
  8  7  2  0  0  0  0
  9  2  1  0  0  0  0
 10  4  1  0  0  0  0
 11  6  1  6  0  0  0
 11 14  1  0  0  0  0
 11  5  1  0  0  0  0
 12 13  1  0  0  0  0
 12  1  1  0  0  0  0
 13 26  1  6  0  0  0
 13 14  1  0  0  0  0
 14  8  1  1  0  0  0
 16 15  1  0  0  0  0
 17 11  1  0  0  0  0
 18 17  1  0  0  0  0
 19 18  1  0  0  0  0
 20 19  1  0  0  0  0
 21 20  1  0  0  0  0
 23 24  1  0  0  0  0
 24 22  1  0  0  0  0
 24 21  1  0  0  0  0
 25 24  1  0  0  0  0
 27 26  1  0  0  0  0
 28 29  1  0  0  0  0
 29 27  1  0  0  0  0
 30 28  2  0  0  0  0
 31 28  1  0  0  0  0
M  END
>  <MODEL>
5

>  <REMARK>
 VINA RESULT:      -7.0      2.890      5.664
  Name = 
  10 active torsions:
  status: ('A' for Active; 'I' for Inactive)
    1  A    between atoms: C_1  and  N_10
    2  A    between atoms: C_1  and  O_16
    3  A    between atoms: C_2  and  C_5
    4  A    between atoms: C_3  and  C_8
    5  A    between atoms: C_3  and  C_23
    6  A    between atoms: C_8  and  C_29
    7  A    between atoms: O_16  and  C_26
    8  A    between atoms: C_18  and  O_27
    9  A    between atoms: C_18  and  C_29
   10  A    between atoms: C_24  and  O_27
                            x       y       z     vdW  Elec       q    Type
                         _______ _______ _______ _____ _____    ______ ____

>  <TORSDO>
F 10

$$$$
=
 OpenBabel11042410503D

 31 32  0  0  1  0  0  0  0  0999 V2000
  186.5490  177.4060  145.6280 C   0  0  2  0  0  3  0  0  0  0  0  0
  192.0380  176.3390  147.2730 C   0  0  0  0  0  2  0  0  0  0  0  0
  189.5630  176.8060  147.5870 C   0  0  0  0  0  3  0  0  0  0  0  0
  191.7680  175.7420  145.9660 N   0  0  0  0  0  2  0  0  0  0  0  0
  190.2150  176.0030  144.1850 C   0  0  0  0  0  3  0  0  0  0  0  0
  188.3310  176.0550  142.8360 F   0  0  0  0  0  0  0  0  0  0  0  0
  188.7840  177.1480  146.5900 C   0  0  0  0  0  0  0  0  0  0  0  0
  188.0380  177.4570  145.5510 C   0  0  0  0  0  0  0  0  0  0  0  0
  190.9550  177.3590  147.6800 C   0  0  0  0  0  2  0  0  0  0  0  0
  191.1590  176.5290  144.9520 C   0  0  0  0  0  3  0  0  0  0  0  0
  189.3080  176.8780  143.3660 C   0  0  1  0  0  0  0  0  0  0  0  0
  185.9120  177.8450  143.9790 S   0  0  0  0  0  0  0  0  0  0  0  0
  187.4590  178.7180  143.5860 C   0  0  1  0  0  3  0  0  0  0  0  0
  188.6230  177.9770  144.2580 C   0  0  1  0  0  3  0  0  0  0  0  0
  186.0290  178.4010  146.6580 C   0  0  0  0  0  2  0  0  0  0  0  0
  184.7580  178.8410  146.2940 O   0  0  0  0  0  1  0  0  0  0  0  0
  190.0870  177.4890  142.1870 C   0  0  0  0  0  2  0  0  0  0  0  0
  189.8820  176.7550  140.8680 C   0  0  0  0  0  2  0  0  0  0  0  0
  189.7850  177.7540  139.7320 C   0  0  0  0  0  2  0  0  0  0  0  0
  188.8000  177.2620  138.6840 C   0  0  0  0  0  2  0  0  0  0  0  0
  187.9470  178.3080  138.2960 O   0  0  0  0  0  0  0  0  0  0  0  0
  188.3590  177.4850  136.1860 F   0  0  0  0  0  0  0  0  0  0  0  0
  187.1860  179.3810  136.4510 F   0  0  0  0  0  0  0  0  0  0  0  0
  188.2330  178.6320  136.9560 C   0  0  0  0  0  0  0  0  0  0  0  0
  189.3920  179.3880  136.8680 F   0  0  0  0  0  0  0  0  0  0  0  0
  187.6100  178.8550  142.2050 O   0  0  0  0  0  0  0  0  0  0  0  0
  186.4110  178.3790  141.6690 C   0  0  0  0  0  2  0  0  0  0  0  0
  184.6620  179.1290  140.0030 C   0  0  0  0  0  0  0  0  0  0  0  0
  185.8890  179.3360  140.7050 N   0  0  0  0  0  2  0  0  0  0  0  0
  183.9920  178.0760  140.1780 O   0  0  0  0  0  0  0  0  0  0  0  0
  184.1960  180.1170  139.0940 N   0  0  0  0  0  1  0  0  0  0  0  0
  1 15  1  1  0  0  0
  2  9  1  0  0  0  0
  3  9  1  0  0  0  0
  4  2  1  0  0  0  0
  5 10  2  0  0  0  0
  7  3  2  0  0  0  0
  8  1  1  0  0  0  0
  8  7  2  0  0  0  0
 10  4  1  0  0  0  0
 11  6  1  6  0  0  0
 11  5  1  0  0  0  0
 11 14  1  0  0  0  0
 12  1  1  0  0  0  0
 13 26  1  6  0  0  0
 13 12  1  0  0  0  0
 13 14  1  0  0  0  0
 14  8  1  1  0  0  0
 16 15  1  0  0  0  0
 17 11  1  0  0  0  0
 18 17  1  0  0  0  0
 19 18  1  0  0  0  0
 20 19  1  0  0  0  0
 21 20  1  0  0  0  0
 22 24  1  0  0  0  0
 23 24  1  0  0  0  0
 24 21  1  0  0  0  0
 25 24  1  0  0  0  0
 27 26  1  0  0  0  0
 28 30  2  0  0  0  0
 28 29  1  0  0  0  0
 29 27  1  0  0  0  0
 31 28  1  0  0  0  0
M  END
>  <MODEL>
6

>  <REMARK>
 VINA RESULT:      -6.8      2.099      5.678
  Name = 
  10 active torsions:
  status: ('A' for Active; 'I' for Inactive)
    1  A    between atoms: C_1  and  N_10
    2  A    between atoms: C_1  and  O_16
    3  A    between atoms: C_2  and  C_5
    4  A    between atoms: C_3  and  C_8
    5  A    between atoms: C_3  and  C_23
    6  A    between atoms: C_8  and  C_29
    7  A    between atoms: O_16  and  C_26
    8  A    between atoms: C_18  and  O_27
    9  A    between atoms: C_18  and  C_29
   10  A    between atoms: C_24  and  O_27
                            x       y       z     vdW  Elec       q    Type
                         _______ _______ _______ _____ _____    ______ ____

>  <TORSDO>
F 10

$$$$
=
 OpenBabel11042410503D

 31 32  0  0  1  0  0  0  0  0999 V2000
  187.0770  177.2370  144.3920 C   0  0  2  0  0  3  0  0  0  0  0  0
  191.8750  176.4060  147.5950 C   0  0  0  0  0  2  0  0  0  0  0  0
  189.4000  176.7620  147.1600 C   0  0  0  0  0  3  0  0  0  0  0  0
  192.0300  175.8020  146.2720 N   0  0  0  0  0  2  0  0  0  0  0  0
  191.0630  176.0010  144.1100 C   0  0  0  0  0  3  0  0  0  0  0  0
  189.6600  175.9750  142.2630 F   0  0  0  0  0  0  0  0  0  0  0  0
  188.9370  177.0740  145.9730 C   0  0  0  0  0  0  0  0  0  0  0  0
  188.5180  177.3540  144.7580 C   0  0  0  0  0  0  0  0  0  0  0  0
  190.6770  177.3760  147.6550 C   0  0  0  0  0  2  0  0  0  0  0  0
  191.7140  176.5650  145.1160 C   0  0  0  0  0  3  0  0  0  0  0  0
  190.4010  176.8380  143.0510 C   0  0  1  0  0  0  0  0  0  0  0  0
  186.9380  177.6530  142.6240 S   0  0  0  0  0  0  0  0  0  0  0  0
  188.4920  178.5950  142.6980 C   0  0  1  0  0  3  0  0  0  0  0  0
  189.4360  177.9030  143.6910 C   0  0  1  0  0  3  0  0  0  0  0  0
  186.2340  178.2040  145.2130 C   0  0  0  0  0  2  0  0  0  0  0  0
  185.0120  178.4240  144.5800 O   0  0  0  0  0  1  0  0  0  0  0  0
  191.4660  177.4880  142.1490 C   0  0  0  0  0  2  0  0  0  0  0  0
  191.4780  176.9480  140.7250 C   0  0  0  0  0  2  0  0  0  0  0  0
  192.7560  177.3680  140.0250 C   0  0  0  0  0  2  0  0  0  0  0  0
  192.8150  176.7630  138.6320 C   0  0  0  0  0  2  0  0  0  0  0  0
  194.0080  176.0400  138.4700 O   0  0  0  0  0  0  0  0  0  0  0  0
  194.0630  174.8860  136.4800 F   0  0  0  0  0  0  0  0  0  0  0  0
  194.4200  173.8130  138.4200 F   0  0  0  0  0  0  0  0  0  0  0  0
  193.7030  174.8300  137.8180 C   0  0  0  0  0  0  0  0  0  0  0  0
  192.3520  174.5380  137.9310 F   0  0  0  0  0  0  0  0  0  0  0  0
  189.0380  178.7440  141.4210 O   0  0  0  0  0  0  0  0  0  0  0  0
  188.0130  178.3650  140.5510 C   0  0  0  0  0  2  0  0  0  0  0  0
  188.7490  177.8410  138.1890 C   0  0  0  0  0  0  0  0  0  0  0  0
  188.3450  178.7720  139.1940 N   0  0  0  0  0  2  0  0  0  0  0  0
  188.8620  176.6150  138.4580 O   0  0  0  0  0  0  0  0  0  0  0  0
  189.0330  178.3030  136.8750 N   0  0  0  0  0  1  0  0  0  0  0  0
  1  8  1  0  0  0  0
  1 15  1  1  0  0  0
  2  9  1  0  0  0  0
  3  9  1  0  0  0  0
  4  2  1  0  0  0  0
  5 10  2  0  0  0  0
  7  3  2  0  0  0  0
  8  7  2  0  0  0  0
 10  4  1  0  0  0  0
 11  6  1  6  0  0  0
 11 14  1  0  0  0  0
 11  5  1  0  0  0  0
 12 13  1  0  0  0  0
 12  1  1  0  0  0  0
 13 26  1  6  0  0  0
 13 14  1  0  0  0  0
 14  8  1  1  0  0  0
 16 15  1  0  0  0  0
 17 11  1  0  0  0  0
 18 17  1  0  0  0  0
 19 18  1  0  0  0  0
 20 19  1  0  0  0  0
 21 20  1  0  0  0  0
 22 24  1  0  0  0  0
 24 25  1  0  0  0  0
 24 23  1  0  0  0  0
 24 21  1  0  0  0  0
 27 26  1  0  0  0  0
 28 30  2  0  0  0  0
 28 29  1  0  0  0  0
 29 27  1  0  0  0  0
 31 28  1  0  0  0  0
M  END
>  <MODEL>
7

>  <REMARK>
 VINA RESULT:      -6.8      2.923      5.958
  Name = 
  10 active torsions:
  status: ('A' for Active; 'I' for Inactive)
    1  A    between atoms: C_1  and  N_10
    2  A    between atoms: C_1  and  O_16
    3  A    between atoms: C_2  and  C_5
    4  A    between atoms: C_3  and  C_8
    5  A    between atoms: C_3  and  C_23
    6  A    between atoms: C_8  and  C_29
    7  A    between atoms: O_16  and  C_26
    8  A    between atoms: C_18  and  O_27
    9  A    between atoms: C_18  and  C_29
   10  A    between atoms: C_24  and  O_27
                            x       y       z     vdW  Elec       q    Type
                         _______ _______ _______ _____ _____    ______ ____

>  <TORSDO>
F 10

$$$$
=
 OpenBabel11042410503D

 31 32  0  0  1  0  0  0  0  0999 V2000
  186.4290  177.3680  145.5610 C   0  0  2  0  0  3  0  0  0  0  0  0
  191.9020  176.5360  147.3860 C   0  0  0  0  0  2  0  0  0  0  0  0
  189.3990  176.8850  147.6190 C   0  0  0  0  0  3  0  0  0  0  0  0
  191.7060  175.9410  146.0650 N   0  0  0  0  0  2  0  0  0  0  0  0
  190.2040  176.1490  144.2340 C   0  0  0  0  0  3  0  0  0  0  0  0
  188.3660  176.1280  142.8200 F   0  0  0  0  0  0  0  0  0  0  0  0
  188.6400  177.2020  146.5970 C   0  0  0  0  0  0  0  0  0  0  0  0
  187.9160  177.4880  145.5360 C   0  0  0  0  0  0  0  0  0  0  0  0
  190.7600  177.5010  147.7650 C   0  0  0  0  0  2  0  0  0  0  0  0
  191.0950  176.7090  145.0380 C   0  0  0  0  0  3  0  0  0  0  0  0
  189.2860  176.9900  143.3920 C   0  0  1  0  0  0  0  0  0  0  0  0
  185.8300  177.7940  143.8950 S   0  0  0  0  0  0  0  0  0  0  0  0
  187.3470  178.7410  143.5640 C   0  0  1  0  0  3  0  0  0  0  0  0
  188.5210  178.0470  144.2700 C   0  0  1  0  0  3  0  0  0  0  0  0
  185.8300  178.3270  146.5810 C   0  0  0  0  0  2  0  0  0  0  0  0
  184.5960  178.7910  146.1280 O   0  0  0  0  0  1  0  0  0  0  0  0
  190.0760  177.6480  142.2460 C   0  0  0  0  0  2  0  0  0  0  0  0
  190.2940  176.7360  141.0460 C   0  0  0  0  0  2  0  0  0  0  0  0
  189.8140  177.4230  139.7820 C   0  0  0  0  0  2  0  0  0  0  0  0
  189.7210  176.4210  138.6430 C   0  0  0  0  0  2  0  0  0  0  0  0
  190.7800  175.5010  138.7240 O   0  0  0  0  0  0  0  0  0  0  0  0
  191.2740  176.7620  136.8620 F   0  0  0  0  0  0  0  0  0  0  0  0
  192.7500  176.6050  138.5470 F   0  0  0  0  0  0  0  0  0  0  0  0
  191.7890  175.9150  137.8330 C   0  0  0  0  0  0  0  0  0  0  0  0
  192.3930  174.8210  137.2310 F   0  0  0  0  0  0  0  0  0  0  0  0
  187.5390  178.8990  142.1900 O   0  0  0  0  0  0  0  0  0  0  0  0
  186.3900  178.3590  141.6070 C   0  0  0  0  0  2  0  0  0  0  0  0
  184.5510  179.2200  140.1010 C   0  0  0  0  0  0  0  0  0  0  0  0
  185.9010  179.2500  140.5660 N   0  0  0  0  0  2  0  0  0  0  0  0
  183.7290  178.3860  140.5660 O   0  0  0  0  0  0  0  0  0  0  0  0
  184.1310  180.1380  139.0990 N   0  0  0  0  0  1  0  0  0  0  0  0
  1 15  1  1  0  0  0
  2  9  1  0  0  0  0
  3  9  1  0  0  0  0
  4  2  1  0  0  0  0
  5 10  2  0  0  0  0
  7  3  2  0  0  0  0
  8  1  1  0  0  0  0
  8  7  2  0  0  0  0
 10  4  1  0  0  0  0
 11  6  1  6  0  0  0
 11  5  1  0  0  0  0
 11 14  1  0  0  0  0
 12  1  1  0  0  0  0
 13 26  1  6  0  0  0
 13 12  1  0  0  0  0
 13 14  1  0  0  0  0
 14  8  1  1  0  0  0
 16 15  1  0  0  0  0
 17 11  1  0  0  0  0
 18 17  1  0  0  0  0
 19 18  1  0  0  0  0
 20 21  1  0  0  0  0
 20 19  1  0  0  0  0
 22 24  1  0  0  0  0
 24 23  1  0  0  0  0
 24 21  1  0  0  0  0
 25 24  1  0  0  0  0
 27 26  1  0  0  0  0
 28 30  2  0  0  0  0
 28 29  1  0  0  0  0
 29 27  1  0  0  0  0
 31 28  1  0  0  0  0
M  END
>  <MODEL>
8

>  <REMARK>
 VINA RESULT:      -6.7      2.398      5.808
  Name = 
  10 active torsions:
  status: ('A' for Active; 'I' for Inactive)
    1  A    between atoms: C_1  and  N_10
    2  A    between atoms: C_1  and  O_16
    3  A    between atoms: C_2  and  C_5
    4  A    between atoms: C_3  and  C_8
    5  A    between atoms: C_3  and  C_23
    6  A    between atoms: C_8  and  C_29
    7  A    between atoms: O_16  and  C_26
    8  A    between atoms: C_18  and  O_27
    9  A    between atoms: C_18  and  C_29
   10  A    between atoms: C_24  and  O_27
                            x       y       z     vdW  Elec       q    Type
                         _______ _______ _______ _____ _____    ______ ____

>  <TORSDO>
F 10

$$$$
=
 OpenBabel11042410503D

 31 32  0  0  1  0  0  0  0  0999 V2000
  188.5610  177.5290  139.8330 C   0  0  2  0  0  3  0  0  0  0  0  0
  182.9800  179.1660  140.2110 C   0  0  0  0  0  2  0  0  0  0  0  0
  185.1710  178.6200  139.0540 C   0  0  0  0  0  3  0  0  0  0  0  0
  183.3280  178.2690  141.3120 N   0  0  0  0  0  2  0  0  0  0  0  0
  185.2840  177.5140  142.4320 C   0  0  0  0  0  3  0  0  0  0  0  0
  187.2940  176.5200  143.0220 F   0  0  0  0  0  0  0  0  0  0  0  0
  186.2810  178.4090  139.7210 C   0  0  0  0  0  0  0  0  0  0  0  0
  187.3590  178.1750  140.4370 C   0  0  0  0  0  0  0  0  0  0  0  0
  184.2290  179.7050  139.4840 C   0  0  0  0  0  2  0  0  0  0  0  0
  184.5010  178.5210  142.0720 C   0  0  0  0  0  3  0  0  0  0  0  0
  186.6890  177.7590  142.9070 C   0  0  1  0  0  0  0  0  0  0  0  0
  189.7910  177.3370  141.1620 S   0  0  0  0  0  0  0  0  0  0  0  0
  189.0100  178.6760  142.1130 C   0  0  1  0  0  3  0  0  0  0  0  0
  187.4940  178.6280  141.8720 C   0  0  1  0  0  3  0  0  0  0  0  0
  189.1390  178.4000  138.7240 C   0  0  0  0  0  2  0  0  0  0  0  0
  189.5000  177.6060  137.6370 O   0  0  0  0  0  1  0  0  0  0  0  0
  186.6690  178.3960  144.3080 C   0  0  0  0  0  2  0  0  0  0  0  0
  186.0600  177.5030  145.3810 C   0  0  0  0  0  2  0  0  0  0  0  0
  185.5980  178.3470  146.5530 C   0  0  0  0  0  2  0  0  0  0  0  0
  186.7960  178.9250  147.2870 C   0  0  0  0  0  2  0  0  0  0  0  0
  187.3000  177.9860  148.2020 O   0  0  0  0  0  0  0  0  0  0  0  0
  188.8770  176.3860  147.6990 F   0  0  0  0  0  0  0  0  0  0  0  0
  188.9460  178.3970  146.7010 F   0  0  0  0  0  0  0  0  0  0  0  0
  188.6490  177.7420  147.8820 C   0  0  0  0  0  0  0  0  0  0  0  0
  189.4860  178.2310  148.8740 F   0  0  0  0  0  0  0  0  0  0  0  0
  189.3620  178.5920  143.4620 O   0  0  0  0  0  0  0  0  0  0  0  0
  190.7090  178.2240  143.4540 C   0  0  0  0  0  2  0  0  0  0  0  0
  191.6280  176.6010  145.1620 C   0  0  0  0  0  0  0  0  0  0  0  0
  191.1360  177.8930  144.8050 N   0  0  0  0  0  2  0  0  0  0  0  0
  191.6810  175.6760  144.3080 O   0  0  0  0  0  0  0  0  0  0  0  0
  192.0540  176.3530  146.4950 N   0  0  0  0  0  1  0  0  0  0  0  0
  1 15  1  6  0  0  0
  1  8  1  0  0  0  0
  1 12  1  0  0  0  0
  2  4  1  0  0  0  0
  3  9  1  0  0  0  0
  3  7  2  0  0  0  0
  4 10  1  0  0  0  0
  5 11  1  0  0  0  0
  7  8  2  0  0  0  0
  9  2  1  0  0  0  0
 10  5  2  0  0  0  0
 11  6  1  1  0  0  0
 11 17  1  0  0  0  0
 12 13  1  0  0  0  0
 13 26  1  1  0  0  0
 14  8  1  6  0  0  0
 14 13  1  0  0  0  0
 14 11  1  0  0  0  0
 16 15  1  0  0  0  0
 17 18  1  0  0  0  0
 18 19  1  0  0  0  0
 19 20  1  0  0  0  0
 20 21  1  0  0  0  0
 22 24  1  0  0  0  0
 23 24  1  0  0  0  0
 24 21  1  0  0  0  0
 24 25  1  0  0  0  0
 27 26  1  0  0  0  0
 27 29  1  0  0  0  0
 28 31  1  0  0  0  0
 29 28  1  0  0  0  0
 30 28  2  0  0  0  0
M  END
>  <MODEL>
9

>  <REMARK>
 VINA RESULT:      -6.6      2.684      6.048
  Name = 
  10 active torsions:
  status: ('A' for Active; 'I' for Inactive)
    1  A    between atoms: C_1  and  N_10
    2  A    between atoms: C_1  and  O_16
    3  A    between atoms: C_2  and  C_5
    4  A    between atoms: C_3  and  C_8
    5  A    between atoms: C_3  and  C_23
    6  A    between atoms: C_8  and  C_29
    7  A    between atoms: O_16  and  C_26
    8  A    between atoms: C_18  and  O_27
    9  A    between atoms: C_18  and  C_29
   10  A    between atoms: C_24  and  O_27
                            x       y       z     vdW  Elec       q    Type
                         _______ _______ _______ _____ _____    ______ ____

>  <TORSDO>
F 10

$$$$
