=
 OpenBabel11042411103D

 33 36  0  0  1  0  0  0  0  0999 V2000
  184.5380  178.4740  143.9600 C   0  0  2  0  0  3  0  0  0  0  0  0
  185.7910  178.6040  146.1130 C   0  0  1  0  0  3  0  0  0  0  0  0
  186.0180  179.4820  147.3250 C   0  0  0  0  0  1  0  0  0  0  0  0
  185.9470  178.8930  141.9880 C   0  0  0  0  0  3  0  0  0  0  0  0
  188.5620  175.8110  143.2830 O   0  0  0  0  0  1  0  0  0  0  0  0
  186.4310  176.8480  143.3840 C   0  0  2  0  0  3  0  0  0  0  0  0
  187.9300  177.0210  143.5520 C   0  0  1  0  0  3  0  0  0  0  0  0
  184.9790  179.3880  145.0900 C   0  0  0  0  0  2  0  0  0  0  0  0
  185.6910  178.1250  143.0590 C   0  0  0  0  0  0  0  0  0  0  0  0
  187.0760  176.8650  144.7870 C   0  0  1  0  0  3  0  0  0  0  0  0
  187.1390  178.2050  145.5300 C   0  0  0  0  0  2  0  0  0  0  0  0
  186.5260  178.2540  139.5370 C   0  0  0  0  0  0  0  0  0  0  0  0
  188.2330  178.5990  141.0000 C   0  0  0  0  0  3  0  0  0  0  0  0
  185.3610  178.4610  138.9860 C   0  0  0  0  0  0  0  0  0  0  0  0
  184.2580  178.6620  138.4620 O   0  0  0  0  0  0  0  0  0  0  0  0
  187.7740  178.0670  138.8180 C   0  0  0  0  0  0  0  0  0  0  0  0
  188.7710  178.2410  139.6820 C   0  0  0  0  0  0  0  0  0  0  0  0
  186.9050  178.6330  140.8950 C   0  0  0  0  0  0  0  0  0  0  0  0
  190.9360  177.1200  140.0020 C   0  0  0  0  0  1  0  0  0  0  0  0
  190.1250  178.1040  139.3760 O   0  0  0  0  0  0  0  0  0  0  0  0
  187.8700  177.7530  137.4570 O   0  0  0  0  0  0  0  0  0  0  0  0
  187.8270  176.4250  136.9580 C   0  0  0  0  0  1  0  0  0  0  0  0
  183.4770  179.0430  143.2420 O   0  0  0  0  0  0  0  0  0  0  0  0
  182.3640  178.9710  144.0920 C   0  0  0  0  0  2  0  0  0  0  0  0
  179.9410  178.4290  144.2620 C   0  0  0  0  0  1  0  0  0  0  0  0
  181.1130  178.5800  143.3140 C   0  0  1  0  0  3  0  0  0  0  0  0
  180.8740  179.2850  140.9060 C   0  0  0  0  0  0  0  0  0  0  0  0
  180.8140  179.5790  142.3020 N   0  0  0  0  0  2  0  0  0  0  0  0
  180.4560  178.1120  138.3670 S   0  0  0  0  0  0  0  0  0  0  0  0
  180.8160  179.8260  138.6850 C   0  0  0  0  0  0  0  0  0  0  0  0
  181.2440  180.6400  137.7310 C   0  0  0  0  0  2  0  0  0  0  0  0
  181.2350  177.6280  140.2980 S   0  0  0  0  0  0  0  0  0  0  0  0
  180.7860  180.2390  140.0410 N   0  0  0  0  0  0  0  0  0  0  0  0
  1 23  1  6  0  0  0
  1  8  1  0  0  0  0
  2  3  1  1  0  0  0
  4  9  2  0  0  0  0
  6  9  1  1  0  0  0
  6  7  1  0  0  0  0
  6 10  1  0  0  0  0
  7  5  1  6  0  0  0
  7 10  1  0  0  0  0
  8  2  1  0  0  0  0
  9  1  1  0  0  0  0
 10 11  1  1  0  0  0
 11  2  1  0  0  0  0
 12 18  1  0  0  0  0
 14 12  2  0  0  0  0
 15 14  2  0  0  0  0
 16 12  1  0  0  0  0
 16 17  2  0  0  0  0
 17 13  1  0  0  0  0
 18 13  2  0  0  0  0
 18  4  1  0  0  0  0
 20 17  1  0  0  0  0
 20 19  1  0  0  0  0
 21 16  1  0  0  0  0
 22 21  1  0  0  0  0
 23 24  1  0  0  0  0
 26 24  1  0  0  0  0
 26 25  1  1  0  0  0
 27 28  1  0  0  0  0
 28 26  1  0  0  0  0
 29 30  1  0  0  0  0
 29 32  1  0  0  0  0
 30 33  1  0  0  0  0
 31 30  2  0  0  0  0
 32 27  1  0  0  0  0
 33 27  2  0  0  0  0
M  END
>  <MODEL>
1

>  <REMARK>
 VINA RESULT:      -7.6      0.000      0.000
  Name = 
  7 active torsions:
  status: ('A' for Active; 'I' for Inactive)
    1  A    between atoms: C_1  and  O_15
    2  A    between atoms: N_8  and  C_29
    3  A    between atoms: C_9  and  O_15
    4  A    between atoms: C_9  and  C_29
    5  A    between atoms: C_10  and  C_32
    6  A    between atoms: O_18  and  C_26
    7  A    between atoms: C_27  and  O_33
                            x       y       z     vdW  Elec       q    Type
                         _______ _______ _______ _____ _____    ______ ____

>  <TORSDO>
F 7

$$$$
=
 OpenBabel11042411103D

 33 36  0  0  1  0  0  0  0  0999 V2000
  188.1220  178.5880  140.8120 C   0  0  2  0  0  3  0  0  0  0  0  0
  189.6310  177.1970  139.3940 C   0  0  1  0  0  3  0  0  0  0  0  0
  189.6350  176.1950  138.2590 C   0  0  0  0  0  1  0  0  0  0  0  0
  187.8440  177.7050  143.0910 C   0  0  0  0  0  3  0  0  0  0  0  0
  192.0630  177.7410  143.5500 O   0  0  0  0  0  1  0  0  0  0  0  0
  190.1360  178.4970  142.3930 C   0  0  2  0  0  3  0  0  0  0  0  0
  190.9510  177.2980  142.8420 C   0  0  1  0  0  3  0  0  0  0  0  0
  188.1910  177.4280  139.8340 C   0  0  0  0  0  2  0  0  0  0  0  0
  188.6730  178.2000  142.1580 C   0  0  0  0  0  0  0  0  0  0  0  0
  191.0660  177.7580  141.4080 C   0  0  1  0  0  3  0  0  0  0  0  0
  190.4580  176.6460  140.5450 C   0  0  0  0  0  2  0  0  0  0  0  0
  187.3260  177.8960  145.6300 C   0  0  0  0  0  0  0  0  0  0  0  0
  189.2260  176.8240  144.9880 C   0  0  0  0  0  3  0  0  0  0  0  0
  186.0730  178.2560  145.5610 C   0  0  0  0  0  0  0  0  0  0  0  0
  184.8840  178.5940  145.4970 O   0  0  0  0  0  0  0  0  0  0  0  0
  188.0010  177.4310  146.8280 C   0  0  0  0  0  0  0  0  0  0  0  0
  189.1270  176.8290  146.4540 C   0  0  0  0  0  0  0  0  0  0  0  0
  188.1400  177.4310  144.5110 C   0  0  0  0  0  0  0  0  0  0  0  0
  191.4610  176.5340  147.1710 C   0  0  0  0  0  1  0  0  0  0  0  0
  190.0710  176.2850  147.3250 O   0  0  0  0  0  0  0  0  0  0  0  0
  187.5240  177.6100  148.1330 O   0  0  0  0  0  0  0  0  0  0  0  0
  188.2360  178.3220  149.1320 C   0  0  0  0  0  1  0  0  0  0  0  0
  186.8130  179.0790  140.9130 O   0  0  0  0  0  0  0  0  0  0  0  0
  186.1220  178.5400  139.8190 C   0  0  0  0  0  2  0  0  0  0  0  0
  184.3590  178.3110  141.5610 C   0  0  0  0  0  1  0  0  0  0  0  0
  184.6210  178.5190  140.0830 C   0  0  1  0  0  3  0  0  0  0  0  0
  182.7200  179.7940  139.0270 C   0  0  0  0  0  0  0  0  0  0  0  0
  184.0120  179.7610  139.6360 N   0  0  0  0  0  2  0  0  0  0  0  0
  179.9540  179.4850  138.5300 S   0  0  0  0  0  0  0  0  0  0  0  0
  180.9840  180.8110  137.9410 C   0  0  0  0  0  0  0  0  0  0  0  0
  180.6100  181.5970  136.9430 C   0  0  0  0  0  2  0  0  0  0  0  0
  181.7120  178.3120  138.8530 S   0  0  0  0  0  0  0  0  0  0  0  0
  182.2950  180.8810  138.4760 N   0  0  0  0  0  0  0  0  0  0  0  0
  1 23  1  1  0  0  0
  1  9  1  0  0  0  0
  2  3  1  6  0  0  0
  2  8  1  0  0  0  0
  2 11  1  0  0  0  0
  4 18  1  0  0  0  0
  6  9  1  6  0  0  0
  6  7  1  0  0  0  0
  7  5  1  1  0  0  0
  8  1  1  0  0  0  0
  9  4  2  0  0  0  0
 10 11  1  6  0  0  0
 10  6  1  0  0  0  0
 10  7  1  0  0  0  0
 12 16  1  0  0  0  0
 13 17  1  0  0  0  0
 14 12  2  0  0  0  0
 15 14  2  0  0  0  0
 16 21  1  0  0  0  0
 17 16  2  0  0  0  0
 17 20  1  0  0  0  0
 18 13  2  0  0  0  0
 18 12  1  0  0  0  0
 19 20  1  0  0  0  0
 21 22  1  0  0  0  0
 24 26  1  0  0  0  0
 24 23  1  0  0  0  0
 26 25  1  1  0  0  0
 27 28  1  0  0  0  0
 28 26  1  0  0  0  0
 29 32  1  0  0  0  0
 30 33  1  0  0  0  0
 30 29  1  0  0  0  0
 31 30  2  0  0  0  0
 32 27  1  0  0  0  0
 33 27  2  0  0  0  0
M  END
>  <MODEL>
2

>  <REMARK>
 VINA RESULT:      -7.3      2.398      5.928
  Name = 
  7 active torsions:
  status: ('A' for Active; 'I' for Inactive)
    1  A    between atoms: C_1  and  O_15
    2  A    between atoms: N_8  and  C_29
    3  A    between atoms: C_9  and  O_15
    4  A    between atoms: C_9  and  C_29
    5  A    between atoms: C_10  and  C_32
    6  A    between atoms: O_18  and  C_26
    7  A    between atoms: C_27  and  O_33
                            x       y       z     vdW  Elec       q    Type
                         _______ _______ _______ _____ _____    ______ ____

>  <TORSDO>
F 7

$$$$
=
 OpenBabel11042411103D

 33 36  0  0  1  0  0  0  0  0999 V2000
  190.4320  177.3750  142.5500 C   0  0  2  0  0  3  0  0  0  0  0  0
  191.5920  175.9140  144.2070 C   0  0  1  0  0  3  0  0  0  0  0  0
  192.2410  174.5560  144.3720 C   0  0  0  0  0  1  0  0  0  0  0  0
  188.0020  177.5100  142.9070 C   0  0  0  0  0  3  0  0  0  0  0  0
  188.7230  178.7400  146.9050 O   0  0  0  0  0  1  0  0  0  0  0  0
  189.5210  178.4480  144.6900 C   0  0  2  0  0  3  0  0  0  0  0  0
  188.8990  177.7860  145.9070 C   0  0  1  0  0  3  0  0  0  0  0  0
  190.9010  175.9620  142.8500 C   0  0  0  0  0  2  0  0  0  0  0  0
  189.2350  177.7410  143.3860 C   0  0  0  0  0  0  0  0  0  0  0  0
  190.3780  177.6040  145.6580 C   0  0  1  0  0  3  0  0  0  0  0  0
  190.5820  176.1210  145.3260 C   0  0  0  0  0  2  0  0  0  0  0  0
  185.7370  178.7770  142.7780 C   0  0  0  0  0  0  0  0  0  0  0  0
  186.2950  177.7480  144.7280 C   0  0  0  0  0  3  0  0  0  0  0  0
  185.6540  178.9260  141.4840 C   0  0  0  0  0  0  0  0  0  0  0  0
  185.5720  179.0630  140.2570 O   0  0  0  0  0  0  0  0  0  0  0  0
  184.6510  178.9860  143.7190 C   0  0  0  0  0  0  0  0  0  0  0  0
  184.9910  178.4090  144.8690 C   0  0  0  0  0  0  0  0  0  0  0  0
  186.7130  177.9470  143.4790 C   0  0  0  0  0  0  0  0  0  0  0  0
  184.8060  178.2880  147.3170 C   0  0  0  0  0  1  0  0  0  0  0  0
  184.2200  178.4290  146.0310 O   0  0  0  0  0  0  0  0  0  0  0  0
  183.4710  179.6860  143.4330 O   0  0  0  0  0  0  0  0  0  0  0  0
  182.2050  179.0590  143.3060 C   0  0  0  0  0  1  0  0  0  0  0  0
  190.1740  177.5360  141.1820 O   0  0  0  0  0  0  0  0  0  0  0  0
  191.3570  177.1620  140.5280 C   0  0  0  0  0  2  0  0  0  0  0  0
  192.3370  176.4410  138.3570 C   0  0  0  0  0  1  0  0  0  0  0  0
  191.1470  177.1040  139.0200 C   0  0  1  0  0  3  0  0  0  0  0  0
  188.8600  176.9720  137.9680 C   0  0  0  0  0  0  0  0  0  0  0  0
  189.9290  176.3770  138.7060 N   0  0  0  0  0  2  0  0  0  0  0  0
  187.3540  178.2680  135.9570 S   0  0  0  0  0  0  0  0  0  0  0  0
  186.7530  177.0260  137.0810 C   0  0  0  0  0  0  0  0  0  0  0  0
  185.4580  176.8370  137.2890 C   0  0  0  0  0  2  0  0  0  0  0  0
  188.9820  178.6360  137.2920 S   0  0  0  0  0  0  0  0  0  0  0  0
  187.7260  176.3640  137.8720 N   0  0  0  0  0  0  0  0  0  0  0  0
  1 23  1  6  0  0  0
  1  8  1  0  0  0  0
  1  9  1  0  0  0  0
  2  3  1  1  0  0  0
  2 11  1  0  0  0  0
  4  9  2  0  0  0  0
  4 18  1  0  0  0  0
  6  9  1  6  0  0  0
  6 10  1  0  0  0  0
  6  7  1  0  0  0  0
  7  5  1  1  0  0  0
  8  2  1  0  0  0  0
 10 11  1  6  0  0  0
 10  7  1  0  0  0  0
 12 18  1  0  0  0  0
 12 16  1  0  0  0  0
 13 17  1  0  0  0  0
 14 12  2  0  0  0  0
 15 14  2  0  0  0  0
 16 17  2  0  0  0  0
 17 20  1  0  0  0  0
 18 13  2  0  0  0  0
 20 19  1  0  0  0  0
 21 16  1  0  0  0  0
 22 21  1  0  0  0  0
 24 23  1  0  0  0  0
 26 25  1  6  0  0  0
 26 24  1  0  0  0  0
 27 28  1  0  0  0  0
 28 26  1  0  0  0  0
 29 30  1  0  0  0  0
 29 32  1  0  0  0  0
 30 31  2  0  0  0  0
 30 33  1  0  0  0  0
 32 27  1  0  0  0  0
 33 27  2  0  0  0  0
M  END
>  <MODEL>
3

>  <REMARK>
 VINA RESULT:      -7.1      3.676      7.063
  Name = 
  7 active torsions:
  status: ('A' for Active; 'I' for Inactive)
    1  A    between atoms: C_1  and  O_15
    2  A    between atoms: N_8  and  C_29
    3  A    between atoms: C_9  and  O_15
    4  A    between atoms: C_9  and  C_29
    5  A    between atoms: C_10  and  C_32
    6  A    between atoms: O_18  and  C_26
    7  A    between atoms: C_27  and  O_33
                            x       y       z     vdW  Elec       q    Type
                         _______ _______ _______ _____ _____    ______ ____

>  <TORSDO>
F 7

$$$$
=
 OpenBabel11042411103D

 33 36  0  0  1  0  0  0  0  0999 V2000
  188.3300  178.2630  140.2060 C   0  0  2  0  0  3  0  0  0  0  0  0
  190.0910  176.9080  139.0740 C   0  0  1  0  0  3  0  0  0  0  0  0
  190.2990  175.8280  138.0320 C   0  0  0  0  0  1  0  0  0  0  0  0
  187.8700  177.5300  142.5090 C   0  0  0  0  0  3  0  0  0  0  0  0
  191.9970  177.9660  143.4020 O   0  0  0  0  0  1  0  0  0  0  0  0
  190.1570  178.4640  141.9910 C   0  0  2  0  0  3  0  0  0  0  0  0
  191.0090  177.3760  142.6210 C   0  0  1  0  0  3  0  0  0  0  0  0
  188.5980  177.0440  139.3400 C   0  0  0  0  0  2  0  0  0  0  0  0
  188.7570  178.0250  141.6300 C   0  0  0  0  0  0  0  0  0  0  0  0
  191.2460  177.7380  141.1740 C   0  0  1  0  0  3  0  0  0  0  0  0
  190.8260  176.5160  140.3470 C   0  0  0  0  0  2  0  0  0  0  0  0
  187.0960  177.9250  144.9580 C   0  0  0  0  0  0  0  0  0  0  0  0
  189.0720  176.8560  144.6040 C   0  0  0  0  0  3  0  0  0  0  0  0
  185.8490  178.2430  144.7340 C   0  0  0  0  0  0  0  0  0  0  0  0
  184.6670  178.5400  144.5230 O   0  0  0  0  0  0  0  0  0  0  0  0
  187.6560  177.5850  146.2530 C   0  0  0  0  0  0  0  0  0  0  0  0
  188.8260  176.9850  146.0460 C   0  0  0  0  0  0  0  0  0  0  0  0
  188.0280  177.3890  143.9700 C   0  0  0  0  0  0  0  0  0  0  0  0
  191.0980  176.6490  146.9240 C   0  0  0  0  0  1  0  0  0  0  0  0
  189.6870  176.5450  147.0510 O   0  0  0  0  0  0  0  0  0  0  0  0
  187.0470  177.8630  147.4830 O   0  0  0  0  0  0  0  0  0  0  0  0
  187.7530  178.3610  148.6080 C   0  0  0  0  0  1  0  0  0  0  0  0
  186.9840  178.6460  140.1290 O   0  0  0  0  0  0  0  0  0  0  0  0
  186.5740  178.3230  138.8270 C   0  0  0  0  0  2  0  0  0  0  0  0
  184.5740  177.5070  137.5910 C   0  0  0  0  0  1  0  0  0  0  0  0
  185.0600  178.4240  138.6950 C   0  0  1  0  0  3  0  0  0  0  0  0
  183.1580  178.6290  140.3380 C   0  0  0  0  0  0  0  0  0  0  0  0
  184.4180  178.0770  139.9530 N   0  0  0  0  0  2  0  0  0  0  0  0
  180.4370  179.3930  140.3730 S   0  0  0  0  0  0  0  0  0  0  0  0
  181.4340  179.0010  141.7930 C   0  0  0  0  0  0  0  0  0  0  0  0
  181.0750  179.3520  143.0190 C   0  0  0  0  0  2  0  0  0  0  0  0
  182.2270  179.7220  139.2520 S   0  0  0  0  0  0  0  0  0  0  0  0
  182.7130  178.4450  141.5350 N   0  0  0  0  0  0  0  0  0  0  0  0
  1 23  1  1  0  0  0
  1  9  1  0  0  0  0
  2  3  1  6  0  0  0
  2  8  1  0  0  0  0
  2 11  1  0  0  0  0
  4 18  1  0  0  0  0
  6  9  1  6  0  0  0
  6  7  1  0  0  0  0
  7  5  1  1  0  0  0
  8  1  1  0  0  0  0
  9  4  2  0  0  0  0
 10 11  1  6  0  0  0
 10  6  1  0  0  0  0
 10  7  1  0  0  0  0
 12 16  1  0  0  0  0
 13 17  1  0  0  0  0
 14 12  2  0  0  0  0
 15 14  2  0  0  0  0
 16 21  1  0  0  0  0
 17 16  2  0  0  0  0
 17 20  1  0  0  0  0
 18 13  2  0  0  0  0
 18 12  1  0  0  0  0
 19 20  1  0  0  0  0
 21 22  1  0  0  0  0
 24 23  1  0  0  0  0
 26 25  1  6  0  0  0
 26 24  1  0  0  0  0
 26 28  1  0  0  0  0
 27 33  2  0  0  0  0
 28 27  1  0  0  0  0
 29 30  1  0  0  0  0
 30 31  2  0  0  0  0
 32 27  1  0  0  0  0
 32 29  1  0  0  0  0
 33 30  1  0  0  0  0
M  END
>  <MODEL>
4

>  <REMARK>
 VINA RESULT:      -7.1      2.316      6.138
  Name = 
  7 active torsions:
  status: ('A' for Active; 'I' for Inactive)
    1  A    between atoms: C_1  and  O_15
    2  A    between atoms: N_8  and  C_29
    3  A    between atoms: C_9  and  O_15
    4  A    between atoms: C_9  and  C_29
    5  A    between atoms: C_10  and  C_32
    6  A    between atoms: O_18  and  C_26
    7  A    between atoms: C_27  and  O_33
                            x       y       z     vdW  Elec       q    Type
                         _______ _______ _______ _____ _____    ______ ____

>  <TORSDO>
F 7

$$$$
=
 OpenBabel11042411103D

 33 36  0  0  1  0  0  0  0  0999 V2000
  186.7450  178.8340  141.6890 C   0  0  2  0  0  3  0  0  0  0  0  0
  187.7100  177.6560  143.6650 C   0  0  1  0  0  3  0  0  0  0  0  0
  188.6610  176.5470  144.0630 C   0  0  0  0  0  1  0  0  0  0  0  0
  184.4140  178.2020  141.2230 C   0  0  0  0  0  3  0  0  0  0  0  0
  183.4020  179.2500  145.2090 O   0  0  0  0  0  1  0  0  0  0  0  0
  184.9130  179.4000  143.3880 C   0  0  2  0  0  3  0  0  0  0  0  0
  184.1740  178.4810  144.3460 C   0  0  1  0  0  3  0  0  0  0  0  0
  187.5100  177.6080  142.1560 C   0  0  0  0  0  2  0  0  0  0  0  0
  185.2940  178.7520  142.0760 C   0  0  0  0  0  0  0  0  0  0  0  0
  185.6340  178.7730  144.6010 C   0  0  1  0  0  3  0  0  0  0  0  0
  186.3840  177.4540  144.3850 C   0  0  0  0  0  2  0  0  0  0  0  0
  182.0580  177.4430  140.4320 C   0  0  0  0  0  0  0  0  0  0  0  0
  182.2000  178.8980  142.1730 C   0  0  0  0  0  3  0  0  0  0  0  0
  182.4050  176.4260  139.6890 C   0  0  0  0  0  0  0  0  0  0  0  0
  182.7320  175.4600  138.9880 O   0  0  0  0  0  0  0  0  0  0  0  0
  180.7090  177.7330  140.8800 C   0  0  0  0  0  0  0  0  0  0  0  0
  180.7910  178.6070  141.8810 C   0  0  0  0  0  0  0  0  0  0  0  0
  182.9420  178.1810  141.3300 C   0  0  0  0  0  0  0  0  0  0  0  0
  179.4400  178.8770  143.9170 C   0  0  0  0  0  1  0  0  0  0  0  0
  179.7000  179.1600  142.5500 O   0  0  0  0  0  0  0  0  0  0  0  0
  179.5480  177.1780  140.3280 O   0  0  0  0  0  0  0  0  0  0  0  0
  179.0610  175.8900  140.6700 C   0  0  0  0  0  1  0  0  0  0  0  0
  186.9000  179.0250  140.3090 O   0  0  0  0  0  0  0  0  0  0  0  0
  187.9560  178.1840  139.9290 C   0  0  0  0  0  2  0  0  0  0  0  0
  189.3380  178.7240  137.9300 C   0  0  0  0  0  1  0  0  0  0  0  0
  188.0500  178.0870  138.4110 C   0  0  1  0  0  3  0  0  0  0  0  0
  186.8010  176.1230  137.4420 C   0  0  0  0  0  0  0  0  0  0  0  0
  187.9900  176.6980  137.9880 N   0  0  0  0  0  2  0  0  0  0  0  0
  184.5350  175.6150  135.8300 S   0  0  0  0  0  0  0  0  0  0  0  0
  185.5210  174.3940  136.6690 C   0  0  0  0  0  0  0  0  0  0  0  0
  185.0800  173.1620  136.8770 C   0  0  0  0  0  2  0  0  0  0  0  0
  185.3180  177.1020  137.1510 S   0  0  0  0  0  0  0  0  0  0  0  0
  186.7290  174.8480  137.2550 N   0  0  0  0  0  0  0  0  0  0  0  0
  1 23  1  6  0  0  0
  1  9  1  0  0  0  0
  1  8  1  0  0  0  0
  2  3  1  1  0  0  0
  2 11  1  0  0  0  0
  4 18  1  0  0  0  0
  4  9  2  0  0  0  0
  6  9  1  6  0  0  0
  6  7  1  0  0  0  0
  6 10  1  0  0  0  0
  7 10  1  0  0  0  0
  7  5  1  1  0  0  0
  8  2  1  0  0  0  0
 10 11  1  6  0  0  0
 12 16  1  0  0  0  0
 12 18  1  0  0  0  0
 14 12  2  0  0  0  0
 15 14  2  0  0  0  0
 16 17  2  0  0  0  0
 17 13  1  0  0  0  0
 17 20  1  0  0  0  0
 18 13  2  0  0  0  0
 20 19  1  0  0  0  0
 21 22  1  0  0  0  0
 21 16  1  0  0  0  0
 24 23  1  0  0  0  0
 26 25  1  1  0  0  0
 26 24  1  0  0  0  0
 27 28  1  0  0  0  0
 28 26  1  0  0  0  0
 29 30  1  0  0  0  0
 29 32  1  0  0  0  0
 30 31  2  0  0  0  0
 30 33  1  0  0  0  0
 32 27  1  0  0  0  0
 33 27  2  0  0  0  0
M  END
>  <MODEL>
5

>  <REMARK>
 VINA RESULT:      -7.0      3.285      6.677
  Name = 
  7 active torsions:
  status: ('A' for Active; 'I' for Inactive)
    1  A    between atoms: C_1  and  O_15
    2  A    between atoms: N_8  and  C_29
    3  A    between atoms: C_9  and  O_15
    4  A    between atoms: C_9  and  C_29
    5  A    between atoms: C_10  and  C_32
    6  A    between atoms: O_18  and  C_26
    7  A    between atoms: C_27  and  O_33
                            x       y       z     vdW  Elec       q    Type
                         _______ _______ _______ _____ _____    ______ ____

>  <TORSDO>
F 7

$$$$
=
 OpenBabel11042411103D

 33 36  0  0  1  0  0  0  0  0999 V2000
  186.1880  178.7410  142.8070 C   0  0  2  0  0  3  0  0  0  0  0  0
  185.6790  178.3030  145.2090 C   0  0  1  0  0  3  0  0  0  0  0  0
  186.0890  177.4540  146.3940 C   0  0  0  0  0  1  0  0  0  0  0  0
  184.5150  177.7950  141.2710 C   0  0  0  0  0  3  0  0  0  0  0  0
  181.4900  179.9040  143.3720 O   0  0  0  0  0  1  0  0  0  0  0  0
  183.7860  179.6290  142.8430 C   0  0  2  0  0  3  0  0  0  0  0  0
  182.5310  178.9810  143.4010 C   0  0  1  0  0  3  0  0  0  0  0  0
  186.3940  177.7840  143.9680 C   0  0  0  0  0  2  0  0  0  0  0  0
  184.7860  178.6520  142.2690 C   0  0  0  0  0  0  0  0  0  0  0  0
  183.5880  179.4640  144.3650 C   0  0  1  0  0  3  0  0  0  0  0  0
  184.1710  178.2120  145.0320 C   0  0  0  0  0  2  0  0  0  0  0  0
  182.6940  178.7500  139.6830 C   0  0  0  0  0  0  0  0  0  0  0  0
  182.4330  176.6390  140.4880 C   0  0  0  0  0  3  0  0  0  0  0  0
  183.3440  179.7820  139.2160 C   0  0  0  0  0  0  0  0  0  0  0  0
  183.9610  180.7570  138.7700 O   0  0  0  0  0  0  0  0  0  0  0  0
  181.4650  178.2120  139.1300 C   0  0  0  0  0  0  0  0  0  0  0  0
  181.2980  176.9870  139.6240 C   0  0  0  0  0  0  0  0  0  0  0  0
  183.2670  177.6780  140.4920 C   0  0  0  0  0  0  0  0  0  0  0  0
  179.3350  175.7200  140.3890 C   0  0  0  0  0  1  0  0  0  0  0  0
  180.2070  176.1600  139.3570 O   0  0  0  0  0  0  0  0  0  0  0  0
  180.6240  178.8940  138.2410 O   0  0  0  0  0  0  0  0  0  0  0  0
  179.3760  179.4510  138.6210 C   0  0  0  0  0  1  0  0  0  0  0  0
  187.1400  178.5190  141.8020 O   0  0  0  0  0  0  0  0  0  0  0  0
  188.0830  177.6450  142.3620 C   0  0  0  0  0  2  0  0  0  0  0  0
  190.2510  178.4210  143.3070 C   0  0  0  0  0  1  0  0  0  0  0  0
  189.5010  178.0950  142.0320 C   0  0  1  0  0  3  0  0  0  0  0  0
  190.0460  176.9010  139.8790 C   0  0  0  0  0  0  0  0  0  0  0  0
  190.2010  177.0590  141.2900 N   0  0  0  0  0  2  0  0  0  0  0  0
  189.9820  177.3800  137.0940 S   0  0  0  0  0  0  0  0  0  0  0  0
  190.3550  175.8290  137.8830 C   0  0  0  0  0  0  0  0  0  0  0  0
  190.3150  174.6810  137.2240 C   0  0  0  0  0  2  0  0  0  0  0  0
  189.0440  178.0320  138.9000 S   0  0  0  0  0  0  0  0  0  0  0  0
  190.5320  175.8610  139.2900 N   0  0  0  0  0  0  0  0  0  0  0  0
  1 23  1  6  0  0  0
  1  8  1  0  0  0  0
  2  3  1  1  0  0  0
  4  9  2  0  0  0  0
  6  9  1  6  0  0  0
  6  7  1  0  0  0  0
  6 10  1  0  0  0  0
  7  5  1  1  0  0  0
  7 10  1  0  0  0  0
  8  2  1  0  0  0  0
  9  1  1  0  0  0  0
 10 11  1  6  0  0  0
 11  2  1  0  0  0  0
 12 18  1  0  0  0  0
 13 18  2  0  0  0  0
 14 12  2  0  0  0  0
 15 14  2  0  0  0  0
 16 17  2  0  0  0  0
 16 12  1  0  0  0  0
 17 13  1  0  0  0  0
 18  4  1  0  0  0  0
 20 17  1  0  0  0  0
 20 19  1  0  0  0  0
 21 22  1  0  0  0  0
 21 16  1  0  0  0  0
 23 24  1  0  0  0  0
 26 24  1  0  0  0  0
 26 25  1  1  0  0  0
 27 28  1  0  0  0  0
 28 26  1  0  0  0  0
 29 30  1  0  0  0  0
 29 32  1  0  0  0  0
 30 33  1  0  0  0  0
 31 30  2  0  0  0  0
 32 27  1  0  0  0  0
 33 27  2  0  0  0  0
M  END
>  <MODEL>
6

>  <REMARK>
 VINA RESULT:      -7.0      3.964      7.030
  Name = 
  7 active torsions:
  status: ('A' for Active; 'I' for Inactive)
    1  A    between atoms: C_1  and  O_15
    2  A    between atoms: N_8  and  C_29
    3  A    between atoms: C_9  and  O_15
    4  A    between atoms: C_9  and  C_29
    5  A    between atoms: C_10  and  C_32
    6  A    between atoms: O_18  and  C_26
    7  A    between atoms: C_27  and  O_33
                            x       y       z     vdW  Elec       q    Type
                         _______ _______ _______ _____ _____    ______ ____

>  <TORSDO>
F 7

$$$$
=
 OpenBabel11042411103D

 33 36  0  0  1  0  0  0  0  0999 V2000
  187.0060  178.7390  141.6960 C   0  0  2  0  0  3  0  0  0  0  0  0
  187.3800  177.8560  143.9990 C   0  0  1  0  0  3  0  0  0  0  0  0
  188.1870  176.8460  144.7870 C   0  0  0  0  0  1  0  0  0  0  0  0
  184.9050  177.9550  140.6840 C   0  0  0  0  0  3  0  0  0  0  0  0
  182.8010  179.4410  144.0560 O   0  0  0  0  0  1  0  0  0  0  0  0
  184.7640  179.4300  142.7260 C   0  0  2  0  0  3  0  0  0  0  0  0
  183.7910  178.6060  143.5510 C   0  0  1  0  0  3  0  0  0  0  0  0
  187.6150  177.6130  142.5130 C   0  0  0  0  0  2  0  0  0  0  0  0
  185.5040  178.6430  141.6700 C   0  0  0  0  0  0  0  0  0  0  0  0
  185.1170  178.9900  144.1630 C   0  0  1  0  0  3  0  0  0  0  0  0
  185.9060  177.6870  144.3400 C   0  0  0  0  0  2  0  0  0  0  0  0
  182.6670  179.0050  139.8830 C   0  0  0  0  0  0  0  0  0  0  0  0
  182.6590  176.8450  140.5940 C   0  0  0  0  0  3  0  0  0  0  0  0
  183.1370  180.0680  139.2870 C   0  0  0  0  0  0  0  0  0  0  0  0
  183.5810  181.0730  138.7180 O   0  0  0  0  0  0  0  0  0  0  0  0
  181.3130  178.4990  139.7550 C   0  0  0  0  0  0  0  0  0  0  0  0
  181.3030  177.2450  140.1980 C   0  0  0  0  0  0  0  0  0  0  0  0
  183.4630  177.8850  140.3760 C   0  0  0  0  0  0  0  0  0  0  0  0
  180.1170  175.1660  139.6300 C   0  0  0  0  0  1  0  0  0  0  0  0
  180.1710  176.4330  140.2720 O   0  0  0  0  0  0  0  0  0  0  0  0
  180.2310  179.2350  139.2540 O   0  0  0  0  0  0  0  0  0  0  0  0
  179.4500  180.1110  140.0510 C   0  0  0  0  0  1  0  0  0  0  0  0
  187.5430  178.7660  140.4020 O   0  0  0  0  0  0  0  0  0  0  0  0
  188.7040  177.9800  140.4600 C   0  0  0  0  0  2  0  0  0  0  0  0
  190.6160  177.1030  139.1290 C   0  0  0  0  0  1  0  0  0  0  0  0
  189.2050  177.6510  139.0590 C   0  0  1  0  0  3  0  0  0  0  0  0
  187.5470  177.0200  137.2680 C   0  0  0  0  0  0  0  0  0  0  0  0
  188.3250  176.6880  138.4190 N   0  0  0  0  0  2  0  0  0  0  0  0
  186.7560  177.8720  134.6910 S   0  0  0  0  0  0  0  0  0  0  0  0
  185.9610  176.6160  135.6710 C   0  0  0  0  0  0  0  0  0  0  0  0
  184.7300  176.2010  135.4110 C   0  0  0  0  0  2  0  0  0  0  0  0
  187.6700  178.6290  136.4680 S   0  0  0  0  0  0  0  0  0  0  0  0
  186.6410  176.2040  136.8440 N   0  0  0  0  0  0  0  0  0  0  0  0
  1 23  1  6  0  0  0
  1  8  1  0  0  0  0
  2 11  1  0  0  0  0
  2  3  1  1  0  0  0
  4  9  2  0  0  0  0
  6  9  1  6  0  0  0
  6  7  1  0  0  0  0
  6 10  1  0  0  0  0
  7  5  1  1  0  0  0
  7 10  1  0  0  0  0
  8  2  1  0  0  0  0
  9  1  1  0  0  0  0
 10 11  1  6  0  0  0
 12 18  1  0  0  0  0
 14 12  2  0  0  0  0
 15 14  2  0  0  0  0
 16 12  1  0  0  0  0
 16 17  2  0  0  0  0
 17 20  1  0  0  0  0
 17 13  1  0  0  0  0
 18 13  2  0  0  0  0
 18  4  1  0  0  0  0
 19 20  1  0  0  0  0
 21 16  1  0  0  0  0
 21 22  1  0  0  0  0
 23 24  1  0  0  0  0
 26 25  1  1  0  0  0
 26 24  1  0  0  0  0
 27 28  1  0  0  0  0
 28 26  1  0  0  0  0
 29 30  1  0  0  0  0
 29 32  1  0  0  0  0
 30 33  1  0  0  0  0
 31 30  2  0  0  0  0
 32 27  1  0  0  0  0
 33 27  2  0  0  0  0
M  END
>  <MODEL>
7

>  <REMARK>
 VINA RESULT:      -6.9      3.432      6.531
  Name = 
  7 active torsions:
  status: ('A' for Active; 'I' for Inactive)
    1  A    between atoms: C_1  and  O_15
    2  A    between atoms: N_8  and  C_29
    3  A    between atoms: C_9  and  O_15
    4  A    between atoms: C_9  and  C_29
    5  A    between atoms: C_10  and  C_32
    6  A    between atoms: O_18  and  C_26
    7  A    between atoms: C_27  and  O_33
                            x       y       z     vdW  Elec       q    Type
                         _______ _______ _______ _____ _____    ______ ____

>  <TORSDO>
F 7

$$$$
=
 OpenBabel11042411103D

 33 36  0  0  1  0  0  0  0  0999 V2000
  185.0330  178.2600  143.5930 C   0  0  2  0  0  3  0  0  0  0  0  0
  186.0420  178.4720  145.8650 C   0  0  1  0  0  3  0  0  0  0  0  0
  186.1150  179.3840  147.0720 C   0  0  0  0  0  1  0  0  0  0  0  0
  186.6390  178.6690  141.7750 C   0  0  0  0  0  3  0  0  0  0  0  0
  189.1680  175.6870  143.4250 O   0  0  0  0  0  1  0  0  0  0  0  0
  187.0160  176.6700  143.2680 C   0  0  2  0  0  3  0  0  0  0  0  0
  188.4830  176.8860  143.5920 C   0  0  1  0  0  3  0  0  0  0  0  0
  185.3280  179.2110  144.7400 C   0  0  0  0  0  2  0  0  0  0  0  0
  186.2860  177.9200  142.8320 C   0  0  0  0  0  0  0  0  0  0  0  0
  187.5030  176.7370  144.7310 C   0  0  1  0  0  3  0  0  0  0  0  0
  187.4540  178.0950  145.4420 C   0  0  0  0  0  2  0  0  0  0  0  0
  187.4960  178.0400  139.4040 C   0  0  0  0  0  0  0  0  0  0  0  0
  189.0220  178.3650  141.0580 C   0  0  0  0  0  3  0  0  0  0  0  0
  186.4030  178.2580  138.7220 C   0  0  0  0  0  0  0  0  0  0  0  0
  185.3700  178.4700  138.0750 O   0  0  0  0  0  0  0  0  0  0  0  0
  188.8170  177.8490  138.8340 C   0  0  0  0  0  0  0  0  0  0  0  0
  189.7080  178.0110  139.8090 C   0  0  0  0  0  0  0  0  0  0  0  0
  187.7160  178.4080  140.8000 C   0  0  0  0  0  0  0  0  0  0  0  0
  191.9210  177.5090  140.7560 C   0  0  0  0  0  1  0  0  0  0  0  0
  191.0880  177.8660  139.6620 O   0  0  0  0  0  0  0  0  0  0  0  0
  189.0690  177.5410  137.4910 O   0  0  0  0  0  0  0  0  0  0  0  0
  189.3830  176.2350  137.0360 C   0  0  0  0  0  1  0  0  0  0  0  0
  184.0440  178.7840  142.7500 O   0  0  0  0  0  0  0  0  0  0  0  0
  182.8510  178.7250  143.4850 C   0  0  0  0  0  2  0  0  0  0  0  0
  180.5340  179.5280  143.0580 C   0  0  0  0  0  1  0  0  0  0  0  0
  181.6470  178.6310  142.5560 C   0  0  1  0  0  3  0  0  0  0  0  0
  181.5460  178.2960  140.0590 C   0  0  0  0  0  0  0  0  0  0  0  0
  182.0210  179.0070  141.2030 N   0  0  0  0  0  2  0  0  0  0  0  0
  179.8710  177.0820  138.1320 S   0  0  0  0  0  0  0  0  0  0  0  0
  181.4680  177.8060  137.8270 C   0  0  0  0  0  0  0  0  0  0  0  0
  182.1560  177.5450  136.7250 C   0  0  0  0  0  2  0  0  0  0  0  0
  180.3720  176.9380  140.2050 S   0  0  0  0  0  0  0  0  0  0  0  0
  182.0450  178.5390  138.8940 N   0  0  0  0  0  0  0  0  0  0  0  0
  1 23  1  6  0  0  0
  1  8  1  0  0  0  0
  2  3  1  1  0  0  0
  4  9  2  0  0  0  0
  6  9  1  1  0  0  0
  6  7  1  0  0  0  0
  6 10  1  0  0  0  0
  7  5  1  6  0  0  0
  7 10  1  0  0  0  0
  8  2  1  0  0  0  0
  9  1  1  0  0  0  0
 10 11  1  1  0  0  0
 11  2  1  0  0  0  0
 12 18  1  0  0  0  0
 14 12  2  0  0  0  0
 15 14  2  0  0  0  0
 16 12  1  0  0  0  0
 16 17  2  0  0  0  0
 17 13  1  0  0  0  0
 18 13  2  0  0  0  0
 18  4  1  0  0  0  0
 20 17  1  0  0  0  0
 20 19  1  0  0  0  0
 21 16  1  0  0  0  0
 22 21  1  0  0  0  0
 23 24  1  0  0  0  0
 26 25  1  1  0  0  0
 26 24  1  0  0  0  0
 27 32  1  0  0  0  0
 27 28  1  0  0  0  0
 28 26  1  0  0  0  0
 29 32  1  0  0  0  0
 30 29  1  0  0  0  0
 30 33  1  0  0  0  0
 31 30  2  0  0  0  0
 33 27  2  0  0  0  0
M  END
>  <MODEL>
8

>  <REMARK>
 VINA RESULT:      -6.8      1.214      1.263
  Name = 
  7 active torsions:
  status: ('A' for Active; 'I' for Inactive)
    1  A    between atoms: C_1  and  O_15
    2  A    between atoms: N_8  and  C_29
    3  A    between atoms: C_9  and  O_15
    4  A    between atoms: C_9  and  C_29
    5  A    between atoms: C_10  and  C_32
    6  A    between atoms: O_18  and  C_26
    7  A    between atoms: C_27  and  O_33
                            x       y       z     vdW  Elec       q    Type
                         _______ _______ _______ _____ _____    ______ ____

>  <TORSDO>
F 7

$$$$
=
 OpenBabel11042411103D

 33 36  0  0  1  0  0  0  0  0999 V2000
  187.8620  177.1050  144.1740 C   0  0  2  0  0  3  0  0  0  0  0  0
  188.8780  177.5130  146.4150 C   0  0  1  0  0  3  0  0  0  0  0  0
  188.8480  178.4560  147.6000 C   0  0  0  0  0  1  0  0  0  0  0  0
  189.3550  177.6910  142.3080 C   0  0  0  0  0  3  0  0  0  0  0  0
  192.3150  175.1370  143.9590 O   0  0  0  0  0  1  0  0  0  0  0  0
  190.0420  175.8030  143.8340 C   0  0  2  0  0  3  0  0  0  0  0  0
  191.4710  176.2310  144.1180 C   0  0  1  0  0  3  0  0  0  0  0  0
  188.0430  178.1160  145.2930 C   0  0  0  0  0  2  0  0  0  0  0  0
  189.1340  176.9260  143.3900 C   0  0  0  0  0  0  0  0  0  0  0  0
  190.5460  175.9730  145.2830 C   0  0  1  0  0  3  0  0  0  0  0  0
  190.3200  177.3280  145.9660 C   0  0  0  0  0  2  0  0  0  0  0  0
  190.2490  177.0830  139.9460 C   0  0  0  0  0  0  0  0  0  0  0  0
  191.7370  177.7520  141.5300 C   0  0  0  0  0  3  0  0  0  0  0  0
  189.1190  177.0750  139.2910 C   0  0  0  0  0  0  0  0  0  0  0  0
  188.0500  177.0730  138.6680 O   0  0  0  0  0  0  0  0  0  0  0  0
  191.5700  177.0840  139.3440 C   0  0  0  0  0  0  0  0  0  0  0  0
  192.4430  177.4490  140.2790 C   0  0  0  0  0  0  0  0  0  0  0  0
  190.4370  177.5610  141.3130 C   0  0  0  0  0  0  0  0  0  0  0  0
  194.6610  176.3890  140.2160 C   0  0  0  0  0  1  0  0  0  0  0  0
  193.8240  177.5300  140.0940 O   0  0  0  0  0  0  0  0  0  0  0  0
  191.8390  176.7490  138.0100 O   0  0  0  0  0  0  0  0  0  0  0  0
  192.1720  175.4360  137.5890 C   0  0  0  0  0  1  0  0  0  0  0  0
  186.7910  177.4640  143.3440 O   0  0  0  0  0  0  0  0  0  0  0  0
  185.7850  177.9250  144.2050 C   0  0  0  0  0  2  0  0  0  0  0  0
  184.5550  180.0870  144.2910 C   0  0  0  0  0  1  0  0  0  0  0  0
  184.8200  178.8440  143.4660 C   0  0  1  0  0  3  0  0  0  0  0  0
  184.7330  178.8230  140.9470 C   0  0  0  0  0  0  0  0  0  0  0  0
  185.3630  179.2100  142.1690 N   0  0  0  0  0  2  0  0  0  0  0  0
  182.8440  178.4510  138.8760 S   0  0  0  0  0  0  0  0  0  0  0  0
  184.6040  178.6220  138.6730 C   0  0  0  0  0  0  0  0  0  0  0  0
  185.2170  178.2600  137.5560 C   0  0  0  0  0  2  0  0  0  0  0  0
  183.1680  177.9320  140.9250 S   0  0  0  0  0  0  0  0  0  0  0  0
  185.3400  179.0030  139.8230 N   0  0  0  0  0  0  0  0  0  0  0  0
  1 23  1  6  0  0  0
  1  8  1  0  0  0  0
  2  3  1  1  0  0  0
  4  9  2  0  0  0  0
  6  9  1  6  0  0  0
  6  7  1  0  0  0  0
  6 10  1  0  0  0  0
  7  5  1  1  0  0  0
  7 10  1  0  0  0  0
  8  2  1  0  0  0  0
  9  1  1  0  0  0  0
 10 11  1  6  0  0  0
 11  2  1  0  0  0  0
 12 18  1  0  0  0  0
 14 12  2  0  0  0  0
 15 14  2  0  0  0  0
 16 12  1  0  0  0  0
 16 17  2  0  0  0  0
 17 13  1  0  0  0  0
 18 13  2  0  0  0  0
 18  4  1  0  0  0  0
 20 19  1  0  0  0  0
 20 17  1  0  0  0  0
 21 16  1  0  0  0  0
 22 21  1  0  0  0  0
 23 24  1  0  0  0  0
 26 24  1  0  0  0  0
 26 25  1  1  0  0  0
 27 28  1  0  0  0  0
 28 26  1  0  0  0  0
 29 32  1  0  0  0  0
 30 29  1  0  0  0  0
 30 33  1  0  0  0  0
 31 30  2  0  0  0  0
 32 27  1  0  0  0  0
 33 27  2  0  0  0  0
M  END
>  <MODEL>
9

>  <REMARK>
 VINA RESULT:      -6.8      2.689      3.812
  Name = 
  7 active torsions:
  status: ('A' for Active; 'I' for Inactive)
    1  A    between atoms: C_1  and  O_15
    2  A    between atoms: N_8  and  C_29
    3  A    between atoms: C_9  and  O_15
    4  A    between atoms: C_9  and  C_29
    5  A    between atoms: C_10  and  C_32
    6  A    between atoms: O_18  and  C_26
    7  A    between atoms: C_27  and  O_33
                            x       y       z     vdW  Elec       q    Type
                         _______ _______ _______ _____ _____    ______ ____

>  <TORSDO>
F 7

$$$$
