=
 OpenBabel11032420553D

 47 51  0  0  1  0  0  0  0  0999 V2000
  188.8030  177.8580  141.5930 C   0  0  0  0  0  3  0  0  0  0  0  0
  189.0880  178.1840  139.1720 C   0  0  0  0  0  0  0  0  0  0  0  0
  190.2250  177.3260  141.7070 C   0  0  0  0  0  0  0  0  0  0  0  0
  190.9900  177.2630  140.6300 C   0  0  0  0  0  3  0  0  0  0  0  0
  188.6580  178.5750  138.0350 N   0  0  0  0  0  0  0  0  0  0  0  0
  190.3880  177.4290  139.3010 C   0  0  2  0  0  3  0  0  0  0  0  0
  188.3360  178.2600  140.4450 C   0  0  0  0  0  3  0  0  0  0  0  0
  191.5250  175.9890  143.2830 O   0  0  0  0  0  0  0  0  0  0  0  0
  190.6810  176.9110  143.0580 C   0  0  0  0  0  0  0  0  0  0  0  0
  190.5530  178.7410  144.5470 O   0  0  0  0  0  0  0  0  0  0  0  0
  189.0450  177.0900  144.9820 N   0  0  0  0  0  2  0  0  0  0  0  0
  190.0840  177.6260  144.2070 C   0  0  0  0  0  0  0  0  0  0  0  0
  185.7030  178.2540  145.6000 C   0  0  0  0  0  3  0  0  0  0  0  0
  186.8380  178.3870  147.6740 C   0  0  0  0  0  3  0  0  0  0  0  0
  186.8120  177.6710  145.0290 C   0  0  0  0  0  3  0  0  0  0  0  0
  187.9730  177.8070  147.1070 C   0  0  0  0  0  3  0  0  0  0  0  0
  187.9410  177.4980  145.7590 C   0  0  0  0  0  0  0  0  0  0  0  0
  185.6940  178.6460  146.9390 C   0  0  0  0  0  3  0  0  0  0  0  0
  187.5070  179.0100  137.4460 O   0  0  0  0  0  0  0  0  0  0  0  0
  186.6000  178.1320  136.7770 C   0  0  0  0  0  2  0  0  0  0  0  0
  185.7420  177.4400  137.7930 C   0  0  0  0  0  2  0  0  0  0  0  0
  185.0990  178.6790  138.4360 C   0  0  0  0  0  2  0  0  0  0  0  0
  184.1880  178.6280  139.5650 C   0  0  1  0  0  3  0  0  0  0  0  0
  182.8000  176.3960  139.8650 O   0  0  0  0  0  1  0  0  0  0  0  0
  182.1230  177.9730  137.9480 O   0  0  0  0  0  0  0  0  0  0  0  0
  182.7840  177.8340  139.3990 P   0  0  0  0  0  0  0  0  0  0  0  0
  181.9330  178.7940  140.4210 O   0  0  0  0  0  1  0  0  0  0  0  0
  184.7900  177.9850  141.9050 C   0  0  0  0  0  1  0  0  0  0  0  0
  184.7140  179.2200  140.8370 C   0  0  0  0  0  2  0  0  0  0  0  0
  191.2560  176.9660  138.2030 C   0  0  0  0  0  2  0  0  0  0  0  0
  192.0550  175.3870  135.8630 C   0  0  0  0  0  2  0  0  0  0  0  0
  189.5800  175.0270  137.5360 C   0  0  0  0  0  2  0  0  0  0  0  0
  192.1090  174.8540  137.3140 C   0  0  0  0  0  2  0  0  0  0  0  0
  190.9800  175.4700  138.1120 C   0  0  1  0  0  3  0  0  0  0  0  0
  189.5760  175.1020  136.0880 C   0  0  1  0  0  3  0  0  0  0  0  0
  190.6470  175.5190  135.2240 C   0  0  0  0  0  2  0  0  0  0  0  0
  188.6750  174.2010  135.3870 N   0  0  0  0  0  2  0  0  0  0  0  0
  183.6250  174.5780  135.5280 C   0  0  2  0  0  3  0  0  0  0  0  0
  182.6570  173.7720  136.2270 C   0  0  0  0  0  2  0  0  0  0  0  0
  184.4580  172.5140  137.3970 C   0  0  0  0  0  2  0  0  0  0  0  0
  185.4970  173.1400  136.4890 C   0  0  0  0  0  0  0  0  0  0  0  0
  183.2110  172.5270  136.7210 O   0  0  0  0  0  0  0  0  0  0  0  0
  186.8500  172.8920  136.4710 C   0  0  0  0  0  3  0  0  0  0  0  0
  185.0400  174.1740  135.6970 C   0  0  0  0  0  0  0  0  0  0  0  0
  183.3110  176.0070  135.2880 C   0  0  0  0  0  1  0  0  0  0  0  0
  186.3630  174.8290  134.9230 S   0  0  0  0  0  0  0  0  0  0  0  0
  187.4510  173.8370  135.5970 C   0  0  0  0  0  0  0  0  0  0  0  0
  1  3  1  0  0  0  0
  2  6  1  0  0  0  0
  2  7  1  0  0  0  0
  3  9  1  0  0  0  0
  4  3  2  0  0  0  0
  5  2  2  0  0  0  0
  6 30  1  6  0  0  0
  6  4  1  0  0  0  0
  7  1  2  0  0  0  0
  9  8  2  0  0  0  0
  9 12  1  0  0  0  0
 11 17  1  0  0  0  0
 12 10  2  0  0  0  0
 12 11  1  0  0  0  0
 13 18  1  0  0  0  0
 15 13  2  0  0  0  0
 15 17  1  0  0  0  0
 16 14  1  0  0  0  0
 17 16  2  0  0  0  0
 18 14  2  0  0  0  0
 19  5  1  0  0  0  0
 20 19  1  0  0  0  0
 20 21  1  0  0  0  0
 21 22  1  0  0  0  0
 23 22  1  1  0  0  0
 23 29  1  0  0  0  0
 25 26  2  0  0  0  0
 26 23  1  0  0  0  0
 26 24  1  0  0  0  0
 26 27  1  0  0  0  0
 29 28  1  0  0  0  0
 31 33  1  0  0  0  0
 32 34  1  0  0  0  0
 33 34  1  0  0  0  0
 34 30  1  6  0  0  0
 35 37  1  6  0  0  0
 35 32  1  0  0  0  0
 36 31  1  0  0  0  0
 36 35  1  0  0  0  0
 37 47  1  0  0  0  0
 38 45  1  1  0  0  0
 38 44  1  0  0  0  0
 38 39  1  0  0  0  0
 39 42  1  0  0  0  0
 41 40  1  0  0  0  0
 42 40  1  0  0  0  0
 43 41  1  0  0  0  0
 44 41  2  0  0  0  0
 46 47  1  0  0  0  0
 46 44  1  0  0  0  0
 47 43  2  0  0  0  0
M  END
>  <MODEL>
1

>  <REMARK>
 VINA RESULT:      -8.0      0.000      0.000
  Name = 
  14 active torsions:
  status: ('A' for Active; 'I' for Inactive)
    1  A    between atoms: C_2  and  C_5
    2  A    between atoms: C_2  and  C_40
    3  A    between atoms: C_5  and  O_21
    4  A    between atoms: P_12  and  C_28
    5  A    between atoms: C_13  and  C_31
    6  A    between atoms: N_17  and  C_29
    7  A    between atoms: O_21  and  N_43
    8  A    between atoms: C_22  and  C_46
    9  A    between atoms: C_25  and  N_26
   10  A    between atoms: N_26  and  C_42
   11  A    between atoms: C_28  and  C_33
   12  A    between atoms: C_28  and  C_40
   13  A    between atoms: C_31  and  C_44
   14  A    between atoms: C_34  and  C_46
                            x       y       z     vdW  Elec       q    Type
                         _______ _______ _______ _____ _____    ______ ____

>  <TORSDO>
F 14

$$$$
=
 OpenBabel11032420553D

 47 51  0  0  1  0  0  0  0  0999 V2000
  188.5890  177.9260  141.6140 C   0  0  0  0  0  3  0  0  0  0  0  0
  188.4040  178.1920  139.1760 C   0  0  0  0  0  0  0  0  0  0  0  0
  190.0370  177.4760  141.4730 C   0  0  0  0  0  0  0  0  0  0  0  0
  190.5920  177.4210  140.2740 C   0  0  0  0  0  3  0  0  0  0  0  0
  187.7490  178.5240  138.1310 N   0  0  0  0  0  0  0  0  0  0  0  0
  189.7480  177.5130  139.0780 C   0  0  2  0  0  3  0  0  0  0  0  0
  187.8960  178.2660  140.5650 C   0  0  0  0  0  3  0  0  0  0  0  0
  191.7200  176.3030  142.7970 O   0  0  0  0  0  0  0  0  0  0  0  0
  190.7580  177.1280  142.7240 C   0  0  0  0  0  0  0  0  0  0  0  0
  190.7230  178.9370  144.2440 O   0  0  0  0  0  0  0  0  0  0  0  0
  189.4290  177.1730  144.8790 N   0  0  0  0  0  2  0  0  0  0  0  0
  190.2920  177.7910  143.9630 C   0  0  0  0  0  0  0  0  0  0  0  0
  186.1940  178.2460  146.0160 C   0  0  0  0  0  3  0  0  0  0  0  0
  187.5740  178.1740  147.9380 C   0  0  0  0  0  3  0  0  0  0  0  0
  187.2210  177.7320  145.2570 C   0  0  0  0  0  3  0  0  0  0  0  0
  188.6280  177.6630  147.1810 C   0  0  0  0  0  3  0  0  0  0  0  0
  188.4300  177.4930  145.8230 C   0  0  0  0  0  0  0  0  0  0  0  0
  186.3510  178.4990  147.3780 C   0  0  0  0  0  3  0  0  0  0  0  0
  186.4860  178.8770  137.7570 O   0  0  0  0  0  0  0  0  0  0  0  0
  185.3260  178.1460  138.1600 C   0  0  0  0  0  2  0  0  0  0  0  0
  184.3740  179.0710  138.8550 C   0  0  0  0  0  2  0  0  0  0  0  0
  184.0060  178.1730  140.0470 C   0  0  0  0  0  2  0  0  0  0  0  0
  182.8730  178.4100  140.9220 C   0  0  1  0  0  3  0  0  0  0  0  0
  180.3520  177.7460  141.3690 O   0  0  0  0  0  1  0  0  0  0  0  0
  181.3190  177.2600  139.0330 O   0  0  0  0  0  0  0  0  0  0  0  0
  181.3770  178.1770  140.3440 P   0  0  0  0  0  0  0  0  0  0  0  0
  181.1430  179.7300  139.8690 O   0  0  0  0  0  1  0  0  0  0  0  0
  184.7490  178.1870  142.5600 C   0  0  0  0  0  1  0  0  0  0  0  0
  183.2220  178.7280  142.3450 C   0  0  0  0  0  2  0  0  0  0  0  0
  190.4240  177.0640  137.8470 C   0  0  0  0  0  2  0  0  0  0  0  0
  190.6430  175.5940  135.3180 C   0  0  0  0  0  2  0  0  0  0  0  0
  188.5690  175.2130  137.4640 C   0  0  0  0  0  2  0  0  0  0  0  0
  190.9840  174.9810  136.6960 C   0  0  0  0  0  2  0  0  0  0  0  0
  190.0760  175.5840  137.7460 C   0  0  1  0  0  3  0  0  0  0  0  0
  188.2600  175.3670  136.0570 C   0  0  1  0  0  3  0  0  0  0  0  0
  189.1380  175.8000  135.0030 C   0  0  0  0  0  2  0  0  0  0  0  0
  187.1960  174.5320  135.5240 N   0  0  0  0  0  2  0  0  0  0  0  0
  183.3210  171.4980  136.7260 C   0  0  2  0  0  3  0  0  0  0  0  0
  181.9470  171.8220  137.0140 C   0  0  0  0  0  2  0  0  0  0  0  0
  182.3170  174.2050  136.3990 C   0  0  0  0  0  2  0  0  0  0  0  0
  183.8130  173.9690  136.3510 C   0  0  0  0  0  0  0  0  0  0  0  0
  181.7420  173.2360  137.2590 O   0  0  0  0  0  0  0  0  0  0  0  0
  184.7980  174.8980  136.1070 C   0  0  0  0  0  3  0  0  0  0  0  0
  184.2030  172.6480  136.4240 C   0  0  0  0  0  0  0  0  0  0  0  0
  183.6200  170.1820  136.1100 C   0  0  0  0  0  1  0  0  0  0  0  0
  185.8510  172.6020  136.1750 S   0  0  0  0  0  0  0  0  0  0  0  0
  186.0270  174.1980  135.9710 C   0  0  0  0  0  0  0  0  0  0  0  0
  2  7  1  0  0  0  0
  3  1  1  0  0  0  0
  3  9  1  0  0  0  0
  4  3  2  0  0  0  0
  5  2  2  0  0  0  0
  6 30  1  6  0  0  0
  6  2  1  0  0  0  0
  6  4  1  0  0  0  0
  7  1  2  0  0  0  0
  9  8  2  0  0  0  0
  9 12  1  0  0  0  0
 11 17  1  0  0  0  0
 12 10  2  0  0  0  0
 12 11  1  0  0  0  0
 13 18  1  0  0  0  0
 15 17  1  0  0  0  0
 15 13  2  0  0  0  0
 16 14  1  0  0  0  0
 17 16  2  0  0  0  0
 18 14  2  0  0  0  0
 19  5  1  0  0  0  0
 19 20  1  0  0  0  0
 20 21  1  0  0  0  0
 21 22  1  0  0  0  0
 23 22  1  1  0  0  0
 23 29  1  0  0  0  0
 25 26  2  0  0  0  0
 26 23  1  0  0  0  0
 26 24  1  0  0  0  0
 27 26  1  0  0  0  0
 29 28  1  0  0  0  0
 31 33  1  0  0  0  0
 32 34  1  0  0  0  0
 33 34  1  0  0  0  0
 34 30  1  6  0  0  0
 35 37  1  6  0  0  0
 35 32  1  0  0  0  0
 36 31  1  0  0  0  0
 36 35  1  0  0  0  0
 37 47  1  0  0  0  0
 38 45  1  6  0  0  0
 38 39  1  0  0  0  0
 39 42  1  0  0  0  0
 40 42  1  0  0  0  0
 41 40  1  0  0  0  0
 41 44  2  0  0  0  0
 43 41  1  0  0  0  0
 44 38  1  0  0  0  0
 46 44  1  0  0  0  0
 47 43  2  0  0  0  0
 47 46  1  0  0  0  0
M  END
>  <MODEL>
2

>  <REMARK>
 VINA RESULT:      -7.9      1.195      1.765
  Name = 
  14 active torsions:
  status: ('A' for Active; 'I' for Inactive)
    1  A    between atoms: C_2  and  C_5
    2  A    between atoms: C_2  and  C_40
    3  A    between atoms: C_5  and  O_21
    4  A    between atoms: P_12  and  C_28
    5  A    between atoms: C_13  and  C_31
    6  A    between atoms: N_17  and  C_29
    7  A    between atoms: O_21  and  N_43
    8  A    between atoms: C_22  and  C_46
    9  A    between atoms: C_25  and  N_26
   10  A    between atoms: N_26  and  C_42
   11  A    between atoms: C_28  and  C_33
   12  A    between atoms: C_28  and  C_40
   13  A    between atoms: C_31  and  C_44
   14  A    between atoms: C_34  and  C_46
                            x       y       z     vdW  Elec       q    Type
                         _______ _______ _______ _____ _____    ______ ____

>  <TORSDO>
F 14

$$$$
=
 OpenBabel11032420553D

 47 51  0  0  1  0  0  0  0  0999 V2000
  188.6510  178.4000  141.7990 C   0  0  0  0  0  3  0  0  0  0  0  0
  187.8320  178.1230  139.4960 C   0  0  0  0  0  0  0  0  0  0  0  0
  189.9190  177.6270  141.4600 C   0  0  0  0  0  0  0  0  0  0  0  0
  190.1020  177.1750  140.2300 C   0  0  0  0  0  3  0  0  0  0  0  0
  186.9680  178.3360  138.5800 N   0  0  0  0  0  0  0  0  0  0  0  0
  188.9790  177.1650  139.2850 C   0  0  2  0  0  3  0  0  0  0  0  0
  187.7500  178.6280  140.8860 C   0  0  0  0  0  3  0  0  0  0  0  0
  192.0220  176.8490  142.4260 O   0  0  0  0  0  0  0  0  0  0  0  0
  190.9010  177.4330  142.5560 C   0  0  0  0  0  0  0  0  0  0  0  0
  191.0060  179.0380  144.2870 O   0  0  0  0  0  0  0  0  0  0  0  0
  189.6710  177.2540  144.7620 N   0  0  0  0  0  2  0  0  0  0  0  0
  190.5180  177.9520  143.8880 C   0  0  0  0  0  0  0  0  0  0  0  0
  186.4670  178.0730  146.1640 C   0  0  0  0  0  3  0  0  0  0  0  0
  187.9930  178.0750  147.9730 C   0  0  0  0  0  3  0  0  0  0  0  0
  187.4660  177.6450  145.3190 C   0  0  0  0  0  3  0  0  0  0  0  0
  189.0190  177.6520  147.1280 C   0  0  0  0  0  3  0  0  0  0  0  0
  188.7290  177.4870  145.7860 C   0  0  0  0  0  0  0  0  0  0  0  0
  186.7100  178.3180  147.5150 C   0  0  0  0  0  3  0  0  0  0  0  0
  185.7160  178.8570  138.4250 O   0  0  0  0  0  0  0  0  0  0  0  0
  184.5460  178.2320  138.9560 C   0  0  0  0  0  2  0  0  0  0  0  0
  183.7300  179.2530  139.6900 C   0  0  0  0  0  2  0  0  0  0  0  0
  183.1370  178.3390  140.7740 C   0  0  0  0  0  2  0  0  0  0  0  0
  182.3790  178.8200  141.9150 C   0  0  1  0  0  3  0  0  0  0  0  0
  179.9470  177.7900  142.0540 O   0  0  0  0  0  1  0  0  0  0  0  0
  180.3360  179.7140  140.3890 O   0  0  0  0  0  0  0  0  0  0  0  0
  180.7780  179.0190  141.7610 P   0  0  0  0  0  0  0  0  0  0  0  0
  180.6390  180.1420  142.9480 O   0  0  0  0  0  1  0  0  0  0  0  0
  184.5960  178.2270  142.9100 C   0  0  0  0  0  1  0  0  0  0  0  0
  183.1610  178.9600  143.1860 C   0  0  0  0  0  2  0  0  0  0  0  0
  189.2090  176.3070  138.1090 C   0  0  0  0  0  2  0  0  0  0  0  0
  189.1640  176.2280  135.1780 C   0  0  0  0  0  2  0  0  0  0  0  0
  191.5900  176.3740  136.9510 C   0  0  0  0  0  2  0  0  0  0  0  0
  189.5150  177.4940  135.9940 C   0  0  0  0  0  2  0  0  0  0  0  0
  190.2170  177.0830  137.2700 C   0  0  1  0  0  3  0  0  0  0  0  0
  191.4360  175.4260  135.8660 C   0  0  1  0  0  3  0  0  0  0  0  0
  190.2380  175.1090  135.1360 C   0  0  0  0  0  2  0  0  0  0  0  0
  192.6140  175.1600  135.0560 N   0  0  0  0  0  2  0  0  0  0  0  0
  196.1980  172.1500  136.9960 C   0  0  2  0  0  3  0  0  0  0  0  0
  197.5940  172.4120  137.2370 C   0  0  0  0  0  2  0  0  0  0  0  0
  197.3140  174.8070  136.6200 C   0  0  0  0  0  2  0  0  0  0  0  0
  195.9220  174.5180  136.0970 C   0  0  0  0  0  0  0  0  0  0  0  0
  198.0670  173.6060  136.5660 O   0  0  0  0  0  0  0  0  0  0  0  0
  195.0580  175.4010  135.4920 C   0  0  0  0  0  3  0  0  0  0  0  0
  195.4300  173.2640  136.3940 C   0  0  0  0  0  0  0  0  0  0  0  0
  195.4960  171.1930  137.8860 C   0  0  0  0  0  1  0  0  0  0  0  0
  193.8410  173.2220  135.8900 S   0  0  0  0  0  0  0  0  0  0  0  0
  193.8060  174.7450  135.3410 C   0  0  0  0  0  0  0  0  0  0  0  0
  2  7  1  0  0  0  0
  3  1  1  0  0  0  0
  3  9  1  0  0  0  0
  4  3  2  0  0  0  0
  5  2  2  0  0  0  0
  6 30  1  6  0  0  0
  6  2  1  0  0  0  0
  6  4  1  0  0  0  0
  7  1  2  0  0  0  0
  8  9  2  0  0  0  0
  9 12  1  0  0  0  0
 11 17  1  0  0  0  0
 12 10  2  0  0  0  0
 12 11  1  0  0  0  0
 13 18  1  0  0  0  0
 15 17  1  0  0  0  0
 15 13  2  0  0  0  0
 16 14  1  0  0  0  0
 17 16  2  0  0  0  0
 18 14  2  0  0  0  0
 19  5  1  0  0  0  0
 19 20  1  0  0  0  0
 20 21  1  0  0  0  0
 21 22  1  0  0  0  0
 23 22  1  1  0  0  0
 23 29  1  0  0  0  0
 25 26  2  0  0  0  0
 26 23  1  0  0  0  0
 26 24  1  0  0  0  0
 26 27  1  0  0  0  0
 28 29  1  0  0  0  0
 31 33  1  0  0  0  0
 32 34  1  0  0  0  0
 33 34  1  0  0  0  0
 34 30  1  6  0  0  0
 35 37  1  6  0  0  0
 35 32  1  0  0  0  0
 36 31  1  0  0  0  0
 36 35  1  0  0  0  0
 37 47  1  0  0  0  0
 38 39  1  0  0  0  0
 38 45  1  1  0  0  0
 41 44  2  0  0  0  0
 41 40  1  0  0  0  0
 42 40  1  0  0  0  0
 42 39  1  0  0  0  0
 43 41  1  0  0  0  0
 44 38  1  0  0  0  0
 46 44  1  0  0  0  0
 47 43  2  0  0  0  0
 47 46  1  0  0  0  0
M  END
>  <MODEL>
3

>  <REMARK>
 VINA RESULT:      -7.8      2.948      5.719
  Name = 
  14 active torsions:
  status: ('A' for Active; 'I' for Inactive)
    1  A    between atoms: C_2  and  C_5
    2  A    between atoms: C_2  and  C_40
    3  A    between atoms: C_5  and  O_21
    4  A    between atoms: P_12  and  C_28
    5  A    between atoms: C_13  and  C_31
    6  A    between atoms: N_17  and  C_29
    7  A    between atoms: O_21  and  N_43
    8  A    between atoms: C_22  and  C_46
    9  A    between atoms: C_25  and  N_26
   10  A    between atoms: N_26  and  C_42
   11  A    between atoms: C_28  and  C_33
   12  A    between atoms: C_28  and  C_40
   13  A    between atoms: C_31  and  C_44
   14  A    between atoms: C_34  and  C_46
                            x       y       z     vdW  Elec       q    Type
                         _______ _______ _______ _____ _____    ______ ____

>  <TORSDO>
F 14

$$$$
=
 OpenBabel11032420553D

 47 51  0  0  1  0  0  0  0  0999 V2000
  188.6400  177.8640  141.4630 C   0  0  0  0  0  3  0  0  0  0  0  0
  188.8390  178.2200  139.0380 C   0  0  0  0  0  0  0  0  0  0  0  0
  190.0980  177.4310  141.5380 C   0  0  0  0  0  0  0  0  0  0  0  0
  190.8370  177.4270  140.4410 C   0  0  0  0  0  3  0  0  0  0  0  0
  188.3540  178.5870  137.9150 N   0  0  0  0  0  0  0  0  0  0  0  0
  190.1910  177.5560  139.1290 C   0  0  2  0  0  3  0  0  0  0  0  0
  188.1170  178.2390  140.3310 C   0  0  0  0  0  3  0  0  0  0  0  0
  191.5180  176.1700  143.0720 O   0  0  0  0  0  0  0  0  0  0  0  0
  190.6160  177.0430  142.8740 C   0  0  0  0  0  0  0  0  0  0  0  0
  190.4760  178.8290  144.4140 O   0  0  0  0  0  0  0  0  0  0  0  0
  188.9750  177.1600  144.7980 N   0  0  0  0  0  2  0  0  0  0  0  0
  190.0130  177.7230  144.0420 C   0  0  0  0  0  0  0  0  0  0  0  0
  185.6350  178.3160  145.4420 C   0  0  0  0  0  3  0  0  0  0  0  0
  186.7550  178.3550  147.5260 C   0  0  0  0  0  3  0  0  0  0  0  0
  186.7450  177.7510  144.8540 C   0  0  0  0  0  3  0  0  0  0  0  0
  187.8910  177.7930  146.9440 C   0  0  0  0  0  3  0  0  0  0  0  0
  187.8680  177.5420  145.5840 C   0  0  0  0  0  0  0  0  0  0  0  0
  185.6180  178.6510  146.7950 C   0  0  0  0  0  3  0  0  0  0  0  0
  187.1610  178.9440  137.3580 O   0  0  0  0  0  0  0  0  0  0  0  0
  186.4050  178.0680  136.5190 C   0  0  0  0  0  2  0  0  0  0  0  0
  185.7500  177.0170  137.3640 C   0  0  0  0  0  2  0  0  0  0  0  0
  184.5420  177.8330  137.8530 C   0  0  0  0  0  2  0  0  0  0  0  0
  183.8030  177.5390  139.0670 C   0  0  1  0  0  3  0  0  0  0  0  0
  184.6500  178.2290  141.4760 O   0  0  0  0  0  1  0  0  0  0  0  0
  182.3710  179.1440  140.7050 O   0  0  0  0  0  1  0  0  0  0  0  0
  183.8210  178.6220  140.2740 P   0  0  0  0  0  0  0  0  0  0  0  0
  184.5370  179.8170  139.4090 O   0  0  0  0  0  0  0  0  0  0  0  0
  182.0960  176.3890  137.6470 C   0  0  0  0  0  1  0  0  0  0  0  0
  182.9730  176.2920  139.0230 C   0  0  0  0  0  2  0  0  0  0  0  0
  191.0590  177.1600  138.0060 C   0  0  0  0  0  2  0  0  0  0  0  0
  192.6800  175.5670  136.1500 C   0  0  0  0  0  2  0  0  0  0  0  0
  190.2190  174.6760  137.6350 C   0  0  0  0  0  2  0  0  0  0  0  0
  192.6720  175.3510  137.6820 C   0  0  0  0  0  2  0  0  0  0  0  0
  191.2940  175.6690  138.2210 C   0  0  1  0  0  3  0  0  0  0  0  0
  190.4190  174.4880  136.2120 C   0  0  1  0  0  3  0  0  0  0  0  0
  191.4230  175.0900  135.3750 C   0  0  0  0  0  2  0  0  0  0  0  0
  189.9760  173.2230  135.6480 N   0  0  0  0  0  2  0  0  0  0  0  0
  185.0430  172.3740  136.4290 C   0  0  2  0  0  3  0  0  0  0  0  0
  184.2110  171.2860  135.9860 C   0  0  0  0  0  2  0  0  0  0  0  0
  186.1820  170.0710  135.0720 C   0  0  0  0  0  2  0  0  0  0  0  0
  187.0420  171.3020  135.2710 C   0  0  0  0  0  0  0  0  0  0  0  0
  184.8320  170.4880  134.9470 O   0  0  0  0  0  0  0  0  0  0  0  0
  188.3660  171.4590  134.9300 C   0  0  0  0  0  3  0  0  0  0  0  0
  186.4600  172.3160  136.0020 C   0  0  0  0  0  0  0  0  0  0  0  0
  184.7060  173.0440  137.7100 C   0  0  0  0  0  1  0  0  0  0  0  0
  187.6250  173.4810  136.2510 S   0  0  0  0  0  0  0  0  0  0  0  0
  188.8070  172.6970  135.4710 C   0  0  0  0  0  0  0  0  0  0  0  0
  1  3  1  0  0  0  0
  2  6  1  0  0  0  0
  2  7  1  0  0  0  0
  3  9  1  0  0  0  0
  4  3  2  0  0  0  0
  5  2  2  0  0  0  0
  6 30  1  6  0  0  0
  6  4  1  0  0  0  0
  7  1  2  0  0  0  0
  9  8  2  0  0  0  0
  9 12  1  0  0  0  0
 11 17  1  0  0  0  0
 12 10  2  0  0  0  0
 12 11  1  0  0  0  0
 13 18  1  0  0  0  0
 15 13  2  0  0  0  0
 15 17  1  0  0  0  0
 16 14  1  0  0  0  0
 17 16  2  0  0  0  0
 18 14  2  0  0  0  0
 19  5  1  0  0  0  0
 20 19  1  0  0  0  0
 20 21  1  0  0  0  0
 21 22  1  0  0  0  0
 23 22  1  6  0  0  0
 23 26  1  0  0  0  0
 26 25  1  0  0  0  0
 26 24  1  0  0  0  0
 27 26  2  0  0  0  0
 28 29  1  0  0  0  0
 29 23  1  0  0  0  0
 31 33  1  0  0  0  0
 32 34  1  0  0  0  0
 33 34  1  0  0  0  0
 34 30  1  6  0  0  0
 35 37  1  1  0  0  0
 35 32  1  0  0  0  0
 36 31  1  0  0  0  0
 36 35  1  0  0  0  0
 38 45  1  1  0  0  0
 39 38  1  0  0  0  0
 40 41  1  0  0  0  0
 41 44  2  0  0  0  0
 42 40  1  0  0  0  0
 42 39  1  0  0  0  0
 43 41  1  0  0  0  0
 43 47  2  0  0  0  0
 44 46  1  0  0  0  0
 44 38  1  0  0  0  0
 47 37  1  0  0  0  0
 47 46  1  0  0  0  0
M  END
>  <MODEL>
4

>  <REMARK>
 VINA RESULT:      -7.7      1.409      1.895
  Name = 
  14 active torsions:
  status: ('A' for Active; 'I' for Inactive)
    1  A    between atoms: C_2  and  C_5
    2  A    between atoms: C_2  and  C_40
    3  A    between atoms: C_5  and  O_21
    4  A    between atoms: P_12  and  C_28
    5  A    between atoms: C_13  and  C_31
    6  A    between atoms: N_17  and  C_29
    7  A    between atoms: O_21  and  N_43
    8  A    between atoms: C_22  and  C_46
    9  A    between atoms: C_25  and  N_26
   10  A    between atoms: N_26  and  C_42
   11  A    between atoms: C_28  and  C_33
   12  A    between atoms: C_28  and  C_40
   13  A    between atoms: C_31  and  C_44
   14  A    between atoms: C_34  and  C_46
                            x       y       z     vdW  Elec       q    Type
                         _______ _______ _______ _____ _____    ______ ____

>  <TORSDO>
F 14

$$$$
=
 OpenBabel11032420553D

 47 51  0  0  1  0  0  0  0  0999 V2000
  188.7380  177.8640  141.7360 C   0  0  0  0  0  3  0  0  0  0  0  0
  188.2860  178.2610  139.3520 C   0  0  0  0  0  0  0  0  0  0  0  0
  190.1870  177.5160  141.4220 C   0  0  0  0  0  0  0  0  0  0  0  0
  190.6170  177.5680  140.1720 C   0  0  0  0  0  3  0  0  0  0  0  0
  187.5080  178.6120  138.4010 N   0  0  0  0  0  0  0  0  0  0  0  0
  189.6490  177.6760  139.0740 C   0  0  2  0  0  3  0  0  0  0  0  0
  187.9220  178.2210  140.7870 C   0  0  0  0  0  3  0  0  0  0  0  0
  192.0050  176.3020  142.5100 O   0  0  0  0  0  0  0  0  0  0  0  0
  191.0530  177.1420  142.5680 C   0  0  0  0  0  0  0  0  0  0  0  0
  191.0690  178.9990  144.0280 O   0  0  0  0  0  0  0  0  0  0  0  0
  190.1880  177.1100  144.9480 N   0  0  0  0  0  2  0  0  0  0  0  0
  190.7570  177.7940  143.8630 C   0  0  0  0  0  0  0  0  0  0  0  0
  187.1570  177.9230  146.6960 C   0  0  0  0  0  3  0  0  0  0  0  0
  188.8720  177.9130  148.3270 C   0  0  0  0  0  3  0  0  0  0  0  0
  188.0570  177.5000  145.7440 C   0  0  0  0  0  3  0  0  0  0  0  0
  189.7990  177.4950  147.3730 C   0  0  0  0  0  3  0  0  0  0  0  0
  189.3640  177.3380  146.0690 C   0  0  0  0  0  0  0  0  0  0  0  0
  187.5470  178.1600  148.0140 C   0  0  0  0  0  3  0  0  0  0  0  0
  186.1940  178.9060  138.1800 O   0  0  0  0  0  0  0  0  0  0  0  0
  185.1270  178.2340  138.8520 C   0  0  0  0  0  2  0  0  0  0  0  0
  184.2370  179.2480  139.5040 C   0  0  0  0  0  2  0  0  0  0  0  0
  183.5260  178.3230  140.5060 C   0  0  0  0  0  2  0  0  0  0  0  0
  183.3760  178.6190  141.9180 C   0  0  1  0  0  3  0  0  0  0  0  0
  185.6540  179.9500  142.0990 O   0  0  0  0  0  0  0  0  0  0  0  0
  185.4570  177.7390  143.4020 O   0  0  0  0  0  1  0  0  0  0  0  0
  184.6940  179.0020  142.7810 P   0  0  0  0  0  0  0  0  0  0  0  0
  183.8820  179.7350  144.0020 O   0  0  0  0  0  1  0  0  0  0  0  0
  181.0440  179.0060  141.1040 C   0  0  0  0  0  1  0  0  0  0  0  0
  181.9610  178.6670  142.4120 C   0  0  0  0  0  2  0  0  0  0  0  0
  190.2170  177.3450  137.7550 C   0  0  0  0  0  2  0  0  0  0  0  0
  190.7670  175.8190  135.3110 C   0  0  0  0  0  2  0  0  0  0  0  0
  188.9970  175.0000  137.6020 C   0  0  0  0  0  2  0  0  0  0  0  0
  191.3340  175.4430  136.7000 C   0  0  0  0  0  2  0  0  0  0  0  0
  190.3310  175.8250  137.7660 C   0  0  1  0  0  3  0  0  0  0  0  0
  188.5970  174.9470  136.2100 C   0  0  1  0  0  3  0  0  0  0  0  0
  189.2580  175.5410  135.0790 C   0  0  0  0  0  2  0  0  0  0  0  0
  187.8150  173.7930  135.7960 N   0  0  0  0  0  2  0  0  0  0  0  0
  182.9490  174.3430  137.0970 C   0  0  2  0  0  3  0  0  0  0  0  0
  181.9080  173.3570  137.2190 C   0  0  0  0  0  2  0  0  0  0  0  0
  183.5310  171.5080  136.8440 C   0  0  0  0  0  2  0  0  0  0  0  0
  184.5930  172.5100  136.4390 C   0  0  0  0  0  0  0  0  0  0  0  0
  182.2590  172.0890  136.6100 O   0  0  0  0  0  0  0  0  0  0  0  0
  185.8700  172.2450  136.0030 C   0  0  0  0  0  3  0  0  0  0  0  0
  184.2740  173.8320  136.6750 C   0  0  0  0  0  0  0  0  0  0  0  0
  182.8880  175.5440  137.9660 C   0  0  0  0  0  1  0  0  0  0  0  0
  185.6290  174.7390  136.3310 S   0  0  0  0  0  0  0  0  0  0  0  0
  186.5640  173.4820  135.9230 C   0  0  0  0  0  0  0  0  0  0  0  0
  2  7  1  0  0  0  0
  3  1  1  0  0  0  0
  3  9  1  0  0  0  0
  4  3  2  0  0  0  0
  5  2  2  0  0  0  0
  6 30  1  6  0  0  0
  6  2  1  0  0  0  0
  6  4  1  0  0  0  0
  7  1  2  0  0  0  0
  8  9  2  0  0  0  0
  9 12  1  0  0  0  0
 11 17  1  0  0  0  0
 12 10  2  0  0  0  0
 12 11  1  0  0  0  0
 13 18  1  0  0  0  0
 15 17  1  0  0  0  0
 15 13  2  0  0  0  0
 16 14  1  0  0  0  0
 17 16  2  0  0  0  0
 18 14  2  0  0  0  0
 19  5  1  0  0  0  0
 19 20  1  0  0  0  0
 20 21  1  0  0  0  0
 21 22  1  0  0  0  0
 23 22  1  6  0  0  0
 23 29  1  0  0  0  0
 23 26  1  0  0  0  0
 24 26  2  0  0  0  0
 26 25  1  0  0  0  0
 26 27  1  0  0  0  0
 28 29  1  0  0  0  0
 31 33  1  0  0  0  0
 32 34  1  0  0  0  0
 33 34  1  0  0  0  0
 34 30  1  6  0  0  0
 35 37  1  6  0  0  0
 35 32  1  0  0  0  0
 36 31  1  0  0  0  0
 36 35  1  0  0  0  0
 37 47  1  0  0  0  0
 38 39  1  0  0  0  0
 38 45  1  1  0  0  0
 41 44  2  0  0  0  0
 41 40  1  0  0  0  0
 42 40  1  0  0  0  0
 42 39  1  0  0  0  0
 43 41  1  0  0  0  0
 44 38  1  0  0  0  0
 46 44  1  0  0  0  0
 47 43  2  0  0  0  0
 47 46  1  0  0  0  0
M  END
>  <MODEL>
5

>  <REMARK>
 VINA RESULT:      -7.6      1.755      2.158
  Name = 
  14 active torsions:
  status: ('A' for Active; 'I' for Inactive)
    1  A    between atoms: C_2  and  C_5
    2  A    between atoms: C_2  and  C_40
    3  A    between atoms: C_5  and  O_21
    4  A    between atoms: P_12  and  C_28
    5  A    between atoms: C_13  and  C_31
    6  A    between atoms: N_17  and  C_29
    7  A    between atoms: O_21  and  N_43
    8  A    between atoms: C_22  and  C_46
    9  A    between atoms: C_25  and  N_26
   10  A    between atoms: N_26  and  C_42
   11  A    between atoms: C_28  and  C_33
   12  A    between atoms: C_28  and  C_40
   13  A    between atoms: C_31  and  C_44
   14  A    between atoms: C_34  and  C_46
                            x       y       z     vdW  Elec       q    Type
                         _______ _______ _______ _____ _____    ______ ____

>  <TORSDO>
F 14

$$$$
=
 OpenBabel11032420553D

 47 51  0  0  1  0  0  0  0  0999 V2000
  188.7780  178.0000  141.6110 C   0  0  0  0  0  3  0  0  0  0  0  0
  188.4460  178.2010  139.1830 C   0  0  0  0  0  0  0  0  0  0  0  0
  190.2160  177.5500  141.3960 C   0  0  0  0  0  0  0  0  0  0  0  0
  190.6990  177.4650  140.1680 C   0  0  0  0  0  3  0  0  0  0  0  0
  187.7290  178.5050  138.1700 N   0  0  0  0  0  0  0  0  0  0  0  0
  189.7850  177.5230  139.0220 C   0  0  2  0  0  3  0  0  0  0  0  0
  188.0220  178.3120  140.5980 C   0  0  0  0  0  3  0  0  0  0  0  0
  191.9650  176.3980  142.6520 O   0  0  0  0  0  0  0  0  0  0  0  0
  191.0120  177.2370  142.6100 C   0  0  0  0  0  0  0  0  0  0  0  0
  191.0640  179.1210  144.0350 O   0  0  0  0  0  0  0  0  0  0  0  0
  189.8710  177.3670  144.8670 N   0  0  0  0  0  2  0  0  0  0  0  0
  190.6390  177.9540  143.8500 C   0  0  0  0  0  0  0  0  0  0  0  0
  188.6860  177.8360  148.2260 C   0  0  0  0  0  3  0  0  0  0  0  0
  186.7960  178.0840  146.8230 C   0  0  0  0  0  3  0  0  0  0  0  0
  189.4940  177.7100  147.1180 C   0  0  0  0  0  3  0  0  0  0  0  0
  187.5990  177.9480  145.6910 C   0  0  0  0  0  3  0  0  0  0  0  0
  188.9500  177.7160  145.8760 C   0  0  0  0  0  0  0  0  0  0  0  0
  187.3070  178.0070  148.1070 C   0  0  0  0  0  3  0  0  0  0  0  0
  186.4440  178.8450  137.8640 O   0  0  0  0  0  0  0  0  0  0  0  0
  185.3120  178.2110  138.4610 C   0  0  0  0  0  2  0  0  0  0  0  0
  184.5670  179.2090  139.2930 C   0  0  0  0  0  2  0  0  0  0  0  0
  184.2060  178.3010  140.4790 C   0  0  0  0  0  2  0  0  0  0  0  0
  183.1340  178.5770  141.4170 C   0  0  1  0  0  3  0  0  0  0  0  0
  181.1700  179.6650  140.0200 O   0  0  0  0  0  0  0  0  0  0  0  0
  180.5300  178.2110  142.0450 O   0  0  0  0  0  1  0  0  0  0  0  0
  181.6010  178.5090  140.8940 P   0  0  0  0  0  0  0  0  0  0  0  0
  181.7870  177.1290  140.0260 O   0  0  0  0  0  1  0  0  0  0  0  0
  185.1170  178.2650  142.9080 C   0  0  0  0  0  1  0  0  0  0  0  0
  183.5660  178.7730  142.8390 C   0  0  0  0  0  2  0  0  0  0  0  0
  190.3870  177.0430  137.7650 C   0  0  0  0  0  2  0  0  0  0  0  0
  192.8110  176.4350  136.2290 C   0  0  0  0  0  2  0  0  0  0  0  0
  191.0780  174.4870  137.7310 C   0  0  0  0  0  2  0  0  0  0  0  0
  192.7480  176.4070  137.7750 C   0  0  0  0  0  2  0  0  0  0  0  0
  191.3670  175.9630  138.2070 C   0  0  1  0  0  3  0  0  0  0  0  0
  191.5090  174.2990  136.3600 C   0  0  1  0  0  3  0  0  0  0  0  0
  192.1130  175.2660  135.4850 C   0  0  0  0  0  2  0  0  0  0  0  0
  191.8920  172.9500  135.9730 N   0  0  0  0  0  2  0  0  0  0  0  0
  196.6970  171.9910  137.2590 C   0  0  2  0  0  3  0  0  0  0  0  0
  197.5730  170.9290  136.8350 C   0  0  0  0  0  2  0  0  0  0  0  0
  195.9020  170.1310  135.1720 C   0  0  0  0  0  2  0  0  0  0  0  0
  194.8550  171.0480  135.7720 C   0  0  0  0  0  0  0  0  0  0  0  0
  196.8700  169.8500  136.1700 O   0  0  0  0  0  0  0  0  0  0  0  0
  193.5340  171.1620  135.4040 C   0  0  0  0  0  3  0  0  0  0  0  0
  195.3300  171.9620  136.6900 C   0  0  0  0  0  0  0  0  0  0  0  0
  197.2970  173.2990  137.6190 C   0  0  0  0  0  1  0  0  0  0  0  0
  194.0650  172.9740  137.0820 S   0  0  0  0  0  0  0  0  0  0  0  0
  192.9860  172.2710  136.1030 C   0  0  0  0  0  0  0  0  0  0  0  0
  2  7  1  0  0  0  0
  3  1  1  0  0  0  0
  3  9  1  0  0  0  0
  4  3  2  0  0  0  0
  5  2  2  0  0  0  0
  6 30  1  6  0  0  0
  6  2  1  0  0  0  0
  6  4  1  0  0  0  0
  7  1  2  0  0  0  0
  9  8  2  0  0  0  0
  9 12  1  0  0  0  0
 11 17  1  0  0  0  0
 12 10  2  0  0  0  0
 12 11  1  0  0  0  0
 14 18  2  0  0  0  0
 15 13  2  0  0  0  0
 16 17  2  0  0  0  0
 16 14  1  0  0  0  0
 17 15  1  0  0  0  0
 18 13  1  0  0  0  0
 19  5  1  0  0  0  0
 19 20  1  0  0  0  0
 20 21  1  0  0  0  0
 21 22  1  0  0  0  0
 23 22  1  1  0  0  0
 23 29  1  0  0  0  0
 24 26  2  0  0  0  0
 26 23  1  0  0  0  0
 26 25  1  0  0  0  0
 27 26  1  0  0  0  0
 29 28  1  0  0  0  0
 31 33  1  0  0  0  0
 32 34  1  0  0  0  0
 33 34  1  0  0  0  0
 34 30  1  6  0  0  0
 35 37  1  1  0  0  0
 35 32  1  0  0  0  0
 36 31  1  0  0  0  0
 36 35  1  0  0  0  0
 37 47  1  0  0  0  0
 38 45  1  6  0  0  0
 39 38  1  0  0  0  0
 40 41  1  0  0  0  0
 40 42  1  0  0  0  0
 41 44  2  0  0  0  0
 42 39  1  0  0  0  0
 43 41  1  0  0  0  0
 43 47  2  0  0  0  0
 44 46  1  0  0  0  0
 44 38  1  0  0  0  0
 47 46  1  0  0  0  0
M  END
>  <MODEL>
6

>  <REMARK>
 VINA RESULT:      -7.1      3.120      5.549
  Name = 
  14 active torsions:
  status: ('A' for Active; 'I' for Inactive)
    1  A    between atoms: C_2  and  C_5
    2  A    between atoms: C_2  and  C_40
    3  A    between atoms: C_5  and  O_21
    4  A    between atoms: P_12  and  C_28
    5  A    between atoms: C_13  and  C_31
    6  A    between atoms: N_17  and  C_29
    7  A    between atoms: O_21  and  N_43
    8  A    between atoms: C_22  and  C_46
    9  A    between atoms: C_25  and  N_26
   10  A    between atoms: N_26  and  C_42
   11  A    between atoms: C_28  and  C_33
   12  A    between atoms: C_28  and  C_40
   13  A    between atoms: C_31  and  C_44
   14  A    between atoms: C_34  and  C_46
                            x       y       z     vdW  Elec       q    Type
                         _______ _______ _______ _____ _____    ______ ____

>  <TORSDO>
F 14

$$$$
=
 OpenBabel11032420553D

 47 51  0  0  1  0  0  0  0  0999 V2000
  190.7330  177.5070  141.3470 C   0  0  0  0  0  3  0  0  0  0  0  0
  188.5040  177.8340  140.3610 C   0  0  0  0  0  0  0  0  0  0  0  0
  190.1090  176.9310  142.6110 C   0  0  0  0  0  0  0  0  0  0  0  0
  188.7940  176.8130  142.6980 C   0  0  0  0  0  3  0  0  0  0  0  0
  187.7460  178.1830  139.3940 N   0  0  0  0  0  0  0  0  0  0  0  0
  187.9380  177.4890  141.7170 C   0  0  2  0  0  3  0  0  0  0  0  0
  189.9840  177.8750  140.3470 C   0  0  0  0  0  3  0  0  0  0  0  0
  192.0790  175.8080  143.5160 O   0  0  0  0  0  0  0  0  0  0  0  0
  191.0390  176.5160  143.6920 C   0  0  0  0  0  0  0  0  0  0  0  0
  191.5890  177.4920  145.7720 O   0  0  0  0  0  0  0  0  0  0  0  0
  189.4380  176.7570  145.6380 N   0  0  0  0  0  2  0  0  0  0  0  0
  190.7010  176.9590  145.0630 C   0  0  0  0  0  0  0  0  0  0  0  0
  186.5050  178.4890  146.7810 C   0  0  0  0  0  3  0  0  0  0  0  0
  187.9580  178.3590  148.6450 C   0  0  0  0  0  3  0  0  0  0  0  0
  187.3840  177.7310  146.0400 C   0  0  0  0  0  3  0  0  0  0  0  0
  188.8640  177.5990  147.9060 C   0  0  0  0  0  3  0  0  0  0  0  0
  188.5640  177.3380  146.5810 C   0  0  0  0  0  0  0  0  0  0  0  0
  186.7790  178.8400  148.1020 C   0  0  0  0  0  3  0  0  0  0  0  0
  187.8190  178.7980  138.1780 O   0  0  0  0  0  0  0  0  0  0  0  0
  187.3790  178.1760  136.9690 C   0  0  0  0  0  2  0  0  0  0  0  0
  185.9590  177.7260  137.1320 C   0  0  0  0  0  2  0  0  0  0  0  0
  186.0900  176.3190  136.5260 C   0  0  0  0  0  2  0  0  0  0  0  0
  185.2690  175.1870  136.9140 C   0  0  1  0  0  3  0  0  0  0  0  0
  185.2850  172.7430  137.9230 O   0  0  0  0  0  1  0  0  0  0  0  0
  187.5350  173.7350  137.1630 O   0  0  0  0  0  1  0  0  0  0  0  0
  185.9460  173.7160  136.9730 P   0  0  0  0  0  0  0  0  0  0  0  0
  185.6430  173.3350  135.4070 O   0  0  0  0  0  0  0  0  0  0  0  0
  182.9880  175.6260  135.9910 C   0  0  0  0  0  1  0  0  0  0  0  0
  183.8790  175.5310  137.3570 C   0  0  0  0  0  2  0  0  0  0  0  0
  186.5300  177.5930  142.1390 C   0  0  0  0  0  2  0  0  0  0  0  0
  184.4270  179.1310  143.4880 C   0  0  0  0  0  2  0  0  0  0  0  0
  184.9600  178.9930  140.5290 C   0  0  0  0  0  2  0  0  0  0  0  0
  185.6780  179.7740  142.8420 C   0  0  0  0  0  2  0  0  0  0  0  0
  186.0860  178.9610  141.6340 C   0  0  1  0  0  3  0  0  0  0  0  0
  183.6540  178.8050  141.1270 C   0  0  1  0  0  3  0  0  0  0  0  0
  183.3390  178.6020  142.5160 C   0  0  0  0  0  2  0  0  0  0  0  0
  182.5220  179.3930  140.4280 N   0  0  0  0  0  2  0  0  0  0  0  0
  180.6510  181.5540  136.2460 C   0  0  2  0  0  3  0  0  0  0  0  0
  180.3650  180.9790  134.9570 C   0  0  0  0  0  2  0  0  0  0  0  0
  180.8690  178.6910  135.7980 C   0  0  0  0  0  2  0  0  0  0  0  0
  181.4380  179.2770  137.0740 C   0  0  0  0  0  0  0  0  0  0  0  0
  180.9650  179.6720  134.7770 O   0  0  0  0  0  0  0  0  0  0  0  0
  182.0190  178.5970  138.1190 C   0  0  0  0  0  3  0  0  0  0  0  0
  181.2140  180.6270  137.2530 C   0  0  0  0  0  0  0  0  0  0  0  0
  179.8260  182.6990  136.7060 C   0  0  0  0  0  1  0  0  0  0  0  0
  181.7560  181.0210  138.7790 S   0  0  0  0  0  0  0  0  0  0  0  0
  182.2300  179.5250  139.1740 C   0  0  0  0  0  0  0  0  0  0  0  0
  1  3  1  0  0  0  0
  2  6  1  0  0  0  0
  3  4  2  0  0  0  0
  3  9  1  0  0  0  0
  5  2  2  0  0  0  0
  6 30  1  6  0  0  0
  6  4  1  0  0  0  0
  7  2  1  0  0  0  0
  7  1  2  0  0  0  0
  8  9  2  0  0  0  0
  9 12  1  0  0  0  0
 11 17  1  0  0  0  0
 12 11  1  0  0  0  0
 12 10  2  0  0  0  0
 13 18  1  0  0  0  0
 15 17  1  0  0  0  0
 15 13  2  0  0  0  0
 16 14  1  0  0  0  0
 17 16  2  0  0  0  0
 18 14  2  0  0  0  0
 19  5  1  0  0  0  0
 20 21  1  0  0  0  0
 20 19  1  0  0  0  0
 22 21  1  0  0  0  0
 23 22  1  1  0  0  0
 23 26  1  0  0  0  0
 23 29  1  0  0  0  0
 26 25  1  0  0  0  0
 26 24  1  0  0  0  0
 27 26  2  0  0  0  0
 28 29  1  0  0  0  0
 32 35  1  0  0  0  0
 32 34  1  0  0  0  0
 33 31  1  0  0  0  0
 34 30  1  1  0  0  0
 34 33  1  0  0  0  0
 35 37  1  1  0  0  0
 35 36  1  0  0  0  0
 36 31  1  0  0  0  0
 38 45  1  1  0  0  0
 38 44  1  0  0  0  0
 39 38  1  0  0  0  0
 40 41  1  0  0  0  0
 41 44  2  0  0  0  0
 41 43  1  0  0  0  0
 42 39  1  0  0  0  0
 42 40  1  0  0  0  0
 43 47  2  0  0  0  0
 44 46  1  0  0  0  0
 46 47  1  0  0  0  0
 47 37  1  0  0  0  0
M  END
>  <MODEL>
7

>  <REMARK>
 VINA RESULT:      -6.9      2.991      5.788
  Name = 
  14 active torsions:
  status: ('A' for Active; 'I' for Inactive)
    1  A    between atoms: C_2  and  C_5
    2  A    between atoms: C_2  and  C_40
    3  A    between atoms: C_5  and  O_21
    4  A    between atoms: P_12  and  C_28
    5  A    between atoms: C_13  and  C_31
    6  A    between atoms: N_17  and  C_29
    7  A    between atoms: O_21  and  N_43
    8  A    between atoms: C_22  and  C_46
    9  A    between atoms: C_25  and  N_26
   10  A    between atoms: N_26  and  C_42
   11  A    between atoms: C_28  and  C_33
   12  A    between atoms: C_28  and  C_40
   13  A    between atoms: C_31  and  C_44
   14  A    between atoms: C_34  and  C_46
                            x       y       z     vdW  Elec       q    Type
                         _______ _______ _______ _____ _____    ______ ____

>  <TORSDO>
F 14

$$$$
=
 OpenBabel11032420553D

 47 51  0  0  1  0  0  0  0  0999 V2000
  191.1640  177.0940  140.6000 C   0  0  0  0  0  3  0  0  0  0  0  0
  190.6270  176.6840  138.2360 C   0  0  0  0  0  0  0  0  0  0  0  0
  189.7190  177.4820  140.8800 C   0  0  0  0  0  0  0  0  0  0  0  0
  188.8280  177.4410  139.9030 C   0  0  0  0  0  3  0  0  0  0  0  0
  190.9570  176.3110  137.0590 N   0  0  0  0  0  0  0  0  0  0  0  0
  189.2810  177.3060  138.5130 C   0  0  2  0  0  3  0  0  0  0  0  0
  191.5300  176.7140  139.4090 C   0  0  0  0  0  3  0  0  0  0  0  0
  190.1190  178.6140  143.0060 O   0  0  0  0  0  0  0  0  0  0  0  0
  189.3870  177.8800  142.2710 C   0  0  0  0  0  0  0  0  0  0  0  0
  188.0610  176.1720  143.2230 O   0  0  0  0  0  0  0  0  0  0  0  0
  186.9380  178.1220  142.8710 N   0  0  0  0  0  2  0  0  0  0  0  0
  188.1160  177.3610  142.8240 C   0  0  0  0  0  0  0  0  0  0  0  0
  183.4710  178.8380  143.4760 C   0  0  0  0  0  3  0  0  0  0  0  0
  184.4780  178.6320  145.6070 C   0  0  0  0  0  3  0  0  0  0  0  0
  184.6590  178.4860  142.8770 C   0  0  0  0  0  3  0  0  0  0  0  0
  185.6930  178.2830  145.0170 C   0  0  0  0  0  3  0  0  0  0  0  0
  185.7610  178.2620  143.6350 C   0  0  0  0  0  0  0  0  0  0  0  0
  183.3540  178.9390  144.8620 C   0  0  0  0  0  3  0  0  0  0  0  0
  192.0680  175.9810  136.3400 O   0  0  0  0  0  0  0  0  0  0  0  0
  192.1490  174.8020  135.5370 C   0  0  0  0  0  2  0  0  0  0  0  0
  193.0040  173.7870  136.2340 C   0  0  0  0  0  2  0  0  0  0  0  0
  193.8540  174.7440  137.0850 C   0  0  0  0  0  2  0  0  0  0  0  0
  195.3050  174.7330  137.1150 C   0  0  1  0  0  3  0  0  0  0  0  0
  197.5580  173.9550  138.2580 O   0  0  0  0  0  0  0  0  0  0  0  0
  195.4120  172.6650  138.8520 O   0  0  0  0  0  1  0  0  0  0  0  0
  196.0550  174.0530  138.3810 P   0  0  0  0  0  0  0  0  0  0  0  0
  195.6080  175.1970  139.4680 O   0  0  0  0  0  1  0  0  0  0  0  0
  196.4210  173.9300  135.0270 C   0  0  0  0  0  1  0  0  0  0  0  0
  195.9710  175.2510  135.8760 C   0  0  0  0  0  2  0  0  0  0  0  0
  188.2460  177.6520  137.5220 C   0  0  0  0  0  2  0  0  0  0  0  0
  186.8840  176.0460  135.4800 C   0  0  0  0  0  2  0  0  0  0  0  0
  185.6340  177.3800  137.8710 C   0  0  0  0  0  2  0  0  0  0  0  0
  187.1370  175.5570  136.9250 C   0  0  0  0  0  2  0  0  0  0  0  0
  187.0760  176.7390  137.8680 C   0  0  1  0  0  3  0  0  0  0  0  0
  185.1260  177.4980  136.5190 C   0  0  1  0  0  3  0  0  0  0  0  0
  185.7780  177.1190  135.2940 C   0  0  0  0  0  2  0  0  0  0  0  0
  183.6810  177.4710  136.3570 N   0  0  0  0  0  2  0  0  0  0  0  0
  180.3700  178.1100  140.1380 C   0  0  2  0  0  3  0  0  0  0  0  0
  179.5560  177.1420  140.8280 C   0  0  0  0  0  2  0  0  0  0  0  0
  180.6680  175.2640  139.6310 C   0  0  0  0  0  2  0  0  0  0  0  0
  181.3410  176.2470  138.6950 C   0  0  0  0  0  0  0  0  0  0  0  0
  179.4890  175.8690  140.1380 O   0  0  0  0  0  0  0  0  0  0  0  0
  182.1560  175.9590  137.6250 C   0  0  0  0  0  3  0  0  0  0  0  0
  181.2270  177.5750  139.0560 C   0  0  0  0  0  0  0  0  0  0  0  0
  180.8210  179.3110  140.8830 C   0  0  0  0  0  1  0  0  0  0  0  0
  182.1770  178.4560  138.0080 S   0  0  0  0  0  0  0  0  0  0  0  0
  182.7080  177.1830  137.1610 C   0  0  0  0  0  0  0  0  0  0  0  0
  1  3  1  0  0  0  0
  2  6  1  0  0  0  0
  2  7  1  0  0  0  0
  3  9  1  0  0  0  0
  4  3  2  0  0  0  0
  5  2  2  0  0  0  0
  6 30  1  6  0  0  0
  6  4  1  0  0  0  0
  7  1  2  0  0  0  0
  9 12  1  0  0  0  0
  9  8  2  0  0  0  0
 11 17  1  0  0  0  0
 12 11  1  0  0  0  0
 12 10  2  0  0  0  0
 13 18  1  0  0  0  0
 15 13  2  0  0  0  0
 15 17  1  0  0  0  0
 16 14  1  0  0  0  0
 17 16  2  0  0  0  0
 18 14  2  0  0  0  0
 19  5  1  0  0  0  0
 20 21  1  0  0  0  0
 20 19  1  0  0  0  0
 21 22  1  0  0  0  0
 22 23  1  0  0  0  0
 23 29  1  6  0  0  0
 23 26  1  0  0  0  0
 24 26  2  0  0  0  0
 26 25  1  0  0  0  0
 26 27  1  0  0  0  0
 28 29  1  0  0  0  0
 31 33  1  0  0  0  0
 33 34  1  0  0  0  0
 34 30  1  6  0  0  0
 34 32  1  0  0  0  0
 35 37  1  1  0  0  0
 35 32  1  0  0  0  0
 36 31  1  0  0  0  0
 36 35  1  0  0  0  0
 37 47  1  0  0  0  0
 38 39  1  0  0  0  0
 38 45  1  1  0  0  0
 40 42  1  0  0  0  0
 41 44  2  0  0  0  0
 41 40  1  0  0  0  0
 42 39  1  0  0  0  0
 43 41  1  0  0  0  0
 44 38  1  0  0  0  0
 46 44  1  0  0  0  0
 47 43  2  0  0  0  0
 47 46  1  0  0  0  0
M  END
>  <MODEL>
8

>  <REMARK>
 VINA RESULT:      -6.9      3.839      6.974
  Name = 
  14 active torsions:
  status: ('A' for Active; 'I' for Inactive)
    1  A    between atoms: C_2  and  C_5
    2  A    between atoms: C_2  and  C_40
    3  A    between atoms: C_5  and  O_21
    4  A    between atoms: P_12  and  C_28
    5  A    between atoms: C_13  and  C_31
    6  A    between atoms: N_17  and  C_29
    7  A    between atoms: O_21  and  N_43
    8  A    between atoms: C_22  and  C_46
    9  A    between atoms: C_25  and  N_26
   10  A    between atoms: N_26  and  C_42
   11  A    between atoms: C_28  and  C_33
   12  A    between atoms: C_28  and  C_40
   13  A    between atoms: C_31  and  C_44
   14  A    between atoms: C_34  and  C_46
                            x       y       z     vdW  Elec       q    Type
                         _______ _______ _______ _____ _____    ______ ____

>  <TORSDO>
F 14

$$$$
=
 OpenBabel11032420553D

 47 51  0  0  1  0  0  0  0  0999 V2000
  190.2310  177.9330  140.7060 C   0  0  0  0  0  3  0  0  0  0  0  0
  187.8130  177.9690  140.2580 C   0  0  0  0  0  0  0  0  0  0  0  0
  189.9810  177.3940  142.1090 C   0  0  0  0  0  0  0  0  0  0  0  0
  188.7420  177.1550  142.5080 C   0  0  0  0  0  3  0  0  0  0  0  0
  186.8200  178.1700  139.4800 N   0  0  0  0  0  0  0  0  0  0  0  0
  187.6140  177.6710  141.7240 C   0  0  2  0  0  3  0  0  0  0  0  0
  189.2370  178.1520  139.8940 C   0  0  0  0  0  3  0  0  0  0  0  0
  192.3030  176.7650  142.5250 O   0  0  0  0  0  0  0  0  0  0  0  0
  191.1740  177.1530  142.9590 C   0  0  0  0  0  0  0  0  0  0  0  0
  191.9180  177.9460  145.0560 O   0  0  0  0  0  0  0  0  0  0  0  0
  189.8900  176.9100  145.1280 N   0  0  0  0  0  2  0  0  0  0  0  0
  191.0060  177.3710  144.4130 C   0  0  0  0  0  0  0  0  0  0  0  0
  186.9810  178.0320  146.9110 C   0  0  0  0  0  3  0  0  0  0  0  0
  188.7170  177.8880  148.5140 C   0  0  0  0  0  3  0  0  0  0  0  0
  187.8200  177.5110  145.9520 C   0  0  0  0  0  3  0  0  0  0  0  0
  189.5830  177.3690  147.5520 C   0  0  0  0  0  3  0  0  0  0  0  0
  189.1110  177.2330  146.2590 C   0  0  0  0  0  0  0  0  0  0  0  0
  187.4150  178.2530  148.2180 C   0  0  0  0  0  3  0  0  0  0  0  0
  186.5430  178.6980  138.2530 O   0  0  0  0  0  0  0  0  0  0  0  0
  187.2450  178.3140  137.0690 C   0  0  0  0  0  2  0  0  0  0  0  0
  187.0620  176.8440  136.8400 C   0  0  0  0  0  2  0  0  0  0  0  0
  185.5770  176.8540  136.4410 C   0  0  0  0  0  2  0  0  0  0  0  0
  184.6090  175.8720  136.8900 C   0  0  1  0  0  3  0  0  0  0  0  0
  185.4960  174.2160  135.0290 O   0  0  0  0  0  0  0  0  0  0  0  0
  183.2850  173.6180  136.2020 O   0  0  0  0  0  1  0  0  0  0  0  0
  184.6980  174.3630  136.3040 P   0  0  0  0  0  0  0  0  0  0  0  0
  185.4930  173.7350  137.5930 O   0  0  0  0  0  1  0  0  0  0  0  0
  183.3100  177.8840  137.6080 C   0  0  0  0  0  1  0  0  0  0  0  0
  183.6850  176.3370  137.9750 C   0  0  0  0  0  2  0  0  0  0  0  0
  186.3370  177.6680  142.4600 C   0  0  0  0  0  2  0  0  0  0  0  0
  184.7470  179.3680  144.2440 C   0  0  0  0  0  2  0  0  0  0  0  0
  184.1550  178.7000  141.3700 C   0  0  0  0  0  2  0  0  0  0  0  0
  185.6000  179.9160  143.0760 C   0  0  0  0  0  2  0  0  0  0  0  0
  185.6080  178.9050  141.9500 C   0  0  1  0  0  3  0  0  0  0  0  0
  183.1880  178.5880  142.4440 C   0  0  1  0  0  3  0  0  0  0  0  0
  183.4330  178.6370  143.8610 C   0  0  0  0  0  2  0  0  0  0  0  0
  181.8270  179.0050  142.1460 N   0  0  0  0  0  2  0  0  0  0  0  0
  179.4650  177.1580  138.0620 C   0  0  2  0  0  3  0  0  0  0  0  0
  178.9840  177.8360  136.8870 C   0  0  0  0  0  2  0  0  0  0  0  0
  180.0250  179.9750  137.6210 C   0  0  0  0  0  2  0  0  0  0  0  0
  180.3100  179.3780  138.9840 C   0  0  0  0  0  0  0  0  0  0  0  0
  178.9310  179.2760  137.0500 O   0  0  0  0  0  0  0  0  0  0  0  0
  180.8760  180.0060  140.0690 C   0  0  0  0  0  3  0  0  0  0  0  0
  180.1030  178.0170  139.0860 C   0  0  0  0  0  0  0  0  0  0  0  0
  179.9100  175.7490  137.9300 C   0  0  0  0  0  1  0  0  0  0  0  0
  180.6420  177.5450  140.5910 S   0  0  0  0  0  0  0  0  0  0  0  0
  181.1250  179.0170  141.0590 C   0  0  0  0  0  0  0  0  0  0  0  0
  1  3  1  0  0  0  0
  2  6  1  0  0  0  0
  3  4  2  0  0  0  0
  3  9  1  0  0  0  0
  5  2  2  0  0  0  0
  6 30  1  6  0  0  0
  6  4  1  0  0  0  0
  7  2  1  0  0  0  0
  7  1  2  0  0  0  0
  8  9  2  0  0  0  0
  9 12  1  0  0  0  0
 11 17  1  0  0  0  0
 12 10  2  0  0  0  0
 12 11  1  0  0  0  0
 13 18  1  0  0  0  0
 15 17  1  0  0  0  0
 15 13  2  0  0  0  0
 16 14  1  0  0  0  0
 17 16  2  0  0  0  0
 18 14  2  0  0  0  0
 19  5  1  0  0  0  0
 20 19  1  0  0  0  0
 21 20  1  0  0  0  0
 22 21  1  0  0  0  0
 23 22  1  1  0  0  0
 23 29  1  0  0  0  0
 24 26  2  0  0  0  0
 25 26  1  0  0  0  0
 26 23  1  0  0  0  0
 26 27  1  0  0  0  0
 28 29  1  0  0  0  0
 32 34  1  0  0  0  0
 32 35  1  0  0  0  0
 33 31  1  0  0  0  0
 34 30  1  1  0  0  0
 34 33  1  0  0  0  0
 35 37  1  6  0  0  0
 35 36  1  0  0  0  0
 36 31  1  0  0  0  0
 38 45  1  6  0  0  0
 38 44  1  0  0  0  0
 39 42  1  0  0  0  0
 39 38  1  0  0  0  0
 40 41  1  0  0  0  0
 41 44  2  0  0  0  0
 41 43  1  0  0  0  0
 42 40  1  0  0  0  0
 43 47  2  0  0  0  0
 44 46  1  0  0  0  0
 46 47  1  0  0  0  0
 47 37  1  0  0  0  0
M  END
>  <MODEL>
9

>  <REMARK>
 VINA RESULT:      -6.8      2.947      5.850
  Name = 
  14 active torsions:
  status: ('A' for Active; 'I' for Inactive)
    1  A    between atoms: C_2  and  C_5
    2  A    between atoms: C_2  and  C_40
    3  A    between atoms: C_5  and  O_21
    4  A    between atoms: P_12  and  C_28
    5  A    between atoms: C_13  and  C_31
    6  A    between atoms: N_17  and  C_29
    7  A    between atoms: O_21  and  N_43
    8  A    between atoms: C_22  and  C_46
    9  A    between atoms: C_25  and  N_26
   10  A    between atoms: N_26  and  C_42
   11  A    between atoms: C_28  and  C_33
   12  A    between atoms: C_28  and  C_40
   13  A    between atoms: C_31  and  C_44
   14  A    between atoms: C_34  and  C_46
                            x       y       z     vdW  Elec       q    Type
                         _______ _______ _______ _____ _____    ______ ____

>  <TORSDO>
F 14

$$$$
