=
 OpenBabel11032419503D

 27 29  0  0  1  0  0  0  0  0999 V2000
  188.8710  177.8040  140.9550 C   0  0  0  0  0  0  0  0  0  0  0  0
  186.2660  178.9160  141.3260 C   0  0  2  0  0  3  0  0  0  0  0  0
  186.7980  178.6350  139.9490 C   0  0  0  0  0  3  0  0  0  0  0  0
  188.3210  177.8170  142.1790 C   0  0  0  0  0  0  0  0  0  0  0  0
  186.9780  178.1900  142.3330 O   0  0  0  0  0  0  0  0  0  0  0  0
  188.0310  178.1530  139.7890 C   0  0  0  0  0  3  0  0  0  0  0  0
  182.0790  178.0440  141.4330 N   0  0  0  0  0  2  0  0  0  0  0  0
  184.0760  178.9970  142.4920 C   0  0  0  0  0  0  0  0  0  0  0  0
  184.7950  178.6360  141.4150 C   0  0  0  0  0  0  0  0  0  0  0  0
  184.7230  179.6950  143.6510 C   0  0  0  0  0  1  0  0  0  0  0  0
  181.8380  179.0650  143.6610 C   0  0  0  0  0  1  0  0  0  0  0  0
  184.1290  177.9470  140.2890 C   0  0  0  0  0  3  0  0  0  0  0  0
  182.8590  177.6820  140.3230 N   0  0  0  0  0  0  0  0  0  0  0  0
  182.6690  178.7000  142.5240 N   0  0  0  0  0  0  0  0  0  0  0  0
  190.6940  176.8350  139.5960 C   0  0  0  0  0  1  0  0  0  0  0  0
  190.2090  177.4280  140.7920 O   0  0  0  0  0  0  0  0  0  0  0  0
  189.1190  177.3940  143.3800 C   0  0  1  0  0  3  0  0  0  0  0  0
  187.0590  177.7680  147.1410 C   0  0  0  0  0  3  0  0  0  0  0  0
  186.9990  177.2840  144.7700 C   0  0  0  0  0  3  0  0  0  0  0  0
  186.3420  177.4060  145.9980 C   0  0  0  0  0  3  0  0  0  0  0  0
  189.0920  177.8850  145.8300 C   0  0  0  0  0  3  0  0  0  0  0  0
  188.3800  177.5260  144.6810 C   0  0  0  0  0  0  0  0  0  0  0  0
  188.4340  178.0060  147.0580 C   0  0  0  0  0  3  0  0  0  0  0  0
  189.8490  176.0570  143.2060 C   0  0  0  0  0  2  0  0  0  0  0  0
  191.8750  175.0510  143.9720 O   0  0  0  0  0  1  0  0  0  0  0  0
  191.9840  177.3030  143.5650 O   0  0  0  0  0  0  0  0  0  0  0  0
  191.2890  176.1030  143.6040 C   0  0  0  0  0  0  0  0  0  0  0  0
  1  4  2  0  0  0  0
  2  9  1  6  0  0  0
  2  5  1  0  0  0  0
  3  2  1  0  0  0  0
  4  5  1  0  0  0  0
  4 17  1  0  0  0  0
  6  3  2  0  0  0  0
  6  1  1  0  0  0  0
  7 14  1  0  0  0  0
  8 14  1  0  0  0  0
  8 10  1  0  0  0  0
  9  8  2  0  0  0  0
 12 13  2  0  0  0  0
 12  9  1  0  0  0  0
 13  7  1  0  0  0  0
 14 11  1  0  0  0  0
 15 16  1  0  0  0  0
 16  1  1  0  0  0  0
 17 24  1  6  0  0  0
 17 22  1  0  0  0  0
 19 20  1  0  0  0  0
 20 18  2  0  0  0  0
 21 23  2  0  0  0  0
 22 19  2  0  0  0  0
 22 21  1  0  0  0  0
 23 18  1  0  0  0  0
 24 27  1  0  0  0  0
 26 27  2  0  0  0  0
 27 25  1  0  0  0  0
M  END
>  <MODEL>
1

>  <REMARK>
 VINA RESULT:      -7.9      0.000      0.000
  Name = 
  6 active torsions:
  status: ('A' for Active; 'I' for Inactive)
    1  A    between atoms: C_5  and  O_23
    2  A    between atoms: C_7  and  C_8
    3  A    between atoms: C_11  and  C_14
    4  A    between atoms: C_11  and  C_15
    5  A    between atoms: C_11  and  C_20
    6  A    between atoms: C_14  and  C_27
                            x       y       z     vdW  Elec       q    Type
                         _______ _______ _______ _____ _____    ______ ____

>  <TORSDO>
F 6

$$$$
=
 OpenBabel11032419503D

 27 29  0  0  1  0  0  0  0  0999 V2000
  187.2950  178.3960  140.9560 C   0  0  0  0  0  0  0  0  0  0  0  0
  184.4640  178.7500  141.0730 C   0  0  2  0  0  3  0  0  0  0  0  0
  185.2000  178.8290  139.7650 C   0  0  0  0  0  3  0  0  0  0  0  0
  186.6310  178.0790  142.0780 C   0  0  0  0  0  0  0  0  0  0  0  0
  185.2280  178.0760  142.0770 O   0  0  0  0  0  0  0  0  0  0  0  0
  186.5260  178.7010  139.7310 C   0  0  0  0  0  3  0  0  0  0  0  0
  180.6960  176.8100  140.4840 N   0  0  0  0  0  2  0  0  0  0  0  0
  182.0890  178.4110  141.7140 C   0  0  0  0  0  0  0  0  0  0  0  0
  183.1210  178.1010  140.9090 C   0  0  0  0  0  0  0  0  0  0  0  0
  182.2450  179.4210  142.8110 C   0  0  0  0  0  1  0  0  0  0  0  0
  179.6720  178.0480  142.3500 C   0  0  0  0  0  1  0  0  0  0  0  0
  182.9370  177.0990  139.8380 C   0  0  0  0  0  3  0  0  0  0  0  0
  181.7940  176.5100  139.6610 N   0  0  0  0  0  0  0  0  0  0  0  0
  180.8250  177.7550  141.5130 N   0  0  0  0  0  0  0  0  0  0  0  0
  189.4510  177.7760  139.9160 C   0  0  0  0  0  1  0  0  0  0  0  0
  188.6950  178.3960  140.9470 O   0  0  0  0  0  0  0  0  0  0  0  0
  187.3760  177.6860  143.3230 C   0  0  1  0  0  3  0  0  0  0  0  0
  185.3330  178.5670  147.0080 C   0  0  0  0  0  3  0  0  0  0  0  0
  185.3160  178.4520  144.5900 C   0  0  0  0  0  3  0  0  0  0  0  0
  184.6630  178.7330  145.7930 C   0  0  0  0  0  3  0  0  0  0  0  0
  187.3120  177.8390  145.8160 C   0  0  0  0  0  3  0  0  0  0  0  0
  186.6470  178.0060  144.5960 C   0  0  0  0  0  0  0  0  0  0  0  0
  186.6570  178.1180  147.0200 C   0  0  0  0  0  3  0  0  0  0  0  0
  187.9680  176.2730  143.2760 C   0  0  0  0  0  2  0  0  0  0  0  0
  190.0800  175.2530  142.8240 O   0  0  0  0  0  0  0  0  0  0  0  0
  190.1720  177.3190  143.8120 O   0  0  0  0  0  1  0  0  0  0  0  0
  189.4620  176.2470  143.2900 C   0  0  0  0  0  0  0  0  0  0  0  0
  1  4  2  0  0  0  0
  2  9  1  6  0  0  0
  2  5  1  0  0  0  0
  3  2  1  0  0  0  0
  4 17  1  0  0  0  0
  5  4  1  0  0  0  0
  6  3  2  0  0  0  0
  6  1  1  0  0  0  0
  7 14  1  0  0  0  0
  8 10  1  0  0  0  0
  9  8  2  0  0  0  0
 12  9  1  0  0  0  0
 13 12  2  0  0  0  0
 13  7  1  0  0  0  0
 14  8  1  0  0  0  0
 14 11  1  0  0  0  0
 15 16  1  0  0  0  0
 16  1  1  0  0  0  0
 17 24  1  6  0  0  0
 17 22  1  0  0  0  0
 18 23  1  0  0  0  0
 19 22  2  0  0  0  0
 19 20  1  0  0  0  0
 20 18  2  0  0  0  0
 21 23  2  0  0  0  0
 22 21  1  0  0  0  0
 24 27  1  0  0  0  0
 25 27  2  0  0  0  0
 27 26  1  0  0  0  0
M  END
>  <MODEL>
2

>  <REMARK>
 VINA RESULT:      -7.9      1.544      1.934
  Name = 
  6 active torsions:
  status: ('A' for Active; 'I' for Inactive)
    1  A    between atoms: C_5  and  O_23
    2  A    between atoms: C_7  and  C_8
    3  A    between atoms: C_11  and  C_14
    4  A    between atoms: C_11  and  C_15
    5  A    between atoms: C_11  and  C_20
    6  A    between atoms: C_14  and  C_27
                            x       y       z     vdW  Elec       q    Type
                         _______ _______ _______ _____ _____    ______ ____

>  <TORSDO>
F 6

$$$$
=
 OpenBabel11032419503D

 27 29  0  0  1  0  0  0  0  0999 V2000
  190.6890  177.0750  145.1370 C   0  0  0  0  0  0  0  0  0  0  0  0
  190.3480  177.8720  142.4160 C   0  0  2  0  0  3  0  0  0  0  0  0
  191.5510  177.0800  142.8450 C   0  0  0  0  0  3  0  0  0  0  0  0
  189.5060  177.5580  144.7290 C   0  0  0  0  0  0  0  0  0  0  0  0
  189.2790  177.7760  143.3620 O   0  0  0  0  0  0  0  0  0  0  0  0
  191.7170  176.7490  144.1250 C   0  0  0  0  0  3  0  0  0  0  0  0
  189.1410  176.6070  138.5110 N   0  0  0  0  0  2  0  0  0  0  0  0
  188.7740  177.9950  140.5000 C   0  0  0  0  0  0  0  0  0  0  0  0
  189.8810  177.4660  141.0490 C   0  0  0  0  0  0  0  0  0  0  0  0
  187.9610  179.0170  141.2370 C   0  0  0  0  0  1  0  0  0  0  0  0
  187.1850  178.1020  138.5400 C   0  0  0  0  0  1  0  0  0  0  0  0
  190.6600  176.4590  140.2980 C   0  0  0  0  0  3  0  0  0  0  0  0
  190.2920  176.0750  139.1140 N   0  0  0  0  0  0  0  0  0  0  0  0
  188.3720  177.5660  139.1870 N   0  0  0  0  0  0  0  0  0  0  0  0
  191.9950  176.0450  146.9660 C   0  0  0  0  0  1  0  0  0  0  0  0
  190.9210  176.8490  146.4990 O   0  0  0  0  0  0  0  0  0  0  0  0
  188.4070  177.8280  145.7180 C   0  0  1  0  0  3  0  0  0  0  0  0
  184.5220  178.4650  143.9790 C   0  0  0  0  0  3  0  0  0  0  0  0
  186.7280  177.4760  143.8500 C   0  0  0  0  0  3  0  0  0  0  0  0
  185.4620  177.6880  143.2960 C   0  0  0  0  0  3  0  0  0  0  0  0
  186.1140  178.8190  145.7700 C   0  0  0  0  0  3  0  0  0  0  0  0
  187.0610  178.0440  145.0900 C   0  0  0  0  0  0  0  0  0  0  0  0
  184.8470  179.0290  145.2160 C   0  0  0  0  0  3  0  0  0  0  0  0
  188.3960  176.8720  146.9150 C   0  0  0  0  0  2  0  0  0  0  0  0
  187.5370  177.1840  149.1220 O   0  0  0  0  0  1  0  0  0  0  0  0
  189.2020  178.6290  148.4970 O   0  0  0  0  0  0  0  0  0  0  0  0
  188.3490  177.5650  148.2380 C   0  0  0  0  0  0  0  0  0  0  0  0
  1 16  1  0  0  0  0
  2  9  1  6  0  0  0
  2  3  1  0  0  0  0
  2  5  1  0  0  0  0
  3  6  2  0  0  0  0
  4  1  2  0  0  0  0
  4 17  1  0  0  0  0
  5  4  1  0  0  0  0
  6  1  1  0  0  0  0
  7 13  1  0  0  0  0
  7 14  1  0  0  0  0
  8  9  2  0  0  0  0
  8 10  1  0  0  0  0
 11 14  1  0  0  0  0
 12  9  1  0  0  0  0
 13 12  2  0  0  0  0
 14  8  1  0  0  0  0
 16 15  1  0  0  0  0
 17 24  1  1  0  0  0
 18 23  1  0  0  0  0
 19 22  2  0  0  0  0
 20 19  1  0  0  0  0
 20 18  2  0  0  0  0
 22 17  1  0  0  0  0
 22 21  1  0  0  0  0
 23 21  2  0  0  0  0
 24 27  1  0  0  0  0
 27 26  2  0  0  0  0
 27 25  1  0  0  0  0
M  END
>  <MODEL>
3

>  <REMARK>
 VINA RESULT:      -7.8      3.204      5.246
  Name = 
  6 active torsions:
  status: ('A' for Active; 'I' for Inactive)
    1  A    between atoms: C_5  and  O_23
    2  A    between atoms: C_7  and  C_8
    3  A    between atoms: C_11  and  C_14
    4  A    between atoms: C_11  and  C_15
    5  A    between atoms: C_11  and  C_20
    6  A    between atoms: C_14  and  C_27
                            x       y       z     vdW  Elec       q    Type
                         _______ _______ _______ _____ _____    ______ ____

>  <TORSDO>
F 6

$$$$
=
 OpenBabel11032419503D

 27 29  0  0  1  0  0  0  0  0999 V2000
  184.9510  179.0850  140.9810 C   0  0  0  0  0  0  0  0  0  0  0  0
  185.7920  177.8100  143.3940 C   0  0  2  0  0  3  0  0  0  0  0  0
  186.7870  178.4630  142.4770 C   0  0  0  0  0  3  0  0  0  0  0  0
  184.0390  178.7310  141.8990 C   0  0  0  0  0  0  0  0  0  0  0  0
  184.4610  178.2760  143.1570 O   0  0  0  0  0  0  0  0  0  0  0  0
  186.3860  179.0200  141.3350 C   0  0  0  0  0  3  0  0  0  0  0  0
  186.7210  178.4180  147.5260 N   0  0  0  0  0  2  0  0  0  0  0  0
  187.3260  177.5200  145.3240 C   0  0  0  0  0  0  0  0  0  0  0  0
  186.1680  177.9970  144.8350 C   0  0  0  0  0  0  0  0  0  0  0  0
  188.2890  176.7810  144.4440 C   0  0  0  0  0  1  0  0  0  0  0  0
  188.8700  177.2360  147.3030 C   0  0  0  0  0  1  0  0  0  0  0  0
  185.2390  178.7200  145.7290 C   0  0  0  0  0  3  0  0  0  0  0  0
  185.5210  178.9030  146.9820 N   0  0  0  0  0  0  0  0  0  0  0  0
  187.6340  177.7270  146.7140 N   0  0  0  0  0  0  0  0  0  0  0  0
  184.8860  178.8820  138.5190 C   0  0  0  0  0  1  0  0  0  0  0  0
  184.5390  179.5460  139.7250 O   0  0  0  0  0  0  0  0  0  0  0  0
  182.5700  178.8570  141.6070 C   0  0  1  0  0  3  0  0  0  0  0  0
  181.2610  176.3250  138.3820 C   0  0  0  0  0  3  0  0  0  0  0  0
  181.2270  178.4780  139.4890 C   0  0  0  0  0  3  0  0  0  0  0  0
  180.8110  177.6470  138.4450 C   0  0  0  0  0  3  0  0  0  0  0  0
  182.5440  176.6660  140.4080 C   0  0  0  0  0  3  0  0  0  0  0  0
  182.0950  177.9890  140.4780 C   0  0  0  0  0  0  0  0  0  0  0  0
  182.1280  175.8350  139.3620 C   0  0  0  0  0  3  0  0  0  0  0  0
  181.6800  178.8100  142.8540 C   0  0  0  0  0  2  0  0  0  0  0  0
  180.1240  180.5670  142.4140 O   0  0  0  0  0  0  0  0  0  0  0  0
  179.2130  178.4780  142.6490 O   0  0  0  0  0  1  0  0  0  0  0  0
  180.3010  179.3390  142.6280 C   0  0  0  0  0  0  0  0  0  0  0  0
  1  6  1  0  0  0  0
  1  4  2  0  0  0  0
  2  9  1  1  0  0  0
  3  2  1  0  0  0  0
  4  5  1  0  0  0  0
  5  2  1  0  0  0  0
  6  3  2  0  0  0  0
  8 14  1  0  0  0  0
  9  8  2  0  0  0  0
  9 12  1  0  0  0  0
 10  8  1  0  0  0  0
 12 13  2  0  0  0  0
 13  7  1  0  0  0  0
 14 11  1  0  0  0  0
 14  7  1  0  0  0  0
 15 16  1  0  0  0  0
 16  1  1  0  0  0  0
 17  4  1  0  0  0  0
 17 24  1  1  0  0  0
 18 20  2  0  0  0  0
 18 23  1  0  0  0  0
 19 22  2  0  0  0  0
 20 19  1  0  0  0  0
 21 22  1  0  0  0  0
 22 17  1  0  0  0  0
 23 21  2  0  0  0  0
 25 27  2  0  0  0  0
 27 26  1  0  0  0  0
 27 24  1  0  0  0  0
M  END
>  <MODEL>
4

>  <REMARK>
 VINA RESULT:      -7.7      3.712      7.542
  Name = 
  6 active torsions:
  status: ('A' for Active; 'I' for Inactive)
    1  A    between atoms: C_5  and  O_23
    2  A    between atoms: C_7  and  C_8
    3  A    between atoms: C_11  and  C_14
    4  A    between atoms: C_11  and  C_15
    5  A    between atoms: C_11  and  C_20
    6  A    between atoms: C_14  and  C_27
                            x       y       z     vdW  Elec       q    Type
                         _______ _______ _______ _____ _____    ______ ____

>  <TORSDO>
F 6

$$$$
=
 OpenBabel11032419503D

 27 29  0  0  1  0  0  0  0  0999 V2000
  190.8310  177.7480  142.3790 C   0  0  0  0  0  0  0  0  0  0  0  0
  190.0130  177.4540  139.6590 C   0  0  2  0  0  3  0  0  0  0  0  0
  191.4580  177.3240  140.0500 C   0  0  0  0  0  3  0  0  0  0  0  0
  189.5280  177.6210  142.0870 C   0  0  0  0  0  0  0  0  0  0  0  0
  189.1390  177.2930  140.7790 O   0  0  0  0  0  0  0  0  0  0  0  0
  191.8310  177.5030  141.3180 C   0  0  0  0  0  3  0  0  0  0  0  0
  189.1100  174.6200  136.5840 N   0  0  0  0  0  2  0  0  0  0  0  0
  188.5710  176.6870  137.7890 C   0  0  0  0  0  0  0  0  0  0  0  0
  189.6520  176.4920  138.5650 C   0  0  0  0  0  0  0  0  0  0  0  0
  187.6830  177.8780  137.9900 C   0  0  0  0  0  1  0  0  0  0  0  0
  187.1170  175.8870  135.8860 C   0  0  0  0  0  1  0  0  0  0  0  0
  190.5060  175.3070  138.3440 C   0  0  0  0  0  3  0  0  0  0  0  0
  190.2310  174.4470  137.4110 N   0  0  0  0  0  0  0  0  0  0  0  0
  188.2710  175.7310  136.7570 N   0  0  0  0  0  0  0  0  0  0  0  0
  191.6100  179.3850  144.0600 C   0  0  0  0  0  1  0  0  0  0  0  0
  191.2280  178.0700  143.6830 O   0  0  0  0  0  0  0  0  0  0  0  0
  188.4840  177.7850  143.1550 C   0  0  1  0  0  3  0  0  0  0  0  0
  184.5590  178.7840  141.6970 C   0  0  0  0  0  3  0  0  0  0  0  0
  186.9520  178.6840  141.3440 C   0  0  0  0  0  3  0  0  0  0  0  0
  185.6730  179.0030  140.8810 C   0  0  0  0  0  3  0  0  0  0  0  0
  186.0060  177.9280  143.4410 C   0  0  0  0  0  3  0  0  0  0  0  0
  187.1250  178.1470  142.6300 C   0  0  0  0  0  0  0  0  0  0  0  0
  184.7260  178.2450  142.9760 C   0  0  0  0  0  3  0  0  0  0  0  0
  188.4760  176.6600  144.1970 C   0  0  0  0  0  2  0  0  0  0  0  0
  187.9190  177.8640  146.1830 O   0  0  0  0  0  0  0  0  0  0  0  0
  189.9230  176.7530  146.2310 O   0  0  0  0  0  1  0  0  0  0  0  0
  188.7510  177.1290  145.5890 C   0  0  0  0  0  0  0  0  0  0  0  0
  1 16  1  0  0  0  0
  2  9  1  6  0  0  0
  2  3  1  0  0  0  0
  2  5  1  0  0  0  0
  3  6  2  0  0  0  0
  4  1  2  0  0  0  0
  4 17  1  0  0  0  0
  5  4  1  0  0  0  0
  6  1  1  0  0  0  0
  7 14  1  0  0  0  0
  7 13  1  0  0  0  0
  8 10  1  0  0  0  0
  8  9  2  0  0  0  0
 11 14  1  0  0  0  0
 12  9  1  0  0  0  0
 13 12  2  0  0  0  0
 14  8  1  0  0  0  0
 16 15  1  0  0  0  0
 17 24  1  6  0  0  0
 18 23  1  0  0  0  0
 19 22  2  0  0  0  0
 20 19  1  0  0  0  0
 20 18  2  0  0  0  0
 22 17  1  0  0  0  0
 22 21  1  0  0  0  0
 23 21  2  0  0  0  0
 24 27  1  0  0  0  0
 27 25  2  0  0  0  0
 27 26  1  0  0  0  0
M  END
>  <MODEL>
5

>  <REMARK>
 VINA RESULT:      -7.6      3.227      5.472
  Name = 
  6 active torsions:
  status: ('A' for Active; 'I' for Inactive)
    1  A    between atoms: C_5  and  O_23
    2  A    between atoms: C_7  and  C_8
    3  A    between atoms: C_11  and  C_14
    4  A    between atoms: C_11  and  C_15
    5  A    between atoms: C_11  and  C_20
    6  A    between atoms: C_14  and  C_27
                            x       y       z     vdW  Elec       q    Type
                         _______ _______ _______ _____ _____    ______ ____

>  <TORSDO>
F 6

$$$$
=
 OpenBabel11032419503D

 27 29  0  0  1  0  0  0  0  0999 V2000
  190.4390  176.8270  145.0660 C   0  0  0  0  0  0  0  0  0  0  0  0
  190.1730  178.0240  142.4870 C   0  0  2  0  0  3  0  0  0  0  0  0
  191.1870  176.9430  142.7370 C   0  0  0  0  0  3  0  0  0  0  0  0
  189.3770  177.6020  144.7980 C   0  0  0  0  0  0  0  0  0  0  0  0
  189.1490  178.0380  143.4850 O   0  0  0  0  0  0  0  0  0  0  0  0
  191.3270  176.4210  143.9560 C   0  0  0  0  0  3  0  0  0  0  0  0
  188.3220  177.7460  138.6390 N   0  0  0  0  0  2  0  0  0  0  0  0
  190.3020  177.4930  140.0650 C   0  0  0  0  0  0  0  0  0  0  0  0
  189.5730  177.9070  141.1170 C   0  0  0  0  0  0  0  0  0  0  0  0
  191.7490  177.1310  140.2250 C   0  0  0  0  0  1  0  0  0  0  0  0
  190.4110  176.9600  137.5990 C   0  0  0  0  0  1  0  0  0  0  0  0
  188.1500  178.2580  140.9260 C   0  0  0  0  0  3  0  0  0  0  0  0
  187.5900  178.1740  139.7590 N   0  0  0  0  0  0  0  0  0  0  0  0
  189.6760  177.4020  138.7730 N   0  0  0  0  0  0  0  0  0  0  0  0
  191.9600  176.0050  146.8330 C   0  0  0  0  0  1  0  0  0  0  0  0
  190.6700  176.3820  146.3730 O   0  0  0  0  0  0  0  0  0  0  0  0
  188.4060  177.9710  145.8850 C   0  0  1  0  0  3  0  0  0  0  0  0
  184.3660  178.6350  144.5540 C   0  0  0  0  0  3  0  0  0  0  0  0
  186.6050  177.8320  144.1030 C   0  0  0  0  0  3  0  0  0  0  0  0
  185.2900  178.0500  143.6830 C   0  0  0  0  0  3  0  0  0  0  0  0
  186.0740  178.7830  146.2660 C   0  0  0  0  0  3  0  0  0  0  0  0
  187.0040  178.2000  145.3980 C   0  0  0  0  0  0  0  0  0  0  0  0
  184.7580  178.9990  145.8450 C   0  0  0  0  0  3  0  0  0  0  0  0
  188.5010  177.0880  147.1340 C   0  0  0  0  0  2  0  0  0  0  0  0
  187.6900  177.8800  149.2360 O   0  0  0  0  0  1  0  0  0  0  0  0
  189.8080  178.5530  148.6780 O   0  0  0  0  0  0  0  0  0  0  0  0
  188.6370  177.8600  148.4060 C   0  0  0  0  0  0  0  0  0  0  0  0
  1 16  1  0  0  0  0
  2  9  1  6  0  0  0
  2  3  1  0  0  0  0
  2  5  1  0  0  0  0
  3  6  2  0  0  0  0
  4  1  2  0  0  0  0
  4 17  1  0  0  0  0
  5  4  1  0  0  0  0
  6  1  1  0  0  0  0
  7 14  1  0  0  0  0
  7 13  1  0  0  0  0
  8 10  1  0  0  0  0
  8  9  2  0  0  0  0
 11 14  1  0  0  0  0
 12  9  1  0  0  0  0
 13 12  2  0  0  0  0
 14  8  1  0  0  0  0
 16 15  1  0  0  0  0
 17 24  1  1  0  0  0
 18 23  1  0  0  0  0
 19 22  2  0  0  0  0
 20 19  1  0  0  0  0
 20 18  2  0  0  0  0
 22 17  1  0  0  0  0
 22 21  1  0  0  0  0
 23 21  2  0  0  0  0
 24 27  1  0  0  0  0
 27 26  2  0  0  0  0
 27 25  1  0  0  0  0
M  END
>  <MODEL>
6

>  <REMARK>
 VINA RESULT:      -7.4      3.012      5.443
  Name = 
  6 active torsions:
  status: ('A' for Active; 'I' for Inactive)
    1  A    between atoms: C_5  and  O_23
    2  A    between atoms: C_7  and  C_8
    3  A    between atoms: C_11  and  C_14
    4  A    between atoms: C_11  and  C_15
    5  A    between atoms: C_11  and  C_20
    6  A    between atoms: C_14  and  C_27
                            x       y       z     vdW  Elec       q    Type
                         _______ _______ _______ _____ _____    ______ ____

>  <TORSDO>
F 6

$$$$
=
 OpenBabel11032419503D

 27 29  0  0  1  0  0  0  0  0999 V2000
  183.0310  179.0990  139.8140 C   0  0  0  0  0  0  0  0  0  0  0  0
  184.2460  178.0230  142.1640 C   0  0  2  0  0  3  0  0  0  0  0  0
  184.9970  178.9680  141.2680 C   0  0  0  0  0  3  0  0  0  0  0  0
  182.2760  178.4650  140.7220 C   0  0  0  0  0  0  0  0  0  0  0  0
  182.8330  178.1000  141.9570 O   0  0  0  0  0  0  0  0  0  0  0  0
  184.4310  179.4320  140.1530 C   0  0  0  0  0  3  0  0  0  0  0  0
  185.0490  178.7280  146.3070 N   0  0  0  0  0  2  0  0  0  0  0  0
  185.8030  177.9750  144.0970 C   0  0  0  0  0  0  0  0  0  0  0  0
  184.5810  178.2530  143.6080 C   0  0  0  0  0  0  0  0  0  0  0  0
  186.8800  177.4220  143.2120 C   0  0  0  0  0  1  0  0  0  0  0  0
  187.3680  177.9330  146.0790 C   0  0  0  0  0  1  0  0  0  0  0  0
  183.5410  178.7960  144.5060 C   0  0  0  0  0  3  0  0  0  0  0  0
  183.7850  179.0080  145.7630 N   0  0  0  0  0  0  0  0  0  0  0  0
  186.0680  178.2130  145.4910 N   0  0  0  0  0  0  0  0  0  0  0  0
  181.9370  180.7640  138.3490 C   0  0  0  0  0  1  0  0  0  0  0  0
  182.4810  179.4720  138.5820 O   0  0  0  0  0  0  0  0  0  0  0  0
  180.8260  178.1790  140.4470 C   0  0  1  0  0  3  0  0  0  0  0  0
  180.0380  174.1580  139.1300 C   0  0  0  0  0  3  0  0  0  0  0  0
  181.1860  176.2670  138.8200 C   0  0  0  0  0  3  0  0  0  0  0  0
  180.9240  174.9580  138.4030 C   0  0  0  0  0  3  0  0  0  0  0  0
  179.6760  175.9740  140.6910 C   0  0  0  0  0  3  0  0  0  0  0  0
  180.5600  176.7820  139.9660 C   0  0  0  0  0  0  0  0  0  0  0  0
  179.4160  174.6650  140.2740 C   0  0  0  0  0  3  0  0  0  0  0  0
  179.8760  178.6550  141.5520 C   0  0  0  0  0  2  0  0  0  0  0  0
  179.7430  180.9760  141.0070 O   0  0  0  0  0  0  0  0  0  0  0  0
  180.4320  180.5000  143.1400 O   0  0  0  0  0  1  0  0  0  0  0  0
  180.0120  180.1070  141.8770 C   0  0  0  0  0  0  0  0  0  0  0  0
  1  6  1  0  0  0  0
  1  4  2  0  0  0  0
  2  9  1  1  0  0  0
  3  2  1  0  0  0  0
  4  5  1  0  0  0  0
  5  2  1  0  0  0  0
  6  3  2  0  0  0  0
  8 14  1  0  0  0  0
  9  8  2  0  0  0  0
  9 12  1  0  0  0  0
 10  8  1  0  0  0  0
 12 13  2  0  0  0  0
 13  7  1  0  0  0  0
 14 11  1  0  0  0  0
 14  7  1  0  0  0  0
 15 16  1  0  0  0  0
 16  1  1  0  0  0  0
 17  4  1  0  0  0  0
 17 24  1  1  0  0  0
 18 23  1  0  0  0  0
 19 22  2  0  0  0  0
 20 19  1  0  0  0  0
 20 18  2  0  0  0  0
 22 17  1  0  0  0  0
 22 21  1  0  0  0  0
 23 21  2  0  0  0  0
 24 27  1  0  0  0  0
 25 27  2  0  0  0  0
 27 26  1  0  0  0  0
M  END
>  <MODEL>
7

>  <REMARK>
 VINA RESULT:      -7.4      4.042      8.038
  Name = 
  6 active torsions:
  status: ('A' for Active; 'I' for Inactive)
    1  A    between atoms: C_5  and  O_23
    2  A    between atoms: C_7  and  C_8
    3  A    between atoms: C_11  and  C_14
    4  A    between atoms: C_11  and  C_15
    5  A    between atoms: C_11  and  C_20
    6  A    between atoms: C_14  and  C_27
                            x       y       z     vdW  Elec       q    Type
                         _______ _______ _______ _____ _____    ______ ____

>  <TORSDO>
F 6

$$$$
=
 OpenBabel11032419503D

 27 29  0  0  1  0  0  0  0  0999 V2000
  188.3920  178.1390  141.4070 C   0  0  0  0  0  0  0  0  0  0  0  0
  189.2830  176.7370  143.7300 C   0  0  2  0  0  3  0  0  0  0  0  0
  190.2630  177.2400  142.7070 C   0  0  0  0  0  3  0  0  0  0  0  0
  187.5400  177.9190  142.4190 C   0  0  0  0  0  0  0  0  0  0  0  0
  188.0190  177.3980  143.6300 O   0  0  0  0  0  0  0  0  0  0  0  0
  189.8300  177.8580  141.6080 C   0  0  0  0  0  3  0  0  0  0  0  0
  190.7220  177.1700  147.7360 N   0  0  0  0  0  2  0  0  0  0  0  0
  190.9620  176.2250  145.4850 C   0  0  0  0  0  0  0  0  0  0  0  0
  189.8320  176.8560  145.1210 C   0  0  0  0  0  0  0  0  0  0  0  0
  191.7180  175.3730  144.5100 C   0  0  0  0  0  1  0  0  0  0  0  0
  192.6570  175.7150  147.2880 C   0  0  0  0  0  1  0  0  0  0  0  0
  189.1090  177.6870  146.1070 C   0  0  0  0  0  3  0  0  0  0  0  0
  189.5460  177.8170  147.3220 N   0  0  0  0  0  0  0  0  0  0  0  0
  191.4420  176.3730  146.8330 N   0  0  0  0  0  0  0  0  0  0  0  0
  188.4320  178.2500  138.9380 C   0  0  0  0  0  1  0  0  0  0  0  0
  187.9230  178.6640  140.1970 O   0  0  0  0  0  0  0  0  0  0  0  0
  186.0830  178.2650  142.2820 C   0  0  1  0  0  3  0  0  0  0  0  0
  184.0820  178.6810  146.0700 C   0  0  0  0  0  3  0  0  0  0  0  0
  184.0090  178.7700  143.6510 C   0  0  0  0  0  3  0  0  0  0  0  0
  183.3690  178.9000  144.8870 C   0  0  0  0  0  3  0  0  0  0  0  0
  186.0750  178.2020  144.7800 C   0  0  0  0  0  3  0  0  0  0  0  0
  185.3680  178.4230  143.5920 C   0  0  0  0  0  0  0  0  0  0  0  0
  185.4340  178.3310  146.0160 C   0  0  0  0  0  3  0  0  0  0  0  0
  185.8000  179.3840  141.2730 C   0  0  0  0  0  2  0  0  0  0  0  0
  184.1490  177.9320  140.3400 O   0  0  0  0  0  1  0  0  0  0  0  0
  184.4720  179.9060  139.2230 O   0  0  0  0  0  0  0  0  0  0  0  0
  184.7630  179.0280  140.2570 C   0  0  0  0  0  0  0  0  0  0  0  0
  1  6  1  0  0  0  0
  1  4  2  0  0  0  0
  2  9  1  1  0  0  0
  3  2  1  0  0  0  0
  4  5  1  0  0  0  0
  5  2  1  0  0  0  0
  6  3  2  0  0  0  0
  8 14  1  0  0  0  0
  9  8  2  0  0  0  0
  9 12  1  0  0  0  0
 10  8  1  0  0  0  0
 12 13  2  0  0  0  0
 13  7  1  0  0  0  0
 14 11  1  0  0  0  0
 14  7  1  0  0  0  0
 15 16  1  0  0  0  0
 16  1  1  0  0  0  0
 17 24  1  1  0  0  0
 17  4  1  0  0  0  0
 17 22  1  0  0  0  0
 19 20  1  0  0  0  0
 20 18  2  0  0  0  0
 21 23  2  0  0  0  0
 22 19  2  0  0  0  0
 22 21  1  0  0  0  0
 23 18  1  0  0  0  0
 26 27  2  0  0  0  0
 27 25  1  0  0  0  0
 27 24  1  0  0  0  0
M  END
>  <MODEL>
8

>  <REMARK>
 VINA RESULT:      -7.4      3.631      6.344
  Name = 
  6 active torsions:
  status: ('A' for Active; 'I' for Inactive)
    1  A    between atoms: C_5  and  O_23
    2  A    between atoms: C_7  and  C_8
    3  A    between atoms: C_11  and  C_14
    4  A    between atoms: C_11  and  C_15
    5  A    between atoms: C_11  and  C_20
    6  A    between atoms: C_14  and  C_27
                            x       y       z     vdW  Elec       q    Type
                         _______ _______ _______ _____ _____    ______ ____

>  <TORSDO>
F 6

$$$$
=
 OpenBabel11032419503D

 27 29  0  0  1  0  0  0  0  0999 V2000
  185.9100  178.4770  145.6140 C   0  0  0  0  0  0  0  0  0  0  0  0
  184.9590  177.9550  142.9730 C   0  0  2  0  0  3  0  0  0  0  0  0
  184.2030  178.8620  143.9020 C   0  0  0  0  0  3  0  0  0  0  0  0
  186.7130  177.8740  144.7250 C   0  0  0  0  0  0  0  0  0  0  0  0
  186.3180  177.7830  143.3820 O   0  0  0  0  0  0  0  0  0  0  0  0
  184.6370  179.0660  145.1460 C   0  0  0  0  0  3  0  0  0  0  0  0
  184.9310  179.3280  138.9210 N   0  0  0  0  0  2  0  0  0  0  0  0
  183.7190  178.7460  140.9730 C   0  0  0  0  0  0  0  0  0  0  0  0
  184.8930  178.4420  141.5550 C   0  0  0  0  0  0  0  0  0  0  0  0
  182.4280  178.6080  141.7220 C   0  0  0  0  0  1  0  0  0  0  0  0
  182.4790  179.5520  138.9250 C   0  0  0  0  0  1  0  0  0  0  0  0
  186.1480  178.5870  140.7890 C   0  0  0  0  0  3  0  0  0  0  0  0
  186.1380  179.0030  139.5600 N   0  0  0  0  0  0  0  0  0  0  0  0
  183.7150  179.2070  139.6100 N   0  0  0  0  0  0  0  0  0  0  0  0
  186.0550  179.7380  147.7360 C   0  0  0  0  0  1  0  0  0  0  0  0
  186.2990  178.5770  146.9560 O   0  0  0  0  0  0  0  0  0  0  0  0
  188.0510  177.3330  145.1460 C   0  0  1  0  0  3  0  0  0  0  0  0
  190.9970  177.3220  142.0080 C   0  0  0  0  0  3  0  0  0  0  0  0
  189.0030  176.3730  142.9990 C   0  0  0  0  0  3  0  0  0  0  0  0
  189.9640  176.3810  141.9850 C   0  0  0  0  0  3  0  0  0  0  0  0
  190.1080  178.2480  144.0620 C   0  0  0  0  0  3  0  0  0  0  0  0
  189.0720  177.3070  144.0460 C   0  0  0  0  0  0  0  0  0  0  0  0
  191.0680  178.2560  143.0450 C   0  0  0  0  0  3  0  0  0  0  0  0
  188.5680  177.9070  146.4700 C   0  0  0  0  0  2  0  0  0  0  0  0
  188.3040  176.3740  148.2820 O   0  0  0  0  0  1  0  0  0  0  0  0
  190.3930  176.4430  147.3450 O   0  0  0  0  0  0  0  0  0  0  0  0
  189.0740  176.8680  147.4180 C   0  0  0  0  0  0  0  0  0  0  0  0
  1 16  1  0  0  0  0
  2  9  1  6  0  0  0
  2  5  1  0  0  0  0
  2  3  1  0  0  0  0
  3  6  2  0  0  0  0
  4 17  1  0  0  0  0
  4  1  2  0  0  0  0
  5  4  1  0  0  0  0
  6  1  1  0  0  0  0
  7 13  1  0  0  0  0
  7 14  1  0  0  0  0
  8  9  2  0  0  0  0
  8 10  1  0  0  0  0
 11 14  1  0  0  0  0
 12  9  1  0  0  0  0
 13 12  2  0  0  0  0
 14  8  1  0  0  0  0
 16 15  1  0  0  0  0
 17 24  1  1  0  0  0
 18 23  1  0  0  0  0
 19 22  2  0  0  0  0
 20 18  2  0  0  0  0
 20 19  1  0  0  0  0
 22 21  1  0  0  0  0
 22 17  1  0  0  0  0
 23 21  2  0  0  0  0
 24 27  1  0  0  0  0
 26 27  2  0  0  0  0
 27 25  1  0  0  0  0
M  END
>  <MODEL>
9

>  <REMARK>
 VINA RESULT:      -7.3      2.274      4.473
  Name = 
  6 active torsions:
  status: ('A' for Active; 'I' for Inactive)
    1  A    between atoms: C_5  and  O_23
    2  A    between atoms: C_7  and  C_8
    3  A    between atoms: C_11  and  C_14
    4  A    between atoms: C_11  and  C_15
    5  A    between atoms: C_11  and  C_20
    6  A    between atoms: C_14  and  C_27
                            x       y       z     vdW  Elec       q    Type
                         _______ _______ _______ _____ _____    ______ ____

>  <TORSDO>
F 6

$$$$
