=
 OpenBabel11032420363D

 27 29  0  0  1  0  0  0  0  0999 V2000
  190.6330  175.7700  142.9480 S   0  0  0  0  0  0  0  0  0  0  0  0
  188.8210  177.7580  142.7990 C   0  0  1  0  0  3  0  0  0  0  0  0
  190.5380  177.0000  144.2380 C   0  0  2  0  0  3  0  0  0  0  0  0
  189.6030  177.9330  144.0560 C   0  0  0  0  0  2  0  0  0  0  0  0
  189.6020  176.8340  141.9870 N   0  0  0  0  0  0  0  0  0  0  0  0
  189.8730  177.0880  140.6040 C   0  0  0  0  0  0  0  0  0  0  0  0
  190.9540  176.5880  139.8960 C   0  0  0  0  0  3  0  0  0  0  0  0
  189.0950  177.8500  139.7610 C   0  0  0  0  0  3  0  0  0  0  0  0
  190.7910  177.0720  138.6090 C   0  0  0  0  0  3  0  0  0  0  0  0
  189.6710  177.8170  138.5490 N   0  0  0  0  0  0  0  0  0  0  0  0
  189.1860  178.5220  137.3760 C   0  0  0  0  0  2  0  0  0  0  0  0
  187.7930  178.0420  137.0200 C   0  0  0  0  0  2  0  0  0  0  0  0
  186.8230  179.0460  137.4120 N   0  0  0  0  0  2  0  0  0  0  0  0
  185.7980  178.3760  138.0920 N   0  0  0  0  0  2  0  0  0  0  0  0
  184.4520  179.7730  139.2250 N   0  0  0  0  0  1  0  0  0  0  0  0
  185.6340  179.0300  139.3190 N   0  0  0  0  0  2  0  0  0  0  0  0
  187.5290  177.1630  143.1120 N   0  0  0  0  0  2  0  0  0  0  0  0
  187.0250  177.7880  144.3270 C   0  0  0  0  0  2  0  0  0  0  0  0
  185.6140  178.2490  144.1530 C   0  0  0  0  0  0  0  0  0  0  0  0
  183.5260  178.9910  145.1400 C   0  0  0  0  0  3  0  0  0  0  0  0
  184.8520  178.5710  145.2810 C   0  0  0  0  0  3  0  0  0  0  0  0
  183.7030  178.7390  142.7380 C   0  0  0  0  0  3  0  0  0  0  0  0
  185.0280  178.3160  142.8800 C   0  0  0  0  0  3  0  0  0  0  0  0
  182.9540  179.0790  143.8680 C   0  0  0  0  0  3  0  0  0  0  0  0
  191.5070  177.0400  145.3720 C   0  0  0  0  0  2  0  0  0  0  0  0
  190.2570  176.8230  147.6690 N   0  0  0  0  0  0  0  0  0  0  0  0
  190.8060  176.9170  146.6550 C   0  0  0  0  0  0  0  0  0  0  0  0
  1  3  1  0  0  0  0
  2 17  1  1  0  0  0
  2  4  1  0  0  0  0
  3 25  1  6  0  0  0
  4  3  1  0  0  0  0
  5  2  1  0  0  0  0
  5  1  1  0  0  0  0
  6  5  1  0  0  0  0
  7  6  1  0  0  0  0
  8  6  2  0  0  0  0
  9  7  2  0  0  0  0
 10  9  1  0  0  0  0
 10  8  1  0  0  0  0
 11 10  1  0  0  0  0
 12 11  1  0  0  0  0
 12 13  1  0  0  0  0
 13 14  1  0  0  0  0
 14 16  1  0  0  0  0
 15 16  1  0  0  0  0
 17 18  1  0  0  0  0
 19 18  1  0  0  0  0
 19 21  1  0  0  0  0
 20 21  2  0  0  0  0
 22 23  1  0  0  0  0
 22 24  2  0  0  0  0
 23 19  2  0  0  0  0
 24 20  1  0  0  0  0
 25 27  1  0  0  0  0
 27 26  3  0  0  0  0
M  END
>  <MODEL>
1

>  <REMARK>
 VINA RESULT:      -7.4      0.000      0.000
  Name = 
  11 active torsions:
  status: ('A' for Active; 'I' for Inactive)
    1  A    between atoms: C_1  and  C_5
    2  A    between atoms: C_1  and  N_18
    3  A    between atoms: C_2  and  N_23
    4  A    between atoms: C_3  and  N_7
    5  A    between atoms: C_3  and  C_17
    6  A    between atoms: N_7  and  N_11
    7  A    between atoms: C_10  and  N_18
    8  A    between atoms: N_11  and  N_21
    9  A    between atoms: N_13  and  C_17
   10  A    between atoms: C_14  and  C_19
   11  A    between atoms: C_19  and  C_26
                            x       y       z     vdW  Elec       q    Type
                         _______ _______ _______ _____ _____    ______ ____

>  <TORSDO>
F 11

$$$$
=
 OpenBabel11032420363D

 27 29  0  0  1  0  0  0  0  0999 V2000
  190.6320  176.0130  142.7710 S   0  0  0  0  0  0  0  0  0  0  0  0
  188.7400  177.9290  142.6650 C   0  0  1  0  0  3  0  0  0  0  0  0
  190.5690  177.2860  144.0210 C   0  0  2  0  0  3  0  0  0  0  0  0
  189.5900  178.1770  143.8650 C   0  0  0  0  0  2  0  0  0  0  0  0
  189.5040  177.0030  141.8400 N   0  0  0  0  0  0  0  0  0  0  0  0
  189.6820  177.2150  140.4340 C   0  0  0  0  0  0  0  0  0  0  0  0
  188.9850  178.1360  139.6700 C   0  0  0  0  0  3  0  0  0  0  0  0
  190.5830  176.5510  139.6310 C   0  0  0  0  0  3  0  0  0  0  0  0
  189.5010  178.0020  138.3920 C   0  0  0  0  0  3  0  0  0  0  0  0
  190.4600  177.0550  138.3940 N   0  0  0  0  0  0  0  0  0  0  0  0
  191.2060  176.6060  137.2320 C   0  0  0  0  0  2  0  0  0  0  0  0
  192.2990  175.6450  137.6580 C   0  0  0  0  0  2  0  0  0  0  0  0
  193.5750  176.3320  137.6450 N   0  0  0  0  0  2  0  0  0  0  0  0
  194.1850  176.0780  138.8810 N   0  0  0  0  0  2  0  0  0  0  0  0
  195.9670  175.0540  139.7890 N   0  0  0  0  0  1  0  0  0  0  0  0
  195.1380  175.0760  138.6610 N   0  0  0  0  0  2  0  0  0  0  0  0
  187.4920  177.2990  143.0790 N   0  0  0  0  0  2  0  0  0  0  0  0
  186.3930  178.0190  142.4500 C   0  0  0  0  0  2  0  0  0  0  0  0
  185.3330  178.3630  143.4470 C   0  0  0  0  0  0  0  0  0  0  0  0
  184.6550  178.6330  145.7600 C   0  0  0  0  0  3  0  0  0  0  0  0
  185.6360  178.3280  144.8120 C   0  0  0  0  0  3  0  0  0  0  0  0
  183.0460  178.9770  143.9820 C   0  0  0  0  0  3  0  0  0  0  0  0
  184.0270  178.6700  143.0360 C   0  0  0  0  0  3  0  0  0  0  0  0
  183.3610  178.9610  145.3450 C   0  0  0  0  0  3  0  0  0  0  0  0
  191.6030  177.4020  145.0910 C   0  0  0  0  0  2  0  0  0  0  0  0
  190.6620  176.5390  147.3830 N   0  0  0  0  0  0  0  0  0  0  0  0
  191.0750  176.9230  146.3730 C   0  0  0  0  0  0  0  0  0  0  0  0
  1  3  1  0  0  0  0
  2 17  1  1  0  0  0
  2  4  1  0  0  0  0
  3 25  1  6  0  0  0
  4  3  1  0  0  0  0
  5  2  1  0  0  0  0
  5  1  1  0  0  0  0
  6  5  1  0  0  0  0
  7  6  1  0  0  0  0
  8  6  2  0  0  0  0
  9 10  1  0  0  0  0
  9  7  2  0  0  0  0
 10  8  1  0  0  0  0
 11 12  1  0  0  0  0
 11 10  1  0  0  0  0
 13 12  1  0  0  0  0
 13 14  1  0  0  0  0
 16 14  1  0  0  0  0
 16 15  1  0  0  0  0
 18 17  1  0  0  0  0
 18 19  1  0  0  0  0
 19 21  1  0  0  0  0
 21 20  2  0  0  0  0
 22 24  2  0  0  0  0
 23 19  2  0  0  0  0
 23 22  1  0  0  0  0
 24 20  1  0  0  0  0
 25 27  1  0  0  0  0
 27 26  3  0  0  0  0
M  END
>  <MODEL>
2

>  <REMARK>
 VINA RESULT:      -7.2      2.301      4.097
  Name = 
  11 active torsions:
  status: ('A' for Active; 'I' for Inactive)
    1  A    between atoms: C_1  and  C_5
    2  A    between atoms: C_1  and  N_18
    3  A    between atoms: C_2  and  N_23
    4  A    between atoms: C_3  and  N_7
    5  A    between atoms: C_3  and  C_17
    6  A    between atoms: N_7  and  N_11
    7  A    between atoms: C_10  and  N_18
    8  A    between atoms: N_11  and  N_21
    9  A    between atoms: N_13  and  C_17
   10  A    between atoms: C_14  and  C_19
   11  A    between atoms: C_19  and  C_26
                            x       y       z     vdW  Elec       q    Type
                         _______ _______ _______ _____ _____    ______ ____

>  <TORSDO>
F 11

$$$$
=
 OpenBabel11032420363D

 27 29  0  0  1  0  0  0  0  0999 V2000
  190.8950  176.3560  142.4720 S   0  0  0  0  0  0  0  0  0  0  0  0
  188.7850  177.9700  142.0220 C   0  0  1  0  0  3  0  0  0  0  0  0
  190.5980  177.7640  143.5280 C   0  0  2  0  0  3  0  0  0  0  0  0
  189.5240  178.4880  143.2080 C   0  0  0  0  0  2  0  0  0  0  0  0
  189.7080  177.0530  141.3660 N   0  0  0  0  0  0  0  0  0  0  0  0
  189.9400  177.0980  139.9530 C   0  0  0  0  0  0  0  0  0  0  0  0
  189.1690  177.7950  139.0370 C   0  0  0  0  0  3  0  0  0  0  0  0
  190.9730  176.4720  139.2900 C   0  0  0  0  0  3  0  0  0  0  0  0
  189.7770  177.5670  137.8140 C   0  0  0  0  0  3  0  0  0  0  0  0
  190.8560  176.7810  137.9900 N   0  0  0  0  0  0  0  0  0  0  0  0
  191.7290  176.2950  136.9350 C   0  0  0  0  0  2  0  0  0  0  0  0
  193.1750  176.3600  137.3870 C   0  0  0  0  0  2  0  0  0  0  0  0
  194.0280  176.5810  136.2350 N   0  0  0  0  0  2  0  0  0  0  0  0
  195.2560  175.9700  136.5170 N   0  0  0  0  0  2  0  0  0  0  0  0
  195.7910  177.8820  135.4650 N   0  0  0  0  0  1  0  0  0  0  0  0
  196.2030  176.5600  135.6710 N   0  0  0  0  0  2  0  0  0  0  0  0
  187.6050  177.2400  142.4670 N   0  0  0  0  0  2  0  0  0  0  0  0
  186.4940  178.1780  142.5390 C   0  0  0  0  0  2  0  0  0  0  0  0
  185.9190  178.2290  143.9190 C   0  0  0  0  0  0  0  0  0  0  0  0
  184.1100  178.8730  145.4000 C   0  0  0  0  0  3  0  0  0  0  0  0
  184.6590  178.8040  144.1160 C   0  0  0  0  0  3  0  0  0  0  0  0
  186.0950  177.8220  146.3050 C   0  0  0  0  0  3  0  0  0  0  0  0
  186.6440  177.7550  145.0220 C   0  0  0  0  0  3  0  0  0  0  0  0
  184.8260  178.3790  146.4930 C   0  0  0  0  0  3  0  0  0  0  0  0
  191.5430  178.1600  144.6120 C   0  0  0  0  0  2  0  0  0  0  0  0
  191.7120  176.2770  146.4320 N   0  0  0  0  0  0  0  0  0  0  0  0
  191.6350  177.1060  145.6280 C   0  0  0  0  0  0  0  0  0  0  0  0
  1  3  1  0  0  0  0
  2 17  1  1  0  0  0
  2  4  1  0  0  0  0
  3 25  1  6  0  0  0
  4  3  1  0  0  0  0
  5  2  1  0  0  0  0
  5  1  1  0  0  0  0
  6  5  1  0  0  0  0
  7  6  1  0  0  0  0
  8  6  2  0  0  0  0
  9 10  1  0  0  0  0
  9  7  2  0  0  0  0
 10  8  1  0  0  0  0
 11 12  1  0  0  0  0
 11 10  1  0  0  0  0
 13 14  1  0  0  0  0
 13 12  1  0  0  0  0
 15 16  1  0  0  0  0
 16 14  1  0  0  0  0
 17 18  1  0  0  0  0
 18 19  1  0  0  0  0
 19 21  2  0  0  0  0
 19 23  1  0  0  0  0
 20 24  2  0  0  0  0
 21 20  1  0  0  0  0
 22 24  1  0  0  0  0
 23 22  2  0  0  0  0
 25 27  1  0  0  0  0
 27 26  3  0  0  0  0
M  END
>  <MODEL>
3

>  <REMARK>
 VINA RESULT:      -6.9      2.730      4.511
  Name = 
  11 active torsions:
  status: ('A' for Active; 'I' for Inactive)
    1  A    between atoms: C_1  and  C_5
    2  A    between atoms: C_1  and  N_18
    3  A    between atoms: C_2  and  N_23
    4  A    between atoms: C_3  and  N_7
    5  A    between atoms: C_3  and  C_17
    6  A    between atoms: N_7  and  N_11
    7  A    between atoms: C_10  and  N_18
    8  A    between atoms: N_11  and  N_21
    9  A    between atoms: N_13  and  C_17
   10  A    between atoms: C_14  and  C_19
   11  A    between atoms: C_19  and  C_26
                            x       y       z     vdW  Elec       q    Type
                         _______ _______ _______ _____ _____    ______ ____

>  <TORSDO>
F 11

$$$$
=
 OpenBabel11032420363D

 27 29  0  0  1  0  0  0  0  0999 V2000
  190.2000  178.5000  143.7560 S   0  0  0  0  0  0  0  0  0  0  0  0
  189.9080  176.7580  141.7210 C   0  0  1  0  0  3  0  0  0  0  0  0
  190.9340  176.8750  143.8490 C   0  0  2  0  0  3  0  0  0  0  0  0
  190.7230  176.1020  142.7840 C   0  0  0  0  0  2  0  0  0  0  0  0
  189.2830  177.9030  142.3700 N   0  0  0  0  0  0  0  0  0  0  0  0
  187.8860  178.1860  142.2210 C   0  0  0  0  0  0  0  0  0  0  0  0
  187.2880  178.6760  141.0720 C   0  0  0  0  0  3  0  0  0  0  0  0
  186.9230  177.9970  143.1870 C   0  0  0  0  0  3  0  0  0  0  0  0
  185.9420  178.7690  141.3840 C   0  0  0  0  0  3  0  0  0  0  0  0
  185.7460  178.3500  142.6490 N   0  0  0  0  0  0  0  0  0  0  0  0
  184.4720  178.3360  143.3460 C   0  0  0  0  0  2  0  0  0  0  0  0
  184.4420  179.4290  144.3960 C   0  0  0  0  0  2  0  0  0  0  0  0
  183.5810  179.0230  145.4890 N   0  0  0  0  0  2  0  0  0  0  0  0
  184.4170  178.5650  146.5160 N   0  0  0  0  0  2  0  0  0  0  0  0
  186.6190  178.4940  146.9590 N   0  0  0  0  0  1  0  0  0  0  0  0
  185.6050  179.2990  146.4250 N   0  0  0  0  0  2  0  0  0  0  0  0
  190.7850  177.2190  140.6540 N   0  0  0  0  0  2  0  0  0  0  0  0
  190.5730  176.3660  139.4930 C   0  0  0  0  0  2  0  0  0  0  0  0
  189.6610  177.0180  138.5030 C   0  0  0  0  0  0  0  0  0  0  0  0
  188.0030  176.8100  136.7450 C   0  0  0  0  0  3  0  0  0  0  0  0
  188.8520  176.2200  137.6860 C   0  0  0  0  0  3  0  0  0  0  0  0
  188.7920  179.0020  137.4080 C   0  0  0  0  0  3  0  0  0  0  0  0
  189.6420  178.4120  138.3470 C   0  0  0  0  0  3  0  0  0  0  0  0
  187.9700  178.2000  136.6090 C   0  0  0  0  0  3  0  0  0  0  0  0
  191.6320  176.3860  145.0740 C   0  0  0  0  0  2  0  0  0  0  0  0
  190.2870  177.0370  147.2310 N   0  0  0  0  0  0  0  0  0  0  0  0
  190.8800  176.7530  146.2790 C   0  0  0  0  0  0  0  0  0  0  0  0
  1  3  1  0  0  0  0
  2 17  1  6  0  0  0
  2  5  1  0  0  0  0
  2  4  1  0  0  0  0
  3 25  1  1  0  0  0
  4  3  1  0  0  0  0
  5  1  1  0  0  0  0
  6  5  1  0  0  0  0
  6  8  2  0  0  0  0
  7  9  2  0  0  0  0
  7  6  1  0  0  0  0
  9 10  1  0  0  0  0
 10  8  1  0  0  0  0
 10 11  1  0  0  0  0
 11 12  1  0  0  0  0
 12 13  1  0  0  0  0
 13 14  1  0  0  0  0
 16 14  1  0  0  0  0
 16 15  1  0  0  0  0
 18 17  1  0  0  0  0
 19 18  1  0  0  0  0
 20 21  1  0  0  0  0
 21 19  2  0  0  0  0
 22 23  2  0  0  0  0
 23 19  1  0  0  0  0
 24 20  2  0  0  0  0
 24 22  1  0  0  0  0
 25 27  1  0  0  0  0
 27 26  3  0  0  0  0
M  END
>  <MODEL>
4

>  <REMARK>
 VINA RESULT:      -6.8      2.201      6.010
  Name = 
  11 active torsions:
  status: ('A' for Active; 'I' for Inactive)
    1  A    between atoms: C_1  and  C_5
    2  A    between atoms: C_1  and  N_18
    3  A    between atoms: C_2  and  N_23
    4  A    between atoms: C_3  and  N_7
    5  A    between atoms: C_3  and  C_17
    6  A    between atoms: N_7  and  N_11
    7  A    between atoms: C_10  and  N_18
    8  A    between atoms: N_11  and  N_21
    9  A    between atoms: N_13  and  C_17
   10  A    between atoms: C_14  and  C_19
   11  A    between atoms: C_19  and  C_26
                            x       y       z     vdW  Elec       q    Type
                         _______ _______ _______ _____ _____    ______ ____

>  <TORSDO>
F 11

$$$$
=
 OpenBabel11032420363D

 27 29  0  0  1  0  0  0  0  0999 V2000
  186.8390  179.2780  141.5860 S   0  0  0  0  0  0  0  0  0  0  0  0
  188.2510  177.2720  142.7000 C   0  0  1  0  0  3  0  0  0  0  0  0
  186.0480  178.1350  142.7050 C   0  0  2  0  0  3  0  0  0  0  0  0
  186.8460  177.1860  143.1940 C   0  0  0  0  0  2  0  0  0  0  0  0
  188.1940  178.1460  141.5360 N   0  0  0  0  0  0  0  0  0  0  0  0
  188.8360  177.8040  140.3020 C   0  0  0  0  0  0  0  0  0  0  0  0
  188.4220  178.2110  139.0450 C   0  0  0  0  0  3  0  0  0  0  0  0
  189.9730  177.0360  140.1760 C   0  0  0  0  0  3  0  0  0  0  0  0
  189.3470  177.6650  138.1710 C   0  0  0  0  0  3  0  0  0  0  0  0
  190.2690  176.9750  138.8690 N   0  0  0  0  0  0  0  0  0  0  0  0
  191.3780  176.2310  138.2990 C   0  0  0  0  0  2  0  0  0  0  0  0
  192.6900  176.7400  138.8650 C   0  0  0  0  0  2  0  0  0  0  0  0
  193.7900  176.0410  138.2290 N   0  0  0  0  0  2  0  0  0  0  0  0
  193.7720  176.4020  136.8760 N   0  0  0  0  0  2  0  0  0  0  0  0
  195.2860  177.2200  135.4310 N   0  0  0  0  0  1  0  0  0  0  0  0
  195.0740  176.2260  136.3940 N   0  0  0  0  0  2  0  0  0  0  0  0
  189.0890  177.8770  143.7260 N   0  0  0  0  0  2  0  0  0  0  0  0
  189.3220  176.8820  144.7640 C   0  0  0  0  0  2  0  0  0  0  0  0
  188.8690  177.3780  146.1000 C   0  0  0  0  0  0  0  0  0  0  0  0
  189.3880  177.9340  148.4030 C   0  0  0  0  0  3  0  0  0  0  0  0
  189.7950  177.4850  147.1430 C   0  0  0  0  0  3  0  0  0  0  0  0
  187.1150  178.1400  147.5940 C   0  0  0  0  0  3  0  0  0  0  0  0
  187.5220  177.6900  146.3360 C   0  0  0  0  0  3  0  0  0  0  0  0
  188.0500  178.2650  148.6270 C   0  0  0  0  0  3  0  0  0  0  0  0
  184.5820  178.1760  142.9810 C   0  0  0  0  0  2  0  0  0  0  0  0
  184.1230  178.9860  145.4340 N   0  0  0  0  0  0  0  0  0  0  0  0
  184.3270  178.6260  144.3530 C   0  0  0  0  0  0  0  0  0  0  0  0
  1  3  1  0  0  0  0
  2  4  1  0  0  0  0
  2 17  1  1  0  0  0
  3 25  1  6  0  0  0
  3  4  1  0  0  0  0
  5  1  1  0  0  0  0
  5  2  1  0  0  0  0
  6  5  1  0  0  0  0
  7  6  1  0  0  0  0
  8  6  2  0  0  0  0
  9 10  1  0  0  0  0
  9  7  2  0  0  0  0
 10  8  1  0  0  0  0
 11 12  1  0  0  0  0
 11 10  1  0  0  0  0
 13 12  1  0  0  0  0
 14 13  1  0  0  0  0
 15 16  1  0  0  0  0
 16 14  1  0  0  0  0
 17 18  1  0  0  0  0
 18 19  1  0  0  0  0
 19 23  2  0  0  0  0
 19 21  1  0  0  0  0
 20 24  1  0  0  0  0
 21 20  2  0  0  0  0
 22 24  2  0  0  0  0
 23 22  1  0  0  0  0
 25 27  1  0  0  0  0
 27 26  3  0  0  0  0
M  END
>  <MODEL>
5

>  <REMARK>
 VINA RESULT:      -6.8      2.929      5.609
  Name = 
  11 active torsions:
  status: ('A' for Active; 'I' for Inactive)
    1  A    between atoms: C_1  and  C_5
    2  A    between atoms: C_1  and  N_18
    3  A    between atoms: C_2  and  N_23
    4  A    between atoms: C_3  and  N_7
    5  A    between atoms: C_3  and  C_17
    6  A    between atoms: N_7  and  N_11
    7  A    between atoms: C_10  and  N_18
    8  A    between atoms: N_11  and  N_21
    9  A    between atoms: N_13  and  C_17
   10  A    between atoms: C_14  and  C_19
   11  A    between atoms: C_19  and  C_26
                            x       y       z     vdW  Elec       q    Type
                         _______ _______ _______ _____ _____    ______ ____

>  <TORSDO>
F 11

$$$$
=
 OpenBabel11032420363D

 27 29  0  0  1  0  0  0  0  0999 V2000
  184.9080  179.3810  139.9630 S   0  0  0  0  0  0  0  0  0  0  0  0
  185.2890  178.3230  142.4120 C   0  0  1  0  0  3  0  0  0  0  0  0
  183.6450  178.3650  140.7110 C   0  0  2  0  0  3  0  0  0  0  0  0
  183.9450  177.8980  141.9230 C   0  0  0  0  0  2  0  0  0  0  0  0
  185.9930  178.7990  141.2290 N   0  0  0  0  0  0  0  0  0  0  0  0
  187.3340  178.3890  140.9320 C   0  0  0  0  0  0  0  0  0  0  0  0
  187.8640  178.2460  139.6610 C   0  0  0  0  0  3  0  0  0  0  0  0
  188.3060  178.0950  141.8620 C   0  0  0  0  0  3  0  0  0  0  0  0
  189.1780  177.8610  139.8640 C   0  0  0  0  0  3  0  0  0  0  0  0
  189.4230  177.7850  141.1860 N   0  0  0  0  0  0  0  0  0  0  0  0
  190.6780  177.3770  141.7920 C   0  0  0  0  0  2  0  0  0  0  0  0
  190.7270  177.8280  143.2390 C   0  0  0  0  0  2  0  0  0  0  0  0
  191.5290  176.8940  144.0050 N   0  0  0  0  0  2  0  0  0  0  0  0
  191.5820  177.3850  145.3160 N   0  0  0  0  0  2  0  0  0  0  0  0
  191.8890  176.7570  147.4510 N   0  0  0  0  0  1  0  0  0  0  0  0
  191.6390  176.2710  146.1620 N   0  0  0  0  0  2  0  0  0  0  0  0
  185.1350  179.4160  143.3620 N   0  0  0  0  0  2  0  0  0  0  0  0
  184.6490  178.8590  144.6170 C   0  0  0  0  0  2  0  0  0  0  0  0
  185.7820  178.5090  145.5280 C   0  0  0  0  0  0  0  0  0  0  0  0
  186.7620  178.5480  147.7460 C   0  0  0  0  0  3  0  0  0  0  0  0
  185.7070  178.8550  146.8810 C   0  0  0  0  0  3  0  0  0  0  0  0
  187.9910  177.5760  145.9000 C   0  0  0  0  0  3  0  0  0  0  0  0
  186.9380  177.8840  145.0360 C   0  0  0  0  0  3  0  0  0  0  0  0
  187.9020  177.9050  147.2560 C   0  0  0  0  0  3  0  0  0  0  0  0
  182.4000  177.9790  139.9840 C   0  0  0  0  0  2  0  0  0  0  0  0
  182.4300  175.4240  139.3890 N   0  0  0  0  0  0  0  0  0  0  0  0
  182.4190  176.5510  139.6490 C   0  0  0  0  0  0  0  0  0  0  0  0
  1  3  1  0  0  0  0
  1  5  1  0  0  0  0
  2 17  1  1  0  0  0
  3 25  1  6  0  0  0
  3  4  1  0  0  0  0
  4  2  1  0  0  0  0
  5  2  1  0  0  0  0
  6  5  1  0  0  0  0
  6  8  2  0  0  0  0
  7  9  2  0  0  0  0
  7  6  1  0  0  0  0
  9 10  1  0  0  0  0
 10 11  1  0  0  0  0
 10  8  1  0  0  0  0
 11 12  1  0  0  0  0
 12 13  1  0  0  0  0
 13 14  1  0  0  0  0
 14 16  1  0  0  0  0
 16 15  1  0  0  0  0
 17 18  1  0  0  0  0
 18 19  1  0  0  0  0
 19 21  1  0  0  0  0
 21 20  2  0  0  0  0
 22 24  2  0  0  0  0
 23 19  2  0  0  0  0
 23 22  1  0  0  0  0
 24 20  1  0  0  0  0
 26 27  3  0  0  0  0
 27 25  1  0  0  0  0
M  END
>  <MODEL>
6

>  <REMARK>
 VINA RESULT:      -6.6      2.629      6.530
  Name = 
  11 active torsions:
  status: ('A' for Active; 'I' for Inactive)
    1  A    between atoms: C_1  and  C_5
    2  A    between atoms: C_1  and  N_18
    3  A    between atoms: C_2  and  N_23
    4  A    between atoms: C_3  and  N_7
    5  A    between atoms: C_3  and  C_17
    6  A    between atoms: N_7  and  N_11
    7  A    between atoms: C_10  and  N_18
    8  A    between atoms: N_11  and  N_21
    9  A    between atoms: N_13  and  C_17
   10  A    between atoms: C_14  and  C_19
   11  A    between atoms: C_19  and  C_26
                            x       y       z     vdW  Elec       q    Type
                         _______ _______ _______ _____ _____    ______ ____

>  <TORSDO>
F 11

$$$$
=
 OpenBabel11032420363D

 27 29  0  0  1  0  0  0  0  0999 V2000
  190.5300  175.6470  142.9130 S   0  0  0  0  0  0  0  0  0  0  0  0
  188.7950  177.7040  143.0430 C   0  0  1  0  0  3  0  0  0  0  0  0
  190.5980  176.7970  144.2760 C   0  0  2  0  0  3  0  0  0  0  0  0
  189.6900  177.7720  144.2330 C   0  0  0  0  0  2  0  0  0  0  0  0
  189.4630  176.8040  142.1120 N   0  0  0  0  0  0  0  0  0  0  0  0
  189.6240  177.1330  140.7270 C   0  0  0  0  0  0  0  0  0  0  0  0
  190.6890  176.7460  139.9310 C   0  0  0  0  0  3  0  0  0  0  0  0
  188.7380  177.8670  139.9700 C   0  0  0  0  0  3  0  0  0  0  0  0
  190.4070  177.2680  138.6800 C   0  0  0  0  0  3  0  0  0  0  0  0
  189.2330  177.9260  138.7240 N   0  0  0  0  0  0  0  0  0  0  0  0
  188.6220  178.6390  137.6170 C   0  0  0  0  0  2  0  0  0  0  0  0
  187.2300  178.0980  137.3560 C   0  0  0  0  0  2  0  0  0  0  0  0
  187.3300  176.7940  136.7310 N   0  0  0  0  0  2  0  0  0  0  0  0
  188.1500  176.9450  135.6060 N   0  0  0  0  0  2  0  0  0  0  0  0
  188.5230  174.8200  136.2320 N   0  0  0  0  0  1  0  0  0  0  0  0
  188.4050  175.6590  135.1170 N   0  0  0  0  0  2  0  0  0  0  0  0
  187.5110  177.1360  143.4340 N   0  0  0  0  0  2  0  0  0  0  0  0
  186.9710  177.9450  144.5180 C   0  0  0  0  0  2  0  0  0  0  0  0
  185.5500  178.3270  144.2520 C   0  0  0  0  0  0  0  0  0  0  0  0
  183.3820  179.0090  145.0960 C   0  0  0  0  0  3  0  0  0  0  0  0
  184.7170  178.6630  145.3240 C   0  0  0  0  0  3  0  0  0  0  0  0
  183.6950  178.6530  142.7210 C   0  0  0  0  0  3  0  0  0  0  0  0
  185.0290  178.3050  142.9500 C   0  0  0  0  0  3  0  0  0  0  0  0
  182.8720  179.0080  143.7950 C   0  0  0  0  0  3  0  0  0  0  0  0
  191.6630  176.7330  145.3200 C   0  0  0  0  0  2  0  0  0  0  0  0
  190.6100  176.7950  147.7230 N   0  0  0  0  0  0  0  0  0  0  0  0
  191.0730  176.7710  146.6630 C   0  0  0  0  0  0  0  0  0  0  0  0
  1  3  1  0  0  0  0
  2 17  1  1  0  0  0
  2  4  1  0  0  0  0
  3 25  1  6  0  0  0
  4  3  1  0  0  0  0
  5  1  1  0  0  0  0
  5  2  1  0  0  0  0
  6  5  1  0  0  0  0
  7  6  1  0  0  0  0
  8  6  2  0  0  0  0
  9 10  1  0  0  0  0
  9  7  2  0  0  0  0
 10  8  1  0  0  0  0
 11 10  1  0  0  0  0
 12 11  1  0  0  0  0
 13 12  1  0  0  0  0
 14 13  1  0  0  0  0
 16 14  1  0  0  0  0
 16 15  1  0  0  0  0
 17 18  1  0  0  0  0
 19 18  1  0  0  0  0
 19 21  1  0  0  0  0
 20 21  2  0  0  0  0
 22 23  1  0  0  0  0
 22 24  2  0  0  0  0
 23 19  2  0  0  0  0
 24 20  1  0  0  0  0
 25 27  1  0  0  0  0
 27 26  3  0  0  0  0
M  END
>  <MODEL>
7

>  <REMARK>
 VINA RESULT:      -6.5      1.399      2.007
  Name = 
  11 active torsions:
  status: ('A' for Active; 'I' for Inactive)
    1  A    between atoms: C_1  and  C_5
    2  A    between atoms: C_1  and  N_18
    3  A    between atoms: C_2  and  N_23
    4  A    between atoms: C_3  and  N_7
    5  A    between atoms: C_3  and  C_17
    6  A    between atoms: N_7  and  N_11
    7  A    between atoms: C_10  and  N_18
    8  A    between atoms: N_11  and  N_21
    9  A    between atoms: N_13  and  C_17
   10  A    between atoms: C_14  and  C_19
   11  A    between atoms: C_19  and  C_26
                            x       y       z     vdW  Elec       q    Type
                         _______ _______ _______ _____ _____    ______ ____

>  <TORSDO>
F 11

$$$$
=
 OpenBabel11032420363D

 27 29  0  0  1  0  0  0  0  0999 V2000
  190.2980  176.2320  139.2610 S   0  0  0  0  0  0  0  0  0  0  0  0
  190.7430  177.4500  141.6230 C   0  0  1  0  0  3  0  0  0  0  0  0
  191.8750  176.9980  139.5950 C   0  0  2  0  0  3  0  0  0  0  0  0
  191.9790  177.5670  140.7960 C   0  0  0  0  0  2  0  0  0  0  0  0
  189.6900  177.0790  140.6870 N   0  0  0  0  0  0  0  0  0  0  0  0
  188.4210  177.7420  140.6770 C   0  0  0  0  0  0  0  0  0  0  0  0
  187.6610  178.0000  139.5470 C   0  0  0  0  0  3  0  0  0  0  0  0
  187.7510  178.2080  141.7870 C   0  0  0  0  0  3  0  0  0  0  0  0
  186.5220  178.6280  140.0200 C   0  0  0  0  0  3  0  0  0  0  0  0
  186.5930  178.7340  141.3610 N   0  0  0  0  0  0  0  0  0  0  0  0
  185.6020  179.3690  142.2120 C   0  0  0  0  0  2  0  0  0  0  0  0
  184.5080  178.3800  142.5620 C   0  0  0  0  0  2  0  0  0  0  0  0
  183.7440  178.8860  143.6860 N   0  0  0  0  0  2  0  0  0  0  0  0
  184.6690  179.2790  144.6610 N   0  0  0  0  0  2  0  0  0  0  0  0
  185.2330  179.0180  146.8210 N   0  0  0  0  0  1  0  0  0  0  0  0
  184.2970  178.6400  145.8500 N   0  0  0  0  0  2  0  0  0  0  0  0
  190.9180  176.3890  142.6070 N   0  0  0  0  0  2  0  0  0  0  0  0
  191.6740  176.9320  143.7270 C   0  0  0  0  0  2  0  0  0  0  0  0
  190.8260  177.0300  144.9540 C   0  0  0  0  0  0  0  0  0  0  0  0
  190.5880  176.7450  147.3510 C   0  0  0  0  0  3  0  0  0  0  0  0
  191.3690  176.6730  146.1940 C   0  0  0  0  0  3  0  0  0  0  0  0
  188.7020  177.4990  146.0320 C   0  0  0  0  0  3  0  0  0  0  0  0
  189.4830  177.4250  144.8750 C   0  0  0  0  0  3  0  0  0  0  0  0
  189.2570  177.1610  147.2700 C   0  0  0  0  0  3  0  0  0  0  0  0
  192.9510  177.0880  138.5650 C   0  0  0  0  0  2  0  0  0  0  0  0
  192.2520  175.8170  136.3780 N   0  0  0  0  0  0  0  0  0  0  0  0
  192.5570  176.3780  137.3430 C   0  0  0  0  0  0  0  0  0  0  0  0
  1  3  1  0  0  0  0
  1  5  1  0  0  0  0
  2 17  1  1  0  0  0
  3 25  1  6  0  0  0
  3  4  1  0  0  0  0
  4  2  1  0  0  0  0
  5  2  1  0  0  0  0
  6  5  1  0  0  0  0
  6  8  2  0  0  0  0
  7  9  2  0  0  0  0
  7  6  1  0  0  0  0
  9 10  1  0  0  0  0
 10  8  1  0  0  0  0
 10 11  1  0  0  0  0
 11 12  1  0  0  0  0
 12 13  1  0  0  0  0
 13 14  1  0  0  0  0
 14 16  1  0  0  0  0
 16 15  1  0  0  0  0
 17 18  1  0  0  0  0
 18 19  1  0  0  0  0
 19 21  1  0  0  0  0
 21 20  2  0  0  0  0
 22 24  2  0  0  0  0
 23 19  2  0  0  0  0
 23 22  1  0  0  0  0
 24 20  1  0  0  0  0
 26 27  3  0  0  0  0
 27 25  1  0  0  0  0
M  END
>  <MODEL>
8

>  <REMARK>
 VINA RESULT:      -6.4      2.410      5.957
  Name = 
  11 active torsions:
  status: ('A' for Active; 'I' for Inactive)
    1  A    between atoms: C_1  and  C_5
    2  A    between atoms: C_1  and  N_18
    3  A    between atoms: C_2  and  N_23
    4  A    between atoms: C_3  and  N_7
    5  A    between atoms: C_3  and  C_17
    6  A    between atoms: N_7  and  N_11
    7  A    between atoms: C_10  and  N_18
    8  A    between atoms: N_11  and  N_21
    9  A    between atoms: N_13  and  C_17
   10  A    between atoms: C_14  and  C_19
   11  A    between atoms: C_19  and  C_26
                            x       y       z     vdW  Elec       q    Type
                         _______ _______ _______ _____ _____    ______ ____

>  <TORSDO>
F 11

$$$$
=
 OpenBabel11032420363D

 27 29  0  0  1  0  0  0  0  0999 V2000
  189.9790  177.9860  144.5630 S   0  0  0  0  0  0  0  0  0  0  0  0
  189.4160  176.8720  142.1750 C   0  0  1  0  0  3  0  0  0  0  0  0
  190.7830  176.4720  144.0640 C   0  0  2  0  0  3  0  0  0  0  0  0
  190.4260  176.0170  142.8630 C   0  0  0  0  0  2  0  0  0  0  0  0
  188.8640  177.7270  143.2170 N   0  0  0  0  0  0  0  0  0  0  0  0
  187.4530  177.9170  143.3690 C   0  0  0  0  0  0  0  0  0  0  0  0
  186.7560  177.8160  144.5620 C   0  0  0  0  0  3  0  0  0  0  0  0
  186.5750  178.2470  142.3610 C   0  0  0  0  0  3  0  0  0  0  0  0
  185.4420  178.0990  144.2320 C   0  0  0  0  0  3  0  0  0  0  0  0
  185.3580  178.3620  142.9140 N   0  0  0  0  0  0  0  0  0  0  0  0
  184.1370  178.6650  142.1880 C   0  0  0  0  0  2  0  0  0  0  0  0
  184.3390  178.4180  140.7060 C   0  0  0  0  0  2  0  0  0  0  0  0
  184.5530  179.6840  140.0320 N   0  0  0  0  0  2  0  0  0  0  0  0
  184.9620  179.3850  138.7260 N   0  0  0  0  0  2  0  0  0  0  0  0
  186.7080  178.5890  137.5570 N   0  0  0  0  0  1  0  0  0  0  0  0
  186.1350  178.6290  138.8350 N   0  0  0  0  0  2  0  0  0  0  0  0
  190.0810  177.6920  141.1700 N   0  0  0  0  0  2  0  0  0  0  0  0
  189.5240  177.3510  139.8680 C   0  0  0  0  0  2  0  0  0  0  0  0
  190.5390  176.6690  139.0080 C   0  0  0  0  0  0  0  0  0  0  0  0
  191.0610  175.0230  137.3050 C   0  0  0  0  0  3  0  0  0  0  0  0
  190.1250  175.6820  138.1080 C   0  0  0  0  0  3  0  0  0  0  0  0
  192.8400  176.3130  138.3220 C   0  0  0  0  0  3  0  0  0  0  0  0
  191.9050  176.9690  139.1260 C   0  0  0  0  0  3  0  0  0  0  0  0
  192.4170  175.3420  137.4090 C   0  0  0  0  0  3  0  0  0  0  0  0
  191.6980  175.7200  144.9720 C   0  0  0  0  0  2  0  0  0  0  0  0
  191.6770  176.7600  147.3810 N   0  0  0  0  0  0  0  0  0  0  0  0
  191.6830  176.3030  146.3180 C   0  0  0  0  0  0  0  0  0  0  0  0
  2 17  1  6  0  0  0
  2  4  1  0  0  0  0
  2  5  1  0  0  0  0
  3  1  1  0  0  0  0
  3 25  1  1  0  0  0
  4  3  1  0  0  0  0
  5  6  1  0  0  0  0
  5  1  1  0  0  0  0
  6  7  1  0  0  0  0
  8 10  1  0  0  0  0
  8  6  2  0  0  0  0
  9  7  2  0  0  0  0
 10  9  1  0  0  0  0
 11 10  1  0  0  0  0
 12 11  1  0  0  0  0
 13 12  1  0  0  0  0
 14 16  1  0  0  0  0
 14 13  1  0  0  0  0
 15 16  1  0  0  0  0
 18 17  1  0  0  0  0
 19 23  1  0  0  0  0
 19 18  1  0  0  0  0
 20 24  2  0  0  0  0
 20 21  1  0  0  0  0
 21 19  2  0  0  0  0
 22 23  2  0  0  0  0
 24 22  1  0  0  0  0
 25 27  1  0  0  0  0
 27 26  3  0  0  0  0
M  END
>  <MODEL>
9

>  <REMARK>
 VINA RESULT:      -6.4      1.570      5.834
  Name = 
  11 active torsions:
  status: ('A' for Active; 'I' for Inactive)
    1  A    between atoms: C_1  and  C_5
    2  A    between atoms: C_1  and  N_18
    3  A    between atoms: C_2  and  N_23
    4  A    between atoms: C_3  and  N_7
    5  A    between atoms: C_3  and  C_17
    6  A    between atoms: N_7  and  N_11
    7  A    between atoms: C_10  and  N_18
    8  A    between atoms: N_11  and  N_21
    9  A    between atoms: N_13  and  C_17
   10  A    between atoms: C_14  and  C_19
   11  A    between atoms: C_19  and  C_26
                            x       y       z     vdW  Elec       q    Type
                         _______ _______ _______ _____ _____    ______ ____

>  <TORSDO>
F 11

$$$$
