=
 OpenBabel11042410223D

 37 40  0  0  1  0  0  0  0  0999 V2000
  189.6670  177.7800  139.1180 N   0  0  0  0  0  0  0  0  0  0  0  0
  188.1570  177.8500  141.4040 C   0  0  0  0  0  3  0  0  0  0  0  0
  189.4760  177.3910  141.4310 C   0  0  0  0  0  0  0  0  0  0  0  0
  190.1900  177.3630  140.2750 N   0  0  0  0  0  0  0  0  0  0  0  0
  188.3900  178.2450  139.0390 C   0  0  0  0  0  0  0  0  0  0  0  0
  187.5960  178.2730  140.1940 C   0  0  0  0  0  0  0  0  0  0  0  0
  186.1780  178.7650  140.1340 C   0  0  2  0  0  3  0  0  0  0  0  0
  184.2230  177.9990  139.0590 C   0  0  1  0  0  3  0  0  0  0  0  0
  185.3520  178.2410  141.3010 C   0  0  2  0  0  3  0  0  0  0  0  0
  185.4930  178.3250  138.8820 C   0  0  0  0  0  2  0  0  0  0  0  0
  183.3990  177.4190  137.9630 C   0  0  0  0  0  1  0  0  0  0  0  0
  183.6230  178.1110  140.7360 S   0  0  0  0  0  0  0  0  0  0  0  0
  185.4390  179.1700  142.4150 N   0  0  0  0  0  2  0  0  0  0  0  0
  185.1960  178.4100  143.6360 C   0  0  1  0  0  3  0  0  0  0  0  0
  185.4460  178.4760  146.5920 C   0  0  0  0  0  2  0  0  0  0  0  0
  183.4530  179.9740  144.0690 O   0  0  0  0  0  0  0  0  0  0  0  0
  186.5170  178.1800  144.3660 C   0  0  0  0  0  2  0  0  0  0  0  0
  186.2740  177.5320  145.7280 C   0  0  0  0  0  2  0  0  0  0  0  0
  184.0740  178.7130  145.9610 C   0  0  0  0  0  2  0  0  0  0  0  0
  184.2140  179.1330  144.5270 C   0  0  0  0  0  0  0  0  0  0  0  0
  190.3490  175.7220  142.8760 O   0  0  0  0  0  0  0  0  0  0  0  0
  190.0940  176.9450  142.6890 C   0  0  0  0  0  0  0  0  0  0  0  0
  190.3930  177.9050  143.7040 N   0  0  0  0  0  2  0  0  0  0  0  0
  190.9670  177.5330  144.9890 C   0  0  0  0  0  2  0  0  0  0  0  0
  189.8670  177.2510  146.0010 C   0  0  0  0  0  2  0  0  0  0  0  0
  190.4360  176.7730  147.3260 C   0  0  0  0  0  2  0  0  0  0  0  0
  192.4110  175.5900  147.6950 C   0  0  0  0  0  1  0  0  0  0  0  0
  191.8860  176.8890  147.3150 N   0  0  0  0  0  2  0  0  0  0  0  0
  187.8700  178.7160  137.7880 N   0  0  0  0  0  2  0  0  0  0  0  0
  188.9540  175.6820  136.3060 C   0  0  0  0  0  1  0  0  0  0  0  0
  186.9170  178.3870  135.5590 C   0  0  0  0  0  2  0  0  0  0  0  0
  187.7700  176.4860  136.8140 C   0  0  2  0  0  3  0  0  0  0  0  0
  186.5710  176.1950  135.9920 C   0  0  0  0  0  0  0  0  0  0  0  0
  186.1170  177.2000  135.3280 N   0  0  0  0  0  0  0  0  0  0  0  0
  188.0110  177.9670  136.5470 C   0  0  2  0  0  3  0  0  0  0  0  0
  185.9790  174.9310  135.9510 O   0  0  0  0  0  0  0  0  0  0  0  0
  185.3090  174.3730  137.0720 C   0  0  0  0  0  1  0  0  0  0  0  0
  1  4  1  0  0  0  0
  2  3  1  0  0  0  0
  3 22  1  0  0  0  0
  4  3  2  0  0  0  0
  5  1  2  0  0  0  0
  5  6  1  0  0  0  0
  6  2  2  0  0  0  0
  7  6  1  1  0  0  0
  7  9  1  0  0  0  0
  8 11  1  1  0  0  0
  8 12  1  0  0  0  0
  9 13  1  1  0  0  0
 10  8  1  0  0  0  0
 10  7  1  0  0  0  0
 12  9  1  0  0  0  0
 14 13  1  6  0  0  0
 14 17  1  0  0  0  0
 14 20  1  0  0  0  0
 16 20  2  0  0  0  0
 17 18  1  0  0  0  0
 18 15  1  0  0  0  0
 19 15  1  0  0  0  0
 20 19  1  0  0  0  0
 22 21  2  0  0  0  0
 22 23  1  0  0  0  0
 23 24  1  0  0  0  0
 24 25  1  0  0  0  0
 25 26  1  0  0  0  0
 28 26  1  0  0  0  0
 28 27  1  0  0  0  0
 29  5  1  0  0  0  0
 31 35  1  0  0  0  0
 32 30  1  6  0  0  0
 33 32  1  0  0  0  0
 34 31  1  0  0  0  0
 34 33  2  0  0  0  0
 35 32  1  0  0  0  0
 35 29  1  1  0  0  0
 36 33  1  0  0  0  0
 36 37  1  0  0  0  0
M  END
>  <MODEL>
1

>  <REMARK>
 VINA RESULT:      -7.8      0.000      0.000
  Name = 
  11 active torsions:
  status: ('A' for Active; 'I' for Inactive)
    1  A    between atoms: C_1  and  N_13
    2  A    between atoms: C_5  and  C_15
    3  A    between atoms: O_6  and  C_27
    4  A    between atoms: C_7  and  C_34
    5  A    between atoms: C_10  and  N_13
    6  A    between atoms: N_12  and  C_23
    7  A    between atoms: N_12  and  C_36
    8  A    between atoms: C_14  and  N_25
    9  A    between atoms: C_14  and  C_28
   10  A    between atoms: N_24  and  C_35
   11  A    between atoms: C_28  and  C_35
                            x       y       z     vdW  Elec       q    Type
                         _______ _______ _______ _____ _____    ______ ____

>  <TORSDO>
F 11

$$$$
=
 OpenBabel11042410223D

 37 40  0  0  1  0  0  0  0  0999 V2000
  186.0150  179.2570  140.3430 N   0  0  0  0  0  0  0  0  0  0  0  0
  186.3150  178.0940  142.8060 C   0  0  0  0  0  3  0  0  0  0  0  0
  185.1830  178.8550  142.5060 C   0  0  0  0  0  0  0  0  0  0  0  0
  185.0740  179.4230  141.2760 N   0  0  0  0  0  0  0  0  0  0  0  0
  187.1330  178.5170  140.5790 C   0  0  0  0  0  0  0  0  0  0  0  0
  187.3130  177.9270  141.8380 C   0  0  0  0  0  0  0  0  0  0  0  0
  188.5440  177.1200  142.1340 C   0  0  2  0  0  3  0  0  0  0  0  0
  190.8110  177.2980  141.5050 C   0  0  1  0  0  3  0  0  0  0  0  0
  189.2060  177.5600  143.4340 C   0  0  2  0  0  3  0  0  0  0  0  0
  189.5670  177.2550  141.0550 C   0  0  0  0  0  2  0  0  0  0  0  0
  191.9660  177.5540  140.6030 C   0  0  0  0  0  1  0  0  0  0  0  0
  190.9930  177.2300  143.2790 S   0  0  0  0  0  0  0  0  0  0  0  0
  188.6560  176.7990  144.5430 N   0  0  0  0  0  2  0  0  0  0  0  0
  188.5050  177.7160  145.6670 C   0  0  1  0  0  3  0  0  0  0  0  0
  187.8050  177.8850  148.5450 C   0  0  0  0  0  2  0  0  0  0  0  0
  190.4850  176.7220  146.5350 O   0  0  0  0  0  0  0  0  0  0  0  0
  187.0670  177.6610  146.1800 C   0  0  0  0  0  2  0  0  0  0  0  0
  186.9210  178.4840  147.4580 C   0  0  0  0  0  2  0  0  0  0  0  0
  189.2770  177.9580  148.1370 C   0  0  0  0  0  2  0  0  0  0  0  0
  189.4770  177.3720  146.7700 C   0  0  0  0  0  0  0  0  0  0  0  0
  184.4010  179.3370  144.6950 O   0  0  0  0  0  0  0  0  0  0  0  0
  184.1160  179.0420  143.5010 C   0  0  0  0  0  0  0  0  0  0  0  0
  182.7510  178.8750  143.1090 N   0  0  0  0  0  2  0  0  0  0  0  0
  181.6460  179.0050  144.0460 C   0  0  0  0  0  2  0  0  0  0  0  0
  180.3910  178.3540  143.4810 C   0  0  0  0  0  2  0  0  0  0  0  0
  179.3010  179.3780  143.2190 C   0  0  0  0  0  2  0  0  0  0  0  0
  179.1420  181.0650  141.6180 C   0  0  0  0  0  1  0  0  0  0  0  0
  179.8920  180.6340  142.7840 N   0  0  0  0  0  2  0  0  0  0  0  0
  188.1070  178.3310  139.5440 N   0  0  0  0  0  2  0  0  0  0  0  0
  189.3070  177.9750  136.2250 C   0  0  0  0  0  1  0  0  0  0  0  0
  186.4090  177.4090  138.0430 C   0  0  0  0  0  2  0  0  0  0  0  0
  188.7640  177.2660  137.4540 C   0  0  2  0  0  3  0  0  0  0  0  0
  187.9540  176.0940  137.0440 C   0  0  0  0  0  0  0  0  0  0  0  0
  186.7060  176.1670  137.3560 N   0  0  0  0  0  0  0  0  0  0  0  0
  187.7410  178.1600  138.1440 C   0  0  2  0  0  3  0  0  0  0  0  0
  188.5050  174.9970  136.3800 O   0  0  0  0  0  0  0  0  0  0  0  0
  189.5790  174.2440  136.9250 C   0  0  0  0  0  1  0  0  0  0  0  0
  1  5  2  0  0  0  0
  1  4  1  0  0  0  0
  3  2  1  0  0  0  0
  3 22  1  0  0  0  0
  4  3  2  0  0  0  0
  5  6  1  0  0  0  0
  6  2  2  0  0  0  0
  7  6  1  6  0  0  0
  7  9  1  0  0  0  0
  8 11  1  1  0  0  0
  8 12  1  0  0  0  0
  9 13  1  1  0  0  0
 10  8  1  0  0  0  0
 10  7  1  0  0  0  0
 12  9  1  0  0  0  0
 14 13  1  6  0  0  0
 14 17  1  0  0  0  0
 14 20  1  0  0  0  0
 16 20  2  0  0  0  0
 17 18  1  0  0  0  0
 18 15  1  0  0  0  0
 19 15  1  0  0  0  0
 20 19  1  0  0  0  0
 22 21  2  0  0  0  0
 23 22  1  0  0  0  0
 23 24  1  0  0  0  0
 25 24  1  0  0  0  0
 26 25  1  0  0  0  0
 27 28  1  0  0  0  0
 28 26  1  0  0  0  0
 29  5  1  0  0  0  0
 31 35  1  0  0  0  0
 32 30  1  6  0  0  0
 32 35  1  0  0  0  0
 33 34  2  0  0  0  0
 33 32  1  0  0  0  0
 34 31  1  0  0  0  0
 35 29  1  1  0  0  0
 36 37  1  0  0  0  0
 36 33  1  0  0  0  0
M  END
>  <MODEL>
2

>  <REMARK>
 VINA RESULT:      -7.8      2.748      6.324
  Name = 
  11 active torsions:
  status: ('A' for Active; 'I' for Inactive)
    1  A    between atoms: C_1  and  N_13
    2  A    between atoms: C_5  and  C_15
    3  A    between atoms: O_6  and  C_27
    4  A    between atoms: C_7  and  C_34
    5  A    between atoms: C_10  and  N_13
    6  A    between atoms: N_12  and  C_23
    7  A    between atoms: N_12  and  C_36
    8  A    between atoms: C_14  and  N_25
    9  A    between atoms: C_14  and  C_28
   10  A    between atoms: N_24  and  C_35
   11  A    between atoms: C_28  and  C_35
                            x       y       z     vdW  Elec       q    Type
                         _______ _______ _______ _____ _____    ______ ____

>  <TORSDO>
F 11

$$$$
=
 OpenBabel11042410223D

 37 40  0  0  1  0  0  0  0  0999 V2000
  189.7010  177.5020  142.1540 N   0  0  0  0  0  0  0  0  0  0  0  0
  187.2300  178.1170  141.1420 C   0  0  0  0  0  3  0  0  0  0  0  0
  188.3700  178.1830  140.3370 C   0  0  0  0  0  0  0  0  0  0  0  0
  189.5790  177.8780  140.8780 N   0  0  0  0  0  0  0  0  0  0  0  0
  188.6220  177.4130  142.9780 C   0  0  0  0  0  0  0  0  0  0  0  0
  187.3510  177.7390  142.4840 C   0  0  0  0  0  0  0  0  0  0  0  0
  186.1440  177.6670  143.3750 C   0  0  2  0  0  3  0  0  0  0  0  0
  185.5400  178.7080  145.4040 C   0  0  1  0  0  3  0  0  0  0  0  0
  185.0580  178.6370  142.9290 C   0  0  2  0  0  3  0  0  0  0  0  0
  186.4800  178.0060  144.7900 C   0  0  0  0  0  2  0  0  0  0  0  0
  185.7340  179.2510  146.7750 C   0  0  0  0  0  1  0  0  0  0  0  0
  184.1170  179.1280  144.4120 S   0  0  0  0  0  0  0  0  0  0  0  0
  184.1760  177.9790  141.9790 N   0  0  0  0  0  2  0  0  0  0  0  0
  183.5580  179.0190  141.1660 C   0  0  1  0  0  3  0  0  0  0  0  0
  181.9270  179.5110  138.7360 C   0  0  0  0  0  2  0  0  0  0  0  0
  181.4810  178.2180  142.0090 O   0  0  0  0  0  0  0  0  0  0  0  0
  184.1330  178.9700  139.7510 C   0  0  0  0  0  2  0  0  0  0  0  0
  183.3870  179.9370  138.8340 C   0  0  0  0  0  2  0  0  0  0  0  0
  181.2540  179.5920  140.1070 C   0  0  0  0  0  2  0  0  0  0  0  0
  182.0570  178.8520  141.1360 C   0  0  0  0  0  0  0  0  0  0  0  0
  189.1590  179.3020  138.3990 O   0  0  0  0  0  0  0  0  0  0  0  0
  188.2720  178.5710  138.9220 C   0  0  0  0  0  0  0  0  0  0  0  0
  187.1580  178.1260  138.1460 N   0  0  0  0  0  2  0  0  0  0  0  0
  186.9740  178.5020  136.7520 C   0  0  0  0  0  2  0  0  0  0  0  0
  186.8290  177.2620  135.8820 C   0  0  0  0  0  2  0  0  0  0  0  0
  188.0600  176.3760  135.9630 C   0  0  0  0  0  2  0  0  0  0  0  0
  190.3900  176.3950  136.0610 C   0  0  0  0  0  1  0  0  0  0  0  0
  189.2390  177.1250  135.5560 N   0  0  0  0  0  2  0  0  0  0  0  0
  188.7830  176.9730  144.3330 N   0  0  0  0  0  2  0  0  0  0  0  0
  189.1170  177.8780  147.7470 C   0  0  0  0  0  1  0  0  0  0  0  0
  191.0340  177.7750  144.8590 C   0  0  0  0  0  2  0  0  0  0  0  0
  189.5860  176.9560  146.6330 C   0  0  2  0  0  3  0  0  0  0  0  0
  191.0220  176.6370  146.8120 C   0  0  0  0  0  0  0  0  0  0  0  0
  191.7910  177.0680  145.8730 N   0  0  0  0  0  0  0  0  0  0  0  0
  189.5710  177.7130  145.3100 C   0  0  2  0  0  3  0  0  0  0  0  0
  191.4990  175.9180  147.9100 O   0  0  0  0  0  0  0  0  0  0  0  0
  192.8850  175.6840  148.1170 C   0  0  0  0  0  1  0  0  0  0  0  0
  1  5  2  0  0  0  0
  2  6  2  0  0  0  0
  3  4  2  0  0  0  0
  3  2  1  0  0  0  0
  4  1  1  0  0  0  0
  5 29  1  0  0  0  0
  6  5  1  0  0  0  0
  7  6  1  6  0  0  0
  7 10  1  0  0  0  0
  8 11  1  6  0  0  0
  9 13  1  6  0  0  0
  9  7  1  0  0  0  0
  9 12  1  0  0  0  0
 10  8  1  0  0  0  0
 12  8  1  0  0  0  0
 14 13  1  1  0  0  0
 15 18  1  0  0  0  0
 15 19  1  0  0  0  0
 17 14  1  0  0  0  0
 18 17  1  0  0  0  0
 19 20  1  0  0  0  0
 20 14  1  0  0  0  0
 20 16  2  0  0  0  0
 21 22  2  0  0  0  0
 22  3  1  0  0  0  0
 23 22  1  0  0  0  0
 24 23  1  0  0  0  0
 25 26  1  0  0  0  0
 25 24  1  0  0  0  0
 28 26  1  0  0  0  0
 28 27  1  0  0  0  0
 31 35  1  0  0  0  0
 31 34  1  0  0  0  0
 32 33  1  0  0  0  0
 32 30  1  1  0  0  0
 33 36  1  0  0  0  0
 34 33  2  0  0  0  0
 35 29  1  6  0  0  0
 35 32  1  0  0  0  0
 36 37  1  0  0  0  0
M  END
>  <MODEL>
3

>  <REMARK>
 VINA RESULT:      -7.8      2.155      7.870
  Name = 
  11 active torsions:
  status: ('A' for Active; 'I' for Inactive)
    1  A    between atoms: C_1  and  N_13
    2  A    between atoms: C_5  and  C_15
    3  A    between atoms: O_6  and  C_27
    4  A    between atoms: C_7  and  C_34
    5  A    between atoms: C_10  and  N_13
    6  A    between atoms: N_12  and  C_23
    7  A    between atoms: N_12  and  C_36
    8  A    between atoms: C_14  and  N_25
    9  A    between atoms: C_14  and  C_28
   10  A    between atoms: N_24  and  C_35
   11  A    between atoms: C_28  and  C_35
                            x       y       z     vdW  Elec       q    Type
                         _______ _______ _______ _____ _____    ______ ____

>  <TORSDO>
F 11

$$$$
=
 OpenBabel11042410223D

 37 40  0  0  1  0  0  0  0  0999 V2000
  186.0360  178.6590  139.3410 N   0  0  0  0  0  0  0  0  0  0  0  0
  186.9210  178.6130  141.9340 C   0  0  0  0  0  3  0  0  0  0  0  0
  187.7520  178.2100  140.8860 C   0  0  0  0  0  0  0  0  0  0  0  0
  187.2740  178.2390  139.6140 N   0  0  0  0  0  0  0  0  0  0  0  0
  185.1880  179.0710  140.3230 C   0  0  0  0  0  0  0  0  0  0  0  0
  185.6170  179.0400  141.6580 C   0  0  0  0  0  0  0  0  0  0  0  0
  184.6980  179.4730  142.7650 C   0  0  2  0  0  3  0  0  0  0  0  0
  182.4960  178.8980  143.3850 C   0  0  1  0  0  3  0  0  0  0  0  0
  184.9220  178.6570  144.0320 C   0  0  2  0  0  3  0  0  0  0  0  0
  183.2630  179.3090  142.3880 C   0  0  0  0  0  2  0  0  0  0  0  0
  181.0610  178.5560  143.1850 C   0  0  0  0  0  1  0  0  0  0  0  0
  183.3360  178.5900  144.9290 S   0  0  0  0  0  0  0  0  0  0  0  0
  185.9300  179.3030  144.8550 N   0  0  0  0  0  2  0  0  0  0  0  0
  186.3950  178.3200  145.8260 C   0  0  1  0  0  3  0  0  0  0  0  0
  188.5520  177.7000  147.7660 C   0  0  0  0  0  2  0  0  0  0  0  0
  185.7960  179.9140  147.4880 O   0  0  0  0  0  0  0  0  0  0  0  0
  187.7690  177.8000  145.4070 C   0  0  0  0  0  2  0  0  0  0  0  0
  188.3540  176.8940  146.4890 C   0  0  0  0  0  2  0  0  0  0  0  0
  187.2100  178.2080  148.2920 C   0  0  0  0  0  2  0  0  0  0  0  0
  186.4520  178.9210  147.2100 C   0  0  0  0  0  0  0  0  0  0  0  0
  189.8780  177.4170  140.1900 O   0  0  0  0  0  0  0  0  0  0  0  0
  189.1290  177.7620  141.1460 C   0  0  0  0  0  0  0  0  0  0  0  0
  189.6090  177.7090  142.4910 N   0  0  0  0  0  2  0  0  0  0  0  0
  190.9450  177.2400  142.8270 C   0  0  0  0  0  2  0  0  0  0  0  0
  191.3070  177.6430  144.2490 C   0  0  0  0  0  2  0  0  0  0  0  0
  191.6970  176.4400  145.0890 C   0  0  0  0  0  2  0  0  0  0  0  0
  191.7660  175.7430  147.3130 C   0  0  0  0  0  1  0  0  0  0  0  0
  192.0490  176.8650  146.4350 N   0  0  0  0  0  2  0  0  0  0  0  0
  183.8780  179.5490  139.9920 N   0  0  0  0  0  2  0  0  0  0  0  0
  183.1860  176.7350  137.9460 C   0  0  0  0  0  1  0  0  0  0  0  0
  181.8130  179.8260  138.7100 C   0  0  0  0  0  2  0  0  0  0  0  0
  182.7160  177.6020  139.1020 C   0  0  2  0  0  3  0  0  0  0  0  0
  181.2350  177.6760  139.1070 C   0  0  0  0  0  0  0  0  0  0  0  0
  180.7540  178.8530  138.9010 N   0  0  0  0  0  0  0  0  0  0  0  0
  183.1250  179.0480  138.8500 C   0  0  2  0  0  3  0  0  0  0  0  0
  180.4290  176.5580  139.3270 O   0  0  0  0  0  0  0  0  0  0  0  0
  179.5370  176.4730  140.4300 C   0  0  0  0  0  1  0  0  0  0  0  0
  1  4  1  0  0  0  0
  1  5  2  0  0  0  0
  3 22  1  0  0  0  0
  3  2  1  0  0  0  0
  4  3  2  0  0  0  0
  5  6  1  0  0  0  0
  6  2  2  0  0  0  0
  7  6  1  6  0  0  0
  7  9  1  0  0  0  0
  8 11  1  6  0  0  0
  8 12  1  0  0  0  0
  9 13  1  1  0  0  0
  9 12  1  0  0  0  0
 10  7  1  0  0  0  0
 10  8  1  0  0  0  0
 14 13  1  6  0  0  0
 14 20  1  0  0  0  0
 15 19  1  0  0  0  0
 17 14  1  0  0  0  0
 17 18  1  0  0  0  0
 18 15  1  0  0  0  0
 20 16  2  0  0  0  0
 20 19  1  0  0  0  0
 21 22  2  0  0  0  0
 22 23  1  0  0  0  0
 23 24  1  0  0  0  0
 24 25  1  0  0  0  0
 25 26  1  0  0  0  0
 26 28  1  0  0  0  0
 28 27  1  0  0  0  0
 29  5  1  0  0  0  0
 31 35  1  0  0  0  0
 31 34  1  0  0  0  0
 32 30  1  6  0  0  0
 32 33  1  0  0  0  0
 33 36  1  0  0  0  0
 34 33  2  0  0  0  0
 35 32  1  0  0  0  0
 35 29  1  1  0  0  0
 36 37  1  0  0  0  0
M  END
>  <MODEL>
4

>  <REMARK>
 VINA RESULT:      -7.7      2.716      4.055
  Name = 
  11 active torsions:
  status: ('A' for Active; 'I' for Inactive)
    1  A    between atoms: C_1  and  N_13
    2  A    between atoms: C_5  and  C_15
    3  A    between atoms: O_6  and  C_27
    4  A    between atoms: C_7  and  C_34
    5  A    between atoms: C_10  and  N_13
    6  A    between atoms: N_12  and  C_23
    7  A    between atoms: N_12  and  C_36
    8  A    between atoms: C_14  and  N_25
    9  A    between atoms: C_14  and  C_28
   10  A    between atoms: N_24  and  C_35
   11  A    between atoms: C_28  and  C_35
                            x       y       z     vdW  Elec       q    Type
                         _______ _______ _______ _____ _____    ______ ____

>  <TORSDO>
F 11

$$$$
=
 OpenBabel11042410223D

 37 40  0  0  1  0  0  0  0  0999 V2000
  186.8310  178.7970  140.4360 N   0  0  0  0  0  0  0  0  0  0  0  0
  185.5370  178.0710  138.1320 C   0  0  0  0  0  3  0  0  0  0  0  0
  186.9310  178.0360  138.2120 C   0  0  0  0  0  0  0  0  0  0  0  0
  187.5370  178.4110  139.3690 N   0  0  0  0  0  0  0  0  0  0  0  0
  185.4710  178.8410  140.4140 C   0  0  0  0  0  0  0  0  0  0  0  0
  184.7900  178.4890  139.2400 C   0  0  0  0  0  0  0  0  0  0  0  0
  183.2900  178.5440  139.1810 C   0  0  2  0  0  3  0  0  0  0  0  0
  181.7450  179.9480  138.0830 C   0  0  1  0  0  3  0  0  0  0  0  0
  182.7370  177.6290  138.0960 C   0  0  2  0  0  3  0  0  0  0  0  0
  182.7990  179.9230  138.8820 C   0  0  0  0  0  2  0  0  0  0  0  0
  181.1800  181.2240  137.5670 C   0  0  0  0  0  1  0  0  0  0  0  0
  181.1730  178.3590  137.5080 S   0  0  0  0  0  0  0  0  0  0  0  0
  182.4890  176.3100  138.6520 N   0  0  0  0  0  2  0  0  0  0  0  0
  182.6790  175.3420  137.5780 C   0  0  1  0  0  3  0  0  0  0  0  0
  183.0760  172.4620  136.9870 C   0  0  0  0  0  2  0  0  0  0  0  0
  180.4670  174.6100  138.0640 O   0  0  0  0  0  0  0  0  0  0  0  0
  184.0170  174.6290  137.7640 C   0  0  0  0  0  2  0  0  0  0  0  0
  184.1690  173.4970  136.7510 C   0  0  0  0  0  2  0  0  0  0  0  0
  181.6960  173.0790  136.7590 C   0  0  0  0  0  2  0  0  0  0  0  0
  181.5450  174.3460  137.5500 C   0  0  0  0  0  0  0  0  0  0  0  0
  188.2410  178.4440  136.2760 O   0  0  0  0  0  0  0  0  0  0  0  0
  187.7400  177.5960  137.0660 C   0  0  0  0  0  0  0  0  0  0  0  0
  187.9450  176.1990  136.8440 N   0  0  0  0  0  2  0  0  0  0  0  0
  188.7010  175.6880  135.7100 C   0  0  0  0  0  2  0  0  0  0  0  0
  189.8840  174.8600  136.1900 C   0  0  0  0  0  2  0  0  0  0  0  0
  190.8690  175.7010  136.9830 C   0  0  0  0  0  2  0  0  0  0  0  0
  190.7540  176.4450  139.1900 C   0  0  0  0  0  1  0  0  0  0  0  0
  190.9010  175.2560  138.3680 N   0  0  0  0  0  2  0  0  0  0  0  0
  184.7430  179.2260  141.5880 N   0  0  0  0  0  2  0  0  0  0  0  0
  186.4460  177.3890  144.0990 C   0  0  0  0  0  1  0  0  0  0  0  0
  183.2800  178.6530  143.4630 C   0  0  0  0  0  2  0  0  0  0  0  0
  185.6930  178.6650  143.7590 C   0  0  2  0  0  3  0  0  0  0  0  0
  184.9250  179.1280  144.9390 C   0  0  0  0  0  0  0  0  0  0  0  0
  183.6460  179.1240  144.7840 N   0  0  0  0  0  0  0  0  0  0  0  0
  184.6000  178.3530  142.7450 C   0  0  2  0  0  3  0  0  0  0  0  0
  185.5430  179.5440  146.1200 O   0  0  0  0  0  0  0  0  0  0  0  0
  185.7510  178.6630  147.2150 C   0  0  0  0  0  1  0  0  0  0  0  0
  2  3  1  0  0  0  0
  2  6  2  0  0  0  0
  3  4  2  0  0  0  0
  4  1  1  0  0  0  0
  5  1  2  0  0  0  0
  5 29  1  0  0  0  0
  6  5  1  0  0  0  0
  7  6  1  6  0  0  0
  8 11  1  6  0  0  0
  8 10  1  0  0  0  0
  9 13  1  1  0  0  0
  9  7  1  0  0  0  0
 10  7  1  0  0  0  0
 12  8  1  0  0  0  0
 12  9  1  0  0  0  0
 14 17  1  0  0  0  0
 14 13  1  1  0  0  0
 18 15  1  0  0  0  0
 18 17  1  0  0  0  0
 19 15  1  0  0  0  0
 19 20  1  0  0  0  0
 20 14  1  0  0  0  0
 20 16  2  0  0  0  0
 21 22  2  0  0  0  0
 22  3  1  0  0  0  0
 23 22  1  0  0  0  0
 24 25  1  0  0  0  0
 24 23  1  0  0  0  0
 25 26  1  0  0  0  0
 26 28  1  0  0  0  0
 28 27  1  0  0  0  0
 31 34  1  0  0  0  0
 32 30  1  1  0  0  0
 32 33  1  0  0  0  0
 33 36  1  0  0  0  0
 34 33  2  0  0  0  0
 35 29  1  6  0  0  0
 35 31  1  0  0  0  0
 35 32  1  0  0  0  0
 36 37  1  0  0  0  0
M  END
>  <MODEL>
5

>  <REMARK>
 VINA RESULT:      -7.3      3.244      7.608
  Name = 
  11 active torsions:
  status: ('A' for Active; 'I' for Inactive)
    1  A    between atoms: C_1  and  N_13
    2  A    between atoms: C_5  and  C_15
    3  A    between atoms: O_6  and  C_27
    4  A    between atoms: C_7  and  C_34
    5  A    between atoms: C_10  and  N_13
    6  A    between atoms: N_12  and  C_23
    7  A    between atoms: N_12  and  C_36
    8  A    between atoms: C_14  and  N_25
    9  A    between atoms: C_14  and  C_28
   10  A    between atoms: N_24  and  C_35
   11  A    between atoms: C_28  and  C_35
                            x       y       z     vdW  Elec       q    Type
                         _______ _______ _______ _____ _____    ______ ____

>  <TORSDO>
F 11

$$$$
=
 OpenBabel11042410223D

 37 40  0  0  1  0  0  0  0  0999 V2000
  186.0690  179.0730  140.5990 N   0  0  0  0  0  0  0  0  0  0  0  0
  183.6310  178.1530  141.4450 C   0  0  0  0  0  3  0  0  0  0  0  0
  184.5420  178.7050  142.3490 C   0  0  0  0  0  0  0  0  0  0  0  0
  185.7440  179.1430  141.8930 N   0  0  0  0  0  0  0  0  0  0  0  0
  185.2160  178.5540  139.6750 C   0  0  0  0  0  0  0  0  0  0  0  0
  183.9700  178.0630  140.0900 C   0  0  0  0  0  0  0  0  0  0  0  0
  183.0140  177.4680  139.0960 C   0  0  2  0  0  3  0  0  0  0  0  0
  181.1510  176.0300  139.2720 C   0  0  1  0  0  3  0  0  0  0  0  0
  181.8520  178.4080  138.8020 C   0  0  2  0  0  3  0  0  0  0  0  0
  182.4260  176.1880  139.5920 C   0  0  0  0  0  2  0  0  0  0  0  0
  180.3500  174.8830  139.7760 C   0  0  0  0  0  1  0  0  0  0  0  0
  180.4100  177.3790  138.3690 S   0  0  0  0  0  0  0  0  0  0  0  0
  182.1950  179.2730  137.6860 N   0  0  0  0  0  2  0  0  0  0  0  0
  181.1320  180.2630  137.5600 C   0  0  1  0  0  3  0  0  0  0  0  0
  180.4710  182.9480  136.4840 C   0  0  0  0  0  2  0  0  0  0  0  0
  181.0820  179.6780  135.2530 O   0  0  0  0  0  0  0  0  0  0  0  0
  181.5620  181.5630  138.2390 C   0  0  0  0  0  2  0  0  0  0  0  0
  180.5400  182.6670  137.9800 C   0  0  0  0  0  2  0  0  0  0  0  0
  179.9860  181.7100  135.7290 C   0  0  0  0  0  2  0  0  0  0  0  0
  180.7990  180.5060  136.1070 C   0  0  0  0  0  0  0  0  0  0  0  0
  183.0670  179.2120  144.1380 O   0  0  0  0  0  0  0  0  0  0  0  0
  184.2110  178.8170  143.7780 C   0  0  0  0  0  0  0  0  0  0  0  0
  185.1980  178.4880  144.7570 N   0  0  0  0  0  2  0  0  0  0  0  0
  184.9560  178.6130  146.1860 C   0  0  0  0  0  2  0  0  0  0  0  0
  186.2710  178.5840  146.9520 C   0  0  0  0  0  2  0  0  0  0  0  0
  187.2890  177.6800  146.2800 C   0  0  0  0  0  2  0  0  0  0  0  0
  188.0350  177.8060  148.4850 C   0  0  0  0  0  1  0  0  0  0  0  0
  188.4660  177.5420  147.1230 N   0  0  0  0  0  2  0  0  0  0  0  0
  185.5820  178.5260  138.2890 N   0  0  0  0  0  2  0  0  0  0  0  0
  188.7580  177.0840  138.9350 C   0  0  0  0  0  1  0  0  0  0  0  0
  187.0380  178.5830  136.3230 C   0  0  0  0  0  2  0  0  0  0  0  0
  187.4770  177.0050  138.1210 C   0  0  2  0  0  3  0  0  0  0  0  0
  187.7730  176.4910  136.7620 C   0  0  0  0  0  0  0  0  0  0  0  0
  187.5390  177.3240  135.8090 N   0  0  0  0  0  0  0  0  0  0  0  0
  186.9650  178.4130  137.8440 C   0  0  2  0  0  3  0  0  0  0  0  0
  188.2580  175.2010  136.5380 O   0  0  0  0  0  0  0  0  0  0  0  0
  187.4920  174.0430  136.8380 C   0  0  0  0  0  1  0  0  0  0  0  0
  1  4  1  0  0  0  0
  2  3  1  0  0  0  0
  3 22  1  0  0  0  0
  4  3  2  0  0  0  0
  5  6  1  0  0  0  0
  5  1  2  0  0  0  0
  6  2  2  0  0  0  0
  7 10  1  0  0  0  0
  7  6  1  1  0  0  0
  8 10  1  0  0  0  0
  8 11  1  1  0  0  0
  9 13  1  6  0  0  0
  9  7  1  0  0  0  0
 12  9  1  0  0  0  0
 12  8  1  0  0  0  0
 14 13  1  6  0  0  0
 14 17  1  0  0  0  0
 15 18  1  0  0  0  0
 16 20  2  0  0  0  0
 18 17  1  0  0  0  0
 19 20  1  0  0  0  0
 19 15  1  0  0  0  0
 20 14  1  0  0  0  0
 22 21  2  0  0  0  0
 22 23  1  0  0  0  0
 23 24  1  0  0  0  0
 24 25  1  0  0  0  0
 26 25  1  0  0  0  0
 26 28  1  0  0  0  0
 28 27  1  0  0  0  0
 29  5  1  0  0  0  0
 31 35  1  0  0  0  0
 32 30  1  1  0  0  0
 33 32  1  0  0  0  0
 34 31  1  0  0  0  0
 34 33  2  0  0  0  0
 35 32  1  0  0  0  0
 35 29  1  6  0  0  0
 36 33  1  0  0  0  0
 36 37  1  0  0  0  0
M  END
>  <MODEL>
6

>  <REMARK>
 VINA RESULT:      -7.3      3.117      5.715
  Name = 
  11 active torsions:
  status: ('A' for Active; 'I' for Inactive)
    1  A    between atoms: C_1  and  N_13
    2  A    between atoms: C_5  and  C_15
    3  A    between atoms: O_6  and  C_27
    4  A    between atoms: C_7  and  C_34
    5  A    between atoms: C_10  and  N_13
    6  A    between atoms: N_12  and  C_23
    7  A    between atoms: N_12  and  C_36
    8  A    between atoms: C_14  and  N_25
    9  A    between atoms: C_14  and  C_28
   10  A    between atoms: N_24  and  C_35
   11  A    between atoms: C_28  and  C_35
                            x       y       z     vdW  Elec       q    Type
                         _______ _______ _______ _____ _____    ______ ____

>  <TORSDO>
F 11

$$$$
=
 OpenBabel11042410223D

 37 40  0  0  1  0  0  0  0  0999 V2000
  185.9230  178.6260  139.3230 N   0  0  0  0  0  0  0  0  0  0  0  0
  187.1400  178.5840  141.7780 C   0  0  0  0  0  3  0  0  0  0  0  0
  187.8360  178.2070  140.6260 C   0  0  0  0  0  0  0  0  0  0  0  0
  187.1950  178.2330  139.4280 N   0  0  0  0  0  0  0  0  0  0  0  0
  185.2020  179.0120  140.4110 C   0  0  0  0  0  0  0  0  0  0  0  0
  185.8020  178.9820  141.6780 C   0  0  0  0  0  0  0  0  0  0  0  0
  185.0260  179.3860  142.9000 C   0  0  2  0  0  3  0  0  0  0  0  0
  182.8680  178.8860  143.7090 C   0  0  1  0  0  3  0  0  0  0  0  0
  185.3280  178.4750  144.0830 C   0  0  2  0  0  3  0  0  0  0  0  0
  183.5530  179.3230  142.6650 C   0  0  0  0  0  2  0  0  0  0  0  0
  181.4030  178.6330  143.6400 C   0  0  0  0  0  1  0  0  0  0  0  0
  183.8400  178.4300  145.1350 S   0  0  0  0  0  0  0  0  0  0  0  0
  186.4500  179.0110  144.8360 N   0  0  0  0  0  2  0  0  0  0  0  0
  187.1580  177.8810  145.4250 C   0  0  1  0  0  3  0  0  0  0  0  0
  189.5040  177.1150  147.0720 C   0  0  0  0  0  2  0  0  0  0  0  0
  186.3510  178.6750  147.5190 O   0  0  0  0  0  0  0  0  0  0  0  0
  188.5810  177.8250  144.8740 C   0  0  0  0  0  2  0  0  0  0  0  0
  189.3960  176.7540  145.5960 C   0  0  0  0  0  2  0  0  0  0  0  0
  188.1200  177.1320  147.7210 C   0  0  0  0  0  2  0  0  0  0  0  0
  187.1750  177.9890  146.9320 C   0  0  0  0  0  0  0  0  0  0  0  0
  189.9150  177.9940  141.7500 O   0  0  0  0  0  0  0  0  0  0  0  0
  189.2440  177.7900  140.7000 C   0  0  0  0  0  0  0  0  0  0  0  0
  189.8520  177.1640  139.5690 N   0  0  0  0  0  2  0  0  0  0  0  0
  191.2500  176.7600  139.5550 C   0  0  0  0  0  2  0  0  0  0  0  0
  191.6740  176.3630  138.1480 C   0  0  0  0  0  2  0  0  0  0  0  0
  193.1190  176.7430  137.8720 C   0  0  0  0  0  2  0  0  0  0  0  0
  194.4700  175.0730  136.9650 C   0  0  0  0  0  1  0  0  0  0  0  0
  193.9980  175.6370  138.2180 N   0  0  0  0  0  2  0  0  0  0  0  0
  183.8490  179.4610  140.2590 N   0  0  0  0  0  2  0  0  0  0  0  0
  182.8760  176.4200  138.7130 C   0  0  0  0  0  1  0  0  0  0  0  0
  181.5650  179.5590  139.3860 C   0  0  0  0  0  2  0  0  0  0  0  0
  182.6070  177.4080  139.8360 C   0  0  2  0  0  3  0  0  0  0  0  0
  181.1540  177.4620  140.1250 C   0  0  0  0  0  0  0  0  0  0  0  0
  180.6000  178.6000  139.8890 N   0  0  0  0  0  0  0  0  0  0  0  0
  182.9080  178.8210  139.3500 C   0  0  2  0  0  3  0  0  0  0  0  0
  180.4470  176.3650  140.6220 O   0  0  0  0  0  0  0  0  0  0  0  0
  179.3340  175.8100  139.9360 C   0  0  0  0  0  1  0  0  0  0  0  0
  1  4  1  0  0  0  0
  1  5  2  0  0  0  0
  3 22  1  0  0  0  0
  3  2  1  0  0  0  0
  4  3  2  0  0  0  0
  5  6  1  0  0  0  0
  6  2  2  0  0  0  0
  7  6  1  6  0  0  0
  7  9  1  0  0  0  0
  8 11  1  6  0  0  0
  8 12  1  0  0  0  0
  9 13  1  1  0  0  0
  9 12  1  0  0  0  0
 10  7  1  0  0  0  0
 10  8  1  0  0  0  0
 14 13  1  6  0  0  0
 14 20  1  0  0  0  0
 15 19  1  0  0  0  0
 17 14  1  0  0  0  0
 17 18  1  0  0  0  0
 18 15  1  0  0  0  0
 20 16  2  0  0  0  0
 20 19  1  0  0  0  0
 22 21  2  0  0  0  0
 23 22  1  0  0  0  0
 24 23  1  0  0  0  0
 25 24  1  0  0  0  0
 26 25  1  0  0  0  0
 26 28  1  0  0  0  0
 27 28  1  0  0  0  0
 29  5  1  0  0  0  0
 31 34  1  0  0  0  0
 32 30  1  6  0  0  0
 32 33  1  0  0  0  0
 33 36  1  0  0  0  0
 34 33  2  0  0  0  0
 35 31  1  0  0  0  0
 35 32  1  0  0  0  0
 35 29  1  1  0  0  0
 37 36  1  0  0  0  0
M  END
>  <MODEL>
7

>  <REMARK>
 VINA RESULT:      -7.0      3.051      5.426
  Name = 
  11 active torsions:
  status: ('A' for Active; 'I' for Inactive)
    1  A    between atoms: C_1  and  N_13
    2  A    between atoms: C_5  and  C_15
    3  A    between atoms: O_6  and  C_27
    4  A    between atoms: C_7  and  C_34
    5  A    between atoms: C_10  and  N_13
    6  A    between atoms: N_12  and  C_23
    7  A    between atoms: N_12  and  C_36
    8  A    between atoms: C_14  and  N_25
    9  A    between atoms: C_14  and  C_28
   10  A    between atoms: N_24  and  C_35
   11  A    between atoms: C_28  and  C_35
                            x       y       z     vdW  Elec       q    Type
                         _______ _______ _______ _____ _____    ______ ____

>  <TORSDO>
F 11

$$$$
=
 OpenBabel11042410223D

 37 40  0  0  1  0  0  0  0  0999 V2000
  186.7980  178.7820  140.7370 N   0  0  0  0  0  0  0  0  0  0  0  0
  184.1630  178.3020  141.3150 C   0  0  0  0  0  3  0  0  0  0  0  0
  185.0840  178.5570  142.3330 C   0  0  0  0  0  0  0  0  0  0  0  0
  186.3840  178.7820  142.0070 N   0  0  0  0  0  0  0  0  0  0  0  0
  185.9390  178.5490  139.7070 C   0  0  0  0  0  0  0  0  0  0  0  0
  184.5900  178.2850  139.9820 C   0  0  0  0  0  0  0  0  0  0  0  0
  183.6230  178.0080  138.8670 C   0  0  2  0  0  3  0  0  0  0  0  0
  182.7630  176.0370  137.8980 C   0  0  1  0  0  3  0  0  0  0  0  0
  182.1820  178.0080  139.3610 C   0  0  2  0  0  3  0  0  0  0  0  0
  183.8700  176.6750  138.2410 C   0  0  0  0  0  2  0  0  0  0  0  0
  182.7870  174.6440  137.3730 C   0  0  0  0  0  1  0  0  0  0  0  0
  181.2360  176.8720  138.2930 S   0  0  0  0  0  0  0  0  0  0  0  0
  181.6340  179.3510  139.2630 N   0  0  0  0  0  2  0  0  0  0  0  0
  180.4500  179.4000  140.1120 C   0  0  1  0  0  3  0  0  0  0  0  0
  179.3460  180.5260  142.6250 C   0  0  0  0  0  2  0  0  0  0  0  0
  180.2140  181.6520  139.3760 O   0  0  0  0  0  0  0  0  0  0  0  0
  180.7880  178.8440  141.4940 C   0  0  0  0  0  2  0  0  0  0  0  0
  179.6150  179.0360  142.4530 C   0  0  0  0  0  2  0  0  0  0  0  0
  178.9360  181.1530  141.2920 C   0  0  0  0  0  2  0  0  0  0  0  0
  179.9290  180.8130  140.2190 C   0  0  0  0  0  0  0  0  0  0  0  0
  183.4380  178.6680  144.0390 O   0  0  0  0  0  0  0  0  0  0  0  0
  184.6620  178.5860  143.7420 C   0  0  0  0  0  0  0  0  0  0  0  0
  185.6500  178.5350  144.7730 N   0  0  0  0  0  2  0  0  0  0  0  0
  185.3100  178.5990  146.1870 C   0  0  0  0  0  2  0  0  0  0  0  0
  186.5580  178.4220  147.0410 C   0  0  0  0  0  2  0  0  0  0  0  0
  187.5660  177.5040  146.3740 C   0  0  0  0  0  2  0  0  0  0  0  0
  188.5230  178.0410  148.4310 C   0  0  0  0  0  1  0  0  0  0  0  0
  188.8240  177.5320  147.1040 N   0  0  0  0  0  2  0  0  0  0  0  0
  186.4090  178.5910  138.3530 N   0  0  0  0  0  2  0  0  0  0  0  0
  189.3770  176.7990  139.1010 C   0  0  0  0  0  1  0  0  0  0  0  0
  188.0130  178.6510  136.5060 C   0  0  0  0  0  2  0  0  0  0  0  0
  188.1620  176.9080  138.1950 C   0  0  2  0  0  3  0  0  0  0  0  0
  188.5140  176.4690  136.8240 C   0  0  0  0  0  0  0  0  0  0  0  0
  188.4350  177.3900  135.9270 N   0  0  0  0  0  0  0  0  0  0  0  0
  187.8060  178.3760  138.0000 C   0  0  2  0  0  3  0  0  0  0  0  0
  188.8940  175.1580  136.5290 O   0  0  0  0  0  0  0  0  0  0  0  0
  187.9960  174.0650  136.6560 C   0  0  0  0  0  1  0  0  0  0  0  0
  1  4  1  0  0  0  0
  2  3  1  0  0  0  0
  3 22  1  0  0  0  0
  4  3  2  0  0  0  0
  5  6  1  0  0  0  0
  5  1  2  0  0  0  0
  6  2  2  0  0  0  0
  7  9  1  0  0  0  0
  7  6  1  1  0  0  0
  8 11  1  1  0  0  0
  8 10  1  0  0  0  0
  8 12  1  0  0  0  0
  9 13  1  6  0  0  0
 10  7  1  0  0  0  0
 12  9  1  0  0  0  0
 14 13  1  6  0  0  0
 14 20  1  0  0  0  0
 14 17  1  0  0  0  0
 16 20  2  0  0  0  0
 17 18  1  0  0  0  0
 18 15  1  0  0  0  0
 19 15  1  0  0  0  0
 20 19  1  0  0  0  0
 22 21  2  0  0  0  0
 22 23  1  0  0  0  0
 23 24  1  0  0  0  0
 24 25  1  0  0  0  0
 26 25  1  0  0  0  0
 26 28  1  0  0  0  0
 28 27  1  0  0  0  0
 29  5  1  0  0  0  0
 31 35  1  0  0  0  0
 32 30  1  1  0  0  0
 33 32  1  0  0  0  0
 34 31  1  0  0  0  0
 34 33  2  0  0  0  0
 35 32  1  0  0  0  0
 35 29  1  6  0  0  0
 36 37  1  0  0  0  0
 36 33  1  0  0  0  0
M  END
>  <MODEL>
8

>  <REMARK>
 VINA RESULT:      -6.8      2.912      4.463
  Name = 
  11 active torsions:
  status: ('A' for Active; 'I' for Inactive)
    1  A    between atoms: C_1  and  N_13
    2  A    between atoms: C_5  and  C_15
    3  A    between atoms: O_6  and  C_27
    4  A    between atoms: C_7  and  C_34
    5  A    between atoms: C_10  and  N_13
    6  A    between atoms: N_12  and  C_23
    7  A    between atoms: N_12  and  C_36
    8  A    between atoms: C_14  and  N_25
    9  A    between atoms: C_14  and  C_28
   10  A    between atoms: N_24  and  C_35
   11  A    between atoms: C_28  and  C_35
                            x       y       z     vdW  Elec       q    Type
                         _______ _______ _______ _____ _____    ______ ____

>  <TORSDO>
F 11

$$$$
=
 OpenBabel11042410223D

 37 40  0  0  1  0  0  0  0  0999 V2000
  187.7070  176.9740  137.6680 N   0  0  0  0  0  0  0  0  0  0  0  0
  187.6500  178.2300  140.1020 C   0  0  0  0  0  3  0  0  0  0  0  0
  188.7970  177.5630  139.6680 C   0  0  0  0  0  0  0  0  0  0  0  0
  188.7840  176.9440  138.4580 N   0  0  0  0  0  0  0  0  0  0  0  0
  186.5670  177.6180  138.0390 C   0  0  0  0  0  0  0  0  0  0  0  0
  186.5120  178.2530  139.2880 C   0  0  0  0  0  0  0  0  0  0  0  0
  185.2610  178.9570  139.7320 C   0  0  2  0  0  3  0  0  0  0  0  0
  182.9630  178.6340  139.3130 C   0  0  1  0  0  3  0  0  0  0  0  0
  184.7620  178.4250  141.0690 C   0  0  2  0  0  3  0  0  0  0  0  0
  184.1510  178.7830  138.7490 C   0  0  0  0  0  2  0  0  0  0  0  0
  181.7460  178.3240  138.5150 C   0  0  0  0  0  1  0  0  0  0  0  0
  182.9500  178.6280  141.0980 S   0  0  0  0  0  0  0  0  0  0  0  0
  185.3630  179.1860  142.1510 N   0  0  0  0  0  2  0  0  0  0  0  0
  185.3470  178.3410  143.3390 C   0  0  1  0  0  3  0  0  0  0  0  0
  186.3850  178.0720  146.1050 C   0  0  0  0  0  2  0  0  0  0  0  0
  184.0290  180.0510  144.3410 O   0  0  0  0  0  0  0  0  0  0  0  0
  186.7680  177.8780  143.6550 C   0  0  0  0  0  2  0  0  0  0  0  0
  186.8060  177.1290  144.9860 C   0  0  0  0  0  2  0  0  0  0  0  0
  184.9430  178.5370  145.9000 C   0  0  0  0  0  2  0  0  0  0  0  0
  184.7540  179.0820  144.5140 C   0  0  0  0  0  0  0  0  0  0  0  0
  191.1420  177.3600  139.9690 O   0  0  0  0  0  0  0  0  0  0  0  0
  190.0090  177.5270  140.5000 C   0  0  0  0  0  0  0  0  0  0  0  0
  189.8940  177.6710  141.9170 N   0  0  0  0  0  2  0  0  0  0  0  0
  191.0430  177.6070  142.8070 C   0  0  0  0  0  2  0  0  0  0  0  0
  190.6690  178.1080  144.1950 C   0  0  0  0  0  2  0  0  0  0  0  0
  190.4950  176.9600  145.1750 C   0  0  0  0  0  2  0  0  0  0  0  0
  192.0550  175.9710  146.5960 C   0  0  0  0  0  1  0  0  0  0  0  0
  191.3050  177.1920  146.3610 N   0  0  0  0  0  2  0  0  0  0  0  0
  185.4410  177.6600  137.1530 N   0  0  0  0  0  2  0  0  0  0  0  0
  185.2860  174.1200  136.9820 C   0  0  0  0  0  1  0  0  0  0  0  0
  183.8110  176.8860  135.5000 C   0  0  0  0  0  2  0  0  0  0  0  0
  184.5320  175.4040  137.2880 C   0  0  2  0  0  3  0  0  0  0  0  0
  183.1080  175.2580  136.9020 C   0  0  0  0  0  0  0  0  0  0  0  0
  182.7240  176.0430  135.9560 N   0  0  0  0  0  0  0  0  0  0  0  0
  185.0210  176.5110  136.3620 C   0  0  2  0  0  3  0  0  0  0  0  0
  182.2530  174.3450  137.5230 O   0  0  0  0  0  0  0  0  0  0  0  0
  180.8410  174.4930  137.4930 C   0  0  0  0  0  1  0  0  0  0  0  0
  1  5  2  0  0  0  0
  1  4  1  0  0  0  0
  3  2  1  0  0  0  0
  3 22  1  0  0  0  0
  4  3  2  0  0  0  0
  5  6  1  0  0  0  0
  6  2  2  0  0  0  0
  7  6  1  6  0  0  0
  7  9  1  0  0  0  0
  8 11  1  6  0  0  0
  8 12  1  0  0  0  0
  9 12  1  0  0  0  0
  9 13  1  1  0  0  0
 10  8  1  0  0  0  0
 10  7  1  0  0  0  0
 14 13  1  6  0  0  0
 14 17  1  0  0  0  0
 14 20  1  0  0  0  0
 16 20  2  0  0  0  0
 17 18  1  0  0  0  0
 18 15  1  0  0  0  0
 19 15  1  0  0  0  0
 20 19  1  0  0  0  0
 21 22  2  0  0  0  0
 22 23  1  0  0  0  0
 23 24  1  0  0  0  0
 24 25  1  0  0  0  0
 25 26  1  0  0  0  0
 26 28  1  0  0  0  0
 28 27  1  0  0  0  0
 29  5  1  0  0  0  0
 31 34  1  0  0  0  0
 31 35  1  0  0  0  0
 32 30  1  6  0  0  0
 33 32  1  0  0  0  0
 33 36  1  0  0  0  0
 34 33  2  0  0  0  0
 35 29  1  1  0  0  0
 35 32  1  0  0  0  0
 37 36  1  0  0  0  0
M  END
>  <MODEL>
9

>  <REMARK>
 VINA RESULT:      -6.8      1.722      2.320
  Name = 
  11 active torsions:
  status: ('A' for Active; 'I' for Inactive)
    1  A    between atoms: C_1  and  N_13
    2  A    between atoms: C_5  and  C_15
    3  A    between atoms: O_6  and  C_27
    4  A    between atoms: C_7  and  C_34
    5  A    between atoms: C_10  and  N_13
    6  A    between atoms: N_12  and  C_23
    7  A    between atoms: N_12  and  C_36
    8  A    between atoms: C_14  and  N_25
    9  A    between atoms: C_14  and  C_28
   10  A    between atoms: N_24  and  C_35
   11  A    between atoms: C_28  and  C_35
                            x       y       z     vdW  Elec       q    Type
                         _______ _______ _______ _____ _____    ______ ____

>  <TORSDO>
F 11

$$$$
