=
 OpenBabel11042411013D

 29 31  0  0  1  0  0  0  0  0999 V2000
  182.8580  178.2380  141.3690 O   0  0  0  0  0  1  0  0  0  0  0  0
  184.2250  178.0660  141.6040 C   0  0  2  0  0  3  0  0  0  0  0  0
  187.0330  177.9440  145.7900 C   0  0  0  0  0  0  0  0  0  0  0  0
  183.7240  179.0320  145.2590 C   0  0  0  0  0  3  0  0  0  0  0  0
  185.3820  178.7900  147.0210 O   0  0  0  0  0  0  0  0  0  0  0  0
  186.6240  178.3480  147.0440 C   0  0  0  0  0  0  0  0  0  0  0  0
  187.4740  178.2680  148.1460 C   0  0  0  0  0  3  0  0  0  0  0  0
  184.5180  178.2930  143.0560 C   0  0  0  0  0  0  0  0  0  0  0  0
  188.7720  177.7630  147.9340 C   0  0  0  0  0  3  0  0  0  0  0  0
  183.5050  178.8290  143.8850 C   0  0  0  0  0  3  0  0  0  0  0  0
  184.9700  178.6840  145.7720 C   0  0  0  0  0  0  0  0  0  0  0  0
  185.7720  177.9440  143.6020 C   0  0  0  0  0  3  0  0  0  0  0  0
  185.9590  178.1630  144.9650 C   0  0  0  0  0  0  0  0  0  0  0  0
  188.3100  177.4450  145.5480 C   0  0  0  0  0  3  0  0  0  0  0  0
  189.1850  177.3540  146.6460 C   0  0  0  0  0  3  0  0  0  0  0  0
  185.0640  178.9920  140.7050 C   0  0  2  0  0  3  0  0  0  0  0  0
  184.1080  180.4690  139.0140 N   0  0  0  0  0  1  0  0  0  0  0  0
  184.4990  179.0980  139.2920 C   0  0  0  0  0  2  0  0  0  0  0  0
  186.5420  178.5800  140.6620 C   0  0  0  0  0  2  0  0  0  0  0  0
  187.0570  178.3270  139.2470 C   0  0  0  0  0  2  0  0  0  0  0  0
  188.4900  178.5630  139.1820 N   0  0  0  0  0  2  0  0  0  0  0  0
  189.0680  177.9270  140.2910 N   0  0  0  0  0  2  0  0  0  0  0  0
  190.3570  177.3020  140.2400 C   0  0  0  0  0  0  0  0  0  0  0  0
  190.8560  176.5350  138.8730 S   0  0  0  0  0  0  0  0  0  0  0  0
  191.2030  177.3890  141.3960 N   0  0  0  0  0  2  0  0  0  0  0  0
  191.6460  178.0710  143.7120 C   0  0  0  0  0  1  0  0  0  0  0  0
  190.7870  177.2260  142.7870 C   0  0  2  0  0  3  0  0  0  0  0  0
  191.7020  175.8490  144.2600 C   0  0  0  0  0  1  0  0  0  0  0  0
  190.8430  175.8810  143.1610 O   0  0  0  0  0  0  0  0  0  0  0  0
  2  1  1  1  0  0  0
  2  8  1  0  0  0  0
  3  6  1  0  0  0  0
  4 11  1  0  0  0  0
  5  6  1  0  0  0  0
  6  7  2  0  0  0  0
  8 12  2  0  0  0  0
  8 10  1  0  0  0  0
  9  7  1  0  0  0  0
 10  4  2  0  0  0  0
 11  5  1  0  0  0  0
 12 13  1  0  0  0  0
 13 11  2  0  0  0  0
 13  3  1  0  0  0  0
 14  3  2  0  0  0  0
 14 15  1  0  0  0  0
 15  9  2  0  0  0  0
 16 18  1  6  0  0  0
 16  2  1  0  0  0  0
 17 18  1  0  0  0  0
 19 16  1  0  0  0  0
 20 19  1  0  0  0  0
 21 20  1  0  0  0  0
 21 22  1  0  0  0  0
 23 22  1  0  0  0  0
 23 25  1  0  0  0  0
 24 23  2  0  0  0  0
 25 27  1  0  0  0  0
 27 29  1  0  0  0  0
 27 26  1  1  0  0  0
 29 28  1  0  0  0  0
M  END
>  <MODEL>
1

>  <REMARK>
 VINA RESULT:      -8.7      0.000      0.000
  Name = 
  11 active torsions:
  status: ('A' for Active; 'I' for Inactive)
    1  A    between atoms: C_4  and  N_12
    2  A    between atoms: C_4  and  N_13
    3  A    between atoms: C_10  and  C_14
    4  A    between atoms: C_10  and  C_29
    5  A    between atoms: N_12  and  N_20
    6  A    between atoms: N_13  and  C_22
    7  A    between atoms: C_19  and  C_23
    8  A    between atoms: C_19  and  C_29
    9  A    between atoms: N_20  and  C_23
   10  A    between atoms: C_22  and  O_27
   11  A    between atoms: C_28  and  C_29
                            x       y       z     vdW  Elec       q    Type
                         _______ _______ _______ _____ _____    ______ ____

>  <TORSDO>
F 11

$$$$
=
 OpenBabel11042411013D

 29 31  0  0  1  0  0  0  0  0999 V2000
  189.7660  176.3410  147.3990 O   0  0  0  0  0  1  0  0  0  0  0  0
  189.6330  177.4920  146.6160 C   0  0  2  0  0  3  0  0  0  0  0  0
  185.2930  178.3340  144.1900 C   0  0  0  0  0  0  0  0  0  0  0  0
  186.1260  178.6210  147.6020 C   0  0  0  0  0  3  0  0  0  0  0  0
  184.2610  178.9250  146.0720 O   0  0  0  0  0  0  0  0  0  0  0  0
  184.1180  178.7630  144.7710 C   0  0  0  0  0  0  0  0  0  0  0  0
  182.9690  178.9750  144.0130 C   0  0  0  0  0  3  0  0  0  0  0  0
  188.1840  177.8580  146.5010 C   0  0  0  0  0  0  0  0  0  0  0  0
  183.0460  178.7310  142.6280 C   0  0  0  0  0  3  0  0  0  0  0  0
  187.4790  178.2410  147.6660 C   0  0  0  0  0  3  0  0  0  0  0  0
  185.5100  178.6080  146.3540 C   0  0  0  0  0  0  0  0  0  0  0  0
  187.5370  177.8570  145.2470 C   0  0  0  0  0  3  0  0  0  0  0  0
  186.1960  178.2320  145.2180 C   0  0  0  0  0  0  0  0  0  0  0  0
  185.4010  178.0800  142.8260 C   0  0  0  0  0  3  0  0  0  0  0  0
  184.2520  178.2880  142.0400 C   0  0  0  0  0  3  0  0  0  0  0  0
  190.2820  177.3010  145.2340 C   0  0  2  0  0  3  0  0  0  0  0  0
  191.7190  175.5560  144.3150 N   0  0  0  0  0  1  0  0  0  0  0  0
  191.6360  176.6040  145.3180 C   0  0  0  0  0  2  0  0  0  0  0  0
  190.4060  178.6210  144.4610 C   0  0  0  0  0  2  0  0  0  0  0  0
  190.5760  178.4260  142.9570 C   0  0  0  0  0  2  0  0  0  0  0  0
  189.5550  177.5270  142.4450 N   0  0  0  0  0  2  0  0  0  0  0  0
  188.9280  178.1760  141.3710 N   0  0  0  0  0  2  0  0  0  0  0  0
  188.9930  177.6870  140.0260 C   0  0  0  0  0  0  0  0  0  0  0  0
  190.2720  176.7760  139.5320 S   0  0  0  0  0  0  0  0  0  0  0  0
  187.9060  177.9870  139.1380 N   0  0  0  0  0  2  0  0  0  0  0  0
  188.7120  178.9480  137.0280 C   0  0  0  0  0  1  0  0  0  0  0  0
  187.9090  177.8390  137.6840 C   0  0  2  0  0  3  0  0  0  0  0  0
  185.8130  178.2740  138.2500 C   0  0  0  0  0  1  0  0  0  0  0  0
  186.6020  177.8220  137.1910 O   0  0  0  0  0  0  0  0  0  0  0  0
  2  1  1  1  0  0  0
  3  6  1  0  0  0  0
  3 13  1  0  0  0  0
  4 10  1  0  0  0  0
  5 11  1  0  0  0  0
  6  5  1  0  0  0  0
  7  6  2  0  0  0  0
  8  2  1  0  0  0  0
  8 10  2  0  0  0  0
  9  7  1  0  0  0  0
 11  4  2  0  0  0  0
 12  8  1  0  0  0  0
 13 12  2  0  0  0  0
 13 11  1  0  0  0  0
 14  3  2  0  0  0  0
 15  9  2  0  0  0  0
 15 14  1  0  0  0  0
 16 19  1  1  0  0  0
 16 18  1  0  0  0  0
 16  2  1  0  0  0  0
 17 18  1  0  0  0  0
 20 19  1  0  0  0  0
 21 20  1  0  0  0  0
 22 21  1  0  0  0  0
 23 22  1  0  0  0  0
 24 23  2  0  0  0  0
 25 23  1  0  0  0  0
 27 26  1  6  0  0  0
 27 25  1  0  0  0  0
 29 27  1  0  0  0  0
 29 28  1  0  0  0  0
M  END
>  <MODEL>
2

>  <REMARK>
 VINA RESULT:      -8.1      1.899      5.766
  Name = 
  11 active torsions:
  status: ('A' for Active; 'I' for Inactive)
    1  A    between atoms: C_4  and  N_12
    2  A    between atoms: C_4  and  N_13
    3  A    between atoms: C_10  and  C_14
    4  A    between atoms: C_10  and  C_29
    5  A    between atoms: N_12  and  N_20
    6  A    between atoms: N_13  and  C_22
    7  A    between atoms: C_19  and  C_23
    8  A    between atoms: C_19  and  C_29
    9  A    between atoms: N_20  and  C_23
   10  A    between atoms: C_22  and  O_27
   11  A    between atoms: C_28  and  C_29
                            x       y       z     vdW  Elec       q    Type
                         _______ _______ _______ _____ _____    ______ ____

>  <TORSDO>
F 11

$$$$
=
 OpenBabel11042411013D

 29 31  0  0  1  0  0  0  0  0999 V2000
  182.3950  177.5640  140.7590 O   0  0  0  0  0  1  0  0  0  0  0  0
  183.7730  177.7200  140.9320 C   0  0  2  0  0  3  0  0  0  0  0  0
  186.4850  177.9750  145.1760 C   0  0  0  0  0  0  0  0  0  0  0  0
  183.2950  179.2510  144.3930 C   0  0  0  0  0  3  0  0  0  0  0  0
  184.8940  179.1300  146.2210 O   0  0  0  0  0  0  0  0  0  0  0  0
  186.0910  178.5920  146.3460 C   0  0  0  0  0  0  0  0  0  0  0  0
  186.9120  178.6030  147.4720 C   0  0  0  0  0  3  0  0  0  0  0  0
  184.0590  178.1320  142.3450 C   0  0  0  0  0  0  0  0  0  0  0  0
  188.1620  177.9630  147.3750 C   0  0  0  0  0  3  0  0  0  0  0  0
  183.0830  178.8680  143.0560 C   0  0  0  0  0  3  0  0  0  0  0  0
  184.4970  178.8770  144.9890 C   0  0  0  0  0  0  0  0  0  0  0  0
  185.2680  177.7620  142.9740 C   0  0  0  0  0  3  0  0  0  0  0  0
  185.4500  178.1610  144.2960 C   0  0  0  0  0  0  0  0  0  0  0  0
  187.7170  177.3390  145.0480 C   0  0  0  0  0  3  0  0  0  0  0  0
  188.5610  177.3360  146.1730 C   0  0  0  0  0  3  0  0  0  0  0  0
  184.3500  178.7260  139.9210 C   0  0  2  0  0  3  0  0  0  0  0  0
  183.9790  180.8250  138.7320 N   0  0  0  0  0  1  0  0  0  0  0  0
  183.3270  179.7750  139.4970 C   0  0  0  0  0  2  0  0  0  0  0  0
  184.9500  178.0340  138.6880 C   0  0  0  0  0  2  0  0  0  0  0  0
  186.4450  178.2930  138.5190 C   0  0  0  0  0  2  0  0  0  0  0  0
  187.0620  178.5480  139.8100 N   0  0  0  0  0  2  0  0  0  0  0  0
  188.4490  178.5950  139.6080 N   0  0  0  0  0  2  0  0  0  0  0  0
  189.3510  177.6520  140.1990 C   0  0  0  0  0  0  0  0  0  0  0  0
  190.3630  176.7630  139.2550 S   0  0  0  0  0  0  0  0  0  0  0  0
  189.3650  177.5260  141.6290 N   0  0  0  0  0  2  0  0  0  0  0  0
  190.7660  176.3010  143.2290 C   0  0  0  0  0  1  0  0  0  0  0  0
  190.5390  177.6100  142.4940 C   0  0  2  0  0  3  0  0  0  0  0  0
  191.6520  178.7680  144.0190 C   0  0  0  0  0  1  0  0  0  0  0  0
  190.4050  178.6640  143.4010 O   0  0  0  0  0  0  0  0  0  0  0  0
  2  1  1  1  0  0  0
  2  8  1  0  0  0  0
  3  6  1  0  0  0  0
  4 11  1  0  0  0  0
  5  6  1  0  0  0  0
  6  7  2  0  0  0  0
  8 12  2  0  0  0  0
  8 10  1  0  0  0  0
  9  7  1  0  0  0  0
 10  4  2  0  0  0  0
 11  5  1  0  0  0  0
 12 13  1  0  0  0  0
 13 11  2  0  0  0  0
 13  3  1  0  0  0  0
 14  3  2  0  0  0  0
 14 15  1  0  0  0  0
 15  9  2  0  0  0  0
 16 19  1  6  0  0  0
 16  2  1  0  0  0  0
 17 18  1  0  0  0  0
 18 16  1  0  0  0  0
 20 19  1  0  0  0  0
 20 21  1  0  0  0  0
 22 21  1  0  0  0  0
 22 23  1  0  0  0  0
 23 25  1  0  0  0  0
 24 23  2  0  0  0  0
 25 27  1  0  0  0  0
 27 26  1  1  0  0  0
 27 29  1  0  0  0  0
 29 28  1  0  0  0  0
M  END
>  <MODEL>
3

>  <REMARK>
 VINA RESULT:      -8.0      1.101      1.348
  Name = 
  11 active torsions:
  status: ('A' for Active; 'I' for Inactive)
    1  A    between atoms: C_4  and  N_12
    2  A    between atoms: C_4  and  N_13
    3  A    between atoms: C_10  and  C_14
    4  A    between atoms: C_10  and  C_29
    5  A    between atoms: N_12  and  N_20
    6  A    between atoms: N_13  and  C_22
    7  A    between atoms: C_19  and  C_23
    8  A    between atoms: C_19  and  C_29
    9  A    between atoms: N_20  and  C_23
   10  A    between atoms: C_22  and  O_27
   11  A    between atoms: C_28  and  C_29
                            x       y       z     vdW  Elec       q    Type
                         _______ _______ _______ _____ _____    ______ ____

>  <TORSDO>
F 11

$$$$
=
 OpenBabel11042411013D

 29 31  0  0  1  0  0  0  0  0999 V2000
  190.2270  175.3380  142.8610 O   0  0  0  0  0  1  0  0  0  0  0  0
  190.6320  176.1560  143.9190 C   0  0  2  0  0  3  0  0  0  0  0  0
  185.9620  178.0430  144.1700 C   0  0  0  0  0  0  0  0  0  0  0  0
  188.3780  177.5130  146.6800 C   0  0  0  0  0  3  0  0  0  0  0  0
  186.1230  178.3670  146.3670 O   0  0  0  0  0  0  0  0  0  0  0  0
  185.3390  178.4960  145.3150 C   0  0  0  0  0  0  0  0  0  0  0  0
  184.0440  179.0080  145.2810 C   0  0  0  0  0  3  0  0  0  0  0  0
  189.4270  176.7260  144.6040 C   0  0  0  0  0  0  0  0  0  0  0  0
  183.3890  179.0450  144.0350 C   0  0  0  0  0  3  0  0  0  0  0  0
  189.4740  176.9520  146.0000 C   0  0  0  0  0  3  0  0  0  0  0  0
  187.2500  177.8370  145.9320 C   0  0  0  0  0  0  0  0  0  0  0  0
  188.2720  177.0680  143.8680 C   0  0  0  0  0  3  0  0  0  0  0  0
  187.2030  177.6150  144.5720 C   0  0  0  0  0  0  0  0  0  0  0  0
  185.3400  178.0620  142.9250 C   0  0  0  0  0  3  0  0  0  0  0  0
  184.0320  178.5770  142.8670 C   0  0  0  0  0  3  0  0  0  0  0  0
  191.5840  177.2630  143.4320 C   0  0  2  0  0  3  0  0  0  0  0  0
  191.0660  179.6210  143.7860 N   0  0  0  0  0  1  0  0  0  0  0  0
  191.6510  178.4400  144.3990 C   0  0  0  0  0  2  0  0  0  0  0  0
  191.2370  177.7490  142.0170 C   0  0  0  0  0  2  0  0  0  0  0  0
  192.2680  177.3420  140.9690 C   0  0  0  0  0  2  0  0  0  0  0  0
  191.6830  177.3900  139.6390 N   0  0  0  0  0  2  0  0  0  0  0  0
  190.7640  176.3340  139.5500 N   0  0  0  0  0  2  0  0  0  0  0  0
  189.8340  176.2060  138.4670 C   0  0  0  0  0  0  0  0  0  0  0  0
  190.2560  175.3940  137.1000 S   0  0  0  0  0  0  0  0  0  0  0  0
  188.5260  176.7780  138.6200 N   0  0  0  0  0  2  0  0  0  0  0  0
  187.9830  178.3900  140.3890 C   0  0  0  0  0  1  0  0  0  0  0  0
  188.2210  178.1780  138.9040 C   0  0  2  0  0  3  0  0  0  0  0  0
  186.7380  177.4820  137.4150 C   0  0  0  0  0  1  0  0  0  0  0  0
  187.1120  178.5980  138.1660 O   0  0  0  0  0  0  0  0  0  0  0  0
  2  1  1  6  0  0  0
  2  8  1  0  0  0  0
  3 13  1  0  0  0  0
  3  6  1  0  0  0  0
  6  5  1  0  0  0  0
  7  6  2  0  0  0  0
  8 10  2  0  0  0  0
  9  7  1  0  0  0  0
 10  4  1  0  0  0  0
 11  5  1  0  0  0  0
 11  4  2  0  0  0  0
 12 13  2  0  0  0  0
 12  8  1  0  0  0  0
 13 11  1  0  0  0  0
 14  3  2  0  0  0  0
 15 14  1  0  0  0  0
 15  9  2  0  0  0  0
 16 19  1  6  0  0  0
 16  2  1  0  0  0  0
 16 18  1  0  0  0  0
 17 18  1  0  0  0  0
 20 19  1  0  0  0  0
 21 20  1  0  0  0  0
 22 21  1  0  0  0  0
 23 25  1  0  0  0  0
 23 22  1  0  0  0  0
 24 23  2  0  0  0  0
 25 27  1  0  0  0  0
 27 26  1  1  0  0  0
 28 29  1  0  0  0  0
 29 27  1  0  0  0  0
M  END
>  <MODEL>
4

>  <REMARK>
 VINA RESULT:      -8.0      2.040      5.353
  Name = 
  11 active torsions:
  status: ('A' for Active; 'I' for Inactive)
    1  A    between atoms: C_4  and  N_12
    2  A    between atoms: C_4  and  N_13
    3  A    between atoms: C_10  and  C_14
    4  A    between atoms: C_10  and  C_29
    5  A    between atoms: N_12  and  N_20
    6  A    between atoms: N_13  and  C_22
    7  A    between atoms: C_19  and  C_23
    8  A    between atoms: C_19  and  C_29
    9  A    between atoms: N_20  and  C_23
   10  A    between atoms: C_22  and  O_27
   11  A    between atoms: C_28  and  C_29
                            x       y       z     vdW  Elec       q    Type
                         _______ _______ _______ _____ _____    ______ ____

>  <TORSDO>
F 11

$$$$
=
 OpenBabel11042411013D

 29 31  0  0  1  0  0  0  0  0999 V2000
  182.9060  178.2980  141.6200 O   0  0  0  0  0  1  0  0  0  0  0  0
  184.2750  178.1060  141.8290 C   0  0  2  0  0  3  0  0  0  0  0  0
  187.1590  177.9170  145.9610 C   0  0  0  0  0  0  0  0  0  0  0  0
  183.8510  179.0400  145.5020 C   0  0  0  0  0  3  0  0  0  0  0  0
  185.5390  178.7650  147.2300 O   0  0  0  0  0  0  0  0  0  0  0  0
  186.7770  178.3120  147.2260 C   0  0  0  0  0  0  0  0  0  0  0  0
  187.6470  178.2140  148.3110 C   0  0  0  0  0  3  0  0  0  0  0  0
  184.5970  178.3160  143.2780 C   0  0  0  0  0  0  0  0  0  0  0  0
  188.9350  177.6990  148.0690 C   0  0  0  0  0  3  0  0  0  0  0  0
  183.6040  178.8530  144.1300 C   0  0  0  0  0  3  0  0  0  0  0  0
  185.1030  178.6760  145.9880 C   0  0  0  0  0  0  0  0  0  0  0  0
  185.8580  177.9510  143.7970 C   0  0  0  0  0  3  0  0  0  0  0  0
  186.0720  178.1540  145.1580 C   0  0  0  0  0  0  0  0  0  0  0  0
  188.4270  177.4090  145.6900 C   0  0  0  0  0  3  0  0  0  0  0  0
  189.3210  177.2990  146.7700 C   0  0  0  0  0  3  0  0  0  0  0  0
  185.1100  179.0290  140.9230 C   0  0  2  0  0  3  0  0  0  0  0  0
  184.2560  180.3310  139.0440 N   0  0  0  0  0  1  0  0  0  0  0  0
  184.6410  178.9970  139.4720 C   0  0  0  0  0  2  0  0  0  0  0  0
  186.6120  178.7250  141.0080 C   0  0  0  0  0  2  0  0  0  0  0  0
  187.2120  178.2720  139.6800 C   0  0  0  0  0  2  0  0  0  0  0  0
  188.6160  178.6430  139.6080 N   0  0  0  0  0  2  0  0  0  0  0  0
  189.3400  177.4800  139.3060 N   0  0  0  0  0  2  0  0  0  0  0  0
  190.0670  177.3160  138.0820 C   0  0  0  0  0  0  0  0  0  0  0  0
  191.4430  176.4150  138.0450 S   0  0  0  0  0  0  0  0  0  0  0  0
  189.5490  177.9330  136.8930 N   0  0  0  0  0  2  0  0  0  0  0  0
  187.2980  178.2200  135.9570 C   0  0  0  0  0  1  0  0  0  0  0  0
  188.5540  177.3660  135.9870 C   0  0  2  0  0  3  0  0  0  0  0  0
  186.8850  176.0810  136.6690 C   0  0  0  0  0  1  0  0  0  0  0  0
  188.2450  176.0550  136.3580 O   0  0  0  0  0  0  0  0  0  0  0  0
  2  1  1  1  0  0  0
  2  8  1  0  0  0  0
  3  6  1  0  0  0  0
  4 11  1  0  0  0  0
  6  5  1  0  0  0  0
  6  7  2  0  0  0  0
  8 12  2  0  0  0  0
  8 10  1  0  0  0  0
  9  7  1  0  0  0  0
 10  4  2  0  0  0  0
 11  5  1  0  0  0  0
 12 13  1  0  0  0  0
 13  3  1  0  0  0  0
 13 11  2  0  0  0  0
 14  3  2  0  0  0  0
 14 15  1  0  0  0  0
 15  9  2  0  0  0  0
 16 18  1  6  0  0  0
 16 19  1  0  0  0  0
 16  2  1  0  0  0  0
 17 18  1  0  0  0  0
 20 19  1  0  0  0  0
 21 20  1  0  0  0  0
 22 21  1  0  0  0  0
 23 22  1  0  0  0  0
 24 23  2  0  0  0  0
 25 23  1  0  0  0  0
 27 26  1  1  0  0  0
 27 29  1  0  0  0  0
 27 25  1  0  0  0  0
 29 28  1  0  0  0  0
M  END
>  <MODEL>
5

>  <REMARK>
 VINA RESULT:      -7.9      1.967      3.196
  Name = 
  11 active torsions:
  status: ('A' for Active; 'I' for Inactive)
    1  A    between atoms: C_4  and  N_12
    2  A    between atoms: C_4  and  N_13
    3  A    between atoms: C_10  and  C_14
    4  A    between atoms: C_10  and  C_29
    5  A    between atoms: N_12  and  N_20
    6  A    between atoms: N_13  and  C_22
    7  A    between atoms: C_19  and  C_23
    8  A    between atoms: C_19  and  C_29
    9  A    between atoms: N_20  and  C_23
   10  A    between atoms: C_22  and  O_27
   11  A    between atoms: C_28  and  C_29
                            x       y       z     vdW  Elec       q    Type
                         _______ _______ _______ _____ _____    ______ ____

>  <TORSDO>
F 11

$$$$
=
 OpenBabel11042411013D

 29 31  0  0  1  0  0  0  0  0999 V2000
  183.5820  178.9580  146.0990 O   0  0  0  0  0  1  0  0  0  0  0  0
  184.2870  178.3320  145.0680 C   0  0  2  0  0  3  0  0  0  0  0  0
  189.0820  176.8940  144.4610 C   0  0  0  0  0  0  0  0  0  0  0  0
  187.4280  178.3100  147.2310 C   0  0  0  0  0  3  0  0  0  0  0  0
  189.6100  177.4890  146.5410 O   0  0  0  0  0  0  0  0  0  0  0  0
  190.0720  176.9730  145.4190 C   0  0  0  0  0  0  0  0  0  0  0  0
  191.3710  176.5410  145.1570 C   0  0  0  0  0  3  0  0  0  0  0  0
  185.7150  178.1390  145.4800 C   0  0  0  0  0  0  0  0  0  0  0  0
  191.6410  176.0240  143.8760 C   0  0  0  0  0  3  0  0  0  0  0  0
  186.1060  178.5010  146.7900 C   0  0  0  0  0  3  0  0  0  0  0  0
  188.3340  177.7520  146.3340 C   0  0  0  0  0  0  0  0  0  0  0  0
  186.6520  177.5700  144.5910 C   0  0  0  0  0  3  0  0  0  0  0  0
  187.9540  177.4010  145.0550 C   0  0  0  0  0  0  0  0  0  0  0  0
  189.3190  176.3910  143.1840 C   0  0  0  0  0  3  0  0  0  0  0  0
  190.6230  175.9480  142.8980 C   0  0  0  0  0  3  0  0  0  0  0  0
  184.1780  179.1310  143.7570 C   0  0  2  0  0  3  0  0  0  0  0  0
  181.8580  178.9470  143.0230 N   0  0  0  0  0  1  0  0  0  0  0  0
  182.8360  179.8410  143.6190 C   0  0  0  0  0  2  0  0  0  0  0  0
  184.4550  178.2620  142.5210 C   0  0  0  0  0  2  0  0  0  0  0  0
  185.1430  179.0230  141.3910 C   0  0  0  0  0  2  0  0  0  0  0  0
  184.1890  179.3360  140.3390 N   0  0  0  0  0  2  0  0  0  0  0  0
  184.9230  179.5700  139.1660 N   0  0  0  0  0  2  0  0  0  0  0  0
  185.4940  178.5120  138.3870 C   0  0  0  0  0  0  0  0  0  0  0  0
  184.5330  177.3550  137.7220 S   0  0  0  0  0  0  0  0  0  0  0  0
  186.9160  178.5080  138.1810 N   0  0  0  0  0  2  0  0  0  0  0  0
  188.5400  178.3320  140.0130 C   0  0  0  0  0  1  0  0  0  0  0  0
  187.8830  177.6310  138.8370 C   0  0  2  0  0  3  0  0  0  0  0  0
  190.0700  177.4540  138.5450 C   0  0  0  0  0  1  0  0  0  0  0  0
  188.8470  177.1970  137.9240 O   0  0  0  0  0  0  0  0  0  0  0  0
  2  8  1  0  0  0  0
  2  1  1  1  0  0  0
  3 13  1  0  0  0  0
  3  6  1  0  0  0  0
  6  5  1  0  0  0  0
  7  6  2  0  0  0  0
  8 10  2  0  0  0  0
  9  7  1  0  0  0  0
 10  4  1  0  0  0  0
 11  5  1  0  0  0  0
 11  4  2  0  0  0  0
 12 13  2  0  0  0  0
 12  8  1  0  0  0  0
 13 11  1  0  0  0  0
 14  3  2  0  0  0  0
 15 14  1  0  0  0  0
 15  9  2  0  0  0  0
 16 19  1  6  0  0  0
 16  2  1  0  0  0  0
 17 18  1  0  0  0  0
 18 16  1  0  0  0  0
 20 19  1  0  0  0  0
 21 20  1  0  0  0  0
 22 21  1  0  0  0  0
 23 22  1  0  0  0  0
 24 23  2  0  0  0  0
 25 23  1  0  0  0  0
 25 27  1  0  0  0  0
 27 26  1  1  0  0  0
 29 28  1  0  0  0  0
 29 27  1  0  0  0  0
M  END
>  <MODEL>
6

>  <REMARK>
 VINA RESULT:      -7.9      2.332      4.363
  Name = 
  11 active torsions:
  status: ('A' for Active; 'I' for Inactive)
    1  A    between atoms: C_4  and  N_12
    2  A    between atoms: C_4  and  N_13
    3  A    between atoms: C_10  and  C_14
    4  A    between atoms: C_10  and  C_29
    5  A    between atoms: N_12  and  N_20
    6  A    between atoms: N_13  and  C_22
    7  A    between atoms: C_19  and  C_23
    8  A    between atoms: C_19  and  C_29
    9  A    between atoms: N_20  and  C_23
   10  A    between atoms: C_22  and  O_27
   11  A    between atoms: C_28  and  C_29
                            x       y       z     vdW  Elec       q    Type
                         _______ _______ _______ _____ _____    ______ ____

>  <TORSDO>
F 11

$$$$
=
 OpenBabel11042411013D

 29 31  0  0  1  0  0  0  0  0999 V2000
  183.1440  178.1600  141.5460 O   0  0  0  0  0  1  0  0  0  0  0  0
  184.5150  178.0080  141.7750 C   0  0  2  0  0  3  0  0  0  0  0  0
  187.3250  177.8790  145.9600 C   0  0  0  0  0  0  0  0  0  0  0  0
  184.0280  179.0010  145.4250 C   0  0  0  0  0  3  0  0  0  0  0  0
  185.6850  178.7510  147.1870 O   0  0  0  0  0  0  0  0  0  0  0  0
  186.9220  178.2950  147.2120 C   0  0  0  0  0  0  0  0  0  0  0  0
  187.7720  178.2120  148.3130 C   0  0  0  0  0  3  0  0  0  0  0  0
  184.8120  178.2400  143.2260 C   0  0  0  0  0  0  0  0  0  0  0  0
  189.0630  177.6910  148.1030 C   0  0  0  0  0  3  0  0  0  0  0  0
  183.8050  178.7930  144.0520 C   0  0  0  0  0  3  0  0  0  0  0  0
  185.2710  178.6430  145.9390 C   0  0  0  0  0  0  0  0  0  0  0  0
  186.0620  177.8810  143.7730 C   0  0  0  0  0  3  0  0  0  0  0  0
  186.2530  178.1050  145.1340 C   0  0  0  0  0  0  0  0  0  0  0  0
  188.5960  177.3640  145.7200 C   0  0  0  0  0  3  0  0  0  0  0  0
  189.4710  177.2690  146.8180 C   0  0  0  0  0  3  0  0  0  0  0  0
  185.3360  178.9450  140.8710 C   0  0  2  0  0  3  0  0  0  0  0  0
  184.2200  180.1830  139.0890 N   0  0  0  0  0  1  0  0  0  0  0  0
  184.8580  178.9210  139.4230 C   0  0  0  0  0  2  0  0  0  0  0  0
  186.8420  178.6530  140.9440 C   0  0  0  0  0  2  0  0  0  0  0  0
  187.4390  178.2270  139.6060 C   0  0  0  0  0  2  0  0  0  0  0  0
  188.6380  178.9970  139.3200 N   0  0  0  0  0  2  0  0  0  0  0  0
  189.4370  178.2240  138.4640 N   0  0  0  0  0  2  0  0  0  0  0  0
  190.1400  177.0570  138.9060 C   0  0  0  0  0  0  0  0  0  0  0  0
  190.8260  177.0140  140.4010 S   0  0  0  0  0  0  0  0  0  0  0  0
  190.2030  175.9250  138.0250 N   0  0  0  0  0  2  0  0  0  0  0  0
  192.5080  175.5200  137.2860 C   0  0  0  0  0  1  0  0  0  0  0  0
  191.2780  174.9380  137.9600 C   0  0  2  0  0  3  0  0  0  0  0  0
  189.4900  174.0000  137.0510 C   0  0  0  0  0  1  0  0  0  0  0  0
  190.8490  173.7900  137.2890 O   0  0  0  0  0  0  0  0  0  0  0  0
  2  1  1  1  0  0  0
  2  8  1  0  0  0  0
  3  6  1  0  0  0  0
  4 11  1  0  0  0  0
  5  6  1  0  0  0  0
  6  7  2  0  0  0  0
  8 12  2  0  0  0  0
  8 10  1  0  0  0  0
  9  7  1  0  0  0  0
 10  4  2  0  0  0  0
 11  5  1  0  0  0  0
 12 13  1  0  0  0  0
 13 11  2  0  0  0  0
 13  3  1  0  0  0  0
 14  3  2  0  0  0  0
 14 15  1  0  0  0  0
 15  9  2  0  0  0  0
 16 18  1  6  0  0  0
 16 19  1  0  0  0  0
 16  2  1  0  0  0  0
 17 18  1  0  0  0  0
 20 19  1  0  0  0  0
 21 20  1  0  0  0  0
 22 23  1  0  0  0  0
 22 21  1  0  0  0  0
 23 24  2  0  0  0  0
 25 23  1  0  0  0  0
 27 26  1  6  0  0  0
 27 25  1  0  0  0  0
 28 29  1  0  0  0  0
 29 27  1  0  0  0  0
M  END
>  <MODEL>
7

>  <REMARK>
 VINA RESULT:      -7.9      1.931      2.638
  Name = 
  11 active torsions:
  status: ('A' for Active; 'I' for Inactive)
    1  A    between atoms: C_4  and  N_12
    2  A    between atoms: C_4  and  N_13
    3  A    between atoms: C_10  and  C_14
    4  A    between atoms: C_10  and  C_29
    5  A    between atoms: N_12  and  N_20
    6  A    between atoms: N_13  and  C_22
    7  A    between atoms: C_19  and  C_23
    8  A    between atoms: C_19  and  C_29
    9  A    between atoms: N_20  and  C_23
   10  A    between atoms: C_22  and  O_27
   11  A    between atoms: C_28  and  C_29
                            x       y       z     vdW  Elec       q    Type
                         _______ _______ _______ _____ _____    ______ ____

>  <TORSDO>
F 11

$$$$
=
 OpenBabel11042411013D

 29 31  0  0  1  0  0  0  0  0999 V2000
  189.3990  176.3720  147.3470 O   0  0  0  0  0  1  0  0  0  0  0  0
  189.3030  177.4770  146.4970 C   0  0  2  0  0  3  0  0  0  0  0  0
  185.0480  178.3330  143.9300 C   0  0  0  0  0  0  0  0  0  0  0  0
  185.7860  178.6760  147.3580 C   0  0  0  0  0  3  0  0  0  0  0  0
  183.9710  178.9770  145.7690 O   0  0  0  0  0  0  0  0  0  0  0  0
  183.8630  178.7910  144.4680 C   0  0  0  0  0  0  0  0  0  0  0  0
  182.7390  179.0040  143.6720 C   0  0  0  0  0  3  0  0  0  0  0  0
  187.8630  177.8620  146.3330 C   0  0  0  0  0  0  0  0  0  0  0  0
  182.8530  178.7310  142.2950 C   0  0  0  0  0  3  0  0  0  0  0  0
  187.1310  178.2780  147.4690 C   0  0  0  0  0  3  0  0  0  0  0  0
  185.2060  178.6470  146.0930 C   0  0  0  0  0  0  0  0  0  0  0  0
  187.2530  177.8450  145.0600 C   0  0  0  0  0  3  0  0  0  0  0  0
  185.9190  178.2390  144.9850 C   0  0  0  0  0  0  0  0  0  0  0  0
  185.1910  178.0500  142.5740 C   0  0  0  0  0  3  0  0  0  0  0  0
  184.0690  178.2600  141.7510 C   0  0  0  0  0  3  0  0  0  0  0  0
  189.9730  177.1950  145.1410 C   0  0  2  0  0  3  0  0  0  0  0  0
  192.0530  176.8520  146.3700 N   0  0  0  0  0  1  0  0  0  0  0  0
  191.2340  176.3490  145.2810 C   0  0  0  0  0  2  0  0  0  0  0  0
  190.2750  178.4830  144.3610 C   0  0  0  0  0  2  0  0  0  0  0  0
  190.2790  178.2850  142.8480 C   0  0  0  0  0  2  0  0  0  0  0  0
  189.2610  177.3210  142.4620 N   0  0  0  0  0  2  0  0  0  0  0  0
  189.6440  176.7830  141.2240 N   0  0  0  0  0  2  0  0  0  0  0  0
  189.4950  177.4970  139.9910 C   0  0  0  0  0  0  0  0  0  0  0  0
  188.0800  178.2560  139.6330 S   0  0  0  0  0  0  0  0  0  0  0  0
  190.6180  177.5550  139.0970 N   0  0  0  0  0  2  0  0  0  0  0  0
  189.7880  177.0680  136.8390 C   0  0  0  0  0  1  0  0  0  0  0  0
  190.8180  176.7350  137.9050 C   0  0  2  0  0  3  0  0  0  0  0  0
  192.0080  174.8690  137.8480 C   0  0  0  0  0  1  0  0  0  0  0  0
  190.7660  175.3770  138.2290 O   0  0  0  0  0  0  0  0  0  0  0  0
  2  1  1  1  0  0  0
  3  6  1  0  0  0  0
  3 13  1  0  0  0  0
  4 10  1  0  0  0  0
  5 11  1  0  0  0  0
  6  5  1  0  0  0  0
  7  6  2  0  0  0  0
  8  2  1  0  0  0  0
  8 10  2  0  0  0  0
  9  7  1  0  0  0  0
 11  4  2  0  0  0  0
 12  8  1  0  0  0  0
 13 12  2  0  0  0  0
 13 11  1  0  0  0  0
 14  3  2  0  0  0  0
 15  9  2  0  0  0  0
 15 14  1  0  0  0  0
 16 19  1  1  0  0  0
 16 18  1  0  0  0  0
 16  2  1  0  0  0  0
 18 17  1  0  0  0  0
 20 19  1  0  0  0  0
 21 20  1  0  0  0  0
 22 21  1  0  0  0  0
 23 22  1  0  0  0  0
 24 23  2  0  0  0  0
 25 23  1  0  0  0  0
 27 26  1  6  0  0  0
 27 29  1  0  0  0  0
 27 25  1  0  0  0  0
 28 29  1  0  0  0  0
M  END
>  <MODEL>
8

>  <REMARK>
 VINA RESULT:      -7.8      2.288      5.549
  Name = 
  11 active torsions:
  status: ('A' for Active; 'I' for Inactive)
    1  A    between atoms: C_4  and  N_12
    2  A    between atoms: C_4  and  N_13
    3  A    between atoms: C_10  and  C_14
    4  A    between atoms: C_10  and  C_29
    5  A    between atoms: N_12  and  N_20
    6  A    between atoms: N_13  and  C_22
    7  A    between atoms: C_19  and  C_23
    8  A    between atoms: C_19  and  C_29
    9  A    between atoms: N_20  and  C_23
   10  A    between atoms: C_22  and  O_27
   11  A    between atoms: C_28  and  C_29
                            x       y       z     vdW  Elec       q    Type
                         _______ _______ _______ _____ _____    ______ ____

>  <TORSDO>
F 11

$$$$
=
 OpenBabel11042411013D

 29 31  0  0  1  0  0  0  0  0999 V2000
  189.9520  175.1310  142.9230 O   0  0  0  0  0  1  0  0  0  0  0  0
  190.3200  176.2560  143.6670 C   0  0  2  0  0  3  0  0  0  0  0  0
  185.6350  178.0880  144.0150 C   0  0  0  0  0  0  0  0  0  0  0  0
  188.0920  177.5440  146.4820 C   0  0  0  0  0  3  0  0  0  0  0  0
  185.8240  178.3790  146.2150 O   0  0  0  0  0  0  0  0  0  0  0  0
  185.0230  178.5160  145.1760 C   0  0  0  0  0  0  0  0  0  0  0  0
  183.7220  179.0150  145.1690 C   0  0  0  0  0  3  0  0  0  0  0  0
  189.1190  176.8020  144.3780 C   0  0  0  0  0  0  0  0  0  0  0  0
  183.0490  179.0650  143.9340 C   0  0  0  0  0  3  0  0  0  0  0  0
  189.1840  177.0060  145.7760 C   0  0  0  0  0  3  0  0  0  0  0  0
  186.9500  177.8680  145.7550 C   0  0  0  0  0  0  0  0  0  0  0  0
  187.9500  177.1430  143.6640 C   0  0  0  0  0  3  0  0  0  0  0  0
  186.8850  177.6670  144.3920 C   0  0  0  0  0  0  0  0  0  0  0  0
  184.9930  178.1210  142.7800 C   0  0  0  0  0  3  0  0  0  0  0  0
  183.6790  178.6220  142.7490 C   0  0  0  0  0  3  0  0  0  0  0  0
  190.9830  177.3200  142.7750 C   0  0  2  0  0  3  0  0  0  0  0  0
  191.3660  179.4070  143.9780 N   0  0  0  0  0  1  0  0  0  0  0  0
  190.4670  178.7250  143.0640 C   0  0  0  0  0  2  0  0  0  0  0  0
  190.8470  176.9950  141.2800 C   0  0  0  0  0  2  0  0  0  0  0  0
  189.9820  177.9970  140.5210 C   0  0  0  0  0  2  0  0  0  0  0  0
  189.2050  177.3200  139.4970 N   0  0  0  0  0  2  0  0  0  0  0  0
  188.3020  178.2560  138.9710 N   0  0  0  0  0  2  0  0  0  0  0  0
  187.2030  177.8840  138.1310 C   0  0  0  0  0  0  0  0  0  0  0  0
  187.2380  176.4710  137.2900 S   0  0  0  0  0  0  0  0  0  0  0  0
  186.0670  178.7600  138.0670 N   0  0  0  0  0  2  0  0  0  0  0  0
  183.8520  177.8290  138.5690 C   0  0  0  0  0  1  0  0  0  0  0  0
  184.9440  178.7920  139.0010 C   0  0  2  0  0  3  0  0  0  0  0  0
  183.0620  179.9230  139.2840 C   0  0  0  0  0  1  0  0  0  0  0  0
  184.4380  180.0890  139.1150 O   0  0  0  0  0  0  0  0  0  0  0  0
  2  1  1  6  0  0  0
  2  8  1  0  0  0  0
  3 13  1  0  0  0  0
  3  6  1  0  0  0  0
  6  5  1  0  0  0  0
  7  6  2  0  0  0  0
  8 10  2  0  0  0  0
  9  7  1  0  0  0  0
 10  4  1  0  0  0  0
 11  5  1  0  0  0  0
 11  4  2  0  0  0  0
 12  8  1  0  0  0  0
 12 13  2  0  0  0  0
 13 11  1  0  0  0  0
 14  3  2  0  0  0  0
 15 14  1  0  0  0  0
 15  9  2  0  0  0  0
 16 19  1  6  0  0  0
 16 18  1  0  0  0  0
 16  2  1  0  0  0  0
 18 17  1  0  0  0  0
 20 19  1  0  0  0  0
 21 20  1  0  0  0  0
 22 21  1  0  0  0  0
 23 22  1  0  0  0  0
 24 23  2  0  0  0  0
 25 23  1  0  0  0  0
 25 27  1  0  0  0  0
 27 26  1  6  0  0  0
 27 29  1  0  0  0  0
 29 28  1  0  0  0  0
M  END
>  <MODEL>
9

>  <REMARK>
 VINA RESULT:      -7.8      1.608      5.765
  Name = 
  11 active torsions:
  status: ('A' for Active; 'I' for Inactive)
    1  A    between atoms: C_4  and  N_12
    2  A    between atoms: C_4  and  N_13
    3  A    between atoms: C_10  and  C_14
    4  A    between atoms: C_10  and  C_29
    5  A    between atoms: N_12  and  N_20
    6  A    between atoms: N_13  and  C_22
    7  A    between atoms: C_19  and  C_23
    8  A    between atoms: C_19  and  C_29
    9  A    between atoms: N_20  and  C_23
   10  A    between atoms: C_22  and  O_27
   11  A    between atoms: C_28  and  C_29
                            x       y       z     vdW  Elec       q    Type
                         _______ _______ _______ _____ _____    ______ ____

>  <TORSDO>
F 11

$$$$
