=
 OpenBabel11032420153D

 28 31  0  0  1  0  0  0  0  0999 V2000
  188.9960  177.6530  138.6220 C   0  0  0  0  0  0  0  0  0  0  0  0
  190.9330  177.1460  139.9720 C   0  0  0  0  0  3  0  0  0  0  0  0
  188.4200  177.8730  137.3790 O   0  0  0  0  0  1  0  0  0  0  0  0
  188.7760  177.5000  141.0430 C   0  0  0  0  0  0  0  0  0  0  0  0
  190.1660  177.2270  141.1430 C   0  0  0  0  0  0  0  0  0  0  0  0
  190.3540  177.3540  138.7200 C   0  0  0  0  0  3  0  0  0  0  0  0
  188.2120  177.7180  139.7760 C   0  0  0  0  0  3  0  0  0  0  0  0
  188.1640  176.8500  144.5730 C   0  0  0  0  0  3  0  0  0  0  0  0
  185.8070  178.4160  143.3150 C   0  0  0  0  0  0  0  0  0  0  0  0
  184.8870  178.3070  145.6480 C   0  0  2  0  0  3  0  0  0  0  0  0
  183.3520  178.7530  143.7500 C   0  0  0  0  0  2  0  0  0  0  0  0
  186.0050  178.1370  144.6350 C   0  0  0  0  0  0  0  0  0  0  0  0
  183.7250  179.1630  145.1580 C   0  0  0  0  0  2  0  0  0  0  0  0
  185.3720  178.8420  146.8290 F   0  0  0  0  0  0  0  0  0  0  0  0
  186.8510  178.3360  142.2690 C   0  0  0  0  0  3  0  0  0  0  0  0
  187.2740  177.6180  145.1980 C   0  0  0  0  0  3  0  0  0  0  0  0
  187.8710  177.4750  142.2140 C   0  0  0  0  0  0  0  0  0  0  0  0
  187.9750  176.3460  143.1860 C   0  0  0  0  0  2  0  0  0  0  0  0
  184.5310  179.0590  142.8420 C   0  0  0  0  0  2  0  0  0  0  0  0
  191.4450  176.7610  145.1860 N   0  0  0  0  0  0  0  0  0  0  0  0
  191.0930  175.8670  142.9470 C   0  0  0  0  0  3  0  0  0  0  0  0
  190.8690  177.0860  142.4340 C   0  0  0  0  0  0  0  0  0  0  0  0
  191.7950  175.6860  144.2610 C   0  0  0  0  0  2  0  0  0  0  0  0
  190.9890  179.0460  145.4610 O   0  0  0  0  0  0  0  0  0  0  0  0
  191.2120  178.0850  144.6780 C   0  0  0  0  0  0  0  0  0  0  0  0
  191.2590  178.3260  143.2000 C   0  0  0  0  0  2  0  0  0  0  0  0
  192.5010  175.6720  146.9600 O   0  0  0  0  0  1  0  0  0  0  0  0
  191.4130  176.4750  146.6130 C   0  0  0  0  0  2  0  0  0  0  0  0
  1  6  2  0  0  0  0
  1  7  1  0  0  0  0
  2  5  2  0  0  0  0
  3  1  1  0  0  0  0
  4  5  1  0  0  0  0
  4 17  1  0  0  0  0
  5 22  1  0  0  0  0
  6  2  1  0  0  0  0
  7  4  2  0  0  0  0
  8 16  2  0  0  0  0
  9 12  2  0  0  0  0
 10 14  1  1  0  0  0
 11 13  1  0  0  0  0
 12 16  1  0  0  0  0
 12 10  1  0  0  0  0
 13 10  1  0  0  0  0
 15  9  1  0  0  0  0
 17 15  2  0  0  0  0
 17 18  1  0  0  0  0
 18  8  1  0  0  0  0
 19  9  1  0  0  0  0
 19 11  1  0  0  0  0
 20 28  1  0  0  0  0
 21 23  1  0  0  0  0
 22 21  2  0  0  0  0
 22 26  1  0  0  0  0
 23 20  1  0  0  0  0
 25 20  1  0  0  0  0
 25 24  2  0  0  0  0
 26 25  1  0  0  0  0
 28 27  1  0  0  0  0
M  END
>  <MODEL>
1

>  <REMARK>
 VINA RESULT:      -9.9      0.000      0.000
  Name = 
  3 active torsions:
  status: ('A' for Active; 'I' for Inactive)
    1  A    between atoms: N_8  and  C_12
    2  A    between atoms: C_15  and  C_23
    3  A    between atoms: C_17  and  C_21
                            x       y       z     vdW  Elec       q    Type
                         _______ _______ _______ _____ _____    ______ ____

>  <TORSDO>
F 3

$$$$
=
 OpenBabel11032420153D

 28 31  0  0  1  0  0  0  0  0999 V2000
  188.9210  176.9040  137.9580 C   0  0  0  0  0  0  0  0  0  0  0  0
  190.7320  176.3300  139.4500 C   0  0  0  0  0  3  0  0  0  0  0  0
  188.3720  176.9210  136.6840 O   0  0  0  0  0  1  0  0  0  0  0  0
  188.7520  177.4410  140.3280 C   0  0  0  0  0  0  0  0  0  0  0  0
  190.0430  176.8890  140.5360 C   0  0  0  0  0  0  0  0  0  0  0  0
  190.1760  176.3340  138.1700 C   0  0  0  0  0  3  0  0  0  0  0  0
  188.2120  177.4470  139.0310 C   0  0  0  0  0  3  0  0  0  0  0  0
  185.7680  179.1420  141.5350 C   0  0  0  0  0  3  0  0  0  0  0  0
  187.2060  177.6640  143.8450 C   0  0  0  0  0  0  0  0  0  0  0  0
  185.2960  178.5640  145.2030 C   0  0  2  0  0  3  0  0  0  0  0  0
  187.3750  177.8430  146.3490 C   0  0  0  0  0  2  0  0  0  0  0  0
  185.9840  178.2700  143.8830 C   0  0  0  0  0  0  0  0  0  0  0  0
  185.8630  177.7930  146.3900 C   0  0  0  0  0  2  0  0  0  0  0  0
  183.9370  178.3150  145.1150 F   0  0  0  0  0  0  0  0  0  0  0  0
  187.9230  177.2870  142.6080 C   0  0  0  0  0  3  0  0  0  0  0  0
  185.2410  178.7260  142.6840 C   0  0  0  0  0  3  0  0  0  0  0  0
  187.9050  177.9320  141.4370 C   0  0  0  0  0  0  0  0  0  0  0  0
  187.2330  179.2590  141.3040 C   0  0  0  0  0  2  0  0  0  0  0  0
  187.8380  177.1180  145.0970 C   0  0  0  0  0  2  0  0  0  0  0  0
  191.3060  177.1800  144.6010 N   0  0  0  0  0  0  0  0  0  0  0  0
  190.7210  175.8540  142.6410 C   0  0  0  0  0  3  0  0  0  0  0  0
  190.7370  176.9290  141.8390 C   0  0  0  0  0  0  0  0  0  0  0  0
  191.4060  175.8620  143.9780 C   0  0  0  0  0  2  0  0  0  0  0  0
  191.3330  179.5060  144.2930 O   0  0  0  0  0  0  0  0  0  0  0  0
  191.3350  178.3570  143.7770 C   0  0  0  0  0  0  0  0  0  0  0  0
  191.3910  178.2130  142.2860 C   0  0  0  0  0  2  0  0  0  0  0  0
  192.2200  176.4260  146.6120 O   0  0  0  0  0  1  0  0  0  0  0  0
  191.2550  177.2660  146.0520 C   0  0  0  0  0  2  0  0  0  0  0  0
  1  6  2  0  0  0  0
  1  7  1  0  0  0  0
  2  5  2  0  0  0  0
  3  1  1  0  0  0  0
  4  5  1  0  0  0  0
  4 17  1  0  0  0  0
  5 22  1  0  0  0  0
  6  2  1  0  0  0  0
  7  4  2  0  0  0  0
  8 16  2  0  0  0  0
  9 12  2  0  0  0  0
  9 19  1  0  0  0  0
 10 14  1  6  0  0  0
 10 13  1  0  0  0  0
 11 13  1  0  0  0  0
 12 10  1  0  0  0  0
 15  9  1  0  0  0  0
 16 12  1  0  0  0  0
 17 15  2  0  0  0  0
 18 17  1  0  0  0  0
 18  8  1  0  0  0  0
 19 11  1  0  0  0  0
 20 28  1  0  0  0  0
 21 23  1  0  0  0  0
 22 26  1  0  0  0  0
 22 21  2  0  0  0  0
 23 20  1  0  0  0  0
 25 24  2  0  0  0  0
 25 20  1  0  0  0  0
 26 25  1  0  0  0  0
 28 27  1  0  0  0  0
M  END
>  <MODEL>
2

>  <REMARK>
 VINA RESULT:      -9.6      1.061      2.081
  Name = 
  3 active torsions:
  status: ('A' for Active; 'I' for Inactive)
    1  A    between atoms: N_8  and  C_12
    2  A    between atoms: C_15  and  C_23
    3  A    between atoms: C_17  and  C_21
                            x       y       z     vdW  Elec       q    Type
                         _______ _______ _______ _____ _____    ______ ____

>  <TORSDO>
F 3

$$$$
=
 OpenBabel11032420153D

 28 31  0  0  1  0  0  0  0  0999 V2000
  183.0350  178.8060  142.7000 C   0  0  0  0  0  0  0  0  0  0  0  0
  184.6040  178.9410  140.8700 C   0  0  0  0  0  3  0  0  0  0  0  0
  181.7440  178.9400  143.1900 O   0  0  0  0  0  1  0  0  0  0  0  0
  185.3780  178.2590  143.0750 C   0  0  0  0  0  0  0  0  0  0  0  0
  185.6550  178.5540  141.7140 C   0  0  0  0  0  0  0  0  0  0  0  0
  183.3030  179.0650  141.3570 C   0  0  0  0  0  3  0  0  0  0  0  0
  184.0650  178.4000  143.5500 C   0  0  0  0  0  3  0  0  0  0  0  0
  188.4060  176.3330  143.6900 C   0  0  0  0  0  3  0  0  0  0  0  0
  187.6170  177.9770  146.1930 C   0  0  0  0  0  0  0  0  0  0  0  0
  189.6940  176.9450  147.1520 C   0  0  2  0  0  3  0  0  0  0  0  0
  187.9710  177.8660  148.6820 C   0  0  0  0  0  2  0  0  0  0  0  0
  188.7660  177.2690  145.9960 C   0  0  0  0  0  0  0  0  0  0  0  0
  189.4560  177.7860  148.4000 C   0  0  0  0  0  2  0  0  0  0  0  0
  191.0180  177.0730  146.7700 F   0  0  0  0  0  0  0  0  0  0  0  0
  186.6840  178.3890  145.1210 C   0  0  0  0  0  3  0  0  0  0  0  0
  189.1970  176.7260  144.6860 C   0  0  0  0  0  3  0  0  0  0  0  0
  186.4010  177.7200  143.9990 C   0  0  0  0  0  0  0  0  0  0  0  0
  186.9210  176.3380  143.7780 C   0  0  0  0  0  2  0  0  0  0  0  0
  187.3110  178.6020  147.5280 C   0  0  0  0  0  2  0  0  0  0  0  0
  189.6710  177.8010  140.4860 N   0  0  0  0  0  0  0  0  0  0  0  0
  187.2760  177.8230  140.0400 C   0  0  0  0  0  3  0  0  0  0  0  0
  187.0180  178.5360  141.1460 C   0  0  0  0  0  0  0  0  0  0  0  0
  188.6510  177.7720  139.4410 C   0  0  0  0  0  2  0  0  0  0  0  0
  190.3350  178.6750  142.5600 O   0  0  0  0  0  0  0  0  0  0  0  0
  189.4400  178.5660  141.6800 C   0  0  0  0  0  0  0  0  0  0  0  0
  188.1260  179.2630  141.8670 C   0  0  0  0  0  2  0  0  0  0  0  0
  190.7180  175.9970  139.4380 O   0  0  0  0  0  1  0  0  0  0  0  0
  190.9300  177.1090  140.2550 C   0  0  0  0  0  2  0  0  0  0  0  0
  1  3  1  0  0  0  0
  1  7  1  0  0  0  0
  2  6  1  0  0  0  0
  2  5  2  0  0  0  0
  4  7  2  0  0  0  0
  4 17  1  0  0  0  0
  5  4  1  0  0  0  0
  6  1  2  0  0  0  0
  8 18  1  0  0  0  0
  8 16  2  0  0  0  0
  9 19  1  0  0  0  0
 10 14  1  6  0  0  0
 10 13  1  0  0  0  0
 12  9  2  0  0  0  0
 12 10  1  0  0  0  0
 13 11  1  0  0  0  0
 15  9  1  0  0  0  0
 16 12  1  0  0  0  0
 17 15  2  0  0  0  0
 18 17  1  0  0  0  0
 19 11  1  0  0  0  0
 20 25  1  0  0  0  0
 21 22  2  0  0  0  0
 22  5  1  0  0  0  0
 22 26  1  0  0  0  0
 23 21  1  0  0  0  0
 23 20  1  0  0  0  0
 25 26  1  0  0  0  0
 25 24  2  0  0  0  0
 27 28  1  0  0  0  0
 28 20  1  0  0  0  0
M  END
>  <MODEL>
3

>  <REMARK>
 VINA RESULT:      -8.6      2.811      5.271
  Name = 
  3 active torsions:
  status: ('A' for Active; 'I' for Inactive)
    1  A    between atoms: N_8  and  C_12
    2  A    between atoms: C_15  and  C_23
    3  A    between atoms: C_17  and  C_21
                            x       y       z     vdW  Elec       q    Type
                         _______ _______ _______ _____ _____    ______ ____

>  <TORSDO>
F 3

$$$$
=
 OpenBabel11032420153D

 28 31  0  0  1  0  0  0  0  0999 V2000
  192.3410  177.0490  139.2660 C   0  0  0  0  0  0  0  0  0  0  0  0
  189.9490  177.3820  139.2250 C   0  0  0  0  0  3  0  0  0  0  0  0
  193.5410  176.8610  138.5960 O   0  0  0  0  0  1  0  0  0  0  0  0
  191.1170  177.2800  141.3590 C   0  0  0  0  0  0  0  0  0  0  0  0
  189.9070  177.4080  140.6270 C   0  0  0  0  0  0  0  0  0  0  0  0
  191.1570  177.2060  138.5480 C   0  0  0  0  0  3  0  0  0  0  0  0
  192.3210  177.0930  140.6610 C   0  0  0  0  0  3  0  0  0  0  0  0
  190.1810  179.0120  144.4220 C   0  0  0  0  0  3  0  0  0  0  0  0
  191.5310  176.2980  145.0570 C   0  0  0  0  0  0  0  0  0  0  0  0
  191.0870  176.9790  147.4320 C   0  0  2  0  0  3  0  0  0  0  0  0
  192.8050  175.2530  146.9590 C   0  0  0  0  0  2  0  0  0  0  0  0
  190.9110  177.1400  145.9330 C   0  0  0  0  0  0  0  0  0  0  0  0
  191.6430  175.6240  147.8550 C   0  0  0  0  0  2  0  0  0  0  0  0
  189.8910  177.1980  148.0930 F   0  0  0  0  0  0  0  0  0  0  0  0
  191.3720  176.3430  143.5870 C   0  0  0  0  0  3  0  0  0  0  0  0
  190.0600  178.2850  145.5310 C   0  0  0  0  0  3  0  0  0  0  0  0
  191.1790  177.4270  142.8300 C   0  0  0  0  0  0  0  0  0  0  0  0
  191.2580  178.7970  143.4190 C   0  0  0  0  0  2  0  0  0  0  0  0
  192.2750  175.0840  145.5450 C   0  0  0  0  0  2  0  0  0  0  0  0
  186.4410  178.2320  142.9740 N   0  0  0  0  0  0  0  0  0  0  0  0
  187.7400  178.4910  140.9290 C   0  0  0  0  0  3  0  0  0  0  0  0
  188.5810  177.5050  141.2700 C   0  0  0  0  0  0  0  0  0  0  0  0
  186.3880  178.6280  141.5690 C   0  0  0  0  0  2  0  0  0  0  0  0
  187.3240  176.7530  144.5670 O   0  0  0  0  0  0  0  0  0  0  0  0
  187.3190  177.1690  143.3780 C   0  0  0  0  0  0  0  0  0  0  0  0
  188.2210  176.5320  142.3650 C   0  0  0  0  0  2  0  0  0  0  0  0
  184.2820  178.2890  143.8570 O   0  0  0  0  0  1  0  0  0  0  0  0
  185.5440  178.8810  143.9180 C   0  0  0  0  0  2  0  0  0  0  0  0
  1  7  1  0  0  0  0
  2  5  2  0  0  0  0
  3  1  1  0  0  0  0
  4 17  1  0  0  0  0
  5 22  1  0  0  0  0
  5  4  1  0  0  0  0
  6  2  1  0  0  0  0
  6  1  2  0  0  0  0
  7  4  2  0  0  0  0
  8 16  2  0  0  0  0
  9 19  1  0  0  0  0
  9 12  2  0  0  0  0
 10 13  1  0  0  0  0
 10 14  1  1  0  0  0
 11 13  1  0  0  0  0
 12 10  1  0  0  0  0
 15  9  1  0  0  0  0
 16 12  1  0  0  0  0
 17 18  1  0  0  0  0
 17 15  2  0  0  0  0
 18  8  1  0  0  0  0
 19 11  1  0  0  0  0
 20 25  1  0  0  0  0
 20 28  1  0  0  0  0
 21 22  2  0  0  0  0
 21 23  1  0  0  0  0
 22 26  1  0  0  0  0
 23 20  1  0  0  0  0
 25 24  2  0  0  0  0
 26 25  1  0  0  0  0
 27 28  1  0  0  0  0
M  END
>  <MODEL>
4

>  <REMARK>
 VINA RESULT:      -8.6      2.555      5.474
  Name = 
  3 active torsions:
  status: ('A' for Active; 'I' for Inactive)
    1  A    between atoms: N_8  and  C_12
    2  A    between atoms: C_15  and  C_23
    3  A    between atoms: C_17  and  C_21
                            x       y       z     vdW  Elec       q    Type
                         _______ _______ _______ _____ _____    ______ ____

>  <TORSDO>
F 3

$$$$
=
 OpenBabel11032420153D

 28 31  0  0  1  0  0  0  0  0999 V2000
  188.3640  177.9890  138.5240 C   0  0  0  0  0  0  0  0  0  0  0  0
  186.0440  178.2850  137.9210 C   0  0  0  0  0  3  0  0  0  0  0  0
  189.6860  177.7870  138.1550 O   0  0  0  0  0  1  0  0  0  0  0  0
  186.6930  178.3040  140.2670 C   0  0  0  0  0  0  0  0  0  0  0  0
  185.6820  178.3790  139.2720 C   0  0  0  0  0  0  0  0  0  0  0  0
  187.3750  178.0940  137.5470 C   0  0  0  0  0  3  0  0  0  0  0  0
  188.0250  178.1010  139.8730 C   0  0  0  0  0  3  0  0  0  0  0  0
  184.4620  179.3420  142.9510 C   0  0  0  0  0  3  0  0  0  0  0  0
  186.9480  177.8830  144.0840 C   0  0  0  0  0  0  0  0  0  0  0  0
  185.8120  178.2980  146.2840 C   0  0  2  0  0  3  0  0  0  0  0  0
  188.2450  177.8140  146.2390 C   0  0  0  0  0  2  0  0  0  0  0  0
  185.8310  178.2680  144.7670 C   0  0  0  0  0  0  0  0  0  0  0  0
  186.9390  177.5080  146.9390 C   0  0  0  0  0  2  0  0  0  0  0  0
  184.6000  177.8360  146.7680 F   0  0  0  0  0  0  0  0  0  0  0  0
  187.0400  177.7670  142.6120 C   0  0  0  0  0  3  0  0  0  0  0  0
  184.5750  178.7210  144.1240 C   0  0  0  0  0  3  0  0  0  0  0  0
  186.4160  178.5230  141.7040 C   0  0  0  0  0  0  0  0  0  0  0  0
  185.6320  179.7250  142.1160 C   0  0  0  0  0  2  0  0  0  0  0  0
  188.1400  177.3170  144.8070 C   0  0  0  0  0  2  0  0  0  0  0  0
  181.4190  178.3640  139.4480 N   0  0  0  0  0  0  0  0  0  0  0  0
  183.5800  177.4240  140.0680 C   0  0  0  0  0  3  0  0  0  0  0  0
  184.2440  178.4870  139.5900 C   0  0  0  0  0  0  0  0  0  0  0  0
  182.1160  177.4930  140.3920 C   0  0  0  0  0  2  0  0  0  0  0  0
  181.4870  180.3340  138.1750 O   0  0  0  0  0  0  0  0  0  0  0  0
  182.0900  179.5220  138.9250 C   0  0  0  0  0  0  0  0  0  0  0  0
  183.5200  179.7770  139.2970 C   0  0  0  0  0  2  0  0  0  0  0  0
  179.2440  178.1590  140.2690 O   0  0  0  0  0  1  0  0  0  0  0  0
  180.0320  178.0730  139.1200 C   0  0  0  0  0  2  0  0  0  0  0  0
  1  7  1  0  0  0  0
  2  5  2  0  0  0  0
  3  1  1  0  0  0  0
  4 17  1  0  0  0  0
  5 22  1  0  0  0  0
  5  4  1  0  0  0  0
  6  2  1  0  0  0  0
  6  1  2  0  0  0  0
  7  4  2  0  0  0  0
  8 16  2  0  0  0  0
  9 12  2  0  0  0  0
  9 19  1  0  0  0  0
 10 14  1  1  0  0  0
 10 13  1  0  0  0  0
 11 13  1  0  0  0  0
 12 10  1  0  0  0  0
 15  9  1  0  0  0  0
 16 12  1  0  0  0  0
 17 18  1  0  0  0  0
 17 15  2  0  0  0  0
 18  8  1  0  0  0  0
 19 11  1  0  0  0  0
 20 23  1  0  0  0  0
 21 23  1  0  0  0  0
 22 21  2  0  0  0  0
 24 25  2  0  0  0  0
 25 26  1  0  0  0  0
 25 20  1  0  0  0  0
 26 22  1  0  0  0  0
 28 20  1  0  0  0  0
 28 27  1  0  0  0  0
M  END
>  <MODEL>
5

>  <REMARK>
 VINA RESULT:      -8.4      3.912      6.878
  Name = 
  3 active torsions:
  status: ('A' for Active; 'I' for Inactive)
    1  A    between atoms: N_8  and  C_12
    2  A    between atoms: C_15  and  C_23
    3  A    between atoms: C_17  and  C_21
                            x       y       z     vdW  Elec       q    Type
                         _______ _______ _______ _____ _____    ______ ____

>  <TORSDO>
F 3

$$$$
=
 OpenBabel11032420153D

 28 31  0  0  1  0  0  0  0  0999 V2000
  183.5220  179.0040  143.4780 C   0  0  0  0  0  0  0  0  0  0  0  0
  185.1520  178.0950  145.0110 C   0  0  0  0  0  3  0  0  0  0  0  0
  182.2420  179.4740  143.2230 O   0  0  0  0  0  1  0  0  0  0  0  0
  185.7690  178.4930  142.6900 C   0  0  0  0  0  0  0  0  0  0  0  0
  186.1100  178.0320  143.9880 C   0  0  0  0  0  0  0  0  0  0  0  0
  183.8680  178.5790  144.7600 C   0  0  0  0  0  3  0  0  0  0  0  0
  184.4680  178.9670  142.4530 C   0  0  0  0  0  3  0  0  0  0  0  0
  189.2110  178.6000  141.5090 C   0  0  0  0  0  3  0  0  0  0  0  0
  187.2490  178.1730  139.1510 C   0  0  0  0  0  0  0  0  0  0  0  0
  189.3630  178.1160  137.7990 C   0  0  2  0  0  3  0  0  0  0  0  0
  187.2040  178.5820  136.6690 C   0  0  0  0  0  2  0  0  0  0  0  0
  188.6110  178.1060  139.1170 C   0  0  0  0  0  0  0  0  0  0  0  0
  188.4990  177.8030  136.5830 C   0  0  0  0  0  2  0  0  0  0  0  0
  190.4260  177.2310  137.8340 F   0  0  0  0  0  0  0  0  0  0  0  0
  186.4310  178.1100  140.3820 C   0  0  0  0  0  3  0  0  0  0  0  0
  189.4750  178.0580  140.3210 C   0  0  0  0  0  3  0  0  0  0  0  0
  186.7550  178.5830  141.5900 C   0  0  0  0  0  0  0  0  0  0  0  0
  187.9890  179.4000  141.7870 C   0  0  0  0  0  2  0  0  0  0  0  0
  186.4380  178.0910  137.8860 C   0  0  0  0  0  2  0  0  0  0  0  0
  190.1710  176.7740  144.3450 N   0  0  0  0  0  0  0  0  0  0  0  0
  188.2510  178.0320  145.1620 C   0  0  0  0  0  3  0  0  0  0  0  0
  187.4150  177.4210  144.3100 C   0  0  0  0  0  0  0  0  0  0  0  0
  189.5900  177.4470  145.5050 C   0  0  0  0  0  2  0  0  0  0  0  0
  189.7910  175.4380  142.4540 O   0  0  0  0  0  0  0  0  0  0  0  0
  189.3110  176.0940  143.4170 C   0  0  0  0  0  0  0  0  0  0  0  0
  187.8260  176.1490  143.6110 C   0  0  0  0  0  2  0  0  0  0  0  0
  192.0300  177.7720  143.3460 O   0  0  0  0  0  1  0  0  0  0  0  0
  191.6190  176.7490  144.2030 C   0  0  0  0  0  2  0  0  0  0  0  0
  1  6  1  0  0  0  0
  3  1  1  0  0  0  0
  4  5  2  0  0  0  0
  5 22  1  0  0  0  0
  5  2  1  0  0  0  0
  6  2  2  0  0  0  0
  7  4  1  0  0  0  0
  7  1  2  0  0  0  0
  8 18  1  0  0  0  0
  9 15  1  0  0  0  0
 10 14  1  1  0  0  0
 10 12  1  0  0  0  0
 11 19  1  0  0  0  0
 12  9  2  0  0  0  0
 12 16  1  0  0  0  0
 13 11  1  0  0  0  0
 13 10  1  0  0  0  0
 15 17  2  0  0  0  0
 16  8  2  0  0  0  0
 17 18  1  0  0  0  0
 17  4  1  0  0  0  0
 19  9  1  0  0  0  0
 20 23  1  0  0  0  0
 21 23  1  0  0  0  0
 22 21  2  0  0  0  0
 24 25  2  0  0  0  0
 25 26  1  0  0  0  0
 25 20  1  0  0  0  0
 26 22  1  0  0  0  0
 27 28  1  0  0  0  0
 28 20  1  0  0  0  0
M  END
>  <MODEL>
6

>  <REMARK>
 VINA RESULT:      -8.3      3.046      5.821
  Name = 
  3 active torsions:
  status: ('A' for Active; 'I' for Inactive)
    1  A    between atoms: N_8  and  C_12
    2  A    between atoms: C_15  and  C_23
    3  A    between atoms: C_17  and  C_21
                            x       y       z     vdW  Elec       q    Type
                         _______ _______ _______ _____ _____    ______ ____

>  <TORSDO>
F 3

$$$$
=
 OpenBabel11032420153D

 28 31  0  0  1  0  0  0  0  0999 V2000
  181.1950  178.5880  143.5760 C   0  0  0  0  0  0  0  0  0  0  0  0
  182.2720  178.5910  141.4140 C   0  0  0  0  0  3  0  0  0  0  0  0
  180.0400  178.5670  144.3440 O   0  0  0  0  0  1  0  0  0  0  0  0
  183.6250  178.6500  143.4370 C   0  0  0  0  0  0  0  0  0  0  0  0
  183.5350  178.6510  142.0200 C   0  0  0  0  0  0  0  0  0  0  0  0
  181.1090  178.5570  142.1850 C   0  0  0  0  0  3  0  0  0  0  0  0
  182.4440  178.6270  144.1960 C   0  0  0  0  0  3  0  0  0  0  0  0
  185.6750  179.3420  146.3650 C   0  0  0  0  0  3  0  0  0  0  0  0
  187.1090  177.3690  144.4570 C   0  0  0  0  0  0  0  0  0  0  0  0
  188.8900  177.4290  146.2240 C   0  0  2  0  0  3  0  0  0  0  0  0
  189.4670  176.6650  143.9360 C   0  0  0  0  0  2  0  0  0  0  0  0
  187.4930  177.7320  145.7140 C   0  0  0  0  0  0  0  0  0  0  0  0
  189.6380  176.3780  145.4120 C   0  0  0  0  0  2  0  0  0  0  0  0
  188.8530  177.0280  147.5490 F   0  0  0  0  0  0  0  0  0  0  0  0
  185.7540  177.5700  143.8970 C   0  0  0  0  0  3  0  0  0  0  0  0
  186.6330  178.4690  146.6700 C   0  0  0  0  0  3  0  0  0  0  0  0
  184.9170  178.5800  144.1550 C   0  0  0  0  0  0  0  0  0  0  0  0
  185.3580  179.7500  144.9700 C   0  0  0  0  0  2  0  0  0  0  0  0
  187.9950  176.5120  143.5930 C   0  0  0  0  0  2  0  0  0  0  0  0
  187.1430  178.2860  139.7730 N   0  0  0  0  0  0  0  0  0  0  0  0
  184.7140  178.1900  139.9310 C   0  0  0  0  0  3  0  0  0  0  0  0
  184.7130  178.7770  141.1370 C   0  0  0  0  0  0  0  0  0  0  0  0
  185.8960  178.2880  139.0110 C   0  0  0  0  0  2  0  0  0  0  0  0
  188.2690  179.0030  141.7030 O   0  0  0  0  0  0  0  0  0  0  0  0
  187.1880  178.9190  141.0620 C   0  0  0  0  0  0  0  0  0  0  0  0
  185.9350  179.5050  141.6390 C   0  0  0  0  0  2  0  0  0  0  0  0
  189.0750  178.6990  138.5290 O   0  0  0  0  0  1  0  0  0  0  0  0
  188.3320  177.7040  139.1670 C   0  0  0  0  0  2  0  0  0  0  0  0
  1  7  1  0  0  0  0
  1  3  1  0  0  0  0
  2  5  2  0  0  0  0
  2  6  1  0  0  0  0
  4 17  1  0  0  0  0
  4  7  2  0  0  0  0
  5  4  1  0  0  0  0
  6  1  2  0  0  0  0
  8 16  2  0  0  0  0
  9 12  2  0  0  0  0
 10 14  1  1  0  0  0
 11 13  1  0  0  0  0
 12 10  1  0  0  0  0
 12 16  1  0  0  0  0
 13 10  1  0  0  0  0
 15 17  2  0  0  0  0
 15  9  1  0  0  0  0
 17 18  1  0  0  0  0
 18  8  1  0  0  0  0
 19 11  1  0  0  0  0
 19  9  1  0  0  0  0
 20 25  1  0  0  0  0
 21 22  2  0  0  0  0
 22 26  1  0  0  0  0
 22  5  1  0  0  0  0
 23 20  1  0  0  0  0
 23 21  1  0  0  0  0
 25 26  1  0  0  0  0
 25 24  2  0  0  0  0
 27 28  1  0  0  0  0
 28 20  1  0  0  0  0
M  END
>  <MODEL>
7

>  <REMARK>
 VINA RESULT:      -8.2      3.127      6.490
  Name = 
  3 active torsions:
  status: ('A' for Active; 'I' for Inactive)
    1  A    between atoms: N_8  and  C_12
    2  A    between atoms: C_15  and  C_23
    3  A    between atoms: C_17  and  C_21
                            x       y       z     vdW  Elec       q    Type
                         _______ _______ _______ _____ _____    ______ ____

>  <TORSDO>
F 3

$$$$
=
 OpenBabel11032420153D

 28 31  0  0  1  0  0  0  0  0999 V2000
  190.4590  176.7880  146.2880 C   0  0  0  0  0  0  0  0  0  0  0  0
  191.7580  176.6250  144.2580 C   0  0  0  0  0  3  0  0  0  0  0  0
  190.3550  176.6430  147.6640 O   0  0  0  0  0  1  0  0  0  0  0  0
  189.4500  177.3930  144.1560 C   0  0  0  0  0  0  0  0  0  0  0  0
  190.6630  177.0600  143.4970 C   0  0  0  0  0  0  0  0  0  0  0  0
  191.6590  176.4910  145.6430 C   0  0  0  0  0  3  0  0  0  0  0  0
  189.3660  177.2420  145.5490 C   0  0  0  0  0  3  0  0  0  0  0  0
  187.9230  178.7430  141.1390 C   0  0  0  0  0  3  0  0  0  0  0  0
  185.7850  178.2170  143.3170 C   0  0  0  0  0  0  0  0  0  0  0  0
  184.2150  179.0530  141.5470 C   0  0  2  0  0  3  0  0  0  0  0  0
  183.4950  179.0660  143.9210 C   0  0  0  0  0  2  0  0  0  0  0  0
  185.5730  178.5660  142.0150 C   0  0  0  0  0  0  0  0  0  0  0  0
  183.0720  178.7390  142.5050 C   0  0  0  0  0  2  0  0  0  0  0  0
  183.9100  178.5340  140.3000 F   0  0  0  0  0  0  0  0  0  0  0  0
  187.0560  177.6780  143.8500 C   0  0  0  0  0  3  0  0  0  0  0  0
  186.6180  178.5450  140.9640 C   0  0  0  0  0  3  0  0  0  0  0  0
  188.2930  177.9820  143.4460 C   0  0  0  0  0  0  0  0  0  0  0  0
  188.5290  179.0750  142.4560 C   0  0  0  0  0  2  0  0  0  0  0  0
  184.6440  178.1450  144.2950 C   0  0  0  0  0  2  0  0  0  0  0  0
  191.5520  176.4590  139.3680 N   0  0  0  0  0  0  0  0  0  0  0  0
  190.0150  176.3400  141.2560 C   0  0  0  0  0  3  0  0  0  0  0  0
  190.8180  177.0870  142.0290 C   0  0  0  0  0  0  0  0  0  0  0  0
  190.1500  176.3330  139.7600 C   0  0  0  0  0  2  0  0  0  0  0  0
  193.6320  177.4540  139.8010 O   0  0  0  0  0  0  0  0  0  0  0  0
  192.4400  177.2620  140.1610 C   0  0  0  0  0  0  0  0  0  0  0  0
  191.9340  177.8990  141.4200 C   0  0  0  0  0  2  0  0  0  0  0  0
  191.3270  174.6070  137.9650 O   0  0  0  0  0  1  0  0  0  0  0  0
  191.9930  175.8210  138.1360 C   0  0  0  0  0  2  0  0  0  0  0  0
  1  3  1  0  0  0  0
  2  6  2  0  0  0  0
  4  7  1  0  0  0  0
  5  4  2  0  0  0  0
  5  2  1  0  0  0  0
  6  1  1  0  0  0  0
  7  1  2  0  0  0  0
  8 18  1  0  0  0  0
  9 15  1  0  0  0  0
  9 19  1  0  0  0  0
 10 14  1  6  0  0  0
 10 12  1  0  0  0  0
 10 13  1  0  0  0  0
 11 19  1  0  0  0  0
 12  9  2  0  0  0  0
 13 11  1  0  0  0  0
 16  8  2  0  0  0  0
 16 12  1  0  0  0  0
 17 15  2  0  0  0  0
 17  4  1  0  0  0  0
 18 17  1  0  0  0  0
 20 23  1  0  0  0  0
 20 25  1  0  0  0  0
 21 22  2  0  0  0  0
 22  5  1  0  0  0  0
 23 21  1  0  0  0  0
 24 25  2  0  0  0  0
 25 26  1  0  0  0  0
 26 22  1  0  0  0  0
 27 28  1  0  0  0  0
 28 20  1  0  0  0  0
M  END
>  <MODEL>
8

>  <REMARK>
 VINA RESULT:      -8.0      2.517      5.027
  Name = 
  3 active torsions:
  status: ('A' for Active; 'I' for Inactive)
    1  A    between atoms: N_8  and  C_12
    2  A    between atoms: C_15  and  C_23
    3  A    between atoms: C_17  and  C_21
                            x       y       z     vdW  Elec       q    Type
                         _______ _______ _______ _____ _____    ______ ____

>  <TORSDO>
F 3

$$$$
=
 OpenBabel11032420153D

 28 31  0  0  1  0  0  0  0  0999 V2000
  190.4370  177.5650  139.3770 C   0  0  0  0  0  0  0  0  0  0  0  0
  188.1980  178.2500  139.9680 C   0  0  0  0  0  3  0  0  0  0  0  0
  191.4430  177.4300  138.4320 O   0  0  0  0  0  1  0  0  0  0  0  0
  189.6480  177.2740  141.6630 C   0  0  0  0  0  0  0  0  0  0  0  0
  188.3910  177.8180  141.2880 C   0  0  0  0  0  0  0  0  0  0  0  0
  189.2130  178.1270  139.0190 C   0  0  0  0  0  3  0  0  0  0  0  0
  190.6540  177.1480  140.6910 C   0  0  0  0  0  3  0  0  0  0  0  0
  191.6480  175.4280  144.0820 C   0  0  0  0  0  3  0  0  0  0  0  0
  189.9470  177.6030  145.4860 C   0  0  0  0  0  0  0  0  0  0  0  0
  191.0910  176.7360  147.5450 C   0  0  2  0  0  3  0  0  0  0  0  0
  188.9820  178.0240  147.7710 C   0  0  0  0  0  2  0  0  0  0  0  0
  190.9270  176.8310  146.0400 C   0  0  0  0  0  0  0  0  0  0  0  0
  190.3790  177.8360  148.3230 C   0  0  0  0  0  2  0  0  0  0  0  0
  192.4300  176.7350  147.8940 F   0  0  0  0  0  0  0  0  0  0  0  0
  189.7490  177.8020  144.0330 C   0  0  0  0  0  3  0  0  0  0  0  0
  191.8770  176.0030  145.2610 C   0  0  0  0  0  3  0  0  0  0  0  0
  189.9780  176.9160  143.0600 C   0  0  0  0  0  0  0  0  0  0  0  0
  190.3380  175.5020  143.3800 C   0  0  0  0  0  2  0  0  0  0  0  0
  189.1040  178.5130  146.3380 C   0  0  0  0  0  2  0  0  0  0  0  0
  185.5670  178.4870  144.4160 N   0  0  0  0  0  0  0  0  0  0  0  0
  186.4350  178.9680  142.1900 C   0  0  0  0  0  3  0  0  0  0  0  0
  187.2390  177.8950  142.2100 C   0  0  0  0  0  0  0  0  0  0  0  0
  185.2610  179.0870  143.1190 C   0  0  0  0  0  2  0  0  0  0  0  0
  186.6250  176.7420  145.5730 O   0  0  0  0  0  0  0  0  0  0  0  0
  186.4120  177.3270  144.4780 C   0  0  0  0  0  0  0  0  0  0  0  0
  187.0280  176.7950  143.2190 C   0  0  0  0  0  2  0  0  0  0  0  0
  183.5540  179.0040  145.4770 O   0  0  0  0  0  1  0  0  0  0  0  0
  184.9430  179.0420  145.6080 C   0  0  0  0  0  2  0  0  0  0  0  0
  1  7  1  0  0  0  0
  2  5  2  0  0  0  0
  3  1  1  0  0  0  0
  4 17  1  0  0  0  0
  5  4  1  0  0  0  0
  5 22  1  0  0  0  0
  6  1  2  0  0  0  0
  6  2  1  0  0  0  0
  7  4  2  0  0  0  0
  8 16  2  0  0  0  0
  9 12  2  0  0  0  0
  9 19  1  0  0  0  0
 10 14  1  6  0  0  0
 10 13  1  0  0  0  0
 11 13  1  0  0  0  0
 12 10  1  0  0  0  0
 15  9  1  0  0  0  0
 16 12  1  0  0  0  0
 17 18  1  0  0  0  0
 17 15  2  0  0  0  0
 18  8  1  0  0  0  0
 19 11  1  0  0  0  0
 20 25  1  0  0  0  0
 20 28  1  0  0  0  0
 21 22  2  0  0  0  0
 21 23  1  0  0  0  0
 22 26  1  0  0  0  0
 23 20  1  0  0  0  0
 25 24  2  0  0  0  0
 26 25  1  0  0  0  0
 27 28  1  0  0  0  0
M  END
>  <MODEL>
9

>  <REMARK>
 VINA RESULT:      -8.0      2.811      5.128
  Name = 
  3 active torsions:
  status: ('A' for Active; 'I' for Inactive)
    1  A    between atoms: N_8  and  C_12
    2  A    between atoms: C_15  and  C_23
    3  A    between atoms: C_17  and  C_21
                            x       y       z     vdW  Elec       q    Type
                         _______ _______ _______ _____ _____    ______ ____

>  <TORSDO>
F 3

$$$$
