=
 OpenBabel11032420213D

 32 36  0  0  1  0  0  0  0  0999 V2000
  190.1370  176.4010  141.4720 C   0  0  0  0  0  3  0  0  0  0  0  0
  190.9780  178.0130  142.7480 C   0  0  0  0  0  0  0  0  0  0  0  0
  191.1780  178.9210  143.9220 C   0  0  0  0  0  2  0  0  0  0  0  0
  191.6190  178.0740  141.6100 O   0  0  0  0  0  0  0  0  0  0  0  0
  190.5750  178.2950  145.1880 C   0  0  0  0  0  2  0  0  0  0  0  0
  189.1930  176.6130  143.8690 C   0  0  0  0  0  2  0  0  0  0  0  0
  191.1410  177.1250  140.8310 C   0  0  0  0  0  0  0  0  0  0  0  0
  189.1680  177.7370  144.9190 C   0  0  1  0  0  3  0  0  0  0  0  0
  190.0430  177.0140  142.7050 C   0  0  0  0  0  0  0  0  0  0  0  0
  194.1120  176.9110  139.9380 C   0  0  0  0  0  1  0  0  0  0  0  0
  191.6310  176.4970  137.2520 C   0  0  0  0  0  3  0  0  0  0  0  0
  194.0680  176.3950  136.9470 O   0  0  0  0  0  1  0  0  0  0  0  0
  192.9000  176.7880  139.0760 C   0  0  0  0  0  0  0  0  0  0  0  0
  190.8520  176.7070  138.3850 C   0  0  0  0  0  0  0  0  0  0  0  0
  192.9260  176.5520  137.7230 C   0  0  0  0  0  0  0  0  0  0  0  0
  191.6170  176.8840  139.4910 N   0  0  0  0  0  0  0  0  0  0  0  0
  187.9030  176.2310  136.5750 C   0  0  0  0  0  0  0  0  0  0  0  0
  189.3510  176.7390  138.3800 C   0  0  1  0  0  3  0  0  0  0  0  0
  188.8280  178.0510  137.7720 C   0  0  0  0  0  2  0  0  0  0  0  0
  187.9310  177.5980  136.6890 C   0  0  0  0  0  0  0  0  0  0  0  0
  186.3840  177.8010  134.8590 C   0  0  0  0  0  3  0  0  0  0  0  0
  186.3550  176.3990  134.7410 C   0  0  0  0  0  3  0  0  0  0  0  0
  188.7770  175.5690  137.5650 C   0  0  0  0  0  2  0  0  0  0  0  0
  187.1220  175.6020  135.6060 C   0  0  0  0  0  3  0  0  0  0  0  0
  187.1790  178.4110  135.8400 C   0  0  0  0  0  3  0  0  0  0  0  0
  188.5370  177.2520  146.1870 C   0  0  0  0  0  0  0  0  0  0  0  0
  189.2500  176.7210  147.0800 O   0  0  0  0  0  0  0  0  0  0  0  0
  187.1310  177.3790  146.4000 N   0  0  0  0  0  2  0  0  0  0  0  0
  186.2430  177.9770  145.4140 C   0  0  0  0  0  2  0  0  0  0  0  0
  184.0260  179.0460  145.0550 C   0  0  0  0  0  1  0  0  0  0  0  0
  185.2620  179.3900  147.0520 O   0  0  0  0  0  1  0  0  0  0  0  0
  184.9600  178.4360  146.0820 C   0  0  2  0  0  3  0  0  0  0  0  0
  1  9  1  0  0  0  0
  2  3  1  0  0  0  0
  3  5  1  0  0  0  0
  4  2  1  0  0  0  0
  6  8  1  0  0  0  0
  7  1  2  0  0  0  0
  7  4  1  0  0  0  0
  8  5  1  0  0  0  0
  8 26  1  1  0  0  0
  9  2  2  0  0  0  0
  9  6  1  0  0  0  0
 11 15  1  0  0  0  0
 11 14  2  0  0  0  0
 12 15  1  0  0  0  0
 13 16  1  0  0  0  0
 13 10  1  0  0  0  0
 14 16  1  0  0  0  0
 15 13  2  0  0  0  0
 16  7  1  0  0  0  0
 17 20  1  0  0  0  0
 17 23  1  0  0  0  0
 18 14  1  6  0  0  0
 19 18  1  0  0  0  0
 20 19  1  0  0  0  0
 21 25  1  0  0  0  0
 22 21  2  0  0  0  0
 22 24  1  0  0  0  0
 23 18  1  0  0  0  0
 24 17  2  0  0  0  0
 25 20  2  0  0  0  0
 26 28  1  0  0  0  0
 26 27  2  0  0  0  0
 29 32  1  0  0  0  0
 29 28  1  0  0  0  0
 32 30  1  6  0  0  0
 32 31  1  0  0  0  0
M  END
>  <MODEL>
1

>  <REMARK>
 VINA RESULT:      -8.4      0.000      0.000
  Name = 
  5 active torsions:
  status: ('A' for Active; 'I' for Inactive)
    1  A    between atoms: C_3  and  C_25
    2  A    between atoms: C_6  and  C_19
    3  A    between atoms: C_14  and  N_18
    4  A    between atoms: C_14  and  C_30
    5  A    between atoms: C_16  and  N_31
                            x       y       z     vdW  Elec       q    Type
                         _______ _______ _______ _____ _____    ______ ____

>  <TORSDO>
F 5

$$$$
=
 OpenBabel11032420213D

 32 36  0  0  1  0  0  0  0  0999 V2000
  185.7440  177.3090  143.3770 C   0  0  0  0  0  3  0  0  0  0  0  0
  187.2230  178.2800  142.0330 C   0  0  0  0  0  0  0  0  0  0  0  0
  188.5360  178.6440  141.4110 C   0  0  0  0  0  2  0  0  0  0  0  0
  186.0590  178.7920  141.7290 O   0  0  0  0  0  0  0  0  0  0  0  0
  189.5840  177.5620  141.7090 C   0  0  0  0  0  2  0  0  0  0  0  0
  188.2040  176.5430  143.5900 C   0  0  0  0  0  2  0  0  0  0  0  0
  185.1590  178.2320  142.5120 C   0  0  0  0  0  0  0  0  0  0  0  0
  189.5580  177.1530  143.1920 C   0  0  1  0  0  3  0  0  0  0  0  0
  187.0840  177.3780  143.0550 C   0  0  0  0  0  0  0  0  0  0  0  0
  183.3670  179.1070  144.8990 C   0  0  0  0  0  1  0  0  0  0  0  0
  181.6560  178.8850  141.6480 C   0  0  0  0  0  3  0  0  0  0  0  0
  180.5850  179.5390  143.7610 O   0  0  0  0  0  1  0  0  0  0  0  0
  182.9520  178.9300  143.4760 C   0  0  0  0  0  0  0  0  0  0  0  0
  182.9660  178.5220  141.3520 C   0  0  0  0  0  0  0  0  0  0  0  0
  181.6780  179.1380  143.0040 C   0  0  0  0  0  0  0  0  0  0  0  0
  183.7530  178.5490  142.4560 N   0  0  0  0  0  0  0  0  0  0  0  0
  182.2600  178.3290  137.9360 C   0  0  0  0  0  0  0  0  0  0  0  0
  183.4450  178.1460  139.9800 C   0  0  1  0  0  3  0  0  0  0  0  0
  182.9250  176.7560  139.5750 C   0  0  0  0  0  2  0  0  0  0  0  0
  182.2360  177.0040  138.2920 C   0  0  0  0  0  0  0  0  0  0  0  0
  180.9960  176.4730  136.3010 C   0  0  0  0  0  3  0  0  0  0  0  0
  181.0200  177.8320  135.9360 C   0  0  0  0  0  3  0  0  0  0  0  0
  182.9680  179.1620  138.9300 C   0  0  0  0  0  2  0  0  0  0  0  0
  181.6560  178.7730  136.7600 C   0  0  0  0  0  3  0  0  0  0  0  0
  181.6080  176.0510  137.4900 C   0  0  0  0  0  3  0  0  0  0  0  0
  190.6710  176.2000  143.5000 C   0  0  0  0  0  0  0  0  0  0  0  0
  190.9340  175.2620  142.7010 O   0  0  0  0  0  0  0  0  0  0  0  0
  191.4410  176.3360  144.6940 N   0  0  0  0  0  2  0  0  0  0  0  0
  191.1950  177.3910  145.6660 C   0  0  0  0  0  2  0  0  0  0  0  0
  189.5300  177.3810  147.5140 C   0  0  0  0  0  1  0  0  0  0  0  0
  191.8450  177.0500  147.9260 O   0  0  0  0  0  1  0  0  0  0  0  0
  190.8300  176.7850  147.0080 C   0  0  2  0  0  3  0  0  0  0  0  0
  2  9  2  0  0  0  0
  3  5  1  0  0  0  0
  3  2  1  0  0  0  0
  4  2  1  0  0  0  0
  4  7  1  0  0  0  0
  5  8  1  0  0  0  0
  7  1  2  0  0  0  0
  8 26  1  6  0  0  0
  8  6  1  0  0  0  0
  9  1  1  0  0  0  0
  9  6  1  0  0  0  0
 11 15  1  0  0  0  0
 13 10  1  0  0  0  0
 14 11  2  0  0  0  0
 14 16  1  0  0  0  0
 15 13  2  0  0  0  0
 15 12  1  0  0  0  0
 16  7  1  0  0  0  0
 16 13  1  0  0  0  0
 17 20  1  0  0  0  0
 17 23  1  0  0  0  0
 18 14  1  1  0  0  0
 19 18  1  0  0  0  0
 20 19  1  0  0  0  0
 21 25  1  0  0  0  0
 22 21  2  0  0  0  0
 22 24  1  0  0  0  0
 23 18  1  0  0  0  0
 24 17  2  0  0  0  0
 25 20  2  0  0  0  0
 26 28  1  0  0  0  0
 27 26  2  0  0  0  0
 28 29  1  0  0  0  0
 29 32  1  0  0  0  0
 32 30  1  1  0  0  0
 32 31  1  0  0  0  0
M  END
>  <MODEL>
2

>  <REMARK>
 VINA RESULT:      -8.4      3.954      7.175
  Name = 
  5 active torsions:
  status: ('A' for Active; 'I' for Inactive)
    1  A    between atoms: C_3  and  C_25
    2  A    between atoms: C_6  and  C_19
    3  A    between atoms: C_14  and  N_18
    4  A    between atoms: C_14  and  C_30
    5  A    between atoms: C_16  and  N_31
                            x       y       z     vdW  Elec       q    Type
                         _______ _______ _______ _____ _____    ______ ____

>  <TORSDO>
F 5

$$$$
=
 OpenBabel11032420213D

 32 36  0  0  1  0  0  0  0  0999 V2000
  184.1310  178.6230  140.8450 C   0  0  0  0  0  3  0  0  0  0  0  0
  182.7590  178.6460  142.5930 C   0  0  0  0  0  0  0  0  0  0  0  0
  182.2890  178.6470  144.0140 C   0  0  0  0  0  2  0  0  0  0  0  0
  182.0000  178.6090  141.5300 O   0  0  0  0  0  0  0  0  0  0  0  0
  183.4140  179.1170  144.9470 C   0  0  0  0  0  2  0  0  0  0  0  0
  185.2170  178.7580  143.1860 C   0  0  0  0  0  2  0  0  0  0  0  0
  182.7880  178.5970  140.4740 C   0  0  0  0  0  0  0  0  0  0  0  0
  184.7440  178.4240  144.6110 C   0  0  1  0  0  3  0  0  0  0  0  0
  184.0790  178.6360  142.2230 C   0  0  0  0  0  0  0  0  0  0  0  0
  182.8860  176.1690  138.5320 C   0  0  0  0  0  1  0  0  0  0  0  0
  181.3480  179.2180  137.1600 C   0  0  0  0  0  3  0  0  0  0  0  0
  181.6090  177.1010  135.9390 O   0  0  0  0  0  1  0  0  0  0  0  0
  182.3270  177.5250  138.2540 C   0  0  0  0  0  0  0  0  0  0  0  0
  181.7040  179.5870  138.4530 C   0  0  0  0  0  0  0  0  0  0  0  0
  181.7560  177.9040  137.0630 C   0  0  0  0  0  0  0  0  0  0  0  0
  182.2970  178.5640  139.1180 N   0  0  0  0  0  0  0  0  0  0  0  0
  180.0250  182.6400  138.2070 C   0  0  0  0  0  0  0  0  0  0  0  0
  181.4630  180.9490  139.0360 C   0  0  1  0  0  3  0  0  0  0  0  0
  182.3050  182.0150  138.3150 C   0  0  0  0  0  2  0  0  0  0  0  0
  181.3040  183.0080  137.8740 C   0  0  0  0  0  0  0  0  0  0  0  0
  180.4760  185.0180  136.8450 C   0  0  0  0  0  3  0  0  0  0  0  0
  179.1650  184.6400  137.1850 C   0  0  0  0  0  3  0  0  0  0  0  0
  179.9830  181.3460  138.9190 C   0  0  0  0  0  2  0  0  0  0  0  0
  178.9320  183.4390  137.8730 C   0  0  0  0  0  3  0  0  0  0  0  0
  181.5600  184.1960  137.1890 C   0  0  0  0  0  3  0  0  0  0  0  0
  185.8000  178.7860  145.6100 C   0  0  0  0  0  0  0  0  0  0  0  0
  185.5900  179.7130  146.4370 O   0  0  0  0  0  0  0  0  0  0  0  0
  187.0490  178.0960  145.6370 N   0  0  0  0  0  2  0  0  0  0  0  0
  187.3660  177.0170  144.7130 C   0  0  0  0  0  2  0  0  0  0  0  0
  189.6120  177.9290  145.2720 C   0  0  0  0  0  1  0  0  0  0  0  0
  188.8630  177.7620  143.0250 O   0  0  0  0  0  1  0  0  0  0  0  0
  188.8110  177.1270  144.2640 C   0  0  2  0  0  3  0  0  0  0  0  0
  1  9  1  0  0  0  0
  2  3  1  0  0  0  0
  3  5  1  0  0  0  0
  4  2  1  0  0  0  0
  6  8  1  0  0  0  0
  7  1  2  0  0  0  0
  7  4  1  0  0  0  0
  8  5  1  0  0  0  0
  8 26  1  1  0  0  0
  9  2  2  0  0  0  0
  9  6  1  0  0  0  0
 11 14  2  0  0  0  0
 12 15  1  0  0  0  0
 13 10  1  0  0  0  0
 13 16  1  0  0  0  0
 14 16  1  0  0  0  0
 15 11  1  0  0  0  0
 15 13  2  0  0  0  0
 16  7  1  0  0  0  0
 17 23  1  0  0  0  0
 18 14  1  6  0  0  0
 19 18  1  0  0  0  0
 20 17  1  0  0  0  0
 20 19  1  0  0  0  0
 21 22  2  0  0  0  0
 21 25  1  0  0  0  0
 22 24  1  0  0  0  0
 23 18  1  0  0  0  0
 24 17  2  0  0  0  0
 25 20  2  0  0  0  0
 26 28  1  0  0  0  0
 26 27  2  0  0  0  0
 29 28  1  0  0  0  0
 31 32  1  0  0  0  0
 32 29  1  0  0  0  0
 32 30  1  1  0  0  0
M  END
>  <MODEL>
3

>  <REMARK>
 VINA RESULT:      -8.3      5.937      8.432
  Name = 
  5 active torsions:
  status: ('A' for Active; 'I' for Inactive)
    1  A    between atoms: C_3  and  C_25
    2  A    between atoms: C_6  and  C_19
    3  A    between atoms: C_14  and  N_18
    4  A    between atoms: C_14  and  C_30
    5  A    between atoms: C_16  and  N_31
                            x       y       z     vdW  Elec       q    Type
                         _______ _______ _______ _____ _____    ______ ____

>  <TORSDO>
F 5

$$$$
=
 OpenBabel11032420213D

 32 36  0  0  1  0  0  0  0  0999 V2000
  187.3910  177.4900  143.9350 C   0  0  0  0  0  3  0  0  0  0  0  0
  186.1270  178.5170  145.4470 C   0  0  0  0  0  0  0  0  0  0  0  0
  184.9460  179.1930  146.0700 C   0  0  0  0  0  2  0  0  0  0  0  0
  187.2970  178.3420  146.0030 O   0  0  0  0  0  0  0  0  0  0  0  0
  183.6630  178.8370  145.3050 C   0  0  0  0  0  2  0  0  0  0  0  0
  184.9410  177.9860  143.2750 C   0  0  0  0  0  2  0  0  0  0  0  0
  188.0700  177.7310  145.1270 C   0  0  0  0  0  0  0  0  0  0  0  0
  183.8660  178.9610  143.7860 C   0  0  1  0  0  3  0  0  0  0  0  0
  186.1410  178.0270  144.1670 C   0  0  0  0  0  0  0  0  0  0  0  0
  189.1450  176.3770  147.7120 C   0  0  0  0  0  1  0  0  0  0  0  0
  191.6780  177.0840  145.1380 C   0  0  0  0  0  3  0  0  0  0  0  0
  192.1340  176.0260  147.3090 O   0  0  0  0  0  1  0  0  0  0  0  0
  189.9330  176.7790  146.5100 C   0  0  0  0  0  0  0  0  0  0  0  0
  190.4970  177.5500  144.5690 C   0  0  0  0  0  0  0  0  0  0  0  0
  191.2880  176.6000  146.3690 C   0  0  0  0  0  0  0  0  0  0  0  0
  189.4390  177.3670  145.3970 N   0  0  0  0  0  0  0  0  0  0  0  0
  190.4280  177.0850  141.1080 C   0  0  0  0  0  0  0  0  0  0  0  0
  190.4100  178.1790  143.2090 C   0  0  1  0  0  3  0  0  0  0  0  0
  191.8040  178.3270  142.5780 C   0  0  0  0  0  2  0  0  0  0  0  0
  191.6740  177.6310  141.2810 C   0  0  0  0  0  0  0  0  0  0  0  0
  192.3590  176.7980  139.1320 C   0  0  0  0  0  3  0  0  0  0  0  0
  191.0810  176.2360  138.9540 C   0  0  0  0  0  3  0  0  0  0  0  0
  189.5420  177.3330  142.2640 C   0  0  0  0  0  2  0  0  0  0  0  0
  190.1030  176.3770  139.9500 C   0  0  0  0  0  3  0  0  0  0  0  0
  192.6630  177.5020  140.3060 C   0  0  0  0  0  3  0  0  0  0  0  0
  182.5760  178.7440  143.0580 C   0  0  0  0  0  0  0  0  0  0  0  0
  181.4970  178.6590  143.7030 O   0  0  0  0  0  0  0  0  0  0  0  0
  182.5500  178.6270  141.6350 N   0  0  0  0  0  2  0  0  0  0  0  0
  183.7540  178.7100  140.8220 C   0  0  0  0  0  2  0  0  0  0  0  0
  183.1060  178.3630  138.4460 C   0  0  0  0  0  1  0  0  0  0  0  0
  184.5550  180.1280  139.0930 O   0  0  0  0  0  1  0  0  0  0  0  0
  183.4440  179.3950  139.5040 C   0  0  2  0  0  3  0  0  0  0  0  0
  1  9  1  0  0  0  0
  1  7  2  0  0  0  0
  2  4  1  0  0  0  0
  2  3  1  0  0  0  0
  5  3  1  0  0  0  0
  6  8  1  0  0  0  0
  6  9  1  0  0  0  0
  7 16  1  0  0  0  0
  7  4  1  0  0  0  0
  8 26  1  6  0  0  0
  8  5  1  0  0  0  0
  9  2  2  0  0  0  0
 11 15  1  0  0  0  0
 13 10  1  0  0  0  0
 14 11  2  0  0  0  0
 14 16  1  0  0  0  0
 15 13  2  0  0  0  0
 15 12  1  0  0  0  0
 16 13  1  0  0  0  0
 17 20  1  0  0  0  0
 17 23  1  0  0  0  0
 18 14  1  1  0  0  0
 19 18  1  0  0  0  0
 20 19  1  0  0  0  0
 21 25  1  0  0  0  0
 22 21  2  0  0  0  0
 22 24  1  0  0  0  0
 23 18  1  0  0  0  0
 24 17  2  0  0  0  0
 25 20  2  0  0  0  0
 26 27  2  0  0  0  0
 28 26  1  0  0  0  0
 29 28  1  0  0  0  0
 31 32  1  0  0  0  0
 32 30  1  6  0  0  0
 32 29  1  0  0  0  0
M  END
>  <MODEL>
4

>  <REMARK>
 VINA RESULT:      -8.3      3.458      6.676
  Name = 
  5 active torsions:
  status: ('A' for Active; 'I' for Inactive)
    1  A    between atoms: C_3  and  C_25
    2  A    between atoms: C_6  and  C_19
    3  A    between atoms: C_14  and  N_18
    4  A    between atoms: C_14  and  C_30
    5  A    between atoms: C_16  and  N_31
                            x       y       z     vdW  Elec       q    Type
                         _______ _______ _______ _____ _____    ______ ____

>  <TORSDO>
F 5

$$$$
=
 OpenBabel11032420213D

 32 36  0  0  1  0  0  0  0  0999 V2000
  187.2340  178.4630  141.5090 C   0  0  0  0  0  3  0  0  0  0  0  0
  188.4600  176.9220  142.5380 C   0  0  0  0  0  0  0  0  0  0  0  0
  189.5930  175.9870  142.8310 C   0  0  0  0  0  2  0  0  0  0  0  0
  187.3490  177.0230  143.2200 O   0  0  0  0  0  0  0  0  0  0  0  0
  190.8620  176.4430  142.0980 C   0  0  0  0  0  2  0  0  0  0  0  0
  189.5740  177.9750  140.5250 C   0  0  0  0  0  2  0  0  0  0  0  0
  186.6000  177.9340  142.6320 C   0  0  0  0  0  0  0  0  0  0  0  0
  190.5620  176.8020  140.6330 C   0  0  1  0  0  3  0  0  0  0  0  0
  188.4280  177.7730  141.4650 C   0  0  0  0  0  0  0  0  0  0  0  0
  185.8720  178.7380  145.5470 C   0  0  0  0  0  1  0  0  0  0  0  0
  183.0770  178.8040  143.1530 C   0  0  0  0  0  3  0  0  0  0  0  0
  182.9020  179.3710  145.5380 O   0  0  0  0  0  1  0  0  0  0  0  0
  184.9530  178.6720  144.3730 C   0  0  0  0  0  0  0  0  0  0  0  0
  184.1600  178.4000  142.3780 C   0  0  0  0  0  0  0  0  0  0  0  0
  183.6120  178.9690  144.4140 C   0  0  0  0  0  0  0  0  0  0  0  0
  185.2960  178.3190  143.1140 N   0  0  0  0  0  0  0  0  0  0  0  0
  182.7990  179.2220  139.2680 C   0  0  0  0  0  0  0  0  0  0  0  0
  184.0760  178.0900  140.9120 C   0  0  1  0  0  3  0  0  0  0  0  0
  182.8200  177.2610  140.5940 C   0  0  0  0  0  2  0  0  0  0  0  0
  182.1350  178.0560  139.5530 C   0  0  0  0  0  0  0  0  0  0  0  0
  180.4390  178.6060  137.9390 C   0  0  0  0  0  3  0  0  0  0  0  0
  181.1190  179.8020  137.6480 C   0  0  0  0  0  3  0  0  0  0  0  0
  184.0250  179.3790  140.0770 C   0  0  0  0  0  2  0  0  0  0  0  0
  182.3110  180.1180  138.3170 C   0  0  0  0  0  3  0  0  0  0  0  0
  180.9470  177.7210  138.9020 C   0  0  0  0  0  3  0  0  0  0  0  0
  191.8260  177.1130  139.8920 C   0  0  0  0  0  0  0  0  0  0  0  0
  192.7190  177.8120  140.4410 O   0  0  0  0  0  0  0  0  0  0  0  0
  192.0330  176.6330  138.5640 N   0  0  0  0  0  2  0  0  0  0  0  0
  191.0460  175.8240  137.8630 C   0  0  0  0  0  2  0  0  0  0  0  0
  188.7260  176.4680  137.2400 C   0  0  0  0  0  1  0  0  0  0  0  0
  190.4710  176.4010  135.6320 O   0  0  0  0  0  1  0  0  0  0  0  0
  190.1980  176.7050  136.9640 C   0  0  2  0  0  3  0  0  0  0  0  0
  1  7  2  0  0  0  0
  2  3  1  0  0  0  0
  2  4  1  0  0  0  0
  5  3  1  0  0  0  0
  6  8  1  0  0  0  0
  6  9  1  0  0  0  0
  7 16  1  0  0  0  0
  7  4  1  0  0  0  0
  8 26  1  1  0  0  0
  8  5  1  0  0  0  0
  9  1  1  0  0  0  0
  9  2  2  0  0  0  0
 11 15  1  0  0  0  0
 13 15  2  0  0  0  0
 13 10  1  0  0  0  0
 14 16  1  0  0  0  0
 14 11  2  0  0  0  0
 15 12  1  0  0  0  0
 16 13  1  0  0  0  0
 17 20  1  0  0  0  0
 17 23  1  0  0  0  0
 18 14  1  1  0  0  0
 19 18  1  0  0  0  0
 20 19  1  0  0  0  0
 21 25  1  0  0  0  0
 22 21  2  0  0  0  0
 22 24  1  0  0  0  0
 23 18  1  0  0  0  0
 24 17  2  0  0  0  0
 25 20  2  0  0  0  0
 26 27  2  0  0  0  0
 28 26  1  0  0  0  0
 29 28  1  0  0  0  0
 31 32  1  0  0  0  0
 32 30  1  1  0  0  0
 32 29  1  0  0  0  0
M  END
>  <MODEL>
5

>  <REMARK>
 VINA RESULT:      -8.0      3.581      7.816
  Name = 
  5 active torsions:
  status: ('A' for Active; 'I' for Inactive)
    1  A    between atoms: C_3  and  C_25
    2  A    between atoms: C_6  and  C_19
    3  A    between atoms: C_14  and  N_18
    4  A    between atoms: C_14  and  C_30
    5  A    between atoms: C_16  and  N_31
                            x       y       z     vdW  Elec       q    Type
                         _______ _______ _______ _____ _____    ______ ____

>  <TORSDO>
F 5

$$$$
=
 OpenBabel11032420213D

 32 36  0  0  1  0  0  0  0  0999 V2000
  187.9370  177.1050  141.8290 C   0  0  0  0  0  3  0  0  0  0  0  0
  189.8170  177.9420  142.6680 C   0  0  0  0  0  0  0  0  0  0  0  0
  190.8270  178.4090  143.6690 C   0  0  0  0  0  2  0  0  0  0  0  0
  189.9270  178.0210  141.3680 O   0  0  0  0  0  0  0  0  0  0  0  0
  190.5490  177.7780  145.0410 C   0  0  0  0  0  2  0  0  0  0  0  0
  188.1820  177.0910  144.4020 C   0  0  0  0  0  2  0  0  0  0  0  0
  188.8240  177.5290  140.8410 C   0  0  0  0  0  0  0  0  0  0  0  0
  189.0570  177.8650  145.4030 C   0  0  1  0  0  3  0  0  0  0  0  0
  188.6020  177.4040  143.0010 C   0  0  0  0  0  0  0  0  0  0  0  0
  186.3560  178.6340  139.3060 C   0  0  0  0  0  1  0  0  0  0  0  0
  188.8880  176.9690  137.2180 C   0  0  0  0  0  3  0  0  0  0  0  0
  186.8060  177.9680  136.3780 O   0  0  0  0  0  1  0  0  0  0  0  0
  187.5300  177.9170  138.7280 C   0  0  0  0  0  0  0  0  0  0  0  0
  189.4120  176.8740  138.5040 C   0  0  0  0  0  0  0  0  0  0  0  0
  187.6940  177.6360  137.3930 C   0  0  0  0  0  0  0  0  0  0  0  0
  188.5920  177.4460  139.4200 N   0  0  0  0  0  0  0  0  0  0  0  0
  192.7160  176.2510  137.5550 C   0  0  0  0  0  0  0  0  0  0  0  0
  190.7200  176.2150  138.8320 C   0  0  1  0  0  3  0  0  0  0  0  0
  190.8660  174.8750  138.0910 C   0  0  0  0  0  2  0  0  0  0  0  0
  192.1430  175.0190  137.3620 C   0  0  0  0  0  0  0  0  0  0  0  0
  193.9660  174.3760  135.9310 C   0  0  0  0  0  3  0  0  0  0  0  0
  194.5520  175.6390  136.1270 C   0  0  0  0  0  3  0  0  0  0  0  0
  191.9050  177.1120  138.4390 C   0  0  0  0  0  2  0  0  0  0  0  0
  193.9240  176.5900  136.9460 C   0  0  0  0  0  3  0  0  0  0  0  0
  192.7480  174.0580  136.5520 C   0  0  0  0  0  3  0  0  0  0  0  0
  188.8180  177.3710  146.7960 C   0  0  0  0  0  0  0  0  0  0  0  0
  189.5720  176.4890  147.2870 O   0  0  0  0  0  0  0  0  0  0  0  0
  187.7410  177.8830  147.5800 N   0  0  0  0  0  2  0  0  0  0  0  0
  186.8260  178.8990  147.0800 C   0  0  0  0  0  2  0  0  0  0  0  0
  185.2170  178.9890  145.1860 C   0  0  0  0  0  1  0  0  0  0  0  0
  184.5550  178.2540  147.3440 O   0  0  0  0  0  1  0  0  0  0  0  0
  185.6170  178.2400  146.4420 C   0  0  2  0  0  3  0  0  0  0  0  0
  1  9  1  0  0  0  0
  2  9  2  0  0  0  0
  2  3  1  0  0  0  0
  3  5  1  0  0  0  0
  4  2  1  0  0  0  0
  5  8  1  0  0  0  0
  6  8  1  0  0  0  0
  7  4  1  0  0  0  0
  7  1  2  0  0  0  0
  8 26  1  1  0  0  0
  9  6  1  0  0  0  0
 11 15  1  0  0  0  0
 11 14  2  0  0  0  0
 12 15  1  0  0  0  0
 13 10  1  0  0  0  0
 13 16  1  0  0  0  0
 14 16  1  0  0  0  0
 15 13  2  0  0  0  0
 16  7  1  0  0  0  0
 17 23  1  0  0  0  0
 18 14  1  6  0  0  0
 19 18  1  0  0  0  0
 20 17  1  0  0  0  0
 20 19  1  0  0  0  0
 21 22  2  0  0  0  0
 21 25  1  0  0  0  0
 22 24  1  0  0  0  0
 23 18  1  0  0  0  0
 24 17  2  0  0  0  0
 25 20  2  0  0  0  0
 26 27  2  0  0  0  0
 26 28  1  0  0  0  0
 29 28  1  0  0  0  0
 32 30  1  6  0  0  0
 32 29  1  0  0  0  0
 32 31  1  0  0  0  0
M  END
>  <MODEL>
6

>  <REMARK>
 VINA RESULT:      -7.9      2.036      4.131
  Name = 
  5 active torsions:
  status: ('A' for Active; 'I' for Inactive)
    1  A    between atoms: C_3  and  C_25
    2  A    between atoms: C_6  and  C_19
    3  A    between atoms: C_14  and  N_18
    4  A    between atoms: C_14  and  C_30
    5  A    between atoms: C_16  and  N_31
                            x       y       z     vdW  Elec       q    Type
                         _______ _______ _______ _____ _____    ______ ____

>  <TORSDO>
F 5

$$$$
=
 OpenBabel11032420213D

 32 36  0  0  1  0  0  0  0  0999 V2000
  184.0070  178.6800  140.7510 C   0  0  0  0  0  3  0  0  0  0  0  0
  182.6650  178.7110  142.5220 C   0  0  0  0  0  0  0  0  0  0  0  0
  182.2190  178.7040  143.9500 C   0  0  0  0  0  2  0  0  0  0  0  0
  181.8870  178.7030  141.4710 O   0  0  0  0  0  0  0  0  0  0  0  0
  183.3680  179.1390  144.8700 C   0  0  0  0  0  2  0  0  0  0  0  0
  185.1340  178.7640  143.0760 C   0  0  0  0  0  2  0  0  0  0  0  0
  182.6580  178.6860  140.4020 C   0  0  0  0  0  0  0  0  0  0  0  0
  184.6780  178.4220  144.5040 C   0  0  1  0  0  3  0  0  0  0  0  0
  183.9780  178.6770  142.1300 C   0  0  0  0  0  0  0  0  0  0  0  0
  182.0020  181.1820  138.6660 C   0  0  0  0  0  1  0  0  0  0  0  0
  181.3790  177.9350  137.0490 C   0  0  0  0  0  3  0  0  0  0  0  0
  180.9870  180.1250  136.0060 O   0  0  0  0  0  1  0  0  0  0  0  0
  181.8500  179.7480  138.2790 C   0  0  0  0  0  0  0  0  0  0  0  0
  181.8580  177.5850  138.3080 C   0  0  0  0  0  0  0  0  0  0  0  0
  181.3860  179.3140  137.0610 C   0  0  0  0  0  0  0  0  0  0  0  0
  182.1440  178.6810  139.0540 N   0  0  0  0  0  0  0  0  0  0  0  0
  182.9760  174.3570  137.5820 C   0  0  0  0  0  0  0  0  0  0  0  0
  182.0330  176.1710  138.7780 C   0  0  1  0  0  3  0  0  0  0  0  0
  180.9000  175.2710  138.2560 C   0  0  0  0  0  2  0  0  0  0  0  0
  181.6160  174.1820  137.5590 C   0  0  0  0  0  0  0  0  0  0  0  0
  181.8800  172.1450  136.3080 C   0  0  0  0  0  3  0  0  0  0  0  0
  183.2750  172.3250  136.3290 C   0  0  0  0  0  3  0  0  0  0  0  0
  183.3700  175.5880  138.2950 C   0  0  0  0  0  2  0  0  0  0  0  0
  183.8340  173.4410  136.9710 C   0  0  0  0  0  3  0  0  0  0  0  0
  181.0370  173.0820  136.9260 C   0  0  0  0  0  3  0  0  0  0  0  0
  185.7570  178.7500  145.4890 C   0  0  0  0  0  0  0  0  0  0  0  0
  185.5650  179.6430  146.3570 O   0  0  0  0  0  0  0  0  0  0  0  0
  187.0100  178.0650  145.4580 N   0  0  0  0  0  2  0  0  0  0  0  0
  187.3070  177.0250  144.4840 C   0  0  0  0  0  2  0  0  0  0  0  0
  189.5600  177.9930  144.9000 C   0  0  0  0  0  1  0  0  0  0  0  0
  188.6050  177.9570  142.7270 O   0  0  0  0  0  1  0  0  0  0  0  0
  188.6970  177.2310  143.9130 C   0  0  2  0  0  3  0  0  0  0  0  0
  1  9  1  0  0  0  0
  2  3  1  0  0  0  0
  3  5  1  0  0  0  0
  4  2  1  0  0  0  0
  6  8  1  0  0  0  0
  7  1  2  0  0  0  0
  7  4  1  0  0  0  0
  8  5  1  0  0  0  0
  8 26  1  1  0  0  0
  9  2  2  0  0  0  0
  9  6  1  0  0  0  0
 11 15  1  0  0  0  0
 11 14  2  0  0  0  0
 12 15  1  0  0  0  0
 13 10  1  0  0  0  0
 13 16  1  0  0  0  0
 14 16  1  0  0  0  0
 15 13  2  0  0  0  0
 16  7  1  0  0  0  0
 17 23  1  0  0  0  0
 18 14  1  6  0  0  0
 19 18  1  0  0  0  0
 20 17  1  0  0  0  0
 20 19  1  0  0  0  0
 21 22  2  0  0  0  0
 21 25  1  0  0  0  0
 22 24  1  0  0  0  0
 23 18  1  0  0  0  0
 24 17  2  0  0  0  0
 25 20  2  0  0  0  0
 26 27  2  0  0  0  0
 28 26  1  0  0  0  0
 29 28  1  0  0  0  0
 31 32  1  0  0  0  0
 32 29  1  0  0  0  0
 32 30  1  1  0  0  0
M  END
>  <MODEL>
7

>  <REMARK>
 VINA RESULT:      -7.9      5.031      7.766
  Name = 
  5 active torsions:
  status: ('A' for Active; 'I' for Inactive)
    1  A    between atoms: C_3  and  C_25
    2  A    between atoms: C_6  and  C_19
    3  A    between atoms: C_14  and  N_18
    4  A    between atoms: C_14  and  C_30
    5  A    between atoms: C_16  and  N_31
                            x       y       z     vdW  Elec       q    Type
                         _______ _______ _______ _____ _____    ______ ____

>  <TORSDO>
F 5

$$$$
=
 OpenBabel11032420213D

 32 36  0  0  1  0  0  0  0  0999 V2000
  183.5050  177.4510  141.6100 C   0  0  0  0  0  3  0  0  0  0  0  0
  183.9260  179.0930  140.1730 C   0  0  0  0  0  0  0  0  0  0  0  0
  183.9140  179.8980  138.9110 C   0  0  0  0  0  2  0  0  0  0  0  0
  184.6000  179.3720  141.2580 O   0  0  0  0  0  0  0  0  0  0  0  0
  182.7120  179.5050  138.0400 C   0  0  0  0  0  2  0  0  0  0  0  0
  182.3150  177.3390  139.3180 C   0  0  0  0  0  2  0  0  0  0  0  0
  184.3670  178.4130  142.1320 C   0  0  0  0  0  0  0  0  0  0  0  0
  182.5700  177.9770  137.9420 C   0  0  1  0  0  3  0  0  0  0  0  0
  183.2530  177.9110  140.3340 C   0  0  0  0  0  0  0  0  0  0  0  0
  182.9850  179.3330  144.7620 C   0  0  0  0  0  1  0  0  0  0  0  0
  186.4210  178.0730  145.1500 C   0  0  0  0  0  3  0  0  0  0  0  0
  185.0040  178.8880  146.9850 O   0  0  0  0  0  1  0  0  0  0  0  0
  184.3640  178.7830  144.6120 C   0  0  0  0  0  0  0  0  0  0  0  0
  186.1850  177.9600  143.7830 C   0  0  0  0  0  0  0  0  0  0  0  0
  185.2470  178.5970  145.6490 C   0  0  0  0  0  0  0  0  0  0  0  0
  184.9420  178.3900  143.4550 N   0  0  0  0  0  0  0  0  0  0  0  0
  189.3250  176.5220  143.2600 C   0  0  0  0  0  0  0  0  0  0  0  0
  187.1870  177.4320  142.7980 C   0  0  1  0  0  3  0  0  0  0  0  0
  188.2600  178.4870  142.4820 C   0  0  0  0  0  2  0  0  0  0  0  0
  189.5290  177.7940  142.7860 C   0  0  0  0  0  0  0  0  0  0  0  0
  191.9080  177.5070  142.9860 C   0  0  0  0  0  3  0  0  0  0  0  0
  191.7000  176.2030  143.4730 C   0  0  0  0  0  3  0  0  0  0  0  0
  187.8910  176.1790  143.3430 C   0  0  0  0  0  2  0  0  0  0  0  0
  190.3960  175.7020  143.6140 C   0  0  0  0  0  3  0  0  0  0  0  0
  190.8150  178.3140  142.6390 C   0  0  0  0  0  3  0  0  0  0  0  0
  181.4810  177.6050  136.9840 C   0  0  0  0  0  0  0  0  0  0  0  0
  180.4090  178.2670  136.9640 O   0  0  0  0  0  0  0  0  0  0  0  0
  181.6370  176.5020  136.0900 N   0  0  0  0  0  2  0  0  0  0  0  0
  182.8440  175.6890  136.0580 C   0  0  0  0  0  2  0  0  0  0  0  0
  184.0300  174.0140  137.4640 C   0  0  0  0  0  1  0  0  0  0  0  0
  182.0780  173.4470  136.2380 O   0  0  0  0  0  1  0  0  0  0  0  0
  182.6780  174.4790  136.9580 C   0  0  2  0  0  3  0  0  0  0  0  0
  1  7  2  0  0  0  0
  2  9  2  0  0  0  0
  2  4  1  0  0  0  0
  3  2  1  0  0  0  0
  4  7  1  0  0  0  0
  5  3  1  0  0  0  0
  6  9  1  0  0  0  0
  7 16  1  0  0  0  0
  8 26  1  6  0  0  0
  8  5  1  0  0  0  0
  8  6  1  0  0  0  0
  9  1  1  0  0  0  0
 11 15  1  0  0  0  0
 13 10  1  0  0  0  0
 13 15  2  0  0  0  0
 14 11  2  0  0  0  0
 15 12  1  0  0  0  0
 16 14  1  0  0  0  0
 16 13  1  0  0  0  0
 17 23  1  0  0  0  0
 17 24  1  0  0  0  0
 18 23  1  0  0  0  0
 18 14  1  1  0  0  0
 19 20  1  0  0  0  0
 19 18  1  0  0  0  0
 20 17  2  0  0  0  0
 21 22  1  0  0  0  0
 22 24  2  0  0  0  0
 25 20  1  0  0  0  0
 25 21  2  0  0  0  0
 27 26  2  0  0  0  0
 28 26  1  0  0  0  0
 29 28  1  0  0  0  0
 29 32  1  0  0  0  0
 31 32  1  0  0  0  0
 32 30  1  6  0  0  0
M  END
>  <MODEL>
8

>  <REMARK>
 VINA RESULT:      -7.7      4.732      9.362
  Name = 
  5 active torsions:
  status: ('A' for Active; 'I' for Inactive)
    1  A    between atoms: C_3  and  C_25
    2  A    between atoms: C_6  and  C_19
    3  A    between atoms: C_14  and  N_18
    4  A    between atoms: C_14  and  C_30
    5  A    between atoms: C_16  and  N_31
                            x       y       z     vdW  Elec       q    Type
                         _______ _______ _______ _____ _____    ______ ____

>  <TORSDO>
F 5

$$$$
=
 OpenBabel11032420213D

 32 36  0  0  1  0  0  0  0  0999 V2000
  189.0280  176.8800  140.3160 C   0  0  0  0  0  3  0  0  0  0  0  0
  190.8030  177.5050  141.4990 C   0  0  0  0  0  0  0  0  0  0  0  0
  191.6500  177.8830  142.6740 C   0  0  0  0  0  2  0  0  0  0  0  0
  191.1760  177.5100  140.2460 O   0  0  0  0  0  0  0  0  0  0  0  0
  191.0250  177.3550  143.9730 C   0  0  0  0  0  2  0  0  0  0  0  0
  188.7590  176.9510  142.8860 C   0  0  0  0  0  2  0  0  0  0  0  0
  190.1410  177.1410  139.5180 C   0  0  0  0  0  0  0  0  0  0  0  0
  189.5170  177.6500  144.0270 C   0  0  1  0  0  3  0  0  0  0  0  0
  189.4840  177.1430  141.5920 C   0  0  0  0  0  0  0  0  0  0  0  0
  188.4500  178.7760  137.4830 C   0  0  0  0  0  1  0  0  0  0  0  0
  190.7630  176.3290  135.9980 C   0  0  0  0  0  3  0  0  0  0  0  0
  189.2650  177.8040  134.7250 O   0  0  0  0  0  1  0  0  0  0  0  0
  189.4610  177.7220  137.1760 C   0  0  0  0  0  0  0  0  0  0  0  0
  190.9710  176.1840  137.3660 C   0  0  0  0  0  0  0  0  0  0  0  0
  189.8000  177.3130  135.9090 C   0  0  0  0  0  0  0  0  0  0  0  0
  190.1840  177.0250  138.0810 N   0  0  0  0  0  0  0  0  0  0  0  0
  194.1520  174.7460  137.2540 C   0  0  0  0  0  0  0  0  0  0  0  0
  191.9420  175.2130  137.9710 C   0  0  1  0  0  3  0  0  0  0  0  0
  191.9490  173.8840  137.1980 C   0  0  0  0  0  2  0  0  0  0  0  0
  193.3690  173.7010  136.8340 C   0  0  0  0  0  0  0  0  0  0  0  0
  195.2930  172.6220  135.8760 C   0  0  0  0  0  3  0  0  0  0  0  0
  196.0960  173.6940  136.3060 C   0  0  0  0  0  3  0  0  0  0  0  0
  193.3700  175.7820  137.9600 C   0  0  0  0  0  2  0  0  0  0  0  0
  195.5240  174.7700  137.0020 C   0  0  0  0  0  3  0  0  0  0  0  0
  193.9150  172.6220  136.1390 C   0  0  0  0  0  3  0  0  0  0  0  0
  188.9450  177.2540  145.3540 C   0  0  0  0  0  0  0  0  0  0  0  0
  189.6770  176.6870  146.2090 O   0  0  0  0  0  0  0  0  0  0  0  0
  187.5750  177.5060  145.6640 N   0  0  0  0  0  2  0  0  0  0  0  0
  186.6680  178.1530  144.7270 C   0  0  0  0  0  2  0  0  0  0  0  0
  185.6880  178.6280  146.9630 C   0  0  0  0  0  1  0  0  0  0  0  0
  184.3570  178.6330  144.9980 O   0  0  0  0  0  1  0  0  0  0  0  0
  185.6240  178.9530  145.4830 C   0  0  2  0  0  3  0  0  0  0  0  0
  1  9  1  0  0  0  0
  2  9  2  0  0  0  0
  2  3  1  0  0  0  0
  3  5  1  0  0  0  0
  4  2  1  0  0  0  0
  5  8  1  0  0  0  0
  6  8  1  0  0  0  0
  7  4  1  0  0  0  0
  7  1  2  0  0  0  0
  8 26  1  1  0  0  0
  9  6  1  0  0  0  0
 11 14  2  0  0  0  0
 12 15  1  0  0  0  0
 13 10  1  0  0  0  0
 13 16  1  0  0  0  0
 14 16  1  0  0  0  0
 15 11  1  0  0  0  0
 15 13  2  0  0  0  0
 16  7  1  0  0  0  0
 17 23  1  0  0  0  0
 18 14  1  6  0  0  0
 19 18  1  0  0  0  0
 20 19  1  0  0  0  0
 20 17  2  0  0  0  0
 21 25  2  0  0  0  0
 21 22  1  0  0  0  0
 22 24  2  0  0  0  0
 23 18  1  0  0  0  0
 24 17  1  0  0  0  0
 25 20  1  0  0  0  0
 26 28  1  0  0  0  0
 26 27  2  0  0  0  0
 29 32  1  0  0  0  0
 29 28  1  0  0  0  0
 31 32  1  0  0  0  0
 32 30  1  1  0  0  0
M  END
>  <MODEL>
9

>  <REMARK>
 VINA RESULT:      -7.6      2.272      4.518
  Name = 
  5 active torsions:
  status: ('A' for Active; 'I' for Inactive)
    1  A    between atoms: C_3  and  C_25
    2  A    between atoms: C_6  and  C_19
    3  A    between atoms: C_14  and  N_18
    4  A    between atoms: C_14  and  C_30
    5  A    between atoms: C_16  and  N_31
                            x       y       z     vdW  Elec       q    Type
                         _______ _______ _______ _____ _____    ______ ____

>  <TORSDO>
F 5

$$$$
