=
 OpenBabel11042409543D

 66 72  0  0  1  0  0  0  0  0999 V2000
  181.7360  179.4940  136.5010 C   0  0  0  0  0  3  0  0  0  0  0  0
  188.9330  174.9290  136.3910 O   0  0  0  0  0  0  0  0  0  0  0  0
  184.1950  178.2680  140.7630 C   0  0  0  0  0  0  0  0  0  0  0  0
  184.8260  172.8010  136.9480 C   0  0  0  0  0  0  0  0  0  0  0  0
  183.4850  177.4730  141.4530 O   0  0  0  0  0  0  0  0  0  0  0  0
  183.6190  179.4540  140.2510 O   0  0  0  0  0  0  0  0  0  0  0  0
  187.4640  176.5380  137.1440 N   0  0  0  0  0  0  0  0  0  0  0  0
  183.0130  177.3850  135.9500 C   0  0  0  0  0  0  0  0  0  0  0  0
  186.5330  178.7830  139.9550 C   0  0  0  0  0  2  0  0  0  0  0  0
  187.5340  178.0420  139.0560 C   0  0  0  0  0  2  0  0  0  0  0  0
  185.5070  177.8460  140.3520 N   0  0  0  0  0  2  0  0  0  0  0  0
  188.6900  176.2150  136.8730 C   0  0  0  0  0  0  0  0  0  0  0  0
  186.9740  177.8120  137.6620 C   0  0  0  0  0  2  0  0  0  0  0  0
  184.3080  176.8480  136.0450 C   0  0  0  0  0  3  0  0  0  0  0  0
  185.8750  172.1610  136.0740 C   0  0  0  0  0  2  0  0  0  0  0  0
  183.4170  174.6100  135.9920 C   0  0  0  0  0  0  0  0  0  0  0  0
  188.2170  172.8650  135.4890 C   0  0  0  0  0  2  0  0  0  0  0  0
  182.9550  179.4660  139.0130 C   0  0  0  0  0  0  0  0  0  0  0  0
  184.5060  175.4760  136.1060 C   0  0  0  0  0  3  0  0  0  0  0  0
  187.2970  172.4030  136.6260 C   0  0  2  0  0  3  0  0  0  0  0  0
  187.7950  171.2650  137.2770 O   0  0  0  0  0  1  0  0  0  0  0  0
  185.0560  173.0160  138.1910 O   0  0  0  0  0  0  0  0  0  0  0  0
  181.3850  180.4630  137.4620 C   0  0  0  0  0  0  0  0  0  0  0  0
  183.2970  178.5730  138.0540 N   0  0  0  0  0  0  0  0  0  0  0  0
  182.1560  175.1260  135.6380 C   0  0  0  0  0  3  0  0  0  0  0  0
  181.9430  176.5140  135.6310 C   0  0  0  0  0  3  0  0  0  0  0  0
  181.9730  180.4220  138.7400 C   0  0  0  0  0  3  0  0  0  0  0  0
  183.5680  173.2280  136.3750 N   0  0  0  0  0  0  0  0  0  0  0  0
  182.7080  178.5370  136.8130 C   0  0  0  0  0  0  0  0  0  0  0  0
  188.1350  174.3530  135.3740 C   0  0  0  0  0  2  0  0  0  0  0  0
  189.8620  177.1300  137.1310 C   0  0  1  0  0  3  0  0  0  0  0  0
  189.4310  178.4350  136.8880 O   0  0  0  0  0  1  0  0  0  0  0  0
  190.2580  176.9910  138.6020 C   0  0  0  0  0  2  0  0  0  0  0  0
  191.5010  177.7830  139.0780 C   0  0  1  0  0  3  0  0  0  0  0  0
  192.1660  177.6610  140.4840 C   0  0  2  0  0  3  0  0  0  0  0  0
  192.4410  176.6230  139.4260 C   0  0  0  0  0  2  0  0  0  0  0  0
  191.6990  177.6190  142.9280 C   0  0  0  0  0  2  0  0  0  0  0  0
  189.0470  176.9900  142.1510 C   0  0  0  0  0  2  0  0  0  0  0  0
  189.8880  177.7180  141.3040 O   0  0  0  0  0  0  0  0  0  0  0  0
  189.1310  177.6310  143.5130 C   0  0  1  0  0  3  0  0  0  0  0  0
  191.1760  177.1930  141.5610 C   0  0  1  0  0  3  0  0  0  0  0  0
  188.1790  176.9410  144.5100 C   0  0  0  0  0  1  0  0  0  0  0  0
  190.5890  177.7720  144.0050 C   0  0  1  0  0  3  0  0  0  0  0  0
  190.8210  177.5880  146.4370 O   0  0  0  0  0  0  0  0  0  0  0  0
  190.8790  176.9960  145.2140 N   0  0  0  0  0  0  0  0  0  0  0  0
  191.5840  176.7500  147.2010 N   0  0  0  0  0  2  0  0  0  0  0  0
  191.6830  175.8060  145.2250 C   0  0  0  0  0  3  0  0  0  0  0  0
  192.1140  175.6560  146.4460 C   0  0  0  0  0  3  0  0  0  0  0  0
  182.6720  171.4060  137.6290 F   0  0  0  0  0  0  0  0  0  0  0  0
  182.3820  172.4490  136.7750 C   0  0  2  0  0  3  0  0  0  0  0  0
  181.5250  172.0070  135.5560 C   0  0  0  0  0  2  0  0  0  0  0  0
  179.6560  171.2050  136.7980 O   0  0  0  0  0  1  0  0  0  0  0  0
  180.3840  169.8220  135.1040 O   0  0  0  0  0  0  0  0  0  0  0  0
  180.4830  170.9820  135.8670 C   0  0  0  0  0  0  0  0  0  0  0  0
  180.4910  181.4860  137.1230 O   0  0  0  0  0  0  0  0  0  0  0  0
  179.2870  181.6380  137.8620 C   0  0  0  0  0  2  0  0  0  0  0  0
  179.5460  182.3420  139.0970 N   0  0  0  0  0  2  0  0  0  0  0  0
  178.9310  181.5050  140.1280 C   0  0  0  0  0  2  0  0  0  0  0  0
  179.7130  178.2470  141.4950 C   0  0  0  0  0  0  0  0  0  0  0  0
  179.5800  178.3720  143.8840 C   0  0  0  0  0  3  0  0  0  0  0  0
  179.8190  177.6150  142.6350 C   0  0  0  0  0  3  0  0  0  0  0  0
  179.6260  179.0750  140.5090 C   0  0  0  0  0  3  0  0  0  0  0  0
  179.9470  180.5440  140.7570 C   0  0  2  0  0  3  0  0  0  0  0  0
  179.2230  179.6740  144.0010 C   0  0  0  0  0  3  0  0  0  0  0  0
  178.9580  180.6130  142.8480 C   0  0  0  0  0  2  0  0  0  0  0  0
  180.1490  180.8640  142.1230 O   0  0  0  0  0  0  0  0  0  0  0  0
  1 29  2  0  0  0  0
  1 23  1  0  0  0  0
  2 12  1  0  0  0  0
  3  5  2  0  0  0  0
  4 22  2  0  0  0  0
  6  3  1  0  0  0  0
  7 13  1  0  0  0  0
  8 14  1  0  0  0  0
  8 29  1  0  0  0  0
  9 11  1  0  0  0  0
 10  9  1  0  0  0  0
 11  3  1  0  0  0  0
 12 31  1  0  0  0  0
 12  7  2  0  0  0  0
 13 10  1  0  0  0  0
 14 19  2  0  0  0  0
 15 20  1  0  0  0  0
 15  4  1  0  0  0  0
 16 19  1  0  0  0  0
 16 28  1  0  0  0  0
 17 20  1  0  0  0  0
 18  6  1  0  0  0  0
 20 21  1  6  0  0  0
 23 27  2  0  0  0  0
 24 18  2  0  0  0  0
 25 16  2  0  0  0  0
 26 25  1  0  0  0  0
 26  8  2  0  0  0  0
 27 18  1  0  0  0  0
 28 50  1  0  0  0  0
 28  4  1  0  0  0  0
 29 24  1  0  0  0  0
 30 17  1  0  0  0  0
 30  2  1  0  0  0  0
 31 32  1  1  0  0  0
 31 33  1  0  0  0  0
 34 33  1  1  0  0  0
 34 36  1  0  0  0  0
 34 35  1  0  0  0  0
 35 36  1  6  0  0  0
 35 41  1  0  0  0  0
 38 40  1  0  0  0  0
 39 41  1  0  0  0  0
 39 38  1  0  0  0  0
 40 43  1  0  0  0  0
 40 42  1  1  0  0  0
 41 37  1  1  0  0  0
 43 37  1  6  0  0  0
 43 45  1  0  0  0  0
 44 46  1  0  0  0  0
 45 47  1  0  0  0  0
 45 44  1  0  0  0  0
 47 48  2  0  0  0  0
 48 46  1  0  0  0  0
 50 49  1  6  0  0  0
 51 54  1  0  0  0  0
 51 50  1  0  0  0  0
 53 54  2  0  0  0  0
 54 52  1  0  0  0  0
 55 23  1  0  0  0  0
 55 56  1  0  0  0  0
 56 57  1  0  0  0  0
 57 58  1  0  0  0  0
 59 61  2  0  0  0  0
 60 64  2  0  0  0  0
 61 60  1  0  0  0  0
 62 63  1  0  0  0  0
 62 59  2  0  0  0  0
 63 58  1  1  0  0  0
 63 66  1  0  0  0  0
 65 64  1  0  0  0  0
 66 65  1  0  0  0  0
M  END
>  <MODEL>
1

>  <REMARK>
 VINA RESULT:      -7.0      0.000      0.000
  Name = 
  13 active torsions:
  status: ('A' for Active; 'I' for Inactive)
    1  A    between atoms: C_6  and  C_19
    2  A    between atoms: C_6  and  C_37
    3  A    between atoms: C_11  and  C_38
    4  A    between atoms: C_11  and  C_57
    5  A    between atoms: C_19  and  C_30
    6  A    between atoms: N_20  and  C_45
    7  A    between atoms: C_22  and  C_43
    8  A    between atoms: N_29  and  C_34
    9  A    between atoms: N_29  and  C_35
   10  A    between atoms: C_34  and  O_52
   11  A    between atoms: C_35  and  C_53
   12  A    between atoms: C_38  and  N_63
   13  A    between atoms: C_50  and  O_52
                            x       y       z     vdW  Elec       q    Type
                         _______ _______ _______ _____ _____    ______ ____

>  <TORSDO>
F 13

$$$$
=
 OpenBabel11042409543D

 66 72  0  0  1  0  0  0  0  0999 V2000
  192.4000  176.4220  136.5170 C   0  0  0  0  0  3  0  0  0  0  0  0
  185.2440  178.8670  140.4490 O   0  0  0  0  0  0  0  0  0  0  0  0
  188.4960  173.2560  137.1860 C   0  0  0  0  0  0  0  0  0  0  0  0
  188.6470  176.7980  142.8670 C   0  0  0  0  0  0  0  0  0  0  0  0
  188.8320  172.3250  137.9800 O   0  0  0  0  0  0  0  0  0  0  0  0
  189.3380  173.5840  136.0970 O   0  0  0  0  0  0  0  0  0  0  0  0
  186.5240  177.7160  138.9160 N   0  0  0  0  0  0  0  0  0  0  0  0
  191.1750  177.2940  138.5470 C   0  0  0  0  0  0  0  0  0  0  0  0
  186.6540  174.8610  136.5400 C   0  0  0  0  0  2  0  0  0  0  0  0
  185.9550  176.0220  137.2640 C   0  0  0  0  0  2  0  0  0  0  0  0
  187.3720  174.0850  137.5270 N   0  0  0  0  0  2  0  0  0  0  0  0
  185.4410  178.3890  139.1540 C   0  0  0  0  0  0  0  0  0  0  0  0
  186.9370  177.1160  137.6500 C   0  0  0  0  0  2  0  0  0  0  0  0
  189.8790  177.6390  138.9630 C   0  0  0  0  0  3  0  0  0  0  0  0
  187.9050  177.9570  143.4830 C   0  0  0  0  0  2  0  0  0  0  0  0
  190.4860  177.2740  141.2660 C   0  0  0  0  0  0  0  0  0  0  0  0
  186.0020  179.3640  142.6320 C   0  0  0  0  0  2  0  0  0  0  0  0
  190.3880  174.5060  136.2410 C   0  0  0  0  0  0  0  0  0  0  0  0
  189.5250  177.5920  140.3040 C   0  0  0  0  0  3  0  0  0  0  0  0
  186.4140  177.9560  143.0780 C   0  0  2  0  0  3  0  0  0  0  0  0
  185.6020  177.4730  144.1140 O   0  0  0  0  0  1  0  0  0  0  0  0
  188.0240  175.7280  142.5340 O   0  0  0  0  0  0  0  0  0  0  0  0
  192.4970  175.4440  135.5080 C   0  0  0  0  0  0  0  0  0  0  0  0
  190.3070  175.4820  137.1750 N   0  0  0  0  0  0  0  0  0  0  0  0
  191.8400  177.1810  140.8890 C   0  0  0  0  0  3  0  0  0  0  0  0
  192.1900  177.1740  139.5290 C   0  0  0  0  0  3  0  0  0  0  0  0
  191.5000  174.4560  135.3970 C   0  0  0  0  0  3  0  0  0  0  0  0
  190.0640  176.9070  142.5950 N   0  0  0  0  0  0  0  0  0  0  0  0
  191.2830  176.4310  137.3600 C   0  0  0  0  0  0  0  0  0  0  0  0
  186.2790  179.5100  141.1700 C   0  0  0  0  0  2  0  0  0  0  0  0
  184.3580  178.6040  138.1250 C   0  0  1  0  0  3  0  0  0  0  0  0
  184.9450  178.4570  136.8680 O   0  0  0  0  0  1  0  0  0  0  0  0
  183.2970  177.5200  138.3200 C   0  0  0  0  0  2  0  0  0  0  0  0
  181.9590  177.9490  138.9730 C   0  0  1  0  0  3  0  0  0  0  0  0
  180.6520  177.0960  138.9980 C   0  0  2  0  0  3  0  0  0  0  0  0
  181.7670  176.7970  139.9690 C   0  0  0  0  0  2  0  0  0  0  0  0
  181.1710  174.7740  138.2710 C   0  0  0  0  0  2  0  0  0  0  0  0
  179.3470  175.2990  136.1660 C   0  0  0  0  0  2  0  0  0  0  0  0
  179.2390  175.9650  137.3910 O   0  0  0  0  0  0  0  0  0  0  0  0
  179.4920  173.8300  136.4730 C   0  0  1  0  0  3  0  0  0  0  0  0
  180.5770  176.1060  137.8270 C   0  0  1  0  0  3  0  0  0  0  0  0
  179.5480  172.9960  135.1790 C   0  0  0  0  0  1  0  0  0  0  0  0
  180.6390  173.5520  137.4710 C   0  0  1  0  0  3  0  0  0  0  0  0
  181.8870  171.4500  137.3010 O   0  0  0  0  0  0  0  0  0  0  0  0
  181.7240  172.7420  136.9100 N   0  0  0  0  0  0  0  0  0  0  0  0
  183.1900  171.2090  136.9710 N   0  0  0  0  0  2  0  0  0  0  0  0
  182.9260  173.2950  136.3510 C   0  0  0  0  0  3  0  0  0  0  0  0
  183.8250  172.3520  136.3890 C   0  0  0  0  0  3  0  0  0  0  0  0
  190.3400  174.9320  143.9060 F   0  0  0  0  0  0  0  0  0  0  0  0
  190.9450  176.0780  143.4370 C   0  0  2  0  0  3  0  0  0  0  0  0
  191.6300  176.9000  144.5660 C   0  0  0  0  0  2  0  0  0  0  0  0
  190.0630  176.9070  146.3620 O   0  0  0  0  0  0  0  0  0  0  0  0
  192.0140  175.7430  146.7540 O   0  0  0  0  0  1  0  0  0  0  0  0
  191.2000  176.5350  145.9490 C   0  0  0  0  0  0  0  0  0  0  0  0
  193.5570  175.4890  134.5940 O   0  0  0  0  0  0  0  0  0  0  0  0
  194.7380  176.2060  134.9270 C   0  0  0  0  0  2  0  0  0  0  0  0
  195.8960  175.3580  134.7670 N   0  0  0  0  0  2  0  0  0  0  0  0
  195.8690  174.4810  135.9390 C   0  0  0  0  0  2  0  0  0  0  0  0
  194.6570  171.1780  136.7860 C   0  0  0  0  0  0  0  0  0  0  0  0
  196.5200  169.8380  137.4760 C   0  0  0  0  0  3  0  0  0  0  0  0
  195.0740  170.0160  137.2180 C   0  0  0  0  0  3  0  0  0  0  0  0
  194.4850  172.3640  136.3060 C   0  0  0  0  0  3  0  0  0  0  0  0
  195.6310  173.0180  135.5450 C   0  0  2  0  0  3  0  0  0  0  0  0
  197.4990  170.7670  137.3490 C   0  0  0  0  0  3  0  0  0  0  0  0
  197.2870  172.2070  136.9440 C   0  0  0  0  0  2  0  0  0  0  0  0
  196.8470  172.2890  135.6000 O   0  0  0  0  0  0  0  0  0  0  0  0
  1 29  2  0  0  0  0
  2 30  1  0  0  0  0
  3 11  1  0  0  0  0
  3  5  2  0  0  0  0
  4 15  1  0  0  0  0
  6 18  1  0  0  0  0
  6  3  1  0  0  0  0
  7 12  2  0  0  0  0
  8 14  2  0  0  0  0
  8 26  1  0  0  0  0
  9 10  1  0  0  0  0
  9 11  1  0  0  0  0
 10 13  1  0  0  0  0
 12  2  1  0  0  0  0
 13  7  1  0  0  0  0
 14 19  1  0  0  0  0
 16 28  1  0  0  0  0
 17 20  1  0  0  0  0
 18 24  2  0  0  0  0
 19 16  2  0  0  0  0
 20 15  1  0  0  0  0
 20 21  1  1  0  0  0
 22  4  2  0  0  0  0
 23  1  1  0  0  0  0
 24 29  1  0  0  0  0
 25 16  1  0  0  0  0
 26 25  2  0  0  0  0
 27 23  2  0  0  0  0
 27 18  1  0  0  0  0
 28  4  1  0  0  0  0
 28 50  1  0  0  0  0
 29  8  1  0  0  0  0
 30 17  1  0  0  0  0
 31 32  1  6  0  0  0
 31 33  1  0  0  0  0
 31 12  1  0  0  0  0
 34 33  1  6  0  0  0
 34 35  1  0  0  0  0
 34 36  1  0  0  0  0
 35 36  1  1  0  0  0
 38 40  1  0  0  0  0
 38 39  1  0  0  0  0
 39 41  1  0  0  0  0
 40 42  1  6  0  0  0
 40 43  1  0  0  0  0
 41 37  1  1  0  0  0
 41 35  1  0  0  0  0
 43 45  1  6  0  0  0
 43 37  1  0  0  0  0
 45 44  1  0  0  0  0
 46 44  1  0  0  0  0
 47 48  2  0  0  0  0
 47 45  1  0  0  0  0
 48 46  1  0  0  0  0
 50 49  1  1  0  0  0
 50 51  1  0  0  0  0
 51 54  1  0  0  0  0
 54 52  2  0  0  0  0
 54 53  1  0  0  0  0
 55 56  1  0  0  0  0
 55 23  1  0  0  0  0
 57 56  1  0  0  0  0
 57 58  1  0  0  0  0
 59 61  2  0  0  0  0
 61 60  1  0  0  0  0
 62 59  2  0  0  0  0
 63 66  1  0  0  0  0
 63 58  1  1  0  0  0
 63 62  1  0  0  0  0
 64 60  2  0  0  0  0
 65 64  1  0  0  0  0
 66 65  1  0  0  0  0
M  END
>  <MODEL>
2

>  <REMARK>
 VINA RESULT:      -6.5      3.794     12.192
  Name = 
  13 active torsions:
  status: ('A' for Active; 'I' for Inactive)
    1  A    between atoms: C_6  and  C_19
    2  A    between atoms: C_6  and  C_37
    3  A    between atoms: C_11  and  C_38
    4  A    between atoms: C_11  and  C_57
    5  A    between atoms: C_19  and  C_30
    6  A    between atoms: N_20  and  C_45
    7  A    between atoms: C_22  and  C_43
    8  A    between atoms: N_29  and  C_34
    9  A    between atoms: N_29  and  C_35
   10  A    between atoms: C_34  and  O_52
   11  A    between atoms: C_35  and  C_53
   12  A    between atoms: C_38  and  N_63
   13  A    between atoms: C_50  and  O_52
                            x       y       z     vdW  Elec       q    Type
                         _______ _______ _______ _____ _____    ______ ____

>  <TORSDO>
F 13

$$$$
=
 OpenBabel11042409543D

 66 72  0  0  1  0  0  0  0  0999 V2000
  191.7990  176.4270  136.5570 C   0  0  0  0  0  3  0  0  0  0  0  0
  184.7940  178.9660  140.6960 O   0  0  0  0  0  0  0  0  0  0  0  0
  187.8460  173.3340  137.2770 C   0  0  0  0  0  0  0  0  0  0  0  0
  188.2090  176.7930  143.0010 C   0  0  0  0  0  0  0  0  0  0  0  0
  188.1810  172.3850  138.0510 O   0  0  0  0  0  0  0  0  0  0  0  0
  188.6680  173.6600  136.1730 O   0  0  0  0  0  0  0  0  0  0  0  0
  186.0120  177.8100  139.1160 N   0  0  0  0  0  0  0  0  0  0  0  0
  190.6430  177.2960  138.6280 C   0  0  0  0  0  0  0  0  0  0  0  0
  186.0240  174.9870  136.6990 C   0  0  0  0  0  2  0  0  0  0  0  0
  185.3670  176.1530  137.4550 C   0  0  0  0  0  2  0  0  0  0  0  0
  186.7480  174.1830  137.6570 N   0  0  0  0  0  2  0  0  0  0  0  0
  184.9490  178.5020  139.3900 C   0  0  0  0  0  0  0  0  0  0  0  0
  186.3810  177.2200  137.8320 C   0  0  0  0  0  2  0  0  0  0  0  0
  189.3640  177.6630  139.0800 C   0  0  0  0  0  3  0  0  0  0  0  0
  187.5070  177.9580  143.6510 C   0  0  0  0  0  2  0  0  0  0  0  0
  190.0190  177.2520  141.3620 C   0  0  0  0  0  0  0  0  0  0  0  0
  185.6150  179.4160  142.8660 C   0  0  0  0  0  2  0  0  0  0  0  0
  189.7410  174.5580  136.3030 C   0  0  0  0  0  0  0  0  0  0  0  0
  189.0420  177.6030  140.4290 C   0  0  0  0  0  3  0  0  0  0  0  0
  186.0080  177.9930  143.2820 C   0  0  2  0  0  3  0  0  0  0  0  0
  185.2110  177.5130  144.3320 O   0  0  0  0  0  1  0  0  0  0  0  0
  187.5560  175.7400  142.6690 O   0  0  0  0  0  0  0  0  0  0  0  0
  191.8510  175.4610  135.5320 C   0  0  0  0  0  0  0  0  0  0  0  0
  189.7030  175.5230  137.2530 N   0  0  0  0  0  0  0  0  0  0  0  0
  191.3610  177.1360  140.9510 C   0  0  0  0  0  3  0  0  0  0  0  0
  191.6780  177.1410  139.5830 C   0  0  0  0  0  3  0  0  0  0  0  0
  190.8310  174.4970  135.4320 C   0  0  0  0  0  3  0  0  0  0  0  0
  189.6220  176.8750  142.6960 N   0  0  0  0  0  0  0  0  0  0  0  0
  190.7040  176.4480  137.4270 C   0  0  0  0  0  0  0  0  0  0  0  0
  185.8600  179.5770  141.4000 C   0  0  0  0  0  2  0  0  0  0  0  0
  183.8470  178.7550  138.3910 C   0  0  1  0  0  3  0  0  0  0  0  0
  184.3360  178.3960  137.1340 O   0  0  0  0  0  1  0  0  0  0  0  0
  182.6640  177.8550  138.7520 C   0  0  0  0  0  2  0  0  0  0  0  0
  181.8890  178.1910  140.0500 C   0  0  1  0  0  3  0  0  0  0  0  0
  180.4600  178.8150  140.1120 C   0  0  2  0  0  3  0  0  0  0  0  0
  180.6300  177.3420  139.8370 C   0  0  0  0  0  2  0  0  0  0  0  0
  180.8880  180.9580  138.9210 C   0  0  0  0  0  2  0  0  0  0  0  0
  179.8190  179.6180  136.6630 C   0  0  0  0  0  2  0  0  0  0  0  0
  180.4380  178.9040  137.6930 O   0  0  0  0  0  0  0  0  0  0  0  0
  180.7410  180.7550  136.2990 C   0  0  1  0  0  3  0  0  0  0  0  0
  180.1250  179.6390  138.8610 C   0  0  1  0  0  3  0  0  0  0  0  0
  180.1780  181.5670  135.1160 C   0  0  0  0  0  1  0  0  0  0  0  0
  181.1430  181.6000  137.5290 C   0  0  1  0  0  3  0  0  0  0  0  0
  179.3880  183.2650  137.1400 O   0  0  0  0  0  0  0  0  0  0  0  0
  180.6790  182.9880  137.4660 N   0  0  0  0  0  0  0  0  0  0  0  0
  179.4660  184.5640  136.7250 N   0  0  0  0  0  2  0  0  0  0  0  0
  181.5480  184.1100  137.2430 C   0  0  0  0  0  3  0  0  0  0  0  0
  180.8010  185.0780  136.7880 C   0  0  0  0  0  3  0  0  0  0  0  0
  190.3510  174.6700  143.2480 F   0  0  0  0  0  0  0  0  0  0  0  0
  190.5050  176.0160  143.5050 C   0  0  2  0  0  3  0  0  0  0  0  0
  190.4280  176.3500  145.0220 C   0  0  0  0  0  2  0  0  0  0  0  0
  192.0360  177.1250  146.6010 O   0  0  0  0  0  1  0  0  0  0  0  0
  191.8080  178.4160  144.7050 O   0  0  0  0  0  0  0  0  0  0  0  0
  191.4530  177.3270  145.4960 C   0  0  0  0  0  0  0  0  0  0  0  0
  192.8900  175.4980  134.5940 O   0  0  0  0  0  0  0  0  0  0  0  0
  194.0210  174.6570  134.7680 C   0  0  0  0  0  2  0  0  0  0  0  0
  195.0820  175.3800  135.4300 N   0  0  0  0  0  2  0  0  0  0  0  0
  195.0950  174.8430  136.7910 C   0  0  0  0  0  2  0  0  0  0  0  0
  198.4260  173.6340  136.0580 C   0  0  0  0  0  0  0  0  0  0  0  0
  198.5680  171.3390  136.7340 C   0  0  0  0  0  3  0  0  0  0  0  0
  199.1640  172.5570  136.1410 C   0  0  0  0  0  3  0  0  0  0  0  0
  197.5530  174.5810  136.1420 C   0  0  0  0  0  3  0  0  0  0  0  0
  196.5200  174.5260  137.2610 C   0  0  2  0  0  3  0  0  0  0  0  0
  197.3020  171.1810  137.1890 C   0  0  0  0  0  3  0  0  0  0  0  0
  196.2200  172.2340  137.1420 C   0  0  0  0  0  2  0  0  0  0  0  0
  196.5380  173.3170  138.0000 O   0  0  0  0  0  0  0  0  0  0  0  0
  1 29  2  0  0  0  0
  2 30  1  0  0  0  0
  3 11  1  0  0  0  0
  3  5  2  0  0  0  0
  4 15  1  0  0  0  0
  6 18  1  0  0  0  0
  6  3  1  0  0  0  0
  7 12  2  0  0  0  0
  8 14  2  0  0  0  0
  8 26  1  0  0  0  0
  9 10  1  0  0  0  0
  9 11  1  0  0  0  0
 10 13  1  0  0  0  0
 12  2  1  0  0  0  0
 13  7  1  0  0  0  0
 14 19  1  0  0  0  0
 16 28  1  0  0  0  0
 17 20  1  0  0  0  0
 18 24  2  0  0  0  0
 19 16  2  0  0  0  0
 20 15  1  0  0  0  0
 20 21  1  1  0  0  0
 22  4  2  0  0  0  0
 23  1  1  0  0  0  0
 24 29  1  0  0  0  0
 25 16  1  0  0  0  0
 26 25  2  0  0  0  0
 27 23  2  0  0  0  0
 27 18  1  0  0  0  0
 28  4  1  0  0  0  0
 28 50  1  0  0  0  0
 29  8  1  0  0  0  0
 30 17  1  0  0  0  0
 31 32  1  6  0  0  0
 31 33  1  0  0  0  0
 31 12  1  0  0  0  0
 34 33  1  6  0  0  0
 34 35  1  0  0  0  0
 35 36  1  6  0  0  0
 36 34  1  0  0  0  0
 38 39  1  0  0  0  0
 39 41  1  0  0  0  0
 40 42  1  6  0  0  0
 40 38  1  0  0  0  0
 40 43  1  0  0  0  0
 41 37  1  1  0  0  0
 41 35  1  0  0  0  0
 43 45  1  1  0  0  0
 43 37  1  0  0  0  0
 44 45  1  0  0  0  0
 46 48  1  0  0  0  0
 46 44  1  0  0  0  0
 47 45  1  0  0  0  0
 48 47  2  0  0  0  0
 50 49  1  1  0  0  0
 50 51  1  0  0  0  0
 51 54  1  0  0  0  0
 53 54  2  0  0  0  0
 54 52  1  0  0  0  0
 55 56  1  0  0  0  0
 55 23  1  0  0  0  0
 56 57  1  0  0  0  0
 57 58  1  0  0  0  0
 59 61  2  0  0  0  0
 59 62  2  0  0  0  0
 60 64  2  0  0  0  0
 61 60  1  0  0  0  0
 62 63  1  0  0  0  0
 63 58  1  6  0  0  0
 63 66  1  0  0  0  0
 65 64  1  0  0  0  0
 65 66  1  0  0  0  0
M  END
>  <MODEL>
3

>  <REMARK>
 VINA RESULT:      -6.2      3.661     12.468
  Name = 
  13 active torsions:
  status: ('A' for Active; 'I' for Inactive)
    1  A    between atoms: C_6  and  C_19
    2  A    between atoms: C_6  and  C_37
    3  A    between atoms: C_11  and  C_38
    4  A    between atoms: C_11  and  C_57
    5  A    between atoms: C_19  and  C_30
    6  A    between atoms: N_20  and  C_45
    7  A    between atoms: C_22  and  C_43
    8  A    between atoms: N_29  and  C_34
    9  A    between atoms: N_29  and  C_35
   10  A    between atoms: C_34  and  O_52
   11  A    between atoms: C_35  and  C_53
   12  A    between atoms: C_38  and  N_63
   13  A    between atoms: C_50  and  O_52
                            x       y       z     vdW  Elec       q    Type
                         _______ _______ _______ _____ _____    ______ ____

>  <TORSDO>
F 13

$$$$
=
 OpenBabel11042409543D

 66 72  0  0  1  0  0  0  0  0999 V2000
  193.0830  176.7570  137.1510 C   0  0  0  0  0  3  0  0  0  0  0  0
  185.6080  178.9830  140.5900 O   0  0  0  0  0  0  0  0  0  0  0  0
  189.0880  173.6340  137.1270 C   0  0  0  0  0  0  0  0  0  0  0  0
  188.7270  176.6150  143.1130 C   0  0  0  0  0  0  0  0  0  0  0  0
  189.3310  172.6240  137.8560 O   0  0  0  0  0  0  0  0  0  0  0  0
  190.0380  174.0450  136.1620 O   0  0  0  0  0  0  0  0  0  0  0  0
  187.0170  177.9540  139.0830 N   0  0  0  0  0  0  0  0  0  0  0  0
  191.6760  177.4600  139.1280 C   0  0  0  0  0  0  0  0  0  0  0  0
  187.3410  175.3360  136.4650 C   0  0  0  0  0  2  0  0  0  0  0  0
  186.5910  176.4390  137.2270 C   0  0  0  0  0  2  0  0  0  0  0  0
  187.9480  174.4530  137.4370 N   0  0  0  0  0  2  0  0  0  0  0  0
  185.9250  178.6260  139.2800 C   0  0  0  0  0  0  0  0  0  0  0  0
  187.5440  177.4680  137.8110 C   0  0  0  0  0  2  0  0  0  0  0  0
  190.3490  177.7950  139.4480 C   0  0  0  0  0  3  0  0  0  0  0  0
  187.9440  177.7270  143.7640 C   0  0  0  0  0  2  0  0  0  0  0  0
  190.7220  177.1980  141.7510 C   0  0  0  0  0  0  0  0  0  0  0  0
  186.1540  179.2520  142.8740 C   0  0  0  0  0  2  0  0  0  0  0  0
  191.0820  174.9240  136.4960 C   0  0  0  0  0  0  0  0  0  0  0  0
  189.8650  177.6280  140.7370 C   0  0  0  0  0  3  0  0  0  0  0  0
  186.5010  177.7980  143.2180 C   0  0  2  0  0  3  0  0  0  0  0  0
  185.5830  177.2380  144.1200 O   0  0  0  0  0  1  0  0  0  0  0  0
  188.1250  175.5950  142.6190 O   0  0  0  0  0  0  0  0  0  0  0  0
  193.2650  175.8780  136.0650 C   0  0  0  0  0  0  0  0  0  0  0  0
  190.9220  175.8090  137.5080 N   0  0  0  0  0  0  0  0  0  0  0  0
  192.1040  177.1100  141.5000 C   0  0  0  0  0  3  0  0  0  0  0  0
  192.5870  177.2240  140.1870 C   0  0  0  0  0  3  0  0  0  0  0  0
  192.2710  174.9290  135.7630 C   0  0  0  0  0  3  0  0  0  0  0  0
  190.1650  176.7150  142.9920 N   0  0  0  0  0  0  0  0  0  0  0  0
  191.8880  176.7130  137.8780 C   0  0  0  0  0  0  0  0  0  0  0  0
  186.5760  179.5300  141.4660 C   0  0  0  0  0  2  0  0  0  0  0  0
  184.9530  178.9630  138.1770 C   0  0  1  0  0  3  0  0  0  0  0  0
  185.5900  178.6950  136.9640 O   0  0  0  0  0  1  0  0  0  0  0  0
  183.7340  178.0500  138.3220 C   0  0  0  0  0  2  0  0  0  0  0  0
  183.4570  177.0510  137.1720 C   0  0  1  0  0  3  0  0  0  0  0  0
  182.1980  176.1360  137.0540 C   0  0  2  0  0  3  0  0  0  0  0  0
  182.1130  177.5910  136.6670 C   0  0  0  0  0  2  0  0  0  0  0  0
  180.9200  177.0950  138.9610 C   0  0  0  0  0  2  0  0  0  0  0  0
  180.3780  174.3930  139.6230 C   0  0  0  0  0  2  0  0  0  0  0  0
  180.6380  174.7680  138.3010 O   0  0  0  0  0  0  0  0  0  0  0  0
  179.3480  175.3540  140.1610 C   0  0  1  0  0  3  0  0  0  0  0  0
  181.5700  175.8260  138.4200 C   0  0  1  0  0  3  0  0  0  0  0  0
  178.9380  174.9800  141.5980 C   0  0  0  0  0  1  0  0  0  0  0  0
  179.7700  176.8290  139.9720 C   0  0  1  0  0  3  0  0  0  0  0  0
  178.9320  178.2440  141.7880 O   0  0  0  0  0  0  0  0  0  0  0  0
  179.9620  177.5510  141.2320 N   0  0  0  0  0  0  0  0  0  0  0  0
  179.5820  179.1200  142.6100 N   0  0  0  0  0  2  0  0  0  0  0  0
  181.2390  178.0070  141.7050 C   0  0  0  0  0  3  0  0  0  0  0  0
  181.0040  178.9700  142.5510 C   0  0  0  0  0  3  0  0  0  0  0  0
  190.9220  174.4860  143.3840 F   0  0  0  0  0  0  0  0  0  0  0  0
  190.9480  175.7900  143.8310 C   0  0  2  0  0  3  0  0  0  0  0  0
  190.5920  175.9150  145.3400 C   0  0  0  0  0  2  0  0  0  0  0  0
  191.8140  177.9310  145.6950 O   0  0  0  0  0  0  0  0  0  0  0  0
  192.0190  176.3430  147.3540 O   0  0  0  0  0  1  0  0  0  0  0  0
  191.5230  176.7770  146.1280 C   0  0  0  0  0  0  0  0  0  0  0  0
  194.4110  175.9860  135.2670 O   0  0  0  0  0  0  0  0  0  0  0  0
  195.4700  175.0520  135.4320 C   0  0  0  0  0  2  0  0  0  0  0  0
  196.5120  175.6220  136.2540 N   0  0  0  0  0  2  0  0  0  0  0  0
  196.9550  174.5120  137.0990 C   0  0  0  0  0  2  0  0  0  0  0  0
  195.9260  171.1310  137.8760 C   0  0  0  0  0  0  0  0  0  0  0  0
  197.6630  169.6300  137.1890 C   0  0  0  0  0  3  0  0  0  0  0  0
  196.3400  169.8930  137.7980 C   0  0  0  0  0  3  0  0  0  0  0  0
  195.6940  172.3970  137.7840 C   0  0  0  0  0  3  0  0  0  0  0  0
  196.3440  173.1790  136.6490 C   0  0  2  0  0  3  0  0  0  0  0  0
  198.5460  170.5420  136.7140 C   0  0  0  0  0  3  0  0  0  0  0  0
  198.3560  172.0400  136.7500 C   0  0  0  0  0  2  0  0  0  0  0  0
  197.2890  172.4300  135.9030 O   0  0  0  0  0  0  0  0  0  0  0  0
  1 29  2  0  0  0  0
  2 30  1  0  0  0  0
  3 11  1  0  0  0  0
  3  5  2  0  0  0  0
  4 15  1  0  0  0  0
  6 18  1  0  0  0  0
  6  3  1  0  0  0  0
  7 12  2  0  0  0  0
  8 14  2  0  0  0  0
  8 26  1  0  0  0  0
  9 10  1  0  0  0  0
  9 11  1  0  0  0  0
 10 13  1  0  0  0  0
 12  2  1  0  0  0  0
 13  7  1  0  0  0  0
 14 19  1  0  0  0  0
 16 28  1  0  0  0  0
 17 20  1  0  0  0  0
 18 24  2  0  0  0  0
 19 16  2  0  0  0  0
 20 15  1  0  0  0  0
 20 21  1  1  0  0  0
 22  4  2  0  0  0  0
 23  1  1  0  0  0  0
 24 29  1  0  0  0  0
 25 16  1  0  0  0  0
 26 25  2  0  0  0  0
 27 23  2  0  0  0  0
 27 18  1  0  0  0  0
 28  4  1  0  0  0  0
 28 50  1  0  0  0  0
 29  8  1  0  0  0  0
 30 17  1  0  0  0  0
 31 32  1  6  0  0  0
 31 33  1  0  0  0  0
 31 12  1  0  0  0  0
 34 33  1  1  0  0  0
 35 36  1  6  0  0  0
 35 34  1  0  0  0  0
 35 41  1  0  0  0  0
 36 34  1  0  0  0  0
 38 40  1  0  0  0  0
 39 41  1  0  0  0  0
 39 38  1  0  0  0  0
 40 42  1  1  0  0  0
 41 37  1  6  0  0  0
 43 37  1  1  0  0  0
 43 40  1  0  0  0  0
 43 45  1  0  0  0  0
 44 46  1  0  0  0  0
 45 47  1  0  0  0  0
 45 44  1  0  0  0  0
 47 48  2  0  0  0  0
 48 46  1  0  0  0  0
 50 49  1  6  0  0  0
 50 51  1  0  0  0  0
 51 54  1  0  0  0  0
 52 54  2  0  0  0  0
 54 53  1  0  0  0  0
 55 56  1  0  0  0  0
 55 23  1  0  0  0  0
 56 57  1  0  0  0  0
 57 58  1  0  0  0  0
 60 61  1  0  0  0  0
 61 59  2  0  0  0  0
 62 59  2  0  0  0  0
 63 58  1  1  0  0  0
 63 62  1  0  0  0  0
 64 65  1  0  0  0  0
 64 60  2  0  0  0  0
 66 63  1  0  0  0  0
 66 65  1  0  0  0  0
M  END
>  <MODEL>
4

>  <REMARK>
 VINA RESULT:      -5.6      4.015     12.223
  Name = 
  13 active torsions:
  status: ('A' for Active; 'I' for Inactive)
    1  A    between atoms: C_6  and  C_19
    2  A    between atoms: C_6  and  C_37
    3  A    between atoms: C_11  and  C_38
    4  A    between atoms: C_11  and  C_57
    5  A    between atoms: C_19  and  C_30
    6  A    between atoms: N_20  and  C_45
    7  A    between atoms: C_22  and  C_43
    8  A    between atoms: N_29  and  C_34
    9  A    between atoms: N_29  and  C_35
   10  A    between atoms: C_34  and  O_52
   11  A    between atoms: C_35  and  C_53
   12  A    between atoms: C_38  and  N_63
   13  A    between atoms: C_50  and  O_52
                            x       y       z     vdW  Elec       q    Type
                         _______ _______ _______ _____ _____    ______ ____

>  <TORSDO>
F 13

$$$$
=
 OpenBabel11042409543D

 66 72  0  0  1  0  0  0  0  0999 V2000
  185.5270  179.3530  141.2500 C   0  0  0  0  0  3  0  0  0  0  0  0
  191.5770  175.9850  136.2790 O   0  0  0  0  0  0  0  0  0  0  0  0
  188.7200  175.8000  142.9520 C   0  0  0  0  0  0  0  0  0  0  0  0
  187.4340  173.8880  136.6630 C   0  0  0  0  0  0  0  0  0  0  0  0
  188.0780  174.7350  143.2050 O   0  0  0  0  0  0  0  0  0  0  0  0
  188.2470  177.0370  143.4500 O   0  0  0  0  0  0  0  0  0  0  0  0
  190.6390  176.7520  138.2410 N   0  0  0  0  0  0  0  0  0  0  0  0
  186.2450  178.0660  139.1990 C   0  0  0  0  0  0  0  0  0  0  0  0
  190.8370  176.7520  141.9520 C   0  0  0  0  0  2  0  0  0  0  0  0
  191.4400  176.7480  140.5390 C   0  0  0  0  0  2  0  0  0  0  0  0
  189.7950  175.7500  141.9980 N   0  0  0  0  0  2  0  0  0  0  0  0
  191.6860  176.6910  137.4770 C   0  0  0  0  0  0  0  0  0  0  0  0
  190.5200  177.4200  139.5330 C   0  0  0  0  0  2  0  0  0  0  0  0
  187.4110  177.6120  138.5590 C   0  0  0  0  0  3  0  0  0  0  0  0
  188.1070  173.9490  135.3160 C   0  0  0  0  0  2  0  0  0  0  0  0
  186.1650  175.8710  137.4540 C   0  0  0  0  0  0  0  0  0  0  0  0
  190.3150  174.9100  134.5940 C   0  0  0  0  0  2  0  0  0  0  0  0
  187.3080  177.8000  142.7360 C   0  0  0  0  0  0  0  0  0  0  0  0
  187.3800  176.5020  137.7270 C   0  0  0  0  0  3  0  0  0  0  0  0
  189.6420  173.8250  135.4420 C   0  0  2  0  0  3  0  0  0  0  0  0
  190.0830  172.5390  135.0980 O   0  0  0  0  0  1  0  0  0  0  0  0
  187.9990  173.2910  137.6480 O   0  0  0  0  0  0  0  0  0  0  0  0
  185.5980  179.5110  142.6480 C   0  0  0  0  0  0  0  0  0  0  0  0
  187.2430  177.7000  141.3870 N   0  0  0  0  0  0  0  0  0  0  0  0
  184.9620  176.4700  137.8780 C   0  0  0  0  0  3  0  0  0  0  0  0
  184.9960  177.5580  138.7650 C   0  0  0  0  0  3  0  0  0  0  0  0
  186.4690  178.6990  143.3980 C   0  0  0  0  0  3  0  0  0  0  0  0
  186.1660  174.5520  136.8710 N   0  0  0  0  0  0  0  0  0  0  0  0
  186.3670  178.4290  140.6190 C   0  0  0  0  0  0  0  0  0  0  0  0
  190.4640  176.1480  135.4190 C   0  0  0  0  0  2  0  0  0  0  0  0
  193.0240  177.2730  137.8610 C   0  0  1  0  0  3  0  0  0  0  0  0
  193.1590  177.1280  139.2420 O   0  0  0  0  0  1  0  0  0  0  0  0
  194.1130  176.4620  137.1560 C   0  0  0  0  0  2  0  0  0  0  0  0
  194.9250  177.1810  136.0500 C   0  0  1  0  0  3  0  0  0  0  0  0
  195.9980  176.5090  135.1360 C   0  0  2  0  0  3  0  0  0  0  0  0
  194.5310  176.3310  134.8350 C   0  0  0  0  0  2  0  0  0  0  0  0
  196.4140  174.0670  134.9000 C   0  0  0  0  0  2  0  0  0  0  0  0
  198.4010  174.4750  136.8800 C   0  0  0  0  0  2  0  0  0  0  0  0
  198.0170  175.5140  136.0260 O   0  0  0  0  0  0  0  0  0  0  0  0
  198.6620  173.2670  136.0170 C   0  0  1  0  0  3  0  0  0  0  0  0
  196.6410  175.2810  135.7950 C   0  0  1  0  0  3  0  0  0  0  0  0
  199.1630  172.0790  136.8610 C   0  0  0  0  0  1  0  0  0  0  0  0
  197.4700  172.9420  135.0890 C   0  0  1  0  0  3  0  0  0  0  0  0
  197.3720  170.5080  134.8210 O   0  0  0  0  0  0  0  0  0  0  0  0
  196.8500  171.6420  135.3610 N   0  0  0  0  0  0  0  0  0  0  0  0
  196.3160  169.6440  134.8830 N   0  0  0  0  0  2  0  0  0  0  0  0
  195.4760  171.4770  135.7440 C   0  0  0  0  0  3  0  0  0  0  0  0
  195.1490  170.2500  135.4500 C   0  0  0  0  0  3  0  0  0  0  0  0
  185.1540  172.7730  138.0990 F   0  0  0  0  0  0  0  0  0  0  0  0
  185.0010  173.6690  137.0620 C   0  0  2  0  0  3  0  0  0  0  0  0
  184.5530  172.9860  135.7400 C   0  0  0  0  0  2  0  0  0  0  0  0
  185.9260  171.0490  135.5310 O   0  0  0  0  0  0  0  0  0  0  0  0
  183.6910  170.6400  135.9170 O   0  0  0  0  0  1  0  0  0  0  0  0
  184.7590  171.5070  135.7040 C   0  0  0  0  0  0  0  0  0  0  0  0
  184.8370  180.5060  143.2760 O   0  0  0  0  0  0  0  0  0  0  0  0
  183.9290  180.1470  144.3080 C   0  0  0  0  0  2  0  0  0  0  0  0
  182.5700  180.3710  143.8740 N   0  0  0  0  0  2  0  0  0  0  0  0
  182.0630  179.0340  143.5620 C   0  0  0  0  0  2  0  0  0  0  0  0
  179.5470  177.3210  141.6030 C   0  0  0  0  0  0  0  0  0  0  0  0
  180.3440  177.1170  139.3530 C   0  0  0  0  0  3  0  0  0  0  0  0
  179.3170  176.8850  140.3920 C   0  0  0  0  0  3  0  0  0  0  0  0
  179.9500  177.8900  142.6900 C   0  0  0  0  0  3  0  0  0  0  0  0
  180.8820  179.0900  142.5840 C   0  0  2  0  0  3  0  0  0  0  0  0
  181.5500  177.7150  139.5070 C   0  0  0  0  0  3  0  0  0  0  0  0
  182.1020  178.2400  140.8110 C   0  0  0  0  0  2  0  0  0  0  0  0
  181.3430  179.3460  141.2680 O   0  0  0  0  0  0  0  0  0  0  0  0
  1 23  1  0  0  0  0
  2 12  1  0  0  0  0
  3  5  2  0  0  0  0
  3  6  1  0  0  0  0
  4 28  1  0  0  0  0
  4 22  2  0  0  0  0
  7 13  1  0  0  0  0
  8 29  1  0  0  0  0
  9 11  1  0  0  0  0
 10  9  1  0  0  0  0
 11  3  1  0  0  0  0
 12 31  1  0  0  0  0
 12  7  2  0  0  0  0
 13 10  1  0  0  0  0
 14  8  2  0  0  0  0
 15 20  1  0  0  0  0
 15  4  1  0  0  0  0
 16 19  2  0  0  0  0
 16 25  1  0  0  0  0
 17 30  1  0  0  0  0
 17 20  1  0  0  0  0
 18 27  1  0  0  0  0
 18  6  1  0  0  0  0
 19 14  1  0  0  0  0
 20 21  1  6  0  0  0
 23 55  1  0  0  0  0
 23 27  2  0  0  0  0
 24 18  2  0  0  0  0
 25 26  2  0  0  0  0
 26  8  1  0  0  0  0
 28 50  1  0  0  0  0
 28 16  1  0  0  0  0
 29  1  2  0  0  0  0
 29 24  1  0  0  0  0
 30  2  1  0  0  0  0
 31 32  1  1  0  0  0
 33 31  1  0  0  0  0
 34 33  1  1  0  0  0
 35 36  1  6  0  0  0
 35 41  1  0  0  0  0
 35 34  1  0  0  0  0
 36 34  1  0  0  0  0
 39 38  1  0  0  0  0
 40 42  1  1  0  0  0
 40 38  1  0  0  0  0
 41 37  1  6  0  0  0
 41 39  1  0  0  0  0
 43 37  1  1  0  0  0
 43 45  1  0  0  0  0
 43 40  1  0  0  0  0
 44 46  1  0  0  0  0
 44 45  1  0  0  0  0
 45 47  1  0  0  0  0
 46 48  1  0  0  0  0
 48 47  2  0  0  0  0
 50 49  1  1  0  0  0
 51 50  1  0  0  0  0
 52 54  2  0  0  0  0
 54 51  1  0  0  0  0
 54 53  1  0  0  0  0
 55 56  1  0  0  0  0
 57 56  1  0  0  0  0
 58 57  1  0  0  0  0
 59 62  2  0  0  0  0
 60 64  2  0  0  0  0
 60 61  1  0  0  0  0
 61 59  2  0  0  0  0
 63 62  1  0  0  0  0
 63 58  1  1  0  0  0
 64 65  1  0  0  0  0
 65 66  1  0  0  0  0
 66 63  1  0  0  0  0
M  END
>  <MODEL>
5

>  <REMARK>
 VINA RESULT:      -4.6      4.269      6.660
  Name = 
  13 active torsions:
  status: ('A' for Active; 'I' for Inactive)
    1  A    between atoms: C_6  and  C_19
    2  A    between atoms: C_6  and  C_37
    3  A    between atoms: C_11  and  C_38
    4  A    between atoms: C_11  and  C_57
    5  A    between atoms: C_19  and  C_30
    6  A    between atoms: N_20  and  C_45
    7  A    between atoms: C_22  and  C_43
    8  A    between atoms: N_29  and  C_34
    9  A    between atoms: N_29  and  C_35
   10  A    between atoms: C_34  and  O_52
   11  A    between atoms: C_35  and  C_53
   12  A    between atoms: C_38  and  N_63
   13  A    between atoms: C_50  and  O_52
                            x       y       z     vdW  Elec       q    Type
                         _______ _______ _______ _____ _____    ______ ____

>  <TORSDO>
F 13

$$$$
=
 OpenBabel11042409543D

 66 72  0  0  1  0  0  0  0  0999 V2000
  184.7180  179.5630  144.1510 C   0  0  0  0  0  3  0  0  0  0  0  0
  186.8910  177.9750  136.0630 O   0  0  0  0  0  0  0  0  0  0  0  0
  188.0410  175.9310  142.9350 C   0  0  0  0  0  0  0  0  0  0  0  0
  183.4490  175.5630  138.0730 C   0  0  0  0  0  0  0  0  0  0  0  0
  187.5540  174.7940  143.2200 O   0  0  0  0  0  0  0  0  0  0  0  0
  188.0050  176.9680  143.8960 O   0  0  0  0  0  0  0  0  0  0  0  0
  187.2110  178.1600  138.3390 N   0  0  0  0  0  0  0  0  0  0  0  0
  184.1260  178.8820  141.7910 C   0  0  0  0  0  0  0  0  0  0  0  0
  189.3610  177.2490  141.2290 C   0  0  0  0  0  2  0  0  0  0  0  0
  189.1130  177.6390  139.7640 C   0  0  0  0  0  2  0  0  0  0  0  0
  188.4320  176.1960  141.5760 N   0  0  0  0  0  2  0  0  0  0  0  0
  187.6780  178.3650  137.1470 C   0  0  0  0  0  0  0  0  0  0  0  0
  187.8530  178.4750  139.6120 C   0  0  0  0  0  2  0  0  0  0  0  0
  184.7300  178.6850  140.5380 C   0  0  0  0  0  3  0  0  0  0  0  0
  183.3000  176.0060  136.6400 C   0  0  0  0  0  2  0  0  0  0  0  0
  182.9560  177.1930  139.8830 C   0  0  0  0  0  0  0  0  0  0  0  0
  184.8460  177.2690  135.1120 C   0  0  0  0  0  2  0  0  0  0  0  0
  186.8920  177.8170  144.0120 C   0  0  0  0  0  0  0  0  0  0  0  0
  184.1730  177.8190  139.6080 C   0  0  0  0  0  3  0  0  0  0  0  0
  184.6490  175.9620  135.8890 C   0  0  2  0  0  3  0  0  0  0  0  0
  184.7370  174.8360  135.0570 O   0  0  0  0  0  1  0  0  0  0  0  0
  184.4050  174.7810  138.4180 O   0  0  0  0  0  0  0  0  0  0  0  0
  185.5370  179.3720  145.2810 C   0  0  0  0  0  0  0  0  0  0  0  0
  186.1080  178.0530  142.9330 N   0  0  0  0  0  0  0  0  0  0  0  0
  182.2180  177.5800  141.0170 C   0  0  0  0  0  3  0  0  0  0  0  0
  182.8040  178.4120  141.9840 C   0  0  0  0  0  3  0  0  0  0  0  0
  186.6080  178.4610  145.2180 C   0  0  0  0  0  3  0  0  0  0  0  0
  182.5440  176.0640  139.0850 N   0  0  0  0  0  0  0  0  0  0  0  0
  185.0160  178.8870  142.9630 C   0  0  0  0  0  0  0  0  0  0  0  0
  185.5070  178.2690  136.0050 C   0  0  0  0  0  2  0  0  0  0  0  0
  189.0540  178.9260  136.8840 C   0  0  1  0  0  3  0  0  0  0  0  0
  189.3510  179.8040  137.9270 O   0  0  0  0  0  1  0  0  0  0  0  0
  190.0490  177.7650  136.8980 C   0  0  0  0  0  2  0  0  0  0  0  0
  189.7370  176.5540  135.9840 C   0  0  1  0  0  3  0  0  0  0  0  0
  190.6500  175.3010  135.8010 C   0  0  2  0  0  3  0  0  0  0  0  0
  189.7700  175.4220  137.0190 C   0  0  0  0  0  2  0  0  0  0  0  0
  192.6700  174.5710  137.0570 C   0  0  0  0  0  2  0  0  0  0  0  0
  194.0860  176.2010  135.2200 C   0  0  0  0  0  2  0  0  0  0  0  0
  192.8620  175.6240  134.8700 O   0  0  0  0  0  0  0  0  0  0  0  0
  194.9340  175.1070  135.8200 C   0  0  1  0  0  3  0  0  0  0  0  0
  192.1280  175.6090  136.0800 C   0  0  1  0  0  3  0  0  0  0  0  0
  196.3390  175.6280  136.1770 C   0  0  0  0  0  1  0  0  0  0  0  0
  194.2090  174.3680  136.9670 C   0  0  1  0  0  3  0  0  0  0  0  0
  194.6700  175.6400  139.0090 O   0  0  0  0  0  0  0  0  0  0  0  0
  194.8640  174.5160  138.2700 N   0  0  0  0  0  0  0  0  0  0  0  0
  195.7510  175.6280  139.8450 N   0  0  0  0  0  2  0  0  0  0  0  0
  196.0640  173.8210  138.6430 C   0  0  0  0  0  3  0  0  0  0  0  0
  196.6080  174.5050  139.6100 C   0  0  0  0  0  3  0  0  0  0  0  0
  181.5970  173.8760  138.9760 F   0  0  0  0  0  0  0  0  0  0  0  0
  181.5980  175.0820  139.6450 C   0  0  2  0  0  3  0  0  0  0  0  0
  180.1700  175.6700  139.8240 C   0  0  0  0  0  2  0  0  0  0  0  0
  179.1420  177.5270  138.7400 O   0  0  0  0  0  1  0  0  0  0  0  0
  179.7130  175.7690  137.3630 O   0  0  0  0  0  0  0  0  0  0  0  0
  179.6290  176.3660  138.6180 C   0  0  0  0  0  0  0  0  0  0  0  0
  185.3090  180.1220  146.4410 O   0  0  0  0  0  0  0  0  0  0  0  0
  186.1380  179.9230  147.5780 C   0  0  0  0  0  2  0  0  0  0  0  0
  186.7540  178.6180  147.5230 N   0  0  0  0  0  2  0  0  0  0  0  0
  188.1580  178.8650  147.8530 C   0  0  0  0  0  2  0  0  0  0  0  0
  191.2860  177.1310  148.4030 C   0  0  0  0  0  0  0  0  0  0  0  0
  192.0270  176.2180  146.3160 C   0  0  0  0  0  3  0  0  0  0  0  0
  192.2040  176.4520  147.7660 C   0  0  0  0  0  3  0  0  0  0  0  0
  190.2400  177.7520  148.8330 C   0  0  0  0  0  3  0  0  0  0  0  0
  188.9200  177.5570  148.0990 C   0  0  2  0  0  3  0  0  0  0  0  0
  191.0170  176.6590  145.5280 C   0  0  0  0  0  3  0  0  0  0  0  0
  189.8690  177.5270  145.9880 C   0  0  0  0  0  2  0  0  0  0  0  0
  189.0380  176.8210  146.8920 O   0  0  0  0  0  0  0  0  0  0  0  0
  1 23  1  0  0  0  0
  2 12  1  0  0  0  0
  3  5  2  0  0  0  0
  3  6  1  0  0  0  0
  4 22  2  0  0  0  0
  4 28  1  0  0  0  0
  6 18  1  0  0  0  0
  7 13  1  0  0  0  0
  8 26  1  0  0  0  0
  8 29  1  0  0  0  0
  9 11  1  0  0  0  0
 10  9  1  0  0  0  0
 11  3  1  0  0  0  0
 12  7  2  0  0  0  0
 13 10  1  0  0  0  0
 14  8  2  0  0  0  0
 15  4  1  0  0  0  0
 16 25  1  0  0  0  0
 17 20  1  0  0  0  0
 17 30  1  0  0  0  0
 18 27  1  0  0  0  0
 19 16  2  0  0  0  0
 19 14  1  0  0  0  0
 20 21  1  6  0  0  0
 20 15  1  0  0  0  0
 23 55  1  0  0  0  0
 24 29  1  0  0  0  0
 24 18  2  0  0  0  0
 25 26  2  0  0  0  0
 27 23  2  0  0  0  0
 28 50  1  0  0  0  0
 28 16  1  0  0  0  0
 29  1  2  0  0  0  0
 30  2  1  0  0  0  0
 31 33  1  0  0  0  0
 31 12  1  0  0  0  0
 31 32  1  1  0  0  0
 34 33  1  1  0  0  0
 34 36  1  0  0  0  0
 35 34  1  0  0  0  0
 35 41  1  0  0  0  0
 35 36  1  1  0  0  0
 38 40  1  0  0  0  0
 39 38  1  0  0  0  0
 39 41  1  0  0  0  0
 40 42  1  1  0  0  0
 40 43  1  0  0  0  0
 41 37  1  1  0  0  0
 43 37  1  1  0  0  0
 43 45  1  0  0  0  0
 44 46  1  0  0  0  0
 45 47  1  0  0  0  0
 45 44  1  0  0  0  0
 47 48  2  0  0  0  0
 48 46  1  0  0  0  0
 50 49  1  6  0  0  0
 50 51  1  0  0  0  0
 53 54  2  0  0  0  0
 54 52  1  0  0  0  0
 54 51  1  0  0  0  0
 55 56  1  0  0  0  0
 57 56  1  0  0  0  0
 57 58  1  0  0  0  0
 59 62  2  0  0  0  0
 60 61  1  0  0  0  0
 61 59  2  0  0  0  0
 63 58  1  6  0  0  0
 63 62  1  0  0  0  0
 64 65  1  0  0  0  0
 64 60  2  0  0  0  0
 65 66  1  0  0  0  0
 66 63  1  0  0  0  0
M  END
>  <MODEL>
6

>  <REMARK>
 VINA RESULT:      -4.3      3.370      7.529
  Name = 
  13 active torsions:
  status: ('A' for Active; 'I' for Inactive)
    1  A    between atoms: C_6  and  C_19
    2  A    between atoms: C_6  and  C_37
    3  A    between atoms: C_11  and  C_38
    4  A    between atoms: C_11  and  C_57
    5  A    between atoms: C_19  and  C_30
    6  A    between atoms: N_20  and  C_45
    7  A    between atoms: C_22  and  C_43
    8  A    between atoms: N_29  and  C_34
    9  A    between atoms: N_29  and  C_35
   10  A    between atoms: C_34  and  O_52
   11  A    between atoms: C_35  and  C_53
   12  A    between atoms: C_38  and  N_63
   13  A    between atoms: C_50  and  O_52
                            x       y       z     vdW  Elec       q    Type
                         _______ _______ _______ _____ _____    ______ ____

>  <TORSDO>
F 13

$$$$
=
 OpenBabel11042409543D

 66 72  0  0  1  0  0  0  0  0999 V2000
  187.4220  173.7010  135.7400 C   0  0  0  0  0  3  0  0  0  0  0  0
  183.9580  178.9510  141.4920 O   0  0  0  0  0  0  0  0  0  0  0  0
  188.4570  178.6640  135.8000 C   0  0  0  0  0  0  0  0  0  0  0  0
  181.9430  178.3900  137.3290 C   0  0  0  0  0  0  0  0  0  0  0  0
  187.9930  179.2100  134.7520 O   0  0  0  0  0  0  0  0  0  0  0  0
  189.2320  177.4860  135.6900 O   0  0  0  0  0  0  0  0  0  0  0  0
  185.5940  178.1480  140.0800 N   0  0  0  0  0  0  0  0  0  0  0  0
  185.4140  174.7860  136.8210 C   0  0  0  0  0  0  0  0  0  0  0  0
  188.7650  178.9070  138.2970 C   0  0  0  0  0  2  0  0  0  0  0  0
  187.7930  179.0020  139.4830 C   0  0  0  0  0  2  0  0  0  0  0  0
  188.0150  179.1410  137.0830 N   0  0  0  0  0  2  0  0  0  0  0  0
  185.2960  178.6510  141.2380 C   0  0  0  0  0  0  0  0  0  0  0  0
  186.9160  177.7660  139.5910 C   0  0  0  0  0  2  0  0  0  0  0  0
  185.0950  175.6960  137.8440 C   0  0  0  0  0  3  0  0  0  0  0  0
  181.0770  178.4830  138.5610 C   0  0  0  0  0  2  0  0  0  0  0  0
  182.9990  176.2110  136.7740 C   0  0  0  0  0  0  0  0  0  0  0  0
  181.6530  178.8180  140.9850 C   0  0  0  0  0  2  0  0  0  0  0  0
  188.6300  176.2170  135.6690 C   0  0  0  0  0  0  0  0  0  0  0  0
  183.9190  176.4310  137.8010 C   0  0  0  0  0  3  0  0  0  0  0  0
  181.6670  179.4660  139.5950 C   0  0  2  0  0  3  0  0  0  0  0  0
  180.9900  180.6940  139.5800 O   0  0  0  0  0  1  0  0  0  0  0  0
  182.7110  179.3620  136.9970 O   0  0  0  0  0  0  0  0  0  0  0  0
  188.6820  173.8570  135.1290 C   0  0  0  0  0  0  0  0  0  0  0  0
  187.4370  176.0250  136.2810 N   0  0  0  0  0  0  0  0  0  0  0  0
  183.1860  175.1270  135.8950 C   0  0  0  0  0  3  0  0  0  0  0  0
  184.3990  174.4200  135.9030 C   0  0  0  0  0  3  0  0  0  0  0  0
  189.2690  175.1340  135.0610 C   0  0  0  0  0  3  0  0  0  0  0  0
  181.9540  177.1770  136.5400 N   0  0  0  0  0  0  0  0  0  0  0  0
  186.7970  174.8090  136.3210 C   0  0  0  0  0  0  0  0  0  0  0  0
  182.9190  178.0440  141.1710 C   0  0  0  0  0  2  0  0  0  0  0  0
  186.3310  178.9980  142.2790 C   0  0  1  0  0  3  0  0  0  0  0  0
  185.6530  179.5180  143.3820 O   0  0  0  0  0  1  0  0  0  0  0  0
  187.0470  177.7080  142.6850 C   0  0  0  0  0  2  0  0  0  0  0  0
  188.5340  177.5660  142.2780 C   0  0  1  0  0  3  0  0  0  0  0  0
  189.7190  177.3110  143.2610 C   0  0  2  0  0  3  0  0  0  0  0  0
  188.8320  176.1680  142.8360 C   0  0  0  0  0  2  0  0  0  0  0  0
  188.0440  177.3310  145.1010 C   0  0  0  0  0  2  0  0  0  0  0  0
  190.2160  178.1570  146.7240 C   0  0  0  0  0  2  0  0  0  0  0  0
  190.4320  177.3920  145.5740 O   0  0  0  0  0  0  0  0  0  0  0  0
  189.1150  177.4820  147.5030 C   0  0  1  0  0  3  0  0  0  0  0  0
  189.4240  177.8220  144.6790 C   0  0  1  0  0  3  0  0  0  0  0  0
  188.8490  178.2130  148.8330 C   0  0  0  0  0  1  0  0  0  0  0  0
  187.8580  177.2310  146.6410 C   0  0  1  0  0  3  0  0  0  0  0  0
  185.4320  177.5720  146.7010 O   0  0  0  0  0  0  0  0  0  0  0  0
  186.6720  177.9580  147.1040 N   0  0  0  0  0  0  0  0  0  0  0  0
  184.6940  178.7020  146.9130 N   0  0  0  0  0  2  0  0  0  0  0  0
  186.6970  179.3220  147.5520 C   0  0  0  0  0  3  0  0  0  0  0  0
  185.4810  179.7780  147.4340 C   0  0  0  0  0  3  0  0  0  0  0  0
  181.5090  178.4990  134.6030 F   0  0  0  0  0  0  0  0  0  0  0  0
  181.3320  177.2720  135.2070 C   0  0  2  0  0  3  0  0  0  0  0  0
  179.8460  176.8140  135.2130 C   0  0  0  0  0  2  0  0  0  0  0  0
  179.9830  174.4710  135.6260 O   0  0  0  0  0  0  0  0  0  0  0  0
  178.9310  175.7060  137.2640 O   0  0  0  0  0  1  0  0  0  0  0  0
  179.5740  175.5970  136.0340 C   0  0  0  0  0  0  0  0  0  0  0  0
  189.3610  172.7350  134.6380 O   0  0  0  0  0  0  0  0  0  0  0  0
  190.4740  172.2210  135.3550 C   0  0  0  0  0  2  0  0  0  0  0  0
  191.7030  172.7650  134.8250 N   0  0  0  0  0  2  0  0  0  0  0  0
  192.6740  172.5910  135.9070 C   0  0  0  0  0  2  0  0  0  0  0  0
  196.2560  173.0980  135.8150 C   0  0  0  0  0  0  0  0  0  0  0  0
  196.9690  173.8760  137.9670 C   0  0  0  0  0  3  0  0  0  0  0  0
  197.2540  173.4740  136.5710 C   0  0  0  0  0  3  0  0  0  0  0  0
  195.1290  172.8380  135.2420 C   0  0  0  0  0  3  0  0  0  0  0  0
  193.8730  173.5350  135.7480 C   0  0  2  0  0  3  0  0  0  0  0  0
  195.7680  173.8740  138.5940 C   0  0  0  0  0  3  0  0  0  0  0  0
  194.4650  173.4160  137.9820 C   0  0  0  0  0  2  0  0  0  0  0  0
  194.0700  174.2850  136.9340 O   0  0  0  0  0  0  0  0  0  0  0  0
  1 29  2  0  0  0  0
  3 11  1  0  0  0  0
  4 15  1  0  0  0  0
  5  3  2  0  0  0  0
  6  3  1  0  0  0  0
  7 12  2  0  0  0  0
  8 14  1  0  0  0  0
  9 10  1  0  0  0  0
 10 13  1  0  0  0  0
 11  9  1  0  0  0  0
 12  2  1  0  0  0  0
 12 31  1  0  0  0  0
 13  7  1  0  0  0  0
 15 20  1  0  0  0  0
 16 19  1  0  0  0  0
 17 30  1  0  0  0  0
 18  6  1  0  0  0  0
 18 24  2  0  0  0  0
 19 14  2  0  0  0  0
 20 21  1  1  0  0  0
 20 17  1  0  0  0  0
 22  4  2  0  0  0  0
 23  1  1  0  0  0  0
 24 29  1  0  0  0  0
 25 26  1  0  0  0  0
 25 16  2  0  0  0  0
 26  8  2  0  0  0  0
 27 23  2  0  0  0  0
 27 18  1  0  0  0  0
 28 16  1  0  0  0  0
 28  4  1  0  0  0  0
 29  8  1  0  0  0  0
 30  2  1  0  0  0  0
 31 33  1  0  0  0  0
 31 32  1  1  0  0  0
 34 33  1  1  0  0  0
 34 36  1  0  0  0  0
 34 35  1  0  0  0  0
 35 36  1  1  0  0  0
 35 41  1  0  0  0  0
 38 40  1  0  0  0  0
 39 38  1  0  0  0  0
 40 42  1  1  0  0  0
 41 37  1  1  0  0  0
 41 39  1  0  0  0  0
 43 37  1  6  0  0  0
 43 45  1  0  0  0  0
 43 40  1  0  0  0  0
 44 46  1  0  0  0  0
 44 45  1  0  0  0  0
 45 47  1  0  0  0  0
 46 48  1  0  0  0  0
 48 47  2  0  0  0  0
 50 49  1  1  0  0  0
 50 51  1  0  0  0  0
 50 28  1  0  0  0  0
 51 54  1  0  0  0  0
 52 54  2  0  0  0  0
 54 53  1  0  0  0  0
 55 23  1  0  0  0  0
 55 56  1  0  0  0  0
 57 56  1  0  0  0  0
 57 58  1  0  0  0  0
 59 61  2  0  0  0  0
 60 64  2  0  0  0  0
 61 60  1  0  0  0  0
 62 63  1  0  0  0  0
 62 59  2  0  0  0  0
 63 58  1  1  0  0  0
 63 66  1  0  0  0  0
 65 64  1  0  0  0  0
 66 65  1  0  0  0  0
M  END
>  <MODEL>
7

>  <REMARK>
 VINA RESULT:      -4.2      3.285      9.120
  Name = 
  13 active torsions:
  status: ('A' for Active; 'I' for Inactive)
    1  A    between atoms: C_6  and  C_19
    2  A    between atoms: C_6  and  C_37
    3  A    between atoms: C_11  and  C_38
    4  A    between atoms: C_11  and  C_57
    5  A    between atoms: C_19  and  C_30
    6  A    between atoms: N_20  and  C_45
    7  A    between atoms: C_22  and  C_43
    8  A    between atoms: N_29  and  C_34
    9  A    between atoms: N_29  and  C_35
   10  A    between atoms: C_34  and  O_52
   11  A    between atoms: C_35  and  C_53
   12  A    between atoms: C_38  and  N_63
   13  A    between atoms: C_50  and  O_52
                            x       y       z     vdW  Elec       q    Type
                         _______ _______ _______ _____ _____    ______ ____

>  <TORSDO>
F 13

$$$$
