=
 OpenBabel11042410453D

 38 45  0  0  1  0  0  0  0  0999 V2000
  184.7790  178.2220  143.6340 C   0  0  1  0  0  3  0  0  0  0  0  0
  187.7030  177.3590  146.5020 N   0  0  0  0  0  0  0  0  0  0  0  0
  184.1510  178.3710  141.2710 C   0  0  1  0  0  3  0  0  0  0  0  0
  188.9280  177.7160  142.4810 C   0  0  0  0  0  0  0  0  0  0  0  0
  189.5430  177.2900  144.9350 C   0  0  0  0  0  0  0  0  0  0  0  0
  184.3830  178.8790  144.9380 C   0  0  0  0  0  2  0  0  0  0  0  0
  190.9460  177.0730  144.8140 C   0  0  0  0  0  0  0  0  0  0  0  0
  191.1490  176.6920  147.1790 N   0  0  0  0  0  0  0  0  0  0  0  0
  184.0560  179.0610  142.6200 C   0  0  1  0  0  3  0  0  0  0  0  0
  190.1820  177.6400  141.8530 C   0  0  0  0  0  0  0  0  0  0  0  0
  186.6150  178.1160  141.9420 C   0  0  0  0  0  0  0  0  0  0  0  0
  187.9080  177.9530  141.6080 N   0  0  0  0  0  0  0  0  0  0  0  0
  182.6760  179.2100  143.2150 C   0  0  0  0  0  2  0  0  0  0  0  0
  183.3210  179.0980  140.2300 C   0  0  0  0  0  1  0  0  0  0  0  0
  191.7050  176.7790  145.9530 C   0  0  0  0  0  3  0  0  0  0  0  0
  189.8260  176.8870  147.3480 C   0  0  0  0  0  3  0  0  0  0  0  0
  191.6840  177.1180  143.6920 N   0  0  0  0  0  2  0  0  0  0  0  0
  186.8540  177.6500  145.5320 N   0  0  0  0  0  0  0  0  0  0  0  0
  185.6220  178.3930  140.8310 C   0  0  0  0  0  2  0  0  0  0  0  0
  187.2430  177.7860  144.2440 C   0  0  0  0  0  0  0  0  0  0  0  0
  186.2550  178.1060  143.2920 C   0  0  0  0  0  0  0  0  0  0  0  0
  189.0130  177.1820  146.2590 C   0  0  0  0  0  0  0  0  0  0  0  0
  191.3630  177.3610  142.4350 N   0  0  0  0  0  0  0  0  0  0  0  0
  182.9350  179.3100  144.7160 C   0  0  0  0  0  2  0  0  0  0  0  0
  188.6210  177.5950  143.8760 C   0  0  0  0  0  0  0  0  0  0  0  0
  190.2120  177.8350  140.4270 N   0  0  0  0  0  2  0  0  0  0  0  0
  190.2290  176.7880  139.4890 N   0  0  0  0  0  2  0  0  0  0  0  0
  194.5460  175.7090  136.0380 C   0  0  1  0  0  3  0  0  0  0  0  0
  191.2930  176.5740  138.5560 C   0  0  0  0  0  0  0  0  0  0  0  0
  191.1310  176.4080  137.1740 C   0  0  0  0  0  3  0  0  0  0  0  0
  194.4900  175.9300  137.4600 O   0  0  0  0  0  0  0  0  0  0  0  0
  192.3740  176.1760  136.7450 N   0  0  0  0  0  0  0  0  0  0  0  0
  193.1770  176.1830  137.7670 C   0  0  0  0  0  0  0  0  0  0  0  0
  192.5880  176.4200  138.9490 N   0  0  0  0  0  0  0  0  0  0  0  0
  193.0830  175.8880  135.5210 C   0  0  0  0  0  2  0  0  0  0  0  0
  194.9180  177.7290  134.6080 O   0  0  0  0  0  0  0  0  0  0  0  0
  195.4460  176.7130  135.3960 C   0  0  0  0  0  0  0  0  0  0  0  0
  196.6920  176.6250  135.5520 O   0  0  0  0  0  1  0  0  0  0  0  0
  1  6  1  1  0  0  0
  3 14  1  6  0  0  0
  3  9  1  0  0  0  0
  4 25  1  0  0  0  0
  5 22  1  0  0  0  0
  7  5  2  0  0  0  0
  7 15  1  0  0  0  0
  8 16  1  0  0  0  0
  9 13  1  1  0  0  0
  9  1  1  0  0  0  0
 10 23  2  0  0  0  0
 10  4  1  0  0  0  0
 11 21  2  0  0  0  0
 12 11  1  0  0  0  0
 12  4  2  0  0  0  0
 13 24  1  0  0  0  0
 15  8  2  0  0  0  0
 17  7  1  0  0  0  0
 18  2  2  0  0  0  0
 19  3  1  0  0  0  0
 19 11  1  0  0  0  0
 20 18  1  0  0  0  0
 21  1  1  0  0  0  0
 21 20  1  0  0  0  0
 22  2  1  0  0  0  0
 22 16  2  0  0  0  0
 23 17  1  0  0  0  0
 24  6  1  0  0  0  0
 25 20  2  0  0  0  0
 25  5  1  0  0  0  0
 26 10  1  0  0  0  0
 27 26  1  0  0  0  0
 28 37  1  6  0  0  0
 28 31  1  0  0  0  0
 29 34  1  0  0  0  0
 29 27  1  0  0  0  0
 30 29  2  0  0  0  0
 31 33  1  0  0  0  0
 32 30  1  0  0  0  0
 32 33  1  0  0  0  0
 33 34  2  0  0  0  0
 35 28  1  0  0  0  0
 35 32  1  0  0  0  0
 36 37  2  0  0  0  0
 37 38  1  0  0  0  0
M  END
>  <MODEL>
1

>  <REMARK>
 VINA RESULT:     -11.4      0.000      0.000
  Name = 
  4 active torsions:
  status: ('A' for Active; 'I' for Inactive)
    1  A    between atoms: C_4  and  C_20
    2  A    between atoms: N_11  and  C_12
    3  A    between atoms: N_11  and  N_28
    4  A    between atoms: C_14  and  N_28
                            x       y       z     vdW  Elec       q    Type
                         _______ _______ _______ _____ _____    ______ ____

>  <TORSDO>
F 4

$$$$
=
 OpenBabel11042410453D

 38 45  0  0  1  0  0  0  0  0999 V2000
  188.0170  177.9840  145.5620 C   0  0  1  0  0  3  0  0  0  0  0  0
  183.8910  178.4580  145.0480 N   0  0  0  0  0  0  0  0  0  0  0  0
  190.2690  178.1110  144.6070 C   0  0  1  0  0  3  0  0  0  0  0  0
  186.3270  178.5170  141.6050 C   0  0  0  0  0  0  0  0  0  0  0  0
  183.9840  178.6560  142.6390 C   0  0  0  0  0  0  0  0  0  0  0  0
  187.3030  177.1970  146.6400 C   0  0  0  0  0  2  0  0  0  0  0  0
  183.1970  178.8530  141.4670 C   0  0  0  0  0  0  0  0  0  0  0  0
  181.1810  178.9660  142.7720 N   0  0  0  0  0  0  0  0  0  0  0  0
  189.3400  177.2790  145.4720 C   0  0  1  0  0  3  0  0  0  0  0  0
  186.0440  178.6330  140.2340 C   0  0  0  0  0  0  0  0  0  0  0  0
  188.2070  178.2330  143.0830 C   0  0  0  0  0  0  0  0  0  0  0  0
  187.6600  178.4020  141.8650 N   0  0  0  0  0  0  0  0  0  0  0  0
  189.7340  177.0980  146.9190 C   0  0  0  0  0  2  0  0  0  0  0  0
  191.6680  177.5230  144.5900 C   0  0  0  0  0  1  0  0  0  0  0  0
  181.8100  179.0020  141.5790 C   0  0  0  0  0  3  0  0  0  0  0  0
  181.8780  178.7840  143.9110 C   0  0  0  0  0  3  0  0  0  0  0  0
  183.6290  178.9130  140.1970 N   0  0  0  0  0  2  0  0  0  0  0  0
  185.2000  178.2960  145.1110 N   0  0  0  0  0  0  0  0  0  0  0  0
  189.7150  178.1030  143.1750 C   0  0  0  0  0  2  0  0  0  0  0  0
  185.9860  178.2930  144.0100 C   0  0  0  0  0  0  0  0  0  0  0  0
  187.3690  178.1030  144.1930 C   0  0  0  0  0  0  0  0  0  0  0  0
  183.2600  178.6300  143.8730 C   0  0  0  0  0  0  0  0  0  0  0  0
  184.8360  178.8180  139.6710 N   0  0  0  0  0  0  0  0  0  0  0  0
  188.4090  176.8270  147.6270 C   0  0  0  0  0  2  0  0  0  0  0  0
  185.4100  178.4910  142.7060 C   0  0  0  0  0  0  0  0  0  0  0  0
  187.1630  178.5950  139.3290 N   0  0  0  0  0  2  0  0  0  0  0  0
  187.3780  177.5760  138.3850 N   0  0  0  0  0  2  0  0  0  0  0  0
  192.3550  175.0910  137.5080 C   0  0  1  0  0  3  0  0  0  0  0  0
  188.6630  177.0100  138.1060 C   0  0  0  0  0  0  0  0  0  0  0  0
  189.2140  176.8540  136.8270 C   0  0  0  0  0  3  0  0  0  0  0  0
  191.6240  175.3670  138.7180 O   0  0  0  0  0  0  0  0  0  0  0  0
  190.3720  176.2330  137.0650 N   0  0  0  0  0  0  0  0  0  0  0  0
  190.4790  176.0260  138.3440 C   0  0  0  0  0  0  0  0  0  0  0  0
  189.4520  176.4750  139.0790 N   0  0  0  0  0  0  0  0  0  0  0  0
  191.5040  175.6960  136.3480 C   0  0  0  0  0  2  0  0  0  0  0  0
  194.6860  175.2550  138.4050 O   0  0  0  0  0  1  0  0  0  0  0  0
  193.6980  175.7420  137.5580 C   0  0  0  0  0  0  0  0  0  0  0  0
  193.9280  176.7530  136.8430 O   0  0  0  0  0  0  0  0  0  0  0  0
  1  6  1  1  0  0  0
  2 18  1  0  0  0  0
  3 14  1  6  0  0  0
  3  9  1  0  0  0  0
  4 12  2  0  0  0  0
  4 25  1  0  0  0  0
  5 25  2  0  0  0  0
  5 22  1  0  0  0  0
  6 24  1  0  0  0  0
  7 15  2  0  0  0  0
  7  5  1  0  0  0  0
  8 16  2  0  0  0  0
  9  1  1  0  0  0  0
  9 13  1  1  0  0  0
 10  4  1  0  0  0  0
 11 19  1  0  0  0  0
 11 21  2  0  0  0  0
 12 11  1  0  0  0  0
 13 24  1  0  0  0  0
 15  8  1  0  0  0  0
 17  7  1  0  0  0  0
 19  3  1  0  0  0  0
 20 21  1  0  0  0  0
 20 18  2  0  0  0  0
 21  1  1  0  0  0  0
 22 16  1  0  0  0  0
 22  2  2  0  0  0  0
 23 17  1  0  0  0  0
 23 10  2  0  0  0  0
 25 20  1  0  0  0  0
 26 10  1  0  0  0  0
 27 26  1  0  0  0  0
 28 37  1  1  0  0  0
 28 31  1  0  0  0  0
 29 27  1  0  0  0  0
 29 34  1  0  0  0  0
 30 32  1  0  0  0  0
 30 29  2  0  0  0  0
 32 33  1  0  0  0  0
 33 31  1  0  0  0  0
 33 34  2  0  0  0  0
 35 32  1  0  0  0  0
 35 28  1  0  0  0  0
 37 36  1  0  0  0  0
 38 37  2  0  0  0  0
M  END
>  <MODEL>
2

>  <REMARK>
 VINA RESULT:     -11.1      2.079      5.470
  Name = 
  4 active torsions:
  status: ('A' for Active; 'I' for Inactive)
    1  A    between atoms: C_4  and  C_20
    2  A    between atoms: N_11  and  C_12
    3  A    between atoms: N_11  and  N_28
    4  A    between atoms: C_14  and  N_28
                            x       y       z     vdW  Elec       q    Type
                         _______ _______ _______ _____ _____    ______ ____

>  <TORSDO>
F 4

$$$$
=
 OpenBabel11042410453D

 38 45  0  0  1  0  0  0  0  0999 V2000
  189.6860  176.7540  145.1170 C   0  0  1  0  0  3  0  0  0  0  0  0
  190.7480  176.5640  141.0740 N   0  0  0  0  0  0  0  0  0  0  0  0
  187.9570  177.1520  146.8060 C   0  0  1  0  0  3  0  0  0  0  0  0
  187.0240  178.2840  142.0560 C   0  0  0  0  0  0  0  0  0  0  0  0
  188.7280  177.6150  140.2600 C   0  0  0  0  0  0  0  0  0  0  0  0
  191.1900  176.8790  145.0080 C   0  0  0  0  0  2  0  0  0  0  0  0
  188.0380  178.0320  139.0840 C   0  0  0  0  0  0  0  0  0  0  0  0
  189.8330  177.2520  137.6880 N   0  0  0  0  0  0  0  0  0  0  0  0
  189.4040  177.4210  146.4340 C   0  0  1  0  0  3  0  0  0  0  0  0
  186.0100  178.8760  141.2850 C   0  0  0  0  0  0  0  0  0  0  0  0
  187.5470  177.7980  144.3570 C   0  0  0  0  0  0  0  0  0  0  0  0
  186.7370  178.2650  143.3890 N   0  0  0  0  0  0  0  0  0  0  0  0
  190.4630  176.8480  147.3460 C   0  0  0  0  0  2  0  0  0  0  0  0
  187.6470  177.6820  148.1940 C   0  0  0  0  0  1  0  0  0  0  0  0
  188.6230  177.8320  137.8280 C   0  0  0  0  0  3  0  0  0  0  0  0
  190.5260  176.8380  138.7660 C   0  0  0  0  0  3  0  0  0  0  0  0
  186.8370  178.6280  139.0130 N   0  0  0  0  0  2  0  0  0  0  0  0
  190.3380  176.6850  142.3240 N   0  0  0  0  0  0  0  0  0  0  0  0
  187.0640  177.8790  145.7910 C   0  0  0  0  0  2  0  0  0  0  0  0
  189.1550  177.2540  142.6480 C   0  0  0  0  0  0  0  0  0  0  0  0
  188.8220  177.3390  144.0140 C   0  0  0  0  0  0  0  0  0  0  0  0
  190.0040  177.0040  140.0440 C   0  0  0  0  0  0  0  0  0  0  0  0
  185.9760  178.9890  139.9450 N   0  0  0  0  0  0  0  0  0  0  0  0
  191.6860  176.7080  146.4430 C   0  0  0  0  0  2  0  0  0  0  0  0
  188.2740  177.7380  141.6180 C   0  0  0  0  0  0  0  0  0  0  0  0
  184.8610  179.3780  141.9910 N   0  0  0  0  0  2  0  0  0  0  0  0
  183.7270  178.6060  142.3020 N   0  0  0  0  0  2  0  0  0  0  0  0
  180.0020  176.6710  138.5480 C   0  0  1  0  0  3  0  0  0  0  0  0
  182.7540  178.1980  141.3350 C   0  0  0  0  0  0  0  0  0  0  0  0
  181.4260  178.6430  141.2920 C   0  0  0  0  0  3  0  0  0  0  0  0
  181.3950  176.3710  138.7550 O   0  0  0  0  0  0  0  0  0  0  0  0
  180.9020  177.9480  140.2790 N   0  0  0  0  0  0  0  0  0  0  0  0
  181.8180  177.1630  139.7940 C   0  0  0  0  0  0  0  0  0  0  0  0
  183.0140  177.2460  140.3960 N   0  0  0  0  0  0  0  0  0  0  0  0
  179.6440  177.7750  139.5930 C   0  0  0  0  0  2  0  0  0  0  0  0
  180.2580  178.4370  136.7940 O   0  0  0  0  0  1  0  0  0  0  0  0
  179.7850  177.1830  137.1630 C   0  0  0  0  0  0  0  0  0  0  0  0
  179.1520  176.4830  136.3300 O   0  0  0  0  0  0  0  0  0  0  0  0
  1  6  1  6  0  0  0
  1  9  1  0  0  0  0
  2 18  1  0  0  0  0
  3 14  1  1  0  0  0
  4 12  2  0  0  0  0
  5 25  2  0  0  0  0
  6 24  1  0  0  0  0
  7  5  1  0  0  0  0
  8 15  1  0  0  0  0
  8 16  2  0  0  0  0
  9  3  1  0  0  0  0
  9 13  1  1  0  0  0
 10 26  1  0  0  0  0
 10  4  1  0  0  0  0
 11 19  1  0  0  0  0
 12 11  1  0  0  0  0
 15  7  2  0  0  0  0
 16 22  1  0  0  0  0
 17  7  1  0  0  0  0
 17 23  1  0  0  0  0
 18 20  2  0  0  0  0
 19  3  1  0  0  0  0
 20 21  1  0  0  0  0
 21 11  2  0  0  0  0
 21  1  1  0  0  0  0
 22  5  1  0  0  0  0
 22  2  2  0  0  0  0
 23 10  2  0  0  0  0
 24 13  1  0  0  0  0
 25  4  1  0  0  0  0
 25 20  1  0  0  0  0
 26 27  1  0  0  0  0
 28 37  1  6  0  0  0
 28 31  1  0  0  0  0
 28 35  1  0  0  0  0
 29 27  1  0  0  0  0
 30 29  2  0  0  0  0
 31 33  1  0  0  0  0
 32 30  1  0  0  0  0
 33 32  1  0  0  0  0
 33 34  2  0  0  0  0
 34 29  1  0  0  0  0
 35 32  1  0  0  0  0
 36 37  1  0  0  0  0
 38 37  2  0  0  0  0
M  END
>  <MODEL>
3

>  <REMARK>
 VINA RESULT:     -10.8      4.781      8.935
  Name = 
  4 active torsions:
  status: ('A' for Active; 'I' for Inactive)
    1  A    between atoms: C_4  and  C_20
    2  A    between atoms: N_11  and  C_12
    3  A    between atoms: N_11  and  N_28
    4  A    between atoms: C_14  and  N_28
                            x       y       z     vdW  Elec       q    Type
                         _______ _______ _______ _____ _____    ______ ____

>  <TORSDO>
F 4

$$$$
=
 OpenBabel11042410453D

 38 45  0  0  1  0  0  0  0  0999 V2000
  188.0930  177.9440  145.4470 C   0  0  1  0  0  3  0  0  0  0  0  0
  184.6230  178.8450  143.2890 N   0  0  0  0  0  0  0  0  0  0  0  0
  190.5200  177.6090  145.4550 C   0  0  1  0  0  3  0  0  0  0  0  0
  188.1300  177.9810  141.1110 C   0  0  0  0  0  0  0  0  0  0  0  0
  185.6410  178.6000  141.1100 C   0  0  0  0  0  0  0  0  0  0  0  0
  186.8960  177.4580  146.2350 C   0  0  0  0  0  2  0  0  0  0  0  0
  185.3990  178.6860  139.7080 C   0  0  0  0  0  0  0  0  0  0  0  0
  183.1020  179.2870  140.0850 N   0  0  0  0  0  0  0  0  0  0  0  0
  189.1980  177.0690  145.9700 C   0  0  1  0  0  3  0  0  0  0  0  0
  188.4050  177.8880  139.7370 C   0  0  0  0  0  0  0  0  0  0  0  0
  189.2360  177.7240  143.2360 C   0  0  0  0  0  0  0  0  0  0  0  0
  189.2230  177.7430  141.8900 N   0  0  0  0  0  0  0  0  0  0  0  0
  188.9830  177.0980  147.4640 C   0  0  0  0  0  2  0  0  0  0  0  0
  191.6880  176.8530  146.0610 C   0  0  0  0  0  1  0  0  0  0  0  0
  184.1240  179.0300  139.2430 C   0  0  0  0  0  3  0  0  0  0  0  0
  183.2770  179.2210  141.4190 C   0  0  0  0  0  3  0  0  0  0  0  0
  186.2760  178.4660  138.7150 N   0  0  0  0  0  2  0  0  0  0  0  0
  185.7590  178.5300  143.8840 N   0  0  0  0  0  0  0  0  0  0  0  0
  190.5480  177.4190  143.9310 C   0  0  0  0  0  2  0  0  0  0  0  0
  186.8830  178.2310  143.1930 C   0  0  0  0  0  0  0  0  0  0  0  0
  188.0360  177.9010  143.9300 C   0  0  0  0  0  0  0  0  0  0  0  0
  184.5190  178.8870  141.9500 C   0  0  0  0  0  0  0  0  0  0  0  0
  187.5510  178.1240  138.7250 N   0  0  0  0  0  0  0  0  0  0  0  0
  187.4640  177.1290  147.6140 C   0  0  0  0  0  2  0  0  0  0  0  0
  186.8820  178.2680  141.7540 C   0  0  0  0  0  0  0  0  0  0  0  0
  189.7520  177.5480  139.3610 N   0  0  0  0  0  2  0  0  0  0  0  0
  190.0990  176.9410  138.1410 N   0  0  0  0  0  2  0  0  0  0  0  0
  194.5600  173.6450  137.1660 C   0  0  1  0  0  3  0  0  0  0  0  0
  191.2780  176.1490  137.9550 C   0  0  0  0  0  0  0  0  0  0  0  0
  192.5760  176.6590  137.8160 C   0  0  0  0  0  3  0  0  0  0  0  0
  193.1670  173.3370  137.3560 O   0  0  0  0  0  0  0  0  0  0  0  0
  193.3130  175.5660  137.6020 N   0  0  0  0  0  0  0  0  0  0  0  0
  192.5290  174.5290  137.5940 C   0  0  0  0  0  0  0  0  0  0  0  0
  191.2310  174.7970  137.8020 N   0  0  0  0  0  0  0  0  0  0  0  0
  194.6830  175.1910  137.3440 C   0  0  0  0  0  2  0  0  0  0  0  0
  196.0890  171.7880  137.8550 O   0  0  0  0  0  0  0  0  0  0  0  0
  195.3880  172.9400  138.1890 C   0  0  0  0  0  0  0  0  0  0  0  0
  195.4350  173.3820  139.3670 O   0  0  0  0  0  1  0  0  0  0  0  0
  1  9  1  0  0  0  0
  1  6  1  1  0  0  0
  2 18  1  0  0  0  0
  3  9  1  0  0  0  0
  3 14  1  1  0  0  0
  4 25  1  0  0  0  0
  4 12  2  0  0  0  0
  5 25  2  0  0  0  0
  5 22  1  0  0  0  0
  6 24  1  0  0  0  0
  7  5  1  0  0  0  0
  8 16  2  0  0  0  0
  9 13  1  1  0  0  0
 10  4  1  0  0  0  0
 11 21  2  0  0  0  0
 11 19  1  0  0  0  0
 12 11  1  0  0  0  0
 13 24  1  0  0  0  0
 15  7  2  0  0  0  0
 15  8  1  0  0  0  0
 16 22  1  0  0  0  0
 17 23  1  0  0  0  0
 17  7  1  0  0  0  0
 19  3  1  0  0  0  0
 20 18  2  0  0  0  0
 20 21  1  0  0  0  0
 21  1  1  0  0  0  0
 22  2  2  0  0  0  0
 23 10  2  0  0  0  0
 25 20  1  0  0  0  0
 26 10  1  0  0  0  0
 27 26  1  0  0  0  0
 28 35  1  0  0  0  0
 28 31  1  0  0  0  0
 28 37  1  1  0  0  0
 29 27  1  0  0  0  0
 30 29  2  0  0  0  0
 31 33  1  0  0  0  0
 32 30  1  0  0  0  0
 33 32  1  0  0  0  0
 33 34  2  0  0  0  0
 34 29  1  0  0  0  0
 35 32  1  0  0  0  0
 36 37  2  0  0  0  0
 37 38  1  0  0  0  0
M  END
>  <MODEL>
4

>  <REMARK>
 VINA RESULT:     -10.7      2.250      5.353
  Name = 
  4 active torsions:
  status: ('A' for Active; 'I' for Inactive)
    1  A    between atoms: C_4  and  C_20
    2  A    between atoms: N_11  and  C_12
    3  A    between atoms: N_11  and  N_28
    4  A    between atoms: C_14  and  N_28
                            x       y       z     vdW  Elec       q    Type
                         _______ _______ _______ _____ _____    ______ ____

>  <TORSDO>
F 4

$$$$
=
 OpenBabel11042410453D

 38 45  0  0  1  0  0  0  0  0999 V2000
  189.3440  176.9460  144.8180 C   0  0  1  0  0  3  0  0  0  0  0  0
  190.7770  176.6390  140.8990 N   0  0  0  0  0  0  0  0  0  0  0  0
  187.4520  177.3280  146.3270 C   0  0  1  0  0  3  0  0  0  0  0  0
  186.9030  178.2080  141.4650 C   0  0  0  0  0  0  0  0  0  0  0  0
  188.7930  177.5520  139.8600 C   0  0  0  0  0  0  0  0  0  0  0  0
  190.8440  177.1430  144.8370 C   0  0  0  0  0  2  0  0  0  0  0  0
  188.1940  177.8830  138.6100 C   0  0  0  0  0  0  0  0  0  0  0  0
  190.1430  177.1360  137.4160 N   0  0  0  0  0  0  0  0  0  0  0  0
  188.9130  177.6540  146.0720 C   0  0  1  0  0  3  0  0  0  0  0  0
  185.9370  178.7150  140.5800 C   0  0  0  0  0  0  0  0  0  0  0  0
  187.2370  177.8480  143.8230 C   0  0  0  0  0  0  0  0  0  0  0  0
  186.4970  178.2310  142.7660 N   0  0  0  0  0  0  0  0  0  0  0  0
  189.9090  177.1740  147.1000 C   0  0  0  0  0  2  0  0  0  0  0  0
  186.9920  177.8990  147.6550 C   0  0  0  0  0  1  0  0  0  0  0  0
  188.9000  177.6600  137.4210 C   0  0  0  0  0  3  0  0  0  0  0  0
  190.7540  176.8040  138.5700 C   0  0  0  0  0  3  0  0  0  0  0  0
  186.9780  178.4130  138.4040 N   0  0  0  0  0  2  0  0  0  0  0  0
  190.2500  176.7930  142.1000 N   0  0  0  0  0  0  0  0  0  0  0  0
  186.6220  177.9650  145.2030 C   0  0  0  0  0  2  0  0  0  0  0  0
  189.0170  177.3140  142.2910 C   0  0  0  0  0  0  0  0  0  0  0  0
  188.5570  177.4400  143.6170 C   0  0  0  0  0  0  0  0  0  0  0  0
  190.1100  176.9980  139.7880 C   0  0  0  0  0  0  0  0  0  0  0  0
  186.0200  178.7700  139.2380 N   0  0  0  0  0  0  0  0  0  0  0  0
  191.2150  177.0590  146.3170 C   0  0  0  0  0  2  0  0  0  0  0  0
  188.2120  177.7090  141.1650 C   0  0  0  0  0  0  0  0  0  0  0  0
  184.7060  179.1880  141.1570 N   0  0  0  0  0  2  0  0  0  0  0  0
  183.4370  178.6720  140.8380 N   0  0  0  0  0  2  0  0  0  0  0  0
  179.7320  181.1520  137.3970 C   0  0  1  0  0  3  0  0  0  0  0  0
  182.4800  179.3620  140.0280 C   0  0  0  0  0  0  0  0  0  0  0  0
  181.2140  179.7810  140.4580 C   0  0  0  0  0  3  0  0  0  0  0  0
  181.0700  180.6670  137.1730 O   0  0  0  0  0  0  0  0  0  0  0  0
  180.6730  180.3050  139.3550 N   0  0  0  0  0  0  0  0  0  0  0  0
  181.5210  180.1850  138.3770 C   0  0  0  0  0  0  0  0  0  0  0  0
  182.6830  179.6000  138.7020 N   0  0  0  0  0  0  0  0  0  0  0  0
  179.4430  180.9180  138.9140 C   0  0  0  0  0  2  0  0  0  0  0  0
  179.2670  183.0270  135.8060 O   0  0  0  0  0  0  0  0  0  0  0  0
  179.6520  182.6080  137.0750 C   0  0  0  0  0  0  0  0  0  0  0  0
  179.9540  183.4590  137.9510 O   0  0  0  0  0  1  0  0  0  0  0  0
  1  6  1  6  0  0  0
  1  9  1  0  0  0  0
  2 18  1  0  0  0  0
  3 14  1  1  0  0  0
  4 12  2  0  0  0  0
  5 25  2  0  0  0  0
  6 24  1  0  0  0  0
  7  5  1  0  0  0  0
  8 15  1  0  0  0  0
  8 16  2  0  0  0  0
  9  3  1  0  0  0  0
  9 13  1  1  0  0  0
 10 26  1  0  0  0  0
 10  4  1  0  0  0  0
 11 19  1  0  0  0  0
 12 11  1  0  0  0  0
 15  7  2  0  0  0  0
 16 22  1  0  0  0  0
 17  7  1  0  0  0  0
 17 23  1  0  0  0  0
 18 20  2  0  0  0  0
 19  3  1  0  0  0  0
 20 21  1  0  0  0  0
 21 11  2  0  0  0  0
 21  1  1  0  0  0  0
 22  5  1  0  0  0  0
 22  2  2  0  0  0  0
 23 10  2  0  0  0  0
 24 13  1  0  0  0  0
 25  4  1  0  0  0  0
 25 20  1  0  0  0  0
 27 26  1  0  0  0  0
 28 37  1  1  0  0  0
 28 35  1  0  0  0  0
 29 30  2  0  0  0  0
 29 27  1  0  0  0  0
 31 28  1  0  0  0  0
 31 33  1  0  0  0  0
 32 30  1  0  0  0  0
 33 34  2  0  0  0  0
 33 32  1  0  0  0  0
 34 29  1  0  0  0  0
 35 32  1  0  0  0  0
 36 37  2  0  0  0  0
 37 38  1  0  0  0  0
M  END
>  <MODEL>
5

>  <REMARK>
 VINA RESULT:     -10.6      5.253      9.248
  Name = 
  4 active torsions:
  status: ('A' for Active; 'I' for Inactive)
    1  A    between atoms: C_4  and  C_20
    2  A    between atoms: N_11  and  C_12
    3  A    between atoms: N_11  and  N_28
    4  A    between atoms: C_14  and  N_28
                            x       y       z     vdW  Elec       q    Type
                         _______ _______ _______ _____ _____    ______ ____

>  <TORSDO>
F 4

$$$$
=
 OpenBabel11042410453D

 38 45  0  0  1  0  0  0  0  0999 V2000
  188.2650  177.1240  144.8810 C   0  0  1  0  0  3  0  0  0  0  0  0
  190.6460  176.5670  141.4850 N   0  0  0  0  0  0  0  0  0  0  0  0
  186.0690  177.6500  145.8280 C   0  0  1  0  0  3  0  0  0  0  0  0
  186.8390  178.3070  140.9610 C   0  0  0  0  0  0  0  0  0  0  0  0
  189.0460  177.5000  139.9320 C   0  0  0  0  0  0  0  0  0  0  0  0
  189.7170  177.2640  145.2830 C   0  0  0  0  0  2  0  0  0  0  0  0
  188.8080  177.7900  138.5560 C   0  0  0  0  0  0  0  0  0  0  0  0
  190.9600  176.9120  137.9410 N   0  0  0  0  0  0  0  0  0  0  0  0
  187.5600  177.9080  145.9510 C   0  0  1  0  0  3  0  0  0  0  0  0
  186.1610  178.8050  139.8370 C   0  0  0  0  0  0  0  0  0  0  0  0
  186.5340  178.0520  143.3370 C   0  0  0  0  0  0  0  0  0  0  0  0
  186.1130  178.4100  142.1100 N   0  0  0  0  0  0  0  0  0  0  0  0
  188.2320  177.4440  147.2210 C   0  0  0  0  0  2  0  0  0  0  0  0
  185.3100  178.3050  146.9680 C   0  0  0  0  0  1  0  0  0  0  0  0
  189.7850  177.4820  137.6020 C   0  0  0  0  0  3  0  0  0  0  0  0
  191.2340  176.6160  139.2270 C   0  0  0  0  0  3  0  0  0  0  0  0
  187.7130  178.3550  138.0200 N   0  0  0  0  0  2  0  0  0  0  0  0
  189.8350  176.8000  142.5010 N   0  0  0  0  0  0  0  0  0  0  0  0
  185.5900  178.2610  144.5040 C   0  0  0  0  0  2  0  0  0  0  0  0
  188.6210  177.3760  142.3440 C   0  0  0  0  0  0  0  0  0  0  0  0
  187.8410  177.5850  143.4980 C   0  0  0  0  0  0  0  0  0  0  0  0
  190.3080  176.8940  140.2260 C   0  0  0  0  0  0  0  0  0  0  0  0
  186.5910  178.7890  138.5620 N   0  0  0  0  0  0  0  0  0  0  0  0
  189.6880  177.2400  146.8100 C   0  0  0  0  0  2  0  0  0  0  0  0
  188.1550  177.7440  141.0330 C   0  0  0  0  0  0  0  0  0  0  0  0
  184.8480  179.3510  140.0540 N   0  0  0  0  0  2  0  0  0  0  0  0
  183.7920  179.2550  139.1300 N   0  0  0  0  0  2  0  0  0  0  0  0
  182.5280  174.4870  136.4130 C   0  0  1  0  0  3  0  0  0  0  0  0
  183.4010  178.0330  138.4950 C   0  0  0  0  0  0  0  0  0  0  0  0
  183.0550  176.8520  139.1650 C   0  0  0  0  0  3  0  0  0  0  0  0
  182.8870  175.7970  135.9310 O   0  0  0  0  0  0  0  0  0  0  0  0
  182.8370  175.9880  138.1700 N   0  0  0  0  0  0  0  0  0  0  0  0
  183.0540  176.5910  137.0390 C   0  0  0  0  0  0  0  0  0  0  0  0
  183.4180  177.8780  137.1420 N   0  0  0  0  0  0  0  0  0  0  0  0
  182.4780  174.6050  137.9690 C   0  0  0  0  0  2  0  0  0  0  0  0
  180.8310  172.7520  135.8050 O   0  0  0  0  0  1  0  0  0  0  0  0
  181.1900  174.0920  135.8810 C   0  0  0  0  0  0  0  0  0  0  0  0
  180.3910  174.9780  135.4800 O   0  0  0  0  0  0  0  0  0  0  0  0
  1  6  1  6  0  0  0
  1  9  1  0  0  0  0
  2 18  1  0  0  0  0
  3  9  1  0  0  0  0
  3 14  1  1  0  0  0
  4 25  1  0  0  0  0
  4 12  2  0  0  0  0
  5 22  1  0  0  0  0
  5 25  2  0  0  0  0
  6 24  1  0  0  0  0
  7  5  1  0  0  0  0
  8 16  2  0  0  0  0
  9 13  1  1  0  0  0
 10 26  1  0  0  0  0
 10  4  1  0  0  0  0
 11 21  2  0  0  0  0
 11 19  1  0  0  0  0
 12 11  1  0  0  0  0
 15  8  1  0  0  0  0
 15  7  2  0  0  0  0
 16 22  1  0  0  0  0
 17  7  1  0  0  0  0
 17 23  1  0  0  0  0
 19  3  1  0  0  0  0
 20 18  2  0  0  0  0
 20 21  1  0  0  0  0
 21  1  1  0  0  0  0
 22  2  2  0  0  0  0
 23 10  2  0  0  0  0
 24 13  1  0  0  0  0
 25 20  1  0  0  0  0
 27 26  1  0  0  0  0
 28 37  1  6  0  0  0
 28 35  1  0  0  0  0
 29 27  1  0  0  0  0
 29 30  2  0  0  0  0
 31 28  1  0  0  0  0
 31 33  1  0  0  0  0
 32 30  1  0  0  0  0
 33 34  2  0  0  0  0
 33 32  1  0  0  0  0
 34 29  1  0  0  0  0
 35 32  1  0  0  0  0
 36 37  1  0  0  0  0
 38 37  2  0  0  0  0
M  END
>  <MODEL>
6

>  <REMARK>
 VINA RESULT:     -10.5      4.797      7.942
  Name = 
  4 active torsions:
  status: ('A' for Active; 'I' for Inactive)
    1  A    between atoms: C_4  and  C_20
    2  A    between atoms: N_11  and  C_12
    3  A    between atoms: N_11  and  N_28
    4  A    between atoms: C_14  and  N_28
                            x       y       z     vdW  Elec       q    Type
                         _______ _______ _______ _____ _____    ______ ____

>  <TORSDO>
F 4

$$$$
=
 OpenBabel11042410453D

 38 45  0  0  1  0  0  0  0  0999 V2000
  187.3420  178.2100  144.6260 C   0  0  1  0  0  3  0  0  0  0  0  0
  183.1890  178.7210  144.6980 N   0  0  0  0  0  0  0  0  0  0  0  0
  189.4320  178.2760  143.3500 C   0  0  1  0  0  3  0  0  0  0  0  0
  185.1000  178.6340  140.9390 C   0  0  0  0  0  0  0  0  0  0  0  0
  182.9330  178.8380  142.2970 C   0  0  0  0  0  0  0  0  0  0  0  0
  186.7860  177.4680  145.8220 C   0  0  0  0  0  2  0  0  0  0  0  0
  181.9860  179.0060  141.2450 C   0  0  0  0  0  0  0  0  0  0  0  0
  180.1820  179.1880  142.8230 N   0  0  0  0  0  0  0  0  0  0  0  0
  188.6320  177.4850  144.3700 C   0  0  1  0  0  3  0  0  0  0  0  0
  184.6210  178.7090  139.6200 C   0  0  0  0  0  0  0  0  0  0  0  0
  187.1730  178.3750  142.1380 C   0  0  0  0  0  0  0  0  0  0  0  0
  186.4560  178.5100  141.0070 N   0  0  0  0  0  0  0  0  0  0  0  0
  189.2310  177.3460  145.7490 C   0  0  0  0  0  2  0  0  0  0  0  0
  190.8090  177.6700  143.1520 C   0  0  0  0  0  1  0  0  0  0  0  0
  180.6310  179.1770  141.5510 C   0  0  0  0  0  3  0  0  0  0  0  0
  181.0350  179.0350  143.8550 C   0  0  0  0  0  3  0  0  0  0  0  0
  182.2300  179.0190  139.9240 N   0  0  0  0  0  2  0  0  0  0  0  0
  184.4920  178.5430  144.5770 N   0  0  0  0  0  0  0  0  0  0  0  0
  188.6760  178.2280  142.0150 C   0  0  0  0  0  2  0  0  0  0  0  0
  185.1100  178.4940  143.3750 C   0  0  0  0  0  0  0  0  0  0  0  0
  186.5030  178.2920  143.3620 C   0  0  0  0  0  0  0  0  0  0  0  0
  182.3950  178.8620  143.6220 C   0  0  0  0  0  0  0  0  0  0  0  0
  183.3460  178.8910  139.2330 N   0  0  0  0  0  0  0  0  0  0  0  0
  188.0200  177.1170  146.6500 C   0  0  0  0  0  2  0  0  0  0  0  0
  184.3520  178.6570  142.1610 C   0  0  0  0  0  0  0  0  0  0  0  0
  185.5970  178.6270  138.5650 N   0  0  0  0  0  2  0  0  0  0  0  0
  185.6760  177.5650  137.6460 N   0  0  0  0  0  2  0  0  0  0  0  0
  190.3000  174.7740  136.0520 C   0  0  1  0  0  3  0  0  0  0  0  0
  186.8990  176.9090  137.2940 C   0  0  0  0  0  0  0  0  0  0  0  0
  188.0880  177.5600  136.9390 C   0  0  0  0  0  3  0  0  0  0  0  0
  189.0000  174.3130  136.4680 O   0  0  0  0  0  0  0  0  0  0  0  0
  188.9110  176.5520  136.6370 N   0  0  0  0  0  0  0  0  0  0  0  0
  188.2670  175.4320  136.7760 C   0  0  0  0  0  0  0  0  0  0  0  0
  186.9940  175.5550  137.1810 N   0  0  0  0  0  0  0  0  0  0  0  0
  190.2590  176.3300  136.1730 C   0  0  0  0  0  2  0  0  0  0  0  0
  191.5320  174.7200  138.2300 O   0  0  0  0  0  1  0  0  0  0  0  0
  191.3560  174.2140  136.9470 C   0  0  0  0  0  0  0  0  0  0  0  0
  192.1040  173.2920  136.5300 O   0  0  0  0  0  0  0  0  0  0  0  0
  1  6  1  1  0  0  0
  3 14  1  6  0  0  0
  3  9  1  0  0  0  0
  4 12  2  0  0  0  0
  4 25  1  0  0  0  0
  5 22  1  0  0  0  0
  6 24  1  0  0  0  0
  7 15  2  0  0  0  0
  7  5  1  0  0  0  0
  8 16  2  0  0  0  0
  9  1  1  0  0  0  0
  9 13  1  1  0  0  0
 10  4  1  0  0  0  0
 11 21  2  0  0  0  0
 12 11  1  0  0  0  0
 13 24  1  0  0  0  0
 15  8  1  0  0  0  0
 17  7  1  0  0  0  0
 18  2  1  0  0  0  0
 19 11  1  0  0  0  0
 19  3  1  0  0  0  0
 20 18  2  0  0  0  0
 21 20  1  0  0  0  0
 21  1  1  0  0  0  0
 22 16  1  0  0  0  0
 22  2  2  0  0  0  0
 23 10  2  0  0  0  0
 23 17  1  0  0  0  0
 25  5  2  0  0  0  0
 25 20  1  0  0  0  0
 26 10  1  0  0  0  0
 27 26  1  0  0  0  0
 28 35  1  0  0  0  0
 28 31  1  0  0  0  0
 28 37  1  1  0  0  0
 29 27  1  0  0  0  0
 30 29  2  0  0  0  0
 31 33  1  0  0  0  0
 32 33  1  0  0  0  0
 32 30  1  0  0  0  0
 33 34  2  0  0  0  0
 34 29  1  0  0  0  0
 35 32  1  0  0  0  0
 37 36  1  0  0  0  0
 38 37  2  0  0  0  0
M  END
>  <MODEL>
7

>  <REMARK>
 VINA RESULT:     -10.2      3.098      6.159
  Name = 
  4 active torsions:
  status: ('A' for Active; 'I' for Inactive)
    1  A    between atoms: C_4  and  C_20
    2  A    between atoms: N_11  and  C_12
    3  A    between atoms: N_11  and  N_28
    4  A    between atoms: C_14  and  N_28
                            x       y       z     vdW  Elec       q    Type
                         _______ _______ _______ _____ _____    ______ ____

>  <TORSDO>
F 4

$$$$
=
 OpenBabel11042410453D

 38 45  0  0  1  0  0  0  0  0999 V2000
  184.4200  178.2130  142.9850 C   0  0  1  0  0  3  0  0  0  0  0  0
  188.1800  177.2610  144.5550 N   0  0  0  0  0  0  0  0  0  0  0  0
  183.0180  178.6070  141.0150 C   0  0  1  0  0  3  0  0  0  0  0  0
  187.9450  178.2460  140.4600 C   0  0  0  0  0  0  0  0  0  0  0  0
  189.3770  177.5660  142.4760 C   0  0  0  0  0  0  0  0  0  0  0  0
  184.4640  178.6560  144.4310 C   0  0  0  0  0  2  0  0  0  0  0  0
  190.6630  177.4960  141.8660 C   0  0  0  0  0  0  0  0  0  0  0  0
  191.6760  176.8340  143.9430 N   0  0  0  0  0  0  0  0  0  0  0  0
  183.3580  179.1060  142.4080 C   0  0  1  0  0  3  0  0  0  0  0  0
  188.9110  178.3680  139.4480 C   0  0  0  0  0  0  0  0  0  0  0  0
  185.5710  178.4960  140.7850 C   0  0  0  0  0  0  0  0  0  0  0  0
  186.6790  178.4980  140.0210 N   0  0  0  0  0  0  0  0  0  0  0  0
  182.2590  179.0480  143.4420 C   0  0  0  0  0  2  0  0  0  0  0  0
  181.8510  179.3820  140.4310 C   0  0  0  0  0  1  0  0  0  0  0  0
  191.7770  177.1290  142.6300 C   0  0  0  0  0  3  0  0  0  0  0  0
  190.4830  176.8820  144.5680 C   0  0  0  0  0  3  0  0  0  0  0  0
  190.9710  177.7550  140.5840 N   0  0  0  0  0  2  0  0  0  0  0  0
  187.0400  177.5950  143.9770 N   0  0  0  0  0  0  0  0  0  0  0  0
  184.2480  178.8220  140.1220 C   0  0  0  0  0  2  0  0  0  0  0  0
  186.9600  177.9320  142.6700 C   0  0  0  0  0  0  0  0  0  0  0  0
  185.6940  178.2790  142.1600 C   0  0  0  0  0  0  0  0  0  0  0  0
  189.3360  177.2380  143.8680 C   0  0  0  0  0  0  0  0  0  0  0  0
  190.2310  178.1270  139.5580 N   0  0  0  0  0  0  0  0  0  0  0  0
  183.0100  178.9770  144.7690 C   0  0  0  0  0  2  0  0  0  0  0  0
  188.1370  177.9180  141.8420 C   0  0  0  0  0  0  0  0  0  0  0  0
  188.4450  178.7480  138.1410 N   0  0  0  0  0  2  0  0  0  0  0  0
  188.6080  177.9610  136.9870 N   0  0  0  0  0  2  0  0  0  0  0  0
  186.1340  173.0120  135.9400 C   0  0  1  0  0  3  0  0  0  0  0  0
  187.9960  176.6800  136.8050 C   0  0  0  0  0  0  0  0  0  0  0  0
  188.5400  175.4600  137.2280 C   0  0  0  0  0  3  0  0  0  0  0  0
  185.7470  174.3620  135.6200 O   0  0  0  0  0  0  0  0  0  0  0  0
  187.6580  174.5600  136.7850 N   0  0  0  0  0  0  0  0  0  0  0  0
  186.7100  175.1840  136.1500 C   0  0  0  0  0  0  0  0  0  0  0  0
  186.8380  176.5180  136.1060 N   0  0  0  0  0  0  0  0  0  0  0  0
  187.4570  173.1310  136.7600 C   0  0  0  0  0  2  0  0  0  0  0  0
  184.2360  171.4010  136.1960 O   0  0  0  0  0  0  0  0  0  0  0  0
  185.0750  172.3540  136.7620 C   0  0  0  0  0  0  0  0  0  0  0  0
  184.9280  172.6790  137.9690 O   0  0  0  0  0  1  0  0  0  0  0  0
  1  6  1  1  0  0  0
  3 14  1  6  0  0  0
  3  9  1  0  0  0  0
  4 25  1  0  0  0  0
  5 22  1  0  0  0  0
  6 24  1  0  0  0  0
  7  5  1  0  0  0  0
  7 15  2  0  0  0  0
  8 16  2  0  0  0  0
  9  1  1  0  0  0  0
  9 13  1  1  0  0  0
 10 23  2  0  0  0  0
 10  4  1  0  0  0  0
 11 21  2  0  0  0  0
 12  4  2  0  0  0  0
 12 11  1  0  0  0  0
 13 24  1  0  0  0  0
 15  8  1  0  0  0  0
 17  7  1  0  0  0  0
 18  2  1  0  0  0  0
 19 11  1  0  0  0  0
 19  3  1  0  0  0  0
 20 18  2  0  0  0  0
 21 20  1  0  0  0  0
 21  1  1  0  0  0  0
 22  2  2  0  0  0  0
 22 16  1  0  0  0  0
 23 17  1  0  0  0  0
 25  5  2  0  0  0  0
 25 20  1  0  0  0  0
 26 10  1  0  0  0  0
 27 26  1  0  0  0  0
 28 35  1  0  0  0  0
 28 37  1  1  0  0  0
 29 27  1  0  0  0  0
 29 30  2  0  0  0  0
 31 28  1  0  0  0  0
 31 33  1  0  0  0  0
 32 30  1  0  0  0  0
 33 32  1  0  0  0  0
 34 33  2  0  0  0  0
 34 29  1  0  0  0  0
 35 32  1  0  0  0  0
 36 37  2  0  0  0  0
 37 38  1  0  0  0  0
M  END
>  <MODEL>
8

>  <REMARK>
 VINA RESULT:     -10.2      3.856      4.903
  Name = 
  4 active torsions:
  status: ('A' for Active; 'I' for Inactive)
    1  A    between atoms: C_4  and  C_20
    2  A    between atoms: N_11  and  C_12
    3  A    between atoms: N_11  and  N_28
    4  A    between atoms: C_14  and  N_28
                            x       y       z     vdW  Elec       q    Type
                         _______ _______ _______ _____ _____    ______ ____

>  <TORSDO>
F 4

$$$$
=
 OpenBabel11042410453D

 38 45  0  0  1  0  0  0  0  0999 V2000
  184.8380  178.1310  144.0490 C   0  0  1  0  0  3  0  0  0  0  0  0
  187.7590  177.5220  146.9830 N   0  0  0  0  0  0  0  0  0  0  0  0
  184.1930  178.0170  141.6890 C   0  0  1  0  0  3  0  0  0  0  0  0
  188.9580  177.3570  142.9430 C   0  0  0  0  0  0  0  0  0  0  0  0
  189.5820  177.2070  145.4260 C   0  0  0  0  0  0  0  0  0  0  0  0
  184.4750  178.9510  145.2680 C   0  0  0  0  0  2  0  0  0  0  0  0
  190.9760  176.9320  145.3240 C   0  0  0  0  0  0  0  0  0  0  0  0
  191.1880  176.8300  147.7170 N   0  0  0  0  0  0  0  0  0  0  0  0
  184.1320  178.8660  142.9460 C   0  0  1  0  0  3  0  0  0  0  0  0
  190.2030  177.1660  142.3210 C   0  0  0  0  0  0  0  0  0  0  0  0
  186.6530  177.7640  142.3720 C   0  0  0  0  0  0  0  0  0  0  0  0
  187.9380  177.5210  142.0530 N   0  0  0  0  0  0  0  0  0  0  0  0
  182.7630  179.1300  143.5270 C   0  0  0  0  0  2  0  0  0  0  0  0
  183.3760  178.6410  140.5720 C   0  0  0  0  0  1  0  0  0  0  0  0
  191.7360  176.7510  146.4860 C   0  0  0  0  0  3  0  0  0  0  0  0
  189.8740  177.0860  147.8690 C   0  0  0  0  0  3  0  0  0  0  0  0
  191.7050  176.8190  144.2010 N   0  0  0  0  0  2  0  0  0  0  0  0
  186.9110  177.7220  145.9900 N   0  0  0  0  0  0  0  0  0  0  0  0
  185.6600  177.9390  141.2420 C   0  0  0  0  0  2  0  0  0  0  0  0
  187.2920  177.6920  144.6930 C   0  0  0  0  0  0  0  0  0  0  0  0
  186.3060  177.9270  143.7160 C   0  0  0  0  0  0  0  0  0  0  0  0
  189.0610  177.2750  146.7570 C   0  0  0  0  0  0  0  0  0  0  0  0
  191.3790  176.9210  142.9260 N   0  0  0  0  0  0  0  0  0  0  0  0
  183.0390  179.3990  145.0040 C   0  0  0  0  0  2  0  0  0  0  0  0
  188.6600  177.4130  144.3430 C   0  0  0  0  0  0  0  0  0  0  0  0
  190.2250  177.1880  140.8820 N   0  0  0  0  0  2  0  0  0  0  0  0
  189.7620  178.2640  140.1040 N   0  0  0  0  0  2  0  0  0  0  0  0
  186.9730  177.9720  135.2200 C   0  0  1  0  0  3  0  0  0  0  0  0
  189.0800  178.1050  138.8550 C   0  0  0  0  0  0  0  0  0  0  0  0
  189.6280  177.5160  137.7080 C   0  0  0  0  0  3  0  0  0  0  0  0
  186.6010  178.5070  136.5040 O   0  0  0  0  0  0  0  0  0  0  0  0
  188.6590  177.6540  136.7990 N   0  0  0  0  0  0  0  0  0  0  0  0
  187.6590  178.2790  137.3480 C   0  0  0  0  0  0  0  0  0  0  0  0
  187.8330  178.6070  138.6370 N   0  0  0  0  0  0  0  0  0  0  0  0
  188.3990  177.3640  135.4100 C   0  0  0  0  0  2  0  0  0  0  0  0
  186.4470  175.6060  134.5950 O   0  0  0  0  0  0  0  0  0  0  0  0
  186.0100  176.9090  134.8060 C   0  0  0  0  0  0  0  0  0  0  0  0
  184.7980  177.1990  134.6270 O   0  0  0  0  0  1  0  0  0  0  0  0
  1  6  1  1  0  0  0
  3 14  1  6  0  0  0
  3  9  1  0  0  0  0
  4 25  1  0  0  0  0
  5 22  1  0  0  0  0
  7  5  2  0  0  0  0
  7 15  1  0  0  0  0
  8 16  1  0  0  0  0
  9 13  1  1  0  0  0
  9  1  1  0  0  0  0
 10 23  2  0  0  0  0
 10  4  1  0  0  0  0
 11 21  2  0  0  0  0
 12 11  1  0  0  0  0
 12  4  2  0  0  0  0
 13 24  1  0  0  0  0
 15  8  2  0  0  0  0
 17  7  1  0  0  0  0
 18  2  2  0  0  0  0
 19  3  1  0  0  0  0
 19 11  1  0  0  0  0
 20 18  1  0  0  0  0
 21  1  1  0  0  0  0
 21 20  1  0  0  0  0
 22  2  1  0  0  0  0
 22 16  2  0  0  0  0
 23 17  1  0  0  0  0
 24  6  1  0  0  0  0
 25 20  2  0  0  0  0
 25  5  1  0  0  0  0
 26 10  1  0  0  0  0
 27 26  1  0  0  0  0
 28 37  1  1  0  0  0
 28 35  1  0  0  0  0
 28 31  1  0  0  0  0
 29 27  1  0  0  0  0
 30 29  2  0  0  0  0
 31 33  1  0  0  0  0
 32 33  1  0  0  0  0
 32 30  1  0  0  0  0
 33 34  2  0  0  0  0
 34 29  1  0  0  0  0
 35 32  1  0  0  0  0
 36 37  2  0  0  0  0
 38 37  1  0  0  0  0
M  END
>  <MODEL>
9

>  <REMARK>
 VINA RESULT:     -10.2      3.231      3.857
  Name = 
  4 active torsions:
  status: ('A' for Active; 'I' for Inactive)
    1  A    between atoms: C_4  and  C_20
    2  A    between atoms: N_11  and  C_12
    3  A    between atoms: N_11  and  N_28
    4  A    between atoms: C_14  and  N_28
                            x       y       z     vdW  Elec       q    Type
                         _______ _______ _______ _____ _____    ______ ____

>  <TORSDO>
F 4

$$$$
