=
 OpenBabel11042413273D

 56 62  0  0  1  0  0  0  0  0999 V2000
  183.9550  178.9810  140.1130 C   0  0  2  0  0  3  0  0  0  0  0  0
  182.7260  178.1710  140.5630 C   0  0  1  0  0  3  0  0  0  0  0  0
  180.3980  178.9850  140.3050 C   0  0  0  0  0  3  0  0  0  0  0  0
  181.5400  179.0070  141.0040 C   0  0  0  0  0  3  0  0  0  0  0  0
  180.2400  178.0880  139.1110 C   0  0  1  0  0  3  0  0  0  0  0  0
  181.6220  177.6610  138.6000 C   0  0  0  0  0  2  0  0  0  0  0  0
  182.3940  177.1320  139.6560 O   0  0  0  0  0  0  0  0  0  0  0  0
  179.4700  176.9140  139.4910 N   0  0  0  0  0  2  0  0  0  0  0  0
  179.9850  174.5940  139.5740 C   0  0  0  0  0  2  0  0  0  0  0  0
  179.9940  175.7870  138.7360 C   0  0  1  0  0  3  0  0  0  0  0  0
  178.9310  174.7840  138.5690 N   0  0  0  0  0  2  0  0  0  0  0  0
  185.5310  178.1290  138.4150 C   0  0  0  0  0  3  0  0  0  0  0  0
  184.3370  178.6440  138.7020 C   0  0  0  0  0  3  0  0  0  0  0  0
  187.9210  176.2530  136.9130 C   0  0  0  0  0  0  0  0  0  0  0  0
  187.3200  177.5350  136.8880 N   0  0  0  0  0  0  0  0  0  0  0  0
  185.8840  177.7840  137.0020 C   0  0  1  0  0  3  0  0  0  0  0  0
  189.2500  176.3310  136.9880 C   0  0  0  0  0  0  0  0  0  0  0  0
  189.7050  177.7610  137.0910 C   0  0  0  0  0  2  0  0  0  0  0  0
  188.2250  179.7030  137.1100 O   0  0  0  0  0  0  0  0  0  0  0  0
  185.6600  175.2620  137.1770 C   0  0  0  0  0  2  0  0  0  0  0  0
  185.1030  176.5440  136.5400 C   0  0  0  0  0  2  0  0  0  0  0  0
  188.3870  178.4570  137.0290 C   0  0  0  0  0  0  0  0  0  0  0  0
  187.1080  175.0060  136.7480 C   0  0  0  0  0  2  0  0  0  0  0  0
  190.1840  175.1670  137.0090 C   0  0  0  0  0  2  0  0  0  0  0  0
  191.5770  175.5930  136.5560 C   0  0  0  0  0  2  0  0  0  0  0  0
  192.3640  171.1900  135.0060 C   0  0  0  0  0  1  0  0  0  0  0  0
  191.9330  173.1290  136.2320 C   0  0  0  0  0  2  0  0  0  0  0  0
  192.5890  174.4470  136.5810 C   0  0  1  0  0  0  0  0  0  0  0  0
  193.6800  174.6350  135.5380 C   0  0  2  0  0  3  0  0  0  0  0  0
  193.1300  174.3510  137.8660 O   0  0  0  0  0  1  0  0  0  0  0  0
  194.2270  173.0020  134.9640 S   0  0  0  0  0  0  0  0  0  0  0  0
  192.9700  172.1620  135.8970 N   0  0  0  0  0  0  0  0  0  0  0  0
  194.8010  175.5640  135.9180 C   0  0  0  0  0  0  0  0  0  0  0  0
  194.5730  176.8030  135.9160 O   0  0  0  0  0  0  0  0  0  0  0  0
  196.1440  175.0880  136.3040 C   0  0  0  0  0  0  0  0  0  0  0  0
  197.1310  174.9510  135.3350 O   0  0  0  0  0  0  0  0  0  0  0  0
  196.4120  174.8000  137.5010 O   0  0  0  0  0  1  0  0  0  0  0  0
  185.1500  178.7760  141.0390 C   0  0  0  0  0  2  0  0  0  0  0  0
  184.7170  178.1080  142.3330 C   0  0  0  0  0  2  0  0  0  0  0  0
  184.2240  179.1530  143.3220 C   0  0  0  0  0  2  0  0  0  0  0  0
  185.7120  178.0780  144.9550 C   0  0  0  0  0  3  0  0  0  0  0  0
  185.0640  179.1700  144.5580 C   0  0  0  0  0  3  0  0  0  0  0  0
  186.5440  178.1110  146.1920 C   0  0  0  0  0  2  0  0  0  0  0  0
  188.5110  177.5820  148.3270 C   0  0  0  0  0  1  0  0  0  0  0  0
  191.2560  176.8360  147.5620 C   0  0  0  0  0  1  0  0  0  0  0  0
  189.6470  177.3090  144.1720 C   0  0  0  0  0  0  0  0  0  0  0  0
  188.3370  177.6600  144.5260 C   0  0  0  0  0  3  0  0  0  0  0  0
  190.5810  177.0450  145.1800 C   0  0  0  0  0  3  0  0  0  0  0  0
  188.9020  177.4830  146.8840 C   0  0  0  0  0  0  0  0  0  0  0  0
  190.2190  177.1300  146.5290 C   0  0  0  0  0  0  0  0  0  0  0  0
  187.9590  177.7510  145.8690 C   0  0  0  0  0  0  0  0  0  0  0  0
  191.2190  177.2650  140.8020 N   0  0  0  0  0  0  0  0  0  0  0  0
  189.2230  176.9000  141.8090 N   0  0  0  0  0  0  0  0  0  0  0  0
  189.9850  176.9350  140.6090 C   0  0  0  0  0  3  0  0  0  0  0  0
  190.0410  177.2230  142.7550 C   0  0  0  0  0  0  0  0  0  0  0  0
  191.4080  177.4940  142.2260 C   0  0  0  0  0  2  0  0  0  0  0  0
  1 13  1  6  0  0  0
  1 38  1  0  0  0  0
  2  1  1  6  0  0  0
  2  4  1  0  0  0  0
  3  4  2  0  0  0  0
  5  8  1  1  0  0  0
  5  3  1  0  0  0  0
  6  5  1  0  0  0  0
  6  7  1  0  0  0  0
  7  2  1  0  0  0  0
 10  8  1  1  0  0  0
 10  9  1  0  0  0  0
 11 10  1  0  0  0  0
 11  9  1  0  0  0  0
 12 13  2  0  0  0  0
 14 17  2  0  0  0  0
 15 14  1  0  0  0  0
 15 16  1  0  0  0  0
 15 22  1  0  0  0  0
 16 12  1  1  0  0  0
 17 24  1  0  0  0  0
 17 18  1  0  0  0  0
 21 16  1  0  0  0  0
 21 20  1  0  0  0  0
 22 18  1  0  0  0  0
 22 19  2  0  0  0  0
 23 14  1  0  0  0  0
 23 20  1  0  0  0  0
 25 28  1  0  0  0  0
 25 24  1  0  0  0  0
 26 32  1  0  0  0  0
 27 28  1  0  0  0  0
 28 30  1  1  0  0  0
 29 33  1  1  0  0  0
 29 28  1  0  0  0  0
 31 29  1  0  0  0  0
 31 32  1  0  0  0  0
 32 27  1  0  0  0  0
 33 35  1  0  0  0  0
 34 33  2  0  0  0  0
 35 37  1  0  0  0  0
 36 35  2  0  0  0  0
 38 39  1  0  0  0  0
 39 40  1  0  0  0  0
 40 42  1  0  0  0  0
 41 43  1  0  0  0  0
 42 41  2  0  0  0  0
 46 47  2  0  0  0  0
 46 48  1  0  0  0  0
 47 51  1  0  0  0  0
 48 50  2  0  0  0  0
 49 44  1  0  0  0  0
 50 49  1  0  0  0  0
 50 45  1  0  0  0  0
 51 43  1  0  0  0  0
 51 49  2  0  0  0  0
 52 56  1  0  0  0  0
 53 55  2  0  0  0  0
 54 52  2  0  0  0  0
 54 53  1  0  0  0  0
 55 46  1  0  0  0  0
 56 55  1  0  0  0  0
M  END
>  <MODEL>
1

>  <REMARK>
 VINA RESULT:      -9.1      0.000      0.000
  Name = 
  17 active torsions:
  status: ('A' for Active; 'I' for Inactive)
    1  A    between atoms: C_3  and  C_8
    2  A    between atoms: C_10  and  C_33
    3  A    between atoms: C_11  and  C_14
    4  A    between atoms: C_12  and  C_16
    5  A    between atoms: C_13  and  C_55
    6  A    between atoms: C_14  and  C_33
    7  A    between atoms: C_16  and  C_17
    8  A    between atoms: C_20  and  C_42
    9  A    between atoms: C_24  and  C_26
   10  A    between atoms: C_24  and  C_55
   11  A    between atoms: C_26  and  C_27
   12  A    between atoms: C_27  and  C_52
   13  A    between atoms: N_36  and  C_40
   14  A    between atoms: N_36  and  C_44
   15  A    between atoms: C_37  and  C_48
   16  A    between atoms: C_45  and  C_55
   17  A    between atoms: C_48  and  C_53
                            x       y       z     vdW  Elec       q    Type
                         _______ _______ _______ _____ _____    ______ ____

>  <TORSDO>
F 17

$$$$
=
 OpenBabel11042413273D

 56 62  0  0  1  0  0  0  0  0999 V2000
  187.5260  177.1100  142.7100 C   0  0  2  0  0  3  0  0  0  0  0  0
  188.4720  176.2290  143.5470 C   0  0  1  0  0  3  0  0  0  0  0  0
  190.9060  176.0570  143.1070 C   0  0  0  0  0  3  0  0  0  0  0  0
  189.6630  175.6770  142.7880 C   0  0  0  0  0  3  0  0  0  0  0  0
  191.1580  176.9870  144.2590 C   0  0  1  0  0  3  0  0  0  0  0  0
  189.8650  177.7320  144.6130 C   0  0  0  0  0  2  0  0  0  0  0  0
  188.8050  176.8170  144.7940 O   0  0  0  0  0  0  0  0  0  0  0  0
  191.6150  176.2180  145.4060 N   0  0  0  0  0  2  0  0  0  0  0  0
  190.7890  176.2870  147.6360 C   0  0  0  0  0  2  0  0  0  0  0  0
  191.4490  177.0540  146.5850 C   0  0  1  0  0  3  0  0  0  0  0  0
  192.2430  176.4920  147.6890 N   0  0  0  0  0  2  0  0  0  0  0  0
  188.4440  177.5290  140.4570 C   0  0  0  0  0  3  0  0  0  0  0  0
  188.2930  177.9330  141.7180 C   0  0  0  0  0  3  0  0  0  0  0  0
  190.6550  176.9390  137.9570 C   0  0  0  0  0  0  0  0  0  0  0  0
  190.4560  177.7260  139.1170 N   0  0  0  0  0  0  0  0  0  0  0  0
  189.1980  178.3750  139.4780 C   0  0  1  0  0  3  0  0  0  0  0  0
  191.8320  176.3140  137.9790 C   0  0  0  0  0  0  0  0  0  0  0  0
  192.5660  176.5810  139.2650 C   0  0  0  0  0  2  0  0  0  0  0  0
  191.7360  177.9830  141.0840 O   0  0  0  0  0  0  0  0  0  0  0  0
  188.2870  177.3560  137.3400 C   0  0  0  0  0  2  0  0  0  0  0  0
  188.3550  178.6160  138.2160 C   0  0  0  0  0  2  0  0  0  0  0  0
  191.5910  177.4920  139.9340 C   0  0  0  0  0  0  0  0  0  0  0  0
  189.6720  176.9540  136.8270 C   0  0  0  0  0  2  0  0  0  0  0  0
  192.3590  175.4260  136.9010 C   0  0  0  0  0  2  0  0  0  0  0  0
  193.8580  175.6460  136.7150 C   0  0  0  0  0  2  0  0  0  0  0  0
  194.2160  170.9770  136.0170 C   0  0  0  0  0  1  0  0  0  0  0  0
  193.9070  173.1390  136.8430 C   0  0  0  0  0  2  0  0  0  0  0  0
  194.6890  174.4140  137.0720 C   0  0  1  0  0  0  0  0  0  0  0  0
  195.9190  174.2880  136.1850 C   0  0  2  0  0  3  0  0  0  0  0  0
  195.0450  174.4840  138.4220 O   0  0  0  0  0  1  0  0  0  0  0  0
  196.3030  172.5260  135.9650 S   0  0  0  0  0  0  0  0  0  0  0  0
  194.8330  172.0160  136.8230 N   0  0  0  0  0  0  0  0  0  0  0  0
  197.1010  175.1330  136.5760 C   0  0  0  0  0  0  0  0  0  0  0  0
  197.2510  176.2450  136.0030 O   0  0  0  0  0  0  0  0  0  0  0  0
  198.0790  174.7240  137.6020 C   0  0  0  0  0  0  0  0  0  0  0  0
  198.9260  173.6500  137.3570 O   0  0  0  0  0  0  0  0  0  0  0  0
  198.1580  175.3330  138.7030 O   0  0  0  0  0  1  0  0  0  0  0  0
  186.6630  178.0150  143.5810 C   0  0  0  0  0  2  0  0  0  0  0  0
  185.7710  178.8960  142.7220 C   0  0  0  0  0  2  0  0  0  0  0  0
  184.5060  178.1450  142.3380 C   0  0  0  0  0  2  0  0  0  0  0  0
  184.9340  178.8270  140.0180 C   0  0  0  0  0  3  0  0  0  0  0  0
  184.0520  178.5100  140.9620 C   0  0  0  0  0  3  0  0  0  0  0  0
  184.4650  179.1920  138.6510 C   0  0  0  0  0  2  0  0  0  0  0  0
  181.6840  179.0670  137.6710 C   0  0  0  0  0  1  0  0  0  0  0  0
  180.7960  176.6400  136.2550 C   0  0  0  0  0  1  0  0  0  0  0  0
  184.3780  175.7460  137.0780 C   0  0  0  0  0  0  0  0  0  0  0  0
  184.8110  176.8980  137.7480 C   0  0  0  0  0  3  0  0  0  0  0  0
  183.0640  175.6860  136.6000 C   0  0  0  0  0  3  0  0  0  0  0  0
  182.6220  177.9170  137.4610 C   0  0  0  0  0  0  0  0  0  0  0  0
  182.1860  176.7590  136.7870 C   0  0  0  0  0  0  0  0  0  0  0  0
  183.9460  177.9790  137.9450 C   0  0  0  0  0  0  0  0  0  0  0  0
  186.9600  173.2410  136.1370 N   0  0  0  0  0  0  0  0  0  0  0  0
  185.2040  173.5030  137.5430 N   0  0  0  0  0  0  0  0  0  0  0  0
  186.2530  172.6750  137.0580 C   0  0  0  0  0  2  0  0  0  0  0  0
  185.2920  174.6080  136.8810 C   0  0  0  0  0  0  0  0  0  0  0  0
  186.4200  174.5720  135.9070 C   0  0  0  0  0  3  0  0  0  0  0  0
  1 13  1  6  0  0  0
  1 38  1  0  0  0  0
  2  1  1  6  0  0  0
  2  7  1  0  0  0  0
  3  5  1  0  0  0  0
  4  3  2  0  0  0  0
  4  2  1  0  0  0  0
  5  6  1  0  0  0  0
  5  8  1  1  0  0  0
  6  7  1  0  0  0  0
  9 11  1  0  0  0  0
 10  8  1  6  0  0  0
 10  9  1  0  0  0  0
 10 11  1  0  0  0  0
 12 13  2  0  0  0  0
 14 17  2  0  0  0  0
 14 15  1  0  0  0  0
 15 16  1  0  0  0  0
 15 22  1  0  0  0  0
 16 12  1  1  0  0  0
 17 18  1  0  0  0  0
 18 22  1  0  0  0  0
 20 21  1  0  0  0  0
 21 16  1  0  0  0  0
 22 19  2  0  0  0  0
 23 20  1  0  0  0  0
 23 14  1  0  0  0  0
 24 17  1  0  0  0  0
 25 24  1  0  0  0  0
 25 28  1  0  0  0  0
 26 32  1  0  0  0  0
 27 28  1  0  0  0  0
 28 30  1  1  0  0  0
 29 33  1  1  0  0  0
 29 28  1  0  0  0  0
 31 29  1  0  0  0  0
 31 32  1  0  0  0  0
 32 27  1  0  0  0  0
 33 35  1  0  0  0  0
 34 33  2  0  0  0  0
 35 37  1  0  0  0  0
 36 35  2  0  0  0  0
 39 38  1  0  0  0  0
 40 39  1  0  0  0  0
 41 42  2  0  0  0  0
 42 40  1  0  0  0  0
 43 41  1  0  0  0  0
 45 50  1  0  0  0  0
 46 47  1  0  0  0  0
 47 51  2  0  0  0  0
 48 50  1  0  0  0  0
 48 46  2  0  0  0  0
 49 44  1  0  0  0  0
 49 51  1  0  0  0  0
 50 49  2  0  0  0  0
 51 43  1  0  0  0  0
 52 54  1  0  0  0  0
 54 53  1  0  0  0  0
 55 46  1  0  0  0  0
 55 53  2  0  0  0  0
 56 52  2  0  0  0  0
 56 55  1  0  0  0  0
M  END
>  <MODEL>
2

>  <REMARK>
 VINA RESULT:      -8.3      2.580      7.470
  Name = 
  17 active torsions:
  status: ('A' for Active; 'I' for Inactive)
    1  A    between atoms: C_3  and  C_8
    2  A    between atoms: C_10  and  C_33
    3  A    between atoms: C_11  and  C_14
    4  A    between atoms: C_12  and  C_16
    5  A    between atoms: C_13  and  C_55
    6  A    between atoms: C_14  and  C_33
    7  A    between atoms: C_16  and  C_17
    8  A    between atoms: C_20  and  C_42
    9  A    between atoms: C_24  and  C_26
   10  A    between atoms: C_24  and  C_55
   11  A    between atoms: C_26  and  C_27
   12  A    between atoms: C_27  and  C_52
   13  A    between atoms: N_36  and  C_40
   14  A    between atoms: N_36  and  C_44
   15  A    between atoms: C_37  and  C_48
   16  A    between atoms: C_45  and  C_55
   17  A    between atoms: C_48  and  C_53
                            x       y       z     vdW  Elec       q    Type
                         _______ _______ _______ _____ _____    ______ ____

>  <TORSDO>
F 17

$$$$
=
 OpenBabel11042413273D

 56 62  0  0  1  0  0  0  0  0999 V2000
  188.0550  178.4950  138.5250 C   0  0  2  0  0  3  0  0  0  0  0  0
  186.9360  177.8150  139.3340 C   0  0  1  0  0  3  0  0  0  0  0  0
  185.5890  179.0020  141.0440 C   0  0  0  0  0  3  0  0  0  0  0  0
  186.7290  178.3760  140.7280 C   0  0  0  0  0  3  0  0  0  0  0  0
  184.4650  179.1090  140.0540 C   0  0  1  0  0  3  0  0  0  0  0  0
  185.0010  178.8670  138.6370 C   0  0  0  0  0  2  0  0  0  0  0  0
  185.7380  177.6640  138.5890 O   0  0  0  0  0  0  0  0  0  0  0  0
  183.4480  178.1180  140.3720 N   0  0  0  0  0  2  0  0  0  0  0  0
  181.4580  179.4120  140.2280 C   0  0  0  0  0  2  0  0  0  0  0  0
  182.4120  178.7910  141.1400 C   0  0  1  0  0  3  0  0  0  0  0  0
  181.1190  178.1390  140.8780 N   0  0  0  0  0  2  0  0  0  0  0  0
  187.7840  176.5450  137.0360 C   0  0  0  0  0  3  0  0  0  0  0  0
  188.4070  177.6900  137.3090 C   0  0  0  0  0  3  0  0  0  0  0  0
  186.6690  173.6960  135.5770 C   0  0  0  0  0  0  0  0  0  0  0  0
  187.8490  174.3480  136.0090 N   0  0  0  0  0  0  0  0  0  0  0  0
  188.1380  175.7660  135.8080 C   0  0  1  0  0  3  0  0  0  0  0  0
  186.5820  172.4570  136.0630 C   0  0  0  0  0  0  0  0  0  0  0  0
  187.7340  172.1510  136.9800 C   0  0  0  0  0  2  0  0  0  0  0  0
  189.5460  173.6980  137.5160 O   0  0  0  0  0  0  0  0  0  0  0  0
  185.8810  175.8610  134.6520 C   0  0  0  0  0  2  0  0  0  0  0  0
  187.3550  176.2900  134.5940 C   0  0  0  0  0  2  0  0  0  0  0  0
  188.4870  173.4360  136.8870 C   0  0  0  0  0  0  0  0  0  0  0  0
  185.7380  174.3380  134.5950 C   0  0  0  0  0  2  0  0  0  0  0  0
  185.4760  171.4950  135.7820 C   0  0  0  0  0  2  0  0  0  0  0  0
  184.2900  171.7620  136.7050 C   0  0  0  0  0  2  0  0  0  0  0  0
  180.1470  169.7650  135.5850 C   0  0  0  0  0  1  0  0  0  0  0  0
  182.2920  170.6840  135.6330 C   0  0  0  0  0  2  0  0  0  0  0  0
  182.9840  171.9940  135.9460 C   0  0  1  0  0  0  0  0  0  0  0  0
  181.9810  172.7820  136.7760 C   0  0  2  0  0  3  0  0  0  0  0  0
  183.2690  172.6470  134.7430 O   0  0  0  0  0  1  0  0  0  0  0  0
  180.3040  172.2520  136.3250 S   0  0  0  0  0  0  0  0  0  0  0  0
  180.9090  170.9590  135.2670 N   0  0  0  0  0  0  0  0  0  0  0  0
  182.1730  174.2740  136.7950 C   0  0  0  0  0  0  0  0  0  0  0  0
  181.6420  174.9530  135.8760 O   0  0  0  0  0  0  0  0  0  0  0  0
  182.9420  174.9730  137.8430 C   0  0  0  0  0  0  0  0  0  0  0  0
  182.3540  175.2260  139.0760 O   0  0  0  0  0  1  0  0  0  0  0  0
  184.1270  175.3500  137.6370 O   0  0  0  0  0  0  0  0  0  0  0  0
  189.3040  178.7420  139.3650 C   0  0  0  0  0  2  0  0  0  0  0  0
  190.1850  177.5040  139.3930 C   0  0  0  0  0  2  0  0  0  0  0  0
  191.1350  177.5650  140.5790 C   0  0  0  0  0  2  0  0  0  0  0  0
  190.3150  177.0750  142.8420 C   0  0  0  0  0  3  0  0  0  0  0  0
  190.7180  176.6190  141.6580 C   0  0  0  0  0  3  0  0  0  0  0  0
  189.9040  176.1180  143.9090 C   0  0  0  0  0  2  0  0  0  0  0  0
  191.1670  176.6700  146.5180 C   0  0  0  0  0  1  0  0  0  0  0  0
  189.6210  178.1410  148.5490 C   0  0  0  0  0  1  0  0  0  0  0  0
  187.1260  177.9550  145.7130 C   0  0  0  0  0  0  0  0  0  0  0  0
  187.8550  177.2600  144.7390 C   0  0  0  0  0  3  0  0  0  0  0  0
  187.7240  178.2310  146.9480 C   0  0  0  0  0  3  0  0  0  0  0  0
  189.7660  177.1200  146.2350 C   0  0  0  0  0  0  0  0  0  0  0  0
  189.0330  177.8190  147.2150 C   0  0  0  0  0  0  0  0  0  0  0  0
  189.1650  176.8400  144.9900 C   0  0  0  0  0  0  0  0  0  0  0  0
  183.5470  178.9660  145.6630 N   0  0  0  0  0  0  0  0  0  0  0  0
  185.3140  178.7050  144.2690 N   0  0  0  0  0  0  0  0  0  0  0  0
  183.9470  179.0580  144.4370 C   0  0  0  0  0  3  0  0  0  0  0  0
  185.7440  178.3890  145.4450 C   0  0  0  0  0  0  0  0  0  0  0  0
  184.6700  178.5180  146.4710 C   0  0  0  0  0  2  0  0  0  0  0  0
  1 13  1  6  0  0  0
  1 38  1  0  0  0  0
  2  1  1  6  0  0  0
  2  4  1  0  0  0  0
  4  3  2  0  0  0  0
  5  8  1  1  0  0  0
  5  3  1  0  0  0  0
  6  5  1  0  0  0  0
  7  6  1  0  0  0  0
  7  2  1  0  0  0  0
  9 11  1  0  0  0  0
  9 10  1  0  0  0  0
 10  8  1  6  0  0  0
 11 10  1  0  0  0  0
 12 13  2  0  0  0  0
 14 15  1  0  0  0  0
 14 17  2  0  0  0  0
 15 22  1  0  0  0  0
 16 15  1  0  0  0  0
 16 12  1  1  0  0  0
 17 18  1  0  0  0  0
 21 20  1  0  0  0  0
 21 16  1  0  0  0  0
 22 18  1  0  0  0  0
 22 19  2  0  0  0  0
 23 20  1  0  0  0  0
 23 14  1  0  0  0  0
 24 17  1  0  0  0  0
 24 25  1  0  0  0  0
 27 28  1  0  0  0  0
 28 30  1  6  0  0  0
 28 25  1  0  0  0  0
 28 29  1  0  0  0  0
 29 33  1  6  0  0  0
 31 29  1  0  0  0  0
 32 26  1  0  0  0  0
 32 27  1  0  0  0  0
 32 31  1  0  0  0  0
 33 35  1  0  0  0  0
 34 33  2  0  0  0  0
 35 36  1  0  0  0  0
 37 35  2  0  0  0  0
 38 39  1  0  0  0  0
 39 40  1  0  0  0  0
 40 42  1  0  0  0  0
 41 43  1  0  0  0  0
 42 41  2  0  0  0  0
 43 51  1  0  0  0  0
 46 48  1  0  0  0  0
 47 51  1  0  0  0  0
 47 46  2  0  0  0  0
 48 50  2  0  0  0  0
 49 44  1  0  0  0  0
 49 50  1  0  0  0  0
 50 45  1  0  0  0  0
 51 49  2  0  0  0  0
 52 56  1  0  0  0  0
 53 54  1  0  0  0  0
 53 55  2  0  0  0  0
 54 52  2  0  0  0  0
 55 46  1  0  0  0  0
 55 56  1  0  0  0  0
M  END
>  <MODEL>
3

>  <REMARK>
 VINA RESULT:      -8.3      3.730      7.179
  Name = 
  17 active torsions:
  status: ('A' for Active; 'I' for Inactive)
    1  A    between atoms: C_3  and  C_8
    2  A    between atoms: C_10  and  C_33
    3  A    between atoms: C_11  and  C_14
    4  A    between atoms: C_12  and  C_16
    5  A    between atoms: C_13  and  C_55
    6  A    between atoms: C_14  and  C_33
    7  A    between atoms: C_16  and  C_17
    8  A    between atoms: C_20  and  C_42
    9  A    between atoms: C_24  and  C_26
   10  A    between atoms: C_24  and  C_55
   11  A    between atoms: C_26  and  C_27
   12  A    between atoms: C_27  and  C_52
   13  A    between atoms: N_36  and  C_40
   14  A    between atoms: N_36  and  C_44
   15  A    between atoms: C_37  and  C_48
   16  A    between atoms: C_45  and  C_55
   17  A    between atoms: C_48  and  C_53
                            x       y       z     vdW  Elec       q    Type
                         _______ _______ _______ _____ _____    ______ ____

>  <TORSDO>
F 17

$$$$
=
 OpenBabel11042413273D

 56 62  0  0  1  0  0  0  0  0999 V2000
  184.2770  179.0870  140.2750 C   0  0  2  0  0  3  0  0  0  0  0  0
  182.8320  178.5600  140.3520 C   0  0  1  0  0  3  0  0  0  0  0  0
  181.3530  178.3670  138.3720 C   0  0  0  0  0  3  0  0  0  0  0  0
  181.8860  179.1460  139.3210 C   0  0  0  0  0  3  0  0  0  0  0  0
  181.6240  176.8910  138.3390 C   0  0  1  0  0  3  0  0  0  0  0  0
  182.8780  176.5780  139.1660 C   0  0  0  0  0  2  0  0  0  0  0  0
  182.7710  177.1460  140.4540 O   0  0  0  0  0  0  0  0  0  0  0  0
  180.4800  176.1800  138.8890 N   0  0  0  0  0  2  0  0  0  0  0  0
  179.1190  174.8990  137.4180 C   0  0  0  0  0  2  0  0  0  0  0  0
  180.3670  174.9190  138.1740 C   0  0  1  0  0  3  0  0  0  0  0  0
  180.3840  175.1830  136.7260 N   0  0  0  0  0  2  0  0  0  0  0  0
  185.9250  178.2350  138.6470 C   0  0  0  0  0  3  0  0  0  0  0  0
  184.8270  178.9510  138.8870 C   0  0  0  0  0  3  0  0  0  0  0  0
  188.1180  176.1820  137.0780 C   0  0  0  0  0  0  0  0  0  0  0  0
  187.8000  177.5480  137.2700 N   0  0  0  0  0  0  0  0  0  0  0  0
  186.4470  178.0990  137.2500 C   0  0  1  0  0  3  0  0  0  0  0  0
  189.4010  175.9310  137.3410 C   0  0  0  0  0  0  0  0  0  0  0  0
  190.1080  177.1660  137.8280 C   0  0  0  0  0  2  0  0  0  0  0  0
  189.0670  179.3590  138.0990 O   0  0  0  0  0  0  0  0  0  0  0  0
  185.6940  175.7150  136.8120 C   0  0  0  0  0  2  0  0  0  0  0  0
  185.5270  177.1910  136.4190 C   0  0  0  0  0  2  0  0  0  0  0  0
  188.9880  178.1500  137.7570 C   0  0  0  0  0  0  0  0  0  0  0  0
  187.1140  175.2170  136.5270 C   0  0  0  0  0  2  0  0  0  0  0  0
  190.0630  174.5990  137.2160 C   0  0  0  0  0  2  0  0  0  0  0  0
  191.5750  174.7400  137.3690 C   0  0  0  0  0  2  0  0  0  0  0  0
  194.9900  176.9970  134.9890 C   0  0  0  0  0  1  0  0  0  0  0  0
  192.9930  176.1230  135.8260 C   0  0  0  0  0  2  0  0  0  0  0  0
  192.3080  174.7890  136.0280 C   0  0  1  0  0  0  0  0  0  0  0  0
  193.4230  173.7570  135.9570 C   0  0  2  0  0  3  0  0  0  0  0  0
  191.3800  174.6020  134.9990 O   0  0  0  0  0  1  0  0  0  0  0  0
  194.7570  174.4090  134.9110 S   0  0  0  0  0  0  0  0  0  0  0  0
  193.9680  175.9930  134.7520 N   0  0  0  0  0  0  0  0  0  0  0  0
  193.0000  172.3540  135.6150 C   0  0  0  0  0  0  0  0  0  0  0  0
  192.0980  172.2000  134.7500 O   0  0  0  0  0  0  0  0  0  0  0  0
  193.6010  171.1580  136.2370 C   0  0  0  0  0  0  0  0  0  0  0  0
  193.1530  169.8940  135.8740 O   0  0  0  0  0  0  0  0  0  0  0  0
  194.5160  171.2640  137.0980 O   0  0  0  0  0  1  0  0  0  0  0  0
  185.1970  178.3890  141.2710 C   0  0  0  0  0  2  0  0  0  0  0  0
  184.4880  178.1750  142.5980 C   0  0  0  0  0  2  0  0  0  0  0  0
  184.4410  179.4770  143.3830 C   0  0  0  0  0  2  0  0  0  0  0  0
  185.3410  178.1820  145.2660 C   0  0  0  0  0  3  0  0  0  0  0  0
  185.1890  179.3620  144.6710 C   0  0  0  0  0  3  0  0  0  0  0  0
  186.0880  178.0860  146.5530 C   0  0  0  0  0  2  0  0  0  0  0  0
  188.0480  177.9540  148.7550 C   0  0  0  0  0  1  0  0  0  0  0  0
  190.8540  177.3300  148.1090 C   0  0  0  0  0  1  0  0  0  0  0  0
  189.2770  177.2860  144.6710 C   0  0  0  0  0  0  0  0  0  0  0  0
  187.9390  177.5780  144.9690 C   0  0  0  0  0  3  0  0  0  0  0  0
  190.2090  177.2110  145.7130 C   0  0  0  0  0  3  0  0  0  0  0  0
  188.4720  177.7170  147.3380 C   0  0  0  0  0  0  0  0  0  0  0  0
  189.8180  177.4240  147.0380 C   0  0  0  0  0  0  0  0  0  0  0  0
  187.5310  177.7960  146.2890 C   0  0  0  0  0  0  0  0  0  0  0  0
  190.4940  176.1390  141.3500 N   0  0  0  0  0  0  0  0  0  0  0  0
  189.6420  177.9760  142.3640 N   0  0  0  0  0  0  0  0  0  0  0  0
  190.1410  177.3700  141.1790 C   0  0  0  0  0  3  0  0  0  0  0  0
  189.7020  177.0660  143.2780 C   0  0  0  0  0  0  0  0  0  0  0  0
  190.2520  175.7880  142.7400 C   0  0  0  0  0  2  0  0  0  0  0  0
  1 13  1  6  0  0  0
  1 38  1  0  0  0  0
  2  1  1  6  0  0  0
  2  7  1  0  0  0  0
  3  4  2  0  0  0  0
  4  2  1  0  0  0  0
  5  3  1  0  0  0  0
  5  8  1  1  0  0  0
  5  6  1  0  0  0  0
  6  7  1  0  0  0  0
  9 10  1  0  0  0  0
 10  8  1  1  0  0  0
 11  9  1  0  0  0  0
 11 10  1  0  0  0  0
 12 13  2  0  0  0  0
 14 15  1  0  0  0  0
 14 17  2  0  0  0  0
 15 22  1  0  0  0  0
 16 15  1  0  0  0  0
 16 12  1  1  0  0  0
 17 18  1  0  0  0  0
 21 20  1  0  0  0  0
 21 16  1  0  0  0  0
 22 18  1  0  0  0  0
 22 19  2  0  0  0  0
 23 20  1  0  0  0  0
 23 14  1  0  0  0  0
 24 17  1  0  0  0  0
 24 25  1  0  0  0  0
 27 28  1  0  0  0  0
 28 30  1  6  0  0  0
 28 25  1  0  0  0  0
 29 33  1  6  0  0  0
 29 28  1  0  0  0  0
 31 29  1  0  0  0  0
 32 31  1  0  0  0  0
 32 26  1  0  0  0  0
 32 27  1  0  0  0  0
 33 35  1  0  0  0  0
 34 33  2  0  0  0  0
 35 37  1  0  0  0  0
 36 35  2  0  0  0  0
 38 39  1  0  0  0  0
 39 40  1  0  0  0  0
 40 42  1  0  0  0  0
 41 43  1  0  0  0  0
 42 41  2  0  0  0  0
 46 47  2  0  0  0  0
 46 48  1  0  0  0  0
 47 51  1  0  0  0  0
 48 50  2  0  0  0  0
 49 44  1  0  0  0  0
 50 49  1  0  0  0  0
 50 45  1  0  0  0  0
 51 43  1  0  0  0  0
 51 49  2  0  0  0  0
 52 56  1  0  0  0  0
 53 55  2  0  0  0  0
 54 52  2  0  0  0  0
 54 53  1  0  0  0  0
 55 46  1  0  0  0  0
 56 55  1  0  0  0  0
M  END
>  <MODEL>
4

>  <REMARK>
 VINA RESULT:      -8.0      1.589      2.147
  Name = 
  17 active torsions:
  status: ('A' for Active; 'I' for Inactive)
    1  A    between atoms: C_3  and  C_8
    2  A    between atoms: C_10  and  C_33
    3  A    between atoms: C_11  and  C_14
    4  A    between atoms: C_12  and  C_16
    5  A    between atoms: C_13  and  C_55
    6  A    between atoms: C_14  and  C_33
    7  A    between atoms: C_16  and  C_17
    8  A    between atoms: C_20  and  C_42
    9  A    between atoms: C_24  and  C_26
   10  A    between atoms: C_24  and  C_55
   11  A    between atoms: C_26  and  C_27
   12  A    between atoms: C_27  and  C_52
   13  A    between atoms: N_36  and  C_40
   14  A    between atoms: N_36  and  C_44
   15  A    between atoms: C_37  and  C_48
   16  A    between atoms: C_45  and  C_55
   17  A    between atoms: C_48  and  C_53
                            x       y       z     vdW  Elec       q    Type
                         _______ _______ _______ _____ _____    ______ ____

>  <TORSDO>
F 17

$$$$
=
 OpenBabel11042413273D

 56 62  0  0  1  0  0  0  0  0999 V2000
  186.9570  174.5430  136.3080 C   0  0  2  0  0  3  0  0  0  0  0  0
  187.9580  173.5320  135.7210 C   0  0  1  0  0  3  0  0  0  0  0  0
  190.1420  174.1950  134.7510 C   0  0  0  0  0  3  0  0  0  0  0  0
  188.8190  174.0700  134.5940 C   0  0  0  0  0  3  0  0  0  0  0  0
  190.8150  173.7470  136.0170 C   0  0  1  0  0  3  0  0  0  0  0  0
  189.7770  173.6320  137.1410 C   0  0  0  0  0  2  0  0  0  0  0  0
  188.6870  172.8400  136.7230 O   0  0  0  0  0  0  0  0  0  0  0  0
  191.4470  172.4560  135.7940 N   0  0  0  0  0  2  0  0  0  0  0  0
  193.4390  173.6360  136.3390 C   0  0  0  0  0  2  0  0  0  0  0  0
  192.8230  172.7080  135.3970 C   0  0  1  0  0  3  0  0  0  0  0  0
  193.7270  172.1990  136.4400 N   0  0  0  0  0  2  0  0  0  0  0  0
  187.2170  176.6440  137.5780 C   0  0  0  0  0  3  0  0  0  0  0  0
  187.6170  175.8630  136.5750 C   0  0  0  0  0  3  0  0  0  0  0  0
  189.0890  177.9280  140.0940 C   0  0  0  0  0  0  0  0  0  0  0  0
  187.9680  178.2050  139.2750 N   0  0  0  0  0  0  0  0  0  0  0  0
  187.9020  177.9490  137.8380 C   0  0  1  0  0  3  0  0  0  0  0  0
  188.8060  178.0770  141.3880 C   0  0  0  0  0  0  0  0  0  0  0  0
  187.3570  178.4300  141.5910 C   0  0  0  0  0  2  0  0  0  0  0  0
  185.7220  178.7110  139.7990 O   0  0  0  0  0  0  0  0  0  0  0  0
  190.2710  177.0740  138.0850 C   0  0  0  0  0  2  0  0  0  0  0  0
  189.3200  177.9400  137.2450 C   0  0  0  0  0  2  0  0  0  0  0  0
  186.9020  178.4780  140.1700 C   0  0  0  0  0  0  0  0  0  0  0  0
  190.4330  177.6300  139.5020 C   0  0  0  0  0  2  0  0  0  0  0  0
  189.7700  177.8850  142.5110 C   0  0  0  0  0  2  0  0  0  0  0  0
  189.2310  178.5160  143.7910 C   0  0  0  0  0  2  0  0  0  0  0  0
  191.2670  176.7870  147.6990 C   0  0  0  0  0  1  0  0  0  0  0  0
  190.3710  177.1710  145.5780 C   0  0  0  0  0  2  0  0  0  0  0  0
  189.0480  177.5060  144.9230 C   0  0  1  0  0  0  0  0  0  0  0  0
  188.1830  178.0640  146.0430 C   0  0  2  0  0  3  0  0  0  0  0  0
  188.4990  176.3320  144.3980 O   0  0  0  0  0  1  0  0  0  0  0  0
  188.7290  177.3450  147.6190 S   0  0  0  0  0  0  0  0  0  0  0  0
  190.1120  176.5280  146.8590 N   0  0  0  0  0  0  0  0  0  0  0  0
  186.6960  178.0020  145.8190 C   0  0  0  0  0  0  0  0  0  0  0  0
  186.2680  177.2960  144.8670 O   0  0  0  0  0  0  0  0  0  0  0  0
  185.7240  178.7180  146.6670 C   0  0  0  0  0  0  0  0  0  0  0  0
  186.1150  179.8650  147.3470 O   0  0  0  0  0  1  0  0  0  0  0  0
  184.5390  178.3040  146.7880 O   0  0  0  0  0  0  0  0  0  0  0  0
  186.2950  174.0240  137.5790 C   0  0  0  0  0  2  0  0  0  0  0  0
  184.8400  173.6690  137.3200 C   0  0  0  0  0  2  0  0  0  0  0  0
  184.3050  174.4730  136.1460 C   0  0  0  0  0  2  0  0  0  0  0  0
  182.4990  175.4650  137.4840 C   0  0  0  0  0  3  0  0  0  0  0  0
  182.8790  174.8640  136.3590 C   0  0  0  0  0  3  0  0  0  0  0  0
  181.0710  175.8450  137.6810 C   0  0  0  0  0  2  0  0  0  0  0  0
  181.1610  178.3570  136.1340 C   0  0  0  0  0  1  0  0  0  0  0  0
  180.9310  180.9130  137.5800 C   0  0  0  0  0  1  0  0  0  0  0  0
  180.7430  178.4330  140.4300 C   0  0  0  0  0  0  0  0  0  0  0  0
  180.8470  177.2110  139.7500 C   0  0  0  0  0  3  0  0  0  0  0  0
  180.7730  179.6260  139.7000 C   0  0  0  0  0  3  0  0  0  0  0  0
  181.0110  178.3810  137.6250 C   0  0  0  0  0  0  0  0  0  0  0  0
  180.9060  179.6090  138.3080 C   0  0  0  0  0  0  0  0  0  0  0  0
  180.9830  177.1760  138.3580 C   0  0  0  0  0  0  0  0  0  0  0  0
  180.9840  178.7720  144.1250 N   0  0  0  0  0  0  0  0  0  0  0  0
  179.5680  178.0230  142.5230 N   0  0  0  0  0  0  0  0  0  0  0  0
  179.8320  178.2290  143.9050 C   0  0  0  0  0  2  0  0  0  0  0  0
  180.6080  178.4630  141.8960 C   0  0  0  0  0  0  0  0  0  0  0  0
  181.6320  178.9910  142.8420 C   0  0  0  0  0  3  0  0  0  0  0  0
  1 13  1  1  0  0  0
  1 38  1  0  0  0  0
  2  1  1  1  0  0  0
  2  7  1  0  0  0  0
  3  5  1  0  0  0  0
  4  3  2  0  0  0  0
  4  2  1  0  0  0  0
  5  8  1  6  0  0  0
  5  6  1  0  0  0  0
  7  6  1  0  0  0  0
  9 11  1  0  0  0  0
 10  8  1  1  0  0  0
 10  9  1  0  0  0  0
 10 11  1  0  0  0  0
 13 12  2  0  0  0  0
 14 17  2  0  0  0  0
 15 14  1  0  0  0  0
 15 22  1  0  0  0  0
 16 12  1  1  0  0  0
 16 15  1  0  0  0  0
 17 18  1  0  0  0  0
 17 24  1  0  0  0  0
 19 22  2  0  0  0  0
 20 23  1  0  0  0  0
 21 16  1  0  0  0  0
 21 20  1  0  0  0  0
 22 18  1  0  0  0  0
 23 14  1  0  0  0  0
 24 25  1  0  0  0  0
 25 28  1  0  0  0  0
 27 32  1  0  0  0  0
 28 30  1  6  0  0  0
 28 27  1  0  0  0  0
 28 29  1  0  0  0  0
 29 33  1  6  0  0  0
 29 31  1  0  0  0  0
 32 31  1  0  0  0  0
 32 26  1  0  0  0  0
 33 35  1  0  0  0  0
 34 33  2  0  0  0  0
 35 37  2  0  0  0  0
 35 36  1  0  0  0  0
 39 38  1  0  0  0  0
 40 42  1  0  0  0  0
 40 39  1  0  0  0  0
 41 43  1  0  0  0  0
 42 41  2  0  0  0  0
 43 51  1  0  0  0  0
 44 49  1  0  0  0  0
 45 50  1  0  0  0  0
 46 55  1  0  0  0  0
 47 46  1  0  0  0  0
 48 46  2  0  0  0  0
 49 50  2  0  0  0  0
 49 51  1  0  0  0  0
 50 48  1  0  0  0  0
 51 47  2  0  0  0  0
 53 54  1  0  0  0  0
 54 52  1  0  0  0  0
 55 53  2  0  0  0  0
 55 56  1  0  0  0  0
 56 52  2  0  0  0  0
M  END
>  <MODEL>
5

>  <REMARK>
 VINA RESULT:      -7.5      3.489     10.265
  Name = 
  17 active torsions:
  status: ('A' for Active; 'I' for Inactive)
    1  A    between atoms: C_3  and  C_8
    2  A    between atoms: C_10  and  C_33
    3  A    between atoms: C_11  and  C_14
    4  A    between atoms: C_12  and  C_16
    5  A    between atoms: C_13  and  C_55
    6  A    between atoms: C_14  and  C_33
    7  A    between atoms: C_16  and  C_17
    8  A    between atoms: C_20  and  C_42
    9  A    between atoms: C_24  and  C_26
   10  A    between atoms: C_24  and  C_55
   11  A    between atoms: C_26  and  C_27
   12  A    between atoms: C_27  and  C_52
   13  A    between atoms: N_36  and  C_40
   14  A    between atoms: N_36  and  C_44
   15  A    between atoms: C_37  and  C_48
   16  A    between atoms: C_45  and  C_55
   17  A    between atoms: C_48  and  C_53
                            x       y       z     vdW  Elec       q    Type
                         _______ _______ _______ _____ _____    ______ ____

>  <TORSDO>
F 17

$$$$
=
 OpenBabel11042413273D

 56 62  0  0  1  0  0  0  0  0999 V2000
  186.1470  177.6820  143.8750 C   0  0  2  0  0  3  0  0  0  0  0  0
  187.1320  176.7600  144.6160 C   0  0  1  0  0  3  0  0  0  0  0  0
  189.5940  176.9270  144.3650 C   0  0  0  0  0  3  0  0  0  0  0  0
  188.4280  176.4880  143.8750 C   0  0  0  0  0  3  0  0  0  0  0  0
  189.6580  177.6400  145.6850 C   0  0  1  0  0  3  0  0  0  0  0  0
  188.2660  178.1660  146.0550 C   0  0  0  0  0  2  0  0  0  0  0  0
  187.3110  177.1300  145.9740 O   0  0  0  0  0  0  0  0  0  0  0  0
  190.1260  176.7170  146.7070 N   0  0  0  0  0  2  0  0  0  0  0  0
  192.0880  176.2890  147.9810 C   0  0  0  0  0  2  0  0  0  0  0  0
  191.5790  176.7560  146.6960 C   0  0  1  0  0  3  0  0  0  0  0  0
  192.0990  175.3860  146.8220 N   0  0  0  0  0  2  0  0  0  0  0  0
  187.0740  177.8020  141.5900 C   0  0  0  0  0  3  0  0  0  0  0  0
  186.8270  178.4060  142.7520 C   0  0  0  0  0  3  0  0  0  0  0  0
  189.1380  176.9850  139.0290 C   0  0  0  0  0  0  0  0  0  0  0  0
  188.9900  177.8930  140.1060 N   0  0  0  0  0  0  0  0  0  0  0  0
  187.7380  178.5490  140.4760 C   0  0  1  0  0  3  0  0  0  0  0  0
  190.3330  176.3930  139.0420 C   0  0  0  0  0  0  0  0  0  0  0  0
  191.1390  176.8200  140.2380 C   0  0  0  0  0  2  0  0  0  0  0  0
  190.3840  178.3990  141.9420 O   0  0  0  0  0  0  0  0  0  0  0  0
  186.7240  177.2760  138.5290 C   0  0  0  0  0  2  0  0  0  0  0  0
  186.8100  178.6270  139.2540 C   0  0  0  0  0  2  0  0  0  0  0  0
  190.1810  177.7780  140.8660 C   0  0  0  0  0  0  0  0  0  0  0  0
  188.0850  176.8500  137.9720 C   0  0  0  0  0  2  0  0  0  0  0  0
  190.8160  175.4030  138.0350 C   0  0  0  0  0  2  0  0  0  0  0  0
  191.6770  176.0920  136.9800 C   0  0  0  0  0  2  0  0  0  0  0  0
  195.5490  174.7830  139.3690 C   0  0  0  0  0  1  0  0  0  0  0  0
  193.9550  175.7890  137.9920 C   0  0  0  0  0  2  0  0  0  0  0  0
  193.0550  175.4500  136.8230 C   0  0  1  0  0  0  0  0  0  0  0  0
  192.9720  173.9310  136.8160 C   0  0  2  0  0  3  0  0  0  0  0  0
  193.6460  175.9290  135.6500 O   0  0  0  0  0  1  0  0  0  0  0  0
  194.4920  173.2590  137.5480 S   0  0  0  0  0  0  0  0  0  0  0  0
  195.0860  174.8720  137.9960 N   0  0  0  0  0  0  0  0  0  0  0  0
  192.5870  173.3000  135.5050 C   0  0  0  0  0  0  0  0  0  0  0  0
  191.7330  173.8890  134.7900 O   0  0  0  0  0  0  0  0  0  0  0  0
  193.1700  172.0350  135.0190 C   0  0  0  0  0  0  0  0  0  0  0  0
  194.4930  172.0030  134.5950 O   0  0  0  0  0  0  0  0  0  0  0  0
  192.4850  170.9770  134.9790 O   0  0  0  0  0  1  0  0  0  0  0  0
  185.4800  178.6830  144.8130 C   0  0  0  0  0  2  0  0  0  0  0  0
  184.4210  179.4860  144.0750 C   0  0  0  0  0  2  0  0  0  0  0  0
  183.1170  178.7060  144.0200 C   0  0  0  0  0  2  0  0  0  0  0  0
  183.1220  178.5830  141.5660 C   0  0  0  0  0  3  0  0  0  0  0  0
  182.4560  178.8480  142.6870 C   0  0  0  0  0  3  0  0  0  0  0  0
  182.4480  178.7320  140.2450 C   0  0  0  0  0  2  0  0  0  0  0  0
  179.8310  177.4270  140.6470 C   0  0  0  0  0  1  0  0  0  0  0  0
  179.3630  174.7960  139.4070 C   0  0  0  0  0  1  0  0  0  0  0  0
  182.9190  175.4990  138.3270 C   0  0  0  0  0  0  0  0  0  0  0  0
  183.1490  176.7530  138.9080 C   0  0  0  0  0  3  0  0  0  0  0  0
  181.6760  174.8810  138.5040 C   0  0  0  0  0  3  0  0  0  0  0  0
  180.9020  176.7620  139.8370 C   0  0  0  0  0  0  0  0  0  0  0  0
  180.6700  175.5010  139.2530 C   0  0  0  0  0  0  0  0  0  0  0  0
  182.1550  177.3860  139.6620 C   0  0  0  0  0  0  0  0  0  0  0  0
  185.5070  173.3390  136.7560 N   0  0  0  0  0  0  0  0  0  0  0  0
  184.5430  175.3750  136.5160 N   0  0  0  0  0  0  0  0  0  0  0  0
  185.4900  174.4230  136.0510 C   0  0  0  0  0  3  0  0  0  0  0  0
  183.9730  174.8340  137.5410 C   0  0  0  0  0  0  0  0  0  0  0  0
  184.5190  173.4740  137.8150 C   0  0  0  0  0  2  0  0  0  0  0  0
  1 13  1  6  0  0  0
  1 38  1  0  0  0  0
  2  1  1  6  0  0  0
  2  7  1  0  0  0  0
  3  5  1  0  0  0  0
  4  3  2  0  0  0  0
  4  2  1  0  0  0  0
  5  6  1  0  0  0  0
  5  8  1  1  0  0  0
  7  6  1  0  0  0  0
 10  8  1  1  0  0  0
 10 11  1  0  0  0  0
 10  9  1  0  0  0  0
 11  9  1  0  0  0  0
 12 13  2  0  0  0  0
 14 17  2  0  0  0  0
 14 15  1  0  0  0  0
 15 16  1  0  0  0  0
 15 22  1  0  0  0  0
 16 12  1  1  0  0  0
 17 18  1  0  0  0  0
 18 22  1  0  0  0  0
 20 21  1  0  0  0  0
 21 16  1  0  0  0  0
 22 19  2  0  0  0  0
 23 20  1  0  0  0  0
 23 14  1  0  0  0  0
 24 17  1  0  0  0  0
 25 24  1  0  0  0  0
 27 32  1  0  0  0  0
 28 30  1  6  0  0  0
 28 25  1  0  0  0  0
 28 27  1  0  0  0  0
 29 33  1  6  0  0  0
 29 28  1  0  0  0  0
 29 31  1  0  0  0  0
 31 32  1  0  0  0  0
 32 26  1  0  0  0  0
 34 33  2  0  0  0  0
 35 33  1  0  0  0  0
 36 35  2  0  0  0  0
 37 35  1  0  0  0  0
 39 38  1  0  0  0  0
 40 39  1  0  0  0  0
 41 42  2  0  0  0  0
 42 40  1  0  0  0  0
 43 41  1  0  0  0  0
 46 48  2  0  0  0  0
 46 47  1  0  0  0  0
 47 51  2  0  0  0  0
 48 50  1  0  0  0  0
 49 44  1  0  0  0  0
 50 45  1  0  0  0  0
 50 49  2  0  0  0  0
 51 49  1  0  0  0  0
 51 43  1  0  0  0  0
 52 56  1  0  0  0  0
 53 55  2  0  0  0  0
 54 53  1  0  0  0  0
 54 52  2  0  0  0  0
 55 56  1  0  0  0  0
 55 46  1  0  0  0  0
M  END
>  <MODEL>
6

>  <REMARK>
 VINA RESULT:      -7.2      2.558      7.412
  Name = 
  17 active torsions:
  status: ('A' for Active; 'I' for Inactive)
    1  A    between atoms: C_3  and  C_8
    2  A    between atoms: C_10  and  C_33
    3  A    between atoms: C_11  and  C_14
    4  A    between atoms: C_12  and  C_16
    5  A    between atoms: C_13  and  C_55
    6  A    between atoms: C_14  and  C_33
    7  A    between atoms: C_16  and  C_17
    8  A    between atoms: C_20  and  C_42
    9  A    between atoms: C_24  and  C_26
   10  A    between atoms: C_24  and  C_55
   11  A    between atoms: C_26  and  C_27
   12  A    between atoms: C_27  and  C_52
   13  A    between atoms: N_36  and  C_40
   14  A    between atoms: N_36  and  C_44
   15  A    between atoms: C_37  and  C_48
   16  A    between atoms: C_45  and  C_55
   17  A    between atoms: C_48  and  C_53
                            x       y       z     vdW  Elec       q    Type
                         _______ _______ _______ _____ _____    ______ ____

>  <TORSDO>
F 17

$$$$
=
 OpenBabel11042413273D

 56 62  0  0  1  0  0  0  0  0999 V2000
  186.5120  178.4930  142.4490 C   0  0  2  0  0  3  0  0  0  0  0  0
  185.3360  177.8760  143.2270 C   0  0  1  0  0  3  0  0  0  0  0  0
  184.2510  178.9960  145.1560 C   0  0  0  0  0  3  0  0  0  0  0  0
  185.2710  178.2620  144.6930 C   0  0  0  0  0  3  0  0  0  0  0  0
  183.1180  179.4000  144.2570 C   0  0  1  0  0  3  0  0  0  0  0  0
  183.5560  179.2820  142.7910 C   0  0  0  0  0  2  0  0  0  0  0  0
  184.1000  178.0040  142.5420 O   0  0  0  0  0  0  0  0  0  0  0  0
  181.9770  178.5320  144.5030 N   0  0  0  0  0  2  0  0  0  0  0  0
  180.0530  177.8760  143.2670 C   0  0  0  0  0  2  0  0  0  0  0  0
  180.8830  179.0060  143.6700 C   0  0  1  0  0  3  0  0  0  0  0  0
  179.6080  178.7520  144.3590 N   0  0  0  0  0  2  0  0  0  0  0  0
  185.9440  178.3650  140.0500 C   0  0  0  0  0  3  0  0  0  0  0  0
  186.0470  179.0980  141.1580 C   0  0  0  0  0  3  0  0  0  0  0  0
  184.4470  177.2330  137.2280 C   0  0  0  0  0  0  0  0  0  0  0  0
  185.5340  178.0170  137.6850 N   0  0  0  0  0  0  0  0  0  0  0  0
  185.4610  178.9860  138.7770 C   0  0  1  0  0  3  0  0  0  0  0  0
  184.8400  176.3000  136.3600 C   0  0  0  0  0  0  0  0  0  0  0  0
  186.3330  176.3210  136.1800 C   0  0  0  0  0  2  0  0  0  0  0  0
  187.8580  177.8590  137.3080 O   0  0  0  0  0  0  0  0  0  0  0  0
  183.0200  178.3140  138.9480 C   0  0  0  0  0  2  0  0  0  0  0  0
  184.0160  179.4830  138.9360 C   0  0  0  0  0  2  0  0  0  0  0  0
  186.6870  177.4540  137.0840 C   0  0  0  0  0  0  0  0  0  0  0  0
  183.0370  177.5490  137.6220 C   0  0  0  0  0  2  0  0  0  0  0  0
  183.9420  175.3250  135.6750 C   0  0  0  0  0  2  0  0  0  0  0  0
  184.7070  174.0520  135.3230 C   0  0  0  0  0  2  0  0  0  0  0  0
  180.8870  171.4900  136.4430 C   0  0  0  0  0  1  0  0  0  0  0  0
  182.7500  172.8950  136.3890 C   0  0  0  0  0  2  0  0  0  0  0  0
  184.2380  172.8350  136.1210 C   0  0  1  0  0  0  0  0  0  0  0  0
  184.4490  171.5400  135.3500 C   0  0  2  0  0  3  0  0  0  0  0  0
  184.9130  172.8090  137.3450 O   0  0  0  0  0  1  0  0  0  0  0  0
  183.1440  170.3650  135.8130 S   0  0  0  0  0  0  0  0  0  0  0  0
  182.2920  171.5750  136.7970 N   0  0  0  0  0  0  0  0  0  0  0  0
  185.8390  170.9680  135.3940 C   0  0  0  0  0  0  0  0  0  0  0  0
  185.9690  169.7160  135.3320 O   0  0  0  0  0  0  0  0  0  0  0  0
  187.0510  171.8040  135.4940 C   0  0  0  0  0  0  0  0  0  0  0  0
  187.9170  171.6370  136.5680 O   0  0  0  0  0  1  0  0  0  0  0  0
  187.3150  172.6730  134.6200 O   0  0  0  0  0  0  0  0  0  0  0  0
  187.6180  177.4790  142.1800 C   0  0  0  0  0  2  0  0  0  0  0  0
  188.8780  177.8420  142.9480 C   0  0  0  0  0  2  0  0  0  0  0  0
  190.0980  177.2420  142.2670 C   0  0  0  0  0  2  0  0  0  0  0  0
  190.9560  176.9770  139.9810 C   0  0  0  0  0  3  0  0  0  0  0  0
  189.9160  177.1750  140.7850 C   0  0  0  0  0  3  0  0  0  0  0  0
  190.7570  176.9160  138.5040 C   0  0  0  0  0  2  0  0  0  0  0  0
  189.5200  174.7900  136.8730 C   0  0  0  0  0  1  0  0  0  0  0  0
  191.2530  172.6940  135.7400 C   0  0  0  0  0  1  0  0  0  0  0  0
  193.7730  174.8010  137.6170 C   0  0  0  0  0  0  0  0  0  0  0  0
  192.9570  175.8050  138.1560 C   0  0  0  0  0  3  0  0  0  0  0  0
  193.1930  173.7970  136.8320 C   0  0  0  0  0  3  0  0  0  0  0  0
  190.9970  174.7980  137.1270 C   0  0  0  0  0  0  0  0  0  0  0  0
  191.8170  173.7880  136.5850 C   0  0  0  0  0  0  0  0  0  0  0  0
  191.5780  175.8110  137.9200 C   0  0  0  0  0  0  0  0  0  0  0  0
  197.4910  174.8380  137.6340 N   0  0  0  0  0  0  0  0  0  0  0  0
  195.7340  174.7070  139.0570 N   0  0  0  0  0  0  0  0  0  0  0  0
  197.1430  174.7350  138.8740 C   0  0  0  0  0  2  0  0  0  0  0  0
  195.2230  174.7970  137.8750 C   0  0  0  0  0  0  0  0  0  0  0  0
  196.2810  174.8920  136.8290 C   0  0  0  0  0  3  0  0  0  0  0  0
  1 13  1  6  0  0  0
  2  1  1  6  0  0  0
  2  4  1  0  0  0  0
  4  3  2  0  0  0  0
  5  8  1  6  0  0  0
  5  3  1  0  0  0  0
  6  5  1  0  0  0  0
  7  6  1  0  0  0  0
  7  2  1  0  0  0  0
  9 10  1  0  0  0  0
  9 11  1  0  0  0  0
 10 11  1  0  0  0  0
 10  8  1  1  0  0  0
 12 13  2  0  0  0  0
 14 23  1  0  0  0  0
 14 15  1  0  0  0  0
 15 16  1  0  0  0  0
 16 21  1  0  0  0  0
 16 12  1  1  0  0  0
 17 14  2  0  0  0  0
 18 17  1  0  0  0  0
 18 22  1  0  0  0  0
 21 20  1  0  0  0  0
 22 19  2  0  0  0  0
 22 15  1  0  0  0  0
 23 20  1  0  0  0  0
 24 17  1  0  0  0  0
 25 24  1  0  0  0  0
 25 28  1  0  0  0  0
 26 32  1  0  0  0  0
 27 32  1  0  0  0  0
 28 27  1  0  0  0  0
 28 30  1  1  0  0  0
 29 33  1  1  0  0  0
 29 31  1  0  0  0  0
 29 28  1  0  0  0  0
 31 32  1  0  0  0  0
 33 35  1  0  0  0  0
 34 33  2  0  0  0  0
 35 36  1  0  0  0  0
 37 35  2  0  0  0  0
 38  1  1  0  0  0  0
 38 39  1  0  0  0  0
 40 39  1  0  0  0  0
 41 42  2  0  0  0  0
 42 40  1  0  0  0  0
 43 41  1  0  0  0  0
 44 49  1  0  0  0  0
 45 50  1  0  0  0  0
 46 55  1  0  0  0  0
 46 47  1  0  0  0  0
 48 46  2  0  0  0  0
 49 51  1  0  0  0  0
 50 48  1  0  0  0  0
 50 49  2  0  0  0  0
 51 47  2  0  0  0  0
 51 43  1  0  0  0  0
 52 54  1  0  0  0  0
 54 53  1  0  0  0  0
 55 53  2  0  0  0  0
 56 52  2  0  0  0  0
 56 55  1  0  0  0  0
M  END
>  <MODEL>
7

>  <REMARK>
 VINA RESULT:      -6.8      3.701      7.428
  Name = 
  17 active torsions:
  status: ('A' for Active; 'I' for Inactive)
    1  A    between atoms: C_3  and  C_8
    2  A    between atoms: C_10  and  C_33
    3  A    between atoms: C_11  and  C_14
    4  A    between atoms: C_12  and  C_16
    5  A    between atoms: C_13  and  C_55
    6  A    between atoms: C_14  and  C_33
    7  A    between atoms: C_16  and  C_17
    8  A    between atoms: C_20  and  C_42
    9  A    between atoms: C_24  and  C_26
   10  A    between atoms: C_24  and  C_55
   11  A    between atoms: C_26  and  C_27
   12  A    between atoms: C_27  and  C_52
   13  A    between atoms: N_36  and  C_40
   14  A    between atoms: N_36  and  C_44
   15  A    between atoms: C_37  and  C_48
   16  A    between atoms: C_45  and  C_55
   17  A    between atoms: C_48  and  C_53
                            x       y       z     vdW  Elec       q    Type
                         _______ _______ _______ _____ _____    ______ ____

>  <TORSDO>
F 17

$$$$
=
 OpenBabel11042413273D

 56 62  0  0  1  0  0  0  0  0999 V2000
  185.7470  176.0030  136.0940 C   0  0  2  0  0  3  0  0  0  0  0  0
  186.4490  175.0950  135.0680 C   0  0  1  0  0  3  0  0  0  0  0  0
  188.9150  174.8920  134.9030 C   0  0  0  0  0  3  0  0  0  0  0  0
  187.8090  175.5870  134.6100 C   0  0  0  0  0  3  0  0  0  0  0  0
  188.8340  173.5820  135.6320 C   0  0  1  0  0  3  0  0  0  0  0  0
  187.4810  173.4720  136.3460 C   0  0  0  0  0  2  0  0  0  0  0  0
  186.4270  173.7270  135.4430 O   0  0  0  0  0  0  0  0  0  0  0  0
  188.9800  172.4910  134.6800 N   0  0  0  0  0  2  0  0  0  0  0  0
  187.8570  170.3950  134.6480 C   0  0  0  0  0  2  0  0  0  0  0  0
  188.7650  171.2490  135.4050 C   0  0  1  0  0  3  0  0  0  0  0  0
  189.3020  170.1310  134.6140 N   0  0  0  0  0  2  0  0  0  0  0  0
  187.5770  176.8760  137.5030 C   0  0  0  0  0  3  0  0  0  0  0  0
  186.6610  177.0970  136.5600 C   0  0  0  0  0  3  0  0  0  0  0  0
  189.5370  177.4560  140.2070 C   0  0  0  0  0  0  0  0  0  0  0  0
  188.5330  178.0460  139.4000 N   0  0  0  0  0  0  0  0  0  0  0  0
  188.4910  177.9780  137.9410 C   0  0  1  0  0  3  0  0  0  0  0  0
  189.2230  177.5060  141.5020 C   0  0  0  0  0  0  0  0  0  0  0  0
  187.8640  178.1160  141.7090 C   0  0  0  0  0  2  0  0  0  0  0  0
  186.4070  178.9260  139.9250 O   0  0  0  0  0  0  0  0  0  0  0  0
  190.6270  176.6220  138.1380 C   0  0  0  0  0  2  0  0  0  0  0  0
  189.9070  177.7530  137.3890 C   0  0  0  0  0  2  0  0  0  0  0  0
  187.4990  178.4200  140.2940 C   0  0  0  0  0  0  0  0  0  0  0  0
  190.8230  176.9650  139.6170 C   0  0  0  0  0  2  0  0  0  0  0  0
  190.0740  176.9940  142.6160 C   0  0  0  0  0  2  0  0  0  0  0  0
  189.2030  176.4650  143.7520 C   0  0  0  0  0  2  0  0  0  0  0  0
  186.3190  178.0550  147.1530 C   0  0  0  0  0  1  0  0  0  0  0  0
  187.6800  177.7480  145.2820 C   0  0  0  0  0  2  0  0  0  0  0  0
  189.1190  177.4280  144.9360 C   0  0  1  0  0  0  0  0  0  0  0  0
  189.7030  176.8170  146.2020 C   0  0  2  0  0  3  0  0  0  0  0  0
  189.7730  178.6160  144.6000 O   0  0  0  0  0  1  0  0  0  0  0  0
  188.8070  177.4780  147.6370 S   0  0  0  0  0  0  0  0  0  0  0  0
  187.6360  178.3370  146.6130 N   0  0  0  0  0  0  0  0  0  0  0  0
  191.2010  176.8750  146.3290 C   0  0  0  0  0  0  0  0  0  0  0  0
  191.8320  177.6480  145.5610 O   0  0  0  0  0  0  0  0  0  0  0  0
  191.9560  176.0790  147.3160 C   0  0  0  0  0  0  0  0  0  0  0  0
  192.5280  174.8710  146.9350 O   0  0  0  0  0  0  0  0  0  0  0  0
  192.0900  176.4770  148.5050 O   0  0  0  0  0  1  0  0  0  0  0  0
  185.2210  175.2180  137.2900 C   0  0  0  0  0  2  0  0  0  0  0  0
  183.7490  174.8880  137.1100 C   0  0  0  0  0  2  0  0  0  0  0  0
  183.0530  174.8360  138.4610 C   0  0  0  0  0  2  0  0  0  0  0  0
  181.4250  176.6700  138.6000 C   0  0  0  0  0  3  0  0  0  0  0  0
  181.6640  175.3800  138.3790 C   0  0  0  0  0  3  0  0  0  0  0  0
  180.0320  177.1950  138.5170 C   0  0  0  0  0  2  0  0  0  0  0  0
  179.4940  177.7450  141.3670 C   0  0  0  0  0  1  0  0  0  0  0  0
  179.4620  180.5450  142.2810 C   0  0  0  0  0  1  0  0  0  0  0  0
  180.1760  180.9810  138.5920 C   0  0  0  0  0  0  0  0  0  0  0  0
  180.1990  179.6510  138.1480 C   0  0  0  0  0  3  0  0  0  0  0  0
  179.9340  181.2460  139.9440 C   0  0  0  0  0  3  0  0  0  0  0  0
  179.7370  178.8670  140.4030 C   0  0  0  0  0  0  0  0  0  0  0  0
  179.7140  180.2030  140.8490 C   0  0  0  0  0  0  0  0  0  0  0  0
  179.9790  178.5960  139.0400 C   0  0  0  0  0  0  0  0  0  0  0  0
  180.9050  183.3170  135.7920 N   0  0  0  0  0  0  0  0  0  0  0  0
  180.2260  183.3300  137.9530 N   0  0  0  0  0  0  0  0  0  0  0  0
  180.5480  184.0680  136.7810 C   0  0  0  0  0  2  0  0  0  0  0  0
  180.4010  182.0880  137.6460 C   0  0  0  0  0  0  0  0  0  0  0  0
  180.8530  181.9320  136.2340 C   0  0  0  0  0  3  0  0  0  0  0  0
  1 13  1  1  0  0  0
  1 38  1  0  0  0  0
  2  7  1  0  0  0  0
  2  1  1  1  0  0  0
  3  5  1  0  0  0  0
  4  3  2  0  0  0  0
  4  2  1  0  0  0  0
  5  8  1  6  0  0  0
  5  6  1  0  0  0  0
  7  6  1  0  0  0  0
  9 10  1  0  0  0  0
 10  8  1  6  0  0  0
 11  9  1  0  0  0  0
 11 10  1  0  0  0  0
 13 12  2  0  0  0  0
 14 17  2  0  0  0  0
 15 14  1  0  0  0  0
 15 22  1  0  0  0  0
 16 12  1  1  0  0  0
 16 15  1  0  0  0  0
 17 18  1  0  0  0  0
 17 24  1  0  0  0  0
 19 22  2  0  0  0  0
 20 23  1  0  0  0  0
 21 16  1  0  0  0  0
 21 20  1  0  0  0  0
 22 18  1  0  0  0  0
 23 14  1  0  0  0  0
 24 25  1  0  0  0  0
 25 28  1  0  0  0  0
 27 32  1  0  0  0  0
 28 30  1  6  0  0  0
 28 27  1  0  0  0  0
 28 29  1  0  0  0  0
 29 33  1  1  0  0  0
 29 31  1  0  0  0  0
 32 26  1  0  0  0  0
 32 31  1  0  0  0  0
 33 35  1  0  0  0  0
 34 33  2  0  0  0  0
 35 37  1  0  0  0  0
 36 35  2  0  0  0  0
 39 38  1  0  0  0  0
 39 40  1  0  0  0  0
 42 40  1  0  0  0  0
 42 41  2  0  0  0  0
 43 41  1  0  0  0  0
 43 51  1  0  0  0  0
 46 48  1  0  0  0  0
 47 46  2  0  0  0  0
 47 51  1  0  0  0  0
 48 50  2  0  0  0  0
 49 50  1  0  0  0  0
 49 44  1  0  0  0  0
 50 45  1  0  0  0  0
 51 49  2  0  0  0  0
 52 56  2  0  0  0  0
 52 54  1  0  0  0  0
 54 53  1  0  0  0  0
 55 53  2  0  0  0  0
 55 46  1  0  0  0  0
 56 55  1  0  0  0  0
M  END
>  <MODEL>
8

>  <REMARK>
 VINA RESULT:      -6.7      4.200      9.636
  Name = 
  17 active torsions:
  status: ('A' for Active; 'I' for Inactive)
    1  A    between atoms: C_3  and  C_8
    2  A    between atoms: C_10  and  C_33
    3  A    between atoms: C_11  and  C_14
    4  A    between atoms: C_12  and  C_16
    5  A    between atoms: C_13  and  C_55
    6  A    between atoms: C_14  and  C_33
    7  A    between atoms: C_16  and  C_17
    8  A    between atoms: C_20  and  C_42
    9  A    between atoms: C_24  and  C_26
   10  A    between atoms: C_24  and  C_55
   11  A    between atoms: C_26  and  C_27
   12  A    between atoms: C_27  and  C_52
   13  A    between atoms: N_36  and  C_40
   14  A    between atoms: N_36  and  C_44
   15  A    between atoms: C_37  and  C_48
   16  A    between atoms: C_45  and  C_55
   17  A    between atoms: C_48  and  C_53
                            x       y       z     vdW  Elec       q    Type
                         _______ _______ _______ _____ _____    ______ ____

>  <TORSDO>
F 17

$$$$
=
 OpenBabel11042413273D

 56 62  0  0  1  0  0  0  0  0999 V2000
  189.4550  177.9200  140.5120 C   0  0  2  0  0  3  0  0  0  0  0  0
  188.7450  178.1430  141.8600 C   0  0  1  0  0  3  0  0  0  0  0  0
  188.7600  176.4710  143.6910 C   0  0  0  0  0  3  0  0  0  0  0  0
  188.2380  176.8780  142.5280 C   0  0  0  0  0  3  0  0  0  0  0  0
  189.8090  177.2830  144.3950 C   0  0  1  0  0  3  0  0  0  0  0  0
  190.4600  178.2550  143.4030 C   0  0  0  0  0  2  0  0  0  0  0  0
  189.4720  179.0000  142.7260 O   0  0  0  0  0  0  0  0  0  0  0  0
  189.1920  178.0260  145.4830 N   0  0  0  0  0  2  0  0  0  0  0  0
  189.3000  177.8100  147.8490 C   0  0  0  0  0  2  0  0  0  0  0  0
  189.0300  177.1080  146.5990 C   0  0  1  0  0  3  0  0  0  0  0  0
  187.9110  177.5650  147.4380 N   0  0  0  0  0  2  0  0  0  0  0  0
  187.6410  177.9370  138.8380 C   0  0  0  0  0  3  0  0  0  0  0  0
  188.6880  178.5510  139.3880 C   0  0  0  0  0  3  0  0  0  0  0  0
  185.6390  176.8660  136.3220 C   0  0  0  0  0  0  0  0  0  0  0  0
  186.7640  177.6830  136.5920 N   0  0  0  0  0  0  0  0  0  0  0  0
  186.8790  178.5930  137.7290 C   0  0  1  0  0  3  0  0  0  0  0  0
  185.8810  175.9980  135.3400 C   0  0  0  0  0  0  0  0  0  0  0  0
  187.3030  176.1040  134.8590 C   0  0  0  0  0  2  0  0  0  0  0  0
  188.9640  177.6630  135.7380 O   0  0  0  0  0  0  0  0  0  0  0  0
  184.5560  177.7880  138.3580 C   0  0  0  0  0  2  0  0  0  0  0  0
  185.4790  179.0060  138.2090 C   0  0  0  0  0  2  0  0  0  0  0  0
  187.7890  177.2100  135.7350 C   0  0  0  0  0  0  0  0  0  0  0  0
  184.3290  177.0890  137.0140 C   0  0  0  0  0  2  0  0  0  0  0  0
  184.9010  175.0120  134.7970 C   0  0  0  0  0  2  0  0  0  0  0  0
  184.4380  174.0600  135.8980 C   0  0  0  0  0  2  0  0  0  0  0  0
  182.4560  169.9170  134.7510 C   0  0  0  0  0  1  0  0  0  0  0  0
  183.3090  172.0890  134.8300 C   0  0  0  0  0  2  0  0  0  0  0  0
  183.1030  173.3870  135.5810 C   0  0  1  0  0  0  0  0  0  0  0  0
  182.3540  172.9970  136.8460 C   0  0  2  0  0  3  0  0  0  0  0  0
  182.3400  174.2470  134.7870 O   0  0  0  0  0  1  0  0  0  0  0  0
  181.3840  171.4990  136.5130 S   0  0  0  0  0  0  0  0  0  0  0  0
  182.0780  171.3120  134.8890 N   0  0  0  0  0  0  0  0  0  0  0  0
  181.5790  174.0980  137.5170 C   0  0  0  0  0  0  0  0  0  0  0  0
  182.2100  174.9120  138.2420 O   0  0  0  0  0  0  0  0  0  0  0  0
  180.1230  174.2720  137.3540 C   0  0  0  0  0  0  0  0  0  0  0  0
  179.2480  173.5350  138.1430 O   0  0  0  0  0  1  0  0  0  0  0  0
  179.6560  175.0790  136.5050 O   0  0  0  0  0  0  0  0  0  0  0  0
  189.6850  176.4410  140.2210 C   0  0  0  0  0  2  0  0  0  0  0  0
  190.7030  176.2650  139.1070 C   0  0  0  0  0  2  0  0  0  0  0  0
  190.0970  175.4640  137.9660 C   0  0  0  0  0  2  0  0  0  0  0  0
  192.0000  175.6080  136.4190 C   0  0  0  0  0  3  0  0  0  0  0  0
  191.1570  174.8470  137.1120 C   0  0  0  0  0  3  0  0  0  0  0  0
  193.0500  174.9770  135.5700 C   0  0  0  0  0  2  0  0  0  0  0  0
  192.9540  172.0400  135.2960 C   0  0  0  0  0  1  0  0  0  0  0  0
  194.7550  170.4090  136.9620 C   0  0  0  0  0  1  0  0  0  0  0  0
  195.6470  173.9010  138.1100 C   0  0  0  0  0  0  0  0  0  0  0  0
  194.7980  174.6850  137.3180 C   0  0  0  0  0  3  0  0  0  0  0  0
  195.6140  172.5080  137.9760 C   0  0  0  0  0  3  0  0  0  0  0  0
  193.8920  172.6870  136.2680 C   0  0  0  0  0  0  0  0  0  0  0  0
  194.7460  171.8980  137.0650 C   0  0  0  0  0  0  0  0  0  0  0  0
  193.9220  174.0920  136.4030 C   0  0  0  0  0  0  0  0  0  0  0  0
  198.4040  175.3950  140.1080 N   0  0  0  0  0  0  0  0  0  0  0  0
  196.1860  174.9560  140.2380 N   0  0  0  0  0  0  0  0  0  0  0  0
  197.3520  175.4860  140.8530 C   0  0  0  0  0  2  0  0  0  0  0  0
  196.5610  174.5320  139.0770 C   0  0  0  0  0  0  0  0  0  0  0  0
  198.0180  174.7610  138.8580 C   0  0  0  0  0  3  0  0  0  0  0  0
  1 13  1  6  0  0  0
  2  1  1  6  0  0  0
  2  4  1  0  0  0  0
  2  7  1  0  0  0  0
  3  5  1  0  0  0  0
  4  3  2  0  0  0  0
  5  8  1  1  0  0  0
  6  5  1  0  0  0  0
  7  6  1  0  0  0  0
 10  8  1  6  0  0  0
 10 11  1  0  0  0  0
 10  9  1  0  0  0  0
 11  9  1  0  0  0  0
 12 13  2  0  0  0  0
 14 15  1  0  0  0  0
 14 23  1  0  0  0  0
 15 16  1  0  0  0  0
 16 21  1  0  0  0  0
 16 12  1  1  0  0  0
 17 14  2  0  0  0  0
 18 17  1  0  0  0  0
 18 22  1  0  0  0  0
 21 20  1  0  0  0  0
 22 19  2  0  0  0  0
 22 15  1  0  0  0  0
 23 20  1  0  0  0  0
 24 17  1  0  0  0  0
 24 25  1  0  0  0  0
 26 32  1  0  0  0  0
 27 32  1  0  0  0  0
 27 28  1  0  0  0  0
 28 30  1  6  0  0  0
 28 25  1  0  0  0  0
 28 29  1  0  0  0  0
 29 33  1  6  0  0  0
 31 29  1  0  0  0  0
 32 31  1  0  0  0  0
 33 34  2  0  0  0  0
 35 33  1  0  0  0  0
 35 36  1  0  0  0  0
 37 35  2  0  0  0  0
 38  1  1  0  0  0  0
 39 38  1  0  0  0  0
 40 39  1  0  0  0  0
 41 42  2  0  0  0  0
 42 40  1  0  0  0  0
 43 51  1  0  0  0  0
 43 41  1  0  0  0  0
 44 49  1  0  0  0  0
 45 50  1  0  0  0  0
 46 55  1  0  0  0  0
 47 46  2  0  0  0  0
 48 46  1  0  0  0  0
 49 51  2  0  0  0  0
 49 50  1  0  0  0  0
 50 48  2  0  0  0  0
 51 47  1  0  0  0  0
 52 54  1  0  0  0  0
 53 54  1  0  0  0  0
 55 53  2  0  0  0  0
 56 55  1  0  0  0  0
 56 52  2  0  0  0  0
M  END
>  <MODEL>
9

>  <REMARK>
 VINA RESULT:      -6.7      3.761      9.698
  Name = 
  17 active torsions:
  status: ('A' for Active; 'I' for Inactive)
    1  A    between atoms: C_3  and  C_8
    2  A    between atoms: C_10  and  C_33
    3  A    between atoms: C_11  and  C_14
    4  A    between atoms: C_12  and  C_16
    5  A    between atoms: C_13  and  C_55
    6  A    between atoms: C_14  and  C_33
    7  A    between atoms: C_16  and  C_17
    8  A    between atoms: C_20  and  C_42
    9  A    between atoms: C_24  and  C_26
   10  A    between atoms: C_24  and  C_55
   11  A    between atoms: C_26  and  C_27
   12  A    between atoms: C_27  and  C_52
   13  A    between atoms: N_36  and  C_40
   14  A    between atoms: N_36  and  C_44
   15  A    between atoms: C_37  and  C_48
   16  A    between atoms: C_45  and  C_55
   17  A    between atoms: C_48  and  C_53
                            x       y       z     vdW  Elec       q    Type
                         _______ _______ _______ _____ _____    ______ ____

>  <TORSDO>
F 17

$$$$
