=
 OpenBabel11042409573D

 38 44  0  0  1  0  0  0  0  0999 V2000
  179.1360  180.0520  138.6960 C   0  0  0  0  0  1  0  0  0  0  0  0
  182.7890  178.6040  141.6610 C   0  0  1  0  0  3  0  0  0  0  0  0
  182.6100  177.5360  140.5730 C   0  0  0  0  0  2  0  0  0  0  0  0
  180.3550  178.5550  140.2350 C   0  0  0  0  0  0  0  0  0  0  0  0
  180.9810  177.3220  138.4680 C   0  0  0  0  0  0  0  0  0  0  0  0
  179.8200  177.7910  138.1220 N   0  0  0  0  0  0  0  0  0  0  0  0
  179.2890  178.6290  139.1940 C   0  0  2  0  0  3  0  0  0  0  0  0
  180.3690  179.2870  141.5460 C   0  0  0  0  0  2  0  0  0  0  0  0
  181.4950  178.7850  142.4610 C   0  0  0  0  0  2  0  0  0  0  0  0
  181.3550  177.8080  139.7900 C   0  0  0  0  0  0  0  0  0  0  0  0
  182.0930  175.2110  138.0410 C   0  0  0  0  0  3  0  0  0  0  0  0
  185.0230  175.6530  137.0200 C   0  0  0  0  0  0  0  0  0  0  0  0
  184.5830  176.7000  136.3080 C   0  0  0  0  0  0  0  0  0  0  0  0
  182.0580  176.8150  136.2030 C   0  0  0  0  0  3  0  0  0  0  0  0
  182.8580  174.2510  137.1990 C   0  0  0  0  0  2  0  0  0  0  0  0
  183.2740  176.8950  135.6490 C   0  0  0  0  0  3  0  0  0  0  0  0
  184.2790  174.4820  137.3830 N   0  0  0  0  0  2  0  0  0  0  0  0
  186.7390  175.7640  137.5100 S   0  0  0  0  0  0  0  0  0  0  0  0
  185.6330  177.7340  136.0800 C   0  0  0  0  0  2  0  0  0  0  0  0
  181.7660  176.4250  137.5970 C   0  0  0  0  0  0  0  0  0  0  0  0
  186.6670  177.5470  137.1780 C   0  0  0  0  0  2  0  0  0  0  0  0
  185.9990  177.8460  144.3650 C   0  0  2  0  0  3  0  0  0  0  0  0
  185.3500  178.0990  141.8890 C   0  0  1  0  0  3  0  0  0  0  0  0
  185.8930  179.3290  141.1770 C   0  0  0  0  0  1  0  0  0  0  0  0
  184.0900  179.3890  143.7220 C   0  0  0  0  0  2  0  0  0  0  0  0
  186.3980  177.6010  142.9000 C   0  0  0  0  0  2  0  0  0  0  0  0
  185.3740  179.2310  144.5490 C   0  0  0  0  0  2  0  0  0  0  0  0
  183.9950  178.3700  142.5770 C   0  0  1  0  0  3  0  0  0  0  0  0
  191.7720  176.5410  146.1950 C   0  0  0  0  0  3  0  0  0  0  0  0
  189.2640  177.3080  147.1060 C   0  0  0  0  0  0  0  0  0  0  0  0
  186.9490  177.8610  146.6690 C   0  0  0  0  0  3  0  0  0  0  0  0
  191.5390  176.7910  147.5520 C   0  0  0  0  0  3  0  0  0  0  0  0
  189.4620  177.0680  145.7290 C   0  0  0  0  0  0  0  0  0  0  0  0
  190.7250  176.6830  145.2790 C   0  0  0  0  0  3  0  0  0  0  0  0
  187.1420  177.6280  145.3010 C   0  0  0  0  0  0  0  0  0  0  0  0
  188.0070  177.7020  147.5700 C   0  0  0  0  0  3  0  0  0  0  0  0
  188.4040  177.2310  144.8320 C   0  0  0  0  0  3  0  0  0  0  0  0
  190.3010  177.1660  147.9760 N   0  0  0  0  0  0  0  0  0  0  0  0
  2  3  1  6  0  0  0
  2  9  1  0  0  0  0
  2 28  1  0  0  0  0
  4  8  1  0  0  0  0
  5 10  1  0  0  0  0
  6  5  2  0  0  0  0
  6  7  1  0  0  0  0
  7  1  1  6  0  0  0
  7  4  1  0  0  0  0
  8  9  1  0  0  0  0
 10  4  2  0  0  0  0
 10  3  1  0  0  0  0
 12 17  1  0  0  0  0
 12 18  1  0  0  0  0
 13 12  2  0  0  0  0
 14 20  1  0  0  0  0
 15 17  1  0  0  0  0
 15 11  1  0  0  0  0
 16 14  2  0  0  0  0
 16 13  1  0  0  0  0
 19 13  1  0  0  0  0
 19 21  1  0  0  0  0
 20 11  2  0  0  0  0
 20  5  1  0  0  0  0
 21 18  1  0  0  0  0
 22 27  1  0  0  0  0
 22 35  1  1  0  0  0
 23 24  1  1  0  0  0
 23 28  1  0  0  0  0
 23 26  1  0  0  0  0
 25 27  1  0  0  0  0
 26 22  1  0  0  0  0
 28 25  1  6  0  0  0
 29 32  1  0  0  0  0
 30 36  1  0  0  0  0
 30 38  1  0  0  0  0
 31 36  2  0  0  0  0
 32 38  2  0  0  0  0
 33 30  2  0  0  0  0
 34 33  1  0  0  0  0
 34 29  2  0  0  0  0
 35 31  1  0  0  0  0
 37 35  2  0  0  0  0
 37 33  1  0  0  0  0
M  END
>  <MODEL>
1

>  <REMARK>
 VINA RESULT:     -10.2      0.000      0.000
  Name = 
  3 active torsions:
  status: ('A' for Active; 'I' for Inactive)
    1  A    between atoms: C_2  and  C_36
    2  A    between atoms: C_8  and  C_23
    3  A    between atoms: C_18  and  C_37
                            x       y       z     vdW  Elec       q    Type
                         _______ _______ _______ _____ _____    ______ ____

>  <TORSDO>
F 3

$$$$
=
 OpenBabel11042409573D

 38 44  0  0  1  0  0  0  0  0999 V2000
  186.2680  179.0040  145.9850 C   0  0  0  0  0  1  0  0  0  0  0  0
  188.7050  177.3850  142.0260 C   0  0  1  0  0  3  0  0  0  0  0  0
  187.2180  177.4930  141.6560 C   0  0  0  0  0  2  0  0  0  0  0  0
  186.8180  177.4800  144.1220 C   0  0  0  0  0  0  0  0  0  0  0  0
  185.0520  178.2880  142.9990 C   0  0  0  0  0  0  0  0  0  0  0  0
  184.6920  178.3740  144.2440 N   0  0  0  0  0  0  0  0  0  0  0  0
  185.7660  177.8790  145.1020 C   0  0  2  0  0  3  0  0  0  0  0  0
  188.1860  176.9550  144.4510 C   0  0  0  0  0  2  0  0  0  0  0  0
  188.9030  176.4240  143.2020 C   0  0  0  0  0  2  0  0  0  0  0  0
  186.4010  177.7480  142.8930 C   0  0  0  0  0  0  0  0  0  0  0  0
  182.8480  178.5910  142.0350 C   0  0  0  0  0  3  0  0  0  0  0  0
  182.6610  177.2930  139.1890 C   0  0  0  0  0  0  0  0  0  0  0  0
  183.9110  177.7140  138.9500 C   0  0  0  0  0  0  0  0  0  0  0  0
  184.7370  179.3500  140.6930 C   0  0  0  0  0  3  0  0  0  0  0  0
  181.9060  179.0140  140.9640 C   0  0  0  0  0  2  0  0  0  0  0  0
  184.5890  178.9370  139.4290 C   0  0  0  0  0  3  0  0  0  0  0  0
  181.6930  177.9070  140.0500 N   0  0  0  0  0  2  0  0  0  0  0  0
  182.1920  175.8250  138.2810 S   0  0  0  0  0  0  0  0  0  0  0  0
  184.6390  176.8570  137.9690 C   0  0  0  0  0  2  0  0  0  0  0  0
  184.1690  178.6980  141.8890 C   0  0  0  0  0  0  0  0  0  0  0  0
  183.9540  175.5010  137.9910 C   0  0  0  0  0  2  0  0  0  0  0  0
  191.3340  176.2310  138.8720 C   0  0  2  0  0  3  0  0  0  0  0  0
  189.0760  177.3280  139.4330 C   0  0  1  0  0  3  0  0  0  0  0  0
  188.9680  178.8200  139.1510 C   0  0  0  0  0  1  0  0  0  0  0  0
  191.0680  177.5090  141.0490 C   0  0  0  0  0  2  0  0  0  0  0  0
  189.9560  176.6760  138.3520 C   0  0  0  0  0  2  0  0  0  0  0  0
  191.9420  177.2790  139.8070 C   0  0  0  0  0  2  0  0  0  0  0  0
  189.6210  177.0380  140.8480 C   0  0  1  0  0  3  0  0  0  0  0  0
  196.4910  174.1880  136.1140 C   0  0  0  0  0  3  0  0  0  0  0  0
  193.9380  175.1630  135.6250 C   0  0  0  0  0  0  0  0  0  0  0  0
  191.8190  176.0030  136.4380 C   0  0  0  0  0  3  0  0  0  0  0  0
  196.0030  174.3200  134.8090 C   0  0  0  0  0  3  0  0  0  0  0  0
  194.3940  175.0410  136.9550 C   0  0  0  0  0  0  0  0  0  0  0  0
  195.6780  174.5490  137.1930 C   0  0  0  0  0  3  0  0  0  0  0  0
  192.2660  175.8780  137.7590 C   0  0  0  0  0  0  0  0  0  0  0  0
  192.6520  175.6460  135.3730 C   0  0  0  0  0  3  0  0  0  0  0  0
  193.5580  175.3940  138.0170 C   0  0  0  0  0  3  0  0  0  0  0  0
  194.7470  174.8000  134.5940 N   0  0  0  0  0  0  0  0  0  0  0  0
  2  3  1  6  0  0  0
  2  9  1  0  0  0  0
  3 10  1  0  0  0  0
  4  8  1  0  0  0  0
  4  7  1  0  0  0  0
  5  6  2  0  0  0  0
  6  7  1  0  0  0  0
  7  1  1  1  0  0  0
  9  8  1  0  0  0  0
 10  5  1  0  0  0  0
 10  4  2  0  0  0  0
 12 17  1  0  0  0  0
 13 12  2  0  0  0  0
 13 16  1  0  0  0  0
 14 20  1  0  0  0  0
 15 11  1  0  0  0  0
 16 14  2  0  0  0  0
 17 15  1  0  0  0  0
 18 12  1  0  0  0  0
 19 21  1  0  0  0  0
 19 13  1  0  0  0  0
 20 11  2  0  0  0  0
 20  5  1  0  0  0  0
 21 18  1  0  0  0  0
 22 35  1  6  0  0  0
 22 27  1  0  0  0  0
 23 24  1  6  0  0  0
 23 28  1  0  0  0  0
 26 22  1  0  0  0  0
 26 23  1  0  0  0  0
 27 25  1  0  0  0  0
 28 25  1  1  0  0  0
 28  2  1  0  0  0  0
 29 34  1  0  0  0  0
 30 33  1  0  0  0  0
 31 35  1  0  0  0  0
 32 29  2  0  0  0  0
 33 34  2  0  0  0  0
 33 37  1  0  0  0  0
 35 37  2  0  0  0  0
 36 30  1  0  0  0  0
 36 31  2  0  0  0  0
 38 32  1  0  0  0  0
 38 30  2  0  0  0  0
M  END
>  <MODEL>
2

>  <REMARK>
 VINA RESULT:      -8.7      4.986      8.029
  Name = 
  3 active torsions:
  status: ('A' for Active; 'I' for Inactive)
    1  A    between atoms: C_2  and  C_36
    2  A    between atoms: C_8  and  C_23
    3  A    between atoms: C_18  and  C_37
                            x       y       z     vdW  Elec       q    Type
                         _______ _______ _______ _____ _____    ______ ____

>  <TORSDO>
F 3

$$$$
=
 OpenBabel11042409573D

 38 44  0  0  1  0  0  0  0  0999 V2000
  180.1280  180.8260  135.9920 C   0  0  0  0  0  1  0  0  0  0  0  0
  182.3630  179.3670  140.1280 C   0  0  1  0  0  3  0  0  0  0  0  0
  182.5240  178.2530  139.0840 C   0  0  0  0  0  2  0  0  0  0  0  0
  180.6120  179.3560  137.9160 C   0  0  0  0  0  0  0  0  0  0  0  0
  181.7570  178.0060  136.5380 C   0  0  0  0  0  0  0  0  0  0  0  0
  180.8310  178.5090  135.7780 N   0  0  0  0  0  0  0  0  0  0  0  0
  180.0010  179.4250  136.5560 C   0  0  2  0  0  3  0  0  0  0  0  0
  180.1960  180.1540  139.1180 C   0  0  0  0  0  2  0  0  0  0  0  0
  180.8820  179.6500  140.3950 C   0  0  0  0  0  2  0  0  0  0  0  0
  181.6570  178.5420  137.8890 C   0  0  0  0  0  0  0  0  0  0  0  0
  182.9000  175.8740  136.6890 C   0  0  0  0  0  3  0  0  0  0  0  0
  186.0100  176.2360  136.5490 C   0  0  0  0  0  0  0  0  0  0  0  0
  185.8250  177.1950  135.6320 C   0  0  0  0  0  0  0  0  0  0  0  0
  183.4490  177.2690  134.7660 C   0  0  0  0  0  3  0  0  0  0  0  0
  183.8600  174.8370  136.2220 C   0  0  0  0  0  2  0  0  0  0  0  0
  184.7760  177.3030  134.5950 C   0  0  0  0  0  3  0  0  0  0  0  0
  185.1670  175.1030  136.7960 N   0  0  0  0  0  2  0  0  0  0  0  0
  187.5040  176.4190  137.5150 S   0  0  0  0  0  0  0  0  0  0  0  0
  186.9170  178.2110  135.6190 C   0  0  0  0  0  2  0  0  0  0  0  0
  182.7460  177.0290  136.0410 C   0  0  0  0  0  0  0  0  0  0  0  0
  187.5720  178.1550  136.9890 C   0  0  0  0  0  2  0  0  0  0  0  0
  184.7070  178.8140  143.6480 C   0  0  2  0  0  3  0  0  0  0  0  0
  182.3220  179.1320  142.7370 C   0  0  1  0  0  3  0  0  0  0  0  0
  181.3980  177.9280  142.8470 C   0  0  0  0  0  1  0  0  0  0  0  0
  184.1250  177.9530  141.3330 C   0  0  0  0  0  2  0  0  0  0  0  0
  183.2450  179.1690  143.9690 C   0  0  0  0  0  2  0  0  0  0  0  0
  184.7950  177.6340  142.6780 C   0  0  0  0  0  2  0  0  0  0  0  0
  183.1390  179.1260  141.4270 C   0  0  1  0  0  3  0  0  0  0  0  0
  189.5520  177.1510  147.1310 C   0  0  0  0  0  3  0  0  0  0  0  0
  186.9890  178.2120  147.2390 C   0  0  0  0  0  0  0  0  0  0  0  0
  184.9650  178.9320  146.1250 C   0  0  0  0  0  3  0  0  0  0  0  0
  188.9760  177.5300  148.3480 C   0  0  0  0  0  3  0  0  0  0  0  0
  187.5380  177.8430  145.9920 C   0  0  0  0  0  0  0  0  0  0  0  0
  188.8280  177.3110  145.9470 C   0  0  0  0  0  3  0  0  0  0  0  0
  185.5090  178.5720  144.8850 C   0  0  0  0  0  0  0  0  0  0  0  0
  185.7020  178.7530  147.2990 C   0  0  0  0  0  3  0  0  0  0  0  0
  186.8010  178.0270  144.8210 C   0  0  0  0  0  3  0  0  0  0  0  0
  187.7170  178.0490  148.3770 N   0  0  0  0  0  0  0  0  0  0  0  0
  2  3  1  6  0  0  0
  2  9  1  0  0  0  0
  2 28  1  0  0  0  0
  4  8  1  0  0  0  0
  5 10  1  0  0  0  0
  6  5  2  0  0  0  0
  6  7  1  0  0  0  0
  7  1  1  6  0  0  0
  7  4  1  0  0  0  0
  8  9  1  0  0  0  0
 10  4  2  0  0  0  0
 10  3  1  0  0  0  0
 12 17  1  0  0  0  0
 12 18  1  0  0  0  0
 13 12  2  0  0  0  0
 14 20  1  0  0  0  0
 15 11  1  0  0  0  0
 15 17  1  0  0  0  0
 16 14  2  0  0  0  0
 16 13  1  0  0  0  0
 19 13  1  0  0  0  0
 19 21  1  0  0  0  0
 20  5  1  0  0  0  0
 20 11  2  0  0  0  0
 21 18  1  0  0  0  0
 22 26  1  0  0  0  0
 22 35  1  1  0  0  0
 23 24  1  1  0  0  0
 23 26  1  0  0  0  0
 25 27  1  0  0  0  0
 27 22  1  0  0  0  0
 28 25  1  6  0  0  0
 28 23  1  0  0  0  0
 29 32  1  0  0  0  0
 30 36  1  0  0  0  0
 30 38  1  0  0  0  0
 31 36  2  0  0  0  0
 32 38  2  0  0  0  0
 33 30  2  0  0  0  0
 34 33  1  0  0  0  0
 34 29  2  0  0  0  0
 35 31  1  0  0  0  0
 37 35  2  0  0  0  0
 37 33  1  0  0  0  0
M  END
>  <MODEL>
3

>  <REMARK>
 VINA RESULT:      -8.6      1.441      2.339
  Name = 
  3 active torsions:
  status: ('A' for Active; 'I' for Inactive)
    1  A    between atoms: C_2  and  C_36
    2  A    between atoms: C_8  and  C_23
    3  A    between atoms: C_18  and  C_37
                            x       y       z     vdW  Elec       q    Type
                         _______ _______ _______ _____ _____    ______ ____

>  <TORSDO>
F 3

$$$$
=
 OpenBabel11042409573D

 38 44  0  0  1  0  0  0  0  0999 V2000
  188.4810  178.6390  148.7230 C   0  0  0  0  0  1  0  0  0  0  0  0
  189.4570  177.4640  144.0430 C   0  0  1  0  0  3  0  0  0  0  0  0
  187.9380  177.6450  144.1800 C   0  0  0  0  0  2  0  0  0  0  0  0
  188.3320  177.3420  146.6280 C   0  0  0  0  0  0  0  0  0  0  0  0
  186.3510  178.3130  146.2210 C   0  0  0  0  0  0  0  0  0  0  0  0
  186.4050  178.2550  147.5170 N   0  0  0  0  0  0  0  0  0  0  0  0
  187.6650  177.6390  147.9290 C   0  0  2  0  0  3  0  0  0  0  0  0
  189.7020  176.7540  146.4460 C   0  0  0  0  0  2  0  0  0  0  0  0
  189.9590  176.3650  144.9840 C   0  0  0  0  0  2  0  0  0  0  0  0
  187.5650  177.7640  145.6320 C   0  0  0  0  0  0  0  0  0  0  0  0
  184.0050  178.2690  145.6110 C   0  0  0  0  0  3  0  0  0  0  0  0
  183.6300  178.4870  142.5070 C   0  0  0  0  0  0  0  0  0  0  0  0
  184.6420  179.3650  142.4780 C   0  0  0  0  0  0  0  0  0  0  0  0
  185.3090  180.1580  144.7860 C   0  0  0  0  0  3  0  0  0  0  0  0
  182.7910  178.8000  144.9330 C   0  0  0  0  0  2  0  0  0  0  0  0
  185.0360  180.3660  143.4930 C   0  0  0  0  0  3  0  0  0  0  0  0
  182.7180  178.2550  143.5890 N   0  0  0  0  0  2  0  0  0  0  0  0
  183.4170  177.5590  140.9930 S   0  0  0  0  0  0  0  0  0  0  0  0
  185.3720  179.3740  141.1780 C   0  0  0  0  0  2  0  0  0  0  0  0
  185.1900  178.8720  145.5000 C   0  0  0  0  0  0  0  0  0  0  0  0
  185.1080  178.0260  140.5270 C   0  0  0  0  0  2  0  0  0  0  0  0
  190.9060  176.6580  140.1140 C   0  0  2  0  0  3  0  0  0  0  0  0
  188.9550  177.6340  141.4780 C   0  0  1  0  0  3  0  0  0  0  0  0
  188.7570  179.1390  141.3790 C   0  0  0  0  0  1  0  0  0  0  0  0
  191.3670  177.7420  142.3620 C   0  0  0  0  0  2  0  0  0  0  0  0
  189.4330  177.1010  140.1150 C   0  0  0  0  0  2  0  0  0  0  0  0
  191.7860  177.6430  140.8870 C   0  0  0  0  0  2  0  0  0  0  0  0
  189.9360  177.2440  142.6050 C   0  0  1  0  0  3  0  0  0  0  0  0
  194.8940  175.0620  135.6500 C   0  0  0  0  0  3  0  0  0  0  0  0
  192.3020  175.9410  136.1140 C   0  0  0  0  0  0  0  0  0  0  0  0
  190.5560  176.6180  137.6460 C   0  0  0  0  0  3  0  0  0  0  0  0
  193.9960  175.2580  134.5960 C   0  0  0  0  0  3  0  0  0  0  0  0
  193.1780  175.7510  137.2040 C   0  0  0  0  0  0  0  0  0  0  0  0
  194.4800  175.3090  136.9620 C   0  0  0  0  0  3  0  0  0  0  0  0
  191.4210  176.4260  138.7310 C   0  0  0  0  0  0  0  0  0  0  0  0
  190.9940  176.3760  136.3410 C   0  0  0  0  0  3  0  0  0  0  0  0
  192.7370  175.9900  138.5070 C   0  0  0  0  0  3  0  0  0  0  0  0
  192.7290  175.6890  134.8470 N   0  0  0  0  0  0  0  0  0  0  0  0
  2  3  1  6  0  0  0
  2  9  1  0  0  0  0
  3 10  1  0  0  0  0
  4  7  1  0  0  0  0
  5  6  2  0  0  0  0
  6  7  1  0  0  0  0
  7  1  1  1  0  0  0
  8  4  1  0  0  0  0
  9  8  1  0  0  0  0
 10  5  1  0  0  0  0
 10  4  2  0  0  0  0
 12 17  1  0  0  0  0
 13 12  2  0  0  0  0
 13 16  1  0  0  0  0
 14 20  1  0  0  0  0
 15 11  1  0  0  0  0
 16 14  2  0  0  0  0
 17 15  1  0  0  0  0
 18 12  1  0  0  0  0
 19 13  1  0  0  0  0
 20 11  2  0  0  0  0
 20  5  1  0  0  0  0
 21 18  1  0  0  0  0
 21 19  1  0  0  0  0
 22 35  1  6  0  0  0
 22 26  1  0  0  0  0
 22 27  1  0  0  0  0
 23 24  1  6  0  0  0
 23 28  1  0  0  0  0
 26 23  1  0  0  0  0
 27 25  1  0  0  0  0
 28 25  1  6  0  0  0
 28  2  1  0  0  0  0
 29 34  1  0  0  0  0
 30 36  1  0  0  0  0
 30 33  1  0  0  0  0
 31 35  1  0  0  0  0
 32 38  1  0  0  0  0
 32 29  2  0  0  0  0
 33 37  1  0  0  0  0
 34 33  2  0  0  0  0
 36 31  2  0  0  0  0
 37 35  2  0  0  0  0
 38 30  2  0  0  0  0
M  END
>  <MODEL>
4

>  <REMARK>
 VINA RESULT:      -8.1      4.220      8.914
  Name = 
  3 active torsions:
  status: ('A' for Active; 'I' for Inactive)
    1  A    between atoms: C_2  and  C_36
    2  A    between atoms: C_8  and  C_23
    3  A    between atoms: C_18  and  C_37
                            x       y       z     vdW  Elec       q    Type
                         _______ _______ _______ _____ _____    ______ ____

>  <TORSDO>
F 3

$$$$
=
 OpenBabel11042409573D

 38 44  0  0  1  0  0  0  0  0999 V2000
  185.3150  179.5560  145.0550 C   0  0  0  0  0  1  0  0  0  0  0  0
  188.3620  177.6970  141.6650 C   0  0  1  0  0  3  0  0  0  0  0  0
  186.9260  177.5570  141.1400 C   0  0  0  0  0  2  0  0  0  0  0  0
  186.2460  177.8570  143.5240 C   0  0  0  0  0  0  0  0  0  0  0  0
  184.5430  178.2560  142.1190 C   0  0  0  0  0  0  0  0  0  0  0  0
  184.0330  178.4780  143.2930 N   0  0  0  0  0  0  0  0  0  0  0  0
  185.0490  178.2580  144.3200 C   0  0  2  0  0  3  0  0  0  0  0  0
  187.6160  177.5680  144.0660 C   0  0  0  0  0  2  0  0  0  0  0  0
  188.5280  176.9550  142.9950 C   0  0  0  0  0  2  0  0  0  0  0  0
  185.9470  177.8850  142.2330 C   0  0  0  0  0  0  0  0  0  0  0  0
  184.0250  179.3780  140.0340 C   0  0  0  0  0  3  0  0  0  0  0  0
  180.9580  179.9700  139.7890 C   0  0  0  0  0  0  0  0  0  0  0  0
  180.7150  178.7810  140.3580 C   0  0  0  0  0  0  0  0  0  0  0  0
  182.7830  177.3330  140.5070 C   0  0  0  0  0  3  0  0  0  0  0  0
  183.2870  179.5400  138.7520 C   0  0  0  0  0  2  0  0  0  0  0  0
  181.4840  177.5230  140.2510 C   0  0  0  0  0  3  0  0  0  0  0  0
  182.0910  180.3280  138.9860 N   0  0  0  0  0  2  0  0  0  0  0  0
  179.6800  181.1920  140.0610 S   0  0  0  0  0  0  0  0  0  0  0  0
  179.4200  178.7410  141.0970 C   0  0  0  0  0  2  0  0  0  0  0  0
  183.7550  178.3800  140.8770 C   0  0  0  0  0  0  0  0  0  0  0  0
  179.0760  180.1800  141.4410 C   0  0  0  0  0  2  0  0  0  0  0  0
  191.4270  176.4120  138.9930 C   0  0  2  0  0  3  0  0  0  0  0  0
  189.1150  177.5260  139.1620 C   0  0  1  0  0  3  0  0  0  0  0  0
  189.0560  179.0030  138.8000 C   0  0  0  0  0  1  0  0  0  0  0  0
  190.8450  177.7850  141.0470 C   0  0  0  0  0  2  0  0  0  0  0  0
  190.1440  176.8290  138.2540 C   0  0  0  0  0  2  0  0  0  0  0  0
  191.8940  177.5030  139.9610 C   0  0  0  0  0  2  0  0  0  0  0  0
  189.4420  177.3000  140.6540 C   0  0  1  0  0  3  0  0  0  0  0  0
  196.6920  173.7810  137.0580 C   0  0  0  0  0  3  0  0  0  0  0  0
  194.4800  175.2290  136.2090 C   0  0  0  0  0  0  0  0  0  0  0  0
  192.3860  176.3410  136.6930 C   0  0  0  0  0  3  0  0  0  0  0  0
  196.5220  174.1230  135.7120 C   0  0  0  0  0  3  0  0  0  0  0  0
  194.6150  174.9000  137.5750 C   0  0  0  0  0  0  0  0  0  0  0  0
  195.7290  174.1710  137.9930 C   0  0  0  0  0  3  0  0  0  0  0  0
  192.5140  176.0120  138.0490 C   0  0  0  0  0  0  0  0  0  0  0  0
  193.3660  175.9510  135.7750 C   0  0  0  0  0  3  0  0  0  0  0  0
  193.6320  175.2870  138.4890 C   0  0  0  0  0  3  0  0  0  0  0  0
  195.4290  174.8330  135.3180 N   0  0  0  0  0  0  0  0  0  0  0  0
  2  3  1  6  0  0  0
  2  9  1  0  0  0  0
  3 10  1  0  0  0  0
  4  8  1  0  0  0  0
  4  7  1  0  0  0  0
  5 10  1  0  0  0  0
  5  6  2  0  0  0  0
  6  7  1  0  0  0  0
  7  1  1  6  0  0  0
  9  8  1  0  0  0  0
 10  4  2  0  0  0  0
 11 20  2  0  0  0  0
 12 18  1  0  0  0  0
 12 13  2  0  0  0  0
 13 19  1  0  0  0  0
 14 20  1  0  0  0  0
 15 17  1  0  0  0  0
 15 11  1  0  0  0  0
 16 13  1  0  0  0  0
 16 14  2  0  0  0  0
 17 12  1  0  0  0  0
 18 21  1  0  0  0  0
 19 21  1  0  0  0  0
 20  5  1  0  0  0  0
 22 35  1  6  0  0  0
 22 27  1  0  0  0  0
 23 24  1  1  0  0  0
 23 28  1  0  0  0  0
 26 22  1  0  0  0  0
 26 23  1  0  0  0  0
 27 25  1  0  0  0  0
 28 25  1  1  0  0  0
 28  2  1  0  0  0  0
 29 34  1  0  0  0  0
 30 33  1  0  0  0  0
 31 35  1  0  0  0  0
 32 29  2  0  0  0  0
 33 34  2  0  0  0  0
 33 37  1  0  0  0  0
 35 37  2  0  0  0  0
 36 30  1  0  0  0  0
 36 31  2  0  0  0  0
 38 32  1  0  0  0  0
 38 30  2  0  0  0  0
M  END
>  <MODEL>
5

>  <REMARK>
 VINA RESULT:      -7.5      5.271      8.080
  Name = 
  3 active torsions:
  status: ('A' for Active; 'I' for Inactive)
    1  A    between atoms: C_2  and  C_36
    2  A    between atoms: C_8  and  C_23
    3  A    between atoms: C_18  and  C_37
                            x       y       z     vdW  Elec       q    Type
                         _______ _______ _______ _____ _____    ______ ____

>  <TORSDO>
F 3

$$$$
=
 OpenBabel11042409573D

 38 44  0  0  1  0  0  0  0  0999 V2000
  192.0600  176.7470  134.5940 C   0  0  0  0  0  1  0  0  0  0  0  0
  190.3690  176.6870  139.2160 C   0  0  1  0  0  3  0  0  0  0  0  0
  191.4700  175.6230  139.1000 C   0  0  0  0  0  2  0  0  0  0  0  0
  191.0730  175.7790  136.6390 C   0  0  0  0  0  0  0  0  0  0  0  0
  193.0600  174.8450  137.1010 C   0  0  0  0  0  0  0  0  0  0  0  0
  193.0270  174.8730  135.8030 N   0  0  0  0  0  0  0  0  0  0  0  0
  191.7710  175.4700  135.3570 C   0  0  2  0  0  3  0  0  0  0  0  0
  189.7480  176.4700  136.7860 C   0  0  0  0  0  2  0  0  0  0  0  0
  189.2320  176.4000  138.2300 C   0  0  0  0  0  2  0  0  0  0  0  0
  191.8490  175.4330  137.6570 C   0  0  0  0  0  0  0  0  0  0  0  0
  194.9050  175.0810  138.6560 C   0  0  0  0  0  3  0  0  0  0  0  0
  197.5530  173.8940  137.4720 C   0  0  0  0  0  0  0  0  0  0  0  0
  196.8300  172.8990  136.9380 C   0  0  0  0  0  0  0  0  0  0  0  0
  194.4620  172.8310  137.8250 C   0  0  0  0  0  3  0  0  0  0  0  0
  196.0460  174.5670  139.4620 C   0  0  0  0  0  2  0  0  0  0  0  0
  195.6110  172.2480  137.4630 C   0  0  0  0  0  3  0  0  0  0  0  0
  197.2590  174.6300  138.6670 N   0  0  0  0  0  2  0  0  0  0  0  0
  199.0520  174.2780  136.5760 S   0  0  0  0  0  0  0  0  0  0  0  0
  197.4450  172.3260  135.7060 C   0  0  0  0  0  2  0  0  0  0  0  0
  194.2000  174.2830  137.8530 C   0  0  0  0  0  0  0  0  0  0  0  0
  198.3640  173.3980  135.1450 C   0  0  0  0  0  2  0  0  0  0  0  0
  188.7010  177.1860  143.1090 C   0  0  2  0  0  3  0  0  0  0  0  0
  190.8440  176.6480  141.7920 C   0  0  1  0  0  3  0  0  0  0  0  0
  191.9420  177.7010  141.8410 C   0  0  0  0  0  1  0  0  0  0  0  0
  189.0410  178.1930  140.8040 C   0  0  0  0  0  2  0  0  0  0  0  0
  190.1260  176.6090  143.1530 C   0  0  0  0  0  2  0  0  0  0  0  0
  188.6410  178.4600  142.2630 C   0  0  0  0  0  2  0  0  0  0  0  0
  189.8450  176.8960  140.6410 C   0  0  1  0  0  3  0  0  0  0  0  0
  188.6760  178.1810  149.2240 C   0  0  0  0  0  3  0  0  0  0  0  0
  187.0320  177.8920  147.0060 C   0  0  0  0  0  0  0  0  0  0  0  0
  186.7540  177.5120  144.6320 C   0  0  0  0  0  3  0  0  0  0  0  0
  187.2850  178.2880  149.3340 C   0  0  0  0  0  3  0  0  0  0  0  0
  188.4300  177.7810  146.8550 C   0  0  0  0  0  0  0  0  0  0  0  0
  189.2500  177.9280  147.9750 C   0  0  0  0  0  3  0  0  0  0  0  0
  188.1430  177.4070  144.4780 C   0  0  0  0  0  0  0  0  0  0  0  0
  186.1990  177.7540  145.8920 C   0  0  0  0  0  3  0  0  0  0  0  0
  188.9820  177.5430  145.5940 C   0  0  0  0  0  3  0  0  0  0  0  0
  186.4980  178.1420  148.2320 N   0  0  0  0  0  0  0  0  0  0  0  0
  2  9  1  6  0  0  0
  2 28  1  0  0  0  0
  3  2  1  0  0  0  0
  4  8  1  0  0  0  0
  4 10  2  0  0  0  0
  5 10  1  0  0  0  0
  5 20  1  0  0  0  0
  6  5  2  0  0  0  0
  7  1  1  1  0  0  0
  7  6  1  0  0  0  0
  7  4  1  0  0  0  0
  8  9  1  0  0  0  0
 10  3  1  0  0  0  0
 11 15  1  0  0  0  0
 12 17  1  0  0  0  0
 13 16  1  0  0  0  0
 13 12  2  0  0  0  0
 14 20  1  0  0  0  0
 16 14  2  0  0  0  0
 17 15  1  0  0  0  0
 18 12  1  0  0  0  0
 19 13  1  0  0  0  0
 20 11  2  0  0  0  0
 21 19  1  0  0  0  0
 21 18  1  0  0  0  0
 22 26  1  0  0  0  0
 22 35  1  1  0  0  0
 23 24  1  1  0  0  0
 23 26  1  0  0  0  0
 25 27  1  0  0  0  0
 27 22  1  0  0  0  0
 28 25  1  6  0  0  0
 28 23  1  0  0  0  0
 29 32  1  0  0  0  0
 30 38  1  0  0  0  0
 31 36  1  0  0  0  0
 33 30  1  0  0  0  0
 33 34  1  0  0  0  0
 34 29  2  0  0  0  0
 35 31  2  0  0  0  0
 35 37  1  0  0  0  0
 36 30  2  0  0  0  0
 37 33  2  0  0  0  0
 38 32  2  0  0  0  0
M  END
>  <MODEL>
6

>  <REMARK>
 VINA RESULT:      -7.3      6.570      9.509
  Name = 
  3 active torsions:
  status: ('A' for Active; 'I' for Inactive)
    1  A    between atoms: C_2  and  C_36
    2  A    between atoms: C_8  and  C_23
    3  A    between atoms: C_18  and  C_37
                            x       y       z     vdW  Elec       q    Type
                         _______ _______ _______ _____ _____    ______ ____

>  <TORSDO>
F 3

$$$$
=
 OpenBabel11042409573D

 38 44  0  0  1  0  0  0  0  0999 V2000
  187.5940  176.6860  149.2110 C   0  0  0  0  0  1  0  0  0  0  0  0
  185.6830  177.8900  144.8370 C   0  0  1  0  0  3  0  0  0  0  0  0
  187.1830  178.2180  144.8060 C   0  0  0  0  0  2  0  0  0  0  0  0
  187.0390  178.1460  147.2980 C   0  0  0  0  0  0  0  0  0  0  0  0
  189.1550  177.9370  146.5830 C   0  0  0  0  0  0  0  0  0  0  0  0
  189.2570  177.8550  147.8760 N   0  0  0  0  0  0  0  0  0  0  0  0
  187.9320  177.9710  148.4810 C   0  0  2  0  0  3  0  0  0  0  0  0
  185.5410  178.2530  147.3240 C   0  0  0  0  0  2  0  0  0  0  0  0
  184.9810  178.6660  145.9560 C   0  0  0  0  0  2  0  0  0  0  0  0
  187.7620  178.0980  146.1890 C   0  0  0  0  0  0  0  0  0  0  0  0
  190.8550  179.0030  145.2230 C   0  0  0  0  0  3  0  0  0  0  0  0
  190.9840  177.7360  142.3600 C   0  0  0  0  0  0  0  0  0  0  0  0
  190.7720  176.5350  142.9160 C   0  0  0  0  0  0  0  0  0  0  0  0
  190.9940  176.5770  145.4360 C   0  0  0  0  0  3  0  0  0  0  0  0
  192.0550  179.0020  144.3430 C   0  0  0  0  0  2  0  0  0  0  0  0
  191.2110  176.0290  144.2350 C   0  0  0  0  0  3  0  0  0  0  0  0
  191.6330  178.8640  142.9610 N   0  0  0  0  0  2  0  0  0  0  0  0
  190.4060  177.8780  140.6730 S   0  0  0  0  0  0  0  0  0  0  0  0
  190.0980  175.5750  141.9960 C   0  0  0  0  0  2  0  0  0  0  0  0
  190.3290  177.8700  145.6900 C   0  0  0  0  0  0  0  0  0  0  0  0
  189.3740  176.4120  140.9560 C   0  0  0  0  0  2  0  0  0  0  0  0
  183.8160  178.1860  141.0150 C   0  0  2  0  0  3  0  0  0  0  0  0
  183.5490  178.6620  143.5280 C   0  0  1  0  0  3  0  0  0  0  0  0
  183.5450  180.1280  143.9350 C   0  0  0  0  0  1  0  0  0  0  0  0
  185.8670  178.7020  142.4170 C   0  0  0  0  0  2  0  0  0  0  0  0
  182.8500  178.5180  142.1640 C   0  0  0  0  0  2  0  0  0  0  0  0
  185.1070  179.0020  141.1160 C   0  0  0  0  0  2  0  0  0  0  0  0
  184.9730  178.0670  143.4910 C   0  0  1  0  0  3  0  0  0  0  0  0
  180.6220  180.8860  136.4440 C   0  0  0  0  0  3  0  0  0  0  0  0
  182.0450  178.6000  137.1210 C   0  0  0  0  0  0  0  0  0  0  0  0
  183.3260  177.3220  138.7280 C   0  0  0  0  0  3  0  0  0  0  0  0
  180.8080  179.8490  135.5230 C   0  0  0  0  0  3  0  0  0  0  0  0
  181.8810  179.6260  138.0760 C   0  0  0  0  0  0  0  0  0  0  0  0
  181.1640  180.7730  137.7270 C   0  0  0  0  0  3  0  0  0  0  0  0
  183.1700  178.3420  139.6760 C   0  0  0  0  0  0  0  0  0  0  0  0
  182.7660  177.4500  137.4530 C   0  0  0  0  0  3  0  0  0  0  0  0
  182.4450  179.4980  139.3470 C   0  0  0  0  0  3  0  0  0  0  0  0
  181.5100  178.7370  135.8780 N   0  0  0  0  0  0  0  0  0  0  0  0
  2  3  1  6  0  0  0
  2  9  1  0  0  0  0
  3 10  1  0  0  0  0
  4  8  1  0  0  0  0
  4  7  1  0  0  0  0
  5  6  2  0  0  0  0
  6  7  1  0  0  0  0
  7  1  1  6  0  0  0
  9  8  1  0  0  0  0
 10  5  1  0  0  0  0
 10  4  2  0  0  0  0
 11 20  2  0  0  0  0
 12 13  2  0  0  0  0
 12 17  1  0  0  0  0
 13 16  1  0  0  0  0
 14 20  1  0  0  0  0
 15 11  1  0  0  0  0
 16 14  2  0  0  0  0
 17 15  1  0  0  0  0
 18 21  1  0  0  0  0
 18 12  1  0  0  0  0
 19 13  1  0  0  0  0
 20  5  1  0  0  0  0
 21 19  1  0  0  0  0
 22 35  1  6  0  0  0
 22 27  1  0  0  0  0
 22 26  1  0  0  0  0
 23 24  1  6  0  0  0
 26 23  1  0  0  0  0
 27 25  1  0  0  0  0
 28 25  1  6  0  0  0
 28 23  1  0  0  0  0
 28  2  1  0  0  0  0
 29 34  1  0  0  0  0
 30 36  1  0  0  0  0
 30 33  1  0  0  0  0
 31 35  1  0  0  0  0
 32 38  1  0  0  0  0
 32 29  2  0  0  0  0
 33 37  1  0  0  0  0
 34 33  2  0  0  0  0
 36 31  2  0  0  0  0
 37 35  2  0  0  0  0
 38 30  2  0  0  0  0
M  END
>  <MODEL>
7

>  <REMARK>
 VINA RESULT:      -7.3      2.258      9.830
  Name = 
  3 active torsions:
  status: ('A' for Active; 'I' for Inactive)
    1  A    between atoms: C_2  and  C_36
    2  A    between atoms: C_8  and  C_23
    3  A    between atoms: C_18  and  C_37
                            x       y       z     vdW  Elec       q    Type
                         _______ _______ _______ _____ _____    ______ ____

>  <TORSDO>
F 3

$$$$
