=
 OpenBabel11042410553D

 26 31  0  0  1  0  0  0  0  0999 V2000
  188.7550  177.7880  146.7520 C   0  0  2  0  0  3  0  0  0  0  0  0
  192.0440  175.5620  143.8930 O   0  0  0  0  0  1  0  0  0  0  0  0
  189.7630  176.2210  140.3390 O   0  0  0  0  0  0  0  0  0  0  0  0
  190.0770  177.1480  147.0750 C   0  0  2  0  0  3  0  0  0  0  0  0
  192.1630  177.7080  141.6150 O   0  0  0  0  0  1  0  0  0  0  0  0
  191.0500  178.1070  146.4510 C   0  0  0  0  0  2  0  0  0  0  0  0
  189.7320  177.0860  141.3920 C   0  0  2  0  0  0  0  0  0  0  0  0
  187.5730  177.9200  148.2530 S   0  0  0  0  0  0  0  0  0  0  0  0
  191.0410  176.6610  145.9640 C   0  0  2  0  0  0  0  0  0  0  0  0
  186.8170  177.8880  143.6850 N   0  0  0  0  0  0  0  0  0  0  0  0
  186.4790  177.9360  145.9100 C   0  0  0  0  0  0  0  0  0  0  0  0
  189.3360  177.5330  139.9340 C   0  0  0  0  0  2  0  0  0  0  0  0
  190.5460  177.3030  143.4640 C   0  0  1  0  0  3  0  0  0  0  0  0
  191.0690  176.9320  142.0890 C   0  0  2  0  0  3  0  0  0  0  0  0
  189.0960  176.9350  143.5970 N   0  0  0  0  0  0  0  0  0  0  0  0
  186.1220  178.2320  147.1210 C   0  0  0  0  0  2  0  0  0  0  0  0
  188.7200  176.3930  142.3310 C   0  0  0  0  0  2  0  0  0  0  0  0
  191.5260  176.7390  144.5280 C   0  0  2  0  0  3  0  0  0  0  0  0
  187.8460  177.5590  145.6370 C   0  0  0  0  0  0  0  0  0  0  0  0
  188.0520  177.6300  144.3020 C   0  0  0  0  0  0  0  0  0  0  0  0
  185.8660  178.1300  144.5660 C   0  0  2  0  0  3  0  0  0  0  0  0
  184.4340  178.4180  142.6830 N   0  0  0  0  0  2  0  0  0  0  0  0
  184.5970  178.4790  143.9660 C   0  0  0  0  0  0  0  0  0  0  0  0
  183.5090  178.9970  144.7710 C   0  0  0  0  0  1  0  0  0  0  0  0
  191.9480  175.8270  146.8350 C   0  0  0  0  0  0  0  0  0  0  0  0
  192.7680  175.2860  147.4660 N   0  0  0  0  0  0  0  0  0  0  0  0
  1 19  1  6  0  0  0
  1  4  1  0  0  0  0
  1  8  1  0  0  0  0
  3  7  1  0  0  0  0
  4  6  1  6  0  0  0
  7 12  1  6  0  0  0
  7 14  1  0  0  0  0
  7 17  1  0  0  0  0
  9  6  1  0  0  0  0
  9 25  1  1  0  0  0
  9  4  1  0  0  0  0
 10 20  2  0  0  0  0
 10 21  1  0  0  0  0
 11 16  1  0  0  0  0
 12  3  1  0  0  0  0
 13 15  1  1  0  0  0
 13 18  1  0  0  0  0
 14  5  1  6  0  0  0
 14 13  1  0  0  0  0
 15 20  1  0  0  0  0
 16  8  1  0  0  0  0
 17 15  1  0  0  0  0
 18  2  1  6  0  0  0
 18  9  1  0  0  0  0
 19 11  2  0  0  0  0
 20 19  1  0  0  0  0
 21 23  1  6  0  0  0
 21 11  1  0  0  0  0
 22 23  2  0  0  0  0
 23 24  1  0  0  0  0
 25 26  3  0  0  0  0
M  END
>  <MODEL>
1

>  <REMARK>
 VINA RESULT:      -8.9      0.000      0.000
  Name = 
  2 active torsions:
  status: ('A' for Active; 'I' for Inactive)
    1  A    between atoms: C_7  and  C_10
    2  A    between atoms: C_21  and  C_26
                            x       y       z     vdW  Elec       q    Type
                         _______ _______ _______ _____ _____    ______ ____

>  <TORSDO>
F 2

$$$$
=
 OpenBabel11042410553D

 26 31  0  0  1  0  0  0  0  0999 V2000
  188.6720  177.1570  144.7290 C   0  0  2  0  0  3  0  0  0  0  0  0
  184.5860  179.7820  144.1280 O   0  0  0  0  0  1  0  0  0  0  0  0
  184.8620  179.6890  139.8640 O   0  0  0  0  0  0  0  0  0  0  0  0
  187.7090  177.7330  145.7290 C   0  0  2  0  0  3  0  0  0  0  0  0
  183.2540  178.0130  141.9130 O   0  0  0  0  0  1  0  0  0  0  0  0
  186.4910  176.8770  145.5210 C   0  0  0  0  0  2  0  0  0  0  0  0
  185.3280  178.6720  140.6430 C   0  0  2  0  0  0  0  0  0  0  0  0
  190.4110  176.8000  145.4470 S   0  0  0  0  0  0  0  0  0  0  0  0
  186.3710  178.3820  145.2940 C   0  0  2  0  0  0  0  0  0  0  0  0
  188.9160  177.5400  141.1280 N   0  0  0  0  0  0  0  0  0  0  0  0
  190.2620  177.1510  142.8900 C   0  0  0  0  0  0  0  0  0  0  0  0
  184.9540  178.4570  139.1270 C   0  0  0  0  0  2  0  0  0  0  0  0
  185.5780  178.1350  142.7990 C   0  0  1  0  0  3  0  0  0  0  0  0
  184.4940  178.7110  141.9080 C   0  0  2  0  0  3  0  0  0  0  0  0
  186.9390  178.4840  142.2720 N   0  0  2  0  0  0  0  0  0  0  0  0
  191.1290  176.6740  143.7290 C   0  0  0  0  0  2  0  0  0  0  0  0
  186.7090  179.2170  141.0700 C   0  0  0  0  0  2  0  0  0  0  0  0
  185.2600  178.5230  144.2690 C   0  0  2  0  0  3  0  0  0  0  0  0
  188.9590  177.5600  143.3580 C   0  0  0  0  0  0  0  0  0  0  0  0
  188.1420  177.6940  142.2890 C   0  0  2  0  0  3  0  0  0  0  0  0
  190.1520  177.1690  141.4050 C   0  0  0  0  0  0  0  0  0  0  0  0
  190.5290  176.1490  139.2840 N   0  0  0  0  0  2  0  0  0  0  0  0
  190.9580  176.9230  140.2290 C   0  0  0  0  0  0  0  0  0  0  0  0
  192.3020  177.4550  140.1220 C   0  0  0  0  0  1  0  0  0  0  0  0
  186.0440  179.0670  146.5980 C   0  0  0  0  0  0  0  0  0  0  0  0
  185.7340  179.7190  147.5150 N   0  0  0  0  0  0  0  0  0  0  0  0
  1 19  1  6  0  0  0
  1  8  1  0  0  0  0
  1  4  1  0  0  0  0
  2 18  1  0  0  0  0
  3  7  1  0  0  0  0
  4  6  1  1  0  0  0
  7 12  1  6  0  0  0
  7 17  1  0  0  0  0
  7 14  1  0  0  0  0
  9  6  1  0  0  0  0
  9  4  1  0  0  0  0
  9 25  1  1  0  0  0
 10 21  2  0  0  0  0
 10 20  1  0  0  0  0
 11 19  2  0  0  0  0
 11 16  1  0  0  0  0
 12  3  1  0  0  0  0
 13 18  1  0  0  0  0
 14  5  1  0  0  0  0
 14 13  1  0  0  0  0
 15 20  1  0  0  0  0
 15 13  1  0  0  0  0
 16  8  1  0  0  0  0
 17 15  1  0  0  0  0
 18  9  1  0  0  0  0
 20 19  1  0  0  0  0
 21 11  1  0  0  0  0
 22 23  2  0  0  0  0
 23 21  1  0  0  0  0
 24 23  1  0  0  0  0
 25 26  3  0  0  0  0
M  END
>  <MODEL>
2

>  <REMARK>
 VINA RESULT:      -8.9      3.467      5.844
  Name = 
  2 active torsions:
  status: ('A' for Active; 'I' for Inactive)
    1  A    between atoms: C_7  and  C_10
    2  A    between atoms: C_21  and  C_26
                            x       y       z     vdW  Elec       q    Type
                         _______ _______ _______ _____ _____    ______ ____

>  <TORSDO>
F 2

$$$$
=
 OpenBabel11042410553D

 26 31  0  0  1  0  0  0  0  0999 V2000
  186.5240  178.6030  142.1040 C   0  0  2  0  0  3  0  0  0  0  0  0
  184.0790  178.3100  146.3320 O   0  0  0  0  0  1  0  0  0  0  0  0
  187.5940  177.3950  148.5840 O   0  0  0  0  0  0  0  0  0  0  0  0
  185.0680  178.7990  142.4220 C   0  0  2  0  0  3  0  0  0  0  0  0
  186.0310  180.0210  148.0840 O   0  0  0  0  0  1  0  0  0  0  0  0
  185.0860  180.0860  143.1960 C   0  0  0  0  0  2  0  0  0  0  0  0
  187.6310  178.1750  147.4680 C   0  0  2  0  0  0  0  0  0  0  0  0
  186.8650  178.1800  140.2680 S   0  0  0  0  0  0  0  0  0  0  0  0
  184.5480  178.8330  143.8810 C   0  0  2  0  0  0  0  0  0  0  0  0
  189.2940  177.4360  144.1390 N   0  0  0  0  0  0  0  0  0  0  0  0
  188.6590  177.4460  141.9800 C   0  0  0  0  0  0  0  0  0  0  0  0
  188.7580  178.2390  148.5670 C   0  0  0  0  0  2  0  0  0  0  0  0
  186.2790  178.9370  145.8570 C   0  0  1  0  0  3  0  0  0  0  0  0
  186.2600  178.8130  147.3690 C   0  0  2  0  0  3  0  0  0  0  0  0
  187.1250  177.8560  145.2470 N   0  0  2  0  0  0  0  0  0  0  0  0
  188.5820  177.5830  140.6920 C   0  0  0  0  0  2  0  0  0  0  0  0
  187.6480  177.1120  146.3470 C   0  0  0  0  0  2  0  0  0  0  0  0
  184.8140  179.0630  145.3570 C   0  0  2  0  0  3  0  0  0  0  0  0
  187.5480  177.8460  142.8120 C   0  0  0  0  0  0  0  0  0  0  0  0
  187.9790  177.9260  144.0910 C   0  0  2  0  0  3  0  0  0  0  0  0
  189.7720  177.1870  142.9350 C   0  0  0  0  0  0  0  0  0  0  0  0
  191.9800  177.1830  142.0400 N   0  0  0  0  0  2  0  0  0  0  0  0
  191.1530  176.7560  142.9390 C   0  0  0  0  0  0  0  0  0  0  0  0
  191.6220  175.7640  143.8860 C   0  0  0  0  0  1  0  0  0  0  0  0
  183.0780  178.6800  143.5760 C   0  0  0  0  0  0  0  0  0  0  0  0
  181.9190  178.6870  143.4420 N   0  0  0  0  0  0  0  0  0  0  0  0
  1  8  1  6  0  0  0
  1  4  1  0  0  0  0
  1 19  1  0  0  0  0
  4  6  1  1  0  0  0
  4  9  1  0  0  0  0
  6  9  1  0  0  0  0
  7 17  1  6  0  0  0
  7 12  1  0  0  0  0
  7  3  1  0  0  0  0
  8 16  1  0  0  0  0
  9 25  1  6  0  0  0
  9 18  1  0  0  0  0
 11 19  2  0  0  0  0
 11 21  1  0  0  0  0
 12  3  1  0  0  0  0
 13 14  1  0  0  0  0
 14  7  1  0  0  0  0
 14  5  1  0  0  0  0
 15 13  1  0  0  0  0
 15 17  1  0  0  0  0
 16 11  1  0  0  0  0
 18 13  1  0  0  0  0
 18  2  1  0  0  0  0
 19 20  1  0  0  0  0
 20 10  1  0  0  0  0
 20 15  1  0  0  0  0
 21 23  1  0  0  0  0
 21 10  2  0  0  0  0
 22 23  2  0  0  0  0
 23 24  1  0  0  0  0
 26 25  3  0  0  0  0
M  END
>  <MODEL>
3

>  <REMARK>
 VINA RESULT:      -7.8      3.585      7.020
  Name = 
  2 active torsions:
  status: ('A' for Active; 'I' for Inactive)
    1  A    between atoms: C_7  and  C_10
    2  A    between atoms: C_21  and  C_26
                            x       y       z     vdW  Elec       q    Type
                         _______ _______ _______ _____ _____    ______ ____

>  <TORSDO>
F 2

$$$$
=
 OpenBabel11042410553D

 26 31  0  0  1  0  0  0  0  0999 V2000
  183.8460  178.5270  142.4990 C   0  0  2  0  0  3  0  0  0  0  0  0
  185.8520  179.3940  138.1210 O   0  0  0  0  0  1  0  0  0  0  0  0
  189.7630  178.2540  139.4150 O   0  0  0  0  0  0  0  0  0  0  0  0
  183.2400  179.0000  141.2080 C   0  0  2  0  0  3  0  0  0  0  0  0
  187.5270  176.7580  137.8800 O   0  0  0  0  0  1  0  0  0  0  0  0
  183.3240  177.7680  140.3510 C   0  0  0  0  0  2  0  0  0  0  0  0
  188.6350  177.6970  139.9390 C   0  0  2  0  0  0  0  0  0  0  0  0
  182.8110  178.9700  144.0480 S   0  0  0  0  0  0  0  0  0  0  0  0
  184.0490  179.0290  139.8870 C   0  0  2  0  0  0  0  0  0  0  0  0
  187.2990  177.9860  143.4780 N   0  0  0  0  0  0  0  0  0  0  0  0
  185.3350  178.5500  144.4210 C   0  0  0  0  0  0  0  0  0  0  0  0
  190.0320  176.9710  140.0080 C   0  0  0  0  0  2  0  0  0  0  0  0
  186.4090  177.8730  139.8060 C   0  0  1  0  0  3  0  0  0  0  0  0
  187.5850  177.7970  138.8500 C   0  0  2  0  0  3  0  0  0  0  0  0
  186.8230  178.4960  141.1070 N   0  0  0  0  0  0  0  0  0  0  0  0
  184.2710  178.6300  145.1600 C   0  0  0  0  0  2  0  0  0  0  0  0
  188.2200  178.7600  140.9800 C   0  0  0  0  0  2  0  0  0  0  0  0
  185.2100  178.5150  139.0560 C   0  0  2  0  0  3  0  0  0  0  0  0
  185.2170  178.6170  142.9840 C   0  0  0  0  0  0  0  0  0  0  0  0
  186.3760  178.1820  142.4390 C   0  0  0  0  0  0  0  0  0  0  0  0
  186.7430  178.1320  144.6660 C   0  0  2  0  0  3  0  0  0  0  0  0
  187.2230  177.8860  146.9870 N   0  0  0  0  0  2  0  0  0  0  0  0
  187.6450  177.8580  145.7640 C   0  0  0  0  0  0  0  0  0  0  0  0
  189.0590  177.6440  145.5310 C   0  0  0  0  0  1  0  0  0  0  0  0
  183.1040  179.8920  139.0880 C   0  0  0  0  0  0  0  0  0  0  0  0
  182.3180  180.4200  138.4060 N   0  0  0  0  0  0  0  0  0  0  0  0
  1 19  1  1  0  0  0
  1  8  1  0  0  0  0
  3  7  1  0  0  0  0
  3 12  1  0  0  0  0
  4  6  1  6  0  0  0
  4  1  1  0  0  0  0
  7 12  1  1  0  0  0
  7 17  1  0  0  0  0
  8 16  1  0  0  0  0
  9 25  1  6  0  0  0
  9  6  1  0  0  0  0
  9  4  1  0  0  0  0
 10 21  1  0  0  0  0
 11 21  1  0  0  0  0
 11 16  1  0  0  0  0
 13 15  1  1  0  0  0
 14  5  1  6  0  0  0
 14 13  1  0  0  0  0
 14  7  1  0  0  0  0
 15 20  1  0  0  0  0
 17 15  1  0  0  0  0
 18  2  1  1  0  0  0
 18 13  1  0  0  0  0
 18  9  1  0  0  0  0
 19 11  2  0  0  0  0
 20 19  1  0  0  0  0
 20 10  2  0  0  0  0
 21 23  1  1  0  0  0
 23 22  2  0  0  0  0
 24 23  1  0  0  0  0
 26 25  3  0  0  0  0
M  END
>  <MODEL>
4

>  <REMARK>
 VINA RESULT:      -7.3      3.119      6.555
  Name = 
  2 active torsions:
  status: ('A' for Active; 'I' for Inactive)
    1  A    between atoms: C_7  and  C_10
    2  A    between atoms: C_21  and  C_26
                            x       y       z     vdW  Elec       q    Type
                         _______ _______ _______ _____ _____    ______ ____

>  <TORSDO>
F 2

$$$$
=
 OpenBabel11042410553D

 26 31  0  0  1  0  0  0  0  0999 V2000
  187.8850  177.5370  141.9540 C   0  0  2  0  0  3  0  0  0  0  0  0
  191.6450  177.6960  145.0820 O   0  0  0  0  0  1  0  0  0  0  0  0
  189.1070  178.1610  148.4890 O   0  0  0  0  0  0  0  0  0  0  0  0
  189.3680  177.4310  141.7280 C   0  0  2  0  0  3  0  0  0  0  0  0
  190.5140  175.7090  147.2230 O   0  0  0  0  0  1  0  0  0  0  0  0
  189.6820  176.0900  142.3290 C   0  0  0  0  0  2  0  0  0  0  0  0
  188.7160  177.4670  147.3830 C   0  0  2  0  0  0  0  0  0  0  0  0
  186.9020  178.0710  140.4000 S   0  0  0  0  0  0  0  0  0  0  0  0
  190.3680  177.3260  142.9050 C   0  0  2  0  0  0  0  0  0  0  0  0
  185.9570  178.3270  144.9260 N   0  0  0  0  0  0  0  0  0  0  0  0
  185.7920  178.5310  142.6900 C   0  0  0  0  0  0  0  0  0  0  0  0
  188.0520  177.2320  148.7930 C   0  0  0  0  0  2  0  0  0  0  0  0
  189.4490  176.9380  145.3380 C   0  0  1  0  0  3  0  0  0  0  0  0
  189.9930  176.9470  146.7540 C   0  0  2  0  0  3  0  0  0  0  0  0
  188.3940  177.9930  145.1680 N   0  0  2  0  0  0  0  0  0  0  0  0
  185.4180  178.4980  141.4490 C   0  0  0  0  0  2  0  0  0  0  0  0
  188.2570  178.6080  146.4490 C   0  0  0  0  0  2  0  0  0  0  0  0
  190.6490  176.9650  144.3520 C   0  0  2  0  0  3  0  0  0  0  0  0
  187.1420  178.1560  143.0430 C   0  0  0  0  0  0  0  0  0  0  0  0
  187.1920  177.9460  144.3780 C   0  0  2  0  0  3  0  0  0  0  0  0
  185.0760  178.6290  143.9920 C   0  0  0  0  0  0  0  0  0  0  0  0
  183.5720  179.0520  145.7920 N   0  0  0  0  0  2  0  0  0  0  0  0
  183.7650  178.9500  144.5160 C   0  0  0  0  0  0  0  0  0  0  0  0
  182.6200  179.0680  143.6370 C   0  0  0  0  0  1  0  0  0  0  0  0
  191.6290  177.6150  142.1270 C   0  0  0  0  0  0  0  0  0  0  0  0
  192.5380  177.7470  141.4080 N   0  0  0  0  0  0  0  0  0  0  0  0
  1  8  1  6  0  0  0
  1 19  1  0  0  0  0
  3 12  1  0  0  0  0
  4  1  1  0  0  0  0
  4  6  1  6  0  0  0
  4  9  1  0  0  0  0
  6  9  1  0  0  0  0
  7 17  1  6  0  0  0
  7  3  1  0  0  0  0
  7 12  1  0  0  0  0
  8 16  1  0  0  0  0
  9 25  1  6  0  0  0
  9 18  1  0  0  0  0
 11 19  2  0  0  0  0
 11 21  1  0  0  0  0
 13 14  1  0  0  0  0
 14  5  1  0  0  0  0
 14  7  1  0  0  0  0
 15 13  1  0  0  0  0
 15 17  1  0  0  0  0
 16 11  1  0  0  0  0
 18  2  1  0  0  0  0
 18 13  1  0  0  0  0
 19 20  1  0  0  0  0
 20 10  1  0  0  0  0
 20 15  1  0  0  0  0
 21 23  1  0  0  0  0
 21 10  2  0  0  0  0
 23 22  2  0  0  0  0
 24 23  1  0  0  0  0
 26 25  3  0  0  0  0
M  END
>  <MODEL>
5

>  <REMARK>
 VINA RESULT:      -7.2      2.661      4.697
  Name = 
  2 active torsions:
  status: ('A' for Active; 'I' for Inactive)
    1  A    between atoms: C_7  and  C_10
    2  A    between atoms: C_21  and  C_26
                            x       y       z     vdW  Elec       q    Type
                         _______ _______ _______ _____ _____    ______ ____

>  <TORSDO>
F 2

$$$$
=
 OpenBabel11042410553D

 26 31  0  0  1  0  0  0  0  0999 V2000
  189.0040  176.9520  137.0060 C   0  0  2  0  0  3  0  0  0  0  0  0
  192.0870  177.1870  140.7990 O   0  0  0  0  0  1  0  0  0  0  0  0
  189.0010  178.2590  143.5540 O   0  0  0  0  0  0  0  0  0  0  0  0
  190.4840  176.7020  137.0970 C   0  0  2  0  0  3  0  0  0  0  0  0
  190.3690  175.5690  142.8570 O   0  0  0  0  0  1  0  0  0  0  0  0
  190.5390  175.4230  137.8840 C   0  0  0  0  0  2  0  0  0  0  0  0
  188.7620  177.4700  142.4690 C   0  0  2  0  0  0  0  0  0  0  0  0
  188.3990  177.3710  135.2390 S   0  0  0  0  0  0  0  0  0  0  0  0
  191.2230  176.6600  138.4580 C   0  0  2  0  0  0  0  0  0  0  0  0
  186.6310  178.2450  139.4280 N   0  0  0  0  0  0  0  0  0  0  0  0
  186.9210  178.1910  137.1970 C   0  0  0  0  0  0  0  0  0  0  0  0
  187.8180  177.4610  143.7310 C   0  0  0  0  0  2  0  0  0  0  0  0
  189.8180  176.6420  140.6800 C   0  0  1  0  0  3  0  0  0  0  0  0
  190.0770  176.7780  142.1690 C   0  0  2  0  0  3  0  0  0  0  0  0
  188.9280  177.7490  140.1930 N   0  0  2  0  0  0  0  0  0  0  0  0
  186.7920  178.0390  135.9150 C   0  0  0  0  0  2  0  0  0  0  0  0
  188.6110  178.5230  141.3490 C   0  0  0  0  0  2  0  0  0  0  0  0
  191.1820  176.4540  139.9610 C   0  0  2  0  0  3  0  0  0  0  0  0
  188.1320  177.7550  137.8520 C   0  0  0  0  0  0  0  0  0  0  0  0
  187.9030  177.7030  139.1840 C   0  0  2  0  0  3  0  0  0  0  0  0
  185.9810  178.5010  138.3090 C   0  0  0  0  0  0  0  0  0  0  0  0
  184.4260  180.1280  139.0930 N   0  0  0  0  0  2  0  0  0  0  0  0
  184.6340  178.9860  138.5210 C   0  0  0  0  0  0  0  0  0  0  0  0
  183.4860  178.1670  138.1870 C   0  0  0  0  0  1  0  0  0  0  0  0
  192.6330  176.7530  137.9260 C   0  0  0  0  0  0  0  0  0  0  0  0
  193.7610  176.7180  137.6330 N   0  0  0  0  0  0  0  0  0  0  0  0
  1  8  1  6  0  0  0
  1  4  1  0  0  0  0
  1 19  1  0  0  0  0
  3 12  1  0  0  0  0
  4  6  1  1  0  0  0
  4  9  1  0  0  0  0
  6  9  1  0  0  0  0
  7 17  1  6  0  0  0
  7  3  1  0  0  0  0
  7 12  1  0  0  0  0
  8 16  1  0  0  0  0
  9 25  1  6  0  0  0
  9 18  1  0  0  0  0
 11 19  2  0  0  0  0
 11 21  1  0  0  0  0
 13 14  1  0  0  0  0
 14  7  1  0  0  0  0
 14  5  1  0  0  0  0
 15 13  1  0  0  0  0
 15 17  1  0  0  0  0
 16 11  1  0  0  0  0
 18 13  1  0  0  0  0
 18  2  1  0  0  0  0
 19 20  1  0  0  0  0
 20 10  1  0  0  0  0
 20 15  1  0  0  0  0
 21 23  1  0  0  0  0
 21 10  2  0  0  0  0
 23 22  2  0  0  0  0
 24 23  1  0  0  0  0
 26 25  3  0  0  0  0
M  END
>  <MODEL>
6

>  <REMARK>
 VINA RESULT:      -7.1      4.266      6.862
  Name = 
  2 active torsions:
  status: ('A' for Active; 'I' for Inactive)
    1  A    between atoms: C_7  and  C_10
    2  A    between atoms: C_21  and  C_26
                            x       y       z     vdW  Elec       q    Type
                         _______ _______ _______ _____ _____    ______ ____

>  <TORSDO>
F 2

$$$$
=
 OpenBabel11042410553D

 26 31  0  0  1  0  0  0  0  0999 V2000
  185.1660  178.3140  143.8210 C   0  0  2  0  0  3  0  0  0  0  0  0
  187.9540  178.9360  139.8480 O   0  0  0  0  0  1  0  0  0  0  0  0
  191.5290  177.7590  141.8720 O   0  0  0  0  0  0  0  0  0  0  0  0
  184.8180  178.7440  142.4240 C   0  0  2  0  0  3  0  0  0  0  0  0
  189.5590  176.2520  140.0170 O   0  0  0  0  0  1  0  0  0  0  0  0
  185.0150  177.4740  141.6460 C   0  0  0  0  0  2  0  0  0  0  0  0
  190.3080  177.2530  142.2040 C   0  0  2  0  0  0  0  0  0  0  0  0
  183.8850  178.8510  145.1380 S   0  0  0  0  0  0  0  0  0  0  0  0
  185.8520  178.6940  141.2720 C   0  0  2  0  0  0  0  0  0  0  0  0
  188.3680  177.7310  145.4290 N   0  0  0  0  0  0  0  0  0  0  0  0
  186.2860  178.3860  145.9780 C   0  0  0  0  0  0  0  0  0  0  0  0
  191.6460  176.4970  142.5530 C   0  0  0  0  0  2  0  0  0  0  0  0
  188.1500  177.4780  141.6630 C   0  0  1  0  0  3  0  0  0  0  0  0
  189.4750  177.3310  140.9400 C   0  0  2  0  0  3  0  0  0  0  0  0
  188.3420  178.1480  142.9930 N   0  0  0  0  0  0  0  0  0  0  0  0
  185.1100  178.5240  146.5080 C   0  0  0  0  0  2  0  0  0  0  0  0
  189.7470  178.3710  143.1100 C   0  0  0  0  0  2  0  0  0  0  0  0
  187.1260  178.1160  140.6840 C   0  0  2  0  0  3  0  0  0  0  0  0
  186.4310  178.3920  144.5420 C   0  0  0  0  0  0  0  0  0  0  0  0
  187.6540  177.9040  144.2330 C   0  0  0  0  0  0  0  0  0  0  0  0
  187.6130  177.9430  146.4900 C   0  0  2  0  0  3  0  0  0  0  0  0
  187.7220  177.9740  148.8700 N   0  0  0  0  0  2  0  0  0  0  0  0
  188.2930  177.6970  147.7430 C   0  0  0  0  0  0  0  0  0  0  0  0
  189.6640  177.2270  147.7660 C   0  0  0  0  0  1  0  0  0  0  0  0
  185.0940  179.5440  140.2820 C   0  0  0  0  0  0  0  0  0  0  0  0
  184.4480  180.0610  139.4590 N   0  0  0  0  0  0  0  0  0  0  0  0
  1 19  1  1  0  0  0
  1  8  1  0  0  0  0
  3  7  1  0  0  0  0
  3 12  1  0  0  0  0
  4  6  1  6  0  0  0
  4  1  1  0  0  0  0
  7 12  1  1  0  0  0
  7 17  1  0  0  0  0
  8 16  1  0  0  0  0
  9 25  1  6  0  0  0
  9  6  1  0  0  0  0
  9  4  1  0  0  0  0
 10 21  1  0  0  0  0
 11 21  1  0  0  0  0
 11 16  1  0  0  0  0
 13 15  1  1  0  0  0
 14  5  1  1  0  0  0
 14 13  1  0  0  0  0
 14  7  1  0  0  0  0
 15 17  1  0  0  0  0
 15 20  1  0  0  0  0
 18  2  1  1  0  0  0
 18  9  1  0  0  0  0
 18 13  1  0  0  0  0
 19 11  2  0  0  0  0
 20 19  1  0  0  0  0
 20 10  2  0  0  0  0
 21 23  1  1  0  0  0
 23 24  1  0  0  0  0
 23 22  2  0  0  0  0
 26 25  3  0  0  0  0
M  END
>  <MODEL>
7

>  <REMARK>
 VINA RESULT:      -7.1      2.264      5.377
  Name = 
  2 active torsions:
  status: ('A' for Active; 'I' for Inactive)
    1  A    between atoms: C_7  and  C_10
    2  A    between atoms: C_21  and  C_26
                            x       y       z     vdW  Elec       q    Type
                         _______ _______ _______ _____ _____    ______ ____

>  <TORSDO>
F 2

$$$$
=
 OpenBabel11042410553D

 26 31  0  0  1  0  0  0  0  0999 V2000
  185.6500  178.7010  145.2220 C   0  0  2  0  0  3  0  0  0  0  0  0
  189.9270  176.3770  145.7200 O   0  0  0  0  0  1  0  0  0  0  0  0
  190.7080  176.4020  141.5190 O   0  0  0  0  0  0  0  0  0  0  0  0
  186.3740  178.2080  146.4450 C   0  0  2  0  0  3  0  0  0  0  0  0
  191.6410  178.2140  143.8500 O   0  0  0  0  0  1  0  0  0  0  0  0
  187.5430  179.1490  146.5180 C   0  0  0  0  0  2  0  0  0  0  0  0
  189.9960  177.3900  142.1290 C   0  0  2  0  0  0  0  0  0  0  0  0
  183.7680  178.9370  145.4810 S   0  0  0  0  0  0  0  0  0  0  0  0
  187.8190  177.6550  146.3710 C   0  0  2  0  0  0  0  0  0  0  0  0
  186.3310  178.2610  141.6850 N   0  0  0  0  0  0  0  0  0  0  0  0
  184.5680  178.5700  143.0490 C   0  0  0  0  0  0  0  0  0  0  0  0
  190.7170  177.6150  140.7460 C   0  0  0  0  0  2  0  0  0  0  0  0
  189.1850  177.9320  144.1420 C   0  0  1  0  0  3  0  0  0  0  0  0
  190.4920  177.4270  143.5610 C   0  0  2  0  0  3  0  0  0  0  0  0
  188.0230  177.4770  143.3060 N   0  0  2  0  0  0  0  0  0  0  0  0
  183.4900  178.9910  143.6360 C   0  0  0  0  0  2  0  0  0  0  0  0
  188.5930  176.7500  142.2190 C   0  0  0  0  0  2  0  0  0  0  0  0
  189.1550  177.5840  145.6550 C   0  0  2  0  0  3  0  0  0  0  0  0
  185.7390  178.2630  143.8360 C   0  0  0  0  0  0  0  0  0  0  0  0
  186.8020  178.1770  143.0040 C   0  0  2  0  0  3  0  0  0  0  0  0
  185.0430  178.5430  141.6380 C   0  0  0  0  0  0  0  0  0  0  0  0
  184.9190  179.7180  139.5690 N   0  0  0  0  0  2  0  0  0  0  0  0
  184.5370  178.7160  140.2930 C   0  0  0  0  0  0  0  0  0  0  0  0
  183.5200  177.8320  139.7600 C   0  0  0  0  0  1  0  0  0  0  0  0
  187.8590  177.0100  147.7350 C   0  0  0  0  0  0  0  0  0  0  0  0
  187.9650  176.6480  148.8390 N   0  0  0  0  0  0  0  0  0  0  0  0
  1 19  1  6  0  0  0
  1  8  1  0  0  0  0
  1  4  1  0  0  0  0
  3  7  1  0  0  0  0
  4  6  1  1  0  0  0
  7 12  1  6  0  0  0
  7 17  1  0  0  0  0
  7 14  1  0  0  0  0
  9  4  1  0  0  0  0
  9  6  1  0  0  0  0
  9 25  1  1  0  0  0
 10 20  1  0  0  0  0
 11 16  1  0  0  0  0
 11 19  2  0  0  0  0
 12  3  1  0  0  0  0
 13 18  1  0  0  0  0
 14  5  1  0  0  0  0
 14 13  1  0  0  0  0
 15 13  1  0  0  0  0
 16  8  1  0  0  0  0
 17 15  1  0  0  0  0
 18  2  1  0  0  0  0
 18  9  1  0  0  0  0
 20 15  1  0  0  0  0
 20 19  1  0  0  0  0
 21 10  2  0  0  0  0
 21 11  1  0  0  0  0
 22 23  2  0  0  0  0
 23 21  1  0  0  0  0
 24 23  1  0  0  0  0
 25 26  3  0  0  0  0
M  END
>  <MODEL>
8

>  <REMARK>
 VINA RESULT:      -7.0      2.327      3.194
  Name = 
  2 active torsions:
  status: ('A' for Active; 'I' for Inactive)
    1  A    between atoms: C_7  and  C_10
    2  A    between atoms: C_21  and  C_26
                            x       y       z     vdW  Elec       q    Type
                         _______ _______ _______ _____ _____    ______ ____

>  <TORSDO>
F 2

$$$$
=
 OpenBabel11042410553D

 26 31  0  0  1  0  0  0  0  0999 V2000
  187.1840  177.4920  145.2790 C   0  0  2  0  0  3  0  0  0  0  0  0
  188.0860  179.0310  140.7220 O   0  0  0  0  0  1  0  0  0  0  0  0
  192.2230  177.9780  140.9230 O   0  0  0  0  0  0  0  0  0  0  0  0
  186.2790  178.0880  144.2370 C   0  0  2  0  0  3  0  0  0  0  0  0
  189.7360  176.5560  139.7450 O   0  0  0  0  0  1  0  0  0  0  0  0
  186.1980  176.9830  143.2220 C   0  0  0  0  0  2  0  0  0  0  0  0
  191.2650  177.2900  141.6080 C   0  0  2  0  0  0  0  0  0  0  0  0
  186.5260  177.6700  147.0680 S   0  0  0  0  0  0  0  0  0  0  0  0
  186.7570  178.3340  142.7840 C   0  0  2  0  0  0  0  0  0  0  0  0
  190.7850  177.0430  145.3630 N   0  0  0  0  0  0  0  0  0  0  0  0
  189.0790  177.3620  146.7960 C   0  0  0  0  0  0  0  0  0  0  0  0
  192.6610  176.6490  141.2560 C   0  0  0  0  0  2  0  0  0  0  0  0
  189.0660  177.3450  142.0090 C   0  0  1  0  0  3  0  0  0  0  0  0
  189.9880  177.4640  140.8100 C   0  0  2  0  0  3  0  0  0  0  0  0
  189.7530  177.8220  143.2560 N   0  0  0  0  0  0  0  0  0  0  0  0
  188.2150  177.2810  147.7610 C   0  0  0  0  0  2  0  0  0  0  0  0
  191.0730  178.1850  142.8520 C   0  0  0  0  0  2  0  0  0  0  0  0
  187.7060  178.0030  141.6470 C   0  0  2  0  0  3  0  0  0  0  0  0
  188.6270  177.6040  145.4460 C   0  0  0  0  0  0  0  0  0  0  0  0
  189.6390  177.3130  144.5970 C   0  0  0  0  0  0  0  0  0  0  0  0
  190.5170  177.0020  146.6540 C   0  0  2  0  0  3  0  0  0  0  0  0
  192.0350  177.4090  148.4450 N   0  0  0  0  0  2  0  0  0  0  0  0
  191.6580  176.6470  147.4700 C   0  0  0  0  0  0  0  0  0  0  0  0
  192.4650  175.4850  147.1560 C   0  0  0  0  0  1  0  0  0  0  0  0
  185.6250  179.2330  142.3480 C   0  0  0  0  0  0  0  0  0  0  0  0
  184.6930  179.7970  141.9310 N   0  0  0  0  0  0  0  0  0  0  0  0
  1 19  1  1  0  0  0
  1  8  1  0  0  0  0
  3 12  1  0  0  0  0
  3  7  1  0  0  0  0
  4  6  1  6  0  0  0
  4  1  1  0  0  0  0
  7 12  1  1  0  0  0
  7 17  1  0  0  0  0
  8 16  1  0  0  0  0
  9 25  1  6  0  0  0
  9  6  1  0  0  0  0
  9  4  1  0  0  0  0
 10 21  1  0  0  0  0
 11 16  1  0  0  0  0
 13 15  1  1  0  0  0
 14  5  1  6  0  0  0
 14  7  1  0  0  0  0
 14 13  1  0  0  0  0
 15 20  1  0  0  0  0
 17 15  1  0  0  0  0
 18  2  1  1  0  0  0
 18 13  1  0  0  0  0
 18  9  1  0  0  0  0
 19 11  2  0  0  0  0
 20 10  2  0  0  0  0
 20 19  1  0  0  0  0
 21 11  1  0  0  0  0
 21 23  1  1  0  0  0
 23 22  2  0  0  0  0
 24 23  1  0  0  0  0
 26 25  3  0  0  0  0
M  END
>  <MODEL>
9

>  <REMARK>
 VINA RESULT:      -6.9      1.636      5.264
  Name = 
  2 active torsions:
  status: ('A' for Active; 'I' for Inactive)
    1  A    between atoms: C_7  and  C_10
    2  A    between atoms: C_21  and  C_26
                            x       y       z     vdW  Elec       q    Type
                         _______ _______ _______ _____ _____    ______ ____

>  <TORSDO>
F 2

$$$$
