=
 OpenBabel11032421063D

 59 69  0  0  1  0  0  0  0  0999 V2000
  184.7190  176.1710  137.3560 C   0  0  1  0  0  3  0  0  0  0  0  0
  181.9180  177.9660  137.6660 C   0  0  0  0  0  2  0  0  0  0  0  0
  183.5460  173.8820  137.4870 C   0  0  0  0  0  2  0  0  0  0  0  0
  179.9430  178.7760  134.5950 C   0  0  0  0  0  2  0  0  0  0  0  0
  190.3090  175.7630  138.9630 F   0  0  0  0  0  0  0  0  0  0  0  0
  183.0420  180.6540  138.6350 C   0  0  0  0  0  2  0  0  0  0  0  0
  179.3690  180.6250  136.4730 C   0  0  0  0  0  2  0  0  0  0  0  0
  188.3240  175.0940  135.7830 C   0  0  2  0  0  3  0  0  0  0  0  0
  183.9940  176.8900  138.5080 C   0  0  0  0  0  2  0  0  0  0  0  0
  179.7000  181.9020  137.2390 C   0  0  0  0  0  2  0  0  0  0  0  0
  189.7410  177.8010  136.2250 C   0  0  0  0  0  2  0  0  0  0  0  0
  183.8680  175.1160  136.6150 C   0  0  1  0  0  3  0  0  0  0  0  0
  186.7320  177.0460  136.5710 C   0  0  2  0  0  3  0  0  0  0  0  0
  181.5340  180.8590  138.6300 C   0  0  0  0  0  2  0  0  0  0  0  0
  187.4200  176.2920  135.4150 C   0  0  0  0  0  2  0  0  0  0  0  0
  189.5310  176.1080  137.8790 C   0  0  2  0  0  0  0  0  0  0  0  0
  184.6560  173.3340  138.1850 O   0  0  0  0  0  0  0  0  0  0  0  0
  190.4010  176.5310  136.7250 C   0  0  1  0  0  3  0  0  0  0  0  0
  187.2100  176.7620  137.8720 O   0  0  0  0  0  0  0  0  0  0  0  0
  183.3600  178.2160  138.0790 C   0  0  2  0  0  3  0  0  0  0  0  0
  187.5770  173.8190  136.0500 C   0  0  0  0  0  0  0  0  0  0  0  0
  183.4260  179.2820  139.1860 C   0  0  1  0  0  3  0  0  0  0  0  0
  186.5460  173.8960  136.8790 C   0  0  0  0  0  3  0  0  0  0  0  0
  185.3200  177.0770  136.4560 O   0  0  0  0  0  0  0  0  0  0  0  0
  185.0960  172.0020  136.1690 C   0  0  0  0  0  3  0  0  0  0  0  0
  187.2700  171.5670  135.1020 N   0  0  0  0  0  0  0  0  0  0  0  0
  188.5350  177.2310  138.0410 C   0  0  2  0  0  3  0  0  0  0  0  0
  181.7780  178.0370  136.1520 C   0  0  2  0  0  3  0  0  0  0  0  0
  188.0590  172.5420  135.4650 C   0  0  0  0  0  0  0  0  0  0  0  0
  180.3140  177.8830  135.7750 C   0  0  0  0  0  2  0  0  0  0  0  0
  185.8430  171.4430  135.2160 C   0  0  0  0  0  3  0  0  0  0  0  0
  181.1690  181.9650  137.6480 C   0  0  2  0  0  3  0  0  0  0  0  0
  180.2900  180.5490  134.9010 S   0  0  0  0  0  0  0  0  0  0  0  0
  182.6260  175.6680  135.9600 C   0  0  0  0  0  0  0  0  0  0  0  0
  189.6030  175.2230  136.6510 C   0  0  2  0  0  3  0  0  0  0  0  0
  181.6110  174.9390  135.7930 O   0  0  0  0  0  0  0  0  0  0  0  0
  188.8860  178.3180  137.2130 O   0  0  0  0  0  0  0  0  0  0  0  0
  189.9610  171.3170  134.5950 O   0  0  0  0  0  1  0  0  0  0  0  0
  189.4510  172.4290  135.1780 N   0  0  0  0  0  2  0  0  0  0  0  0
  182.6010  177.0220  135.5020 N   0  0  0  0  0  2  0  0  0  0  0  0
  185.6460  172.8000  137.3150 C   0  0  2  0  0  3  0  0  0  0  0  0
  182.2630  184.1280  137.5670 N   0  0  0  0  0  2  0  0  0  0  0  0
  181.4990  183.3170  138.2020 C   0  0  0  0  0  3  0  0  0  0  0  0
  184.8250  179.3870  139.7950 C   0  0  0  0  0  2  0  0  0  0  0  0
  184.7480  179.7050  141.1800 O   0  0  0  0  0  0  0  0  0  0  0  0
  184.9420  178.7410  142.1660 C   0  0  0  0  0  0  0  0  0  0  0  0
  186.1790  178.6730  142.8810 N   0  0  0  0  0  2  0  0  0  0  0  0
  184.0240  177.9130  142.4060 O   0  0  0  0  0  0  0  0  0  0  0  0
  188.6890  177.7100  144.5670 N   0  0  2  0  0  0  0  0  0  0  0  0
  188.9170  178.4210  146.8050 N   0  0  0  0  0  2  0  0  0  0  0  0
  187.3270  178.0050  144.9030 C   0  0  2  0  0  0  0  0  0  0  0  0
  187.3340  176.6450  142.9830 O   0  0  0  0  0  0  0  0  0  0  0  0
  187.5590  177.9150  146.4130 C   0  0  2  0  0  0  0  0  0  0  0  0
  186.8120  176.8390  145.8270 C   0  0  0  0  0  2  0  0  0  0  0  0
  186.5230  177.5350  143.7200 C   0  0  2  0  0  3  0  0  0  0  0  0
  188.5760  176.5750  143.6540 C   0  0  1  0  0  3  0  0  0  0  0  0
  188.8660  177.2980  145.9570 C   0  0  1  0  0  3  0  0  0  0  0  0
  189.2320  177.5350  141.6350 C   0  0  0  0  0  1  0  0  0  0  0  0
  189.6550  176.6250  142.6820 N   0  0  0  0  0  2  0  0  0  0  0  0
  1  9  1  1  0  0  0
  3 17  1  0  0  0  0
  4 33  1  0  0  0  0
  4 30  1  0  0  0  0
  6 22  1  0  0  0  0
  7 10  1  0  0  0  0
  8 15  1  1  0  0  0
  8 21  1  0  0  0  0
  8 35  1  0  0  0  0
 10 32  1  0  0  0  0
 11 37  1  0  0  0  0
 12  1  1  0  0  0  0
 12  3  1  1  0  0  0
 13 15  1  6  0  0  0
 13 19  1  0  0  0  0
 14  6  1  0  0  0  0
 16 27  1  0  0  0  0
 16  5  1  1  0  0  0
 18 11  1  6  0  0  0
 18 16  1  0  0  0  0
 19 27  1  0  0  0  0
 20  2  1  1  0  0  0
 20  9  1  0  0  0  0
 20 22  1  0  0  0  0
 21 23  2  0  0  0  0
 22 44  1  6  0  0  0
 23 41  1  0  0  0  0
 24 13  1  0  0  0  0
 24  1  1  0  0  0  0
 25 41  1  0  0  0  0
 26 31  1  0  0  0  0
 26 29  2  0  0  0  0
 27 37  1  6  0  0  0
 28 30  1  1  0  0  0
 28  2  1  0  0  0  0
 29 21  1  0  0  0  0
 31 25  2  0  0  0  0
 32 43  1  1  0  0  0
 32 14  1  0  0  0  0
 33  7  1  0  0  0  0
 34 12  1  0  0  0  0
 35 18  1  0  0  0  0
 35 16  1  0  0  0  0
 36 34  2  0  0  0  0
 38 39  1  0  0  0  0
 39 29  1  0  0  0  0
 40 34  1  0  0  0  0
 40 28  1  0  0  0  0
 41 17  1  0  0  0  0
 42 43  2  0  0  0  0
 44 45  1  0  0  0  0
 45 46  1  0  0  0  0
 46 48  2  0  0  0  0
 46 47  1  0  0  0  0
 47 55  1  0  0  0  0
 49 51  1  0  0  0  0
 49 57  1  0  0  0  0
 51 54  1  0  0  0  0
 51 53  1  0  0  0  0
 52 56  1  0  0  0  0
 52 55  1  0  0  0  0
 53 50  1  0  0  0  0
 54 53  1  0  0  0  0
 55 51  1  0  0  0  0
 56 49  1  0  0  0  0
 57 53  1  0  0  0  0
 57 50  1  0  0  0  0
 58 59  1  0  0  0  0
 59 56  1  0  0  0  0
M  END
>  <MODEL>
1

>  <REMARK>
 VINA RESULT:      -8.9      0.000      0.000
  Name = 
  6 active torsions:
  status: ('A' for Active; 'I' for Inactive)
    1  A    between atoms: C_13  and  O_23
    2  A    between atoms: O_23  and  C_57
    3  A    between atoms: N_27  and  C_40
    4  A    between atoms: C_33  and  C_57
    5  A    between atoms: N_37  and  C_43
    6  A    between atoms: C_46  and  C_49
                            x       y       z     vdW  Elec       q    Type
                         _______ _______ _______ _____ _____    ______ ____

>  <TORSDO>
F 6

$$$$
=
 OpenBabel11032421063D

 59 69  0  0  1  0  0  0  0  0999 V2000
  184.5310  176.0340  137.3230 C   0  0  1  0  0  3  0  0  0  0  0  0
  181.6460  177.6900  137.6420 C   0  0  0  0  0  2  0  0  0  0  0  0
  183.4840  173.6930  137.5530 C   0  0  0  0  0  2  0  0  0  0  0  0
  179.5650  178.2950  134.5940 C   0  0  0  0  0  2  0  0  0  0  0  0
  190.1690  175.9700  138.8100 F   0  0  0  0  0  0  0  0  0  0  0  0
  182.6480  180.4630  138.4990 C   0  0  0  0  0  2  0  0  0  0  0  0
  178.9350  180.1730  136.4250 C   0  0  0  0  0  2  0  0  0  0  0  0
  188.1530  175.0960  135.7000 C   0  0  2  0  0  3  0  0  0  0  0  0
  183.7940  176.7520  138.4680 C   0  0  0  0  0  2  0  0  0  0  0  0
  179.2140  181.4890  137.1430 C   0  0  0  0  0  2  0  0  0  0  0  0
  189.4340  177.8860  136.0230 C   0  0  0  0  0  2  0  0  0  0  0  0
  183.7210  174.9130  136.6360 C   0  0  1  0  0  3  0  0  0  0  0  0
  186.4770  176.9870  136.4630 C   0  0  2  0  0  3  0  0  0  0  0  0
  181.1320  180.5890  138.5230 C   0  0  0  0  0  2  0  0  0  0  0  0
  187.1780  176.2320  135.3160 C   0  0  0  0  0  2  0  0  0  0  0  0
  189.3490  176.2390  137.7350 C   0  0  2  0  0  0  0  0  0  0  0  0
  184.6360  173.2260  138.2420 O   0  0  0  0  0  0  0  0  0  0  0  0
  190.1710  176.6690  136.5470 C   0  0  1  0  0  3  0  0  0  0  0  0
  186.9980  176.7700  137.7610 O   0  0  0  0  0  0  0  0  0  0  0  0
  183.0810  178.0280  138.0120 C   0  0  2  0  0  3  0  0  0  0  0  0
  187.4800  173.7920  136.0250 C   0  0  0  0  0  0  0  0  0  0  0  0
  183.1160  179.1320  139.0830 C   0  0  1  0  0  3  0  0  0  0  0  0
  186.4650  173.8430  136.8750 C   0  0  0  0  0  3  0  0  0  0  0  0
  185.0630  176.9410  136.3810 O   0  0  0  0  0  0  0  0  0  0  0  0
  185.1020  171.8530  136.2580 C   0  0  0  0  0  3  0  0  0  0  0  0
  187.2710  171.4980  135.1550 N   0  0  0  0  0  0  0  0  0  0  0  0
  188.3000  177.3130  137.8840 C   0  0  2  0  0  3  0  0  0  0  0  0
  181.4690  177.7040  136.1290 C   0  0  2  0  0  3  0  0  0  0  0  0
  188.0160  172.5240  135.4680 C   0  0  0  0  0  0  0  0  0  0  0  0
  180.0080  177.4620  135.7920 C   0  0  0  0  0  2  0  0  0  0  0  0
  185.8560  171.3040  135.3070 C   0  0  0  0  0  3  0  0  0  0  0  0
  180.6870  181.6420  137.5160 C   0  0  2  0  0  3  0  0  0  0  0  0
  179.8250  180.0930  134.8360 S   0  0  0  0  0  0  0  0  0  0  0  0
  182.4370  175.3770  135.9930 C   0  0  0  0  0  0  0  0  0  0  0  0
  189.4420  175.3200  136.5340 C   0  0  2  0  0  3  0  0  0  0  0  0
  181.4590  174.5910  135.8730 O   0  0  0  0  0  0  0  0  0  0  0  0
  188.5750  178.3900  137.0140 O   0  0  0  0  0  0  0  0  0  0  0  0
  189.9610  171.3730  134.5940 O   0  0  0  0  0  1  0  0  0  0  0  0
  189.4060  172.4740  135.1530 N   0  0  0  0  0  2  0  0  0  0  0  0
  182.3310  176.7120  135.4930 N   0  0  0  0  0  2  0  0  0  0  0  0
  185.6340  172.7170  137.3660 C   0  0  2  0  0  3  0  0  0  0  0  0
  181.2700  183.9770  137.2170 N   0  0  0  0  0  2  0  0  0  0  0  0
  180.9570  183.0270  138.0190 C   0  0  0  0  0  3  0  0  0  0  0  0
  184.5200  179.3290  139.6560 C   0  0  0  0  0  2  0  0  0  0  0  0
  184.5650  178.9380  141.0240 O   0  0  0  0  0  0  0  0  0  0  0  0
  185.6740  179.1980  141.8250 C   0  0  0  0  0  0  0  0  0  0  0  0
  186.8960  178.4820  141.6280 N   0  0  0  0  0  2  0  0  0  0  0  0
  185.5820  180.0560  142.7420 O   0  0  0  0  0  0  0  0  0  0  0  0
  188.3710  176.4380  143.5550 N   0  0  2  0  0  0  0  0  0  0  0  0
  190.2080  175.2020  142.7380 N   0  0  0  0  0  2  0  0  0  0  0  0
  188.8130  177.2770  142.4810 C   0  0  2  0  0  0  0  0  0  0  0  0
  187.4380  178.5560  143.8990 O   0  0  0  0  0  0  0  0  0  0  0  0
  190.2170  176.6710  142.4310 C   0  0  2  0  0  0  0  0  0  0  0  0
  190.1250  178.0000  142.9650 C   0  0  0  0  0  2  0  0  0  0  0  0
  187.9810  178.5270  142.5960 C   0  0  2  0  0  3  0  0  0  0  0  0
  187.8880  177.3870  144.5540 C   0  0  1  0  0  3  0  0  0  0  0  0
  189.7720  176.0770  143.7530 C   0  0  1  0  0  3  0  0  0  0  0  0
  186.2360  177.8430  146.1320 C   0  0  0  0  0  1  0  0  0  0  0  0
  186.7890  176.7950  145.2960 N   0  0  0  0  0  2  0  0  0  0  0  0
  1  9  1  1  0  0  0
  3 17  1  0  0  0  0
  4 33  1  0  0  0  0
  4 30  1  0  0  0  0
  6 14  1  0  0  0  0
  6 22  1  0  0  0  0
  7 10  1  0  0  0  0
  8 15  1  1  0  0  0
  8 21  1  0  0  0  0
  8 35  1  0  0  0  0
 10 32  1  0  0  0  0
 11 37  1  0  0  0  0
 12  1  1  0  0  0  0
 12  3  1  1  0  0  0
 13 15  1  6  0  0  0
 13 19  1  0  0  0  0
 16 27  1  0  0  0  0
 16  5  1  1  0  0  0
 18 11  1  6  0  0  0
 18 16  1  0  0  0  0
 19 27  1  0  0  0  0
 20  2  1  1  0  0  0
 20  9  1  0  0  0  0
 20 22  1  0  0  0  0
 21 23  2  0  0  0  0
 22 44  1  6  0  0  0
 23 41  1  0  0  0  0
 24 13  1  0  0  0  0
 24  1  1  0  0  0  0
 25 41  1  0  0  0  0
 26 31  1  0  0  0  0
 26 29  2  0  0  0  0
 27 37  1  6  0  0  0
 28 30  1  1  0  0  0
 28  2  1  0  0  0  0
 29 21  1  0  0  0  0
 31 25  2  0  0  0  0
 32 43  1  1  0  0  0
 32 14  1  0  0  0  0
 33  7  1  0  0  0  0
 34 12  1  0  0  0  0
 35 18  1  0  0  0  0
 35 16  1  0  0  0  0
 36 34  2  0  0  0  0
 38 39  1  0  0  0  0
 39 29  1  0  0  0  0
 40 34  1  0  0  0  0
 40 28  1  0  0  0  0
 41 17  1  0  0  0  0
 42 43  2  0  0  0  0
 44 45  1  0  0  0  0
 45 46  1  0  0  0  0
 46 48  2  0  0  0  0
 47 46  1  0  0  0  0
 47 55  1  0  0  0  0
 49 57  1  0  0  0  0
 49 56  1  0  0  0  0
 50 57  1  0  0  0  0
 51 55  1  0  0  0  0
 51 54  1  0  0  0  0
 51 49  1  0  0  0  0
 52 56  1  0  0  0  0
 53 51  1  0  0  0  0
 53 50  1  0  0  0  0
 53 54  1  0  0  0  0
 53 57  1  0  0  0  0
 55 52  1  0  0  0  0
 56 59  1  0  0  0  0
 59 58  1  0  0  0  0
M  END
>  <MODEL>
2

>  <REMARK>
 VINA RESULT:      -8.2      0.873      1.671
  Name = 
  6 active torsions:
  status: ('A' for Active; 'I' for Inactive)
    1  A    between atoms: C_13  and  O_23
    2  A    between atoms: O_23  and  C_57
    3  A    between atoms: N_27  and  C_40
    4  A    between atoms: C_33  and  C_57
    5  A    between atoms: N_37  and  C_43
    6  A    between atoms: C_46  and  C_49
                            x       y       z     vdW  Elec       q    Type
                         _______ _______ _______ _____ _____    ______ ____

>  <TORSDO>
F 6

$$$$
=
 OpenBabel11032421063D

 59 69  0  0  1  0  0  0  0  0999 V2000
  183.9610  178.2820  139.1460 C   0  0  1  0  0  3  0  0  0  0  0  0
  185.3530  176.7820  136.5050 C   0  0  0  0  0  2  0  0  0  0  0  0
  181.9980  179.3030  137.8290 C   0  0  0  0  0  2  0  0  0  0  0  0
  184.1850  173.3600  135.5500 C   0  0  0  0  0  2  0  0  0  0  0  0
  185.0370  181.3240  144.0040 F   0  0  0  0  0  0  0  0  0  0  0  0
  188.2370  176.4050  137.4910 C   0  0  0  0  0  2  0  0  0  0  0  0
  186.6860  173.6890  134.5950 C   0  0  0  0  0  2  0  0  0  0  0  0
  182.5710  178.6140  142.9660 C   0  0  2  0  0  3  0  0  0  0  0  0
  185.1100  178.6070  138.1750 C   0  0  0  0  0  2  0  0  0  0  0  0
  188.2000  173.6970  134.7810 C   0  0  0  0  0  2  0  0  0  0  0  0
  185.2160  177.8890  144.3840 C   0  0  0  0  0  2  0  0  0  0  0  0
  182.5950  178.0310  138.4710 C   0  0  1  0  0  3  0  0  0  0  0  0
  184.4710  177.7420  141.3550 C   0  0  2  0  0  3  0  0  0  0  0  0
  188.2550  175.8730  136.0660 C   0  0  0  0  0  2  0  0  0  0  0  0
  183.2870  177.4230  142.2900 C   0  0  0  0  0  2  0  0  0  0  0  0
  184.6660  180.0620  143.5920 C   0  0  2  0  0  0  0  0  0  0  0  0
  182.0240  180.4610  138.6520 O   0  0  0  0  0  0  0  0  0  0  0  0
  184.4870  179.1570  144.7830 C   0  0  1  0  0  3  0  0  0  0  0  0
  184.9800  179.0600  141.4220 O   0  0  0  0  0  0  0  0  0  0  0  0
  185.9270  177.3720  137.7830 C   0  0  2  0  0  3  0  0  0  0  0  0
  181.5720  179.3110  142.0860 C   0  0  0  0  0  0  0  0  0  0  0  0
  187.4210  177.6910  137.6060 C   0  0  1  0  0  3  0  0  0  0  0  0
  181.9800  179.6420  140.8700 C   0  0  0  0  0  3  0  0  0  0  0  0
  184.2960  177.2430  140.0410 O   0  0  0  0  0  0  0  0  0  0  0  0
  179.8680  179.7040  139.5550 C   0  0  0  0  0  3  0  0  0  0  0  0
  179.1470  179.6940  141.9060 N   0  0  0  0  0  0  0  0  0  0  0  0
  185.5950  179.3060  142.6730 C   0  0  2  0  0  3  0  0  0  0  0  0
  184.5840  175.5030  136.8080 C   0  0  2  0  0  3  0  0  0  0  0  0
  180.2370  179.6710  142.6250 C   0  0  0  0  0  0  0  0  0  0  0  0
  184.1080  174.8830  135.5060 C   0  0  0  0  0  2  0  0  0  0  0  0
  178.9630  179.4580  140.5010 C   0  0  0  0  0  3  0  0  0  0  0  0
  188.6190  174.3930  136.0740 C   0  0  2  0  0  3  0  0  0  0  0  0
  185.8680  172.7380  135.9180 S   0  0  0  0  0  0  0  0  0  0  0  0
  182.5820  176.8690  137.5080 C   0  0  0  0  0  0  0  0  0  0  0  0
  183.2730  179.5870  143.9500 C   0  0  2  0  0  3  0  0  0  0  0  0
  181.7810  176.8520  136.5350 O   0  0  0  0  0  0  0  0  0  0  0  0
  186.0960  178.1570  143.3200 O   0  0  0  0  0  0  0  0  0  0  0  0
  178.9320  180.1710  144.6060 O   0  0  0  0  0  1  0  0  0  0  0  0
  180.1260  179.8900  144.0300 N   0  0  0  0  0  2  0  0  0  0  0  0
  183.4670  175.7650  137.7100 N   0  0  0  0  0  2  0  0  0  0  0  0
  181.2080  180.3330  139.8090 C   0  0  2  0  0  3  0  0  0  0  0  0
  190.5620  174.2240  137.5130 N   0  0  0  0  0  2  0  0  0  0  0  0
  190.0810  174.1910  136.3250 C   0  0  0  0  0  3  0  0  0  0  0  0
  187.9750  178.5050  138.7770 C   0  0  0  0  0  2  0  0  0  0  0  0
  187.9380  177.7440  139.9790 O   0  0  0  0  0  0  0  0  0  0  0  0
  188.9860  177.7690  140.8960 C   0  0  0  0  0  0  0  0  0  0  0  0
  188.7290  177.9790  142.2870 N   0  0  0  0  0  2  0  0  0  0  0  0
  190.1670  177.6290  140.4830 O   0  0  0  0  0  0  0  0  0  0  0  0
  190.1190  176.5290  144.7430 N   0  0  2  0  0  0  0  0  0  0  0  0
  191.9450  175.0870  144.3490 N   0  0  0  0  0  2  0  0  0  0  0  0
  190.6020  177.0310  143.4900 C   0  0  2  0  0  0  0  0  0  0  0  0
  189.2270  178.6740  144.4610 O   0  0  0  0  0  0  0  0  0  0  0  0
  191.9930  176.4130  143.6470 C   0  0  2  0  0  0  0  0  0  0  0  0
  191.9190  177.8390  143.7870 C   0  0  0  0  0  2  0  0  0  0  0  0
  189.7950  178.2760  143.2320 C   0  0  2  0  0  3  0  0  0  0  0  0
  189.6380  177.7260  145.4260 C   0  0  1  0  0  3  0  0  0  0  0  0
  191.5080  176.2170  145.0690 C   0  0  1  0  0  3  0  0  0  0  0  0
  188.8740  177.7620  147.6280 C   0  0  0  0  0  1  0  0  0  0  0  0
  188.5110  177.3810  146.2760 N   0  0  0  0  0  2  0  0  0  0  0  0
  1  9  1  6  0  0  0
  1 24  1  0  0  0  0
  2 28  1  0  0  0  0
  3 17  1  0  0  0  0
  4 33  1  0  0  0  0
  6 22  1  0  0  0  0
  7 10  1  0  0  0  0
  7 33  1  0  0  0  0
  8 15  1  6  0  0  0
  8 35  1  0  0  0  0
 10 32  1  0  0  0  0
 12  3  1  6  0  0  0
 12  1  1  0  0  0  0
 13 19  1  0  0  0  0
 13 15  1  6  0  0  0
 14 32  1  0  0  0  0
 14  6  1  0  0  0  0
 16 35  1  0  0  0  0
 16  5  1  1  0  0  0
 16 18  1  0  0  0  0
 17 41  1  0  0  0  0
 18 11  1  6  0  0  0
 20  2  1  6  0  0  0
 20  9  1  0  0  0  0
 21 29  1  0  0  0  0
 21  8  1  0  0  0  0
 22 20  1  0  0  0  0
 22 44  1  1  0  0  0
 23 21  2  0  0  0  0
 24 13  1  0  0  0  0
 25 41  1  0  0  0  0
 25 31  2  0  0  0  0
 26 29  2  0  0  0  0
 27 19  1  6  0  0  0
 27 37  1  0  0  0  0
 27 16  1  0  0  0  0
 28 30  1  6  0  0  0
 28 40  1  0  0  0  0
 29 39  1  0  0  0  0
 30  4  1  0  0  0  0
 31 26  1  0  0  0  0
 32 43  1  6  0  0  0
 34 40  1  0  0  0  0
 34 12  1  0  0  0  0
 35 18  1  0  0  0  0
 36 34  2  0  0  0  0
 37 11  1  0  0  0  0
 39 38  1  0  0  0  0
 41 23  1  0  0  0  0
 43 42  2  0  0  0  0
 44 45  1  0  0  0  0
 45 46  1  0  0  0  0
 46 47  1  0  0  0  0
 47 55  1  0  0  0  0
 48 46  2  0  0  0  0
 49 57  1  0  0  0  0
 49 56  1  0  0  0  0
 50 57  1  0  0  0  0
 51 53  1  0  0  0  0
 51 54  1  0  0  0  0
 51 49  1  0  0  0  0
 52 56  1  0  0  0  0
 53 54  1  0  0  0  0
 53 50  1  0  0  0  0
 53 57  1  0  0  0  0
 55 51  1  0  0  0  0
 55 52  1  0  0  0  0
 56 59  1  0  0  0  0
 59 58  1  0  0  0  0
M  END
>  <MODEL>
3

>  <REMARK>
 VINA RESULT:      -6.7      3.105      7.791
  Name = 
  6 active torsions:
  status: ('A' for Active; 'I' for Inactive)
    1  A    between atoms: C_13  and  O_23
    2  A    between atoms: O_23  and  C_57
    3  A    between atoms: N_27  and  C_40
    4  A    between atoms: C_33  and  C_57
    5  A    between atoms: N_37  and  C_43
    6  A    between atoms: C_46  and  C_49
                            x       y       z     vdW  Elec       q    Type
                         _______ _______ _______ _____ _____    ______ ____

>  <TORSDO>
F 6

$$$$
