=
 OpenBabel11042411313D

 36 39  0  0  1  0  0  0  0  0999 V2000
  186.2090  178.1450  145.0200 C   0  0  0  0  0  0  0  0  0  0  0  0
  185.3770  178.5890  146.0730 C   0  0  0  0  0  0  0  0  0  0  0  0
  188.0360  177.8910  146.6030 C   0  0  0  0  0  3  0  0  0  0  0  0
  184.0500  178.9350  145.8540 O   0  0  0  0  0  1  0  0  0  0  0  0
  185.8850  178.6790  147.3720 C   0  0  0  0  0  3  0  0  0  0  0  0
  187.6960  178.4270  148.8970 F   0  0  0  0  0  0  0  0  0  0  0  0
  187.5390  177.7930  145.2960 C   0  0  0  0  0  0  0  0  0  0  0  0
  187.2110  178.3340  147.6370 C   0  0  0  0  0  0  0  0  0  0  0  0
  185.7520  178.0360  143.6650 N   0  0  0  0  0  2  0  0  0  0  0  0
  185.1100  179.0930  142.8950 C   0  0  0  0  0  2  0  0  0  0  0  0
  183.8940  178.5510  142.1390 C   0  0  2  0  0  3  0  0  0  0  0  0
  183.9060  178.8830  140.6500 C   0  0  1  0  0  3  0  0  0  0  0  0
  182.6850  179.0950  142.7370 N   0  0  0  0  0  0  0  0  0  0  0  0
  180.1770  179.6030  143.3130 Cl  0  0  0  0  0  0  0  0  0  0  0  0
  185.3050  178.8400  140.0470 C   0  0  0  0  0  1  0  0  0  0  0  0
  181.0850  177.9600  141.3230 N   0  0  0  0  0  0  0  0  0  0  0  0
  183.0850  177.9150  139.9490 N   0  0  0  0  0  2  0  0  0  0  0  0
  181.4590  178.8580  142.3810 C   0  0  0  0  0  0  0  0  0  0  0  0
  181.7530  177.5250  140.2920 C   0  0  0  0  0  3  0  0  0  0  0  0
  188.3590  177.3610  144.2470 O   0  0  0  0  0  0  0  0  0  0  0  0
  190.2980  176.1310  142.5760 C   0  0  0  0  0  2  0  0  0  0  0  0
  191.0290  176.6780  144.8960 C   0  0  0  0  0  2  0  0  0  0  0  0
  190.5120  178.1050  144.6800 C   0  0  0  0  0  2  0  0  0  0  0  0
  189.3830  178.1400  143.7370 N   0  0  0  0  0  0  0  0  0  0  0  0
  191.4550  176.0760  143.5650 C   0  0  0  0  0  2  0  0  0  0  0  0
  189.8070  177.5790  142.4440 C   0  0  2  0  0  3  0  0  0  0  0  0
  188.7070  177.7260  141.3900 C   0  0  2  0  0  3  0  0  0  0  0  0
  187.7250  176.7560  141.5490 F   0  0  0  0  0  0  0  0  0  0  0  0
  189.2850  177.7200  139.9730 C   0  0  1  0  0  0  0  0  0  0  0  0
  188.3800  177.9140  138.8200 C   0  0  0  0  0  2  0  0  0  0  0  0
  189.1660  178.9690  139.3380 O   0  0  0  0  0  0  0  0  0  0  0  0
  191.6690  177.7160  140.0040 O   0  0  0  0  0  0  0  0  0  0  0  0
  190.6130  177.0920  139.7120 C   0  0  0  0  0  0  0  0  0  0  0  0
  190.6670  175.8070  139.1650 O   0  0  0  0  0  0  0  0  0  0  0  0
  191.0000  176.3180  136.8280 C   0  0  0  0  0  1  0  0  0  0  0  0
  191.4570  175.4970  138.0240 C   0  0  0  0  0  2  0  0  0  0  0  0
  1  7  2  0  0  0  0
  1  2  1  0  0  0  0
  2  5  2  0  0  0  0
  3  8  2  0  0  0  0
  4  2  1  0  0  0  0
  5  8  1  0  0  0  0
  7  3  1  0  0  0  0
  8  6  1  0  0  0  0
  9  1  1  0  0  0  0
 10  9  1  0  0  0  0
 11 13  1  0  0  0  0
 11 10  1  1  0  0  0
 12 15  1  6  0  0  0
 12 11  1  0  0  0  0
 16 18  1  0  0  0  0
 17 19  1  0  0  0  0
 17 12  1  0  0  0  0
 18 13  2  0  0  0  0
 18 14  1  0  0  0  0
 19 16  2  0  0  0  0
 20  7  1  0  0  0  0
 21 25  1  0  0  0  0
 23 22  1  0  0  0  0
 24 20  1  0  0  0  0
 24 23  1  0  0  0  0
 25 22  1  0  0  0  0
 26 27  1  6  0  0  0
 26 21  1  0  0  0  0
 26 24  1  0  0  0  0
 27 28  1  6  0  0  0
 29 33  1  6  0  0  0
 29 27  1  0  0  0  0
 30 31  1  0  0  0  0
 30 29  1  0  0  0  0
 31 29  1  0  0  0  0
 33 32  2  0  0  0  0
 34 33  1  0  0  0  0
 35 36  1  0  0  0  0
 36 34  1  0  0  0  0
M  END
>  <MODEL>
1

>  <REMARK>
 VINA RESULT:      -8.4      0.000      0.000
  Name = 
  10 active torsions:
  status: ('A' for Active; 'I' for Inactive)
    1  A    between atoms: O_2  and  C_27
    2  A    between atoms: O_2  and  C_34
    3  A    between atoms: C_3  and  N_11
    4  A    between atoms: C_5  and  C_25
    5  A    between atoms: C_8  and  C_27
    6  A    between atoms: C_8  and  C_29
    7  A    between atoms: N_11  and  C_25
    8  A    between atoms: N_20  and  O_32
    9  A    between atoms: C_29  and  C_30
   10  A    between atoms: O_32  and  C_33
                            x       y       z     vdW  Elec       q    Type
                         _______ _______ _______ _____ _____    ______ ____

>  <TORSDO>
F 10

$$$$
=
 OpenBabel11042411313D

 36 39  0  0  1  0  0  0  0  0999 V2000
  185.9460  178.0380  143.2210 C   0  0  0  0  0  0  0  0  0  0  0  0
  186.2990  178.2240  144.5760 C   0  0  0  0  0  0  0  0  0  0  0  0
  183.6500  178.6200  143.7630 C   0  0  0  0  0  3  0  0  0  0  0  0
  187.6040  178.0480  145.0180 O   0  0  0  0  0  1  0  0  0  0  0  0
  185.3250  178.6030  145.5040 C   0  0  0  0  0  3  0  0  0  0  0  0
  183.0650  179.1620  146.0060 F   0  0  0  0  0  0  0  0  0  0  0  0
  184.6170  178.2440  142.8210 C   0  0  0  0  0  0  0  0  0  0  0  0
  184.0030  178.7990  145.1000 C   0  0  0  0  0  0  0  0  0  0  0  0
  186.8960  177.6450  142.2200 N   0  0  0  0  0  2  0  0  0  0  0  0
  187.9190  178.5000  141.6330 C   0  0  0  0  0  2  0  0  0  0  0  0
  188.6860  177.7540  140.5380 C   0  0  2  0  0  3  0  0  0  0  0  0
  190.1390  177.4670  140.9020 C   0  0  1  0  0  3  0  0  0  0  0  0
  188.6490  178.5430  139.3160 N   0  0  0  0  0  0  0  0  0  0  0  0
  188.9350  179.3450  136.8360 Cl  0  0  0  0  0  0  0  0  0  0  0  0
  190.3220  177.1280  142.3770 C   0  0  0  0  0  1  0  0  0  0  0  0
  189.8750  177.0090  137.9040 N   0  0  0  0  0  0  0  0  0  0  0  0
  190.6010  176.3360  140.1210 N   0  0  0  0  0  2  0  0  0  0  0  0
  189.1760  178.2370  138.1700 C   0  0  0  0  0  0  0  0  0  0  0  0
  190.4710  176.1720  138.7060 C   0  0  0  0  0  3  0  0  0  0  0  0
  184.2740  178.0510  141.4780 O   0  0  0  0  0  0  0  0  0  0  0  0
  182.8680  177.2620  139.1400 C   0  0  0  0  0  2  0  0  0  0  0  0
  185.0530  178.4070  138.7800 C   0  0  0  0  0  2  0  0  0  0  0  0
  184.5760  179.5240  139.7130 C   0  0  0  0  0  2  0  0  0  0  0  0
  183.6360  179.0250  140.7280 N   0  0  0  0  0  0  0  0  0  0  0  0
  183.8580  177.7610  138.0950 C   0  0  0  0  0  2  0  0  0  0  0  0
  182.4700  178.4230  140.0610 C   0  0  2  0  0  3  0  0  0  0  0  0
  181.3990  178.0170  141.0790 C   0  0  2  0  0  3  0  0  0  0  0  0
  180.7750  176.8330  140.7060 F   0  0  0  0  0  0  0  0  0  0  0  0
  180.3900  179.1450  141.3070 C   0  0  1  0  0  0  0  0  0  0  0  0
  179.6700  179.2220  142.5970 C   0  0  0  0  0  2  0  0  0  0  0  0
  180.7950  180.0320  142.3200 O   0  0  0  0  0  0  0  0  0  0  0  0
  179.1220  179.2320  139.2900 O   0  0  0  0  0  0  0  0  0  0  0  0
  179.8020  179.8660  140.1420 C   0  0  0  0  0  0  0  0  0  0  0  0
  179.9950  181.2450  140.0210 O   0  0  0  0  0  0  0  0  0  0  0  0
  181.7080  181.6380  138.3640 C   0  0  0  0  0  1  0  0  0  0  0  0
  180.2620  181.8710  138.7730 C   0  0  0  0  0  2  0  0  0  0  0  0
  1  2  1  0  0  0  0
  2  4  1  0  0  0  0
  2  5  2  0  0  0  0
  3  8  2  0  0  0  0
  7  1  2  0  0  0  0
  7  3  1  0  0  0  0
  8  5  1  0  0  0  0
  8  6  1  0  0  0  0
  9  1  1  0  0  0  0
 10  9  1  0  0  0  0
 11 12  1  0  0  0  0
 11 10  1  1  0  0  0
 12 15  1  1  0  0  0
 13 11  1  0  0  0  0
 14 18  1  0  0  0  0
 16 18  1  0  0  0  0
 16 19  2  0  0  0  0
 17 12  1  0  0  0  0
 18 13  2  0  0  0  0
 19 17  1  0  0  0  0
 20  7  1  0  0  0  0
 21 26  1  0  0  0  0
 22 23  1  0  0  0  0
 23 24  1  0  0  0  0
 24 20  1  0  0  0  0
 25 22  1  0  0  0  0
 25 21  1  0  0  0  0
 26 24  1  0  0  0  0
 26 27  1  1  0  0  0
 27 28  1  6  0  0  0
 27 29  1  0  0  0  0
 29 33  1  6  0  0  0
 29 31  1  0  0  0  0
 29 30  1  0  0  0  0
 31 30  1  0  0  0  0
 32 33  2  0  0  0  0
 34 33  1  0  0  0  0
 35 36  1  0  0  0  0
 36 34  1  0  0  0  0
M  END
>  <MODEL>
2

>  <REMARK>
 VINA RESULT:      -8.2      3.849      7.811
  Name = 
  10 active torsions:
  status: ('A' for Active; 'I' for Inactive)
    1  A    between atoms: O_2  and  C_27
    2  A    between atoms: O_2  and  C_34
    3  A    between atoms: C_3  and  N_11
    4  A    between atoms: C_5  and  C_25
    5  A    between atoms: C_8  and  C_27
    6  A    between atoms: C_8  and  C_29
    7  A    between atoms: N_11  and  C_25
    8  A    between atoms: N_20  and  O_32
    9  A    between atoms: C_29  and  C_30
   10  A    between atoms: O_32  and  C_33
                            x       y       z     vdW  Elec       q    Type
                         _______ _______ _______ _____ _____    ______ ____

>  <TORSDO>
F 10

$$$$
=
 OpenBabel11042411313D

 36 39  0  0  1  0  0  0  0  0999 V2000
  188.4520  177.7640  138.5710 C   0  0  0  0  0  0  0  0  0  0  0  0
  189.2120  177.6940  137.3810 C   0  0  0  0  0  0  0  0  0  0  0  0
  190.2650  176.6700  139.7640 C   0  0  0  0  0  3  0  0  0  0  0  0
  188.7300  178.2000  136.1800 O   0  0  0  0  0  1  0  0  0  0  0  0
  190.4830  177.1140  137.3990 C   0  0  0  0  0  3  0  0  0  0  0  0
  192.2390  176.0370  138.5940 F   0  0  0  0  0  0  0  0  0  0  0  0
  188.9900  177.2530  139.7620 C   0  0  0  0  0  0  0  0  0  0  0  0
  191.0080  176.6010  138.5860 C   0  0  0  0  0  0  0  0  0  0  0  0
  187.1400  178.3420  138.6190 N   0  0  0  0  0  2  0  0  0  0  0  0
  186.1250  178.2380  137.5790 C   0  0  0  0  0  2  0  0  0  0  0  0
  184.9740  177.3370  138.0340 C   0  0  2  0  0  3  0  0  0  0  0  0
  184.0030  176.9770  136.9130 C   0  0  1  0  0  3  0  0  0  0  0  0
  184.2430  178.0070  139.0980 N   0  0  0  0  0  0  0  0  0  0  0  0
  182.5520  178.5480  141.0290 Cl  0  0  0  0  0  0  0  0  0  0  0  0
  184.7000  176.7660  135.5740 C   0  0  0  0  0  1  0  0  0  0  0  0
  182.6280  176.2590  139.5330 N   0  0  0  0  0  0  0  0  0  0  0  0
  183.3220  175.7460  137.2630 N   0  0  0  0  0  2  0  0  0  0  0  0
  183.2130  177.5560  139.7460 C   0  0  0  0  0  0  0  0  0  0  0  0
  182.6710  175.4600  138.5050 C   0  0  0  0  0  3  0  0  0  0  0  0
  188.2300  177.3200  140.9340 O   0  0  0  0  0  0  0  0  0  0  0  0
  187.5160  176.8500  143.6430 C   0  0  0  0  0  2  0  0  0  0  0  0
  185.9160  178.2120  142.3010 C   0  0  0  0  0  2  0  0  0  0  0  0
  187.0890  179.1040  141.8810 C   0  0  0  0  0  2  0  0  0  0  0  0
  188.3560  178.3580  141.8430 N   0  0  0  0  0  0  0  0  0  0  0  0
  186.1930  177.6040  143.6690 C   0  0  0  0  0  2  0  0  0  0  0  0
  188.6330  177.7920  143.1740 C   0  0  2  0  0  3  0  0  0  0  0  0
  190.0120  177.1280  143.2170 C   0  0  2  0  0  3  0  0  0  0  0  0
  189.9010  175.7470  143.3240 F   0  0  0  0  0  0  0  0  0  0  0  0
  190.8810  177.7170  144.3310 C   0  0  1  0  0  0  0  0  0  0  0  0
  191.8120  178.8210  144.0160 C   0  0  0  0  0  2  0  0  0  0  0  0
  190.5540  179.0530  144.6180 O   0  0  0  0  0  0  0  0  0  0  0  0
  191.9470  175.9650  145.5470 O   0  0  0  0  0  0  0  0  0  0  0  0
  191.1360  176.9300  145.5720 C   0  0  0  0  0  0  0  0  0  0  0  0
  190.4850  177.2880  146.7560 O   0  0  0  0  0  0  0  0  0  0  0  0
  188.5350  177.8350  148.0740 C   0  0  0  0  0  1  0  0  0  0  0  0
  189.1450  176.9040  147.0360 C   0  0  0  0  0  2  0  0  0  0  0  0
  1  9  1  0  0  0  0
  1  7  1  0  0  0  0
  2  5  1  0  0  0  0
  2  1  2  0  0  0  0
  4  2  1  0  0  0  0
  5  8  2  0  0  0  0
  7  3  2  0  0  0  0
  7 20  1  0  0  0  0
  8  6  1  0  0  0  0
  8  3  1  0  0  0  0
 10  9  1  0  0  0  0
 11 10  1  6  0  0  0
 11 13  1  0  0  0  0
 12 15  1  6  0  0  0
 12 17  1  0  0  0  0
 12 11  1  0  0  0  0
 13 18  2  0  0  0  0
 16 18  1  0  0  0  0
 17 19  1  0  0  0  0
 18 14  1  0  0  0  0
 19 16  2  0  0  0  0
 20 24  1  0  0  0  0
 21 25  1  0  0  0  0
 22 25  1  0  0  0  0
 23 22  1  0  0  0  0
 24 23  1  0  0  0  0
 24 26  1  0  0  0  0
 26 27  1  6  0  0  0
 26 21  1  0  0  0  0
 27 28  1  1  0  0  0
 27 29  1  0  0  0  0
 29 31  1  0  0  0  0
 29 33  1  1  0  0  0
 30 29  1  0  0  0  0
 30 31  1  0  0  0  0
 32 33  2  0  0  0  0
 33 34  1  0  0  0  0
 34 36  1  0  0  0  0
 36 35  1  0  0  0  0
M  END
>  <MODEL>
3

>  <REMARK>
 VINA RESULT:      -8.2      2.670      6.354
  Name = 
  10 active torsions:
  status: ('A' for Active; 'I' for Inactive)
    1  A    between atoms: O_2  and  C_27
    2  A    between atoms: O_2  and  C_34
    3  A    between atoms: C_3  and  N_11
    4  A    between atoms: C_5  and  C_25
    5  A    between atoms: C_8  and  C_27
    6  A    between atoms: C_8  and  C_29
    7  A    between atoms: N_11  and  C_25
    8  A    between atoms: N_20  and  O_32
    9  A    between atoms: C_29  and  C_30
   10  A    between atoms: O_32  and  C_33
                            x       y       z     vdW  Elec       q    Type
                         _______ _______ _______ _____ _____    ______ ____

>  <TORSDO>
F 10

$$$$
=
 OpenBabel11042411313D

 36 39  0  0  1  0  0  0  0  0999 V2000
  189.0000  176.8430  138.3940 C   0  0  0  0  0  0  0  0  0  0  0  0
  189.8460  176.6860  137.2730 C   0  0  0  0  0  0  0  0  0  0  0  0
  190.9600  176.9400  139.8290 C   0  0  0  0  0  3  0  0  0  0  0  0
  189.3340  176.5670  135.9870 O   0  0  0  0  0  1  0  0  0  0  0  0
  191.2320  176.6570  137.4450 C   0  0  0  0  0  3  0  0  0  0  0  0
  193.1330  176.7490  138.8770 F   0  0  0  0  0  0  0  0  0  0  0  0
  189.5670  176.9740  139.6710 C   0  0  0  0  0  0  0  0  0  0  0  0
  191.7890  176.7820  138.7190 C   0  0  0  0  0  0  0  0  0  0  0  0
  187.5700  176.8740  138.2870 N   0  0  0  0  0  2  0  0  0  0  0  0
  186.7730  178.0190  137.8660 C   0  0  0  0  0  2  0  0  0  0  0  0
  185.4450  177.5590  137.2580 C   0  0  2  0  0  3  0  0  0  0  0  0
  184.2390  177.8390  138.1500 C   0  0  1  0  0  3  0  0  0  0  0  0
  185.5170  176.1310  136.9920 N   0  0  0  0  0  0  0  0  0  0  0  0
  184.9630  173.6920  136.2030 Cl  0  0  0  0  0  0  0  0  0  0  0  0
  184.3570  179.1580  138.9050 C   0  0  0  0  0  1  0  0  0  0  0  0
  183.3190  175.8710  136.0170 N   0  0  0  0  0  0  0  0  0  0  0  0
  183.0500  177.9010  137.3210 N   0  0  0  0  0  2  0  0  0  0  0  0
  184.5950  175.3830  136.4680 C   0  0  0  0  0  0  0  0  0  0  0  0
  182.6470  176.9390  136.3420 C   0  0  0  0  0  3  0  0  0  0  0  0
  188.7230  177.1220  140.7770 O   0  0  0  0  0  0  0  0  0  0  0  0
  187.6180  176.9030  143.3840 C   0  0  0  0  0  2  0  0  0  0  0  0
  186.3040  178.2370  141.7380 C   0  0  0  0  0  2  0  0  0  0  0  0
  187.5770  179.0310  141.4250 C   0  0  0  0  0  2  0  0  0  0  0  0
  188.7890  178.2200  141.6190 N   0  0  0  0  0  0  0  0  0  0  0  0
  186.3530  177.7250  143.1700 C   0  0  0  0  0  2  0  0  0  0  0  0
  188.8450  177.7470  143.0120 C   0  0  2  0  0  3  0  0  0  0  0  0
  190.1610  177.0180  143.2960 C   0  0  2  0  0  3  0  0  0  0  0  0
  189.9440  175.6690  143.5470 F   0  0  0  0  0  0  0  0  0  0  0  0
  190.9380  177.6890  144.4310 C   0  0  1  0  0  0  0  0  0  0  0  0
  191.8430  178.8160  144.1220 C   0  0  0  0  0  2  0  0  0  0  0  0
  190.5430  179.0210  144.6390 O   0  0  0  0  0  0  0  0  0  0  0  0
  191.9900  176.0310  145.7840 O   0  0  0  0  0  0  0  0  0  0  0  0
  191.1470  176.9670  145.7190 C   0  0  0  0  0  0  0  0  0  0  0  0
  190.4180  177.3530  146.8480 O   0  0  0  0  0  0  0  0  0  0  0  0
  188.0440  177.7910  146.9310 C   0  0  0  0  0  1  0  0  0  0  0  0
  189.1570  176.7830  147.1730 C   0  0  0  0  0  2  0  0  0  0  0  0
  1  7  1  0  0  0  0
  2  5  1  0  0  0  0
  2  1  2  0  0  0  0
  4  2  1  0  0  0  0
  5  8  2  0  0  0  0
  7  3  2  0  0  0  0
  7 20  1  0  0  0  0
  8  6  1  0  0  0  0
  8  3  1  0  0  0  0
  9  1  1  0  0  0  0
 10  9  1  0  0  0  0
 11 10  1  1  0  0  0
 11 12  1  0  0  0  0
 12 15  1  6  0  0  0
 13 11  1  0  0  0  0
 14 18  1  0  0  0  0
 16 19  2  0  0  0  0
 16 18  1  0  0  0  0
 17 12  1  0  0  0  0
 18 13  2  0  0  0  0
 19 17  1  0  0  0  0
 20 24  1  0  0  0  0
 22 25  1  0  0  0  0
 23 24  1  0  0  0  0
 23 22  1  0  0  0  0
 24 26  1  0  0  0  0
 25 21  1  0  0  0  0
 26 27  1  6  0  0  0
 26 21  1  0  0  0  0
 27 28  1  1  0  0  0
 27 29  1  0  0  0  0
 29 31  1  0  0  0  0
 29 33  1  1  0  0  0
 30 29  1  0  0  0  0
 30 31  1  0  0  0  0
 33 32  2  0  0  0  0
 33 34  1  0  0  0  0
 34 36  1  0  0  0  0
 35 36  1  0  0  0  0
M  END
>  <MODEL>
4

>  <REMARK>
 VINA RESULT:      -8.1      3.305      6.828
  Name = 
  10 active torsions:
  status: ('A' for Active; 'I' for Inactive)
    1  A    between atoms: O_2  and  C_27
    2  A    between atoms: O_2  and  C_34
    3  A    between atoms: C_3  and  N_11
    4  A    between atoms: C_5  and  C_25
    5  A    between atoms: C_8  and  C_27
    6  A    between atoms: C_8  and  C_29
    7  A    between atoms: N_11  and  C_25
    8  A    between atoms: N_20  and  O_32
    9  A    between atoms: C_29  and  C_30
   10  A    between atoms: O_32  and  C_33
                            x       y       z     vdW  Elec       q    Type
                         _______ _______ _______ _____ _____    ______ ____

>  <TORSDO>
F 10

$$$$
=
 OpenBabel11042411313D

 36 39  0  0  1  0  0  0  0  0999 V2000
  187.7640  177.9320  138.3160 C   0  0  0  0  0  0  0  0  0  0  0  0
  188.4600  177.9200  137.0870 C   0  0  0  0  0  0  0  0  0  0  0  0
  189.7720  177.1400  139.4340 C   0  0  0  0  0  3  0  0  0  0  0  0
  187.8490  178.3090  135.9010 O   0  0  0  0  0  1  0  0  0  0  0  0
  189.7980  177.5170  137.0470 C   0  0  0  0  0  3  0  0  0  0  0  0
  191.7470  176.7350  138.1690 F   0  0  0  0  0  0  0  0  0  0  0  0
  188.4310  177.5440  139.4890 C   0  0  0  0  0  0  0  0  0  0  0  0
  190.4520  177.1260  138.2160 C   0  0  0  0  0  0  0  0  0  0  0  0
  186.3900  178.3280  138.4240 N   0  0  0  0  0  2  0  0  0  0  0  0
  185.2450  177.5770  137.9250 C   0  0  0  0  0  2  0  0  0  0  0  0
  184.0140  177.8210  138.8020 C   0  0  2  0  0  3  0  0  0  0  0  0
  182.8990  176.8030  138.5820 C   0  0  1  0  0  3  0  0  0  0  0  0
  183.4990  179.1540  138.5320 N   0  0  0  0  0  0  0  0  0  0  0  0
  182.1010  181.3720  138.6170 Cl  0  0  0  0  0  0  0  0  0  0  0  0
  183.4270  175.3970  138.3210 C   0  0  0  0  0  1  0  0  0  0  0  0
  181.6770  179.1270  140.1220 N   0  0  0  0  0  0  0  0  0  0  0  0
  182.0670  176.7570  139.7690 N   0  0  0  0  0  2  0  0  0  0  0  0
  182.4750  179.7270  139.0870 C   0  0  0  0  0  0  0  0  0  0  0  0
  181.4970  177.8780  140.4490 C   0  0  0  0  0  3  0  0  0  0  0  0
  187.7330  177.5530  140.7020 O   0  0  0  0  0  0  0  0  0  0  0  0
  187.0810  177.0200  143.4140 C   0  0  0  0  0  2  0  0  0  0  0  0
  185.4400  178.3920  142.1330 C   0  0  0  0  0  2  0  0  0  0  0  0
  186.5950  179.3050  141.7080 C   0  0  0  0  0  2  0  0  0  0  0  0
  187.8680  178.5730  141.6280 N   0  0  0  0  0  0  0  0  0  0  0  0
  185.7510  177.7600  143.4820 C   0  0  0  0  0  2  0  0  0  0  0  0
  188.1780  177.9840  142.9410 C   0  0  2  0  0  3  0  0  0  0  0  0
  189.5640  177.3330  142.9420 C   0  0  2  0  0  3  0  0  0  0  0  0
  189.4690  175.9490  143.0220 F   0  0  0  0  0  0  0  0  0  0  0  0
  190.4500  177.9060  144.0510 C   0  0  1  0  0  0  0  0  0  0  0  0
  191.7890  178.4300  143.7100 C   0  0  0  0  0  2  0  0  0  0  0  0
  190.6790  179.2840  143.8980 O   0  0  0  0  0  0  0  0  0  0  0  0
  190.8630  176.6270  146.0200 O   0  0  0  0  0  0  0  0  0  0  0  0
  190.1900  177.5430  145.4740 C   0  0  0  0  0  0  0  0  0  0  0  0
  189.2150  178.2400  146.1930 O   0  0  0  0  0  0  0  0  0  0  0  0
  188.4080  177.7940  148.4260 C   0  0  0  0  0  1  0  0  0  0  0  0
  188.1970  177.5810  146.9340 C   0  0  0  0  0  2  0  0  0  0  0  0
  1  9  1  0  0  0  0
  1  7  1  0  0  0  0
  2  1  2  0  0  0  0
  3  7  2  0  0  0  0
  4  2  1  0  0  0  0
  5  2  1  0  0  0  0
  5  8  2  0  0  0  0
  6  8  1  0  0  0  0
  7 20  1  0  0  0  0
  8  3  1  0  0  0  0
 10  9  1  0  0  0  0
 11 10  1  6  0  0  0
 12 15  1  1  0  0  0
 12 11  1  0  0  0  0
 12 17  1  0  0  0  0
 13 11  1  0  0  0  0
 13 18  2  0  0  0  0
 14 18  1  0  0  0  0
 16 19  2  0  0  0  0
 17 19  1  0  0  0  0
 18 16  1  0  0  0  0
 20 24  1  0  0  0  0
 21 25  1  0  0  0  0
 22 25  1  0  0  0  0
 23 22  1  0  0  0  0
 24 23  1  0  0  0  0
 24 26  1  0  0  0  0
 26 27  1  6  0  0  0
 26 21  1  0  0  0  0
 27 28  1  1  0  0  0
 27 29  1  0  0  0  0
 29 33  1  1  0  0  0
 30 31  1  0  0  0  0
 30 29  1  0  0  0  0
 31 29  1  0  0  0  0
 33 32  2  0  0  0  0
 33 34  1  0  0  0  0
 34 36  1  0  0  0  0
 36 35  1  0  0  0  0
M  END
>  <MODEL>
5

>  <REMARK>
 VINA RESULT:      -8.1      2.565      6.348
  Name = 
  10 active torsions:
  status: ('A' for Active; 'I' for Inactive)
    1  A    between atoms: O_2  and  C_27
    2  A    between atoms: O_2  and  C_34
    3  A    between atoms: C_3  and  N_11
    4  A    between atoms: C_5  and  C_25
    5  A    between atoms: C_8  and  C_27
    6  A    between atoms: C_8  and  C_29
    7  A    between atoms: N_11  and  C_25
    8  A    between atoms: N_20  and  O_32
    9  A    between atoms: C_29  and  C_30
   10  A    between atoms: O_32  and  C_33
                            x       y       z     vdW  Elec       q    Type
                         _______ _______ _______ _____ _____    ______ ____

>  <TORSDO>
F 10

$$$$
=
 OpenBabel11042411313D

 36 39  0  0  1  0  0  0  0  0999 V2000
  185.8690  178.1020  143.1350 C   0  0  0  0  0  0  0  0  0  0  0  0
  186.1930  178.3170  144.4930 C   0  0  0  0  0  0  0  0  0  0  0  0
  183.5480  178.6280  143.6290 C   0  0  0  0  0  3  0  0  0  0  0  0
  187.4940  178.1830  144.9600 O   0  0  0  0  0  1  0  0  0  0  0  0
  185.1930  178.6810  145.3990 C   0  0  0  0  0  3  0  0  0  0  0  0
  182.9100  179.1850  145.8530 F   0  0  0  0  0  0  0  0  0  0  0  0
  184.5420  178.2650  142.7090 C   0  0  0  0  0  0  0  0  0  0  0  0
  183.8740  178.8350  144.9690 C   0  0  0  0  0  0  0  0  0  0  0  0
  186.8460  177.7200  142.1570 N   0  0  0  0  0  2  0  0  0  0  0  0
  187.5730  178.6290  141.2800 C   0  0  0  0  0  2  0  0  0  0  0  0
  189.0680  178.2950  141.2730 C   0  0  2  0  0  3  0  0  0  0  0  0
  189.4580  177.2770  140.2060 C   0  0  1  0  0  3  0  0  0  0  0  0
  189.4420  177.7810  142.5810 N   0  0  0  0  0  0  0  0  0  0  0  0
  190.8120  176.8720  144.6250 Cl  0  0  0  0  0  0  0  0  0  0  0  0
  188.6730  177.4470  138.9120 C   0  0  0  0  0  1  0  0  0  0  0  0
  191.7990  177.4660  142.1430 N   0  0  0  0  0  0  0  0  0  0  0  0
  190.8670  177.4370  139.9020 N   0  0  0  0  0  2  0  0  0  0  0  0
  190.6220  177.4020  142.9660 C   0  0  0  0  0  0  0  0  0  0  0  0
  191.9380  177.5020  140.8480 C   0  0  0  0  0  3  0  0  0  0  0  0
  184.2280  178.0440  141.3640 O   0  0  0  0  0  0  0  0  0  0  0  0
  182.7860  177.1870  139.0720 C   0  0  0  0  0  2  0  0  0  0  0  0
  184.9840  178.2830  138.6460 C   0  0  0  0  0  2  0  0  0  0  0  0
  184.5340  179.4430  139.5400 C   0  0  0  0  0  2  0  0  0  0  0  0
  183.5970  178.9980  140.5830 N   0  0  0  0  0  0  0  0  0  0  0  0
  183.7710  177.6290  137.9990 C   0  0  0  0  0  2  0  0  0  0  0  0
  182.4140  178.3880  139.9520 C   0  0  2  0  0  3  0  0  0  0  0  0
  181.3490  178.0390  140.9950 C   0  0  2  0  0  3  0  0  0  0  0  0
  180.7000  176.8540  140.6720 F   0  0  0  0  0  0  0  0  0  0  0  0
  180.3620  179.1920  141.1930 C   0  0  1  0  0  0  0  0  0  0  0  0
  179.6810  179.3460  142.4960 C   0  0  0  0  0  2  0  0  0  0  0  0
  180.8070  180.1230  142.1460 O   0  0  0  0  0  0  0  0  0  0  0  0
  179.1600  179.1710  139.1340 O   0  0  0  0  0  0  0  0  0  0  0  0
  179.7500  179.8610  140.0090 C   0  0  0  0  0  0  0  0  0  0  0  0
  179.8210  181.2520  139.8960 O   0  0  0  0  0  0  0  0  0  0  0  0
  181.6550  181.5140  138.3460 C   0  0  0  0  0  1  0  0  0  0  0  0
  180.2260  181.9000  138.6970 C   0  0  0  0  0  2  0  0  0  0  0  0
  1  2  1  0  0  0  0
  2  4  1  0  0  0  0
  2  5  2  0  0  0  0
  3  8  2  0  0  0  0
  7  1  2  0  0  0  0
  7  3  1  0  0  0  0
  8  5  1  0  0  0  0
  8  6  1  0  0  0  0
  9  1  1  0  0  0  0
 10  9  1  0  0  0  0
 11 10  1  1  0  0  0
 11 13  1  0  0  0  0
 12 15  1  6  0  0  0
 12 11  1  0  0  0  0
 13 18  2  0  0  0  0
 16 18  1  0  0  0  0
 17 12  1  0  0  0  0
 17 19  1  0  0  0  0
 18 14  1  0  0  0  0
 19 16  2  0  0  0  0
 20  7  1  0  0  0  0
 21 26  1  0  0  0  0
 22 23  1  0  0  0  0
 23 24  1  0  0  0  0
 24 20  1  0  0  0  0
 25 22  1  0  0  0  0
 25 21  1  0  0  0  0
 26 24  1  0  0  0  0
 26 27  1  1  0  0  0
 27 28  1  6  0  0  0
 27 29  1  0  0  0  0
 29 33  1  6  0  0  0
 29 31  1  0  0  0  0
 29 30  1  0  0  0  0
 31 30  1  0  0  0  0
 32 33  2  0  0  0  0
 34 33  1  0  0  0  0
 35 36  1  0  0  0  0
 36 34  1  0  0  0  0
M  END
>  <MODEL>
6

>  <REMARK>
 VINA RESULT:      -8.1      3.744      7.918
  Name = 
  10 active torsions:
  status: ('A' for Active; 'I' for Inactive)
    1  A    between atoms: O_2  and  C_27
    2  A    between atoms: O_2  and  C_34
    3  A    between atoms: C_3  and  N_11
    4  A    between atoms: C_5  and  C_25
    5  A    between atoms: C_8  and  C_27
    6  A    between atoms: C_8  and  C_29
    7  A    between atoms: N_11  and  C_25
    8  A    between atoms: N_20  and  O_32
    9  A    between atoms: C_29  and  C_30
   10  A    between atoms: O_32  and  C_33
                            x       y       z     vdW  Elec       q    Type
                         _______ _______ _______ _____ _____    ______ ____

>  <TORSDO>
F 10

$$$$
=
 OpenBabel11042411313D

 36 39  0  0  1  0  0  0  0  0999 V2000
  189.0840  177.8480  141.3380 C   0  0  0  0  0  0  0  0  0  0  0  0
  190.0490  177.5520  140.3490 C   0  0  0  0  0  0  0  0  0  0  0  0
  187.4870  178.3860  139.5860 C   0  0  0  0  0  3  0  0  0  0  0  0
  191.3280  177.1260  140.6850 O   0  0  0  0  0  1  0  0  0  0  0  0
  189.7210  177.6790  138.9960 C   0  0  0  0  0  3  0  0  0  0  0  0
  188.1370  178.2190  137.3030 F   0  0  0  0  0  0  0  0  0  0  0  0
  187.8010  178.2600  140.9470 C   0  0  0  0  0  0  0  0  0  0  0  0
  188.4450  178.0960  138.6150 C   0  0  0  0  0  0  0  0  0  0  0  0
  189.3580  177.7440  142.7420 N   0  0  0  0  0  2  0  0  0  0  0  0
  190.2930  178.5730  143.4910 C   0  0  0  0  0  2  0  0  0  0  0  0
  190.5540  177.9780  144.8770 C   0  0  2  0  0  3  0  0  0  0  0  0
  190.9940  176.5170  144.8390 C   0  0  1  0  0  3  0  0  0  0  0  0
  189.3420  178.0880  145.6740 N   0  0  0  0  0  0  0  0  0  0  0  0
  187.6190  178.0100  147.6500 Cl  0  0  0  0  0  0  0  0  0  0  0  0
  191.8990  176.2040  143.6540 C   0  0  0  0  0  1  0  0  0  0  0  0
  190.2070  177.1250  147.7160 N   0  0  0  0  0  0  0  0  0  0  0  0
  191.7270  176.2190  146.0540 N   0  0  0  0  0  2  0  0  0  0  0  0
  189.1740  177.7070  146.9030 C   0  0  0  0  0  0  0  0  0  0  0  0
  191.3070  176.5070  147.3910 C   0  0  0  0  0  3  0  0  0  0  0  0
  186.8530  178.5570  141.9320 O   0  0  0  0  0  0  0  0  0  0  0  0
  184.3740  179.5550  142.8950 C   0  0  0  0  0  2  0  0  0  0  0  0
  185.9330  178.6340  144.6090 C   0  0  0  0  0  2  0  0  0  0  0  0
  186.0580  177.3660  143.7560 C   0  0  0  0  0  2  0  0  0  0  0  0
  185.8810  177.6520  142.3240 N   0  0  0  0  0  0  0  0  0  0  0  0
  184.5740  179.2790  144.3790 C   0  0  0  0  0  2  0  0  0  0  0  0
  184.5560  178.2520  142.1040 C   0  0  2  0  0  3  0  0  0  0  0  0
  184.2720  178.4340  140.6100 C   0  0  2  0  0  3  0  0  0  0  0  0
  184.4660  179.7540  140.2190 F   0  0  0  0  0  0  0  0  0  0  0  0
  182.8750  177.9320  140.2410 C   0  0  1  0  0  0  0  0  0  0  0  0
  182.7300  176.8940  139.1970 C   0  0  0  0  0  2  0  0  0  0  0  0
  182.6840  176.5800  140.5740 O   0  0  0  0  0  0  0  0  0  0  0  0
  181.3920  179.7590  139.8580 O   0  0  0  0  0  0  0  0  0  0  0  0
  181.6760  178.7560  140.5670 C   0  0  0  0  0  0  0  0  0  0  0  0
  180.8670  178.3920  141.6480 O   0  0  0  0  0  0  0  0  0  0  0  0
  180.2030  178.3450  143.9700 C   0  0  0  0  0  1  0  0  0  0  0  0
  180.7790  179.1740  142.8320 C   0  0  0  0  0  2  0  0  0  0  0  0
  1  9  1  0  0  0  0
  2  4  1  0  0  0  0
  2  1  2  0  0  0  0
  3  7  2  0  0  0  0
  5  2  1  0  0  0  0
  6  8  1  0  0  0  0
  7  1  1  0  0  0  0
  7 20  1  0  0  0  0
  8  5  2  0  0  0  0
  8  3  1  0  0  0  0
  9 10  1  0  0  0  0
 11 10  1  6  0  0  0
 11 13  1  0  0  0  0
 12 15  1  6  0  0  0
 12 11  1  0  0  0  0
 12 17  1  0  0  0  0
 13 18  2  0  0  0  0
 17 19  1  0  0  0  0
 18 14  1  0  0  0  0
 18 16  1  0  0  0  0
 19 16  2  0  0  0  0
 20 24  1  0  0  0  0
 21 25  1  0  0  0  0
 23 22  1  0  0  0  0
 24 23  1  0  0  0  0
 25 22  1  0  0  0  0
 26 27  1  6  0  0  0
 26 24  1  0  0  0  0
 26 21  1  0  0  0  0
 27 28  1  1  0  0  0
 29 33  1  1  0  0  0
 29 31  1  0  0  0  0
 29 27  1  0  0  0  0
 30 29  1  0  0  0  0
 30 31  1  0  0  0  0
 32 33  2  0  0  0  0
 33 34  1  0  0  0  0
 34 36  1  0  0  0  0
 36 35  1  0  0  0  0
M  END
>  <MODEL>
7

>  <REMARK>
 VINA RESULT:      -8.0      3.056      8.090
  Name = 
  10 active torsions:
  status: ('A' for Active; 'I' for Inactive)
    1  A    between atoms: O_2  and  C_27
    2  A    between atoms: O_2  and  C_34
    3  A    between atoms: C_3  and  N_11
    4  A    between atoms: C_5  and  C_25
    5  A    between atoms: C_8  and  C_27
    6  A    between atoms: C_8  and  C_29
    7  A    between atoms: N_11  and  C_25
    8  A    between atoms: N_20  and  O_32
    9  A    between atoms: C_29  and  C_30
   10  A    between atoms: O_32  and  C_33
                            x       y       z     vdW  Elec       q    Type
                         _______ _______ _______ _____ _____    ______ ____

>  <TORSDO>
F 10

$$$$
=
 OpenBabel11042411313D

 36 39  0  0  1  0  0  0  0  0999 V2000
  185.3600  178.3770  143.2920 C   0  0  0  0  0  0  0  0  0  0  0  0
  184.0970  178.6420  143.8680 C   0  0  0  0  0  0  0  0  0  0  0  0
  186.3060  178.1750  145.5210 C   0  0  0  0  0  3  0  0  0  0  0  0
  182.9730  178.8690  143.0820 O   0  0  0  0  0  1  0  0  0  0  0  0
  183.9560  178.6710  145.2580 C   0  0  0  0  0  3  0  0  0  0  0  0
  184.9140  178.4740  147.4290 F   0  0  0  0  0  0  0  0  0  0  0  0
  186.4610  178.1390  144.1290 C   0  0  0  0  0  0  0  0  0  0  0  0
  185.0580  178.4400  146.0830 C   0  0  0  0  0  0  0  0  0  0  0  0
  185.5720  178.3390  141.8740 N   0  0  0  0  0  2  0  0  0  0  0  0
  184.9710  179.2390  140.8980 C   0  0  0  0  0  2  0  0  0  0  0  0
  185.1920  178.7200  139.4750 C   0  0  2  0  0  3  0  0  0  0  0  0
  184.3480  177.4950  139.1360 C   0  0  1  0  0  3  0  0  0  0  0  0
  186.5990  178.3880  139.3070 N   0  0  0  0  0  0  0  0  0  0  0  0
  188.9040  177.6670  138.2870 Cl  0  0  0  0  0  0  0  0  0  0  0  0
  182.9580  177.5460  139.7600 C   0  0  0  0  0  1  0  0  0  0  0  0
  186.4960  177.7040  136.9900 N   0  0  0  0  0  0  0  0  0  0  0  0
  184.1910  177.4200  137.6970 N   0  0  0  0  0  2  0  0  0  0  0  0
  187.1740  177.9310  138.2370 C   0  0  0  0  0  0  0  0  0  0  0  0
  185.2360  177.5040  136.7240 C   0  0  0  0  0  3  0  0  0  0  0  0
  187.7100  177.8840  143.5520 O   0  0  0  0  0  0  0  0  0  0  0  0
  190.5120  178.0840  143.1380 C   0  0  0  0  0  2  0  0  0  0  0  0
  189.2790  176.5460  141.6120 C   0  0  0  0  0  2  0  0  0  0  0  0
  188.6540  175.8870  142.8470 C   0  0  0  0  0  2  0  0  0  0  0  0
  188.5170  176.8360  143.9620 N   0  0  0  0  0  0  0  0  0  0  0  0
  190.6440  177.1180  141.9680 C   0  0  0  0  0  2  0  0  0  0  0  0
  189.8420  177.3690  144.3190 C   0  0  2  0  0  3  0  0  0  0  0  0
  189.7650  178.2520  145.5670 C   0  0  2  0  0  3  0  0  0  0  0  0
  190.6330  179.3330  145.4720 F   0  0  0  0  0  0  0  0  0  0  0  0
  190.0070  177.4400  146.8420 C   0  0  1  0  0  0  0  0  0  0  0  0
  189.1580  177.6840  148.0280 C   0  0  0  0  0  2  0  0  0  0  0  0
  188.9270  176.5970  147.1550 O   0  0  0  0  0  0  0  0  0  0  0  0
  191.7540  175.9520  146.1960 O   0  0  0  0  0  0  0  0  0  0  0  0
  191.3180  176.7630  147.0570 C   0  0  0  0  0  0  0  0  0  0  0  0
  192.0600  177.0550  148.2060 O   0  0  0  0  0  0  0  0  0  0  0  0
  193.6850  176.7540  149.9680 C   0  0  0  0  0  1  0  0  0  0  0  0
  192.9550  176.1190  148.7930 C   0  0  0  0  0  2  0  0  0  0  0  0
  1  2  2  0  0  0  0
  1  7  1  0  0  0  0
  2  5  1  0  0  0  0
  3  8  1  0  0  0  0
  4  2  1  0  0  0  0
  5  8  2  0  0  0  0
  7  3  2  0  0  0  0
  8  6  1  0  0  0  0
  9  1  1  0  0  0  0
 10  9  1  0  0  0  0
 11 10  1  1  0  0  0
 12 11  1  0  0  0  0
 12 15  1  1  0  0  0
 13 11  1  0  0  0  0
 16 18  1  0  0  0  0
 17 12  1  0  0  0  0
 18 14  1  0  0  0  0
 18 13  2  0  0  0  0
 19 16  2  0  0  0  0
 19 17  1  0  0  0  0
 20 24  1  0  0  0  0
 20  7  1  0  0  0  0
 21 26  1  0  0  0  0
 22 25  1  0  0  0  0
 22 23  1  0  0  0  0
 23 24  1  0  0  0  0
 24 26  1  0  0  0  0
 25 21  1  0  0  0  0
 26 27  1  1  0  0  0
 27 28  1  6  0  0  0
 27 29  1  0  0  0  0
 29 33  1  1  0  0  0
 29 31  1  0  0  0  0
 29 30  1  0  0  0  0
 31 30  1  0  0  0  0
 32 33  2  0  0  0  0
 33 34  1  0  0  0  0
 34 36  1  0  0  0  0
 36 35  1  0  0  0  0
M  END
>  <MODEL>
8

>  <REMARK>
 VINA RESULT:      -8.0      3.203      5.559
  Name = 
  10 active torsions:
  status: ('A' for Active; 'I' for Inactive)
    1  A    between atoms: O_2  and  C_27
    2  A    between atoms: O_2  and  C_34
    3  A    between atoms: C_3  and  N_11
    4  A    between atoms: C_5  and  C_25
    5  A    between atoms: C_8  and  C_27
    6  A    between atoms: C_8  and  C_29
    7  A    between atoms: N_11  and  C_25
    8  A    between atoms: N_20  and  O_32
    9  A    between atoms: C_29  and  C_30
   10  A    between atoms: O_32  and  C_33
                            x       y       z     vdW  Elec       q    Type
                         _______ _______ _______ _____ _____    ______ ____

>  <TORSDO>
F 10

$$$$
=
 OpenBabel11042411313D

 36 39  0  0  1  0  0  0  0  0999 V2000
  189.0950  177.2680  142.6220 C   0  0  0  0  0  0  0  0  0  0  0  0
  190.3290  176.6870  142.2510 C   0  0  0  0  0  0  0  0  0  0  0  0
  189.8700  177.3880  144.9230 C   0  0  0  0  0  3  0  0  0  0  0  0
  190.6000  176.3340  140.9350 O   0  0  0  0  0  1  0  0  0  0  0  0
  191.3130  176.4630  143.2180 C   0  0  0  0  0  3  0  0  0  0  0  0
  192.0410  176.5880  145.4820 F   0  0  0  0  0  0  0  0  0  0  0  0
  188.8760  177.6210  143.9620 C   0  0  0  0  0  0  0  0  0  0  0  0
  191.0840  176.8110  144.5510 C   0  0  0  0  0  0  0  0  0  0  0  0
  188.0430  177.5180  141.6800 N   0  0  0  0  0  2  0  0  0  0  0  0
  188.0670  178.5210  140.6230 C   0  0  0  0  0  2  0  0  0  0  0  0
  187.3690  177.9980  139.3650 C   0  0  2  0  0  3  0  0  0  0  0  0
  188.1550  178.2530  138.0820 C   0  0  1  0  0  3  0  0  0  0  0  0
  186.0620  178.6280  139.2540 N   0  0  0  0  0  0  0  0  0  0  0  0
  183.6480  179.2820  138.4650 Cl  0  0  0  0  0  0  0  0  0  0  0  0
  189.6600  178.1140  138.2750 C   0  0  0  0  0  1  0  0  0  0  0  0
  185.3270  177.4980  137.2460 N   0  0  0  0  0  0  0  0  0  0  0  0
  187.7400  177.2900  137.0810 N   0  0  0  0  0  2  0  0  0  0  0  0
  185.1730  178.4310  138.3300 C   0  0  0  0  0  0  0  0  0  0  0  0
  186.3940  176.9810  136.7070 C   0  0  0  0  0  3  0  0  0  0  0  0
  187.6500  178.1900  144.3230 O   0  0  0  0  0  0  0  0  0  0  0  0
  185.5610  179.4170  145.8060 C   0  0  0  0  0  2  0  0  0  0  0  0
  187.0570  177.8780  147.0740 C   0  0  0  0  0  2  0  0  0  0  0  0
  186.8150  176.8170  145.9950 C   0  0  0  0  0  2  0  0  0  0  0  0
  186.5530  177.4240  144.6810 N   0  0  0  0  0  0  0  0  0  0  0  0
  185.8520  178.8030  147.1690 C   0  0  0  0  0  2  0  0  0  0  0  0
  185.3720  178.2990  144.7710 C   0  0  2  0  0  3  0  0  0  0  0  0
  184.9780  178.8400  143.3940 C   0  0  2  0  0  3  0  0  0  0  0  0
  185.4620  180.1290  143.2040 F   0  0  0  0  0  0  0  0  0  0  0  0
  183.4650  178.7630  143.1750 C   0  0  1  0  0  0  0  0  0  0  0  0
  182.5700  178.6280  144.3440 C   0  0  0  0  0  2  0  0  0  0  0  0
  182.7870  179.8720  143.7100 O   0  0  0  0  0  0  0  0  0  0  0  0
  183.4980  177.4740  141.1700 O   0  0  0  0  0  0  0  0  0  0  0  0
  182.9250  178.3750  141.8400 C   0  0  0  0  0  0  0  0  0  0  0  0
  181.7720  179.0030  141.3590 O   0  0  0  0  0  0  0  0  0  0  0  0
  179.5180  178.6910  142.1690 C   0  0  0  0  0  1  0  0  0  0  0  0
  180.5590  178.2990  141.1310 C   0  0  0  0  0  2  0  0  0  0  0  0
  1  7  1  0  0  0  0
  2  1  2  0  0  0  0
  2  5  1  0  0  0  0
  4  2  1  0  0  0  0
  5  8  2  0  0  0  0
  7 20  1  0  0  0  0
  7  3  2  0  0  0  0
  8  3  1  0  0  0  0
  8  6  1  0  0  0  0
  9  1  1  0  0  0  0
 10  9  1  0  0  0  0
 11 10  1  1  0  0  0
 12 15  1  1  0  0  0
 12 11  1  0  0  0  0
 13 11  1  0  0  0  0
 16 18  1  0  0  0  0
 17 12  1  0  0  0  0
 18 14  1  0  0  0  0
 18 13  2  0  0  0  0
 19 17  1  0  0  0  0
 19 16  2  0  0  0  0
 20 24  1  0  0  0  0
 21 25  1  0  0  0  0
 22 25  1  0  0  0  0
 23 22  1  0  0  0  0
 24 26  1  0  0  0  0
 24 23  1  0  0  0  0
 26 27  1  6  0  0  0
 26 21  1  0  0  0  0
 27 28  1  1  0  0  0
 29 33  1  6  0  0  0
 29 27  1  0  0  0  0
 29 31  1  0  0  0  0
 29 30  1  0  0  0  0
 31 30  1  0  0  0  0
 32 33  2  0  0  0  0
 34 33  1  0  0  0  0
 36 34  1  0  0  0  0
 36 35  1  0  0  0  0
M  END
>  <MODEL>
9

>  <REMARK>
 VINA RESULT:      -7.7      2.654      6.334
  Name = 
  10 active torsions:
  status: ('A' for Active; 'I' for Inactive)
    1  A    between atoms: O_2  and  C_27
    2  A    between atoms: O_2  and  C_34
    3  A    between atoms: C_3  and  N_11
    4  A    between atoms: C_5  and  C_25
    5  A    between atoms: C_8  and  C_27
    6  A    between atoms: C_8  and  C_29
    7  A    between atoms: N_11  and  C_25
    8  A    between atoms: N_20  and  O_32
    9  A    between atoms: C_29  and  C_30
   10  A    between atoms: O_32  and  C_33
                            x       y       z     vdW  Elec       q    Type
                         _______ _______ _______ _____ _____    ______ ____

>  <TORSDO>
F 10

$$$$
