=
 OpenBabel11032419113D

 42 43  0  0  1  0  0  0  0  0999 V2000
  188.0200  177.7950  147.6610 C   0  0  0  0  0  0  0  0  0  0  0  0
  186.9010  178.0270  146.8570 C   0  0  0  0  0  3  0  0  0  0  0  0
  189.2790  177.0880  145.7090 C   0  0  0  0  0  0  0  0  0  0  0  0
  189.2070  177.3260  147.0900 C   0  0  0  0  0  3  0  0  0  0  0  0
  186.9660  177.7850  145.4800 C   0  0  0  0  0  0  0  0  0  0  0  0
  188.1560  177.3220  144.9080 C   0  0  0  0  0  3  0  0  0  0  0  0
  187.9530  178.0310  149.0280 O   0  0  0  0  0  1  0  0  0  0  0  0
  191.6730  176.5870  146.0910 C   0  0  0  0  0  1  0  0  0  0  0  0
  190.5440  176.6010  145.0690 C   0  0  2  0  0  3  0  0  0  0  0  0
  190.9190  177.4320  143.8320 C   0  0  1  0  0  3  0  0  0  0  0  0
  190.7170  177.3640  141.3160 N   0  0  0  0  0  2  0  0  0  0  0  0
  190.6010  176.6920  142.5690 C   0  0  0  0  0  0  0  0  0  0  0  0
  190.2450  175.4830  142.6120 O   0  0  0  0  0  0  0  0  0  0  0  0
  190.4280  176.7060  140.1160 N   0  0  0  0  0  0  0  0  0  0  0  0
  191.2420  176.7960  139.1190 C   0  0  0  0  0  3  0  0  0  0  0  0
  190.8720  175.9610  137.5850 P   0  0  1  0  0  0  0  0  0  0  0  0
  192.2490  175.9620  136.6030 O   0  0  0  0  0  0  0  0  0  0  0  0
  190.4610  174.5350  137.8710 O   0  0  0  0  0  1  0  0  0  0  0  0
  189.5470  176.8200  136.7490 C   0  0  0  0  0  0  0  0  0  0  0  0
  189.1690  176.4320  135.6110 O   0  0  0  0  0  0  0  0  0  0  0  0
  188.9070  177.9230  137.3920 N   0  0  0  0  0  2  0  0  0  0  0  0
  187.7840  178.6340  136.7980 C   0  0  0  0  0  2  0  0  0  0  0  0
  186.4990  178.2760  137.5230 C   0  0  0  0  0  2  0  0  0  0  0  0
  185.8390  177.2230  135.4940 O   0  0  0  0  0  0  0  0  0  0  0  0
  185.7520  177.2500  136.7490 C   0  0  0  0  0  0  0  0  0  0  0  0
  184.9860  176.3000  137.4120 O   0  0  0  0  0  1  0  0  0  0  0  0
  191.2240  179.6160  144.0550 C   0  0  0  0  0  1  0  0  0  0  0  0
  190.2360  178.6540  143.8380 O   0  0  0  0  0  0  0  0  0  0  0  0
  185.7790  178.0510  144.6230 C   0  0  0  0  0  2  0  0  0  0  0  0
  186.2120  178.2650  143.1830 C   0  0  0  0  0  2  0  0  0  0  0  0
  184.9770  178.7060  141.0150 C   0  0  0  0  0  0  0  0  0  0  0  0
  185.9110  179.4560  140.6200 O   0  0  0  0  0  0  0  0  0  0  0  0
  185.0830  178.0610  142.2890 N   0  0  0  0  0  2  0  0  0  0  0  0
  184.0850  180.6130  138.9530 O   0  0  0  0  0  1  0  0  0  0  0  0
  181.9020  177.0740  139.5280 C   0  0  0  0  0  0  0  0  0  0  0  0
  183.7890  178.5010  140.1510 C   0  0  0  0  0  0  0  0  0  0  0  0
  183.0360  177.3260  140.3150 C   0  0  0  0  0  3  0  0  0  0  0  0
  183.3830  179.4330  139.1690 C   0  0  0  0  0  0  0  0  0  0  0  0
  181.5170  178.0070  138.5650 C   0  0  0  0  0  3  0  0  0  0  0  0
  182.2520  179.1790  138.3870 C   0  0  0  0  0  3  0  0  0  0  0  0
  181.1470  175.9100  139.6840 O   0  0  0  0  0  0  0  0  0  0  0  0
  180.5540  175.2260  138.5880 C   0  0  0  0  0  1  0  0  0  0  0  0
  1  7  1  0  0  0  0
  2  1  2  0  0  0  0
  3  4  2  0  0  0  0
  4  1  1  0  0  0  0
  5  2  1  0  0  0  0
  6  5  2  0  0  0  0
  6  3  1  0  0  0  0
  9  3  1  0  0  0  0
  9  8  1  1  0  0  0
 10 12  1  6  0  0  0
 10 28  1  0  0  0  0
 10  9  1  0  0  0  0
 11 12  1  0  0  0  0
 12 13  2  0  0  0  0
 14 11  1  0  0  0  0
 15 14  2  0  0  0  0
 16 17  2  6  0  0  0
 16 18  1  0  0  0  0
 16 15  1  0  0  0  0
 19 21  1  0  0  0  0
 19 16  1  0  0  0  0
 20 19  2  0  0  0  0
 22 21  1  0  0  0  0
 22 23  1  0  0  0  0
 24 25  2  0  0  0  0
 25 26  1  0  0  0  0
 25 23  1  0  0  0  0
 28 27  1  0  0  0  0
 29  5  1  0  0  0  0
 30 29  1  0  0  0  0
 31 33  1  0  0  0  0
 32 31  2  0  0  0  0
 33 30  1  0  0  0  0
 34 38  1  0  0  0  0
 35 41  1  0  0  0  0
 35 37  1  0  0  0  0
 36 37  2  0  0  0  0
 36 31  1  0  0  0  0
 38 36  1  0  0  0  0
 39 35  2  0  0  0  0
 40 39  1  0  0  0  0
 40 38  2  0  0  0  0
 42 41  1  0  0  0  0
M  END
>  <MODEL>
1

>  <REMARK>
 VINA RESULT:      -8.6      0.000      0.000
  Name = 
  15 active torsions:
  status: ('A' for Active; 'I' for Inactive)
    1  A    between atoms: C_1  and  P_20
    2  A    between atoms: C_4  and  C_32
    3  A    between atoms: C_4  and  N_42
    4  A    between atoms: C_5  and  C_32
    5  A    between atoms: C_6  and  O_21
    6  A    between atoms: C_9  and  C_12
    7  A    between atoms: C_10  and  C_19
    8  A    between atoms: C_10  and  C_23
    9  A    between atoms: C_10  and  O_38
   10  A    between atoms: N_11  and  N_37
   11  A    between atoms: C_14  and  C_25
   12  A    between atoms: C_14  and  C_26
   13  A    between atoms: C_16  and  C_19
   14  A    between atoms: P_20  and  C_41
   15  A    between atoms: C_26  and  N_29
                            x       y       z     vdW  Elec       q    Type
                         _______ _______ _______ _____ _____    ______ ____

>  <TORSDO>
F 15

$$$$
=
 OpenBabel11032419113D

 42 43  0  0  1  0  0  0  0  0999 V2000
  188.3740  177.9480  147.8810 C   0  0  0  0  0  0  0  0  0  0  0  0
  187.1040  178.0800  147.3130 C   0  0  0  0  0  3  0  0  0  0  0  0
  189.2490  177.1780  145.7510 C   0  0  0  0  0  0  0  0  0  0  0  0
  189.4450  177.4980  147.1040 C   0  0  0  0  0  3  0  0  0  0  0  0
  186.9020  177.7570  145.9660 C   0  0  0  0  0  0  0  0  0  0  0  0
  187.9760  177.3120  145.1870 C   0  0  0  0  0  3  0  0  0  0  0  0
  188.5720  178.2650  149.2180 O   0  0  0  0  0  1  0  0  0  0  0  0
  191.5930  176.3820  145.7570 C   0  0  0  0  0  1  0  0  0  0  0  0
  190.3840  176.7100  144.8910 C   0  0  2  0  0  3  0  0  0  0  0  0
  190.7360  177.7310  143.7990 C   0  0  1  0  0  3  0  0  0  0  0  0
  189.2080  178.2150  141.8480 N   0  0  0  0  0  2  0  0  0  0  0  0
  190.1400  177.3400  142.4810 C   0  0  0  0  0  0  0  0  0  0  0  0
  190.4650  176.2520  141.9330 O   0  0  0  0  0  0  0  0  0  0  0  0
  188.6290  177.8840  140.6180 N   0  0  0  0  0  0  0  0  0  0  0  0
  188.9570  178.5360  139.5540 C   0  0  0  0  0  3  0  0  0  0  0  0
  188.2160  178.1170  137.9850 P   0  0  1  0  0  0  0  0  0  0  0  0
  186.5830  177.7430  138.2210 O   0  0  0  0  0  1  0  0  0  0  0  0
  188.3290  179.2930  137.0420 O   0  0  0  0  0  0  0  0  0  0  0  0
  189.0560  176.7000  137.2940 C   0  0  0  0  0  0  0  0  0  0  0  0
  188.3940  175.6810  136.9600 O   0  0  0  0  0  0  0  0  0  0  0  0
  190.4700  176.7460  137.0980 N   0  0  0  0  0  2  0  0  0  0  0  0
  191.2140  175.6530  136.4890 C   0  0  0  0  0  2  0  0  0  0  0  0
  192.2970  175.1680  137.4360 C   0  0  0  0  0  2  0  0  0  0  0  0
  193.4050  176.7600  138.8150 O   0  0  0  0  0  1  0  0  0  0  0  0
  193.2860  176.2540  137.6690 C   0  0  0  0  0  0  0  0  0  0  0  0
  194.1010  176.6870  136.6320 O   0  0  0  0  0  0  0  0  0  0  0  0
  191.4320  179.7940  144.2170 C   0  0  0  0  0  1  0  0  0  0  0  0
  190.2810  179.0060  144.1540 O   0  0  0  0  0  0  0  0  0  0  0  0
  185.5530  177.9170  145.3580 C   0  0  0  0  0  2  0  0  0  0  0  0
  185.6710  178.5550  143.9850 C   0  0  0  0  0  2  0  0  0  0  0  0
  184.3160  178.7190  141.8510 C   0  0  0  0  0  0  0  0  0  0  0  0
  185.2140  179.4280  141.3200 O   0  0  0  0  0  0  0  0  0  0  0  0
  184.5010  178.2310  143.1840 N   0  0  0  0  0  2  0  0  0  0  0  0
  181.5810  179.2340  142.8200 O   0  0  0  0  0  1  0  0  0  0  0  0
  182.1020  177.4870  139.0380 C   0  0  0  0  0  0  0  0  0  0  0  0
  183.0880  178.3970  141.0830 C   0  0  0  0  0  0  0  0  0  0  0  0
  183.2250  177.8140  139.8130 C   0  0  0  0  0  3  0  0  0  0  0  0
  181.7870  178.6550  141.5730 C   0  0  0  0  0  0  0  0  0  0  0  0
  180.8260  177.7480  139.5400 C   0  0  0  0  0  3  0  0  0  0  0  0
  180.6700  178.3270  140.7980 C   0  0  0  0  0  3  0  0  0  0  0  0
  182.2280  176.9050  137.7750 O   0  0  0  0  0  0  0  0  0  0  0  0
  183.2850  177.2300  136.8810 C   0  0  0  0  0  1  0  0  0  0  0  0
  1  7  1  0  0  0  0
  2  1  1  0  0  0  0
  3  4  1  0  0  0  0
  4  1  2  0  0  0  0
  5  2  2  0  0  0  0
  6  3  2  0  0  0  0
  6  5  1  0  0  0  0
  9  3  1  0  0  0  0
  9  8  1  1  0  0  0
 10 12  1  6  0  0  0
 10 28  1  0  0  0  0
 10  9  1  0  0  0  0
 11 12  1  0  0  0  0
 13 12  2  0  0  0  0
 14 11  1  0  0  0  0
 15 14  2  0  0  0  0
 16 18  2  6  0  0  0
 16 17  1  0  0  0  0
 16 15  1  0  0  0  0
 19 16  1  0  0  0  0
 20 19  2  0  0  0  0
 21 19  1  0  0  0  0
 22 21  1  0  0  0  0
 22 23  1  0  0  0  0
 23 25  1  0  0  0  0
 25 24  1  0  0  0  0
 26 25  2  0  0  0  0
 28 27  1  0  0  0  0
 29  5  1  0  0  0  0
 30 29  1  0  0  0  0
 31 33  1  0  0  0  0
 32 31  2  0  0  0  0
 33 30  1  0  0  0  0
 35 39  2  0  0  0  0
 35 37  1  0  0  0  0
 36 38  1  0  0  0  0
 36 31  1  0  0  0  0
 37 36  2  0  0  0  0
 38 34  1  0  0  0  0
 39 40  1  0  0  0  0
 40 38  2  0  0  0  0
 41 35  1  0  0  0  0
 42 41  1  0  0  0  0
M  END
>  <MODEL>
2

>  <REMARK>
 VINA RESULT:      -8.5      1.794      3.275
  Name = 
  15 active torsions:
  status: ('A' for Active; 'I' for Inactive)
    1  A    between atoms: C_1  and  P_20
    2  A    between atoms: C_4  and  C_32
    3  A    between atoms: C_4  and  N_42
    4  A    between atoms: C_5  and  C_32
    5  A    between atoms: C_6  and  O_21
    6  A    between atoms: C_9  and  C_12
    7  A    between atoms: C_10  and  C_19
    8  A    between atoms: C_10  and  C_23
    9  A    between atoms: C_10  and  O_38
   10  A    between atoms: N_11  and  N_37
   11  A    between atoms: C_14  and  C_25
   12  A    between atoms: C_14  and  C_26
   13  A    between atoms: C_16  and  C_19
   14  A    between atoms: P_20  and  C_41
   15  A    between atoms: C_26  and  N_29
                            x       y       z     vdW  Elec       q    Type
                         _______ _______ _______ _____ _____    ______ ____

>  <TORSDO>
F 15

$$$$
=
 OpenBabel11032419113D

 42 43  0  0  1  0  0  0  0  0999 V2000
  188.0080  177.8700  147.5720 C   0  0  0  0  0  0  0  0  0  0  0  0
  186.8250  177.8860  146.8280 C   0  0  0  0  0  3  0  0  0  0  0  0
  189.2990  177.7530  145.5190 C   0  0  0  0  0  0  0  0  0  0  0  0
  189.2430  177.8040  146.9210 C   0  0  0  0  0  3  0  0  0  0  0  0
  186.8750  177.8300  145.4300 C   0  0  0  0  0  0  0  0  0  0  0  0
  188.1120  177.7700  144.7790 C   0  0  0  0  0  3  0  0  0  0  0  0
  187.9560  177.9210  148.9580 O   0  0  0  0  0  1  0  0  0  0  0  0
  190.8010  178.9630  143.9660 C   0  0  0  0  0  1  0  0  0  0  0  0
  190.6110  177.6990  144.7950 C   0  0  2  0  0  3  0  0  0  0  0  0
  190.7370  176.4360  143.9290 C   0  0  1  0  0  3  0  0  0  0  0  0
  189.7110  176.6420  141.6310 N   0  0  0  0  0  2  0  0  0  0  0  0
  190.8500  176.7870  142.4770 C   0  0  0  0  0  0  0  0  0  0  0  0
  191.9400  177.2160  142.0090 O   0  0  0  0  0  0  0  0  0  0  0  0
  189.7790  176.9590  140.2700 N   0  0  0  0  0  0  0  0  0  0  0  0
  188.8700  177.7020  139.7340 C   0  0  0  0  0  3  0  0  0  0  0  0
  188.9520  178.1020  137.9970 P   0  0  1  0  0  0  0  0  0  0  0  0
  188.9030  179.7820  137.8080 O   0  0  0  0  0  1  0  0  0  0  0  0
  190.2430  177.5710  137.4150 O   0  0  0  0  0  0  0  0  0  0  0  0
  187.5580  177.3690  137.1540 C   0  0  0  0  0  0  0  0  0  0  0  0
  187.7360  176.3800  136.3930 O   0  0  0  0  0  0  0  0  0  0  0  0
  186.2480  177.8930  137.3730 N   0  0  0  0  0  2  0  0  0  0  0  0
  185.0590  177.3120  136.7670 C   0  0  0  0  0  2  0  0  0  0  0  0
  184.3100  176.4740  137.7880 C   0  0  0  0  0  2  0  0  0  0  0  0
  183.3880  175.4760  135.8340 O   0  0  0  0  0  0  0  0  0  0  0  0
  183.4410  175.4880  137.0910 C   0  0  0  0  0  0  0  0  0  0  0  0
  182.7140  174.5610  137.8250 O   0  0  0  0  0  1  0  0  0  0  0  0
  191.9340  175.8440  145.6990 C   0  0  0  0  0  1  0  0  0  0  0  0
  191.8550  175.6880  144.3140 O   0  0  0  0  0  0  0  0  0  0  0  0
  185.6150  177.8670  144.6390 C   0  0  0  0  0  2  0  0  0  0  0  0
  185.7950  178.7410  143.4100 C   0  0  0  0  0  2  0  0  0  0  0  0
  184.6460  178.9540  141.1620 C   0  0  0  0  0  0  0  0  0  0  0  0
  185.7400  179.2710  140.6190 O   0  0  0  0  0  0  0  0  0  0  0  0
  184.6170  178.6540  142.5620 N   0  0  0  0  0  2  0  0  0  0  0  0
  184.1610  180.6220  138.7820 O   0  0  0  0  0  1  0  0  0  0  0  0
  181.2190  177.8740  139.9730 C   0  0  0  0  0  0  0  0  0  0  0  0
  183.4130  178.8910  140.3410 C   0  0  0  0  0  0  0  0  0  0  0  0
  182.4080  177.9810  140.7090 C   0  0  0  0  0  3  0  0  0  0  0  0
  183.2050  179.7040  139.2030 C   0  0  0  0  0  0  0  0  0  0  0  0
  181.0320  178.6860  138.8540 C   0  0  0  0  0  3  0  0  0  0  0  0
  182.0180  179.5950  138.4720 C   0  0  0  0  0  3  0  0  0  0  0  0
  180.2130  176.9740  140.3320 O   0  0  0  0  0  0  0  0  0  0  0  0
  180.2090  175.6170  139.9070 C   0  0  0  0  0  1  0  0  0  0  0  0
  1  7  1  0  0  0  0
  2  1  2  0  0  0  0
  3  4  2  0  0  0  0
  4  1  1  0  0  0  0
  5  2  1  0  0  0  0
  6  5  2  0  0  0  0
  6  3  1  0  0  0  0
  9  8  1  6  0  0  0
  9  3  1  0  0  0  0
 10 12  1  6  0  0  0
 10 28  1  0  0  0  0
 10  9  1  0  0  0  0
 11 12  1  0  0  0  0
 13 12  2  0  0  0  0
 14 11  1  0  0  0  0
 15 14  2  0  0  0  0
 16 18  2  6  0  0  0
 16 15  1  0  0  0  0
 17 16  1  0  0  0  0
 19 21  1  0  0  0  0
 19 16  1  0  0  0  0
 20 19  2  0  0  0  0
 22 21  1  0  0  0  0
 22 23  1  0  0  0  0
 24 25  2  0  0  0  0
 25 23  1  0  0  0  0
 25 26  1  0  0  0  0
 28 27  1  0  0  0  0
 29  5  1  0  0  0  0
 30 29  1  0  0  0  0
 31 33  1  0  0  0  0
 32 31  2  0  0  0  0
 33 30  1  0  0  0  0
 34 38  1  0  0  0  0
 35 41  1  0  0  0  0
 35 37  1  0  0  0  0
 36 37  2  0  0  0  0
 36 31  1  0  0  0  0
 38 36  1  0  0  0  0
 39 35  2  0  0  0  0
 40 39  1  0  0  0  0
 40 38  2  0  0  0  0
 42 41  1  0  0  0  0
M  END
>  <MODEL>
3

>  <REMARK>
 VINA RESULT:      -8.3      1.566      2.018
  Name = 
  15 active torsions:
  status: ('A' for Active; 'I' for Inactive)
    1  A    between atoms: C_1  and  P_20
    2  A    between atoms: C_4  and  C_32
    3  A    between atoms: C_4  and  N_42
    4  A    between atoms: C_5  and  C_32
    5  A    between atoms: C_6  and  O_21
    6  A    between atoms: C_9  and  C_12
    7  A    between atoms: C_10  and  C_19
    8  A    between atoms: C_10  and  C_23
    9  A    between atoms: C_10  and  O_38
   10  A    between atoms: N_11  and  N_37
   11  A    between atoms: C_14  and  C_25
   12  A    between atoms: C_14  and  C_26
   13  A    between atoms: C_16  and  C_19
   14  A    between atoms: P_20  and  C_41
   15  A    between atoms: C_26  and  N_29
                            x       y       z     vdW  Elec       q    Type
                         _______ _______ _______ _____ _____    ______ ____

>  <TORSDO>
F 15

$$$$
=
 OpenBabel11032419113D

 42 43  0  0  1  0  0  0  0  0999 V2000
  190.0630  177.1000  146.6050 C   0  0  0  0  0  0  0  0  0  0  0  0
  190.8690  177.5560  145.5590 C   0  0  0  0  0  3  0  0  0  0  0  0
  188.0790  177.5910  145.2940 C   0  0  0  0  0  0  0  0  0  0  0  0
  188.6720  177.1170  146.4750 C   0  0  0  0  0  3  0  0  0  0  0  0
  190.2840  178.0350  144.3810 C   0  0  0  0  0  0  0  0  0  0  0  0
  188.8910  178.0460  144.2490 C   0  0  0  0  0  3  0  0  0  0  0  0
  190.6450  176.6290  147.7740 O   0  0  0  0  0  1  0  0  0  0  0  0
  186.2350  177.4200  143.6520 C   0  0  0  0  0  1  0  0  0  0  0  0
  186.5900  177.6050  145.1210 C   0  0  2  0  0  3  0  0  0  0  0  0
  185.9570  178.8810  145.6950 C   0  0  1  0  0  3  0  0  0  0  0  0
  183.5230  179.0800  145.0530 N   0  0  0  0  0  2  0  0  0  0  0  0
  184.8860  179.4070  144.7890 C   0  0  0  0  0  0  0  0  0  0  0  0
  185.1860  180.1390  143.8070 O   0  0  0  0  0  0  0  0  0  0  0  0
  182.4960  179.5520  144.2290 N   0  0  0  0  0  0  0  0  0  0  0  0
  181.7500  178.7180  143.5860 C   0  0  0  0  0  3  0  0  0  0  0  0
  180.4410  179.3190  142.5310 P   0  0  1  0  0  0  0  0  0  0  0  0
  179.1000  178.2980  142.6680 O   0  0  0  0  0  0  0  0  0  0  0  0
  180.0530  180.7180  142.9530 O   0  0  0  0  0  1  0  0  0  0  0  0
  181.0080  179.3300  140.8360 C   0  0  0  0  0  0  0  0  0  0  0  0
  180.6580  180.2640  140.0660 O   0  0  0  0  0  0  0  0  0  0  0  0
  181.8760  178.2940  140.3770 N   0  0  0  0  0  2  0  0  0  0  0  0
  182.4230  178.2690  139.0280 C   0  0  0  0  0  2  0  0  0  0  0  0
  183.8340  177.7080  139.0490 C   0  0  0  0  0  2  0  0  0  0  0  0
  185.4750  179.1510  138.1050 O   0  0  0  0  0  0  0  0  0  0  0  0
  184.8170  178.8220  139.1250 C   0  0  0  0  0  0  0  0  0  0  0  0
  184.9850  179.5200  140.3130 O   0  0  0  0  0  1  0  0  0  0  0  0
  186.1250  179.4630  147.8280 C   0  0  0  0  0  1  0  0  0  0  0  0
  185.4130  178.6330  146.9600 O   0  0  0  0  0  0  0  0  0  0  0  0
  191.1440  178.5020  143.2600 C   0  0  0  0  0  2  0  0  0  0  0  0
  191.7800  177.3150  142.5590 C   0  0  0  0  0  2  0  0  0  0  0  0
  190.3430  176.9950  140.4980 C   0  0  0  0  0  0  0  0  0  0  0  0
  189.3950  176.5640  141.2090 O   0  0  0  0  0  0  0  0  0  0  0  0
  191.5620  177.4090  141.1240 N   0  0  0  0  0  2  0  0  0  0  0  0
  188.6790  179.0020  139.1250 O   0  0  0  0  0  1  0  0  0  0  0  0
  190.7380  176.1540  136.8280 C   0  0  0  0  0  0  0  0  0  0  0  0
  190.1770  177.0700  139.0260 C   0  0  0  0  0  0  0  0  0  0  0  0
  190.8530  176.1350  138.2260 C   0  0  0  0  0  3  0  0  0  0  0  0
  189.3720  178.0450  138.3920 C   0  0  0  0  0  0  0  0  0  0  0  0
  189.9370  177.1230  136.2220 C   0  0  0  0  0  3  0  0  0  0  0  0
  189.2580  178.0610  136.9990 C   0  0  0  0  0  3  0  0  0  0  0  0
  191.4050  175.2270  136.0240 O   0  0  0  0  0  0  0  0  0  0  0  0
  192.7370  175.4220  135.5690 C   0  0  0  0  0  1  0  0  0  0  0  0
  1  7  1  0  0  0  0
  2  1  2  0  0  0  0
  3  4  2  0  0  0  0
  4  1  1  0  0  0  0
  5  2  1  0  0  0  0
  6  5  2  0  0  0  0
  6  3  1  0  0  0  0
  9  8  1  6  0  0  0
  9  3  1  0  0  0  0
  9 10  1  0  0  0  0
 10 12  1  6  0  0  0
 10 28  1  0  0  0  0
 12 11  1  0  0  0  0
 13 12  2  0  0  0  0
 14 11  1  0  0  0  0
 15 14  2  0  0  0  0
 16 17  2  1  0  0  0
 16 18  1  0  0  0  0
 16 15  1  0  0  0  0
 19 16  1  0  0  0  0
 20 19  2  0  0  0  0
 21 19  1  0  0  0  0
 22 23  1  0  0  0  0
 22 21  1  0  0  0  0
 23 25  1  0  0  0  0
 24 25  2  0  0  0  0
 25 26  1  0  0  0  0
 28 27  1  0  0  0  0
 29  5  1  0  0  0  0
 30 29  1  0  0  0  0
 31 33  1  0  0  0  0
 31 32  2  0  0  0  0
 33 30  1  0  0  0  0
 35 37  1  0  0  0  0
 36 31  1  0  0  0  0
 37 36  2  0  0  0  0
 38 36  1  0  0  0  0
 38 34  1  0  0  0  0
 39 35  2  0  0  0  0
 39 40  1  0  0  0  0
 40 38  2  0  0  0  0
 41 35  1  0  0  0  0
 42 41  1  0  0  0  0
M  END
>  <MODEL>
4

>  <REMARK>
 VINA RESULT:      -8.3      2.983      7.354
  Name = 
  15 active torsions:
  status: ('A' for Active; 'I' for Inactive)
    1  A    between atoms: C_1  and  P_20
    2  A    between atoms: C_4  and  C_32
    3  A    between atoms: C_4  and  N_42
    4  A    between atoms: C_5  and  C_32
    5  A    between atoms: C_6  and  O_21
    6  A    between atoms: C_9  and  C_12
    7  A    between atoms: C_10  and  C_19
    8  A    between atoms: C_10  and  C_23
    9  A    between atoms: C_10  and  O_38
   10  A    between atoms: N_11  and  N_37
   11  A    between atoms: C_14  and  C_25
   12  A    between atoms: C_14  and  C_26
   13  A    between atoms: C_16  and  C_19
   14  A    between atoms: P_20  and  C_41
   15  A    between atoms: C_26  and  N_29
                            x       y       z     vdW  Elec       q    Type
                         _______ _______ _______ _____ _____    ______ ____

>  <TORSDO>
F 15

$$$$
=
 OpenBabel11032419113D

 42 43  0  0  1  0  0  0  0  0999 V2000
  188.1210  177.8170  147.2920 C   0  0  0  0  0  0  0  0  0  0  0  0
  186.8170  178.0020  146.8220 C   0  0  0  0  0  3  0  0  0  0  0  0
  188.9160  177.6030  145.0070 C   0  0  0  0  0  0  0  0  0  0  0  0
  189.1680  177.6180  146.3880 C   0  0  0  0  0  3  0  0  0  0  0  0
  186.5590  177.9830  145.4470 C   0  0  0  0  0  0  0  0  0  0  0  0
  187.6090  177.7890  144.5430 C   0  0  0  0  0  3  0  0  0  0  0  0
  188.3750  177.8320  148.6570 O   0  0  0  0  0  1  0  0  0  0  0  0
  190.3900  178.7410  143.3770 C   0  0  0  0  0  1  0  0  0  0  0  0
  190.0230  177.4080  144.0160 C   0  0  2  0  0  3  0  0  0  0  0  0
  189.6650  176.3570  142.9540 C   0  0  1  0  0  3  0  0  0  0  0  0
  188.6770  177.5050  140.9340 N   0  0  0  0  0  2  0  0  0  0  0  0
  189.8080  176.9170  141.5720 C   0  0  0  0  0  0  0  0  0  0  0  0
  190.9220  176.8760  140.9810 O   0  0  0  0  0  0  0  0  0  0  0  0
  188.7720  178.0370  139.6440 N   0  0  0  0  0  0  0  0  0  0  0  0
  187.9580  177.6450  138.7220 C   0  0  0  0  0  3  0  0  0  0  0  0
  188.0820  178.3190  137.0740 P   0  0  1  0  0  0  0  0  0  0  0  0
  186.6210  178.0730  136.2590 O   0  0  0  0  0  0  0  0  0  0  0  0
  188.3670  179.8020  137.1540 O   0  0  0  0  0  1  0  0  0  0  0  0
  189.3990  177.4930  136.1950 C   0  0  0  0  0  0  0  0  0  0  0  0
  189.4850  177.6090  134.9430 O   0  0  0  0  0  0  0  0  0  0  0  0
  190.3620  176.7300  136.9230 N   0  0  0  0  0  2  0  0  0  0  0  0
  191.4940  176.0780  136.2820 C   0  0  0  0  0  2  0  0  0  0  0  0
  191.0280  174.8360  135.5420 C   0  0  0  0  0  2  0  0  0  0  0  0
  191.9720  172.8060  136.3500 O   0  0  0  0  0  0  0  0  0  0  0  0
  191.0590  173.6630  136.4570 C   0  0  0  0  0  0  0  0  0  0  0  0
  190.0990  173.5330  137.4520 O   0  0  0  0  0  1  0  0  0  0  0  0
  191.5250  175.6360  143.9210 C   0  0  0  0  0  1  0  0  0  0  0  0
  190.4830  175.2300  143.0860 O   0  0  0  0  0  0  0  0  0  0  0  0
  185.1740  178.2000  144.9480 C   0  0  0  0  0  2  0  0  0  0  0  0
  185.1680  179.2700  143.8700 C   0  0  0  0  0  2  0  0  0  0  0  0
  184.7220  178.8480  141.4120 C   0  0  0  0  0  0  0  0  0  0  0  0
  185.9150  179.1480  141.1310 O   0  0  0  0  0  0  0  0  0  0  0  0
  184.2940  178.8700  142.7780 N   0  0  0  0  0  2  0  0  0  0  0  0
  184.1940  180.5150  139.0400 O   0  0  0  0  0  1  0  0  0  0  0  0
  182.2080  176.8360  139.4220 C   0  0  0  0  0  0  0  0  0  0  0  0
  183.7860  178.4730  140.3250 C   0  0  0  0  0  0  0  0  0  0  0  0
  183.1060  177.2480  140.4180 C   0  0  0  0  0  3  0  0  0  0  0  0
  183.5510  179.2930  139.1970 C   0  0  0  0  0  0  0  0  0  0  0  0
  181.9890  177.6600  138.3170 C   0  0  0  0  0  3  0  0  0  0  0  0
  182.6550  178.8800  138.2060 C   0  0  0  0  0  3  0  0  0  0  0  0
  181.5270  175.6200  139.5070 O   0  0  0  0  0  0  0  0  0  0  0  0
  180.5220  175.2360  138.5780 C   0  0  0  0  0  1  0  0  0  0  0  0
  1  7  1  0  0  0  0
  2  1  1  0  0  0  0
  3  4  1  0  0  0  0
  4  1  2  0  0  0  0
  5  2  2  0  0  0  0
  6  3  2  0  0  0  0
  6  5  1  0  0  0  0
  9  8  1  6  0  0  0
  9  3  1  0  0  0  0
 10 12  1  6  0  0  0
 10 28  1  0  0  0  0
 10  9  1  0  0  0  0
 11 12  1  0  0  0  0
 13 12  2  0  0  0  0
 14 11  1  0  0  0  0
 15 14  2  0  0  0  0
 16 17  2  6  0  0  0
 16 18  1  0  0  0  0
 16 15  1  0  0  0  0
 19 21  1  0  0  0  0
 19 16  1  0  0  0  0
 20 19  2  0  0  0  0
 22 21  1  0  0  0  0
 23 22  1  0  0  0  0
 23 25  1  0  0  0  0
 24 25  2  0  0  0  0
 25 26  1  0  0  0  0
 28 27  1  0  0  0  0
 29  5  1  0  0  0  0
 30 29  1  0  0  0  0
 31 33  1  0  0  0  0
 32 31  2  0  0  0  0
 33 30  1  0  0  0  0
 34 38  1  0  0  0  0
 35 41  1  0  0  0  0
 35 37  1  0  0  0  0
 36 37  2  0  0  0  0
 36 31  1  0  0  0  0
 38 36  1  0  0  0  0
 39 35  2  0  0  0  0
 40 39  1  0  0  0  0
 40 38  2  0  0  0  0
 42 41  1  0  0  0  0
M  END
>  <MODEL>
5

>  <REMARK>
 VINA RESULT:      -8.2      1.599      2.939
  Name = 
  15 active torsions:
  status: ('A' for Active; 'I' for Inactive)
    1  A    between atoms: C_1  and  P_20
    2  A    between atoms: C_4  and  C_32
    3  A    between atoms: C_4  and  N_42
    4  A    between atoms: C_5  and  C_32
    5  A    between atoms: C_6  and  O_21
    6  A    between atoms: C_9  and  C_12
    7  A    between atoms: C_10  and  C_19
    8  A    between atoms: C_10  and  C_23
    9  A    between atoms: C_10  and  O_38
   10  A    between atoms: N_11  and  N_37
   11  A    between atoms: C_14  and  C_25
   12  A    between atoms: C_14  and  C_26
   13  A    between atoms: C_16  and  C_19
   14  A    between atoms: P_20  and  C_41
   15  A    between atoms: C_26  and  N_29
                            x       y       z     vdW  Elec       q    Type
                         _______ _______ _______ _____ _____    ______ ____

>  <TORSDO>
F 15

$$$$
=
 OpenBabel11032419113D

 42 43  0  0  1  0  0  0  0  0999 V2000
  188.1760  177.9140  147.7600 C   0  0  0  0  0  0  0  0  0  0  0  0
  187.0370  178.1660  146.9900 C   0  0  0  0  0  3  0  0  0  0  0  0
  189.3410  177.1250  145.7810 C   0  0  0  0  0  0  0  0  0  0  0  0
  189.3260  177.3940  147.1580 C   0  0  0  0  0  3  0  0  0  0  0  0
  187.0450  177.8940  145.6170 C   0  0  0  0  0  0  0  0  0  0  0  0
  188.1980  177.3790  145.0150 C   0  0  0  0  0  3  0  0  0  0  0  0
  188.1650  178.1810  149.1220 O   0  0  0  0  0  1  0  0  0  0  0  0
  191.6760  176.3810  146.1310 C   0  0  0  0  0  1  0  0  0  0  0  0
  190.5660  176.5830  145.1080 C   0  0  2  0  0  3  0  0  0  0  0  0
  191.0280  177.4790  143.9490 C   0  0  1  0  0  3  0  0  0  0  0  0
  191.1650  177.4900  141.4270 N   0  0  0  0  0  2  0  0  0  0  0  0
  190.8310  176.7980  142.6290 C   0  0  0  0  0  0  0  0  0  0  0  0
  190.3840  175.6200  142.5810 O   0  0  0  0  0  0  0  0  0  0  0  0
  190.9950  176.8870  140.1770 N   0  0  0  0  0  0  0  0  0  0  0  0
  189.8770  177.0160  139.5450 C   0  0  0  0  0  3  0  0  0  0  0  0
  189.6570  176.2430  137.9510 P   0  0  1  0  0  0  0  0  0  0  0  0
  190.4850  177.1370  136.7780 O   0  0  0  0  0  0  0  0  0  0  0  0
  190.2080  174.8360  137.9900 O   0  0  0  0  0  1  0  0  0  0  0  0
  187.9170  176.2030  137.5480 C   0  0  0  0  0  0  0  0  0  0  0  0
  187.1520  177.1040  137.9860 O   0  0  0  0  0  0  0  0  0  0  0  0
  187.4120  175.1640  136.7090 N   0  0  0  0  0  2  0  0  0  0  0  0
  186.0190  175.0990  136.2930 C   0  0  0  0  0  2  0  0  0  0  0  0
  185.6920  173.7060  135.7830 C   0  0  0  0  0  2  0  0  0  0  0  0
  183.9910  172.2160  136.5250 O   0  0  0  0  0  0  0  0  0  0  0  0
  184.9710  172.9410  136.8350 C   0  0  0  0  0  0  0  0  0  0  0  0
  185.4010  172.9990  138.1540 O   0  0  0  0  0  1  0  0  0  0  0  0
  191.2980  179.6680  144.1680 C   0  0  0  0  0  1  0  0  0  0  0  0
  190.3260  178.6900  143.9550 O   0  0  0  0  0  0  0  0  0  0  0  0
  185.8370  178.1810  144.7960 C   0  0  0  0  0  2  0  0  0  0  0  0
  186.2090  178.2480  143.3250 C   0  0  0  0  0  2  0  0  0  0  0  0
  184.6510  178.6410  141.3670 C   0  0  0  0  0  0  0  0  0  0  0  0
  185.3180  179.6550  141.0240 O   0  0  0  0  0  0  0  0  0  0  0  0
  185.0650  177.8790  142.5060 N   0  0  0  0  0  2  0  0  0  0  0  0
  181.8790  178.9810  142.3070 O   0  0  0  0  0  1  0  0  0  0  0  0
  182.5490  177.3010  138.5190 C   0  0  0  0  0  0  0  0  0  0  0  0
  183.4530  178.2520  140.5830 C   0  0  0  0  0  0  0  0  0  0  0  0
  183.6400  177.6890  139.3100 C   0  0  0  0  0  3  0  0  0  0  0  0
  182.1330  178.4270  141.0580 C   0  0  0  0  0  0  0  0  0  0  0  0
  181.2530  177.4800  139.0070 C   0  0  0  0  0  3  0  0  0  0  0  0
  181.0480  178.0390  140.2680 C   0  0  0  0  0  3  0  0  0  0  0  0
  182.7240  176.7390  137.2520 O   0  0  0  0  0  0  0  0  0  0  0  0
  182.2800  175.4290  136.9250 C   0  0  0  0  0  1  0  0  0  0  0  0
  1  7  1  0  0  0  0
  2  1  2  0  0  0  0
  3  4  2  0  0  0  0
  4  1  1  0  0  0  0
  5  2  1  0  0  0  0
  6  5  2  0  0  0  0
  6  3  1  0  0  0  0
  9  3  1  0  0  0  0
  9  8  1  1  0  0  0
 10 12  1  6  0  0  0
 10 28  1  0  0  0  0
 10  9  1  0  0  0  0
 11 12  1  0  0  0  0
 13 12  2  0  0  0  0
 14 11  1  0  0  0  0
 15 14  2  0  0  0  0
 16 17  2  6  0  0  0
 16 18  1  0  0  0  0
 16 15  1  0  0  0  0
 19 16  1  0  0  0  0
 19 20  2  0  0  0  0
 21 19  1  0  0  0  0
 22 21  1  0  0  0  0
 23 22  1  0  0  0  0
 23 25  1  0  0  0  0
 24 25  2  0  0  0  0
 25 26  1  0  0  0  0
 28 27  1  0  0  0  0
 29  5  1  0  0  0  0
 30 29  1  0  0  0  0
 31 33  1  0  0  0  0
 32 31  2  0  0  0  0
 33 30  1  0  0  0  0
 35 39  2  0  0  0  0
 35 37  1  0  0  0  0
 36 38  1  0  0  0  0
 36 31  1  0  0  0  0
 37 36  2  0  0  0  0
 38 34  1  0  0  0  0
 39 40  1  0  0  0  0
 40 38  2  0  0  0  0
 41 35  1  0  0  0  0
 42 41  1  0  0  0  0
M  END
>  <MODEL>
6

>  <REMARK>
 VINA RESULT:      -8.1      1.782      2.101
  Name = 
  15 active torsions:
  status: ('A' for Active; 'I' for Inactive)
    1  A    between atoms: C_1  and  P_20
    2  A    between atoms: C_4  and  C_32
    3  A    between atoms: C_4  and  N_42
    4  A    between atoms: C_5  and  C_32
    5  A    between atoms: C_6  and  O_21
    6  A    between atoms: C_9  and  C_12
    7  A    between atoms: C_10  and  C_19
    8  A    between atoms: C_10  and  C_23
    9  A    between atoms: C_10  and  O_38
   10  A    between atoms: N_11  and  N_37
   11  A    between atoms: C_14  and  C_25
   12  A    between atoms: C_14  and  C_26
   13  A    between atoms: C_16  and  C_19
   14  A    between atoms: P_20  and  C_41
   15  A    between atoms: C_26  and  N_29
                            x       y       z     vdW  Elec       q    Type
                         _______ _______ _______ _____ _____    ______ ____

>  <TORSDO>
F 15

$$$$
=
 OpenBabel11032419113D

 42 43  0  0  1  0  0  0  0  0999 V2000
  188.2090  177.9300  147.8070 C   0  0  0  0  0  0  0  0  0  0  0  0
  187.0630  178.2030  147.0540 C   0  0  0  0  0  3  0  0  0  0  0  0
  189.3390  177.1450  145.8070 C   0  0  0  0  0  0  0  0  0  0  0  0
  189.3440  177.4030  147.1870 C   0  0  0  0  0  3  0  0  0  0  0  0
  187.0510  177.9430  145.6790 C   0  0  0  0  0  0  0  0  0  0  0  0
  188.1900  177.4200  145.0580 C   0  0  0  0  0  3  0  0  0  0  0  0
  188.2180  178.1850  149.1720 O   0  0  0  0  0  1  0  0  0  0  0  0
  191.6750  176.3870  146.1190 C   0  0  0  0  0  1  0  0  0  0  0  0
  190.5490  176.5950  145.1140 C   0  0  2  0  0  3  0  0  0  0  0  0
  190.9980  177.4870  143.9470 C   0  0  1  0  0  3  0  0  0  0  0  0
  191.0760  177.5030  141.4230 N   0  0  0  0  0  2  0  0  0  0  0  0
  190.7740  176.8070  142.6310 C   0  0  0  0  0  0  0  0  0  0  0  0
  190.3330  175.6270  142.5920 O   0  0  0  0  0  0  0  0  0  0  0  0
  190.8790  176.9010  140.1760 N   0  0  0  0  0  0  0  0  0  0  0  0
  191.8790  176.7240  139.3800 C   0  0  0  0  0  3  0  0  0  0  0  0
  191.6290  175.9600  137.7860 P   0  0  1  0  0  0  0  0  0  0  0  0
  190.6540  174.5900  137.9700 O   0  0  0  0  0  1  0  0  0  0  0  0
  190.9470  176.9390  136.8570 O   0  0  0  0  0  0  0  0  0  0  0  0
  193.2090  175.4780  137.1070 C   0  0  0  0  0  0  0  0  0  0  0  0
  193.6980  176.1220  136.1400 O   0  0  0  0  0  0  0  0  0  0  0  0
  193.9190  174.3810  137.6850 N   0  0  0  0  0  2  0  0  0  0  0  0
  195.2350  173.9680  137.2220 C   0  0  0  0  0  2  0  0  0  0  0  0
  196.2170  173.9620  138.3810 C   0  0  0  0  0  2  0  0  0  0  0  0
  198.0310  175.4940  138.5370 O   0  0  0  0  0  1  0  0  0  0  0  0
  197.5250  174.5120  137.9360 C   0  0  0  0  0  0  0  0  0  0  0  0
  198.2050  173.9200  136.8800 O   0  0  0  0  0  0  0  0  0  0  0  0
  191.2900  179.6770  144.1340 C   0  0  0  0  0  1  0  0  0  0  0  0
  190.3050  178.7030  143.9640 O   0  0  0  0  0  0  0  0  0  0  0  0
  185.8370  178.2520  144.8760 C   0  0  0  0  0  2  0  0  0  0  0  0
  186.1280  178.0660  143.3970 C   0  0  0  0  0  2  0  0  0  0  0  0
  184.6080  178.6040  141.4420 C   0  0  0  0  0  0  0  0  0  0  0  0
  185.4860  179.3640  140.9520 O   0  0  0  0  0  0  0  0  0  0  0  0
  184.8830  177.9050  142.6620 N   0  0  0  0  0  2  0  0  0  0  0  0
  181.9850  179.0000  142.7260 O   0  0  0  0  0  1  0  0  0  0  0  0
  182.1210  177.9100  138.6740 C   0  0  0  0  0  0  0  0  0  0  0  0
  183.3080  178.4410  140.7460 C   0  0  0  0  0  0  0  0  0  0  0  0
  183.3160  178.0790  139.3890 C   0  0  0  0  0  3  0  0  0  0  0  0
  182.0630  178.6370  141.3860 C   0  0  0  0  0  0  0  0  0  0  0  0
  180.9020  178.1070  139.3250 C   0  0  0  0  0  3  0  0  0  0  0  0
  180.8740  178.4680  140.6720 C   0  0  0  0  0  3  0  0  0  0  0  0
  182.1180  177.5490  137.3250 O   0  0  0  0  0  0  0  0  0  0  0  0
  181.8550  176.2230  136.8850 C   0  0  0  0  0  1  0  0  0  0  0  0
  1  7  1  0  0  0  0
  2  1  2  0  0  0  0
  3  4  2  0  0  0  0
  4  1  1  0  0  0  0
  5  2  1  0  0  0  0
  6  5  2  0  0  0  0
  6  3  1  0  0  0  0
  9  3  1  0  0  0  0
  9  8  1  1  0  0  0
 10 12  1  6  0  0  0
 10 28  1  0  0  0  0
 10  9  1  0  0  0  0
 11 12  1  0  0  0  0
 13 12  2  0  0  0  0
 14 11  1  0  0  0  0
 15 14  2  0  0  0  0
 16 18  2  6  0  0  0
 16 17  1  0  0  0  0
 16 15  1  0  0  0  0
 19 21  1  0  0  0  0
 19 16  1  0  0  0  0
 20 19  2  0  0  0  0
 22 21  1  0  0  0  0
 22 23  1  0  0  0  0
 25 23  1  0  0  0  0
 25 24  1  0  0  0  0
 26 25  2  0  0  0  0
 28 27  1  0  0  0  0
 29  5  1  0  0  0  0
 30 29  1  0  0  0  0
 31 33  1  0  0  0  0
 32 31  2  0  0  0  0
 33 30  1  0  0  0  0
 35 39  2  0  0  0  0
 35 37  1  0  0  0  0
 36 38  1  0  0  0  0
 36 31  1  0  0  0  0
 37 36  2  0  0  0  0
 38 34  1  0  0  0  0
 39 40  1  0  0  0  0
 40 38  2  0  0  0  0
 41 35  1  0  0  0  0
 42 41  1  0  0  0  0
M  END
>  <MODEL>
7

>  <REMARK>
 VINA RESULT:      -7.9      2.539      4.435
  Name = 
  15 active torsions:
  status: ('A' for Active; 'I' for Inactive)
    1  A    between atoms: C_1  and  P_20
    2  A    between atoms: C_4  and  C_32
    3  A    between atoms: C_4  and  N_42
    4  A    between atoms: C_5  and  C_32
    5  A    between atoms: C_6  and  O_21
    6  A    between atoms: C_9  and  C_12
    7  A    between atoms: C_10  and  C_19
    8  A    between atoms: C_10  and  C_23
    9  A    between atoms: C_10  and  O_38
   10  A    between atoms: N_11  and  N_37
   11  A    between atoms: C_14  and  C_25
   12  A    between atoms: C_14  and  C_26
   13  A    between atoms: C_16  and  C_19
   14  A    between atoms: P_20  and  C_41
   15  A    between atoms: C_26  and  N_29
                            x       y       z     vdW  Elec       q    Type
                         _______ _______ _______ _____ _____    ______ ____

>  <TORSDO>
F 15

$$$$
=
 OpenBabel11032419113D

 42 43  0  0  1  0  0  0  0  0999 V2000
  187.1210  177.9920  147.2800 C   0  0  0  0  0  0  0  0  0  0  0  0
  185.7650  178.2500  147.0620 C   0  0  0  0  0  3  0  0  0  0  0  0
  187.5110  178.0040  144.8840 C   0  0  0  0  0  0  0  0  0  0  0  0
  187.9930  177.8690  146.1950 C   0  0  0  0  0  3  0  0  0  0  0  0
  185.2780  178.3810  145.7560 C   0  0  0  0  0  0  0  0  0  0  0  0
  186.1530  178.2630  144.6710 C   0  0  0  0  0  3  0  0  0  0  0  0
  187.6020  177.8590  148.5760 O   0  0  0  0  0  1  0  0  0  0  0  0
  187.6750  177.3150  142.5120 C   0  0  0  0  0  1  0  0  0  0  0  0
  188.4280  177.8930  143.7030 C   0  0  2  0  0  3  0  0  0  0  0  0
  189.6840  177.0690  144.0260 C   0  0  1  0  0  3  0  0  0  0  0  0
  190.5550  177.0500  141.6560 N   0  0  0  0  0  2  0  0  0  0  0  0
  190.1640  176.3230  142.8190 C   0  0  0  0  0  0  0  0  0  0  0  0
  190.2320  175.0640  142.8350 O   0  0  0  0  0  0  0  0  0  0  0  0
  191.0080  176.3880  140.5100 N   0  0  0  0  0  0  0  0  0  0  0  0
  190.7960  176.8980  139.3440 C   0  0  0  0  0  3  0  0  0  0  0  0
  191.3700  176.0510  137.8800 P   0  0  1  0  0  0  0  0  0  0  0  0
  192.9010  176.6350  137.4620 O   0  0  0  0  0  0  0  0  0  0  0  0
  191.4570  174.5670  138.1550 O   0  0  0  0  0  1  0  0  0  0  0  0
  190.2320  176.3550  136.5370 C   0  0  0  0  0  0  0  0  0  0  0  0
  190.6520  176.3610  135.3490 O   0  0  0  0  0  0  0  0  0  0  0  0
  188.8470  176.5610  136.8210 N   0  0  0  0  0  2  0  0  0  0  0  0
  187.8530  176.7580  135.7760 C   0  0  0  0  0  2  0  0  0  0  0  0
  187.2710  178.1570  135.8670 C   0  0  0  0  0  2  0  0  0  0  0  0
  188.6970  179.5170  137.2020 O   0  0  0  0  0  0  0  0  0  0  0  0
  187.6730  178.7870  137.1530 C   0  0  0  0  0  0  0  0  0  0  0  0
  186.9010  178.5990  138.2910 O   0  0  0  0  0  1  0  0  0  0  0  0
  191.5260  177.0650  145.2580 C   0  0  0  0  0  1  0  0  0  0  0  0
  190.7080  177.8990  144.4960 O   0  0  0  0  0  0  0  0  0  0  0  0
  183.8380  178.6750  145.5270 C   0  0  0  0  0  2  0  0  0  0  0  0
  183.6780  179.6080  144.3390 C   0  0  0  0  0  2  0  0  0  0  0  0
  181.8340  179.1710  142.6570 C   0  0  0  0  0  0  0  0  0  0  0  0
  181.1540  180.1190  143.1370 O   0  0  0  0  0  0  0  0  0  0  0  0
  183.1230  178.8810  143.2070 N   0  0  0  0  0  2  0  0  0  0  0  0
  179.3090  177.6570  142.7700 O   0  0  0  0  0  1  0  0  0  0  0  0
  181.5490  177.6120  139.2190 C   0  0  0  0  0  0  0  0  0  0  0  0
  181.2890  178.3790  141.5280 C   0  0  0  0  0  0  0  0  0  0  0  0
  182.0120  178.3430  140.3240 C   0  0  0  0  0  3  0  0  0  0  0  0
  180.0740  177.6600  141.6090 C   0  0  0  0  0  0  0  0  0  0  0  0
  180.3480  176.9090  139.3200 C   0  0  0  0  0  3  0  0  0  0  0  0
  179.6160  176.9320  140.5070 C   0  0  0  0  0  3  0  0  0  0  0  0
  182.2610  177.5700  138.0190 O   0  0  0  0  0  0  0  0  0  0  0  0
  183.6710  177.4000  137.9670 C   0  0  0  0  0  1  0  0  0  0  0  0
  1  7  1  0  0  0  0
  2  1  1  0  0  0  0
  3  4  1  0  0  0  0
  4  1  2  0  0  0  0
  5  2  2  0  0  0  0
  6  3  2  0  0  0  0
  6  5  1  0  0  0  0
  9  8  1  6  0  0  0
  9 10  1  0  0  0  0
  9  3  1  0  0  0  0
 10 12  1  6  0  0  0
 10 28  1  0  0  0  0
 11 12  1  0  0  0  0
 12 13  2  0  0  0  0
 14 11  1  0  0  0  0
 15 14  2  0  0  0  0
 16 17  2  6  0  0  0
 16 18  1  0  0  0  0
 16 15  1  0  0  0  0
 19 21  1  0  0  0  0
 19 16  1  0  0  0  0
 20 19  2  0  0  0  0
 22 23  1  0  0  0  0
 22 21  1  0  0  0  0
 23 25  1  0  0  0  0
 25 24  2  0  0  0  0
 25 26  1  0  0  0  0
 28 27  1  0  0  0  0
 29  5  1  0  0  0  0
 30 29  1  0  0  0  0
 31 32  2  0  0  0  0
 31 33  1  0  0  0  0
 33 30  1  0  0  0  0
 35 39  2  0  0  0  0
 35 37  1  0  0  0  0
 36 38  1  0  0  0  0
 36 31  1  0  0  0  0
 37 36  2  0  0  0  0
 38 34  1  0  0  0  0
 39 40  1  0  0  0  0
 40 38  2  0  0  0  0
 41 35  1  0  0  0  0
 42 41  1  0  0  0  0
M  END
>  <MODEL>
8

>  <REMARK>
 VINA RESULT:      -7.9      1.933      2.659
  Name = 
  15 active torsions:
  status: ('A' for Active; 'I' for Inactive)
    1  A    between atoms: C_1  and  P_20
    2  A    between atoms: C_4  and  C_32
    3  A    between atoms: C_4  and  N_42
    4  A    between atoms: C_5  and  C_32
    5  A    between atoms: C_6  and  O_21
    6  A    between atoms: C_9  and  C_12
    7  A    between atoms: C_10  and  C_19
    8  A    between atoms: C_10  and  C_23
    9  A    between atoms: C_10  and  O_38
   10  A    between atoms: N_11  and  N_37
   11  A    between atoms: C_14  and  C_25
   12  A    between atoms: C_14  and  C_26
   13  A    between atoms: C_16  and  C_19
   14  A    between atoms: P_20  and  C_41
   15  A    between atoms: C_26  and  N_29
                            x       y       z     vdW  Elec       q    Type
                         _______ _______ _______ _____ _____    ______ ____

>  <TORSDO>
F 15

$$$$
=
 OpenBabel11032419113D

 42 43  0  0  1  0  0  0  0  0999 V2000
  190.4070  177.1300  147.1560 C   0  0  0  0  0  0  0  0  0  0  0  0
  189.1130  177.4200  147.5950 C   0  0  0  0  0  3  0  0  0  0  0  0
  189.5700  176.8000  144.9010 C   0  0  0  0  0  0  0  0  0  0  0  0
  190.6370  176.8200  145.8120 C   0  0  0  0  0  3  0  0  0  0  0  0
  188.0440  177.3960  146.6920 C   0  0  0  0  0  0  0  0  0  0  0  0
  188.2760  177.0920  145.3460 C   0  0  0  0  0  3  0  0  0  0  0  0
  191.4660  177.1500  148.0540 O   0  0  0  0  0  1  0  0  0  0  0  0
  190.6040  175.2060  143.3130 C   0  0  0  0  0  1  0  0  0  0  0  0
  189.7910  176.4870  143.4510 C   0  0  2  0  0  3  0  0  0  0  0  0
  190.4540  177.6550  142.7060 C   0  0  1  0  0  3  0  0  0  0  0  0
  191.4540  177.2760  140.4190 N   0  0  0  0  0  2  0  0  0  0  0  0
  190.3000  177.5070  141.2240 C   0  0  0  0  0  0  0  0  0  0  0  0
  189.1580  177.5750  140.6930 O   0  0  0  0  0  0  0  0  0  0  0  0
  191.3500  177.1330  139.0320 N   0  0  0  0  0  0  0  0  0  0  0  0
  191.2200  175.9590  138.5120 C   0  0  0  0  0  3  0  0  0  0  0  0
  191.0920  175.7750  136.7410 P   0  0  1  0  0  0  0  0  0  0  0  0
  192.5690  176.1880  136.0280 O   0  0  0  0  0  0  0  0  0  0  0  0
  190.7570  174.3400  136.4040 O   0  0  0  0  0  1  0  0  0  0  0  0
  189.8120  176.8590  136.1250 C   0  0  0  0  0  0  0  0  0  0  0  0
  189.5030  176.8330  134.9040 O   0  0  0  0  0  0  0  0  0  0  0  0
  189.1300  177.7280  137.0300 N   0  0  0  0  0  2  0  0  0  0  0  0
  188.0390  178.5960  136.6120 C   0  0  0  0  0  2  0  0  0  0  0  0
  186.7330  177.8210  136.5950 C   0  0  0  0  0  2  0  0  0  0  0  0
  186.5440  178.5760  138.8440 O   0  0  0  0  0  1  0  0  0  0  0  0
  185.9600  178.1090  137.8330 C   0  0  0  0  0  0  0  0  0  0  0  0
  184.5890  177.8950  137.8610 O   0  0  0  0  0  0  0  0  0  0  0  0
  190.9600  179.5900  143.6640 C   0  0  0  0  0  1  0  0  0  0  0  0
  189.8970  178.8740  143.1110 O   0  0  0  0  0  0  0  0  0  0  0  0
  186.6700  177.7250  147.1580 C   0  0  0  0  0  2  0  0  0  0  0  0
  186.2520  179.0880  146.6330 C   0  0  0  0  0  2  0  0  0  0  0  0
  184.3050  178.9110  145.0220 C   0  0  0  0  0  0  0  0  0  0  0  0
  183.4880  179.0230  145.9760 O   0  0  0  0  0  0  0  0  0  0  0  0
  185.7110  178.9590  145.2890 N   0  0  0  0  0  2  0  0  0  0  0  0
  185.9560  178.0010  142.7570 O   0  0  0  0  0  1  0  0  0  0  0  0
  181.9030  178.8760  142.0970 C   0  0  0  0  0  0  0  0  0  0  0  0
  183.7960  178.7390  143.6390 C   0  0  0  0  0  0  0  0  0  0  0  0
  182.4450  179.0200  143.3830 C   0  0  0  0  0  3  0  0  0  0  0  0
  184.6110  178.3000  142.5700 C   0  0  0  0  0  0  0  0  0  0  0  0
  182.7240  178.4440  141.0540 C   0  0  0  0  0  3  0  0  0  0  0  0
  184.0690  178.1580  141.2900 C   0  0  0  0  0  3  0  0  0  0  0  0
  180.5610  179.1550  141.8310 O   0  0  0  0  0  0  0  0  0  0  0  0
  180.1430  179.9210  140.7090 C   0  0  0  0  0  1  0  0  0  0  0  0
  1  2  1  0  0  0  0
  1  7  1  0  0  0  0
  3  6  2  0  0  0  0
  3  4  1  0  0  0  0
  4  1  2  0  0  0  0
  5 29  1  0  0  0  0
  5  2  2  0  0  0  0
  6  5  1  0  0  0  0
  9  8  1  1  0  0  0
  9  3  1  0  0  0  0
 10 12  1  6  0  0  0
 10 28  1  0  0  0  0
 10  9  1  0  0  0  0
 11 12  1  0  0  0  0
 13 12  2  0  0  0  0
 14 11  1  0  0  0  0
 15 14  2  0  0  0  0
 16 17  2  6  0  0  0
 16 15  1  0  0  0  0
 18 16  1  0  0  0  0
 19 16  1  0  0  0  0
 19 21  1  0  0  0  0
 20 19  2  0  0  0  0
 22 21  1  0  0  0  0
 23 22  1  0  0  0  0
 23 25  1  0  0  0  0
 25 26  2  0  0  0  0
 25 24  1  0  0  0  0
 28 27  1  0  0  0  0
 30 29  1  0  0  0  0
 31 33  1  0  0  0  0
 31 32  2  0  0  0  0
 33 30  1  0  0  0  0
 35 37  1  0  0  0  0
 36 31  1  0  0  0  0
 37 36  2  0  0  0  0
 38 34  1  0  0  0  0
 38 36  1  0  0  0  0
 39 40  1  0  0  0  0
 39 35  2  0  0  0  0
 40 38  2  0  0  0  0
 41 35  1  0  0  0  0
 42 41  1  0  0  0  0
M  END
>  <MODEL>
9

>  <REMARK>
 VINA RESULT:      -7.8      1.969      2.715
  Name = 
  15 active torsions:
  status: ('A' for Active; 'I' for Inactive)
    1  A    between atoms: C_1  and  P_20
    2  A    between atoms: C_4  and  C_32
    3  A    between atoms: C_4  and  N_42
    4  A    between atoms: C_5  and  C_32
    5  A    between atoms: C_6  and  O_21
    6  A    between atoms: C_9  and  C_12
    7  A    between atoms: C_10  and  C_19
    8  A    between atoms: C_10  and  C_23
    9  A    between atoms: C_10  and  O_38
   10  A    between atoms: N_11  and  N_37
   11  A    between atoms: C_14  and  C_25
   12  A    between atoms: C_14  and  C_26
   13  A    between atoms: C_16  and  C_19
   14  A    between atoms: P_20  and  C_41
   15  A    between atoms: C_26  and  N_29
                            x       y       z     vdW  Elec       q    Type
                         _______ _______ _______ _____ _____    ______ ____

>  <TORSDO>
F 15

$$$$
