=
 OpenBabel11032420393D

 45 50  0  0  1  0  0  0  0  0999 V2000
  185.0990  178.9440  144.2960 C   0  0  2  0  0  3  0  0  0  0  0  0
  183.7720  179.6910  144.2530 C   0  0  0  0  0  2  0  0  0  0  0  0
  182.6200  178.7530  144.5630 C   0  0  0  0  0  2  0  0  0  0  0  0
  180.3860  178.7040  143.7540 O   0  0  0  0  0  0  0  0  0  0  0  0
  181.6090  178.8200  143.4750 C   0  0  0  0  0  0  0  0  0  0  0  0
  182.0290  179.0460  142.1290 N   0  0  0  0  0  2  0  0  0  0  0  0
  181.0700  179.1540  141.0410 C   0  0  0  0  0  2  0  0  0  0  0  0
  183.4250  178.0680  138.4640 C   0  0  0  0  0  3  0  0  0  0  0  0
  181.4320  178.2060  139.9430 C   0  0  0  0  0  0  0  0  0  0  0  0
  180.5810  174.7510  139.1670 F   0  0  0  0  0  0  0  0  0  0  0  0
  183.6000  176.7550  138.3330 C   0  0  0  0  0  3  0  0  0  0  0  0
  181.0880  176.9260  140.0960 C   0  0  0  0  0  3  0  0  0  0  0  0
  182.0800  178.6850  138.6670 C   0  0  1  0  0  3  0  0  0  0  0  0
  182.5320  175.7410  138.4390 C   0  0  0  0  0  3  0  0  0  0  0  0
  181.4060  175.8240  139.1630 C   0  0  0  0  0  0  0  0  0  0  0  0
  183.2090  180.7720  138.8730 O   0  0  0  0  0  0  0  0  0  0  0  0
  181.0420  180.9100  138.0060 N   0  0  0  0  0  2  0  0  0  0  0  0
  182.1510  180.1750  138.5360 C   0  0  0  0  0  0  0  0  0  0  0  0
  181.0830  182.3490  137.7900 C   0  0  0  0  0  2  0  0  0  0  0  0
  180.6440  182.6750  136.3740 C   0  0  0  0  0  1  0  0  0  0  0  0
  185.2720  178.2030  143.0940 O   0  0  0  0  0  0  0  0  0  0  0  0
  186.1650  178.5970  142.0890 C   0  0  0  0  0  0  0  0  0  0  0  0
  185.8000  179.4130  141.1990 O   0  0  0  0  0  0  0  0  0  0  0  0
  187.8010  176.8980  142.6570 C   0  0  0  0  0  2  0  0  0  0  0  0
  187.5340  178.0570  142.0740 C   0  0  0  0  0  0  0  0  0  0  0  0
  188.6530  178.8030  141.4170 C   0  0  0  0  0  2  0  0  0  0  0  0
  189.0460  177.3670  137.8900 N   0  0  0  0  0  4  0  0  0  0  0  0
  187.0050  176.1520  136.8720 S   0  0  0  0  0  1  0  0  0  0  0  0
  189.1860  177.6910  136.4560 C   0  0  0  0  0  2  0  0  0  0  0  0
  187.6480  178.4650  138.3530 N   0  0  0  0  0  0  0  0  0  0  0  0
  189.2740  177.9960  140.3750 N   0  0  0  0  0  0  0  0  0  0  0  0
  188.7400  177.9380  139.0540 C   0  0  0  0  0  0  0  0  0  0  0  0
  187.9880  177.6680  137.0790 C   0  0  2  0  0  0  0  0  0  0  0  0
  185.0980  177.9810  145.4670 C   0  0  0  0  0  2  0  0  0  0  0  0
  185.6410  178.6610  146.7110 C   0  0  0  0  0  2  0  0  0  0  0  0
  187.6360  178.4500  148.2050 C   0  0  0  0  0  3  0  0  0  0  0  0
  187.0510  178.2440  146.9500 C   0  0  0  0  0  0  0  0  0  0  0  0
  189.1120  177.2470  146.1580 C   0  0  0  0  0  3  0  0  0  0  0  0
  187.7940  177.6450  145.9250 C   0  0  0  0  0  3  0  0  0  0  0  0
  188.9570  178.0540  148.4350 C   0  0  0  0  0  3  0  0  0  0  0  0
  189.6980  177.4480  147.4170 C   0  0  0  0  0  0  0  0  0  0  0  0
  191.0440  177.0370  147.6800 N   0  0  0  0  0  2  0  0  0  0  0  0
  192.4320  175.4490  146.5320 C   0  0  0  0  0  2  0  0  0  0  0  0
  192.8550  175.5790  147.8680 O   0  0  0  0  0  0  0  0  0  0  0  0
  191.4690  175.6450  147.6350 C   0  0  1  0  0  3  0  0  0  0  0  0
  1  2  1  6  0  0  0
  1 34  1  0  0  0  0
  2  3  1  0  0  0  0
  5  4  2  0  0  0  0
  5  3  1  0  0  0  0
  6  5  1  0  0  0  0
  7  6  1  0  0  0  0
  8 13  1  0  0  0  0
  9 12  2  0  0  0  0
  9  7  1  0  0  0  0
 11 14  1  0  0  0  0
 11  8  2  0  0  0  0
 13 18  1  1  0  0  0
 13  9  1  0  0  0  0
 14 15  2  0  0  0  0
 15 10  1  0  0  0  0
 15 12  1  0  0  0  0
 17 18  1  0  0  0  0
 18 16  2  0  0  0  0
 19 17  1  0  0  0  0
 20 19  1  0  0  0  0
 21  1  1  0  0  0  0
 22 21  1  0  0  0  0
 23 22  2  0  0  0  0
 25 22  1  0  0  0  0
 25 24  2  0  0  0  0
 26 25  1  0  0  0  0
 27 30  1  0  0  0  0
 27 32  1  0  0  0  0
 29 33  1  0  0  0  0
 29 27  1  0  0  0  0
 30 32  1  0  0  0  0
 31 26  1  0  0  0  0
 32 31  2  0  0  0  0
 33 28  1  6  0  0  0
 33 27  1  0  0  0  0
 33 30  1  0  0  0  0
 34 35  1  0  0  0  0
 35 37  1  0  0  0  0
 36 40  1  0  0  0  0
 37 36  2  0  0  0  0
 38 41  1  0  0  0  0
 39 38  2  0  0  0  0
 39 37  1  0  0  0  0
 41 42  1  0  0  0  0
 41 40  2  0  0  0  0
 43 45  1  0  0  0  0
 43 44  1  0  0  0  0
 45 42  1  6  0  0  0
 45 44  1  0  0  0  0
M  END
>  <MODEL>
1

>  <REMARK>
 VINA RESULT:      -8.3      0.000      0.000
  Name = 
  17 active torsions:
  status: ('A' for Active; 'I' for Inactive)
    1  A    between atoms: C_3  and  C_21
    2  A    between atoms: C_4  and  C_22
    3  A    between atoms: C_4  and  O_24
    4  A    between atoms: C_4  and  C_44
    5  A    between atoms: C_9  and  C_13
    6  A    between atoms: C_13  and  C_44
    7  A    between atoms: C_15  and  N_25
    8  A    between atoms: C_15  and  C_34
    9  A    between atoms: C_16  and  O_24
   10  A    between atoms: C_16  and  C_34
   11  A    between atoms: C_17  and  N_29
   12  A    between atoms: N_20  and  C_43
   13  A    between atoms: N_20  and  C_45
   14  A    between atoms: C_21  and  N_32
   15  A    between atoms: C_22  and  C_35
   16  A    between atoms: C_30  and  C_35
   17  A    between atoms: C_36  and  C_42
                            x       y       z     vdW  Elec       q    Type
                         _______ _______ _______ _____ _____    ______ ____

>  <TORSDO>
F 17

$$$$
=
 OpenBabel11032420393D

 45 50  0  0  1  0  0  0  0  0999 V2000
  183.5140  178.7370  141.2590 C   0  0  2  0  0  3  0  0  0  0  0  0
  182.0940  178.2780  141.5630 C   0  0  0  0  0  2  0  0  0  0  0  0
  181.1530  179.4670  141.6420 C   0  0  0  0  0  2  0  0  0  0  0  0
  179.9090  178.5670  139.8290 O   0  0  0  0  0  0  0  0  0  0  0  0
  180.3960  179.5970  140.3700 C   0  0  0  0  0  0  0  0  0  0  0  0
  180.2000  180.8850  139.7880 N   0  0  0  0  0  2  0  0  0  0  0  0
  179.4350  181.0580  138.5630 C   0  0  0  0  0  2  0  0  0  0  0  0
  180.0560  182.1180  135.1200 C   0  0  0  0  0  3  0  0  0  0  0  0
  180.2080  181.8890  137.5890 C   0  0  0  0  0  0  0  0  0  0  0  0
  182.0240  185.0390  137.7990 F   0  0  0  0  0  0  0  0  0  0  0  0
  180.3060  183.4120  134.9310 C   0  0  0  0  0  3  0  0  0  0  0  0
  180.5720  183.1120  137.9780 C   0  0  0  0  0  3  0  0  0  0  0  0
  180.6420  181.3410  136.2520 C   0  0  1  0  0  3  0  0  0  0  0  0
  181.1150  184.2600  135.8280 C   0  0  0  0  0  3  0  0  0  0  0  0
  181.2820  184.1100  137.1500 C   0  0  0  0  0  0  0  0  0  0  0  0
  179.3950  179.4960  135.4100 O   0  0  0  0  0  0  0  0  0  0  0  0
  181.2950  178.9150  136.6420 N   0  0  0  0  0  2  0  0  0  0  0  0
  180.3930  179.8740  136.0790 C   0  0  0  0  0  0  0  0  0  0  0  0
  181.1420  177.4810  136.4440 C   0  0  0  0  0  2  0  0  0  0  0  0
  181.8630  176.7240  137.5430 C   0  0  0  0  0  1  0  0  0  0  0  0
  183.9310  178.2110  140.0050 O   0  0  0  0  0  0  0  0  0  0  0  0
  184.7560  178.9250  139.1270 C   0  0  0  0  0  0  0  0  0  0  0  0
  184.6140  180.1710  138.9920 O   0  0  0  0  0  0  0  0  0  0  0  0
  185.4700  177.5380  137.2680 C   0  0  0  0  0  2  0  0  0  0  0  0
  185.7940  178.2170  138.3590 C   0  0  0  0  0  0  0  0  0  0  0  0
  187.2260  178.2340  138.7930 C   0  0  0  0  0  2  0  0  0  0  0  0
  188.9550  178.1300  142.2070 N   0  0  0  0  0  4  0  0  0  0  0  0
  189.9300  175.8610  142.9720 S   0  0  0  0  0  1  0  0  0  0  0  0
  190.1370  178.5560  142.9820 C   0  0  0  0  0  2  0  0  0  0  0  0
  189.7570  177.4980  140.6800 N   0  0  0  0  0  0  0  0  0  0  0  0
  187.3290  178.4230  140.2340 N   0  0  0  0  0  0  0  0  0  0  0  0
  188.5080  178.0680  140.9530 C   0  0  0  0  0  0  0  0  0  0  0  0
  190.1560  177.4780  142.1680 C   0  0  2  0  0  0  0  0  0  0  0  0
  184.4500  178.2270  142.3380 C   0  0  0  0  0  2  0  0  0  0  0  0
  184.0540  178.7920  143.6900 C   0  0  0  0  0  2  0  0  0  0  0  0
  184.9020  178.8390  146.0430 C   0  0  0  0  0  3  0  0  0  0  0  0
  185.0770  178.4370  144.7140 C   0  0  0  0  0  0  0  0  0  0  0  0
  187.1630  177.3610  145.3180 C   0  0  0  0  0  3  0  0  0  0  0  0
  186.2120  177.7010  144.3530 C   0  0  0  0  0  3  0  0  0  0  0  0
  185.8570  178.5010  147.0080 C   0  0  0  0  0  3  0  0  0  0  0  0
  186.9870  177.7590  146.6520 C   0  0  0  0  0  0  0  0  0  0  0  0
  187.9420  177.4120  147.6590 N   0  0  0  0  0  2  0  0  0  0  0  0
  190.2600  176.8050  147.5070 C   0  0  0  0  0  2  0  0  0  0  0  0
  189.9100  177.6350  146.4270 O   0  0  0  0  0  0  0  0  0  0  0  0
  189.3060  177.9210  147.6650 C   0  0  1  0  0  3  0  0  0  0  0  0
  1  2  1  1  0  0  0
  1 34  1  0  0  0  0
  2  3  1  0  0  0  0
  4  5  2  0  0  0  0
  5  3  1  0  0  0  0
  6  5  1  0  0  0  0
  7  6  1  0  0  0  0
  8 13  1  0  0  0  0
  9 12  2  0  0  0  0
  9  7  1  0  0  0  0
 11  8  2  0  0  0  0
 11 14  1  0  0  0  0
 13 18  1  6  0  0  0
 13  9  1  0  0  0  0
 14 15  2  0  0  0  0
 15 10  1  0  0  0  0
 15 12  1  0  0  0  0
 16 18  2  0  0  0  0
 18 17  1  0  0  0  0
 19 17  1  0  0  0  0
 19 20  1  0  0  0  0
 21  1  1  0  0  0  0
 22 21  1  0  0  0  0
 23 22  2  0  0  0  0
 24 25  2  0  0  0  0
 25 26  1  0  0  0  0
 25 22  1  0  0  0  0
 26 31  1  0  0  0  0
 27 29  1  0  0  0  0
 30 32  1  0  0  0  0
 30 33  1  0  0  0  0
 30 27  1  0  0  0  0
 31 32  2  0  0  0  0
 32 27  1  0  0  0  0
 33 27  1  0  0  0  0
 33 28  1  1  0  0  0
 33 29  1  0  0  0  0
 34 35  1  0  0  0  0
 35 37  1  0  0  0  0
 36 40  1  0  0  0  0
 37 36  2  0  0  0  0
 38 41  1  0  0  0  0
 39 37  1  0  0  0  0
 39 38  2  0  0  0  0
 41 40  2  0  0  0  0
 41 42  1  0  0  0  0
 43 45  1  0  0  0  0
 44 43  1  0  0  0  0
 44 45  1  0  0  0  0
 45 42  1  6  0  0  0
M  END
>  <MODEL>
2

>  <REMARK>
 VINA RESULT:      -8.1      2.729      4.727
  Name = 
  17 active torsions:
  status: ('A' for Active; 'I' for Inactive)
    1  A    between atoms: C_3  and  C_21
    2  A    between atoms: C_4  and  C_22
    3  A    between atoms: C_4  and  O_24
    4  A    between atoms: C_4  and  C_44
    5  A    between atoms: C_9  and  C_13
    6  A    between atoms: C_13  and  C_44
    7  A    between atoms: C_15  and  N_25
    8  A    between atoms: C_15  and  C_34
    9  A    between atoms: C_16  and  O_24
   10  A    between atoms: C_16  and  C_34
   11  A    between atoms: C_17  and  N_29
   12  A    between atoms: N_20  and  C_43
   13  A    between atoms: N_20  and  C_45
   14  A    between atoms: C_21  and  N_32
   15  A    between atoms: C_22  and  C_35
   16  A    between atoms: C_30  and  C_35
   17  A    between atoms: C_36  and  C_42
                            x       y       z     vdW  Elec       q    Type
                         _______ _______ _______ _____ _____    ______ ____

>  <TORSDO>
F 17

$$$$
=
 OpenBabel11032420393D

 45 50  0  0  1  0  0  0  0  0999 V2000
  185.0420  178.4250  144.9040 C   0  0  2  0  0  3  0  0  0  0  0  0
  185.7660  179.2660  145.9470 C   0  0  0  0  0  2  0  0  0  0  0  0
  185.7030  178.5990  147.3100 C   0  0  0  0  0  2  0  0  0  0  0  0
  187.3230  177.8810  148.8930 O   0  0  0  0  0  0  0  0  0  0  0  0
  187.0460  178.0820  147.6800 C   0  0  0  0  0  0  0  0  0  0  0  0
  188.0000  177.7870  146.6590 N   0  0  0  0  0  2  0  0  0  0  0  0
  189.3120  177.2460  146.9770 C   0  0  0  0  0  2  0  0  0  0  0  0
  191.7360  175.9160  144.5850 C   0  0  0  0  0  3  0  0  0  0  0  0
  190.2490  177.4670  145.8320 C   0  0  0  0  0  0  0  0  0  0  0  0
  190.4230  179.8740  143.1050 F   0  0  0  0  0  0  0  0  0  0  0  0
  191.6540  176.3740  143.3380 C   0  0  0  0  0  3  0  0  0  0  0  0
  189.8780  178.3410  144.8940 C   0  0  0  0  0  3  0  0  0  0  0  0
  191.6020  176.8020  145.7790 C   0  0  1  0  0  3  0  0  0  0  0  0
  191.3540  177.7700  142.9630 C   0  0  0  0  0  3  0  0  0  0  0  0
  190.6250  178.6550  143.6580 C   0  0  0  0  0  0  0  0  0  0  0  0
  191.7790  174.8300  147.1010 O   0  0  0  0  0  0  0  0  0  0  0  0
  192.5840  176.7720  148.1240 N   0  0  0  0  0  2  0  0  0  0  0  0
  191.9790  176.0720  147.0310 C   0  0  0  0  0  0  0  0  0  0  0  0
  193.0350  176.1010  149.3340 C   0  0  0  0  0  2  0  0  0  0  0  0
  193.9520  177.0150  150.1250 C   0  0  0  0  0  1  0  0  0  0  0  0
  185.4490  178.8200  143.6000 O   0  0  0  0  0  0  0  0  0  0  0  0
  186.4500  178.1480  142.8880 C   0  0  0  0  0  0  0  0  0  0  0  0
  187.0680  177.1840  143.4170 O   0  0  0  0  0  0  0  0  0  0  0  0
  185.8240  178.9750  140.6940 C   0  0  0  0  0  2  0  0  0  0  0  0
  186.7800  178.5680  141.5160 C   0  0  0  0  0  0  0  0  0  0  0  0
  188.1890  178.5330  141.0140 C   0  0  0  0  0  2  0  0  0  0  0  0
  188.7570  177.2070  137.4680 N   0  0  0  0  0  4  0  0  0  0  0  0
  187.1560  178.0440  135.6200 S   0  0  0  0  0  1  0  0  0  0  0  0
  189.6460  177.2360  136.2890 C   0  0  0  0  0  2  0  0  0  0  0  0
  188.6180  179.0020  137.8340 N   0  0  0  0  0  0  0  0  0  0  0  0
  188.3510  177.5090  139.9910 N   0  0  0  0  0  0  0  0  0  0  0  0
  188.5460  177.8440  138.6190 C   0  0  0  0  0  0  0  0  0  0  0  0
  188.7260  178.1970  136.5260 C   0  0  2  0  0  0  0  0  0  0  0  0
  183.5460  178.6390  145.0350 C   0  0  0  0  0  2  0  0  0  0  0  0
  183.0620  179.6340  143.9950 C   0  0  0  0  0  2  0  0  0  0  0  0
  182.3280  178.7080  141.7910 C   0  0  0  0  0  3  0  0  0  0  0  0
  182.0290  179.0050  143.1250 C   0  0  0  0  0  0  0  0  0  0  0  0
  179.7980  178.1080  142.8200 C   0  0  0  0  0  3  0  0  0  0  0  0
  180.7600  178.7080  143.6360 C   0  0  0  0  0  3  0  0  0  0  0  0
  181.3640  178.1120  140.9720 C   0  0  0  0  0  3  0  0  0  0  0  0
  180.0990  177.8060  141.4830 C   0  0  0  0  0  0  0  0  0  0  0  0
  179.1330  177.1810  140.6310 N   0  0  0  0  0  2  0  0  0  0  0  0
  179.0480  175.2630  139.1900 C   0  0  0  0  0  2  0  0  0  0  0  0
  180.1090  175.1290  140.1050 O   0  0  0  0  0  0  0  0  0  0  0  0
  178.9350  175.7400  140.5830 C   0  0  1  0  0  3  0  0  0  0  0  0
  1 34  1  6  0  0  0
  1  2  1  0  0  0  0
  2  3  1  0  0  0  0
  3  5  1  0  0  0  0
  5  4  2  0  0  0  0
  6  7  1  0  0  0  0
  6  5  1  0  0  0  0
  8 13  1  0  0  0  0
  9  7  1  0  0  0  0
 10 15  1  0  0  0  0
 11  8  2  0  0  0  0
 12  9  2  0  0  0  0
 13  9  1  0  0  0  0
 13 18  1  1  0  0  0
 14 11  1  0  0  0  0
 14 15  2  0  0  0  0
 15 12  1  0  0  0  0
 17 19  1  0  0  0  0
 18 16  2  0  0  0  0
 18 17  1  0  0  0  0
 19 20  1  0  0  0  0
 21  1  1  0  0  0  0
 22 23  2  0  0  0  0
 22 21  1  0  0  0  0
 24 25  2  0  0  0  0
 25 22  1  0  0  0  0
 26 25  1  0  0  0  0
 27 30  1  0  0  0  0
 27 32  1  0  0  0  0
 29 33  1  0  0  0  0
 29 27  1  0  0  0  0
 30 32  1  0  0  0  0
 31 26  1  0  0  0  0
 32 31  2  0  0  0  0
 33 28  1  6  0  0  0
 33 27  1  0  0  0  0
 33 30  1  0  0  0  0
 35 34  1  0  0  0  0
 36 37  1  0  0  0  0
 37 39  2  0  0  0  0
 37 35  1  0  0  0  0
 38 39  1  0  0  0  0
 40 41  1  0  0  0  0
 40 36  2  0  0  0  0
 41 38  2  0  0  0  0
 42 41  1  0  0  0  0
 43 44  1  0  0  0  0
 43 45  1  0  0  0  0
 44 45  1  0  0  0  0
 45 42  1  6  0  0  0
M  END
>  <MODEL>
3

>  <REMARK>
 VINA RESULT:      -7.9      3.022      9.393
  Name = 
  17 active torsions:
  status: ('A' for Active; 'I' for Inactive)
    1  A    between atoms: C_3  and  C_21
    2  A    between atoms: C_4  and  C_22
    3  A    between atoms: C_4  and  O_24
    4  A    between atoms: C_4  and  C_44
    5  A    between atoms: C_9  and  C_13
    6  A    between atoms: C_13  and  C_44
    7  A    between atoms: C_15  and  N_25
    8  A    between atoms: C_15  and  C_34
    9  A    between atoms: C_16  and  O_24
   10  A    between atoms: C_16  and  C_34
   11  A    between atoms: C_17  and  N_29
   12  A    between atoms: N_20  and  C_43
   13  A    between atoms: N_20  and  C_45
   14  A    between atoms: C_21  and  N_32
   15  A    between atoms: C_22  and  C_35
   16  A    between atoms: C_30  and  C_35
   17  A    between atoms: C_36  and  C_42
                            x       y       z     vdW  Elec       q    Type
                         _______ _______ _______ _____ _____    ______ ____

>  <TORSDO>
F 17

$$$$
=
 OpenBabel11032420393D

 45 50  0  0  1  0  0  0  0  0999 V2000
  184.5060  179.0040  142.2150 C   0  0  2  0  0  3  0  0  0  0  0  0
  185.7540  179.0330  141.3420 C   0  0  0  0  0  2  0  0  0  0  0  0
  186.8620  178.2020  141.9650 C   0  0  0  0  0  2  0  0  0  0  0  0
  189.1890  177.9220  141.5770 O   0  0  0  0  0  0  0  0  0  0  0  0
  188.0670  178.2380  141.0970 C   0  0  0  0  0  0  0  0  0  0  0  0
  187.9410  178.6010  139.7220 N   0  0  0  0  0  2  0  0  0  0  0  0
  189.0910  178.6140  138.8310 C   0  0  0  0  0  2  0  0  0  0  0  0
  188.6650  175.4270  137.0920 C   0  0  0  0  0  3  0  0  0  0  0  0
  188.7760  177.8610  137.5780 C   0  0  0  0  0  0  0  0  0  0  0  0
  186.8140  178.5760  134.5940 F   0  0  0  0  0  0  0  0  0  0  0  0
  187.6480  175.3460  136.2370 C   0  0  0  0  0  3  0  0  0  0  0  0
  187.8370  178.3660  136.7760 C   0  0  0  0  0  3  0  0  0  0  0  0
  189.5490  176.6260  137.1820 C   0  0  1  0  0  3  0  0  0  0  0  0
  187.2120  176.4280  135.3310 C   0  0  0  0  0  3  0  0  0  0  0  0
  187.3360  177.7480  135.5290 C   0  0  0  0  0  0  0  0  0  0  0  0
  190.5700  175.8750  139.1980 O   0  0  0  0  0  0  0  0  0  0  0  0
  192.0650  176.5850  137.5460 N   0  0  0  0  0  2  0  0  0  0  0  0
  190.7430  176.3470  138.0420 C   0  0  0  0  0  0  0  0  0  0  0  0
  193.2610  176.2640  138.3100 C   0  0  0  0  0  2  0  0  0  0  0  0
  194.0850  175.2240  137.5740 C   0  0  0  0  0  1  0  0  0  0  0  0
  184.7320  178.1780  143.3500 O   0  0  0  0  0  0  0  0  0  0  0  0
  184.3990  178.5780  144.6500 C   0  0  0  0  0  0  0  0  0  0  0  0
  183.2510  179.0380  144.9000 O   0  0  0  0  0  0  0  0  0  0  0  0
  185.0120  178.1370  146.9560 C   0  0  0  0  0  2  0  0  0  0  0  0
  185.3940  178.4590  145.7290 C   0  0  0  0  0  0  0  0  0  0  0  0
  186.8470  178.7120  145.4750 C   0  0  0  0  0  2  0  0  0  0  0  0
  190.0730  176.7000  145.9230 N   0  0  0  0  0  4  0  0  0  0  0  0
  191.4530  176.1870  143.7990 S   0  0  0  0  0  1  0  0  0  0  0  0
  191.4520  176.7210  146.4480 C   0  0  0  0  0  2  0  0  0  0  0  0
  190.0290  178.2970  145.0160 N   0  0  0  0  0  0  0  0  0  0  0  0
  187.6540  177.5800  145.9090 N   0  0  0  0  0  0  0  0  0  0  0  0
  189.0560  177.5190  145.6550 C   0  0  0  0  0  0  0  0  0  0  0  0
  191.1280  177.2420  145.2450 C   0  0  2  0  0  0  0  0  0  0  0  0
  183.3480  178.4340  141.4190 C   0  0  0  0  0  2  0  0  0  0  0  0
  183.5110  178.7560  139.9440 C   0  0  0  0  0  2  0  0  0  0  0  0
  182.7490  176.4060  139.5550 C   0  0  0  0  0  3  0  0  0  0  0  0
  183.5170  177.5000  139.1420 C   0  0  0  0  0  0  0  0  0  0  0  0
  184.2800  176.2340  137.2210 C   0  0  0  0  0  3  0  0  0  0  0  0
  184.2860  177.4100  137.9750 C   0  0  0  0  0  3  0  0  0  0  0  0
  182.7470  175.2270  138.8020 C   0  0  0  0  0  3  0  0  0  0  0  0
  183.5070  175.1380  137.6320 C   0  0  0  0  0  0  0  0  0  0  0  0
  183.4770  173.9280  136.8690 N   0  0  0  0  0  2  0  0  0  0  0  0
  183.3420  171.5310  136.8110 C   0  0  0  0  0  2  0  0  0  0  0  0
  184.5350  171.9590  136.2000 O   0  0  0  0  0  0  0  0  0  0  0  0
  184.1010  172.6920  137.3200 C   0  0  1  0  0  3  0  0  0  0  0  0
  1  2  1  6  0  0  0
  1 21  1  0  0  0  0
  2  3  1  0  0  0  0
  5  4  2  0  0  0  0
  5  3  1  0  0  0  0
  6  5  1  0  0  0  0
  7  6  1  0  0  0  0
  8 13  1  0  0  0  0
  9  7  1  0  0  0  0
 10 15  1  0  0  0  0
 11  8  2  0  0  0  0
 12  9  2  0  0  0  0
 13  9  1  0  0  0  0
 13 18  1  1  0  0  0
 14 15  2  0  0  0  0
 14 11  1  0  0  0  0
 15 12  1  0  0  0  0
 17 18  1  0  0  0  0
 17 19  1  0  0  0  0
 18 16  2  0  0  0  0
 20 19  1  0  0  0  0
 21 22  1  0  0  0  0
 22 23  2  0  0  0  0
 22 25  1  0  0  0  0
 25 24  2  0  0  0  0
 26 25  1  0  0  0  0
 26 31  1  0  0  0  0
 27 29  1  0  0  0  0
 30 33  1  0  0  0  0
 30 32  1  0  0  0  0
 30 27  1  0  0  0  0
 32 31  2  0  0  0  0
 32 27  1  0  0  0  0
 33 28  1  6  0  0  0
 33 27  1  0  0  0  0
 33 29  1  0  0  0  0
 34  1  1  0  0  0  0
 35 34  1  0  0  0  0
 37 36  1  0  0  0  0
 37 35  1  0  0  0  0
 38 41  2  0  0  0  0
 38 39  1  0  0  0  0
 39 37  2  0  0  0  0
 40 36  2  0  0  0  0
 41 40  1  0  0  0  0
 42 41  1  0  0  0  0
 43 45  1  0  0  0  0
 44 43  1  0  0  0  0
 44 45  1  0  0  0  0
 45 42  1  6  0  0  0
M  END
>  <MODEL>
4

>  <REMARK>
 VINA RESULT:      -7.7      3.393      8.720
  Name = 
  17 active torsions:
  status: ('A' for Active; 'I' for Inactive)
    1  A    between atoms: C_3  and  C_21
    2  A    between atoms: C_4  and  C_22
    3  A    between atoms: C_4  and  O_24
    4  A    between atoms: C_4  and  C_44
    5  A    between atoms: C_9  and  C_13
    6  A    between atoms: C_13  and  C_44
    7  A    between atoms: C_15  and  N_25
    8  A    between atoms: C_15  and  C_34
    9  A    between atoms: C_16  and  O_24
   10  A    between atoms: C_16  and  C_34
   11  A    between atoms: C_17  and  N_29
   12  A    between atoms: N_20  and  C_43
   13  A    between atoms: N_20  and  C_45
   14  A    between atoms: C_21  and  N_32
   15  A    between atoms: C_22  and  C_35
   16  A    between atoms: C_30  and  C_35
   17  A    between atoms: C_36  and  C_42
                            x       y       z     vdW  Elec       q    Type
                         _______ _______ _______ _____ _____    ______ ____

>  <TORSDO>
F 17

$$$$
=
 OpenBabel11032420393D

 45 50  0  0  1  0  0  0  0  0999 V2000
  188.6360  177.8720  141.1650 C   0  0  2  0  0  3  0  0  0  0  0  0
  188.6730  177.3720  139.7270 C   0  0  0  0  0  2  0  0  0  0  0  0
  188.2990  178.4840  138.7640 C   0  0  0  0  0  2  0  0  0  0  0  0
  187.9020  177.6660  136.5680 O   0  0  0  0  0  0  0  0  0  0  0  0
  187.4140  177.9500  137.6960 C   0  0  0  0  0  0  0  0  0  0  0  0
  186.0290  177.7350  137.9630 N   0  0  0  0  0  2  0  0  0  0  0  0
  185.1370  177.1810  136.9570 C   0  0  0  0  0  2  0  0  0  0  0  0
  182.5600  175.6320  139.0370 C   0  0  0  0  0  3  0  0  0  0  0  0
  183.7320  177.1640  137.4710 C   0  0  0  0  0  0  0  0  0  0  0  0
  181.1730  179.7030  137.9920 F   0  0  0  0  0  0  0  0  0  0  0  0
  181.7620  176.4590  139.7100 C   0  0  0  0  0  3  0  0  0  0  0  0
  183.1540  178.3400  137.7180 C   0  0  0  0  0  3  0  0  0  0  0  0
  182.9610  175.8760  137.6190 C   0  0  1  0  0  3  0  0  0  0  0  0
  181.2320  177.7360  139.1930 C   0  0  0  0  0  3  0  0  0  0  0  0
  181.8030  178.5410  138.2860 C   0  0  0  0  0  0  0  0  0  0  0  0
  183.5300  174.4300  135.8150 O   0  0  0  0  0  0  0  0  0  0  0  0
  184.4580  173.8370  137.8780 N   0  0  0  0  0  2  0  0  0  0  0  0
  183.6500  174.6760  137.0450 C   0  0  0  0  0  0  0  0  0  0  0  0
  185.2070  172.7030  137.3590 C   0  0  0  0  0  2  0  0  0  0  0  0
  186.6360  173.1150  137.0600 C   0  0  0  0  0  1  0  0  0  0  0  0
  188.9050  176.7960  142.0550 O   0  0  0  0  0  0  0  0  0  0  0  0
  190.2040  176.4520  142.4500 C   0  0  0  0  0  0  0  0  0  0  0  0
  190.4640  175.2780  142.8300 O   0  0  0  0  0  0  0  0  0  0  0  0
  192.1860  177.4450  141.4630 C   0  0  0  0  0  2  0  0  0  0  0  0
  191.2710  177.4670  142.4200 C   0  0  0  0  0  0  0  0  0  0  0  0
  191.3570  178.5310  143.4690 C   0  0  0  0  0  2  0  0  0  0  0  0
  190.4750  176.9930  146.8620 N   0  0  0  0  0  4  0  0  0  0  0  0
  188.8800  178.3350  148.3920 S   0  0  0  0  0  1  0  0  0  0  0  0
  189.7400  175.9140  147.5510 C   0  0  0  0  0  2  0  0  0  0  0  0
  189.1910  177.5860  145.6890 N   0  0  0  0  0  0  0  0  0  0  0  0
  191.6370  177.9510  144.7750 N   0  0  0  0  0  0  0  0  0  0  0  0
  190.5910  177.5630  145.6640 C   0  0  0  0  0  0  0  0  0  0  0  0
  189.1360  177.0480  147.1310 C   0  0  2  0  0  0  0  0  0  0  0  0
  187.2590  178.4260  141.4710 C   0  0  0  0  0  2  0  0  0  0  0  0
  186.7770  177.9300  142.8220 C   0  0  0  0  0  2  0  0  0  0  0  0
  184.4890  178.3870  141.9230 C   0  0  0  0  0  3  0  0  0  0  0  0
  185.3480  178.2970  143.0240 C   0  0  0  0  0  0  0  0  0  0  0  0
  183.5140  178.8840  144.4970 C   0  0  0  0  0  3  0  0  0  0  0  0
  184.8580  178.5510  144.3110 C   0  0  0  0  0  3  0  0  0  0  0  0
  183.1440  178.7250  142.1090 C   0  0  0  0  0  3  0  0  0  0  0  0
  182.6510  178.9700  143.3940 C   0  0  0  0  0  0  0  0  0  0  0  0
  181.2680  179.2990  143.5620 N   0  0  0  0  0  2  0  0  0  0  0  0
  179.0190  179.7570  142.8570 C   0  0  0  0  0  2  0  0  0  0  0  0
  179.9290  180.2020  141.8790 O   0  0  0  0  0  0  0  0  0  0  0  0
  180.2580  179.0120  142.5540 C   0  0  1  0  0  3  0  0  0  0  0  0
  1  2  1  6  0  0  0
  1 34  1  0  0  0  0
  1 21  1  0  0  0  0
  3  2  1  0  0  0  0
  4  5  2  0  0  0  0
  5  6  1  0  0  0  0
  5  3  1  0  0  0  0
  7  9  1  0  0  0  0
  7  6  1  0  0  0  0
  8 11  2  0  0  0  0
  9 13  1  0  0  0  0
  9 12  2  0  0  0  0
 10 15  1  0  0  0  0
 12 15  1  0  0  0  0
 13 18  1  1  0  0  0
 13  8  1  0  0  0  0
 14 11  1  0  0  0  0
 15 14  2  0  0  0  0
 16 18  2  0  0  0  0
 18 17  1  0  0  0  0
 19 17  1  0  0  0  0
 20 19  1  0  0  0  0
 21 22  1  0  0  0  0
 22 23  2  0  0  0  0
 24 25  2  0  0  0  0
 25 22  1  0  0  0  0
 25 26  1  0  0  0  0
 26 31  1  0  0  0  0
 27 33  1  0  0  0  0
 27 29  1  0  0  0  0
 30 27  1  0  0  0  0
 30 33  1  0  0  0  0
 31 32  2  0  0  0  0
 32 30  1  0  0  0  0
 32 27  1  0  0  0  0
 33 29  1  0  0  0  0
 33 28  1  1  0  0  0
 34 35  1  0  0  0  0
 35 37  1  0  0  0  0
 36 40  2  0  0  0  0
 36 37  1  0  0  0  0
 37 39  2  0  0  0  0
 39 38  1  0  0  0  0
 40 41  1  0  0  0  0
 41 42  1  0  0  0  0
 41 38  2  0  0  0  0
 44 45  1  0  0  0  0
 44 43  1  0  0  0  0
 45 43  1  0  0  0  0
 45 42  1  1  0  0  0
M  END
>  <MODEL>
5

>  <REMARK>
 VINA RESULT:      -7.5      3.274      7.574
  Name = 
  17 active torsions:
  status: ('A' for Active; 'I' for Inactive)
    1  A    between atoms: C_3  and  C_21
    2  A    between atoms: C_4  and  C_22
    3  A    between atoms: C_4  and  O_24
    4  A    between atoms: C_4  and  C_44
    5  A    between atoms: C_9  and  C_13
    6  A    between atoms: C_13  and  C_44
    7  A    between atoms: C_15  and  N_25
    8  A    between atoms: C_15  and  C_34
    9  A    between atoms: C_16  and  O_24
   10  A    between atoms: C_16  and  C_34
   11  A    between atoms: C_17  and  N_29
   12  A    between atoms: N_20  and  C_43
   13  A    between atoms: N_20  and  C_45
   14  A    between atoms: C_21  and  N_32
   15  A    between atoms: C_22  and  C_35
   16  A    between atoms: C_30  and  C_35
   17  A    between atoms: C_36  and  C_42
                            x       y       z     vdW  Elec       q    Type
                         _______ _______ _______ _____ _____    ______ ____

>  <TORSDO>
F 17

$$$$
=
 OpenBabel11032420393D

 45 50  0  0  1  0  0  0  0  0999 V2000
  184.6200  178.3100  143.4590 C   0  0  2  0  0  3  0  0  0  0  0  0
  183.5760  179.3760  143.7600 C   0  0  0  0  0  2  0  0  0  0  0  0
  182.2850  178.7400  144.2440 C   0  0  0  0  0  2  0  0  0  0  0  0
  180.1700  178.1650  143.3260 O   0  0  0  0  0  0  0  0  0  0  0  0
  181.3180  178.6430  143.1190 C   0  0  0  0  0  0  0  0  0  0  0  0
  181.6860  179.1180  141.8240 N   0  0  0  0  0  2  0  0  0  0  0  0
  180.7570  179.0730  140.7060 C   0  0  0  0  0  2  0  0  0  0  0  0
  183.4440  178.5070  138.2920 C   0  0  0  0  0  3  0  0  0  0  0  0
  181.3380  178.2660  139.5890 C   0  0  0  0  0  0  0  0  0  0  0  0
  181.0490  174.7930  138.5290 F   0  0  0  0  0  0  0  0  0  0  0  0
  183.8120  177.2430  138.0980 C   0  0  0  0  0  3  0  0  0  0  0  0
  181.1660  176.9440  139.6320 C   0  0  0  0  0  3  0  0  0  0  0  0
  182.0140  178.9210  138.4090 C   0  0  1  0  0  3  0  0  0  0  0  0
  182.8930  176.0890  138.0440 C   0  0  0  0  0  3  0  0  0  0  0  0
  181.7120  175.9660  138.6660 C   0  0  0  0  0  0  0  0  0  0  0  0
  182.8640  181.1210  138.7310 O   0  0  0  0  0  0  0  0  0  0  0  0
  180.6740  181.0250  137.9200 N   0  0  0  0  0  2  0  0  0  0  0  0
  181.8850  180.4120  138.3760 C   0  0  0  0  0  0  0  0  0  0  0  0
  180.5190  182.4670  137.7990 C   0  0  0  0  0  2  0  0  0  0  0  0
  180.7970  182.9020  136.3720 C   0  0  0  0  0  1  0  0  0  0  0  0
  185.8340  178.6220  144.1320 O   0  0  0  0  0  0  0  0  0  0  0  0
  186.3850  177.7900  145.1130 C   0  0  0  0  0  0  0  0  0  0  0  0
  187.0500  176.7700  144.7830 O   0  0  0  0  0  0  0  0  0  0  0  0
  184.9670  178.2470  147.0290 C   0  0  0  0  0  2  0  0  0  0  0  0
  186.1900  178.1080  146.5370 C   0  0  0  0  0  0  0  0  0  0  0  0
  187.3560  178.2940  147.4560 C   0  0  0  0  0  2  0  0  0  0  0  0
  190.5040  176.2290  146.7620 N   0  0  0  0  0  4  0  0  0  0  0  0
  191.3160  176.0960  144.3120 S   0  0  0  0  0  1  0  0  0  0  0  0
  191.9690  176.1540  146.9330 C   0  0  0  0  0  2  0  0  0  0  0  0
  190.3170  177.9610  146.1780 N   0  0  0  0  0  0  0  0  0  0  0  0
  188.1930  177.1030  147.4830 N   0  0  0  0  0  0  0  0  0  0  0  0
  189.4910  177.0840  146.8910 C   0  0  0  0  0  0  0  0  0  0  0  0
  191.3910  176.8810  145.9510 C   0  0  2  0  0  0  0  0  0  0  0  0
  184.8850  178.2710  141.9660 C   0  0  0  0  0  2  0  0  0  0  0  0
  185.9640  179.2730  141.5950 C   0  0  0  0  0  2  0  0  0  0  0  0
  187.1120  178.2740  139.6110 C   0  0  0  0  0  3  0  0  0  0  0  0
  187.1240  178.5730  140.9780 C   0  0  0  0  0  0  0  0  0  0  0  0
  189.3200  177.5650  141.1730 C   0  0  0  0  0  3  0  0  0  0  0  0
  188.2300  178.2120  141.7590 C   0  0  0  0  0  3  0  0  0  0  0  0
  188.2020  177.6220  139.0260 C   0  0  0  0  0  3  0  0  0  0  0  0
  189.3110  177.2690  139.8020 C   0  0  0  0  0  0  0  0  0  0  0  0
  190.4220  176.6160  139.1790 N   0  0  0  0  0  2  0  0  0  0  0  0
  191.6490  175.4160  137.5010 C   0  0  0  0  0  2  0  0  0  0  0  0
  190.5850  174.6260  137.9740 O   0  0  0  0  0  0  0  0  0  0  0  0
  190.3440  176.0070  137.8590 C   0  0  1  0  0  3  0  0  0  0  0  0
  1 34  1  6  0  0  0
  1  2  1  0  0  0  0
  1 21  1  0  0  0  0
  2  3  1  0  0  0  0
  5  4  2  0  0  0  0
  5  3  1  0  0  0  0
  6  5  1  0  0  0  0
  7  6  1  0  0  0  0
  8 13  1  0  0  0  0
  9 12  2  0  0  0  0
  9  7  1  0  0  0  0
 10 15  1  0  0  0  0
 11  8  2  0  0  0  0
 13 18  1  1  0  0  0
 13  9  1  0  0  0  0
 14 11  1  0  0  0  0
 14 15  2  0  0  0  0
 15 12  1  0  0  0  0
 17 18  1  0  0  0  0
 18 16  2  0  0  0  0
 19 17  1  0  0  0  0
 20 19  1  0  0  0  0
 21 22  1  0  0  0  0
 22 25  1  0  0  0  0
 23 22  2  0  0  0  0
 25 24  2  0  0  0  0
 25 26  1  0  0  0  0
 26 31  1  0  0  0  0
 27 32  1  0  0  0  0
 27 29  1  0  0  0  0
 30 27  1  0  0  0  0
 30 32  1  0  0  0  0
 32 31  2  0  0  0  0
 33 28  1  6  0  0  0
 33 30  1  0  0  0  0
 33 27  1  0  0  0  0
 33 29  1  0  0  0  0
 35 34  1  0  0  0  0
 36 37  1  0  0  0  0
 37 35  1  0  0  0  0
 37 39  2  0  0  0  0
 38 39  1  0  0  0  0
 40 36  2  0  0  0  0
 40 41  1  0  0  0  0
 41 38  2  0  0  0  0
 42 41  1  0  0  0  0
 43 45  1  0  0  0  0
 43 44  1  0  0  0  0
 45 44  1  0  0  0  0
 45 42  1  1  0  0  0
M  END
>  <MODEL>
6

>  <REMARK>
 VINA RESULT:      -7.5      2.121      5.526
  Name = 
  17 active torsions:
  status: ('A' for Active; 'I' for Inactive)
    1  A    between atoms: C_3  and  C_21
    2  A    between atoms: C_4  and  C_22
    3  A    between atoms: C_4  and  O_24
    4  A    between atoms: C_4  and  C_44
    5  A    between atoms: C_9  and  C_13
    6  A    between atoms: C_13  and  C_44
    7  A    between atoms: C_15  and  N_25
    8  A    between atoms: C_15  and  C_34
    9  A    between atoms: C_16  and  O_24
   10  A    between atoms: C_16  and  C_34
   11  A    between atoms: C_17  and  N_29
   12  A    between atoms: N_20  and  C_43
   13  A    between atoms: N_20  and  C_45
   14  A    between atoms: C_21  and  N_32
   15  A    between atoms: C_22  and  C_35
   16  A    between atoms: C_30  and  C_35
   17  A    between atoms: C_36  and  C_42
                            x       y       z     vdW  Elec       q    Type
                         _______ _______ _______ _____ _____    ______ ____

>  <TORSDO>
F 17

$$$$
=
 OpenBabel11032420393D

 45 50  0  0  1  0  0  0  0  0999 V2000
  183.2650  177.6140  138.3820 C   0  0  2  0  0  3  0  0  0  0  0  0
  183.0510  177.2620  139.8480 C   0  0  0  0  0  2  0  0  0  0  0  0
  183.1150  178.5090  140.7130 C   0  0  0  0  0  2  0  0  0  0  0  0
  185.1870  179.6540  140.5090 O   0  0  0  0  0  0  0  0  0  0  0  0
  184.5210  178.7710  141.1150 C   0  0  0  0  0  0  0  0  0  0  0  0
  185.0960  178.0450  142.2010 N   0  0  0  0  0  2  0  0  0  0  0  0
  186.4570  178.2970  142.6490 C   0  0  0  0  0  2  0  0  0  0  0  0
  188.5730  177.8320  145.5940 C   0  0  0  0  0  3  0  0  0  0  0  0
  186.5930  177.9460  144.0960 C   0  0  0  0  0  0  0  0  0  0  0  0
  184.3810  178.1170  146.9850 F   0  0  0  0  0  0  0  0  0  0  0  0
  188.0880  178.2780  146.7520 C   0  0  0  0  0  3  0  0  0  0  0  0
  185.6210  178.3420  144.9200 C   0  0  0  0  0  3  0  0  0  0  0  0
  187.7360  177.0980  144.6000 C   0  0  1  0  0  3  0  0  0  0  0  0
  186.6770  178.1790  147.1760 C   0  0  0  0  0  3  0  0  0  0  0  0
  185.5950  178.1530  146.3860 C   0  0  0  0  0  0  0  0  0  0  0  0
  188.3130  175.3570  143.0820 O   0  0  0  0  0  0  0  0  0  0  0  0
  189.6770  177.2520  142.9660 N   0  0  0  0  0  2  0  0  0  0  0  0
  188.5860  176.5070  143.5180 C   0  0  0  0  0  0  0  0  0  0  0  0
  190.4900  176.7570  141.8650 C   0  0  0  0  0  2  0  0  0  0  0  0
  191.8520  177.4250  141.8820 C   0  0  0  0  0  1  0  0  0  0  0  0
  182.1220  177.2380  137.6250 O   0  0  0  0  0  0  0  0  0  0  0  0
  181.0160  178.0820  137.4640 C   0  0  0  0  0  0  0  0  0  0  0  0
  180.1690  178.2050  138.3910 O   0  0  0  0  0  0  0  0  0  0  0  0
  181.5680  178.5220  135.1420 C   0  0  0  0  0  2  0  0  0  0  0  0
  180.8420  178.8290  136.2070 C   0  0  0  0  0  0  0  0  0  0  0  0
  179.8600  179.9540  136.1040 C   0  0  0  0  0  2  0  0  0  0  0  0
  180.8440  183.6490  136.2700 N   0  0  0  0  0  4  0  0  0  0  0  0
  178.9310  185.3770  136.4590 S   0  0  0  0  0  1  0  0  0  0  0  0
  181.4690  184.7030  137.0940 C   0  0  0  0  0  2  0  0  0  0  0  0
  179.7200  182.8760  137.5000 N   0  0  0  0  0  0  0  0  0  0  0  0
  180.5120  181.1740  135.6500 N   0  0  0  0  0  0  0  0  0  0  0  0
  180.3830  182.4030  136.3620 C   0  0  0  0  0  0  0  0  0  0  0  0
  180.1820  184.3250  137.2570 C   0  0  2  0  0  0  0  0  0  0  0  0
  184.4700  176.8600  137.8540 C   0  0  0  0  0  2  0  0  0  0  0  0
  185.5280  177.8310  137.3630 C   0  0  0  0  0  2  0  0  0  0  0  0
  187.8120  178.0380  138.3630 C   0  0  0  0  0  3  0  0  0  0  0  0
  186.8890  177.2850  137.6280 C   0  0  0  0  0  0  0  0  0  0  0  0
  188.5220  175.5090  137.4060 C   0  0  0  0  0  3  0  0  0  0  0  0
  187.2490  176.0210  137.1460 C   0  0  0  0  0  3  0  0  0  0  0  0
  189.0880  177.5260  138.6190 C   0  0  0  0  0  3  0  0  0  0  0  0
  189.4470  176.2610  138.1470 C   0  0  0  0  0  0  0  0  0  0  0  0
  190.7530  175.7500  138.4340 N   0  0  0  0  0  2  0  0  0  0  0  0
  193.0830  176.2790  138.1980 C   0  0  0  0  0  2  0  0  0  0  0  0
  192.8630  174.9270  137.8770 O   0  0  0  0  0  0  0  0  0  0  0  0
  191.8610  175.8380  137.4950 C   0  0  1  0  0  3  0  0  0  0  0  0
  1 34  1  6  0  0  0
  1  2  1  0  0  0  0
  2  3  1  0  0  0  0
  3  5  1  0  0  0  0
  4  5  2  0  0  0  0
  5  6  1  0  0  0  0
  6  7  1  0  0  0  0
  7  9  1  0  0  0  0
  8 11  2  0  0  0  0
  9 13  1  0  0  0  0
  9 12  2  0  0  0  0
 11 14  1  0  0  0  0
 12 15  1  0  0  0  0
 13 18  1  6  0  0  0
 13  8  1  0  0  0  0
 15 10  1  0  0  0  0
 15 14  2  0  0  0  0
 16 18  2  0  0  0  0
 17 18  1  0  0  0  0
 19 20  1  0  0  0  0
 19 17  1  0  0  0  0
 21  1  1  0  0  0  0
 22 21  1  0  0  0  0
 22 23  2  0  0  0  0
 24 25  2  0  0  0  0
 25 22  1  0  0  0  0
 26 25  1  0  0  0  0
 27 32  1  0  0  0  0
 27 29  1  0  0  0  0
 27 33  1  0  0  0  0
 27 30  1  0  0  0  0
 29 33  1  0  0  0  0
 31 26  1  0  0  0  0
 31 32  2  0  0  0  0
 32 30  1  0  0  0  0
 33 28  1  6  0  0  0
 33 30  1  0  0  0  0
 35 37  1  0  0  0  0
 35 34  1  0  0  0  0
 36 40  1  0  0  0  0
 37 36  2  0  0  0  0
 38 41  1  0  0  0  0
 39 38  2  0  0  0  0
 39 37  1  0  0  0  0
 41 42  1  0  0  0  0
 41 40  2  0  0  0  0
 44 43  1  0  0  0  0
 45 44  1  0  0  0  0
 45 43  1  0  0  0  0
 45 42  1  1  0  0  0
M  END
>  <MODEL>
7

>  <REMARK>
 VINA RESULT:      -7.4      3.495      8.901
  Name = 
  17 active torsions:
  status: ('A' for Active; 'I' for Inactive)
    1  A    between atoms: C_3  and  C_21
    2  A    between atoms: C_4  and  C_22
    3  A    between atoms: C_4  and  O_24
    4  A    between atoms: C_4  and  C_44
    5  A    between atoms: C_9  and  C_13
    6  A    between atoms: C_13  and  C_44
    7  A    between atoms: C_15  and  N_25
    8  A    between atoms: C_15  and  C_34
    9  A    between atoms: C_16  and  O_24
   10  A    between atoms: C_16  and  C_34
   11  A    between atoms: C_17  and  N_29
   12  A    between atoms: N_20  and  C_43
   13  A    between atoms: N_20  and  C_45
   14  A    between atoms: C_21  and  N_32
   15  A    between atoms: C_22  and  C_35
   16  A    between atoms: C_30  and  C_35
   17  A    between atoms: C_36  and  C_42
                            x       y       z     vdW  Elec       q    Type
                         _______ _______ _______ _____ _____    ______ ____

>  <TORSDO>
F 17

$$$$
=
 OpenBabel11032420393D

 45 50  0  0  1  0  0  0  0  0999 V2000
  186.2120  178.5650  143.2460 C   0  0  2  0  0  3  0  0  0  0  0  0
  185.0620  179.4110  142.7150 C   0  0  0  0  0  2  0  0  0  0  0  0
  183.7630  178.6250  142.7400 C   0  0  0  0  0  2  0  0  0  0  0  0
  181.9120  178.4660  141.2590 O   0  0  0  0  0  0  0  0  0  0  0  0
  183.1580  178.6080  141.3830 C   0  0  0  0  0  0  0  0  0  0  0  0
  183.9870  178.7840  140.2340 N   0  0  0  0  0  2  0  0  0  0  0  0
  183.4300  178.8090  138.8910 C   0  0  0  0  0  2  0  0  0  0  0  0
  183.7650  177.0330  135.7130 C   0  0  0  0  0  3  0  0  0  0  0  0
  184.2210  177.9140  137.9910 C   0  0  0  0  0  0  0  0  0  0  0  0
  187.7650  177.1720  137.6010 F   0  0  0  0  0  0  0  0  0  0  0  0
  184.9720  177.0420  135.1510 C   0  0  0  0  0  3  0  0  0  0  0  0
  185.5470  178.0540  137.9950 C   0  0  0  0  0  3  0  0  0  0  0  0
  183.5600  176.8280  137.1770 C   0  0  1  0  0  3  0  0  0  0  0  0
  186.2500  176.9270  135.8810 C   0  0  0  0  0  3  0  0  0  0  0  0
  186.5010  177.3160  137.1390 C   0  0  0  0  0  0  0  0  0  0  0  0
  181.2420  177.0340  136.6760 O   0  0  0  0  0  0  0  0  0  0  0  0
  181.7170  175.9380  138.6850 N   0  0  0  0  0  2  0  0  0  0  0  0
  182.1100  176.6210  137.4900 C   0  0  0  0  0  0  0  0  0  0  0  0
  180.3270  175.6450  139.0030 C   0  0  0  0  0  2  0  0  0  0  0  0
  180.0440  174.1700  138.7930 C   0  0  0  0  0  1  0  0  0  0  0  0
  186.7710  177.7970  142.1880 O   0  0  0  0  0  0  0  0  0  0  0  0
  187.8410  178.2540  141.4100 C   0  0  0  0  0  0  0  0  0  0  0  0
  187.6290  178.9810  140.4000 O   0  0  0  0  0  0  0  0  0  0  0  0
  189.8140  178.4630  142.8080 C   0  0  0  0  0  2  0  0  0  0  0  0
  189.2200  177.8870  141.7730 C   0  0  0  0  0  0  0  0  0  0  0  0
  189.9860  176.8740  140.9810 C   0  0  0  0  0  2  0  0  0  0  0  0
  191.2000  176.7480  137.3530 N   0  0  0  0  0  4  0  0  0  0  0  0
  193.3130  175.3440  136.8590 S   0  0  0  0  0  1  0  0  0  0  0  0
  190.9160  176.2430  135.9950 C   0  0  0  0  0  2  0  0  0  0  0  0
  190.9200  175.2300  138.3480 N   0  0  0  0  0  0  0  0  0  0  0  0
  190.4260  177.4320  139.7100 N   0  0  0  0  0  0  0  0  0  0  0  0
  190.8020  176.5990  138.6150 C   0  0  0  0  0  0  0  0  0  0  0  0
  191.5010  175.4790  136.9430 C   0  0  2  0  0  0  0  0  0  0  0  0
  185.6920  177.6210  144.3130 C   0  0  0  0  0  2  0  0  0  0  0  0
  185.8350  178.2490  145.6880 C   0  0  0  0  0  2  0  0  0  0  0  0
  187.4610  178.2560  147.5880 C   0  0  0  0  0  3  0  0  0  0  0  0
  187.1810  177.9480  146.2520 C   0  0  0  0  0  0  0  0  0  0  0  0
  189.4240  177.0690  145.9880 C   0  0  0  0  0  3  0  0  0  0  0  0
  188.1670  177.3590  145.4520 C   0  0  0  0  0  3  0  0  0  0  0  0
  188.7210  177.9690  148.1240 C   0  0  0  0  0  3  0  0  0  0  0  0
  189.7040  177.3720  147.3290 C   0  0  0  0  0  0  0  0  0  0  0  0
  190.9810  177.0740  147.9020 N   0  0  0  0  0  2  0  0  0  0  0  0
  192.8640  175.6270  148.2550 C   0  0  0  0  0  2  0  0  0  0  0  0
  191.7970  174.8990  147.6960 O   0  0  0  0  0  0  0  0  0  0  0  0
  191.9630  176.2220  147.2470 C   0  0  1  0  0  3  0  0  0  0  0  0
  1  2  1  6  0  0  0
  1 34  1  0  0  0  0
  2  3  1  0  0  0  0
  4  5  2  0  0  0  0
  5  3  1  0  0  0  0
  6  5  1  0  0  0  0
  7  6  1  0  0  0  0
  8 13  1  0  0  0  0
  9 12  2  0  0  0  0
  9  7  1  0  0  0  0
 11  8  2  0  0  0  0
 11 14  1  0  0  0  0
 13 18  1  6  0  0  0
 13  9  1  0  0  0  0
 14 15  2  0  0  0  0
 15 10  1  0  0  0  0
 15 12  1  0  0  0  0
 16 18  2  0  0  0  0
 17 19  1  0  0  0  0
 18 17  1  0  0  0  0
 20 19  1  0  0  0  0
 21  1  1  0  0  0  0
 22 25  1  0  0  0  0
 22 21  1  0  0  0  0
 23 22  2  0  0  0  0
 25 24  2  0  0  0  0
 26 25  1  0  0  0  0
 27 30  1  0  0  0  0
 27 32  1  0  0  0  0
 29 33  1  0  0  0  0
 29 27  1  0  0  0  0
 30 32  1  0  0  0  0
 31 26  1  0  0  0  0
 32 31  2  0  0  0  0
 33 28  1  6  0  0  0
 33 27  1  0  0  0  0
 33 30  1  0  0  0  0
 34 35  1  0  0  0  0
 35 37  1  0  0  0  0
 36 40  1  0  0  0  0
 37 36  2  0  0  0  0
 38 41  1  0  0  0  0
 39 38  2  0  0  0  0
 39 37  1  0  0  0  0
 41 42  1  0  0  0  0
 41 40  2  0  0  0  0
 44 43  1  0  0  0  0
 45 44  1  0  0  0  0
 45 42  1  1  0  0  0
 45 43  1  0  0  0  0
M  END
>  <MODEL>
8

>  <REMARK>
 VINA RESULT:      -7.3      2.530      3.484
  Name = 
  17 active torsions:
  status: ('A' for Active; 'I' for Inactive)
    1  A    between atoms: C_3  and  C_21
    2  A    between atoms: C_4  and  C_22
    3  A    between atoms: C_4  and  O_24
    4  A    between atoms: C_4  and  C_44
    5  A    between atoms: C_9  and  C_13
    6  A    between atoms: C_13  and  C_44
    7  A    between atoms: C_15  and  N_25
    8  A    between atoms: C_15  and  C_34
    9  A    between atoms: C_16  and  O_24
   10  A    between atoms: C_16  and  C_34
   11  A    between atoms: C_17  and  N_29
   12  A    between atoms: N_20  and  C_43
   13  A    between atoms: N_20  and  C_45
   14  A    between atoms: C_21  and  N_32
   15  A    between atoms: C_22  and  C_35
   16  A    between atoms: C_30  and  C_35
   17  A    between atoms: C_36  and  C_42
                            x       y       z     vdW  Elec       q    Type
                         _______ _______ _______ _____ _____    ______ ____

>  <TORSDO>
F 17

$$$$
=
 OpenBabel11032420393D

 45 50  0  0  1  0  0  0  0  0999 V2000
  187.0670  177.7160  144.4080 C   0  0  2  0  0  3  0  0  0  0  0  0
  188.3350  176.9140  144.1490 C   0  0  0  0  0  2  0  0  0  0  0  0
  189.3070  177.7110  143.2970 C   0  0  0  0  0  2  0  0  0  0  0  0
  190.1500  175.6320  142.5150 O   0  0  0  0  0  0  0  0  0  0  0  0
  189.8920  176.8370  142.2470 C   0  0  0  0  0  0  0  0  0  0  0  0
  190.1270  177.3570  140.9390 N   0  0  0  0  0  2  0  0  0  0  0  0
  190.6640  176.5240  139.8750 C   0  0  0  0  0  2  0  0  0  0  0  0
  188.9630  175.7130  136.7420 C   0  0  0  0  0  3  0  0  0  0  0  0
  190.1150  176.9630  138.5550 C   0  0  0  0  0  0  0  0  0  0  0  0
  188.8320  180.1080  137.2410 F   0  0  0  0  0  0  0  0  0  0  0  0
  188.0620  176.5920  136.3090 C   0  0  0  0  0  3  0  0  0  0  0  0
  189.5400  178.1650  138.4960 C   0  0  0  0  0  3  0  0  0  0  0  0
  190.2800  176.1230  137.3120 C   0  0  1  0  0  3  0  0  0  0  0  0
  188.1980  178.0600  136.3940 C   0  0  0  0  0  3  0  0  0  0  0  0
  188.8830  178.7570  137.3110 C   0  0  0  0  0  0  0  0  0  0  0  0
  190.6710  173.7910  137.5910 O   0  0  0  0  0  0  0  0  0  0  0  0
  192.6020  175.1050  137.5010 N   0  0  0  0  0  2  0  0  0  0  0  0
  191.1800  174.9390  137.4850 C   0  0  0  0  0  0  0  0  0  0  0  0
  193.5240  173.9830  137.5930 C   0  0  0  0  0  2  0  0  0  0  0  0
  194.8950  174.4690  138.0250 C   0  0  0  0  0  1  0  0  0  0  0  0
  186.4030  177.2070  145.5590 O   0  0  0  0  0  0  0  0  0  0  0  0
  185.8010  178.0390  146.5100 C   0  0  0  0  0  0  0  0  0  0  0  0
  184.5500  178.2000  146.5140 O   0  0  0  0  0  0  0  0  0  0  0  0
  186.4280  180.0080  147.7820 C   0  0  0  0  0  2  0  0  0  0  0  0
  186.6320  178.7270  147.5110 C   0  0  0  0  0  0  0  0  0  0  0  0
  187.7290  178.0100  148.2330 C   0  0  0  0  0  2  0  0  0  0  0  0
  191.1220  177.1330  146.6910 N   0  0  0  0  0  4  0  0  0  0  0  0
  192.7000  175.6280  148.0780 S   0  0  0  0  0  1  0  0  0  0  0  0
  191.8130  176.3670  145.6350 C   0  0  0  0  0  2  0  0  0  0  0  0
  189.9830  175.8520  147.3520 N   0  0  0  0  0  0  0  0  0  0  0  0
  189.0220  178.2920  147.6260 N   0  0  0  0  0  0  0  0  0  0  0  0
  189.9280  177.2490  147.2700 C   0  0  0  0  0  0  0  0  0  0  0  0
  191.4200  175.8040  146.7980 C   0  0  2  0  0  0  0  0  0  0  0  0
  186.1400  177.5930  143.2150 C   0  0  0  0  0  2  0  0  0  0  0  0
  185.6120  178.9580  142.8130 C   0  0  0  0  0  2  0  0  0  0  0  0
  183.8620  178.5350  141.0760 C   0  0  0  0  0  3  0  0  0  0  0  0
  184.1840  178.8550  142.4000 C   0  0  0  0  0  0  0  0  0  0  0  0
  181.8240  178.9670  142.9420 C   0  0  0  0  0  3  0  0  0  0  0  0
  183.1610  179.0760  143.3310 C   0  0  0  0  0  3  0  0  0  0  0  0
  182.5230  178.4310  140.6860 C   0  0  0  0  0  3  0  0  0  0  0  0
  181.5000  178.6420  141.6160 C   0  0  0  0  0  0  0  0  0  0  0  0
  180.1370  178.5150  141.1980 N   0  0  0  0  0  2  0  0  0  0  0  0
  178.9820  176.8380  139.9260 C   0  0  0  0  0  2  0  0  0  0  0  0
  180.0980  176.2690  140.5680 O   0  0  0  0  0  0  0  0  0  0  0  0
  179.3990  177.2630  141.2780 C   0  0  1  0  0  3  0  0  0  0  0  0
  1 34  1  6  0  0  0
  1 21  1  0  0  0  0
  2  1  1  0  0  0  0
  3  2  1  0  0  0  0
  5  4  2  0  0  0  0
  5  3  1  0  0  0  0
  6  5  1  0  0  0  0
  7  6  1  0  0  0  0
  8 13  1  0  0  0  0
  9  7  1  0  0  0  0
 10 15  1  0  0  0  0
 11 14  1  0  0  0  0
 11  8  2  0  0  0  0
 12  9  2  0  0  0  0
 13 18  1  1  0  0  0
 13  9  1  0  0  0  0
 14 15  2  0  0  0  0
 15 12  1  0  0  0  0
 17 19  1  0  0  0  0
 18 17  1  0  0  0  0
 18 16  2  0  0  0  0
 19 20  1  0  0  0  0
 21 22  1  0  0  0  0
 22 23  2  0  0  0  0
 22 25  1  0  0  0  0
 25 24  2  0  0  0  0
 25 26  1  0  0  0  0
 27 33  1  0  0  0  0
 27 32  1  0  0  0  0
 27 30  1  0  0  0  0
 29 27  1  0  0  0  0
 29 33  1  0  0  0  0
 31 26  1  0  0  0  0
 32 30  1  0  0  0  0
 32 31  2  0  0  0  0
 33 30  1  0  0  0  0
 33 28  1  1  0  0  0
 35 34  1  0  0  0  0
 36 37  1  0  0  0  0
 37 35  1  0  0  0  0
 37 39  2  0  0  0  0
 38 39  1  0  0  0  0
 40 36  2  0  0  0  0
 40 41  1  0  0  0  0
 41 38  2  0  0  0  0
 42 41  1  0  0  0  0
 43 44  1  0  0  0  0
 43 45  1  0  0  0  0
 44 45  1  0  0  0  0
 45 42  1  6  0  0  0
M  END
>  <MODEL>
9

>  <REMARK>
 VINA RESULT:      -7.3      3.625      9.265
  Name = 
  17 active torsions:
  status: ('A' for Active; 'I' for Inactive)
    1  A    between atoms: C_3  and  C_21
    2  A    between atoms: C_4  and  C_22
    3  A    between atoms: C_4  and  O_24
    4  A    between atoms: C_4  and  C_44
    5  A    between atoms: C_9  and  C_13
    6  A    between atoms: C_13  and  C_44
    7  A    between atoms: C_15  and  N_25
    8  A    between atoms: C_15  and  C_34
    9  A    between atoms: C_16  and  O_24
   10  A    between atoms: C_16  and  C_34
   11  A    between atoms: C_17  and  N_29
   12  A    between atoms: N_20  and  C_43
   13  A    between atoms: N_20  and  C_45
   14  A    between atoms: C_21  and  N_32
   15  A    between atoms: C_22  and  C_35
   16  A    between atoms: C_30  and  C_35
   17  A    between atoms: C_36  and  C_42
                            x       y       z     vdW  Elec       q    Type
                         _______ _______ _______ _____ _____    ______ ____

>  <TORSDO>
F 17

$$$$
