=
 OpenBabel11042413143D

 63 69  0  0  1  0  0  0  0  0999 V2000
  186.9140  177.8050  139.8790 C   0  0  1  0  0  3  0  0  0  0  0  0
  186.0090  178.8810  139.2580 C   0  0  1  0  0  3  0  0  0  0  0  0
  184.6680  177.5960  136.3460 O   0  0  0  0  0  0  0  0  0  0  0  0
  185.5970  177.5460  137.4280 C   0  0  1  0  0  3  0  0  0  0  0  0
  189.3230  177.7070  139.8050 N   0  0  0  0  0  0  0  0  0  0  0  0
  188.1250  177.5000  139.0620 C   0  0  0  0  0  0  0  0  0  0  0  0
  186.8490  176.7760  137.0550 C   0  0  0  0  0  0  0  0  0  0  0  0
  185.5820  175.7310  135.2360 C   0  0  0  0  0  3  0  0  0  0  0  0
  185.9170  178.8510  137.8430 O   0  0  0  0  0  0  0  0  0  0  0  0
  187.4850  178.3040  141.2040 C   0  0  0  0  0  2  0  0  0  0  0  0
  184.5470  176.5490  135.4260 C   0  0  0  0  0  0  0  0  0  0  0  0
  187.9370  175.1580  135.6810 O   0  0  0  0  0  1  0  0  0  0  0  0
  186.8120  175.9090  136.0260 C   0  0  0  0  0  0  0  0  0  0  0  0
  188.0890  176.9530  137.8400 C   0  0  0  0  0  3  0  0  0  0  0  0
  189.0020  178.0860  141.1660 C   0  0  1  0  0  3  0  0  0  0  0  0
  193.3390  175.6450  138.7600 O   0  0  0  0  0  0  0  0  0  0  0  0
  192.9450  176.1460  137.5170 C   0  0  0  0  0  2  0  0  0  0  0  0
  191.4200  176.1410  137.4080 C   0  0  0  0  0  2  0  0  0  0  0  0
  192.7500  177.5180  140.2090 C   0  0  0  0  0  2  0  0  0  0  0  0
  191.5120  176.8610  140.0960 O   0  0  0  0  0  0  0  0  0  0  0  0
  190.7110  177.7180  139.3230 C   0  0  1  0  0  3  0  0  0  0  0  0
  193.8520  176.7320  139.4860 C   0  0  0  0  0  2  0  0  0  0  0  0
  190.8520  177.5110  137.8040 C   0  0  0  0  0  2  0  0  0  0  0  0
  183.3060  176.3820  134.6010 C   0  0  0  0  0  2  0  0  0  0  0  0
  182.0700  176.9920  135.2060 C   0  0  0  0  0  0  0  0  0  0  0  0
  181.9660  178.2390  135.3670 O   0  0  0  0  0  0  0  0  0  0  0  0
  180.9630  176.1300  135.6500 C   0  0  0  0  0  0  0  0  0  0  0  0
  181.1120  174.6990  135.6580 N   0  0  0  0  0  2  0  0  0  0  0  0
  179.8880  176.6620  136.0420 O   0  0  0  0  0  0  0  0  0  0  0  0
  180.0680  173.8090  135.9770 N   0  0  0  0  0  2  0  0  0  0  0  0
  180.2300  173.3630  137.3570 C   0  0  2  0  0  3  0  0  0  0  0  0
  180.4670  171.9040  137.4040 N   0  0  0  0  0  0  0  0  0  0  0  0
  179.1430  169.9540  136.1510 O   0  0  0  0  0  1  0  0  0  0  0  0
  182.2470  170.7310  136.1440 C   0  0  1  0  0  3  0  0  0  0  0  0
  179.9000  171.2390  135.9030 P   0  0  1  0  0  0  0  0  0  0  0  0
  181.8930  171.5690  137.3910 C   0  0  0  0  0  2  0  0  0  0  0  0
  178.9310  172.3220  135.0400 O   0  0  0  0  0  0  0  0  0  0  0  0
  181.3300  170.9130  135.0910 O   0  0  0  0  0  0  0  0  0  0  0  0
  183.9250  171.1400  135.5880 S   0  0  0  0  0  0  0  0  0  0  0  0
  185.6260  172.6370  137.0920 C   0  0  0  0  0  1  0  0  0  0  0  0
  184.1430  172.3450  136.9320 C   0  0  0  0  0  2  0  0  0  0  0  0
  179.0820  173.8790  138.2410 C   0  0  0  0  0  2  0  0  0  0  0  0
  179.6080  174.4300  139.5560 C   0  0  0  0  0  2  0  0  0  0  0  0
  180.4010  175.7130  139.3220 C   0  0  1  0  0  3  0  0  0  0  0  0
  179.7350  176.8290  139.9720 N   0  0  0  0  0  1  0  0  0  0  0  0
  181.8490  175.5930  139.8070 C   0  0  0  0  0  2  0  0  0  0  0  0
  182.7770  175.6020  138.6820 N   0  0  0  0  0  1  0  0  0  0  0  0
  184.6380  178.9970  139.9350 C   0  0  0  0  0  2  0  0  0  0  0  0
  183.9140  180.1290  139.4700 O   0  0  0  0  0  0  0  0  0  0  0  0
  182.0480  181.1700  138.3530 O   0  0  0  0  0  0  0  0  0  0  0  0
  182.7130  180.0210  138.7650 C   0  0  0  0  0  0  0  0  0  0  0  0
  182.2240  178.8910  138.4910 O   0  0  0  0  0  1  0  0  0  0  0  0
  189.3580  176.9940  142.0780 N   0  0  0  0  0  2  0  0  0  0  0  0
  189.9550  177.4810  143.3250 C   0  0  2  0  0  0  0  0  0  0  0  0
  192.0830  175.7320  146.0330 C   0  0  0  0  0  2  0  0  0  0  0  0
  188.9930  177.6410  145.6200 C   0  0  0  0  0  3  0  0  0  0  0  0
  190.7120  178.7840  143.0670 C   0  0  0  0  0  1  0  0  0  0  0  0
  190.3520  176.6180  147.4800 C   0  0  0  0  0  2  0  0  0  0  0  0
  191.6830  175.8760  147.4950 C   0  0  0  0  0  2  0  0  0  0  0  0
  190.9050  176.4250  143.9220 C   0  0  0  0  0  2  0  0  0  0  0  0
  188.8360  177.7720  144.2960 C   0  0  0  0  0  3  0  0  0  0  0  0
  190.2440  177.1900  146.1560 N   0  0  0  0  0  0  0  0  0  0  0  0
  191.3780  176.8600  145.3140 C   0  0  1  0  0  3  0  0  0  0  0  0
  1 10  1  1  0  0  0
  2  1  1  0  0  0  0
  2 48  1  1  0  0  0
  4  3  1  6  0  0  0
  4  9  1  0  0  0  0
  5 15  1  0  0  0  0
  6  5  1  0  0  0  0
  6  1  1  0  0  0  0
  7  4  1  0  0  0  0
  7 14  1  0  0  0  0
  8 11  2  0  0  0  0
  8 13  1  0  0  0  0
  9  2  1  0  0  0  0
 11  3  1  0  0  0  0
 12 13  1  0  0  0  0
 13  7  2  0  0  0  0
 14  6  2  0  0  0  0
 15 10  1  0  0  0  0
 15 53  1  1  0  0  0
 16 22  1  0  0  0  0
 17 16  1  0  0  0  0
 18 17  1  0  0  0  0
 18 23  1  0  0  0  0
 20 19  1  0  0  0  0
 21 23  1  6  0  0  0
 21  5  1  0  0  0  0
 21 20  1  0  0  0  0
 22 19  1  0  0  0  0
 24 25  1  0  0  0  0
 24 11  1  0  0  0  0
 25 26  2  0  0  0  0
 25 27  1  0  0  0  0
 27 28  1  0  0  0  0
 27 29  2  0  0  0  0
 28 30  1  0  0  0  0
 30 31  1  0  0  0  0
 31 32  1  0  0  0  0
 31 42  1  1  0  0  0
 34 39  1  6  0  0  0
 34 36  1  0  0  0  0
 35 37  2  6  0  0  0
 35 33  1  0  0  0  0
 35 32  1  0  0  0  0
 36 32  1  0  0  0  0
 38 35  1  0  0  0  0
 38 34  1  0  0  0  0
 39 41  1  0  0  0  0
 41 40  1  0  0  0  0
 42 43  1  0  0  0  0
 44 43  1  0  0  0  0
 44 46  1  0  0  0  0
 44 45  1  1  0  0  0
 47 46  1  0  0  0  0
 49 48  1  0  0  0  0
 50 51  2  0  0  0  0
 51 49  1  0  0  0  0
 52 51  1  0  0  0  0
 53 54  1  0  0  0  0
 54 57  1  6  0  0  0
 54 60  1  0  0  0  0
 54 61  1  0  0  0  0
 55 59  1  0  0  0  0
 56 62  1  0  0  0  0
 58 59  1  0  0  0  0
 61 56  2  0  0  0  0
 62 58  1  0  0  0  0
 63 60  1  6  0  0  0
 63 55  1  0  0  0  0
 63 62  1  0  0  0  0
M  END
>  <MODEL>
1

>  <REMARK>
 VINA RESULT:      -6.3      0.000      0.000
  Name = 
  18 active torsions:
  status: ('A' for Active; 'I' for Inactive)
    1  A    between atoms: C_3  and  C_11
    2  A    between atoms: S_5  and  C_28
    3  A    between atoms: S_5  and  C_50
    4  A    between atoms: C_7  and  N_9
    5  A    between atoms: C_8  and  C_36
    6  A    between atoms: C_8  and  C_63
    7  A    between atoms: N_9  and  C_59
    8  A    between atoms: C_11  and  O_13
    9  A    between atoms: N_12  and  C_43
   10  A    between atoms: O_13  and  C_38
   11  A    between atoms: N_16  and  C_46
   12  A    between atoms: C_18  and  C_29
   13  A    between atoms: C_18  and  C_45
   14  A    between atoms: C_19  and  C_29
   15  A    between atoms: N_32  and  N_56
   16  A    between atoms: C_43  and  C_47
   17  A    between atoms: C_43  and  N_56
   18  A    between atoms: C_47  and  C_63
                            x       y       z     vdW  Elec       q    Type
                         _______ _______ _______ _____ _____    ______ ____

>  <TORSDO>
F 18

$$$$
=
 OpenBabel11042413143D

 63 69  0  0  1  0  0  0  0  0999 V2000
  184.6120  177.4430  138.8220 C   0  0  1  0  0  3  0  0  0  0  0  0
  185.5700  178.6260  139.0360 C   0  0  1  0  0  3  0  0  0  0  0  0
  185.2550  179.6770  142.3110 O   0  0  0  0  0  0  0  0  0  0  0  0
  184.8080  178.9160  141.1900 C   0  0  1  0  0  3  0  0  0  0  0  0
  182.4670  177.4840  137.7210 N   0  0  0  0  0  0  0  0  0  0  0  0
  183.1710  177.8180  138.9140 C   0  0  0  0  0  0  0  0  0  0  0  0
  183.3170  178.6500  141.2520 C   0  0  0  0  0  0  0  0  0  0  0  0
  183.4040  179.1200  143.6560 C   0  0  0  0  0  3  0  0  0  0  0  0
  185.1490  179.5800  139.9970 O   0  0  0  0  0  0  0  0  0  0  0  0
  184.7590  176.9020  137.4020 C   0  0  0  0  0  2  0  0  0  0  0  0
  184.6620  179.5520  143.5720 C   0  0  0  0  0  0  0  0  0  0  0  0
  181.3130  178.4590  142.5320 O   0  0  0  0  0  1  0  0  0  0  0  0
  182.6780  178.7340  142.4340 C   0  0  0  0  0  0  0  0  0  0  0  0
  182.5800  178.2670  140.0290 C   0  0  0  0  0  3  0  0  0  0  0  0
  183.3540  176.8100  136.7950 C   0  0  1  0  0  3  0  0  0  0  0  0
  179.4040  179.4390  134.8460 O   0  0  0  0  0  0  0  0  0  0  0  0
  178.9970  178.1020  134.8290 C   0  0  0  0  0  2  0  0  0  0  0  0
  180.2050  177.1830  135.0030 C   0  0  0  0  0  2  0  0  0  0  0  0
  179.8910  179.7320  137.2190 C   0  0  0  0  0  2  0  0  0  0  0  0
  181.0880  179.1500  136.7650 O   0  0  0  0  0  0  0  0  0  0  0  0
  181.1030  177.8610  137.3250 C   0  0  1  0  0  3  0  0  0  0  0  0
  178.9310  179.9870  136.0500 C   0  0  0  0  0  2  0  0  0  0  0  0
  180.3770  176.7990  136.4790 C   0  0  0  0  0  2  0  0  0  0  0  0
  185.3890  179.9720  144.8150 C   0  0  0  0  0  2  0  0  0  0  0  0
  185.6400  178.8570  145.7940 C   0  0  0  0  0  0  0  0  0  0  0  0
  185.0870  178.8440  146.9290 O   0  0  0  0  0  0  0  0  0  0  0  0
  186.5670  177.7670  145.4510 C   0  0  0  0  0  0  0  0  0  0  0  0
  187.8960  177.7410  146.0000 N   0  0  0  0  0  2  0  0  0  0  0  0
  186.1760  176.8460  144.6820 O   0  0  0  0  0  0  0  0  0  0  0  0
  188.8680  176.7860  145.6440 N   0  0  0  0  0  2  0  0  0  0  0  0
  189.7220  177.3430  144.6000 C   0  0  2  0  0  3  0  0  0  0  0  0
  189.5130  176.6250  143.3250 N   0  0  0  0  0  0  0  0  0  0  0  0
  187.6670  177.0550  141.4450 O   0  0  0  0  0  0  0  0  0  0  0  0
  190.8620  176.9780  141.2780 C   0  0  1  0  0  3  0  0  0  0  0  0
  188.7730  177.7390  142.2170 P   0  0  1  0  0  0  0  0  0  0  0  0
  190.7740  176.2920  142.6580 C   0  0  0  0  0  2  0  0  0  0  0  0
  188.1690  179.1150  142.9900 O   0  0  0  0  0  1  0  0  0  0  0  0
  190.0390  178.1180  141.1870 O   0  0  0  0  0  0  0  0  0  0  0  0
  192.5850  177.4220  140.9230 S   0  0  0  0  0  0  0  0  0  0  0  0
  191.0590  176.5760  138.8370 C   0  0  0  0  0  1  0  0  0  0  0  0
  192.5110  176.6440  139.2810 C   0  0  0  0  0  2  0  0  0  0  0  0
  191.1810  177.4440  145.0760 C   0  0  0  0  0  2  0  0  0  0  0  0
  191.5260  176.3080  146.0270 C   0  0  0  0  0  2  0  0  0  0  0  0
  191.9810  176.8560  147.3760 C   0  0  1  0  0  3  0  0  0  0  0  0
  190.8450  177.4140  148.0900 N   0  0  0  0  0  1  0  0  0  0  0  0
  192.6800  175.7910  148.2260 C   0  0  0  0  0  2  0  0  0  0  0  0
  193.5130  176.4070  149.2520 N   0  0  0  0  0  1  0  0  0  0  0  0
  187.0330  178.2080  139.2250 C   0  0  0  0  0  2  0  0  0  0  0  0
  187.5460  177.5480  138.0740 O   0  0  0  0  0  0  0  0  0  0  0  0
  188.2890  179.6070  137.0620 O   0  0  0  0  0  1  0  0  0  0  0  0
  188.2440  178.2180  137.0660 C   0  0  0  0  0  0  0  0  0  0  0  0
  188.8410  177.5760  136.1590 O   0  0  0  0  0  0  0  0  0  0  0  0
  182.9670  175.3990  136.6830 N   0  0  0  0  0  2  0  0  0  0  0  0
  183.9290  174.6190  135.8990 C   0  0  2  0  0  0  0  0  0  0  0  0
  187.1930  172.7980  136.8780 C   0  0  0  0  0  2  0  0  0  0  0  0
  185.9230  175.3560  134.5940 C   0  0  0  0  0  3  0  0  0  0  0  0
  183.1930  173.5880  135.0440 C   0  0  0  0  0  1  0  0  0  0  0  0
  188.0880  174.1620  135.0840 C   0  0  0  0  0  2  0  0  0  0  0  0
  188.4540  173.0520  136.0620 C   0  0  0  0  0  2  0  0  0  0  0  0
  184.9400  173.9150  136.8250 C   0  0  0  0  0  2  0  0  0  0  0  0
  184.6550  175.5650  134.9730 C   0  0  0  0  0  3  0  0  0  0  0  0
  186.6430  174.2170  135.0870 N   0  0  0  0  0  0  0  0  0  0  0  0
  186.0510  173.2560  135.9990 C   0  0  1  0  0  3  0  0  0  0  0  0
  1 10  1  6  0  0  0
  1  6  1  0  0  0  0
  1  2  1  0  0  0  0
  2 48  1  1  0  0  0
  2  9  1  0  0  0  0
  3 11  1  0  0  0  0
  4  9  1  6  0  0  0
  4  7  1  0  0  0  0
  4  3  1  0  0  0  0
  5  6  1  0  0  0  0
  6 14  2  0  0  0  0
  7 13  2  0  0  0  0
 11  8  2  0  0  0  0
 11 24  1  0  0  0  0
 13 12  1  0  0  0  0
 13  8  1  0  0  0  0
 14  7  1  0  0  0  0
 15 53  1  1  0  0  0
 15 10  1  0  0  0  0
 15  5  1  0  0  0  0
 16 22  1  0  0  0  0
 17 16  1  0  0  0  0
 17 18  1  0  0  0  0
 18 23  1  0  0  0  0
 20 19  1  0  0  0  0
 20 21  1  0  0  0  0
 21 23  1  6  0  0  0
 21  5  1  0  0  0  0
 22 19  1  0  0  0  0
 24 25  1  0  0  0  0
 25 26  2  0  0  0  0
 27 25  1  0  0  0  0
 27 28  1  0  0  0  0
 29 27  2  0  0  0  0
 30 28  1  0  0  0  0
 31 42  1  1  0  0  0
 31 30  1  0  0  0  0
 32 31  1  0  0  0  0
 34 39  1  1  0  0  0
 34 36  1  0  0  0  0
 35 33  2  6  0  0  0
 35 37  1  0  0  0  0
 35 32  1  0  0  0  0
 36 32  1  0  0  0  0
 38 34  1  0  0  0  0
 38 35  1  0  0  0  0
 40 41  1  0  0  0  0
 41 39  1  0  0  0  0
 42 43  1  0  0  0  0
 43 44  1  0  0  0  0
 44 45  1  1  0  0  0
 44 46  1  0  0  0  0
 46 47  1  0  0  0  0
 49 48  1  0  0  0  0
 50 51  1  0  0  0  0
 51 49  1  0  0  0  0
 52 51  2  0  0  0  0
 54 57  1  6  0  0  0
 54 53  1  0  0  0  0
 54 60  1  0  0  0  0
 56 61  2  0  0  0  0
 56 62  1  0  0  0  0
 58 62  1  0  0  0  0
 58 59  1  0  0  0  0
 59 55  1  0  0  0  0
 61 54  1  0  0  0  0
 62 63  1  0  0  0  0
 63 60  1  1  0  0  0
 63 55  1  0  0  0  0
M  END
>  <MODEL>
2

>  <REMARK>
 VINA RESULT:      -5.8      3.590     10.664
  Name = 
  18 active torsions:
  status: ('A' for Active; 'I' for Inactive)
    1  A    between atoms: C_3  and  C_11
    2  A    between atoms: S_5  and  C_28
    3  A    between atoms: S_5  and  C_50
    4  A    between atoms: C_7  and  N_9
    5  A    between atoms: C_8  and  C_36
    6  A    between atoms: C_8  and  C_63
    7  A    between atoms: N_9  and  C_59
    8  A    between atoms: C_11  and  O_13
    9  A    between atoms: N_12  and  C_43
   10  A    between atoms: O_13  and  C_38
   11  A    between atoms: N_16  and  C_46
   12  A    between atoms: C_18  and  C_29
   13  A    between atoms: C_18  and  C_45
   14  A    between atoms: C_19  and  C_29
   15  A    between atoms: N_32  and  N_56
   16  A    between atoms: C_43  and  C_47
   17  A    between atoms: C_43  and  N_56
   18  A    between atoms: C_47  and  C_63
                            x       y       z     vdW  Elec       q    Type
                         _______ _______ _______ _____ _____    ______ ____

>  <TORSDO>
F 18

$$$$
=
 OpenBabel11042413143D

 63 69  0  0  1  0  0  0  0  0999 V2000
  184.0300  177.6020  137.0610 C   0  0  1  0  0  3  0  0  0  0  0  0
  184.8030  177.7350  138.3830 C   0  0  1  0  0  3  0  0  0  0  0  0
  187.9850  176.4880  137.8890 O   0  0  0  0  0  0  0  0  0  0  0  0
  186.6320  176.6690  137.4770 C   0  0  1  0  0  3  0  0  0  0  0  0
  182.3820  175.9340  136.4970 N   0  0  0  0  0  0  0  0  0  0  0  0
  183.7740  176.1880  136.6590 C   0  0  0  0  0  0  0  0  0  0  0  0
  186.1780  175.5630  136.5450 C   0  0  0  0  0  0  0  0  0  0  0  0
  188.5360  175.0740  136.0880 C   0  0  0  0  0  3  0  0  0  0  0  0
  185.7960  176.7480  138.6050 O   0  0  0  0  0  0  0  0  0  0  0  0
  182.6320  178.1970  137.2100 C   0  0  0  0  0  2  0  0  0  0  0  0
  188.9410  175.9000  137.0530 C   0  0  0  0  0  0  0  0  0  0  0  0
  186.7110  173.8330  134.9910 O   0  0  0  0  0  1  0  0  0  0  0  0
  187.0970  174.8340  135.8850 C   0  0  0  0  0  0  0  0  0  0  0  0
  184.7360  175.3110  136.3400 C   0  0  0  0  0  3  0  0  0  0  0  0
  181.6280  177.1540  136.7030 C   0  0  1  0  0  3  0  0  0  0  0  0
  182.2710  171.4730  135.2470 O   0  0  0  0  0  0  0  0  0  0  0  0
  181.9630  171.3960  136.6070 C   0  0  0  0  0  2  0  0  0  0  0  0
  182.6780  172.5080  137.3730 C   0  0  0  0  0  2  0  0  0  0  0  0
  180.9560  173.4240  134.5970 C   0  0  0  0  0  2  0  0  0  0  0  0
  182.1120  174.0340  135.1140 O   0  0  0  0  0  0  0  0  0  0  0  0
  181.7000  174.6460  136.3100 C   0  0  1  0  0  3  0  0  0  0  0  0
  181.1010  171.8960  134.5940 C   0  0  0  0  0  2  0  0  0  0  0  0
  181.7530  173.7210  137.5410 C   0  0  0  0  0  2  0  0  0  0  0  0
  190.4070  176.1210  137.2760 C   0  0  0  0  0  2  0  0  0  0  0  0
  190.7560  176.6430  138.6440 C   0  0  0  0  0  0  0  0  0  0  0  0
  191.8270  176.3060  139.2210 O   0  0  0  0  0  0  0  0  0  0  0  0
  189.8300  177.5420  139.3500 C   0  0  0  0  0  0  0  0  0  0  0  0
  189.1590  177.1060  140.5440 N   0  0  0  0  0  2  0  0  0  0  0  0
  189.6450  178.7080  138.9040 O   0  0  0  0  0  0  0  0  0  0  0  0
  188.1890  177.8730  141.2190 N   0  0  0  0  0  2  0  0  0  0  0  0
  188.4890  177.8700  142.6470 C   0  0  2  0  0  3  0  0  0  0  0  0
  189.7370  177.1210  142.9100 N   0  0  0  0  0  0  0  0  0  0  0  0
  192.2610  177.9850  142.7980 O   0  0  0  0  0  0  0  0  0  0  0  0
  190.6130  176.6030  145.1670 C   0  0  1  0  0  3  0  0  0  0  0  0
  190.9250  178.2670  143.4490 P   0  0  1  0  0  0  0  0  0  0  0  0
  189.6150  176.2160  144.0550 C   0  0  0  0  0  2  0  0  0  0  0  0
  190.4650  179.8660  143.1480 O   0  0  0  0  0  1  0  0  0  0  0  0
  191.0110  177.9520  145.0930 O   0  0  0  0  0  0  0  0  0  0  0  0
  189.8820  176.2580  146.7920 S   0  0  0  0  0  0  0  0  0  0  0  0
  188.9460  178.1830  148.4710 C   0  0  0  0  0  1  0  0  0  0  0  0
  189.6350  178.0280  147.1250 C   0  0  0  0  0  2  0  0  0  0  0  0
  187.2640  177.4300  143.4660 C   0  0  0  0  0  2  0  0  0  0  0  0
  186.8940  178.4780  144.5030 C   0  0  0  0  0  2  0  0  0  0  0  0
  185.5510  178.1470  145.1480 C   0  0  1  0  0  3  0  0  0  0  0  0
  185.7540  177.7370  146.5270 N   0  0  0  0  0  1  0  0  0  0  0  0
  184.5700  179.3200  145.0730 C   0  0  0  0  0  2  0  0  0  0  0  0
  183.2310  178.9050  145.4760 N   0  0  0  0  0  1  0  0  0  0  0  0
  185.3120  179.1550  138.6570 C   0  0  0  0  0  2  0  0  0  0  0  0
  184.9120  179.6210  139.9390 O   0  0  0  0  0  0  0  0  0  0  0  0
  182.6390  179.0390  140.4930 O   0  0  0  0  0  0  0  0  0  0  0  0
  184.0020  178.9340  140.7450 C   0  0  0  0  0  0  0  0  0  0  0  0
  184.4020  178.2110  141.6990 O   0  0  0  0  0  1  0  0  0  0  0  0
  181.0650  177.6060  135.4260 N   0  0  0  0  0  2  0  0  0  0  0  0
  180.0660  178.6640  135.6020 C   0  0  2  0  0  0  0  0  0  0  0  0
  180.3870  182.5020  135.9120 C   0  0  0  0  0  2  0  0  0  0  0  0
  179.0490  179.5950  137.6810 C   0  0  0  0  0  3  0  0  0  0  0  0
  178.9310  178.4850  134.5940 C   0  0  0  0  0  1  0  0  0  0  0  0
  179.1160  182.1010  137.9370 C   0  0  0  0  0  2  0  0  0  0  0  0
  179.6850  183.2120  137.0620 C   0  0  0  0  0  2  0  0  0  0  0  0
  180.7100  180.0530  135.4340 C   0  0  0  0  0  2  0  0  0  0  0  0
  179.4850  178.5330  136.9900 C   0  0  0  0  0  3  0  0  0  0  0  0
  179.1480  180.9100  137.1170 N   0  0  0  0  0  0  0  0  0  0  0  0
  179.7090  181.1540  135.8020 C   0  0  1  0  0  3  0  0  0  0  0  0
  1 10  1  1  0  0  0
  1  2  1  0  0  0  0
  2  9  1  0  0  0  0
  2 48  1  6  0  0  0
  4  7  1  6  0  0  0
  4  3  1  0  0  0  0
  4  9  1  0  0  0  0
  5  6  1  0  0  0  0
  5 15  1  0  0  0  0
  6  1  1  0  0  0  0
  8 11  2  0  0  0  0
 11 24  1  0  0  0  0
 11  3  1  0  0  0  0
 12 13  1  0  0  0  0
 13  8  1  0  0  0  0
 13  7  2  0  0  0  0
 14  7  1  0  0  0  0
 14  6  2  0  0  0  0
 15 53  1  6  0  0  0
 15 10  1  0  0  0  0
 16 17  1  0  0  0  0
 17 18  1  0  0  0  0
 18 23  1  0  0  0  0
 19 20  1  0  0  0  0
 20 21  1  0  0  0  0
 21  5  1  1  0  0  0
 21 23  1  0  0  0  0
 22 19  1  0  0  0  0
 22 16  1  0  0  0  0
 24 25  1  0  0  0  0
 25 26  2  0  0  0  0
 25 27  1  0  0  0  0
 27 28  1  0  0  0  0
 28 30  1  0  0  0  0
 29 27  2  0  0  0  0
 30 31  1  0  0  0  0
 31 32  1  0  0  0  0
 31 42  1  1  0  0  0
 32 35  1  0  0  0  0
 32 36  1  0  0  0  0
 34 39  1  1  0  0  0
 35 33  2  6  0  0  0
 35 38  1  0  0  0  0
 36 34  1  0  0  0  0
 37 35  1  0  0  0  0
 38 34  1  0  0  0  0
 39 41  1  0  0  0  0
 41 40  1  0  0  0  0
 42 43  1  0  0  0  0
 43 44  1  0  0  0  0
 44 45  1  1  0  0  0
 46 44  1  0  0  0  0
 46 47  1  0  0  0  0
 48 49  1  0  0  0  0
 49 51  1  0  0  0  0
 50 51  2  0  0  0  0
 51 52  1  0  0  0  0
 53 54  1  0  0  0  0
 54 57  1  6  0  0  0
 54 61  1  0  0  0  0
 55 59  1  0  0  0  0
 59 58  1  0  0  0  0
 60 54  1  0  0  0  0
 61 56  2  0  0  0  0
 62 56  1  0  0  0  0
 62 58  1  0  0  0  0
 63 60  1  1  0  0  0
 63 55  1  0  0  0  0
 63 62  1  0  0  0  0
M  END
>  <MODEL>
3

>  <REMARK>
 VINA RESULT:      -5.5      3.711     10.498
  Name = 
  18 active torsions:
  status: ('A' for Active; 'I' for Inactive)
    1  A    between atoms: C_3  and  C_11
    2  A    between atoms: S_5  and  C_28
    3  A    between atoms: S_5  and  C_50
    4  A    between atoms: C_7  and  N_9
    5  A    between atoms: C_8  and  C_36
    6  A    between atoms: C_8  and  C_63
    7  A    between atoms: N_9  and  C_59
    8  A    between atoms: C_11  and  O_13
    9  A    between atoms: N_12  and  C_43
   10  A    between atoms: O_13  and  C_38
   11  A    between atoms: N_16  and  C_46
   12  A    between atoms: C_18  and  C_29
   13  A    between atoms: C_18  and  C_45
   14  A    between atoms: C_19  and  C_29
   15  A    between atoms: N_32  and  N_56
   16  A    between atoms: C_43  and  C_47
   17  A    between atoms: C_43  and  N_56
   18  A    between atoms: C_47  and  C_63
                            x       y       z     vdW  Elec       q    Type
                         _______ _______ _______ _____ _____    ______ ____

>  <TORSDO>
F 18

$$$$
=
 OpenBabel11042413143D

 63 69  0  0  1  0  0  0  0  0999 V2000
  181.1700  179.0470  139.2660 C   0  0  1  0  0  3  0  0  0  0  0  0
  180.5130  178.2990  140.4370 C   0  0  1  0  0  3  0  0  0  0  0  0
  182.6740  178.4240  143.1290 O   0  0  0  0  0  0  0  0  0  0  0  0
  182.3860  178.6020  141.7430 C   0  0  1  0  0  3  0  0  0  0  0  0
  182.2740  178.0780  137.3520 N   0  0  0  0  0  0  0  0  0  0  0  0
  182.3940  178.3760  138.7410 C   0  0  0  0  0  0  0  0  0  0  0  0
  183.6350  178.4860  140.8920 C   0  0  0  0  0  0  0  0  0  0  0  0
  184.9630  178.9300  142.9040 C   0  0  0  0  0  3  0  0  0  0  0  0
  181.4140  177.6710  141.3340 O   0  0  0  0  0  0  0  0  0  0  0  0
  180.2250  179.0720  138.0660 C   0  0  0  0  0  2  0  0  0  0  0  0
  183.8900  178.8300  143.6890 C   0  0  0  0  0  0  0  0  0  0  0  0
  186.0100  178.6010  140.6980 O   0  0  0  0  0  1  0  0  0  0  0  0
  184.8420  178.6640  141.4600 C   0  0  0  0  0  0  0  0  0  0  0  0
  183.5230  178.2140  139.4430 C   0  0  0  0  0  3  0  0  0  0  0  0
  181.0140  178.5850  136.8450 C   0  0  1  0  0  3  0  0  0  0  0  0
  186.1710  175.7050  136.5510 O   0  0  0  0  0  0  0  0  0  0  0  0
  185.2030  174.7020  136.4550 C   0  0  0  0  0  2  0  0  0  0  0  0
  184.0410  175.0010  137.4020 C   0  0  0  0  0  2  0  0  0  0  0  0
  185.0530  177.5260  135.3740 C   0  0  0  0  0  2  0  0  0  0  0  0
  184.4920  177.6470  136.6580 O   0  0  0  0  0  0  0  0  0  0  0  0
  183.1510  177.2540  136.5110 C   0  0  1  0  0  3  0  0  0  0  0  0
  186.1220  176.4270  135.3470 C   0  0  0  0  0  2  0  0  0  0  0  0
  182.9200  175.7380  136.6550 C   0  0  0  0  0  2  0  0  0  0  0  0
  184.0220  179.0740  145.1630 C   0  0  0  0  0  2  0  0  0  0  0  0
  185.4290  178.9810  145.6850 C   0  0  0  0  0  0  0  0  0  0  0  0
  185.8380  179.7400  146.6080 O   0  0  0  0  0  0  0  0  0  0  0  0
  186.3710  178.0130  145.1030 C   0  0  0  0  0  0  0  0  0  0  0  0
  187.3340  178.4330  144.1210 N   0  0  0  0  0  2  0  0  0  0  0  0
  186.3360  176.8110  145.4880 O   0  0  0  0  0  0  0  0  0  0  0  0
  188.2010  177.5490  143.4500 N   0  0  0  0  0  2  0  0  0  0  0  0
  189.5800  177.8930  143.7800 C   0  0  2  0  0  3  0  0  0  0  0  0
  190.3430  178.2020  142.5520 N   0  0  0  0  0  0  0  0  0  0  0  0
  192.6180  177.1130  141.6770 O   0  0  0  0  0  0  0  0  0  0  0  0
  189.7480  177.3930  140.2890 C   0  0  1  0  0  3  0  0  0  0  0  0
  191.2090  176.7660  142.1040 P   0  0  1  0  0  0  0  0  0  0  0  0
  189.4730  178.4320  141.3960 C   0  0  0  0  0  2  0  0  0  0  0  0
  191.2510  175.6210  143.3470 O   0  0  0  0  0  1  0  0  0  0  0  0
  190.3330  176.2120  140.7870 O   0  0  0  0  0  0  0  0  0  0  0  0
  188.2060  177.0040  139.4160 S   0  0  0  0  0  0  0  0  0  0  0  0
  189.4270  177.7200  137.0940 C   0  0  0  0  0  1  0  0  0  0  0  0
  189.1080  176.4880  137.9250 C   0  0  0  0  0  2  0  0  0  0  0  0
  190.2070  176.8340  144.7030 C   0  0  0  0  0  2  0  0  0  0  0  0
  190.6060  177.4400  146.0390 C   0  0  0  0  0  2  0  0  0  0  0  0
  189.8100  176.8060  147.1770 C   0  0  1  0  0  3  0  0  0  0  0  0
  190.6270  175.8140  147.8560 N   0  0  0  0  0  1  0  0  0  0  0  0
  189.2910  177.8490  148.1710 C   0  0  0  0  0  2  0  0  0  0  0  0
  187.9020  177.5830  148.5270 N   0  0  0  0  0  1  0  0  0  0  0  0
  179.4340  179.1130  141.1600 C   0  0  0  0  0  2  0  0  0  0  0  0
  178.9330  178.4300  142.3020 O   0  0  0  0  0  0  0  0  0  0  0  0
  179.6730  177.9730  144.5500 O   0  0  0  0  0  1  0  0  0  0  0  0
  179.1710  178.8630  143.6080 C   0  0  0  0  0  0  0  0  0  0  0  0
  178.9400  180.0570  143.9450 O   0  0  0  0  0  0  0  0  0  0  0  0
  181.2660  179.7190  135.9490 N   0  0  0  0  0  2  0  0  0  0  0  0
  180.1400  180.6570  135.9080 C   0  0  2  0  0  0  0  0  0  0  0  0
  179.8850  184.3470  134.7930 C   0  0  0  0  0  2  0  0  0  0  0  0
  179.2450  182.1800  137.6680 C   0  0  0  0  0  3  0  0  0  0  0  0
  178.9360  180.0000  135.2330 C   0  0  0  0  0  1  0  0  0  0  0  0
  178.9440  184.5960  137.0140 C   0  0  0  0  0  2  0  0  0  0  0  0
  179.2220  185.3560  135.7220 C   0  0  0  0  0  2  0  0  0  0  0  0
  180.5320  181.9440  135.1570 C   0  0  0  0  0  2  0  0  0  0  0  0
  179.7580  180.9900  137.3300 C   0  0  0  0  0  3  0  0  0  0  0  0
  179.0660  183.1960  136.6710 N   0  0  0  0  0  0  0  0  0  0  0  0
  179.4200  182.9920  135.2790 C   0  0  1  0  0  3  0  0  0  0  0  0
  1 10  1  6  0  0  0
  1  2  1  0  0  0  0
  2 48  1  1  0  0  0
  2  9  1  0  0  0  0
  3 11  1  0  0  0  0
  4  7  1  6  0  0  0
  4  3  1  0  0  0  0
  5  6  1  0  0  0  0
  6  1  1  0  0  0  0
  6 14  2  0  0  0  0
  7 13  2  0  0  0  0
  8 11  2  0  0  0  0
  9  4  1  0  0  0  0
 11 24  1  0  0  0  0
 12 13  1  0  0  0  0
 13  8  1  0  0  0  0
 14  7  1  0  0  0  0
 15 53  1  6  0  0  0
 15  5  1  0  0  0  0
 15 10  1  0  0  0  0
 17 16  1  0  0  0  0
 17 18  1  0  0  0  0
 19 20  1  0  0  0  0
 21 23  1  1  0  0  0
 21 20  1  0  0  0  0
 21  5  1  0  0  0  0
 22 19  1  0  0  0  0
 22 16  1  0  0  0  0
 23 18  1  0  0  0  0
 24 25  1  0  0  0  0
 25 26  2  0  0  0  0
 27 29  2  0  0  0  0
 27 25  1  0  0  0  0
 28 27  1  0  0  0  0
 30 31  1  0  0  0  0
 30 28  1  0  0  0  0
 31 42  1  6  0  0  0
 32 31  1  0  0  0  0
 34 39  1  1  0  0  0
 34 38  1  0  0  0  0
 34 36  1  0  0  0  0
 35 33  2  6  0  0  0
 35 32  1  0  0  0  0
 35 37  1  0  0  0  0
 36 32  1  0  0  0  0
 38 35  1  0  0  0  0
 40 41  1  0  0  0  0
 41 39  1  0  0  0  0
 42 43  1  0  0  0  0
 43 44  1  0  0  0  0
 44 45  1  1  0  0  0
 44 46  1  0  0  0  0
 46 47  1  0  0  0  0
 48 49  1  0  0  0  0
 49 51  1  0  0  0  0
 51 52  2  0  0  0  0
 51 50  1  0  0  0  0
 54 57  1  6  0  0  0
 54 53  1  0  0  0  0
 54 61  1  0  0  0  0
 55 59  1  0  0  0  0
 59 58  1  0  0  0  0
 60 63  1  0  0  0  0
 60 54  1  0  0  0  0
 61 56  2  0  0  0  0
 62 58  1  0  0  0  0
 62 56  1  0  0  0  0
 63 55  1  1  0  0  0
 63 62  1  0  0  0  0
M  END
>  <MODEL>
4

>  <REMARK>
 VINA RESULT:      -4.5      4.177     10.818
  Name = 
  18 active torsions:
  status: ('A' for Active; 'I' for Inactive)
    1  A    between atoms: C_3  and  C_11
    2  A    between atoms: S_5  and  C_28
    3  A    between atoms: S_5  and  C_50
    4  A    between atoms: C_7  and  N_9
    5  A    between atoms: C_8  and  C_36
    6  A    between atoms: C_8  and  C_63
    7  A    between atoms: N_9  and  C_59
    8  A    between atoms: C_11  and  O_13
    9  A    between atoms: N_12  and  C_43
   10  A    between atoms: O_13  and  C_38
   11  A    between atoms: N_16  and  C_46
   12  A    between atoms: C_18  and  C_29
   13  A    between atoms: C_18  and  C_45
   14  A    between atoms: C_19  and  C_29
   15  A    between atoms: N_32  and  N_56
   16  A    between atoms: C_43  and  C_47
   17  A    between atoms: C_43  and  N_56
   18  A    between atoms: C_47  and  C_63
                            x       y       z     vdW  Elec       q    Type
                         _______ _______ _______ _____ _____    ______ ____

>  <TORSDO>
F 18

$$$$
=
 OpenBabel11042413143D

 63 69  0  0  1  0  0  0  0  0999 V2000
  183.8710  177.6440  138.4190 C   0  0  1  0  0  3  0  0  0  0  0  0
  185.1710  178.3830  138.7780 C   0  0  1  0  0  3  0  0  0  0  0  0
  185.1290  179.0290  142.1700 O   0  0  0  0  0  0  0  0  0  0  0  0
  184.4850  178.6270  140.9630 C   0  0  1  0  0  3  0  0  0  0  0  0
  181.9080  178.5710  137.3680 N   0  0  0  0  0  0  0  0  0  0  0  0
  182.6450  178.4780  138.5840 C   0  0  0  0  0  0  0  0  0  0  0  0
  182.9920  178.8860  141.0110 C   0  0  0  0  0  0  0  0  0  0  0  0
  183.1570  178.9700  143.4560 C   0  0  0  0  0  3  0  0  0  0  0  0
  185.0720  179.2860  139.8670 O   0  0  0  0  0  0  0  0  0  0  0  0
  183.8690  177.2810  136.9360 C   0  0  0  0  0  2  0  0  0  0  0  0
  184.4890  178.9490  143.4120 C   0  0  0  0  0  0  0  0  0  0  0  0
  181.0040  179.2290  142.2850 O   0  0  0  0  0  1  0  0  0  0  0  0
  182.3830  179.0270  142.2030 C   0  0  0  0  0  0  0  0  0  0  0  0
  182.2090  178.9500  139.7590 C   0  0  0  0  0  3  0  0  0  0  0  0
  182.5390  177.7620  136.3440 C   0  0  1  0  0  3  0  0  0  0  0  0
  180.0640  182.5820  135.9630 O   0  0  0  0  0  0  0  0  0  0  0  0
  179.6110  181.7010  134.9780 C   0  0  0  0  0  2  0  0  0  0  0  0
  180.6440  180.5990  134.7440 C   0  0  0  0  0  2  0  0  0  0  0  0
  179.7650  181.2160  137.9620 C   0  0  0  0  0  2  0  0  0  0  0  0
  181.0100  180.7550  137.5000 O   0  0  0  0  0  0  0  0  0  0  0  0
  180.7720  179.4450  137.0480 C   0  0  1  0  0  3  0  0  0  0  0  0
  179.2550  182.3710  137.0920 C   0  0  0  0  0  2  0  0  0  0  0  0
  180.3030  179.3600  135.5840 C   0  0  0  0  0  2  0  0  0  0  0  0
  185.2750  178.9200  144.6880 C   0  0  0  0  0  2  0  0  0  0  0  0
  186.2320  177.7650  144.8040 C   0  0  0  0  0  0  0  0  0  0  0  0
  185.9670  176.7630  145.5240 O   0  0  0  0  0  0  0  0  0  0  0  0
  187.5200  177.7990  144.0930 C   0  0  0  0  0  0  0  0  0  0  0  0
  188.5750  178.6690  144.5370 N   0  0  0  0  0  2  0  0  0  0  0  0
  187.6930  177.0420  143.0980 O   0  0  0  0  0  0  0  0  0  0  0  0
  189.7960  178.8260  143.8540 N   0  0  0  0  0  2  0  0  0  0  0  0
  190.8560  178.1800  144.6200 C   0  0  2  0  0  3  0  0  0  0  0  0
  191.7220  177.3790  143.7290 N   0  0  0  0  0  0  0  0  0  0  0  0
  192.3180  174.7800  143.8700 O   0  0  0  0  0  0  0  0  0  0  0  0
  191.0400  176.5210  141.5080 C   0  0  1  0  0  3  0  0  0  0  0  0
  191.1520  175.7400  143.7890 P   0  0  1  0  0  0  0  0  0  0  0  0
  191.5510  177.7320  142.3170 C   0  0  0  0  0  2  0  0  0  0  0  0
  190.0940  175.4690  145.0790 O   0  0  0  0  0  1  0  0  0  0  0  0
  190.3760  175.5740  142.3120 O   0  0  0  0  0  0  0  0  0  0  0  0
  189.9420  177.0910  140.1810 S   0  0  0  0  0  0  0  0  0  0  0  0
  190.6620  176.5250  137.6200 C   0  0  0  0  0  1  0  0  0  0  0  0
  191.2680  176.9610  138.9450 C   0  0  0  0  0  2  0  0  0  0  0  0
  190.2810  177.4340  145.8350 C   0  0  0  0  0  2  0  0  0  0  0  0
  190.4500  178.2480  147.1080 C   0  0  0  0  0  2  0  0  0  0  0  0
  189.6540  177.6290  148.2530 C   0  0  1  0  0  3  0  0  0  0  0  0
  189.5820  178.5620  149.3650 N   0  0  0  0  0  1  0  0  0  0  0  0
  188.2490  177.2030  147.8160 C   0  0  0  0  0  2  0  0  0  0  0  0
  187.2680  178.2320  148.1400 N   0  0  0  0  0  1  0  0  0  0  0  0
  186.3920  177.4640  138.8830 C   0  0  0  0  0  2  0  0  0  0  0  0
  187.2860  177.6450  137.7930 O   0  0  0  0  0  0  0  0  0  0  0  0
  188.8380  179.4850  137.9270 O   0  0  0  0  0  1  0  0  0  0  0  0
  187.7090  178.9040  137.3610 C   0  0  0  0  0  0  0  0  0  0  0  0
  187.0820  179.5210  136.4580 O   0  0  0  0  0  0  0  0  0  0  0  0
  181.6940  176.6010  136.0450 N   0  0  0  0  0  2  0  0  0  0  0  0
  182.4700  175.4610  135.5480 C   0  0  2  0  0  0  0  0  0  0  0  0
  184.7940  172.9380  137.3250 C   0  0  0  0  0  2  0  0  0  0  0  0
  184.7720  175.3700  134.5940 C   0  0  0  0  0  3  0  0  0  0  0  0
  181.5880  174.5720  134.6700 C   0  0  0  0  0  1  0  0  0  0  0  0
  186.3430  173.6850  135.6160 C   0  0  0  0  0  2  0  0  0  0  0  0
  186.1820  172.6820  136.7520 C   0  0  0  0  0  2  0  0  0  0  0  0
  183.0470  174.6440  136.7190 C   0  0  0  0  0  2  0  0  0  0  0  0
  183.5930  175.9980  134.6940 C   0  0  0  0  0  3  0  0  0  0  0  0
  185.0080  174.1610  135.3290 N   0  0  0  0  0  0  0  0  0  0  0  0
  184.0080  173.5690  136.1970 C   0  0  1  0  0  3  0  0  0  0  0  0
  1 10  1  6  0  0  0
  1  6  1  0  0  0  0
  1  2  1  0  0  0  0
  2 48  1  1  0  0  0
  2  9  1  0  0  0  0
  3 11  1  0  0  0  0
  4  9  1  6  0  0  0
  4  7  1  0  0  0  0
  4  3  1  0  0  0  0
  5  6  1  0  0  0  0
  6 14  2  0  0  0  0
  7 13  2  0  0  0  0
 11  8  2  0  0  0  0
 11 24  1  0  0  0  0
 13 12  1  0  0  0  0
 13  8  1  0  0  0  0
 14  7  1  0  0  0  0
 15 53  1  1  0  0  0
 15 10  1  0  0  0  0
 15  5  1  0  0  0  0
 16 22  1  0  0  0  0
 17 16  1  0  0  0  0
 18 17  1  0  0  0  0
 18 23  1  0  0  0  0
 20 19  1  0  0  0  0
 21 23  1  6  0  0  0
 21  5  1  0  0  0  0
 21 20  1  0  0  0  0
 22 19  1  0  0  0  0
 24 25  1  0  0  0  0
 25 26  2  0  0  0  0
 27 28  1  0  0  0  0
 27 25  1  0  0  0  0
 29 27  2  0  0  0  0
 30 28  1  0  0  0  0
 30 31  1  0  0  0  0
 31 42  1  1  0  0  0
 32 35  1  0  0  0  0
 32 31  1  0  0  0  0
 34 39  1  6  0  0  0
 34 38  1  0  0  0  0
 34 36  1  0  0  0  0
 35 33  2  1  0  0  0
 35 37  1  0  0  0  0
 36 32  1  0  0  0  0
 38 35  1  0  0  0  0
 40 41  1  0  0  0  0
 41 39  1  0  0  0  0
 42 43  1  0  0  0  0
 43 44  1  0  0  0  0
 44 45  1  1  0  0  0
 46 47  1  0  0  0  0
 46 44  1  0  0  0  0
 49 48  1  0  0  0  0
 51 49  1  0  0  0  0
 51 50  1  0  0  0  0
 52 51  2  0  0  0  0
 54 57  1  6  0  0  0
 54 53  1  0  0  0  0
 54 60  1  0  0  0  0
 56 61  2  0  0  0  0
 56 62  1  0  0  0  0
 58 59  1  0  0  0  0
 59 55  1  0  0  0  0
 61 54  1  0  0  0  0
 62 58  1  0  0  0  0
 62 63  1  0  0  0  0
 63 60  1  1  0  0  0
 63 55  1  0  0  0  0
M  END
>  <MODEL>
5

>  <REMARK>
 VINA RESULT:      -4.1      3.933     10.789
  Name = 
  18 active torsions:
  status: ('A' for Active; 'I' for Inactive)
    1  A    between atoms: C_3  and  C_11
    2  A    between atoms: S_5  and  C_28
    3  A    between atoms: S_5  and  C_50
    4  A    between atoms: C_7  and  N_9
    5  A    between atoms: C_8  and  C_36
    6  A    between atoms: C_8  and  C_63
    7  A    between atoms: N_9  and  C_59
    8  A    between atoms: C_11  and  O_13
    9  A    between atoms: N_12  and  C_43
   10  A    between atoms: O_13  and  C_38
   11  A    between atoms: N_16  and  C_46
   12  A    between atoms: C_18  and  C_29
   13  A    between atoms: C_18  and  C_45
   14  A    between atoms: C_19  and  C_29
   15  A    between atoms: N_32  and  N_56
   16  A    between atoms: C_43  and  C_47
   17  A    between atoms: C_43  and  N_56
   18  A    between atoms: C_47  and  C_63
                            x       y       z     vdW  Elec       q    Type
                         _______ _______ _______ _____ _____    ______ ____

>  <TORSDO>
F 18

$$$$
=
 OpenBabel11042413143D

 63 69  0  0  1  0  0  0  0  0999 V2000
  181.3470  176.7320  138.0460 C   0  0  1  0  0  3  0  0  0  0  0  0
  181.0280  175.5770  137.0840 C   0  0  1  0  0  3  0  0  0  0  0  0
  184.0170  174.3250  135.8900 O   0  0  0  0  0  0  0  0  0  0  0  0
  183.2590  175.3200  136.5750 C   0  0  1  0  0  3  0  0  0  0  0  0
  181.1900  179.0960  137.5910 N   0  0  0  0  0  0  0  0  0  0  0  0
  181.9590  177.9160  137.3750 C   0  0  0  0  0  0  0  0  0  0  0  0
  183.9370  176.6750  136.5210 C   0  0  0  0  0  0  0  0  0  0  0  0
  186.0400  175.5250  136.0060 C   0  0  0  0  0  3  0  0  0  0  0  0
  181.9620  175.3880  136.0340 O   0  0  0  0  0  0  0  0  0  0  0  0
  180.0570  177.2820  138.6500 C   0  0  0  0  0  2  0  0  0  0  0  0
  185.4150  174.3580  135.8490 C   0  0  0  0  0  0  0  0  0  0  0  0
  185.9190  177.9750  136.2490 O   0  0  0  0  0  1  0  0  0  0  0  0
  185.2580  176.7460  136.2680 C   0  0  0  0  0  0  0  0  0  0  0  0
  183.1590  177.9050  136.7780 C   0  0  0  0  0  3  0  0  0  0  0  0
  180.0710  178.8040  138.4640 C   0  0  1  0  0  3  0  0  0  0  0  0
  179.5130  183.1580  136.1240 O   0  0  0  0  0  0  0  0  0  0  0  0
  180.4580  183.5650  137.0690 C   0  0  0  0  0  2  0  0  0  0  0  0
  180.5550  182.5350  138.1940 C   0  0  0  0  0  2  0  0  0  0  0  0
  180.7290  181.3550  135.0170 C   0  0  0  0  0  2  0  0  0  0  0  0
  180.2110  180.6860  136.1400 O   0  0  0  0  0  0  0  0  0  0  0  0
  181.3270  180.4100  136.9490 C   0  0  1  0  0  3  0  0  0  0  0  0
  180.2290  182.8040  134.9680 C   0  0  0  0  0  2  0  0  0  0  0  0
  181.6980  181.5480  137.9180 C   0  0  0  0  0  2  0  0  0  0  0  0
  186.2120  173.1220  135.5530 C   0  0  0  0  0  2  0  0  0  0  0  0
  187.2110  172.7570  136.6170 C   0  0  0  0  0  0  0  0  0  0  0  0
  186.8450  172.2590  137.7180 O   0  0  0  0  0  0  0  0  0  0  0  0
  188.6450  173.0050  136.4000 C   0  0  0  0  0  0  0  0  0  0  0  0
  189.3800  173.8620  137.2910 N   0  0  0  0  0  2  0  0  0  0  0  0
  189.2270  172.4420  135.4320 O   0  0  0  0  0  0  0  0  0  0  0  0
  190.7270  174.2210  137.0930 N   0  0  0  0  0  2  0  0  0  0  0  0
  190.7800  175.4800  136.3580 C   0  0  2  0  0  3  0  0  0  0  0  0
  191.9090  175.4740  135.4040 N   0  0  0  0  0  0  0  0  0  0  0  0
  194.3610  176.4860  135.7090 O   0  0  0  0  0  0  0  0  0  0  0  0
  193.3810  173.5270  134.9840 C   0  0  1  0  0  3  0  0  0  0  0  0
  193.3740  175.5260  136.3350 P   0  0  1  0  0  0  0  0  0  0  0  0
  192.0260  174.2040  134.6840 C   0  0  0  0  0  2  0  0  0  0  0  0
  193.1010  175.9530  137.9480 O   0  0  0  0  0  1  0  0  0  0  0  0
  193.9410  173.9540  136.2030 O   0  0  0  0  0  0  0  0  0  0  0  0
  193.1760  171.7240  134.9890 S   0  0  0  0  0  0  0  0  0  0  0  0
  195.3350  171.0330  136.4920 C   0  0  0  0  0  1  0  0  0  0  0  0
  194.9720  171.4590  135.0790 C   0  0  0  0  0  2  0  0  0  0  0  0
  190.7260  176.6810  137.3170 C   0  0  0  0  0  2  0  0  0  0  0  0
  189.3510  177.3320  137.3030 C   0  0  0  0  0  2  0  0  0  0  0  0
  189.2950  178.4900  138.2950 C   0  0  1  0  0  3  0  0  0  0  0  0
  188.9770  179.7230  137.5950 N   0  0  0  0  0  1  0  0  0  0  0  0
  188.2900  178.2360  139.4230 C   0  0  0  0  0  2  0  0  0  0  0  0
  188.8280  177.2970  140.4000 N   0  0  0  0  0  1  0  0  0  0  0  0
  180.6670  174.2670  137.7940 C   0  0  0  0  0  2  0  0  0  0  0  0
  179.4970  173.6740  137.2460 O   0  0  0  0  0  0  0  0  0  0  0  0
  180.1260  171.3470  137.2430 O   0  0  0  0  0  1  0  0  0  0  0  0
  179.5020  172.4230  136.6240 C   0  0  0  0  0  0  0  0  0  0  0  0
  178.9400  172.2550  135.5080 O   0  0  0  0  0  0  0  0  0  0  0  0
  180.2820  179.4480  139.7650 N   0  0  0  0  0  2  0  0  0  0  0  0
  181.1200  178.6400  140.6560 C   0  0  2  0  0  0  0  0  0  0  0  0
  182.1770  179.1060  144.3430 C   0  0  0  0  0  2  0  0  0  0  0  0
  183.5900  178.6540  141.0010 C   0  0  0  0  0  3  0  0  0  0  0  0
  180.6870  177.1750  140.5950 C   0  0  0  0  0  1  0  0  0  0  0  0
  184.3890  178.8530  143.3830 C   0  0  0  0  0  2  0  0  0  0  0  0
  183.6510  178.9910  144.7090 C   0  0  0  0  0  2  0  0  0  0  0  0
  181.0320  179.1590  142.1040 C   0  0  0  0  0  2  0  0  0  0  0  0
  182.5460  178.7290  140.1660 C   0  0  0  0  0  3  0  0  0  0  0  0
  183.3750  178.5080  142.4120 N   0  0  0  0  0  0  0  0  0  0  0  0
  182.0490  178.4340  142.9940 C   0  0  1  0  0  3  0  0  0  0  0  0
  1 10  1  6  0  0  0
  2 48  1  1  0  0  0
  2  1  1  0  0  0  0
  4  3  1  6  0  0  0
  5 15  1  0  0  0  0
  6  5  1  0  0  0  0
  6  1  1  0  0  0  0
  7  4  1  0  0  0  0
  7 14  1  0  0  0  0
  8 13  1  0  0  0  0
  9  4  1  0  0  0  0
  9  2  1  0  0  0  0
 11  3  1  0  0  0  0
 11  8  2  0  0  0  0
 12 13  1  0  0  0  0
 13  7  2  0  0  0  0
 14  6  2  0  0  0  0
 15 10  1  0  0  0  0
 15 53  1  1  0  0  0
 16 17  1  0  0  0  0
 17 18  1  0  0  0  0
 19 20  1  0  0  0  0
 20 21  1  0  0  0  0
 21  5  1  1  0  0  0
 21 23  1  0  0  0  0
 22 19  1  0  0  0  0
 22 16  1  0  0  0  0
 23 18  1  0  0  0  0
 24 11  1  0  0  0  0
 24 25  1  0  0  0  0
 25 26  2  0  0  0  0
 27 25  1  0  0  0  0
 27 28  1  0  0  0  0
 29 27  2  0  0  0  0
 30 28  1  0  0  0  0
 31 30  1  0  0  0  0
 31 42  1  1  0  0  0
 32 35  1  0  0  0  0
 32 31  1  0  0  0  0
 34 39  1  1  0  0  0
 34 38  1  0  0  0  0
 35 33  2  6  0  0  0
 35 37  1  0  0  0  0
 36 34  1  0  0  0  0
 36 32  1  0  0  0  0
 38 35  1  0  0  0  0
 39 41  1  0  0  0  0
 41 40  1  0  0  0  0
 43 42  1  0  0  0  0
 43 44  1  0  0  0  0
 44 45  1  6  0  0  0
 44 46  1  0  0  0  0
 46 47  1  0  0  0  0
 49 48  1  0  0  0  0
 51 50  1  0  0  0  0
 51 49  1  0  0  0  0
 52 51  2  0  0  0  0
 53 54  1  0  0  0  0
 54 57  1  6  0  0  0
 54 60  1  0  0  0  0
 55 59  1  0  0  0  0
 56 62  1  0  0  0  0
 58 59  1  0  0  0  0
 61 54  1  0  0  0  0
 61 56  2  0  0  0  0
 62 63  1  0  0  0  0
 62 58  1  0  0  0  0
 63 60  1  6  0  0  0
 63 55  1  0  0  0  0
M  END
>  <MODEL>
6

>  <REMARK>
 VINA RESULT:      -3.5      4.050      9.626
  Name = 
  18 active torsions:
  status: ('A' for Active; 'I' for Inactive)
    1  A    between atoms: C_3  and  C_11
    2  A    between atoms: S_5  and  C_28
    3  A    between atoms: S_5  and  C_50
    4  A    between atoms: C_7  and  N_9
    5  A    between atoms: C_8  and  C_36
    6  A    between atoms: C_8  and  C_63
    7  A    between atoms: N_9  and  C_59
    8  A    between atoms: C_11  and  O_13
    9  A    between atoms: N_12  and  C_43
   10  A    between atoms: O_13  and  C_38
   11  A    between atoms: N_16  and  C_46
   12  A    between atoms: C_18  and  C_29
   13  A    between atoms: C_18  and  C_45
   14  A    between atoms: C_19  and  C_29
   15  A    between atoms: N_32  and  N_56
   16  A    between atoms: C_43  and  C_47
   17  A    between atoms: C_43  and  N_56
   18  A    between atoms: C_47  and  C_63
                            x       y       z     vdW  Elec       q    Type
                         _______ _______ _______ _____ _____    ______ ____

>  <TORSDO>
F 18

$$$$
