=
 OpenBabel11042410543D

 26 29  0  0  0  0  0  0  0  0999 V2000
  191.5210  178.2040  143.6080 C   0  0  0  0  0  3  0  0  0  0  0  0
  189.3170  177.8820  144.5960 C   0  0  0  0  0  0  0  0  0  0  0  0
  187.9660  177.8760  147.9210 C   0  0  0  0  0  0  0  0  0  0  0  0
  189.2210  176.8260  140.9380 C   0  0  0  0  0  1  0  0  0  0  0  0
  184.0860  179.2440  144.0810 C   0  0  0  0  0  3  0  0  0  0  0  0
  188.5040  177.8780  145.7830 N   0  0  0  0  0  0  0  0  0  0  0  0
  188.0840  177.8010  149.3030 O   0  0  0  0  0  1  0  0  0  0  0  0
  189.7160  177.3310  142.2550 C   0  0  0  0  0  0  0  0  0  0  0  0
  191.9220  177.6700  141.3020 O   0  0  0  0  0  1  0  0  0  0  0  0
  184.2530  178.6800  142.8170 C   0  0  0  0  0  0  0  0  0  0  0  0
  190.6640  178.2680  144.7040 C   0  0  0  0  0  3  0  0  0  0  0  0
  185.4080  177.9360  142.5450 C   0  0  0  0  0  3  0  0  0  0  0  0
  187.1700  178.0820  145.9030 C   0  0  0  0  0  0  0  0  0  0  0  0
  191.0520  177.7340  142.3840 C   0  0  0  0  0  0  0  0  0  0  0  0
  188.8370  177.4170  143.3520 C   0  0  0  0  0  0  0  0  0  0  0  0
  185.0600  179.0610  145.0620 C   0  0  0  0  0  3  0  0  0  0  0  0
  189.0040  177.7560  147.0310 C   0  0  0  0  0  3  0  0  0  0  0  0
  186.2270  178.3280  144.7960 C   0  0  0  0  0  0  0  0  0  0  0  0
  186.4010  177.7660  143.5160 C   0  0  0  0  0  0  0  0  0  0  0  0
  187.5150  177.0050  143.1660 O   0  0  0  0  0  0  0  0  0  0  0  0
  186.7900  178.0920  147.2380 C   0  0  0  0  0  3  0  0  0  0  0  0
  183.2400  178.8690  141.8260 N   0  0  0  0  0  2  0  0  0  0  0  0
  183.3170  178.2820  140.4960 C   0  0  0  0  0  2  0  0  0  0  0  0
  183.3530  179.3810  139.4500 C   0  0  0  0  0  2  0  0  0  0  0  0
  184.6740  179.7500  139.1940 O   0  0  0  0  0  0  0  0  0  0  0  0
  185.2820  178.5810  138.7400 C   0  0  0  0  0  1  0  0  0  0  0  0
  1 11  1  0  0  0  0
  2 11  2  0  0  0  0
  2  6  1  0  0  0  0
  3  7  1  0  0  0  0
  4  8  1  0  0  0  0
  5 16  1  0  0  0  0
  6 13  1  0  0  0  0
  6 17  1  0  0  0  0
  8 14  1  0  0  0  0
  8 15  2  0  0  0  0
  9 14  1  0  0  0  0
 10  5  2  0  0  0  0
 12 10  1  0  0  0  0
 12 19  2  0  0  0  0
 13 21  2  0  0  0  0
 14  1  2  0  0  0  0
 15  2  1  0  0  0  0
 17  3  2  0  0  0  0
 18 16  2  0  0  0  0
 18 13  1  0  0  0  0
 19 18  1  0  0  0  0
 20 15  1  0  0  0  0
 20 19  1  0  0  0  0
 21  3  1  0  0  0  0
 22 10  1  0  0  0  0
 23 22  1  0  0  0  0
 24 23  1  0  0  0  0
 25 24  1  0  0  0  0
 26 25  1  0  0  0  0
M  END
>  <MODEL>
1

>  <REMARK>
 VINA RESULT:      -8.9      0.000      0.000
  Name = 
  4 active torsions:
  status: ('A' for Active; 'I' for Inactive)
    1  A    between atoms: C_8  and  O_12
    2  A    between atoms: C_8  and  C_18
    3  A    between atoms: C_11  and  N_20
    4  A    between atoms: C_18  and  N_20
                            x       y       z     vdW  Elec       q    Type
                         _______ _______ _______ _____ _____    ______ ____

>  <TORSDO>
F 4

$$$$
=
 OpenBabel11042410543D

 26 29  0  0  0  0  0  0  0  0999 V2000
  186.6090  179.0740  147.9680 C   0  0  0  0  0  3  0  0  0  0  0  0
  185.8890  178.4860  145.7160 C   0  0  0  0  0  0  0  0  0  0  0  0
  182.8760  178.8560  143.8010 C   0  0  0  0  0  0  0  0  0  0  0  0
  189.1750  176.7210  146.4850 C   0  0  0  0  0  1  0  0  0  0  0  0
  187.4300  178.5460  140.5090 C   0  0  0  0  0  3  0  0  0  0  0  0
  184.8590  178.5450  144.7130 N   0  0  0  0  0  0  0  0  0  0  0  0
  181.5130  179.0880  143.6760 O   0  0  0  0  0  1  0  0  0  0  0  0
  187.9570  177.5760  146.6310 C   0  0  0  0  0  0  0  0  0  0  0  0
  188.6480  178.1880  148.8760 O   0  0  0  0  0  1  0  0  0  0  0  0
  188.4910  177.7900  141.0050 C   0  0  0  0  0  0  0  0  0  0  0  0
  185.6890  179.1700  146.9270 C   0  0  0  0  0  3  0  0  0  0  0  0
  188.4180  177.2750  142.3060 C   0  0  0  0  0  3  0  0  0  0  0  0
  184.9770  178.4740  143.3660 C   0  0  0  0  0  0  0  0  0  0  0  0
  187.7420  178.2780  147.8250 C   0  0  0  0  0  0  0  0  0  0  0  0
  187.0440  177.6880  145.5640 C   0  0  0  0  0  0  0  0  0  0  0  0
  186.3080  178.7810  141.3040 C   0  0  0  0  0  3  0  0  0  0  0  0
  183.5600  178.7880  144.9890 C   0  0  0  0  0  3  0  0  0  0  0  0
  186.2300  178.2810  142.6130 C   0  0  0  0  0  0  0  0  0  0  0  0
  187.3060  177.5240  143.1180 C   0  0  0  0  0  0  0  0  0  0  0  0
  187.3100  176.9700  144.3960 O   0  0  0  0  0  0  0  0  0  0  0  0
  183.7470  178.6690  142.7520 C   0  0  0  0  0  3  0  0  0  0  0  0
  189.6290  177.5500  140.1740 N   0  0  0  0  0  2  0  0  0  0  0  0
  190.7340  176.6910  140.5760 C   0  0  0  0  0  2  0  0  0  0  0  0
  191.7740  177.5050  141.3220 C   0  0  0  0  0  2  0  0  0  0  0  0
  191.9100  177.0210  142.6250 O   0  0  0  0  0  0  0  0  0  0  0  0
  191.7180  178.1400  143.4340 C   0  0  0  0  0  1  0  0  0  0  0  0
  2 11  1  0  0  0  0
  3 17  2  0  0  0  0
  4  8  1  0  0  0  0
  5 10  2  0  0  0  0
  5 16  1  0  0  0  0
  6 17  1  0  0  0  0
  6  2  1  0  0  0  0
  7  3  1  0  0  0  0
  8 14  2  0  0  0  0
 10 12  1  0  0  0  0
 11  1  2  0  0  0  0
 12 19  2  0  0  0  0
 13  6  1  0  0  0  0
 14  1  1  0  0  0  0
 14  9  1  0  0  0  0
 15  2  2  0  0  0  0
 15  8  1  0  0  0  0
 16 18  2  0  0  0  0
 18 19  1  0  0  0  0
 18 13  1  0  0  0  0
 19 20  1  0  0  0  0
 20 15  1  0  0  0  0
 21 13  2  0  0  0  0
 21  3  1  0  0  0  0
 22 23  1  0  0  0  0
 22 10  1  0  0  0  0
 23 24  1  0  0  0  0
 24 25  1  0  0  0  0
 25 26  1  0  0  0  0
M  END
>  <MODEL>
2

>  <REMARK>
 VINA RESULT:      -8.8      2.050      5.767
  Name = 
  4 active torsions:
  status: ('A' for Active; 'I' for Inactive)
    1  A    between atoms: C_8  and  O_12
    2  A    between atoms: C_8  and  C_18
    3  A    between atoms: C_11  and  N_20
    4  A    between atoms: C_18  and  N_20
                            x       y       z     vdW  Elec       q    Type
                         _______ _______ _______ _____ _____    ______ ____

>  <TORSDO>
F 4

$$$$
=
 OpenBabel11042410543D

 26 29  0  0  0  0  0  0  0  0999 V2000
  186.4710  179.0770  147.7560 C   0  0  0  0  0  3  0  0  0  0  0  0
  185.9990  178.4290  145.4550 C   0  0  0  0  0  0  0  0  0  0  0  0
  183.2130  178.7410  143.2150 C   0  0  0  0  0  0  0  0  0  0  0  0
  189.1820  176.6920  146.6230 C   0  0  0  0  0  1  0  0  0  0  0  0
  188.0980  178.3580  140.4470 C   0  0  0  0  0  3  0  0  0  0  0  0
  185.0850  178.4590  144.3450 N   0  0  0  0  0  0  0  0  0  0  0  0
  181.8710  178.9670  142.9360 O   0  0  0  0  0  1  0  0  0  0  0  0
  187.9560  177.5470  146.6120 C   0  0  0  0  0  0  0  0  0  0  0  0
  188.3980  178.2190  148.9030 O   0  0  0  0  0  1  0  0  0  0  0  0
  189.0980  177.6170  141.0740 C   0  0  0  0  0  0  0  0  0  0  0  0
  185.6690  179.1430  146.6190 C   0  0  0  0  0  3  0  0  0  0  0  0
  188.8840  177.1360  142.3720 C   0  0  0  0  0  3  0  0  0  0  0  0
  185.3480  178.3530  143.0210 C   0  0  0  0  0  0  0  0  0  0  0  0
  187.6130  178.2790  147.7580 C   0  0  0  0  0  0  0  0  0  0  0  0
  187.1640  177.6300  145.4510 C   0  0  0  0  0  0  0  0  0  0  0  0
  186.8960  178.6100  141.1080 C   0  0  0  0  0  3  0  0  0  0  0  0
  183.7640  178.7060  144.4720 C   0  0  0  0  0  3  0  0  0  0  0  0
  186.6760  178.1440  142.4140 C   0  0  0  0  0  0  0  0  0  0  0  0
  187.6910  177.4030  143.0520 C   0  0  0  0  0  0  0  0  0  0  0  0
  187.5550  176.8820  144.3370 O   0  0  0  0  0  0  0  0  0  0  0  0
  184.1930  178.5300  142.2720 C   0  0  0  0  0  3  0  0  0  0  0  0
  190.3200  177.3590  140.3790 N   0  0  0  0  0  2  0  0  0  0  0  0
  190.3960  177.2500  138.9290 C   0  0  0  0  0  2  0  0  0  0  0  0
  191.4750  176.2560  138.5440 C   0  0  0  0  0  2  0  0  0  0  0  0
  190.9120  174.9910  138.3610 O   0  0  0  0  0  0  0  0  0  0  0  0
  189.8700  175.2000  137.4590 C   0  0  0  0  0  1  0  0  0  0  0  0
  1 14  1  0  0  0  0
  2 11  1  0  0  0  0
  3 17  2  0  0  0  0
  5 10  2  0  0  0  0
  5 16  1  0  0  0  0
  6 17  1  0  0  0  0
  6  2  1  0  0  0  0
  7  3  1  0  0  0  0
  8  4  1  0  0  0  0
  8 14  2  0  0  0  0
 10 12  1  0  0  0  0
 11  1  2  0  0  0  0
 12 19  2  0  0  0  0
 13  6  1  0  0  0  0
 14  9  1  0  0  0  0
 15  2  2  0  0  0  0
 15  8  1  0  0  0  0
 16 18  2  0  0  0  0
 18 13  1  0  0  0  0
 18 19  1  0  0  0  0
 19 20  1  0  0  0  0
 20 15  1  0  0  0  0
 21 13  2  0  0  0  0
 21  3  1  0  0  0  0
 22 10  1  0  0  0  0
 23 22  1  0  0  0  0
 24 23  1  0  0  0  0
 25 24  1  0  0  0  0
 26 25  1  0  0  0  0
M  END
>  <MODEL>
3

>  <REMARK>
 VINA RESULT:      -8.7      2.312      5.739
  Name = 
  4 active torsions:
  status: ('A' for Active; 'I' for Inactive)
    1  A    between atoms: C_8  and  O_12
    2  A    between atoms: C_8  and  C_18
    3  A    between atoms: C_11  and  N_20
    4  A    between atoms: C_18  and  N_20
                            x       y       z     vdW  Elec       q    Type
                         _______ _______ _______ _____ _____    ______ ____

>  <TORSDO>
F 4

$$$$
=
 OpenBabel11042410543D

 26 29  0  0  0  0  0  0  0  0999 V2000
  191.6880  177.7580  141.7440 C   0  0  0  0  0  3  0  0  0  0  0  0
  190.4960  177.2010  143.7940 C   0  0  0  0  0  0  0  0  0  0  0  0
  191.4200  176.2920  147.1410 C   0  0  0  0  0  0  0  0  0  0  0  0
  188.0470  177.1990  140.8760 C   0  0  0  0  0  1  0  0  0  0  0  0
  186.3430  178.7130  146.9500 C   0  0  0  0  0  3  0  0  0  0  0  0
  190.5660  176.8780  145.1940 N   0  0  0  0  0  0  0  0  0  0  0  0
  192.3230  175.8360  148.0920 O   0  0  0  0  0  1  0  0  0  0  0  0
  189.3110  177.3140  141.6660 C   0  0  0  0  0  0  0  0  0  0  0  0
  190.5300  177.8780  139.6440 O   0  0  0  0  0  1  0  0  0  0  0  0
  185.6180  178.5190  145.7750 C   0  0  0  0  0  0  0  0  0  0  0  0
  191.6830  177.5260  143.1170 C   0  0  0  0  0  3  0  0  0  0  0  0
  186.2240  177.8650  144.6950 C   0  0  0  0  0  3  0  0  0  0  0  0
  189.6320  177.0570  146.1580 C   0  0  0  0  0  0  0  0  0  0  0  0
  190.5060  177.6500  141.0150 C   0  0  0  0  0  0  0  0  0  0  0  0
  189.2940  177.1040  143.0580 C   0  0  0  0  0  0  0  0  0  0  0  0
  187.6570  178.2550  147.0440 C   0  0  0  0  0  3  0  0  0  0  0  0
  191.6800  176.4100  145.7980 C   0  0  0  0  0  3  0  0  0  0  0  0
  188.2780  177.6100  145.9630 C   0  0  0  0  0  0  0  0  0  0  0  0
  187.5490  177.4220  144.7720 C   0  0  0  0  0  0  0  0  0  0  0  0
  188.0750  176.7740  143.6550 O   0  0  0  0  0  0  0  0  0  0  0  0
  190.1330  176.7010  147.4030 C   0  0  0  0  0  3  0  0  0  0  0  0
  184.2700  178.9860  145.6990 N   0  0  0  0  0  2  0  0  0  0  0  0
  183.6500  179.4110  144.4520 C   0  0  0  0  0  2  0  0  0  0  0  0
  182.3710  178.6280  144.2200 C   0  0  0  0  0  2  0  0  0  0  0  0
  181.5770  179.2850  143.2790 O   0  0  0  0  0  0  0  0  0  0  0  0
  180.3050  178.7410  143.4540 C   0  0  0  0  0  1  0  0  0  0  0  0
  1 11  1  0  0  0  0
  2  6  1  0  0  0  0
  3 21  1  0  0  0  0
  3  7  1  0  0  0  0
  4  8  1  0  0  0  0
  5 16  1  0  0  0  0
  6 17  1  0  0  0  0
  6 13  1  0  0  0  0
  8 15  2  0  0  0  0
  9 14  1  0  0  0  0
 10  5  2  0  0  0  0
 11  2  2  0  0  0  0
 12 19  2  0  0  0  0
 12 10  1  0  0  0  0
 13 21  2  0  0  0  0
 14  8  1  0  0  0  0
 14  1  2  0  0  0  0
 15 20  1  0  0  0  0
 15  2  1  0  0  0  0
 17  3  2  0  0  0  0
 18 13  1  0  0  0  0
 18 16  2  0  0  0  0
 19 18  1  0  0  0  0
 20 19  1  0  0  0  0
 22 10  1  0  0  0  0
 23 22  1  0  0  0  0
 24 23  1  0  0  0  0
 25 26  1  0  0  0  0
 25 24  1  0  0  0  0
M  END
>  <MODEL>
4

>  <REMARK>
 VINA RESULT:      -8.6      2.438      3.257
  Name = 
  4 active torsions:
  status: ('A' for Active; 'I' for Inactive)
    1  A    between atoms: C_8  and  O_12
    2  A    between atoms: C_8  and  C_18
    3  A    between atoms: C_11  and  N_20
    4  A    between atoms: C_18  and  N_20
                            x       y       z     vdW  Elec       q    Type
                         _______ _______ _______ _____ _____    ______ ____

>  <TORSDO>
F 4

$$$$
=
 OpenBabel11042410543D

 26 29  0  0  0  0  0  0  0  0999 V2000
  191.4120  178.2220  143.5910 C   0  0  0  0  0  3  0  0  0  0  0  0
  189.2620  177.8930  144.6880 C   0  0  0  0  0  0  0  0  0  0  0  0
  188.0700  177.9290  148.0740 C   0  0  0  0  0  0  0  0  0  0  0  0
  189.0020  176.7770  141.0560 C   0  0  0  0  0  1  0  0  0  0  0  0
  183.9970  179.1940  144.4020 C   0  0  0  0  0  3  0  0  0  0  0  0
  188.5060  177.9010  145.9120 N   0  0  0  0  0  0  0  0  0  0  0  0
  188.2560  177.8770  149.4490 O   0  0  0  0  0  1  0  0  0  0  0  0
  189.5540  177.3080  142.3400 C   0  0  0  0  0  0  0  0  0  0  0  0
  191.7090  177.6540  141.2770 O   0  0  0  0  0  1  0  0  0  0  0  0
  184.1100  178.6120  143.1410 C   0  0  0  0  0  0  0  0  0  0  0  0
  190.6080  178.2950  144.7250 C   0  0  0  0  0  3  0  0  0  0  0  0
  185.2590  177.8750  142.8250 C   0  0  0  0  0  3  0  0  0  0  0  0
  187.1780  178.0940  146.0930 C   0  0  0  0  0  0  0  0  0  0  0  0
  190.8910  177.7270  142.3980 C   0  0  0  0  0  0  0  0  0  0  0  0
  188.7280  177.4040  143.4760 C   0  0  0  0  0  0  0  0  0  0  0  0
  185.0190  179.0370  145.3390 C   0  0  0  0  0  3  0  0  0  0  0  0
  189.0660  177.8050  147.1370 C   0  0  0  0  0  3  0  0  0  0  0  0
  186.1800  178.3120  145.0280 C   0  0  0  0  0  0  0  0  0  0  0  0
  186.2990  177.7300  143.7500 C   0  0  0  0  0  0  0  0  0  0  0  0
  187.4030  176.9750  143.3600 O   0  0  0  0  0  0  0  0  0  0  0  0
  186.8620  178.1210  147.4440 C   0  0  0  0  0  3  0  0  0  0  0  0
  183.0500  178.7740  142.1970 N   0  0  0  0  0  2  0  0  0  0  0  0
  181.6780  179.0620  142.5910 C   0  0  0  0  0  2  0  0  0  0  0  0
  180.7190  178.2100  141.7800 C   0  0  0  0  0  2  0  0  0  0  0  0
  179.6050  177.8820  142.5540 O   0  0  0  0  0  0  0  0  0  0  0  0
  179.9450  178.2860  143.8440 C   0  0  0  0  0  1  0  0  0  0  0  0
  1 11  1  0  0  0  0
  2 11  2  0  0  0  0
  2  6  1  0  0  0  0
  3  7  1  0  0  0  0
  4  8  1  0  0  0  0
  5 16  1  0  0  0  0
  6 13  1  0  0  0  0
  6 17  1  0  0  0  0
  8 14  1  0  0  0  0
  8 15  2  0  0  0  0
  9 14  1  0  0  0  0
 10  5  2  0  0  0  0
 12 10  1  0  0  0  0
 12 19  2  0  0  0  0
 13 21  2  0  0  0  0
 14  1  2  0  0  0  0
 15  2  1  0  0  0  0
 17  3  2  0  0  0  0
 18 16  2  0  0  0  0
 18 13  1  0  0  0  0
 19 18  1  0  0  0  0
 20 15  1  0  0  0  0
 20 19  1  0  0  0  0
 21  3  1  0  0  0  0
 22 23  1  0  0  0  0
 22 10  1  0  0  0  0
 24 25  1  0  0  0  0
 24 23  1  0  0  0  0
 25 26  1  0  0  0  0
M  END
>  <MODEL>
5

>  <REMARK>
 VINA RESULT:      -8.5      1.699      2.128
  Name = 
  4 active torsions:
  status: ('A' for Active; 'I' for Inactive)
    1  A    between atoms: C_8  and  O_12
    2  A    between atoms: C_8  and  C_18
    3  A    between atoms: C_11  and  N_20
    4  A    between atoms: C_18  and  N_20
                            x       y       z     vdW  Elec       q    Type
                         _______ _______ _______ _____ _____    ______ ____

>  <TORSDO>
F 4

$$$$
=
 OpenBabel11042410543D

 26 29  0  0  0  0  0  0  0  0999 V2000
  184.5210  179.6700  143.3050 C   0  0  0  0  0  3  0  0  0  0  0  0
  186.5630  178.4950  142.6840 C   0  0  0  0  0  0  0  0  0  0  0  0
  188.3930  177.9470  139.6450 C   0  0  0  0  0  0  0  0  0  0  0  0
  185.5600  177.4920  146.2190 C   0  0  0  0  0  1  0  0  0  0  0  0
  191.7160  177.6570  144.1780 C   0  0  0  0  0  3  0  0  0  0  0  0
  187.5130  178.1660  141.6550 N   0  0  0  0  0  0  0  0  0  0  0  0
  188.5110  177.9250  138.2620 O   0  0  0  0  0  1  0  0  0  0  0  0
  185.5550  178.1510  144.8770 C   0  0  0  0  0  0  0  0  0  0  0  0
  183.5240  179.3430  145.4640 O   0  0  0  0  0  1  0  0  0  0  0  0
  191.1110  177.2080  145.3510 C   0  0  0  0  0  0  0  0  0  0  0  0
  185.5200  179.3860  142.3780 C   0  0  0  0  0  3  0  0  0  0  0  0
  189.7280  176.9870  145.3680 C   0  0  0  0  0  3  0  0  0  0  0  0
  188.8170  177.8210  141.7790 C   0  0  0  0  0  0  0  0  0  0  0  0
  184.5330  179.0540  144.5530 C   0  0  0  0  0  0  0  0  0  0  0  0
  186.5830  177.8790  143.9550 C   0  0  0  0  0  0  0  0  0  0  0  0
  190.9480  177.8780  143.0350 C   0  0  0  0  0  3  0  0  0  0  0  0
  187.2450  178.2530  140.3350 C   0  0  0  0  0  3  0  0  0  0  0  0
  189.5590  177.6710  143.0450 C   0  0  0  0  0  0  0  0  0  0  0  0
  188.9450  177.2260  144.2330 C   0  0  0  0  0  0  0  0  0  0  0  0
  187.5780  176.9730  144.3310 O   0  0  0  0  0  0  0  0  0  0  0  0
  189.4100  177.6770  140.5320 C   0  0  0  0  0  3  0  0  0  0  0  0
  191.9140  176.9780  146.5100 N   0  0  0  0  0  2  0  0  0  0  0  0
  192.1270  175.6530  147.0740 C   0  0  0  0  0  2  0  0  0  0  0  0
  192.8060  175.7710  148.4260 C   0  0  0  0  0  2  0  0  0  0  0  0
  192.7540  177.0940  148.8680 O   0  0  0  0  0  0  0  0  0  0  0  0
  193.6090  177.1270  149.9690 C   0  0  0  0  0  1  0  0  0  0  0  0
  1 14  1  0  0  0  0
  2 15  2  0  0  0  0
  3 17  2  0  0  0  0
  3 21  1  0  0  0  0
  5 10  1  0  0  0  0
  6 13  1  0  0  0  0
  6  2  1  0  0  0  0
  7  3  1  0  0  0  0
  8  4  1  0  0  0  0
 10 12  2  0  0  0  0
 10 22  1  0  0  0  0
 11  2  1  0  0  0  0
 11  1  2  0  0  0  0
 13 18  1  0  0  0  0
 14  8  2  0  0  0  0
 14  9  1  0  0  0  0
 15 20  1  0  0  0  0
 15  8  1  0  0  0  0
 16 18  1  0  0  0  0
 16  5  2  0  0  0  0
 17  6  1  0  0  0  0
 18 19  2  0  0  0  0
 19 20  1  0  0  0  0
 19 12  1  0  0  0  0
 21 13  2  0  0  0  0
 22 23  1  0  0  0  0
 23 24  1  0  0  0  0
 24 25  1  0  0  0  0
 25 26  1  0  0  0  0
M  END
>  <MODEL>
6

>  <REMARK>
 VINA RESULT:      -8.3      2.715      7.891
  Name = 
  4 active torsions:
  status: ('A' for Active; 'I' for Inactive)
    1  A    between atoms: C_8  and  O_12
    2  A    between atoms: C_8  and  C_18
    3  A    between atoms: C_11  and  N_20
    4  A    between atoms: C_18  and  N_20
                            x       y       z     vdW  Elec       q    Type
                         _______ _______ _______ _____ _____    ______ ____

>  <TORSDO>
F 4

$$$$
=
 OpenBabel11042410543D

 26 29  0  0  0  0  0  0  0  0999 V2000
  189.8720  177.9090  147.9390 C   0  0  0  0  0  3  0  0  0  0  0  0
  188.4340  177.6780  145.9860 C   0  0  0  0  0  0  0  0  0  0  0  0
  184.9950  178.3680  145.2290 C   0  0  0  0  0  0  0  0  0  0  0  0
  191.6810  175.7790  145.3870 C   0  0  0  0  0  1  0  0  0  0  0  0
  188.2260  178.5110  140.6240 C   0  0  0  0  0  3  0  0  0  0  0  0
  187.1430  177.8990  145.3920 N   0  0  0  0  0  0  0  0  0  0  0  0
  183.6790  178.6320  145.5890 O   0  0  0  0  0  1  0  0  0  0  0  0
  190.6280  176.6160  146.0390 C   0  0  0  0  0  0  0  0  0  0  0  0
  192.0370  176.8720  148.0000 O   0  0  0  0  0  1  0  0  0  0  0  0
  189.3430  177.6760  140.6360 C   0  0  0  0  0  0  0  0  0  0  0  0
  188.6740  178.1710  147.2790 C   0  0  0  0  0  3  0  0  0  0  0  0
  189.6600  176.9710  141.8030 C   0  0  0  0  0  3  0  0  0  0  0  0
  186.8180  178.0330  144.0840 C   0  0  0  0  0  0  0  0  0  0  0  0
  190.8500  177.1300  147.3250 C   0  0  0  0  0  0  0  0  0  0  0  0
  189.4300  176.8990  145.3560 C   0  0  0  0  0  0  0  0  0  0  0  0
  187.4340  178.6350  141.7650 C   0  0  0  0  0  3  0  0  0  0  0  0
  186.0180  178.1130  146.1080 C   0  0  0  0  0  3  0  0  0  0  0  0
  187.7500  177.9420  142.9440 C   0  0  0  0  0  0  0  0  0  0  0  0
  188.8840  177.1060  142.9600 C   0  0  0  0  0  0  0  0  0  0  0  0
  189.2630  176.3630  144.0770 O   0  0  0  0  0  0  0  0  0  0  0  0
  185.4700  178.3330  143.9380 C   0  0  0  0  0  3  0  0  0  0  0  0
  190.1380  177.5530  139.4550 N   0  0  0  0  0  2  0  0  0  0  0  0
  190.9420  176.3750  139.1620 C   0  0  0  0  0  2  0  0  0  0  0  0
  190.4510  175.7200  137.8850 C   0  0  0  0  0  2  0  0  0  0  0  0
  190.6030  174.3350  137.9730 O   0  0  0  0  0  0  0  0  0  0  0  0
  190.7770  173.9190  136.6540 C   0  0  0  0  0  1  0  0  0  0  0  0
  2 11  1  0  0  0  0
  3  7  1  0  0  0  0
  3 17  2  0  0  0  0
  4  8  1  0  0  0  0
  5 10  2  0  0  0  0
  5 16  1  0  0  0  0
  6  2  1  0  0  0  0
  6 17  1  0  0  0  0
  8 14  2  0  0  0  0
 10 12  1  0  0  0  0
 11  1  2  0  0  0  0
 12 19  2  0  0  0  0
 13  6  1  0  0  0  0
 14  1  1  0  0  0  0
 14  9  1  0  0  0  0
 15  2  2  0  0  0  0
 15  8  1  0  0  0  0
 16 18  2  0  0  0  0
 18 19  1  0  0  0  0
 18 13  1  0  0  0  0
 19 20  1  0  0  0  0
 20 15  1  0  0  0  0
 21 13  2  0  0  0  0
 21  3  1  0  0  0  0
 22 10  1  0  0  0  0
 23 22  1  0  0  0  0
 24 25  1  0  0  0  0
 24 23  1  0  0  0  0
 26 25  1  0  0  0  0
M  END
>  <MODEL>
7

>  <REMARK>
 VINA RESULT:      -8.2      2.765      5.009
  Name = 
  4 active torsions:
  status: ('A' for Active; 'I' for Inactive)
    1  A    between atoms: C_8  and  O_12
    2  A    between atoms: C_8  and  C_18
    3  A    between atoms: C_11  and  N_20
    4  A    between atoms: C_18  and  N_20
                            x       y       z     vdW  Elec       q    Type
                         _______ _______ _______ _____ _____    ______ ____

>  <TORSDO>
F 4

$$$$
=
 OpenBabel11042410543D

 26 29  0  0  0  0  0  0  0  0999 V2000
  189.9130  177.8600  147.9510 C   0  0  0  0  0  3  0  0  0  0  0  0
  188.4160  177.6670  146.0380 C   0  0  0  0  0  0  0  0  0  0  0  0
  184.9560  178.3710  145.4000 C   0  0  0  0  0  0  0  0  0  0  0  0
  191.6430  175.7810  145.3050 C   0  0  0  0  0  1  0  0  0  0  0  0
  188.0460  178.6040  140.7020 C   0  0  0  0  0  3  0  0  0  0  0  0
  187.1080  177.9000  145.4890 N   0  0  0  0  0  0  0  0  0  0  0  0
  183.6520  178.6280  145.8040 O   0  0  0  0  0  1  0  0  0  0  0  0
  190.6100  176.6050  146.0050 C   0  0  0  0  0  0  0  0  0  0  0  0
  192.0780  176.8230  147.9260 O   0  0  0  0  0  1  0  0  0  0  0  0
  189.1620  177.7700  140.6640 C   0  0  0  0  0  0  0  0  0  0  0  0
  188.6960  178.1350  147.3330 C   0  0  0  0  0  3  0  0  0  0  0  0
  189.5140  177.0420  141.8080 C   0  0  0  0  0  3  0  0  0  0  0  0
  186.7430  178.0590  144.1940 C   0  0  0  0  0  0  0  0  0  0  0  0
  190.8710  177.0940  147.2920 C   0  0  0  0  0  0  0  0  0  0  0  0
  189.3920  176.9010  145.3640 C   0  0  0  0  0  0  0  0  0  0  0  0
  187.2890  178.7060  141.8690 C   0  0  0  0  0  3  0  0  0  0  0  0
  186.0050  178.0990  146.2420 C   0  0  0  0  0  3  0  0  0  0  0  0
  187.6410  177.9910  143.0250 C   0  0  0  0  0  0  0  0  0  0  0  0
  188.7740  177.1540  142.9900 C   0  0  0  0  0  0  0  0  0  0  0  0
  189.1870  176.3900  144.0800 O   0  0  0  0  0  0  0  0  0  0  0  0
  185.3920  178.3610  144.0940 C   0  0  0  0  0  3  0  0  0  0  0  0
  189.9210  177.6700  139.4570 N   0  0  0  0  0  2  0  0  0  0  0  0
  189.5220  176.8260  138.3400 C   0  0  0  0  0  2  0  0  0  0  0  0
  189.4660  177.6500  137.0670 C   0  0  0  0  0  2  0  0  0  0  0  0
  188.7190  178.8090  137.2840 O   0  0  0  0  0  0  0  0  0  0  0  0
  187.5740  178.6370  136.5080 C   0  0  0  0  0  1  0  0  0  0  0  0
  2 11  2  0  0  0  0
  3  7  1  0  0  0  0
  3 17  2  0  0  0  0
  4  8  1  0  0  0  0
  5 16  1  0  0  0  0
  6  2  1  0  0  0  0
  6 17  1  0  0  0  0
  8 14  1  0  0  0  0
 10  5  2  0  0  0  0
 10 12  1  0  0  0  0
 11  1  1  0  0  0  0
 12 19  2  0  0  0  0
 13  6  1  0  0  0  0
 14  9  1  0  0  0  0
 14  1  2  0  0  0  0
 15  8  2  0  0  0  0
 15  2  1  0  0  0  0
 16 18  2  0  0  0  0
 18 13  1  0  0  0  0
 19 18  1  0  0  0  0
 19 20  1  0  0  0  0
 20 15  1  0  0  0  0
 21 13  2  0  0  0  0
 21  3  1  0  0  0  0
 22 10  1  0  0  0  0
 23 22  1  0  0  0  0
 24 25  1  0  0  0  0
 24 23  1  0  0  0  0
 26 25  1  0  0  0  0
M  END
>  <MODEL>
8

>  <REMARK>
 VINA RESULT:      -8.2      2.647      4.410
  Name = 
  4 active torsions:
  status: ('A' for Active; 'I' for Inactive)
    1  A    between atoms: C_8  and  O_12
    2  A    between atoms: C_8  and  C_18
    3  A    between atoms: C_11  and  N_20
    4  A    between atoms: C_18  and  N_20
                            x       y       z     vdW  Elec       q    Type
                         _______ _______ _______ _____ _____    ______ ____

>  <TORSDO>
F 4

$$$$
=
 OpenBabel11042410543D

 26 29  0  0  0  0  0  0  0  0999 V2000
  182.3030  178.5500  141.2410 C   0  0  0  0  0  3  0  0  0  0  0  0
  184.3770  178.5800  142.5200 C   0  0  0  0  0  0  0  0  0  0  0  0
  185.2520  178.6280  146.0000 C   0  0  0  0  0  0  0  0  0  0  0  0
  185.1450  179.3080  138.8610 C   0  0  0  0  0  1  0  0  0  0  0  0
  189.3090  176.3300  142.8480 C   0  0  0  0  0  3  0  0  0  0  0  0
  185.0120  178.5440  143.8100 N   0  0  0  0  0  0  0  0  0  0  0  0
  184.9650  178.8320  147.3430 O   0  0  0  0  0  1  0  0  0  0  0  0
  184.3980  178.9990  140.1180 C   0  0  0  0  0  0  0  0  0  0  0  0
  182.3130  178.9560  138.8750 O   0  0  0  0  0  1  0  0  0  0  0  0
  189.4140  176.8110  141.5430 C   0  0  0  0  0  0  0  0  0  0  0  0
  182.9810  178.4330  142.4520 C   0  0  0  0  0  3  0  0  0  0  0  0
  188.4540  177.7120  141.0650 C   0  0  0  0  0  3  0  0  0  0  0  0
  186.2610  178.1310  144.1340 C   0  0  0  0  0  0  0  0  0  0  0  0
  183.0060  178.8350  140.0740 C   0  0  0  0  0  0  0  0  0  0  0  0
  185.0930  178.8560  141.3340 C   0  0  0  0  0  0  0  0  0  0  0  0
  188.2590  176.7510  143.6650 C   0  0  0  0  0  3  0  0  0  0  0  0
  184.3790  178.8470  144.9640 C   0  0  0  0  0  3  0  0  0  0  0  0
  187.2860  177.6440  143.1910 C   0  0  0  0  0  0  0  0  0  0  0  0
  187.3860  178.1220  141.8700 C   0  0  0  0  0  0  0  0  0  0  0  0
  186.4790  179.0270  141.3200 O   0  0  0  0  0  0  0  0  0  0  0  0
  186.4520  178.1660  145.5090 C   0  0  0  0  0  3  0  0  0  0  0  0
  190.5000  176.3780  140.7220 N   0  0  0  0  0  2  0  0  0  0  0  0
  191.1540  177.2460  139.7540 C   0  0  0  0  0  2  0  0  0  0  0  0
  191.0500  176.6410  138.3660 C   0  0  0  0  0  2  0  0  0  0  0  0
  190.9290  175.2530  138.4620 O   0  0  0  0  0  0  0  0  0  0  0  0
  191.9010  174.7580  137.5930 C   0  0  0  0  0  1  0  0  0  0  0  0
  1 11  1  0  0  0  0
  2  6  1  0  0  0  0
  3  7  1  0  0  0  0
  4  8  1  0  0  0  0
  5 16  1  0  0  0  0
  6 13  1  0  0  0  0
  6 17  1  0  0  0  0
  8 15  2  0  0  0  0
  9 14  1  0  0  0  0
 10  5  2  0  0  0  0
 11  2  2  0  0  0  0
 12 10  1  0  0  0  0
 12 19  2  0  0  0  0
 13 21  2  0  0  0  0
 14  8  1  0  0  0  0
 14  1  2  0  0  0  0
 15  2  1  0  0  0  0
 17  3  2  0  0  0  0
 18 16  2  0  0  0  0
 18 13  1  0  0  0  0
 19 18  1  0  0  0  0
 20 15  1  0  0  0  0
 20 19  1  0  0  0  0
 21  3  1  0  0  0  0
 22 10  1  0  0  0  0
 23 22  1  0  0  0  0
 24 25  1  0  0  0  0
 24 23  1  0  0  0  0
 26 25  1  0  0  0  0
M  END
>  <MODEL>
9

>  <REMARK>
 VINA RESULT:      -7.9      2.333      6.013
  Name = 
  4 active torsions:
  status: ('A' for Active; 'I' for Inactive)
    1  A    between atoms: C_8  and  O_12
    2  A    between atoms: C_8  and  C_18
    3  A    between atoms: C_11  and  N_20
    4  A    between atoms: C_18  and  N_20
                            x       y       z     vdW  Elec       q    Type
                         _______ _______ _______ _____ _____    ______ ____

>  <TORSDO>
F 4

$$$$
