=
 OpenBabel11042409503D

 33 37  0  0  1  0  0  0  0  0999 V2000
  185.6880  173.4870  135.8380 C   0  0  0  0  0  2  0  0  0  0  0  0
  188.9750  177.0440  138.7850 C   0  0  1  0  0  3  0  0  0  0  0  0
  192.2460  174.5210  137.1370 C   0  0  0  0  0  0  0  0  0  0  0  0
  190.4250  175.7570  137.1270 C   0  0  1  0  0  3  0  0  0  0  0  0
  184.2380  177.1340  138.2470 C   0  0  0  0  0  3  0  0  0  0  0  0
  182.6160  175.8460  136.8970 C   0  0  0  0  0  2  0  0  0  0  0  0
  188.3640  178.2100  138.0120 C   0  0  0  0  0  2  0  0  0  0  0  0
  183.3780  176.0150  135.6110 C   0  0  0  0  0  0  0  0  0  0  0  0
  187.1590  173.2380  135.8950 C   0  0  0  0  0  3  0  0  0  0  0  0
  185.8230  176.5380  136.4020 C   0  0  1  0  0  3  0  0  0  0  0  0
  187.6690  177.8710  142.1620 O   0  0  0  0  0  1  0  0  0  0  0  0
  185.3990  174.5860  134.8290 C   0  0  0  0  0  2  0  0  0  0  0  0
  182.7570  176.2750  134.5940 O   0  0  0  0  0  0  0  0  0  0  0  0
  190.3730  176.7750  138.2630 C   0  0  0  0  0  2  0  0  0  0  0  0
  187.8310  177.8780  140.8170 N   0  0  0  0  0  0  0  0  0  0  0  0
  191.8210  175.6510  136.7050 N   0  0  0  0  0  0  0  0  0  0  0  0
  185.2350  177.4840  137.4200 C   0  0  0  0  0  0  0  0  0  0  0  0
  193.5880  174.0590  136.9770 N   0  0  0  0  0  2  0  0  0  0  0  0
  184.8730  175.8260  135.5290 C   0  0  1  0  0  0  0  0  0  0  0  0
  185.8100  179.0040  140.4980 O   0  0  0  0  0  0  0  0  0  0  0  0
  186.8560  178.5190  139.9860 C   0  0  0  0  0  0  0  0  0  0  0  0
  185.5460  177.0380  135.0420 N   0  0  0  0  0  2  0  0  0  0  0  0
  191.2600  173.7940  137.7520 O   0  0  0  0  0  0  0  0  0  0  0  0
  189.1050  177.4340  140.2580 C   0  0  0  0  0  2  0  0  0  0  0  0
  182.6650  175.6110  139.3630 C   0  0  0  0  0  1  0  0  0  0  0  0
  189.3480  173.7220  136.5620 C   0  0  0  0  0  2  0  0  0  0  0  0
  187.0610  178.5670  138.5670 N   0  0  0  0  0  0  0  0  0  0  0  0
  183.5130  175.8290  138.1290 C   0  0  2  0  0  3  0  0  0  0  0  0
  185.9380  178.7790  137.6630 C   0  0  0  0  0  2  0  0  0  0  0  0
  187.9360  173.9830  136.5930 N   0  0  0  0  0  0  0  0  0  0  0  0
  190.0400  174.4230  137.6380 N   0  0  2  0  0  0  0  0  0  0  0  0
  194.5740  174.8390  136.3550 C   0  0  0  0  0  0  0  0  0  0  0  0
  195.4220  175.5080  135.8190 C   0  0  0  0  0  3  0  0  0  0  0  0
  1  9  1  0  0  0  0
  2  7  1  6  0  0  0
  2 24  1  0  0  0  0
  3 23  1  0  0  0  0
  4 31  1  0  0  0  0
  4 14  1  1  0  0  0
  6 28  1  0  0  0  0
  7 27  1  0  0  0  0
  8  6  1  0  0  0  0
  9 30  2  0  0  0  0
 10 22  1  6  0  0  0
 10 17  1  0  0  0  0
 12  1  1  0  0  0  0
 13  8  2  0  0  0  0
 14  2  1  0  0  0  0
 15 11  1  0  0  0  0
 16  4  1  0  0  0  0
 16  3  2  0  0  0  0
 17 29  1  0  0  0  0
 17  5  2  0  0  0  0
 18  3  1  0  0  0  0
 19 12  1  6  0  0  0
 19  8  1  0  0  0  0
 19 10  1  0  0  0  0
 21 20  2  0  0  0  0
 21 15  1  0  0  0  0
 22 19  1  0  0  0  0
 24 15  1  0  0  0  0
 26 30  1  0  0  0  0
 27 21  1  0  0  0  0
 28  5  1  0  0  0  0
 28 25  1  1  0  0  0
 29 27  1  0  0  0  0
 31 26  1  6  0  0  0
 31 23  1  0  0  0  0
 32 18  1  0  0  0  0
 33 32  3  0  0  0  0
M  END
>  <MODEL>
1

>  <REMARK>
 VINA RESULT:      -5.9      0.000      0.000
  Name = 
  1 active torsions:
  status: ('A' for Active; 'I' for Inactive)
    1  A    between atoms: C_4  and  N_19
                            x       y       z     vdW  Elec       q    Type
                         _______ _______ _______ _____ _____    ______ ____

>  <TORSDO>
F 1

$$$$
=
 OpenBabel11042409503D

 33 37  0  0  1  0  0  0  0  0999 V2000
  189.2830  178.4860  140.4620 C   0  0  0  0  0  2  0  0  0  0  0  0
  185.2850  178.5560  144.4820 C   0  0  1  0  0  3  0  0  0  0  0  0
  182.5400  178.6530  140.9840 C   0  0  0  0  0  0  0  0  0  0  0  0
  184.2040  177.9640  142.2490 C   0  0  1  0  0  3  0  0  0  0  0  0
  190.0150  178.2470  145.0020 C   0  0  0  0  0  3  0  0  0  0  0  0
  191.9240  178.0120  143.4490 C   0  0  0  0  0  2  0  0  0  0  0  0
  185.8600  177.2580  145.0430 C   0  0  0  0  0  2  0  0  0  0  0  0
  191.3180  176.8590  142.6960 C   0  0  0  0  0  0  0  0  0  0  0  0
  187.8520  178.6280  140.0610 C   0  0  0  0  0  3  0  0  0  0  0  0
  188.7500  177.0830  143.1820 C   0  0  1  0  0  3  0  0  0  0  0  0
  186.0550  180.7890  147.3480 O   0  0  0  0  0  1  0  0  0  0  0  0
  189.5780  177.0280  140.7780 C   0  0  0  0  0  2  0  0  0  0  0  0
  192.0310  175.9160  142.4000 O   0  0  0  0  0  0  0  0  0  0  0  0
  184.0020  178.2530  143.7330 C   0  0  0  0  0  2  0  0  0  0  0  0
  186.0660  179.7090  146.5300 N   0  0  0  0  0  0  0  0  0  0  0  0
  182.8930  177.6420  141.6880 N   0  0  0  0  0  0  0  0  0  0  0  0
  189.0990  177.3410  144.6260 C   0  0  0  0  0  0  0  0  0  0  0  0
  181.2870  178.7570  140.3070 N   0  0  0  0  0  2  0  0  0  0  0  0
  189.8740  176.8540  142.2560 C   0  0  1  0  0  0  0  0  0  0  0  0
  187.9780  178.8480  147.5570 O   0  0  0  0  0  0  0  0  0  0  0  0
  187.0640  178.6970  146.7010 C   0  0  0  0  0  0  0  0  0  0  0  0
  189.1430  175.7090  142.8140 N   0  0  0  0  0  2  0  0  0  0  0  0
  183.5120  179.6180  140.9350 O   0  0  0  0  0  0  0  0  0  0  0  0
  184.9280  179.4870  145.6420 C   0  0  0  0  0  2  0  0  0  0  0  0
  191.5890  180.1130  144.7190 C   0  0  0  0  0  1  0  0  0  0  0  0
  185.5560  178.7850  140.4830 C   0  0  0  0  0  2  0  0  0  0  0  0
  187.0370  177.5310  145.8650 N   0  0  0  0  0  0  0  0  0  0  0  0
  190.8850  178.9690  144.0210 C   0  0  2  0  0  3  0  0  0  0  0  0
  188.2360  176.7250  145.6780 C   0  0  0  0  0  2  0  0  0  0  0  0
  186.9170  178.7030  140.9370 N   0  0  0  0  0  0  0  0  0  0  0  0
  184.6630  179.1920  141.5620 N   0  0  2  0  0  0  0  0  0  0  0  0
  180.3100  177.7540  140.3940 C   0  0  0  0  0  0  0  0  0  0  0  0
  179.4700  176.8920  140.4680 C   0  0  0  0  0  3  0  0  0  0  0  0
  1 12  1  0  0  0  0
  2 14  1  1  0  0  0
  2  7  1  0  0  0  0
  2 24  1  0  0  0  0
  3 16  2  0  0  0  0
  4 14  1  1  0  0  0
  6 28  1  0  0  0  0
  7 27  1  0  0  0  0
  8  6  1  0  0  0  0
  9  1  1  0  0  0  0
  9 30  2  0  0  0  0
 10 22  1  1  0  0  0
 10 17  1  0  0  0  0
 13  8  2  0  0  0  0
 15 21  1  0  0  0  0
 15 11  1  0  0  0  0
 16  4  1  0  0  0  0
 17  5  2  0  0  0  0
 17 29  1  0  0  0  0
 18 32  1  0  0  0  0
 18  3  1  0  0  0  0
 19 12  1  6  0  0  0
 19  8  1  0  0  0  0
 19 22  1  0  0  0  0
 19 10  1  0  0  0  0
 21 20  2  0  0  0  0
 23  3  1  0  0  0  0
 23 31  1  0  0  0  0
 24 15  1  0  0  0  0
 26 30  1  0  0  0  0
 27 21  1  0  0  0  0
 28 25  1  1  0  0  0
 28  5  1  0  0  0  0
 29 27  1  0  0  0  0
 31 26  1  6  0  0  0
 31  4  1  0  0  0  0
 32 33  3  0  0  0  0
M  END
>  <MODEL>
2

>  <REMARK>
 VINA RESULT:      -5.4      5.034      9.428
  Name = 
  1 active torsions:
  status: ('A' for Active; 'I' for Inactive)
    1  A    between atoms: C_4  and  N_19
                            x       y       z     vdW  Elec       q    Type
                         _______ _______ _______ _____ _____    ______ ____

>  <TORSDO>
F 1

$$$$
=
 OpenBabel11042409503D

 33 37  0  0  1  0  0  0  0  0999 V2000
  188.0660  177.9490  138.7920 C   0  0  0  0  0  2  0  0  0  0  0  0
  182.8460  176.1730  137.4730 C   0  0  1  0  0  3  0  0  0  0  0  0
  181.6340  179.3110  140.3830 C   0  0  0  0  0  0  0  0  0  0  0  0
  182.6800  178.4240  138.6610 C   0  0  1  0  0  3  0  0  0  0  0  0
  187.0180  174.7230  135.6770 C   0  0  0  0  0  3  0  0  0  0  0  0
  189.3680  175.4460  135.9340 C   0  0  0  0  0  2  0  0  0  0  0  0
  183.1390  176.4780  136.0060 C   0  0  0  0  0  2  0  0  0  0  0  0
  189.0690  176.8990  135.6820 C   0  0  0  0  0  0  0  0  0  0  0  0
  186.8980  178.5260  139.5180 C   0  0  0  0  0  3  0  0  0  0  0  0
  186.5140  177.1110  136.2350 C   0  0  1  0  0  3  0  0  0  0  0  0
  182.5180  172.4830  137.2180 O   0  0  0  0  0  1  0  0  0  0  0  0
  188.1900  178.6070  137.4270 C   0  0  0  0  0  2  0  0  0  0  0  0
  189.8220  177.5340  134.9620 O   0  0  0  0  0  0  0  0  0  0  0  0
  181.9360  177.2480  138.0350 C   0  0  0  0  0  2  0  0  0  0  0  0
  182.8160  173.7650  136.8970 N   0  0  0  0  0  0  0  0  0  0  0  0
  181.6730  179.3870  139.1040 N   0  0  0  0  0  0  0  0  0  0  0  0
  186.2950  175.8330  135.4640 C   0  0  0  0  0  0  0  0  0  0  0  0
  180.7330  180.0590  141.2000 N   0  0  0  0  0  2  0  0  0  0  0  0
  187.9000  177.6040  136.3250 C   0  0  1  0  0  0  0  0  0  0  0  0
  184.1780  173.0910  135.1240 O   0  0  0  0  0  0  0  0  0  0  0  0
  183.6530  174.0400  135.7680 C   0  0  0  0  0  0  0  0  0  0  0  0
  186.9890  178.1670  135.3190 N   0  0  0  0  0  2  0  0  0  0  0  0
  182.5720  178.4450  140.8820 O   0  0  0  0  0  0  0  0  0  0  0  0
  182.0950  174.8440  137.5660 C   0  0  0  0  0  2  0  0  0  0  0  0
  188.6200  173.2630  136.8360 C   0  0  0  0  0  1  0  0  0  0  0  0
  184.6170  178.7530  139.9880 C   0  0  0  0  0  2  0  0  0  0  0  0
  183.9220  175.4010  135.4040 N   0  0  0  0  0  0  0  0  0  0  0  0
  188.2100  174.6980  136.5830 C   0  0  2  0  0  3  0  0  0  0  0  0
  185.0850  175.7370  134.5940 C   0  0  0  0  0  2  0  0  0  0  0  0
  185.7030  178.1180  139.2930 N   0  0  0  0  0  0  0  0  0  0  0  0
  183.3900  177.9720  139.8790 N   0  0  2  0  0  0  0  0  0  0  0  0
  179.7760  180.9250  140.6520 C   0  0  0  0  0  0  0  0  0  0  0  0
  178.9530  181.6710  140.1820 C   0  0  0  0  0  3  0  0  0  0  0  0
  1  9  1  0  0  0  0
  2  7  1  6  0  0  0
  2 24  1  0  0  0  0
  2 14  1  0  0  0  0
  3 23  1  0  0  0  0
  3 18  1  0  0  0  0
  4 14  1  1  0  0  0
  4 16  1  0  0  0  0
  4 31  1  0  0  0  0
  5 28  1  0  0  0  0
  6 28  1  0  0  0  0
  8  6  1  0  0  0  0
  8 19  1  0  0  0  0
 10 22  1  6  0  0  0
 10 19  1  0  0  0  0
 12  1  1  0  0  0  0
 13  8  2  0  0  0  0
 15 11  1  0  0  0  0
 15 24  1  0  0  0  0
 16  3  2  0  0  0  0
 17  5  2  0  0  0  0
 17 10  1  0  0  0  0
 19 12  1  1  0  0  0
 20 21  2  0  0  0  0
 21 15  1  0  0  0  0
 22 19  1  0  0  0  0
 27 21  1  0  0  0  0
 27  7  1  0  0  0  0
 28 25  1  6  0  0  0
 29 27  1  0  0  0  0
 29 17  1  0  0  0  0
 30  9  2  0  0  0  0
 30 26  1  0  0  0  0
 31 26  1  1  0  0  0
 31 23  1  0  0  0  0
 32 18  1  0  0  0  0
 33 32  3  0  0  0  0
M  END
>  <MODEL>
3

>  <REMARK>
 VINA RESULT:      -5.3      3.248      8.319
  Name = 
  1 active torsions:
  status: ('A' for Active; 'I' for Inactive)
    1  A    between atoms: C_4  and  N_19
                            x       y       z     vdW  Elec       q    Type
                         _______ _______ _______ _____ _____    ______ ____

>  <TORSDO>
F 1

$$$$
=
 OpenBabel11042409503D

 33 37  0  0  1  0  0  0  0  0999 V2000
  182.3900  178.9120  141.1370 C   0  0  0  0  0  2  0  0  0  0  0  0
  187.0520  177.6300  138.1770 C   0  0  1  0  0  3  0  0  0  0  0  0
  189.0580  178.2880  142.0910 C   0  0  0  0  0  0  0  0  0  0  0  0
  187.5850  177.4840  140.6670 C   0  0  1  0  0  3  0  0  0  0  0  0
  182.5170  177.6710  136.7040 C   0  0  0  0  0  3  0  0  0  0  0  0
  180.3310  178.0010  137.8120 C   0  0  0  0  0  2  0  0  0  0  0  0
  186.4120  176.2990  137.7920 C   0  0  0  0  0  2  0  0  0  0  0  0
  180.6070  177.0070  138.9070 C   0  0  0  0  0  0  0  0  0  0  0  0
  183.7210  179.0050  141.8040 C   0  0  0  0  0  3  0  0  0  0  0  0
  183.2240  176.8560  138.9640 C   0  0  1  0  0  3  0  0  0  0  0  0
  187.1810  179.1800  134.8040 O   0  0  0  0  0  1  0  0  0  0  0  0
  181.9510  177.4570  141.0820 C   0  0  0  0  0  2  0  0  0  0  0  0
  179.7190  176.2360  139.2330 O   0  0  0  0  0  0  0  0  0  0  0  0
  188.1090  177.3900  139.2370 C   0  0  0  0  0  2  0  0  0  0  0  0
  186.8560  178.3330  135.8100 N   0  0  0  0  0  0  0  0  0  0  0  0
  188.7030  177.1780  141.5580 N   0  0  0  0  0  0  0  0  0  0  0  0
  183.2010  176.7950  137.4570 C   0  0  0  0  0  0  0  0  0  0  0  0
  190.1590  178.4270  142.9900 N   0  0  0  0  0  2  0  0  0  0  0  0
  181.9220  176.9660  139.6460 C   0  0  1  0  0  0  0  0  0  0  0  0
  185.0710  177.4430  134.5940 O   0  0  0  0  0  0  0  0  0  0  0  0
  185.7730  177.4110  135.6420 C   0  0  0  0  0  0  0  0  0  0  0  0
  182.5720  175.6540  139.5190 N   0  0  0  0  0  2  0  0  0  0  0  0
  188.2450  179.3280  141.7190 O   0  0  0  0  0  0  0  0  0  0  0  0
  187.7570  178.2180  136.9530 C   0  0  0  0  0  2  0  0  0  0  0  0
  181.2070  179.6960  136.2310 C   0  0  0  0  0  1  0  0  0  0  0  0
  186.0530  178.8310  141.8750 C   0  0  0  0  0  2  0  0  0  0  0  0
  185.4680  176.4820  136.6920 N   0  0  0  0  0  0  0  0  0  0  0  0
  181.5890  178.6880  137.2940 C   0  0  2  0  0  3  0  0  0  0  0  0
  184.1510  175.8640  136.7760 C   0  0  0  0  0  2  0  0  0  0  0  0
  184.8080  178.7770  141.1610 N   0  0  0  0  0  0  0  0  0  0  0  0
  187.1870  178.8790  140.9590 N   0  0  2  0  0  0  0  0  0  0  0  0
  190.9770  177.3420  143.3360 C   0  0  0  0  0  0  0  0  0  0  0  0
  191.6800  176.4080  143.6340 C   0  0  0  0  0  3  0  0  0  0  0  0
  1  9  1  0  0  0  0
  2 24  1  6  0  0  0
  2 14  1  0  0  0  0
  3 18  1  0  0  0  0
  4 14  1  6  0  0  0
  4 31  1  0  0  0  0
  4 16  1  0  0  0  0
  5 28  1  0  0  0  0
  5 17  2  0  0  0  0
  6  8  1  0  0  0  0
  7  2  1  0  0  0  0
  8 13  2  0  0  0  0
  8 19  1  0  0  0  0
 10 17  1  6  0  0  0
 10 22  1  0  0  0  0
 10 19  1  0  0  0  0
 11 15  1  0  0  0  0
 12  1  1  0  0  0  0
 15 24  1  0  0  0  0
 16  3  2  0  0  0  0
 18 32  1  0  0  0  0
 19 12  1  1  0  0  0
 20 21  2  0  0  0  0
 21 15  1  0  0  0  0
 21 27  1  0  0  0  0
 22 19  1  0  0  0  0
 23  3  1  0  0  0  0
 27 29  1  0  0  0  0
 27  7  1  0  0  0  0
 28 25  1  6  0  0  0
 28  6  1  0  0  0  0
 29 17  1  0  0  0  0
 30  9  2  0  0  0  0
 30 26  1  0  0  0  0
 31 23  1  0  0  0  0
 31 26  1  1  0  0  0
 32 33  3  0  0  0  0
M  END
>  <MODEL>
4

>  <REMARK>
 VINA RESULT:      -4.9      3.690      5.824
  Name = 
  1 active torsions:
  status: ('A' for Active; 'I' for Inactive)
    1  A    between atoms: C_4  and  N_19
                            x       y       z     vdW  Elec       q    Type
                         _______ _______ _______ _____ _____    ______ ____

>  <TORSDO>
F 1

$$$$
=
 OpenBabel11042409503D

 33 37  0  0  1  0  0  0  0  0999 V2000
  187.5740  177.1780  145.0720 C   0  0  0  0  0  2  0  0  0  0  0  0
  187.7490  177.5770  139.4190 C   0  0  1  0  0  3  0  0  0  0  0  0
  183.6100  179.1160  139.9440 C   0  0  0  0  0  0  0  0  0  0  0  0
  185.7770  178.9430  140.2860 C   0  0  1  0  0  3  0  0  0  0  0  0
  191.2030  176.2080  142.4080 C   0  0  0  0  0  3  0  0  0  0  0  0
  191.4440  176.1260  144.8670 C   0  0  0  0  0  2  0  0  0  0  0  0
  188.9820  178.4680  139.5440 C   0  0  0  0  0  2  0  0  0  0  0  0
  190.9870  177.5440  145.0740 C   0  0  0  0  0  0  0  0  0  0  0  0
  186.3460  177.5980  144.3350 C   0  0  0  0  0  3  0  0  0  0  0  0
  189.6110  178.0750  142.9050 C   0  0  1  0  0  3  0  0  0  0  0  0
  189.3350  174.6670  137.7420 O   0  0  0  0  0  1  0  0  0  0  0  0
  188.5240  178.3590  145.1870 C   0  0  0  0  0  2  0  0  0  0  0  0
  191.5920  178.2430  145.8700 O   0  0  0  0  0  0  0  0  0  0  0  0
  186.5470  178.4320  139.0710 C   0  0  0  0  0  2  0  0  0  0  0  0
  189.1940  175.8300  138.4220 N   0  0  0  0  0  0  0  0  0  0  0  0
  184.6920  179.7860  139.7870 N   0  0  0  0  0  0  0  0  0  0  0  0
  190.7130  177.4210  142.1100 C   0  0  0  0  0  0  0  0  0  0  0  0
  182.3220  179.5720  139.5300 N   0  0  0  0  0  2  0  0  0  0  0  0
  189.7790  178.1120  144.3690 C   0  0  1  0  0  0  0  0  0  0  0  0
  191.4230  175.7850  139.1210 O   0  0  0  0  0  0  0  0  0  0  0  0
  190.3230  176.4020  139.0940 C   0  0  0  0  0  0  0  0  0  0  0  0
  190.1280  179.2900  143.5640 N   0  0  0  0  0  2  0  0  0  0  0  0
  183.8260  177.9200  140.5770 O   0  0  0  0  0  0  0  0  0  0  0  0
  187.9590  176.5920  138.2670 C   0  0  0  0  0  2  0  0  0  0  0  0
  191.2990  174.0330  143.5490 C   0  0  0  0  0  1  0  0  0  0  0  0
  185.1240  178.1150  142.4080 C   0  0  0  0  0  2  0  0  0  0  0  0
  190.1790  177.6600  139.7690 N   0  0  0  0  0  0  0  0  0  0  0  0
  190.8140  175.4630  143.6480 C   0  0  2  0  0  3  0  0  0  0  0  0
  191.1130  178.0510  140.8150 C   0  0  0  0  0  2  0  0  0  0  0  0
  186.3210  177.6500  143.0540 N   0  0  0  0  0  0  0  0  0  0  0  0
  185.1370  177.8050  140.9820 N   0  0  2  0  0  0  0  0  0  0  0  0
  182.1420  180.7970  138.8710 C   0  0  0  0  0  0  0  0  0  0  0  0
  181.9860  181.8500  138.3050 C   0  0  0  0  0  3  0  0  0  0  0  0
  1 12  1  0  0  0  0
  2 24  1  6  0  0  0
  2  7  1  0  0  0  0
  3 23  1  0  0  0  0
  4 14  1  6  0  0  0
  4 31  1  0  0  0  0
  5 28  1  0  0  0  0
  6  8  1  0  0  0  0
  7 27  1  0  0  0  0
  8 13  2  0  0  0  0
  9  1  1  0  0  0  0
 10 17  1  6  0  0  0
 10 22  1  0  0  0  0
 10 19  1  0  0  0  0
 11 15  1  0  0  0  0
 14  2  1  0  0  0  0
 15 21  1  0  0  0  0
 16  3  2  0  0  0  0
 16  4  1  0  0  0  0
 17  5  2  0  0  0  0
 18  3  1  0  0  0  0
 19  8  1  0  0  0  0
 19 12  1  1  0  0  0
 21 20  2  0  0  0  0
 21 27  1  0  0  0  0
 22 19  1  0  0  0  0
 23 31  1  0  0  0  0
 24 15  1  0  0  0  0
 26 30  1  0  0  0  0
 27 29  1  0  0  0  0
 28 25  1  6  0  0  0
 28  6  1  0  0  0  0
 29 17  1  0  0  0  0
 30  9  2  0  0  0  0
 31 26  1  1  0  0  0
 32 18  1  0  0  0  0
 33 32  3  0  0  0  0
M  END
>  <MODEL>
5

>  <REMARK>
 VINA RESULT:      -4.7      3.624      8.939
  Name = 
  1 active torsions:
  status: ('A' for Active; 'I' for Inactive)
    1  A    between atoms: C_4  and  N_19
                            x       y       z     vdW  Elec       q    Type
                         _______ _______ _______ _____ _____    ______ ____

>  <TORSDO>
F 1

$$$$
=
 OpenBabel11042409503D

 33 37  0  0  1  0  0  0  0  0999 V2000
  184.1160  173.3420  136.5570 C   0  0  0  0  0  2  0  0  0  0  0  0
  187.3970  177.5100  138.5600 C   0  0  1  0  0  3  0  0  0  0  0  0
  190.6500  175.0870  136.7350 C   0  0  0  0  0  0  0  0  0  0  0  0
  188.7280  176.1520  136.8590 C   0  0  1  0  0  3  0  0  0  0  0  0
  182.6470  177.1270  138.7310 C   0  0  0  0  0  3  0  0  0  0  0  0
  180.9950  175.5450  137.7920 C   0  0  0  0  0  2  0  0  0  0  0  0
  186.5690  178.5130  137.7620 C   0  0  0  0  0  2  0  0  0  0  0  0
  181.5500  175.6150  136.3960 C   0  0  0  0  0  0  0  0  0  0  0  0
  185.5980  173.2290  136.4210 C   0  0  0  0  0  3  0  0  0  0  0  0
  184.0140  176.4410  136.7480 C   0  0  1  0  0  3  0  0  0  0  0  0
  186.4930  178.6410  141.9800 O   0  0  0  0  0  1  0  0  0  0  0  0
  183.5790  174.2770  135.4850 C   0  0  0  0  0  2  0  0  0  0  0  0
  180.7700  175.6920  135.4610 O   0  0  0  0  0  0  0  0  0  0  0  0
  188.7290  177.2970  137.8680 C   0  0  0  0  0  2  0  0  0  0  0  0
  186.4660  178.4920  140.6340 N   0  0  0  0  0  0  0  0  0  0  0  0
  190.0550  176.1130  136.2470 N   0  0  0  0  0  0  0  0  0  0  0  0
  183.4790  177.4540  137.7300 C   0  0  0  0  0  0  0  0  0  0  0  0
  191.9970  174.7250  136.4290 N   0  0  0  0  0  2  0  0  0  0  0  0
  183.0300  175.5450  136.1130 C   0  0  1  0  0  0  0  0  0  0  0  0
  184.3150  179.3930  140.4970 O   0  0  0  0  0  0  0  0  0  0  0  0
  185.3250  178.9380  139.8920 C   0  0  0  0  0  0  0  0  0  0  0  0
  183.5010  176.7390  135.3970 N   0  0  0  0  0  2  0  0  0  0  0  0
  189.8380  174.3620  137.5680 O   0  0  0  0  0  0  0  0  0  0  0  0
  187.6880  178.0920  139.9440 C   0  0  0  0  0  2  0  0  0  0  0  0
  181.4080  175.6290  140.2340 C   0  0  0  0  0  1  0  0  0  0  0  0
  187.7970  173.9780  136.6930 C   0  0  0  0  0  2  0  0  0  0  0  0
  185.3250  178.8240  138.4620 N   0  0  0  0  0  0  0  0  0  0  0  0
  182.0500  175.7600  138.8700 C   0  0  2  0  0  3  0  0  0  0  0  0
  184.0720  178.8250  137.7180 C   0  0  0  0  0  2  0  0  0  0  0  0
  186.3830  174.1200  136.9060 N   0  0  0  0  0  0  0  0  0  0  0  0
  188.5560  174.8650  137.5690 N   0  0  2  0  0  0  0  0  0  0  0  0
  192.8020  175.5010  135.5820 C   0  0  0  0  0  0  0  0  0  0  0  0
  193.4950  176.1690  134.8560 C   0  0  0  0  0  3  0  0  0  0  0  0
  2  7  1  6  0  0  0
  2 24  1  0  0  0  0
  3 23  1  0  0  0  0
  4 31  1  0  0  0  0
  4 14  1  1  0  0  0
  5 28  1  0  0  0  0
  6 28  1  0  0  0  0
  7 27  1  0  0  0  0
  8  6  1  0  0  0  0
  9  1  1  0  0  0  0
  9 30  2  0  0  0  0
 10 22  1  6  0  0  0
 10 17  1  0  0  0  0
 12  1  1  0  0  0  0
 13  8  2  0  0  0  0
 14  2  1  0  0  0  0
 15 11  1  0  0  0  0
 16  3  2  0  0  0  0
 16  4  1  0  0  0  0
 17  5  2  0  0  0  0
 18  3  1  0  0  0  0
 19 12  1  6  0  0  0
 19  8  1  0  0  0  0
 19 10  1  0  0  0  0
 21 20  2  0  0  0  0
 21 15  1  0  0  0  0
 22 19  1  0  0  0  0
 23 31  1  0  0  0  0
 24 15  1  0  0  0  0
 26 30  1  0  0  0  0
 27 21  1  0  0  0  0
 28 25  1  1  0  0  0
 29 17  1  0  0  0  0
 29 27  1  0  0  0  0
 31 26  1  6  0  0  0
 32 18  1  0  0  0  0
 33 32  3  0  0  0  0
M  END
>  <MODEL>
6

>  <REMARK>
 VINA RESULT:      -4.7      1.509      1.779
  Name = 
  1 active torsions:
  status: ('A' for Active; 'I' for Inactive)
    1  A    between atoms: C_4  and  N_19
                            x       y       z     vdW  Elec       q    Type
                         _______ _______ _______ _____ _____    ______ ____

>  <TORSDO>
F 1

$$$$
=
 OpenBabel11042409503D

 33 37  0  0  1  0  0  0  0  0999 V2000
  189.9800  176.2820  139.9780 C   0  0  0  0  0  2  0  0  0  0  0  0
  184.7410  177.8780  141.4420 C   0  0  1  0  0  3  0  0  0  0  0  0
  186.5160  178.0370  145.5170 C   0  0  0  0  0  0  0  0  0  0  0  0
  186.3370  178.4180  143.3560 C   0  0  1  0  0  3  0  0  0  0  0  0
  186.4570  176.9560  137.0900 C   0  0  0  0  0  3  0  0  0  0  0  0
  188.6950  176.4370  136.1770 C   0  0  0  0  0  2  0  0  0  0  0  0
  184.8430  179.0360  140.4520 C   0  0  0  0  0  2  0  0  0  0  0  0
  189.3700  177.5920  136.8650 C   0  0  0  0  0  0  0  0  0  0  0  0
  189.6580  176.4800  141.4210 C   0  0  0  0  0  3  0  0  0  0  0  0
  187.7630  178.1490  138.8610 C   0  0  1  0  0  3  0  0  0  0  0  0
  182.0440  175.9510  139.7650 O   0  0  0  0  0  1  0  0  0  0  0  0
  190.2110  177.6330  139.3200 C   0  0  0  0  0  2  0  0  0  0  0  0
  190.1800  178.2530  136.2370 O   0  0  0  0  0  0  0  0  0  0  0  0
  184.8970  178.4100  142.8530 C   0  0  0  0  0  2  0  0  0  0  0  0
  183.0280  176.8590  139.9710 N   0  0  0  0  0  0  0  0  0  0  0  0
  186.3240  179.0030  144.6970 N   0  0  0  0  0  0  0  0  0  0  0  0
  186.6080  178.0140  137.9010 C   0  0  0  0  0  0  0  0  0  0  0  0
  186.5190  178.1840  146.9370 N   0  0  0  0  0  2  0  0  0  0  0  0
  189.1140  177.9280  138.3130 C   0  0  1  0  0  0  0  0  0  0  0  0
  183.2070  177.3030  137.6850 O   0  0  0  0  0  0  0  0  0  0  0  0
  183.5790  177.5750  138.8600 C   0  0  0  0  0  0  0  0  0  0  0  0
  188.6030  179.2970  138.4690 N   0  0  0  0  0  2  0  0  0  0  0  0
  186.7400  176.8460  144.8750 O   0  0  0  0  0  0  0  0  0  0  0  0
  183.3480  177.2550  141.3400 C   0  0  0  0  0  2  0  0  0  0  0  0
  186.9180  174.7100  136.2040 C   0  0  0  0  0  1  0  0  0  0  0  0
  188.2430  177.0170  143.2050 C   0  0  0  0  0  2  0  0  0  0  0  0
  184.5850  178.5720  139.0910 N   0  0  0  0  0  0  0  0  0  0  0  0
  187.5010  175.8910  136.9500 C   0  0  2  0  0  3  0  0  0  0  0  0
  185.4790  178.9860  138.0180 C   0  0  0  0  0  2  0  0  0  0  0  0
  188.4740  176.7880  141.8050 N   0  0  0  0  0  0  0  0  0  0  0  0
  186.8170  177.0270  143.5120 N   0  0  2  0  0  0  0  0  0  0  0  0
  186.2700  179.4160  147.5580 C   0  0  0  0  0  0  0  0  0  0  0  0
  186.0560  180.4760  148.0920 C   0  0  0  0  0  3  0  0  0  0  0  0
  1  9  1  0  0  0  0
  2  7  1  6  0  0  0
  2 14  1  0  0  0  0
  3 18  1  0  0  0  0
  4 14  1  1  0  0  0
  4 31  1  0  0  0  0
  4 16  1  0  0  0  0
  5 17  2  0  0  0  0
  6  8  1  0  0  0  0
  6 28  1  0  0  0  0
  8 19  1  0  0  0  0
  9 30  2  0  0  0  0
 10 17  1  6  0  0  0
 11 15  1  0  0  0  0
 12  1  1  0  0  0  0
 13  8  2  0  0  0  0
 15 24  1  0  0  0  0
 16  3  2  0  0  0  0
 17 29  1  0  0  0  0
 18 32  1  0  0  0  0
 19 22  1  0  0  0  0
 19 10  1  0  0  0  0
 19 12  1  1  0  0  0
 20 21  2  0  0  0  0
 21 27  1  0  0  0  0
 21 15  1  0  0  0  0
 22 10  1  0  0  0  0
 23  3  1  0  0  0  0
 24  2  1  0  0  0  0
 27  7  1  0  0  0  0
 28 25  1  6  0  0  0
 28  5  1  0  0  0  0
 29 27  1  0  0  0  0
 30 26  1  0  0  0  0
 31 26  1  1  0  0  0
 31 23  1  0  0  0  0
 32 33  3  0  0  0  0
M  END
>  <MODEL>
7

>  <REMARK>
 VINA RESULT:      -4.5      3.498      7.373
  Name = 
  1 active torsions:
  status: ('A' for Active; 'I' for Inactive)
    1  A    between atoms: C_4  and  N_19
                            x       y       z     vdW  Elec       q    Type
                         _______ _______ _______ _____ _____    ______ ____

>  <TORSDO>
F 1

$$$$
=
 OpenBabel11042409503D

 33 37  0  0  1  0  0  0  0  0999 V2000
  184.1480  179.7080  139.1450 C   0  0  0  0  0  2  0  0  0  0  0  0
  182.9520  174.8660  136.4500 C   0  0  1  0  0  3  0  0  0  0  0  0
  187.2700  175.0230  135.3950 C   0  0  0  0  0  0  0  0  0  0  0  0
  185.4830  175.0840  136.6790 C   0  0  1  0  0  3  0  0  0  0  0  0
  180.0710  177.5660  139.1230 C   0  0  0  0  0  3  0  0  0  0  0  0
  180.3810  179.5740  140.5300 C   0  0  0  0  0  2  0  0  0  0  0  0
  182.4460  174.2850  137.7670 C   0  0  0  0  0  2  0  0  0  0  0  0
  181.5540  179.0080  141.2820 C   0  0  0  0  0  0  0  0  0  0  0  0
  185.2100  179.0510  138.3290 C   0  0  0  0  0  3  0  0  0  0  0  0
  182.4760  177.1460  139.6810 C   0  0  1  0  0  3  0  0  0  0  0  0
  179.7360  174.9170  134.5940 O   0  0  0  0  0  1  0  0  0  0  0  0
  184.0240  178.9960  140.4830 C   0  0  0  0  0  2  0  0  0  0  0  0
  181.6080  179.1710  142.4890 O   0  0  0  0  0  0  0  0  0  0  0  0
  184.3120  174.2740  136.1310 C   0  0  0  0  0  2  0  0  0  0  0  0
  180.6210  174.8330  135.6160 N   0  0  0  0  0  0  0  0  0  0  0  0
  186.7070  174.3600  136.3370 N   0  0  0  0  0  0  0  0  0  0  0  0
  181.0490  176.7090  139.4540 C   0  0  0  0  0  0  0  0  0  0  0  0
  188.4720  174.6160  134.7410 N   0  0  0  0  0  2  0  0  0  0  0  0
  182.6850  178.2890  140.5870 C   0  0  1  0  0  0  0  0  0  0  0  0
  178.9320  175.1030  137.2070 O   0  0  0  0  0  0  0  0  0  0  0  0
  180.1530  174.8920  136.9680 C   0  0  0  0  0  0  0  0  0  0  0  0
  182.8450  176.9190  141.0920 N   0  0  0  0  0  2  0  0  0  0  0  0
  186.6000  176.1820  135.1010 O   0  0  0  0  0  0  0  0  0  0  0  0
  182.0010  174.4560  135.3250 C   0  0  0  0  0  2  0  0  0  0  0  0
  179.0920  179.7070  138.4180 C   0  0  0  0  0  1  0  0  0  0  0  0
  186.0520  177.3710  136.9350 C   0  0  0  0  0  2  0  0  0  0  0  0
  181.0890  174.7500  138.0460 N   0  0  0  0  0  0  0  0  0  0  0  0
  180.2700  179.0500  139.1040 C   0  0  2  0  0  3  0  0  0  0  0  0
  180.7670  175.2440  139.3780 C   0  0  0  0  0  2  0  0  0  0  0  0
  184.9710  177.9840  137.6580 N   0  0  0  0  0  0  0  0  0  0  0  0
  185.5580  176.3850  135.9790 N   0  0  2  0  0  0  0  0  0  0  0  0
  189.1230  173.4150  135.0590 C   0  0  0  0  0  0  0  0  0  0  0  0
  189.6830  172.3830  135.3320 C   0  0  0  0  0  3  0  0  0  0  0  0
  1 12  1  0  0  0  0
  2 24  1  6  0  0  0
  2  7  1  0  0  0  0
  3 16  2  0  0  0  0
  4 14  1  6  0  0  0
  5 17  2  0  0  0  0
  6  8  1  0  0  0  0
  7 27  1  0  0  0  0
  8 13  2  0  0  0  0
  9  1  1  0  0  0  0
 10 17  1  1  0  0  0
 10 19  1  0  0  0  0
 10 22  1  0  0  0  0
 11 15  1  0  0  0  0
 14  2  1  0  0  0  0
 15 21  1  0  0  0  0
 16  4  1  0  0  0  0
 18 32  1  0  0  0  0
 18  3  1  0  0  0  0
 19 12  1  6  0  0  0
 19 22  1  0  0  0  0
 19  8  1  0  0  0  0
 21 20  2  0  0  0  0
 21 27  1  0  0  0  0
 23  3  1  0  0  0  0
 23 31  1  0  0  0  0
 24 15  1  0  0  0  0
 26 30  1  0  0  0  0
 27 29  1  0  0  0  0
 28 25  1  1  0  0  0
 28  5  1  0  0  0  0
 28  6  1  0  0  0  0
 29 17  1  0  0  0  0
 30  9  2  0  0  0  0
 31  4  1  0  0  0  0
 31 26  1  1  0  0  0
 32 33  3  0  0  0  0
M  END
>  <MODEL>
8

>  <REMARK>
 VINA RESULT:      -4.0      3.428      6.679
  Name = 
  1 active torsions:
  status: ('A' for Active; 'I' for Inactive)
    1  A    between atoms: C_4  and  N_19
                            x       y       z     vdW  Elec       q    Type
                         _______ _______ _______ _____ _____    ______ ____

>  <TORSDO>
F 1

$$$$
=
 OpenBabel11042409503D

 33 37  0  0  1  0  0  0  0  0999 V2000
  184.6870  175.7260  136.5850 C   0  0  0  0  0  2  0  0  0  0  0  0
  188.5010  177.1620  140.5260 C   0  0  1  0  0  3  0  0  0  0  0  0
  191.3770  175.5050  137.5650 C   0  0  0  0  0  0  0  0  0  0  0  0
  189.7100  176.7270  138.3220 C   0  0  1  0  0  3  0  0  0  0  0  0
  183.7850  177.8590  140.5650 C   0  0  0  0  0  3  0  0  0  0  0  0
  181.9610  177.5090  138.9330 C   0  0  0  0  0  2  0  0  0  0  0  0
  187.9890  178.5990  140.4630 C   0  0  0  0  0  2  0  0  0  0  0  0
  182.6720  178.2180  137.8130 C   0  0  0  0  0  0  0  0  0  0  0  0
  186.1210  175.3690  136.3720 C   0  0  0  0  0  3  0  0  0  0  0  0
  185.1970  178.1080  138.5120 C   0  0  1  0  0  3  0  0  0  0  0  0
  187.4690  176.3560  144.0010 O   0  0  0  0  0  1  0  0  0  0  0  0
  184.4750  177.1940  136.2520 C   0  0  0  0  0  2  0  0  0  0  0  0
  182.0340  178.9820  137.1080 O   0  0  0  0  0  0  0  0  0  0  0  0
  189.8320  177.0730  139.8040 C   0  0  0  0  0  2  0  0  0  0  0  0
  187.5630  176.9980  142.8120 N   0  0  0  0  0  0  0  0  0  0  0  0
  191.0620  176.7320  137.7650 N   0  0  0  0  0  0  0  0  0  0  0  0
  184.7720  178.4880  139.9090 C   0  0  0  0  0  0  0  0  0  0  0  0
  192.6470  175.0770  137.0740 N   0  0  0  0  0  2  0  0  0  0  0  0
  184.1290  177.9780  137.5040 C   0  0  1  0  0  0  0  0  0  0  0  0
  185.6700  178.2890  143.2660 O   0  0  0  0  0  0  0  0  0  0  0  0
  186.6270  178.0320  142.4850 C   0  0  0  0  0  0  0  0  0  0  0  0
  184.9100  179.2200  137.5860 N   0  0  0  0  0  2  0  0  0  0  0  0
  190.3460  174.6490  137.8550 O   0  0  0  0  0  0  0  0  0  0  0  0
  188.7480  176.7830  141.9870 C   0  0  0  0  0  2  0  0  0  0  0  0
  182.1050  176.1120  140.9750 C   0  0  0  0  0  1  0  0  0  0  0  0
  188.3820  175.3050  136.9690 C   0  0  0  0  0  2  0  0  0  0  0  0
  186.7640  178.7420  141.2460 N   0  0  0  0  0  0  0  0  0  0  0  0
  182.9100  176.8320  139.9150 C   0  0  2  0  0  3  0  0  0  0  0  0
  185.6300  179.4480  140.6670 C   0  0  0  0  0  2  0  0  0  0  0  0
  187.0110  175.6250  137.2590 N   0  0  0  0  0  0  0  0  0  0  0  0
  189.2010  175.3450  138.1750 N   0  0  2  0  0  0  0  0  0  0  0  0
  193.6840  175.9830  136.8020 C   0  0  0  0  0  0  0  0  0  0  0  0
  194.5750  176.7610  136.5690 C   0  0  0  0  0  3  0  0  0  0  0  0
  2 14  1  6  0  0  0
  2 24  1  0  0  0  0
  3 16  2  0  0  0  0
  3 23  1  0  0  0  0
  4 14  1  1  0  0  0
  6 28  1  0  0  0  0
  7  2  1  0  0  0  0
  7 27  1  0  0  0  0
  8  6  1  0  0  0  0
  9  1  1  0  0  0  0
  9 30  2  0  0  0  0
 10 22  1  6  0  0  0
 10 17  1  0  0  0  0
 12  1  1  0  0  0  0
 13  8  2  0  0  0  0
 15 11  1  0  0  0  0
 16  4  1  0  0  0  0
 17  5  2  0  0  0  0
 17 29  1  0  0  0  0
 18  3  1  0  0  0  0
 19 12  1  6  0  0  0
 19 22  1  0  0  0  0
 19  8  1  0  0  0  0
 19 10  1  0  0  0  0
 21 15  1  0  0  0  0
 21 20  2  0  0  0  0
 23 31  1  0  0  0  0
 24 15  1  0  0  0  0
 26 30  1  0  0  0  0
 27 21  1  0  0  0  0
 28  5  1  0  0  0  0
 28 25  1  1  0  0  0
 29 27  1  0  0  0  0
 31 26  1  6  0  0  0
 31  4  1  0  0  0  0
 32 18  1  0  0  0  0
 33 32  3  0  0  0  0
M  END
>  <MODEL>
9

>  <REMARK>
 VINA RESULT:      -3.9      1.808      2.380
  Name = 
  1 active torsions:
  status: ('A' for Active; 'I' for Inactive)
    1  A    between atoms: C_4  and  N_19
                            x       y       z     vdW  Elec       q    Type
                         _______ _______ _______ _____ _____    ______ ____

>  <TORSDO>
F 1

$$$$
