=
 OpenBabel11032420413D

 45 51  0  0  1  0  0  0  0  0999 V2000
  188.0870  178.6360  147.3100 O   0  0  0  0  0  0  0  0  0  0  0  0
  189.3270  176.9620  146.0860 C   0  0  2  0  0  3  0  0  0  0  0  0
  190.6350  176.5830  146.2150 C   0  0  2  0  0  3  0  0  0  0  0  0
  187.1450  178.0270  141.7930 O   0  0  0  0  0  0  0  0  0  0  0  0
  185.6280  177.9750  143.6020 C   0  0  0  0  0  3  0  0  0  0  0  0
  186.2470  177.1360  145.8300 C   0  0  0  0  0  1  0  0  0  0  0  0
  190.2980  176.7770  144.1280 C   0  0  0  0  0  0  0  0  0  0  0  0
  189.0860  177.0690  144.7270 C   0  0  0  0  0  0  0  0  0  0  0  0
  190.4940  176.9290  142.7600 C   0  0  0  0  0  3  0  0  0  0  0  0
  191.2440  177.0580  147.4960 C   0  0  0  0  0  3  0  0  0  0  0  0
  189.4190  177.3740  141.9750 C   0  0  0  0  0  0  0  0  0  0  0  0
  185.9130  178.2240  142.2550 C   0  0  0  0  0  0  0  0  0  0  0  0
  191.2700  176.5060  145.0260 N   0  0  0  0  0  2  0  0  0  0  0  0
  190.1930  177.9000  148.0740 N   0  0  0  0  0  0  0  0  0  0  0  0
  189.0760  177.8670  147.1910 C   0  0  0  0  0  0  0  0  0  0  0  0
  186.6460  177.5710  144.4630 C   0  0  0  0  0  0  0  0  0  0  0  0
  187.9600  177.4480  143.9630 C   0  0  0  0  0  0  0  0  0  0  0  0
  188.1570  177.6320  142.5640 C   0  0  2  0  0  3  0  0  0  0  0  0
  182.9170  179.5320  139.5220 C   0  0  0  0  0  0  0  0  0  0  0  0
  185.2030  179.3510  140.1960 N   0  0  0  0  0  0  0  0  0  0  0  0
  182.5330  178.8340  140.6820 C   0  0  0  0  0  0  0  0  0  0  0  0
  181.9090  180.0140  138.5140 C   0  0  0  0  0  2  0  0  0  0  0  0
  184.8590  178.6720  141.3270 C   0  0  0  0  0  0  0  0  0  0  0  0
  180.4930  179.6300  138.8520 C   0  0  0  0  0  0  0  0  0  0  0  0
  181.1180  178.5510  140.9540 C   0  0  0  0  0  3  0  0  0  0  0  0
  184.2730  179.7820  139.3020 C   0  0  0  0  0  3  0  0  0  0  0  0
  180.1640  178.9200  140.0990 C   0  0  0  0  0  3  0  0  0  0  0  0
  183.5070  178.4060  141.5860 C   0  0  0  0  0  3  0  0  0  0  0  0
  179.5680  179.9240  138.0510 O   0  0  0  0  0  0  0  0  0  0  0  0
  189.6210  177.5200  140.5050 C   0  0  0  0  0  2  0  0  0  0  0  0
  190.0710  176.2550  139.9470 N   0  0  0  0  0  2  0  0  0  0  0  0
  190.0450  176.3900  138.4990 C   0  0  2  0  0  3  0  0  0  0  0  0
  191.4120  176.8330  137.9980 C   0  0  0  0  0  1  0  0  0  0  0  0
  188.9100  177.3380  138.0790 C   0  0  2  0  0  3  0  0  0  0  0  0
  186.4510  177.3610  137.6470 C   0  0  0  0  0  3  0  0  0  0  0  0
  187.6490  176.6400  137.6650 C   0  0  0  0  0  0  0  0  0  0  0  0
  186.4540  174.6650  136.9110 C   0  0  0  0  0  3  0  0  0  0  0  0
  187.6450  175.2860  137.2960 C   0  0  0  0  0  3  0  0  0  0  0  0
  185.2600  176.7410  137.2590 C   0  0  0  0  0  3  0  0  0  0  0  0
  185.2520  175.3870  136.8850 C   0  0  0  0  0  0  0  0  0  0  0  0
  184.0340  174.7430  136.4790 N   0  0  0  0  0  0  0  0  0  0  0  0
  183.4300  173.8510  137.3010 O   0  0  0  0  0  1  0  0  0  0  0  0
  183.4440  174.9900  135.1710 C   0  0  0  0  0  1  0  0  0  0  0  0
  188.9600  179.7250  137.6770 O   0  0  0  0  0  1  0  0  0  0  0  0
  189.3210  178.4850  137.1480 C   0  0  0  0  0  2  0  0  0  0  0  0
  2  8  1  6  0  0  0
  2  3  1  0  0  0  0
  2 15  1  0  0  0  0
  3 10  1  1  0  0  0
  4 12  1  0  0  0  0
  5 16  1  0  0  0  0
  7  8  2  0  0  0  0
  7 13  1  0  0  0  0
  9  7  1  0  0  0  0
 10 14  2  0  0  0  0
 11 18  1  0  0  0  0
 11  9  2  0  0  0  0
 12  5  2  0  0  0  0
 13  3  1  0  0  0  0
 15  1  2  0  0  0  0
 15 14  1  0  0  0  0
 16  6  1  0  0  0  0
 17 16  2  0  0  0  0
 17  8  1  0  0  0  0
 18  4  1  6  0  0  0
 18 17  1  0  0  0  0
 19 21  1  0  0  0  0
 20 23  2  0  0  0  0
 21 25  1  0  0  0  0
 21 28  2  0  0  0  0
 22 24  1  0  0  0  0
 22 19  1  0  0  0  0
 23 28  1  0  0  0  0
 23 12  1  0  0  0  0
 24 27  1  0  0  0  0
 26 19  2  0  0  0  0
 26 20  1  0  0  0  0
 27 25  2  0  0  0  0
 29 24  2  0  0  0  0
 30 11  1  0  0  0  0
 31 30  1  0  0  0  0
 32 33  1  1  0  0  0
 32 31  1  0  0  0  0
 34 45  1  6  0  0  0
 34 32  1  0  0  0  0
 35 36  1  0  0  0  0
 36 34  1  0  0  0  0
 37 38  1  0  0  0  0
 38 36  2  0  0  0  0
 39 35  2  0  0  0  0
 40 37  2  0  0  0  0
 40 39  1  0  0  0  0
 41 40  1  0  0  0  0
 41 42  1  0  0  0  0
 43 41  1  0  0  0  0
 45 44  1  0  0  0  0
M  END
>  <MODEL>
1

>  <REMARK>
 VINA RESULT:      -9.8      0.000      0.000
  Name = 
  8 active torsions:
  status: ('A' for Active; 'I' for Inactive)
    1  A    between atoms: C_1  and  C_12
    2  A    between atoms: C_1  and  N_30
    3  A    between atoms: C_9  and  C_12
    4  A    between atoms: C_12  and  C_31
    5  A    between atoms: N_16  and  C_43
    6  A    between atoms: C_17  and  C_28
    7  A    between atoms: C_24  and  C_33
    8  A    between atoms: N_30  and  C_33
                            x       y       z     vdW  Elec       q    Type
                         _______ _______ _______ _____ _____    ______ ____

>  <TORSDO>
F 8

$$$$
=
 OpenBabel11032420413D

 45 51  0  0  1  0  0  0  0  0999 V2000
  191.0350  174.5490  134.7580 O   0  0  0  0  0  0  0  0  0  0  0  0
  192.3550  175.9670  136.2030 C   0  0  2  0  0  3  0  0  0  0  0  0
  193.6030  175.7560  136.7210 C   0  0  2  0  0  3  0  0  0  0  0  0
  188.4580  177.4510  138.8370 O   0  0  0  0  0  0  0  0  0  0  0  0
  188.0250  177.3920  136.5160 C   0  0  0  0  0  3  0  0  0  0  0  0
  189.7960  177.0560  134.8420 C   0  0  0  0  0  1  0  0  0  0  0  0
  192.4290  176.4850  138.3330 C   0  0  0  0  0  0  0  0  0  0  0  0
  191.5830  176.4650  137.2380 C   0  0  2  0  0  3  0  0  0  0  0  0
  191.9670  176.7870  139.6090 C   0  0  0  0  0  3  0  0  0  0  0  0
  194.3330  174.6530  136.0230 C   0  0  0  0  0  3  0  0  0  0  0  0
  190.6090  177.0960  139.7740 C   0  0  0  0  0  0  0  0  0  0  0  0
  187.5920  177.5700  137.8340 C   0  0  0  0  0  0  0  0  0  0  0  0
  193.6650  176.0240  138.0420 N   0  0  0  0  0  2  0  0  0  0  0  0
  193.3260  174.1120  135.1060 N   0  0  0  0  0  0  0  0  0  0  0  0
  192.1380  174.8810  135.2660 C   0  0  0  0  0  0  0  0  0  0  0  0
  189.3490  177.0410  136.2630 C   0  0  0  0  0  0  0  0  0  0  0  0
  190.2270  176.8410  137.3500 C   0  0  0  0  0  0  0  0  0  0  0  0
  189.7380  177.1280  138.6570 C   0  0  0  0  0  0  0  0  0  0  0  0
  183.5670  178.6380  138.7390 C   0  0  0  0  0  0  0  0  0  0  0  0
  185.9060  178.6800  139.2280 N   0  0  0  0  0  0  0  0  0  0  0  0
  183.8320  177.8530  137.6010 C   0  0  0  0  0  0  0  0  0  0  0  0
  182.1690  179.0540  139.1090 C   0  0  0  0  0  2  0  0  0  0  0  0
  186.1910  177.9220  138.1310 C   0  0  0  0  0  0  0  0  0  0  0  0
  181.1260  178.5950  138.1250 C   0  0  0  0  0  0  0  0  0  0  0  0
  182.7390  177.4070  136.7260 C   0  0  0  0  0  3  0  0  0  0  0  0
  184.6330  179.0390  139.5450 C   0  0  0  0  0  3  0  0  0  0  0  0
  181.4760  177.7550  136.9680 C   0  0  0  0  0  3  0  0  0  0  0  0
  185.1460  177.4940  137.2990 C   0  0  0  0  0  3  0  0  0  0  0  0
  179.9270  178.9370  138.2950 O   0  0  0  0  0  0  0  0  0  0  0  0
  190.1150  177.4380  141.1390 C   0  0  0  0  0  2  0  0  0  0  0  0
  191.2470  177.6840  142.0180 N   0  0  0  0  0  2  0  0  0  0  0  0
  190.7190  178.2650  143.2440 C   0  0  2  0  0  3  0  0  0  0  0  0
  191.8210  179.0220  143.9710 C   0  0  0  0  0  1  0  0  0  0  0  0
  190.0660  177.1730  144.1050 C   0  0  2  0  0  3  0  0  0  0  0  0
  188.4750  177.8370  145.9130 C   0  0  0  0  0  3  0  0  0  0  0  0
  188.6780  177.5060  144.5690 C   0  0  0  0  0  0  0  0  0  0  0  0
  186.3070  177.8150  144.1500 C   0  0  0  0  0  3  0  0  0  0  0  0
  187.5860  177.4950  143.6880 C   0  0  0  0  0  3  0  0  0  0  0  0
  187.1960  178.1590  146.3740 C   0  0  0  0  0  3  0  0  0  0  0  0
  186.1000  178.1540  145.4950 C   0  0  0  0  0  0  0  0  0  0  0  0
  184.7830  178.4900  145.9590 N   0  0  0  0  0  0  0  0  0  0  0  0
  184.4680  178.3560  147.2700 O   0  0  0  0  0  1  0  0  0  0  0  0
  183.7440  178.9340  145.0380 C   0  0  0  0  0  1  0  0  0  0  0  0
  191.8690  175.6570  144.6640 O   0  0  0  0  0  1  0  0  0  0  0  0
  190.9590  176.5720  145.1970 C   0  0  0  0  0  2  0  0  0  0  0  0
  1 15  2  0  0  0  0
  2 15  1  1  0  0  0
  2  3  1  0  0  0  0
  2  8  1  0  0  0  0
  3 10  1  1  0  0  0
  3 13  1  0  0  0  0
  5 12  2  0  0  0  0
  6 16  1  0  0  0  0
  7  9  2  0  0  0  0
  8 17  1  1  0  0  0
  8  7  1  0  0  0  0
  9 11  1  0  0  0  0
 11 30  1  0  0  0  0
 12 23  1  0  0  0  0
 12  4  1  0  0  0  0
 13  7  1  0  0  0  0
 14 15  1  0  0  0  0
 14 10  2  0  0  0  0
 16  5  1  0  0  0  0
 16 17  2  0  0  0  0
 17 18  1  0  0  0  0
 18  4  1  0  0  0  0
 18 11  2  0  0  0  0
 19 22  1  0  0  0  0
 19 26  1  0  0  0  0
 20 26  2  0  0  0  0
 21 19  2  0  0  0  0
 23 20  1  0  0  0  0
 24 29  2  0  0  0  0
 24 22  1  0  0  0  0
 25 27  2  0  0  0  0
 25 21  1  0  0  0  0
 27 24  1  0  0  0  0
 28 21  1  0  0  0  0
 28 23  2  0  0  0  0
 30 31  1  0  0  0  0
 31 32  1  0  0  0  0
 32 33  1  1  0  0  0
 32 34  1  0  0  0  0
 34 36  1  0  0  0  0
 34 45  1  1  0  0  0
 35 39  1  0  0  0  0
 36 35  2  0  0  0  0
 37 40  1  0  0  0  0
 38 37  2  0  0  0  0
 38 36  1  0  0  0  0
 40 41  1  0  0  0  0
 40 39  2  0  0  0  0
 41 42  1  0  0  0  0
 43 41  1  0  0  0  0
 44 45  1  0  0  0  0
M  END
>  <MODEL>
2

>  <REMARK>
 VINA RESULT:      -9.6      2.591      7.480
  Name = 
  8 active torsions:
  status: ('A' for Active; 'I' for Inactive)
    1  A    between atoms: C_1  and  C_12
    2  A    between atoms: C_1  and  N_30
    3  A    between atoms: C_9  and  C_12
    4  A    between atoms: C_12  and  C_31
    5  A    between atoms: N_16  and  C_43
    6  A    between atoms: C_17  and  C_28
    7  A    between atoms: C_24  and  C_33
    8  A    between atoms: N_30  and  C_33
                            x       y       z     vdW  Elec       q    Type
                         _______ _______ _______ _____ _____    ______ ____

>  <TORSDO>
F 8

$$$$
=
 OpenBabel11032420413D

 45 51  0  0  1  0  0  0  0  0999 V2000
  187.6480  178.5880  147.4310 O   0  0  0  0  0  0  0  0  0  0  0  0
  189.0760  177.1120  146.1580 C   0  0  2  0  0  3  0  0  0  0  0  0
  190.4050  176.8360  146.3220 C   0  0  2  0  0  3  0  0  0  0  0  0
  186.9810  178.2840  141.8490 O   0  0  0  0  0  0  0  0  0  0  0  0
  185.4040  177.9810  143.5810 C   0  0  0  0  0  3  0  0  0  0  0  0
  186.0040  177.0450  145.7750 C   0  0  0  0  0  1  0  0  0  0  0  0
  190.1350  177.1440  144.2390 C   0  0  0  0  0  0  0  0  0  0  0  0
  188.8790  177.2920  144.8000 C   0  0  0  0  0  0  0  0  0  0  0  0
  190.3710  177.4050  142.8940 C   0  0  0  0  0  3  0  0  0  0  0  0
  190.9190  177.2700  147.6570 C   0  0  0  0  0  3  0  0  0  0  0  0
  189.2940  177.8120  142.0920 C   0  0  0  0  0  0  0  0  0  0  0  0
  185.7200  178.3450  142.2670 C   0  0  0  0  0  0  0  0  0  0  0  0
  191.0900  176.8930  145.1610 N   0  0  0  0  0  2  0  0  0  0  0  0
  189.7770  177.9810  148.2410 N   0  0  0  0  0  0  0  0  0  0  0  0
  188.7030  177.9150  147.3080 C   0  0  0  0  0  0  0  0  0  0  0  0
  186.4180  177.6050  144.4580 C   0  0  0  0  0  0  0  0  0  0  0  0
  187.7570  177.6270  144.0120 C   0  0  0  0  0  0  0  0  0  0  0  0
  187.9920  177.9220  142.6380 C   0  0  2  0  0  3  0  0  0  0  0  0
  182.7320  179.5700  139.4870 C   0  0  0  0  0  0  0  0  0  0  0  0
  185.0190  179.3670  140.1510 N   0  0  0  0  0  0  0  0  0  0  0  0
  182.3410  178.9540  140.6910 C   0  0  0  0  0  0  0  0  0  0  0  0
  181.7270  180.0190  138.4620 C   0  0  0  0  0  2  0  0  0  0  0  0
  184.6680  178.7660  141.3240 C   0  0  0  0  0  0  0  0  0  0  0  0
  180.3040  179.6960  138.8340 C   0  0  0  0  0  0  0  0  0  0  0  0
  180.9210  178.7270  140.9910 C   0  0  0  0  0  3  0  0  0  0  0  0
  184.0910  179.7690  139.2410 C   0  0  0  0  0  3  0  0  0  0  0  0
  179.9690  179.0700  140.1240 C   0  0  0  0  0  3  0  0  0  0  0  0
  183.3120  178.5540  141.6100 C   0  0  0  0  0  3  0  0  0  0  0  0
  179.3790  179.9670  138.0250 O   0  0  0  0  0  0  0  0  0  0  0  0
  189.5410  178.0750  140.6450 C   0  0  0  0  0  2  0  0  0  0  0  0
  188.9410  177.0170  139.8480 N   0  0  0  0  0  2  0  0  0  0  0  0
  189.3570  177.2280  138.4700 C   0  0  2  0  0  3  0  0  0  0  0  0
  188.3070  178.0480  137.7350 C   0  0  0  0  0  1  0  0  0  0  0  0
  189.6520  175.8790  137.7960 C   0  0  2  0  0  3  0  0  0  0  0  0
  192.0470  176.4420  138.2240 C   0  0  0  0  0  3  0  0  0  0  0  0
  191.1070  175.5180  137.7560 C   0  0  0  0  0  0  0  0  0  0  0  0
  192.9070  173.9700  137.2440 C   0  0  0  0  0  3  0  0  0  0  0  0
  191.5440  174.2790  137.2640 C   0  0  0  0  0  3  0  0  0  0  0  0
  193.4090  176.1330  138.2070 C   0  0  0  0  0  3  0  0  0  0  0  0
  193.8510  174.8920  137.7190 C   0  0  0  0  0  0  0  0  0  0  0  0
  195.2500  174.5630  137.7020 N   0  0  0  0  0  0  0  0  0  0  0  0
  196.1220  175.3340  137.0090 O   0  0  0  0  0  1  0  0  0  0  0  0
  195.7590  173.3800  138.3820 C   0  0  0  0  0  1  0  0  0  0  0  0
  187.8000  174.8020  136.6680 O   0  0  0  0  0  1  0  0  0  0  0  0
  188.9110  175.6250  136.4780 C   0  0  0  0  0  2  0  0  0  0  0  0
  2  8  1  6  0  0  0
  2  3  1  0  0  0  0
  2 15  1  0  0  0  0
  3 10  1  1  0  0  0
  4 12  1  0  0  0  0
  5 16  1  0  0  0  0
  7  8  2  0  0  0  0
  7 13  1  0  0  0  0
  9  7  1  0  0  0  0
 10 14  2  0  0  0  0
 11 18  1  0  0  0  0
 11  9  2  0  0  0  0
 12  5  2  0  0  0  0
 13  3  1  0  0  0  0
 15  1  2  0  0  0  0
 15 14  1  0  0  0  0
 16  6  1  0  0  0  0
 17 16  2  0  0  0  0
 17  8  1  0  0  0  0
 18  4  1  6  0  0  0
 18 17  1  0  0  0  0
 19 21  1  0  0  0  0
 20 23  2  0  0  0  0
 21 25  1  0  0  0  0
 21 28  2  0  0  0  0
 22 24  1  0  0  0  0
 22 19  1  0  0  0  0
 23 28  1  0  0  0  0
 23 12  1  0  0  0  0
 24 27  1  0  0  0  0
 26 19  2  0  0  0  0
 26 20  1  0  0  0  0
 27 25  2  0  0  0  0
 29 24  2  0  0  0  0
 30 11  1  0  0  0  0
 31 30  1  0  0  0  0
 32 33  1  6  0  0  0
 32 31  1  0  0  0  0
 34 45  1  6  0  0  0
 34 32  1  0  0  0  0
 36 34  1  0  0  0  0
 36 35  2  0  0  0  0
 37 38  2  0  0  0  0
 37 40  1  0  0  0  0
 38 36  1  0  0  0  0
 39 35  1  0  0  0  0
 40 39  2  0  0  0  0
 41 40  1  0  0  0  0
 41 43  1  0  0  0  0
 42 41  1  0  0  0  0
 45 44  1  0  0  0  0
M  END
>  <MODEL>
3

>  <REMARK>
 VINA RESULT:      -9.4      2.118      4.103
  Name = 
  8 active torsions:
  status: ('A' for Active; 'I' for Inactive)
    1  A    between atoms: C_1  and  C_12
    2  A    between atoms: C_1  and  N_30
    3  A    between atoms: C_9  and  C_12
    4  A    between atoms: C_12  and  C_31
    5  A    between atoms: N_16  and  C_43
    6  A    between atoms: C_17  and  C_28
    7  A    between atoms: C_24  and  C_33
    8  A    between atoms: N_30  and  C_33
                            x       y       z     vdW  Elec       q    Type
                         _______ _______ _______ _____ _____    ______ ____

>  <TORSDO>
F 8

$$$$
=
 OpenBabel11032420413D

 45 51  0  0  1  0  0  0  0  0999 V2000
  181.5380  179.4170  135.7920 O   0  0  0  0  0  0  0  0  0  0  0  0
  181.0620  178.7400  138.0620 C   0  0  2  0  0  3  0  0  0  0  0  0
  180.1140  179.2120  138.9270 C   0  0  2  0  0  3  0  0  0  0  0  0
  185.8180  178.1120  139.2080 O   0  0  0  0  0  0  0  0  0  0  0  0
  185.2710  177.2600  137.0740 C   0  0  0  0  0  3  0  0  0  0  0  0
  182.9510  177.0530  136.2820 C   0  0  0  0  0  1  0  0  0  0  0  0
  181.9050  179.0720  140.0590 C   0  0  0  0  0  0  0  0  0  0  0  0
  182.2310  178.6210  138.7920 C   0  0  2  0  0  3  0  0  0  0  0  0
  182.8690  179.2450  141.0450 C   0  0  0  0  0  3  0  0  0  0  0  0
  179.0570  180.0140  138.2370 C   0  0  0  0  0  3  0  0  0  0  0  0
  184.2030  178.9340  140.7400 C   0  0  0  0  0  0  0  0  0  0  0  0
  186.2140  177.5660  138.0620 C   0  0  0  0  0  0  0  0  0  0  0  0
  180.6170  179.4680  140.1530 N   0  0  0  0  0  2  0  0  0  0  0  0
  179.5500  180.1010  136.8590 N   0  0  0  0  0  0  0  0  0  0  0  0
  180.7730  179.3750  136.7890 C   0  0  0  0  0  0  0  0  0  0  0  0
  183.9290  177.5750  137.2770 C   0  0  0  0  0  0  0  0  0  0  0  0
  183.5480  178.2270  138.4690 C   0  0  0  0  0  0  0  0  0  0  0  0
  184.5490  178.4250  139.4640 C   0  0  0  0  0  0  0  0  0  0  0  0
  190.3350  176.6930  137.4190 C   0  0  0  0  0  0  0  0  0  0  0  0
  188.0870  176.8900  136.6300 N   0  0  0  0  0  0  0  0  0  0  0  0
  189.9040  177.0730  138.7040 C   0  0  0  0  0  0  0  0  0  0  0  0
  191.7760  176.3780  137.1250 C   0  0  0  0  0  2  0  0  0  0  0  0
  187.6430  177.2620  137.8640 C   0  0  0  0  0  0  0  0  0  0  0  0
  192.6850  176.5630  138.3120 C   0  0  0  0  0  0  0  0  0  0  0  0
  190.8580  177.1750  139.8160 C   0  0  0  0  0  3  0  0  0  0  0  0
  189.3950  176.6060  136.3900 C   0  0  0  0  0  3  0  0  0  0  0  0
  192.1570  176.9390  139.6330 C   0  0  0  0  0  3  0  0  0  0  0  0
  188.5550  177.3560  138.9260 C   0  0  0  0  0  3  0  0  0  0  0  0
  193.9230  176.3900  138.1710 O   0  0  0  0  0  0  0  0  0  0  0  0
  185.2360  179.1020  141.8020 C   0  0  0  0  0  2  0  0  0  0  0  0
  184.6280  179.6900  142.9850 N   0  0  0  0  0  2  0  0  0  0  0  0
  184.4900  178.6290  143.9700 C   0  0  2  0  0  3  0  0  0  0  0  0
  183.0760  178.6280  144.5320 C   0  0  0  0  0  1  0  0  0  0  0  0
  185.5720  178.7710  145.0520 C   0  0  2  0  0  3  0  0  0  0  0  0
  187.8630  178.0200  145.7020 C   0  0  0  0  0  3  0  0  0  0  0  0
  186.8580  178.0690  144.7310 C   0  0  0  0  0  0  0  0  0  0  0  0
  188.2790  176.8090  143.2180 C   0  0  0  0  0  3  0  0  0  0  0  0
  187.0710  177.4600  143.4850 C   0  0  0  0  0  3  0  0  0  0  0  0
  189.0690  177.3670  145.4360 C   0  0  0  0  0  3  0  0  0  0  0  0
  189.2860  176.7530  144.1920 C   0  0  0  0  0  0  0  0  0  0  0  0
  190.5210  176.0730  143.9110 N   0  0  0  0  0  0  0  0  0  0  0  0
  190.6140  175.2440  142.8440 O   0  0  0  0  0  1  0  0  0  0  0  0
  191.6810  176.2170  144.7810 C   0  0  0  0  0  1  0  0  0  0  0  0
  185.6010  179.5440  147.3460 O   0  0  0  0  0  1  0  0  0  0  0  0
  185.0920  178.5630  146.4940 C   0  0  0  0  0  2  0  0  0  0  0  0
  1 15  2  0  0  0  0
  2 15  1  6  0  0  0
  2  8  1  0  0  0  0
  2  3  1  0  0  0  0
  3 10  1  6  0  0  0
  3 13  1  0  0  0  0
  4 18  1  0  0  0  0
  5 16  1  0  0  0  0
  5 12  2  0  0  0  0
  6 16  1  0  0  0  0
  7 13  1  0  0  0  0
  7  9  2  0  0  0  0
  8 17  1  6  0  0  0
  8  7  1  0  0  0  0
 11  9  1  0  0  0  0
 11 30  1  0  0  0  0
 12  4  1  0  0  0  0
 14 10  2  0  0  0  0
 15 14  1  0  0  0  0
 16 17  2  0  0  0  0
 17 18  1  0  0  0  0
 18 11  2  0  0  0  0
 19 21  1  0  0  0  0
 20 23  2  0  0  0  0
 21 28  2  0  0  0  0
 21 25  1  0  0  0  0
 22 19  1  0  0  0  0
 22 24  1  0  0  0  0
 23 12  1  0  0  0  0
 23 28  1  0  0  0  0
 24 27  1  0  0  0  0
 26 20  1  0  0  0  0
 26 19  2  0  0  0  0
 27 25  2  0  0  0  0
 29 24  2  0  0  0  0
 30 31  1  0  0  0  0
 31 32  1  0  0  0  0
 32 33  1  1  0  0  0
 32 34  1  0  0  0  0
 34 45  1  1  0  0  0
 36 34  1  0  0  0  0
 36 35  2  0  0  0  0
 37 38  2  0  0  0  0
 37 40  1  0  0  0  0
 38 36  1  0  0  0  0
 39 35  1  0  0  0  0
 40 39  2  0  0  0  0
 41 40  1  0  0  0  0
 41 43  1  0  0  0  0
 42 41  1  0  0  0  0
 45 44  1  0  0  0  0
M  END
>  <MODEL>
4

>  <REMARK>
 VINA RESULT:      -8.8      2.309      9.548
  Name = 
  8 active torsions:
  status: ('A' for Active; 'I' for Inactive)
    1  A    between atoms: C_1  and  C_12
    2  A    between atoms: C_1  and  N_30
    3  A    between atoms: C_9  and  C_12
    4  A    between atoms: C_12  and  C_31
    5  A    between atoms: N_16  and  C_43
    6  A    between atoms: C_17  and  C_28
    7  A    between atoms: C_24  and  C_33
    8  A    between atoms: N_30  and  C_33
                            x       y       z     vdW  Elec       q    Type
                         _______ _______ _______ _____ _____    ______ ____

>  <TORSDO>
F 8

$$$$
=
 OpenBabel11032420413D

 45 51  0  0  1  0  0  0  0  0999 V2000
  187.9850  176.8150  135.2080 O   0  0  0  0  0  0  0  0  0  0  0  0
  187.4550  176.8050  137.5650 C   0  0  2  0  0  3  0  0  0  0  0  0
  186.5830  177.5950  138.2620 C   0  0  2  0  0  3  0  0  0  0  0  0
  192.1080  175.9070  138.9320 O   0  0  0  0  0  0  0  0  0  0  0  0
  191.4350  174.6130  137.0740 C   0  0  0  0  0  3  0  0  0  0  0  0
  189.0980  174.4990  136.3130 C   0  0  0  0  0  1  0  0  0  0  0  0
  188.3560  177.5280  139.4290 C   0  0  0  0  0  0  0  0  0  0  0  0
  188.6080  176.7320  138.3260 C   0  0  2  0  0  3  0  0  0  0  0  0
  189.3450  177.8270  140.3580 C   0  0  0  0  0  3  0  0  0  0  0  0
  185.6270  178.3180  137.3680 C   0  0  0  0  0  3  0  0  0  0  0  0
  190.6260  177.2860  140.1700 C   0  0  0  0  0  0  0  0  0  0  0  0
  192.4200  175.0420  137.9700 C   0  0  0  0  0  0  0  0  0  0  0  0
  187.1280  178.0910  139.3920 N   0  0  0  0  0  2  0  0  0  0  0  0
  186.1100  177.9890  136.0240 N   0  0  0  0  0  0  0  0  0  0  0  0
  187.2320  177.1240  136.1670 C   0  0  0  0  0  0  0  0  0  0  0  0
  190.1450  175.1330  137.1620 C   0  0  0  0  0  0  0  0  0  0  0  0
  189.8620  176.1100  138.1410 C   0  0  0  0  0  0  0  0  0  0  0  0
  190.8910  176.4300  139.0730 C   0  0  0  0  0  0  0  0  0  0  0  0
  196.4240  173.5970  137.7760 C   0  0  0  0  0  0  0  0  0  0  0  0
  194.8310  175.2880  138.3410 N   0  0  0  0  0  0  0  0  0  0  0  0
  195.3760  172.7880  137.2990 C   0  0  0  0  0  0  0  0  0  0  0  0
  197.8580  173.1430  137.7410 C   0  0  0  0  0  2  0  0  0  0  0  0
  193.7970  174.5240  137.8870 C   0  0  0  0  0  0  0  0  0  0  0  0
  198.0320  171.7470  137.2060 C   0  0  0  0  0  0  0  0  0  0  0  0
  195.6500  171.4560  136.7430 C   0  0  0  0  0  3  0  0  0  0  0  0
  196.1210  174.8570  138.2940 C   0  0  0  0  0  3  0  0  0  0  0  0
  196.8890  170.9680  136.7010 C   0  0  0  0  0  3  0  0  0  0  0  0
  194.0620  173.2540  137.3530 C   0  0  0  0  0  3  0  0  0  0  0  0
  199.1800  171.2340  137.1870 O   0  0  0  0  0  0  0  0  0  0  0  0
  191.6850  177.5910  141.1750 C   0  0  0  0  0  2  0  0  0  0  0  0
  191.4250  176.8460  142.3970 N   0  0  0  0  0  2  0  0  0  0  0  0
  190.7010  177.7330  143.2950 C   0  0  2  0  0  3  0  0  0  0  0  0
  191.6220  178.8480  143.7690 C   0  0  0  0  0  1  0  0  0  0  0  0
  190.0840  176.9260  144.4480 C   0  0  2  0  0  3  0  0  0  0  0  0
  187.7260  177.4330  143.8020 C   0  0  0  0  0  3  0  0  0  0  0  0
  188.6900  177.3430  144.8110 C   0  0  0  0  0  0  0  0  0  0  0  0
  187.0250  178.0210  146.4430 C   0  0  0  0  0  3  0  0  0  0  0  0
  188.3330  177.6400  146.1360 C   0  0  0  0  0  3  0  0  0  0  0  0
  186.4170  177.8120  144.1100 C   0  0  0  0  0  3  0  0  0  0  0  0
  186.0530  178.1070  145.4340 C   0  0  0  0  0  0  0  0  0  0  0  0
  184.7080  178.4910  145.7610 N   0  0  0  0  0  0  0  0  0  0  0  0
  184.2340  178.3070  147.0180 O   0  0  0  0  0  1  0  0  0  0  0  0
  183.8090  179.0390  144.7550 C   0  0  0  0  0  1  0  0  0  0  0  0
  192.0530  175.8360  145.3420 O   0  0  0  0  0  1  0  0  0  0  0  0
  191.0000  176.6980  145.6560 C   0  0  0  0  0  2  0  0  0  0  0  0
  1 15  2  0  0  0  0
  2 15  1  6  0  0  0
  2  3  1  0  0  0  0
  2  8  1  0  0  0  0
  3 10  1  6  0  0  0
  3 13  1  0  0  0  0
  4 18  1  0  0  0  0
  5 16  1  0  0  0  0
  5 12  2  0  0  0  0
  6 16  1  0  0  0  0
  7  9  2  0  0  0  0
  8 17  1  6  0  0  0
  8  7  1  0  0  0  0
 11  9  1  0  0  0  0
 11 30  1  0  0  0  0
 12  4  1  0  0  0  0
 13  7  1  0  0  0  0
 14 15  1  0  0  0  0
 14 10  2  0  0  0  0
 16 17  2  0  0  0  0
 17 18  1  0  0  0  0
 18 11  2  0  0  0  0
 19 26  1  0  0  0  0
 21 28  1  0  0  0  0
 21 19  2  0  0  0  0
 22 19  1  0  0  0  0
 23 12  1  0  0  0  0
 23 20  1  0  0  0  0
 24 22  1  0  0  0  0
 25 21  1  0  0  0  0
 26 20  2  0  0  0  0
 27 25  2  0  0  0  0
 27 24  1  0  0  0  0
 28 23  2  0  0  0  0
 29 24  2  0  0  0  0
 30 31  1  0  0  0  0
 31 32  1  0  0  0  0
 32 33  1  1  0  0  0
 32 34  1  0  0  0  0
 34 36  1  0  0  0  0
 34 45  1  1  0  0  0
 35 39  2  0  0  0  0
 35 36  1  0  0  0  0
 36 38  2  0  0  0  0
 38 37  1  0  0  0  0
 39 40  1  0  0  0  0
 40 41  1  0  0  0  0
 40 37  2  0  0  0  0
 41 42  1  0  0  0  0
 43 41  1  0  0  0  0
 44 45  1  0  0  0  0
M  END
>  <MODEL>
5

>  <REMARK>
 VINA RESULT:      -8.7      4.117     10.597
  Name = 
  8 active torsions:
  status: ('A' for Active; 'I' for Inactive)
    1  A    between atoms: C_1  and  C_12
    2  A    between atoms: C_1  and  N_30
    3  A    between atoms: C_9  and  C_12
    4  A    between atoms: C_12  and  C_31
    5  A    between atoms: N_16  and  C_43
    6  A    between atoms: C_17  and  C_28
    7  A    between atoms: C_24  and  C_33
    8  A    between atoms: N_30  and  C_33
                            x       y       z     vdW  Elec       q    Type
                         _______ _______ _______ _____ _____    ______ ____

>  <TORSDO>
F 8

$$$$
=
 OpenBabel11032420413D

 45 51  0  0  1  0  0  0  0  0999 V2000
  188.1020  178.6230  148.0890 O   0  0  0  0  0  0  0  0  0  0  0  0
  189.2360  177.0780  146.6170 C   0  0  2  0  0  3  0  0  0  0  0  0
  190.5700  176.7910  146.5210 C   0  0  2  0  0  3  0  0  0  0  0  0
  186.3210  178.1070  142.7730 O   0  0  0  0  0  0  0  0  0  0  0  0
  185.1240  177.8930  144.7980 C   0  0  0  0  0  3  0  0  0  0  0  0
  186.1500  177.0370  146.8640 C   0  0  0  0  0  1  0  0  0  0  0  0
  189.8870  177.0200  144.5240 C   0  0  0  0  0  0  0  0  0  0  0  0
  188.7710  177.2070  145.3200 C   0  0  0  0  0  0  0  0  0  0  0  0
  189.8480  177.2250  143.1490 C   0  0  0  0  0  3  0  0  0  0  0  0
  191.3450  177.2720  147.7060 C   0  0  0  0  0  3  0  0  0  0  0  0
  188.6330  177.6140  142.5650 C   0  0  0  0  0  0  0  0  0  0  0  0
  185.1700  178.2010  143.4340 C   0  0  0  0  0  0  0  0  0  0  0  0
  191.0070  176.7940  145.2440 N   0  0  0  0  0  2  0  0  0  0  0  0
  190.3480  178.0190  148.4780 N   0  0  0  0  0  0  0  0  0  0  0  0
  189.1080  177.9310  147.7840 C   0  0  0  0  0  0  0  0  0  0  0  0
  186.2930  177.5390  145.4680 C   0  0  0  0  0  0  0  0  0  0  0  0
  187.5140  177.5260  144.7610 C   0  0  0  0  0  0  0  0  0  0  0  0
  187.4680  177.7630  143.3570 C   0  0  2  0  0  3  0  0  0  0  0  0
  181.6210  179.3760  141.3900 C   0  0  0  0  0  0  0  0  0  0  0  0
  182.8250  178.9160  143.4040 N   0  0  0  0  0  0  0  0  0  0  0  0
  182.7700  179.0530  140.6440 C   0  0  0  0  0  0  0  0  0  0  0  0
  180.3390  179.8050  140.7290 C   0  0  0  0  0  2  0  0  0  0  0  0
  183.9520  178.5990  142.7050 C   0  0  0  0  0  0  0  0  0  0  0  0
  180.4390  179.8970  139.2300 C   0  0  0  0  0  0  0  0  0  0  0  0
  182.7560  179.1220  139.1770 C   0  0  0  0  0  3  0  0  0  0  0  0
  181.6750  179.2960  142.7830 C   0  0  0  0  0  3  0  0  0  0  0  0
  181.6690  179.5190  138.5160 C   0  0  0  0  0  3  0  0  0  0  0  0
  183.9360  178.6620  141.3040 C   0  0  0  0  0  3  0  0  0  0  0  0
  179.4480  180.3060  138.5710 O   0  0  0  0  0  0  0  0  0  0  0  0
  188.5840  177.8170  141.0880 C   0  0  0  0  0  2  0  0  0  0  0  0
  189.4180  176.8220  140.4320 N   0  0  0  0  0  2  0  0  0  0  0  0
  189.9060  177.4180  139.1980 C   0  0  2  0  0  3  0  0  0  0  0  0
  189.0550  178.6270  138.8370 C   0  0  0  0  0  1  0  0  0  0  0  0
  189.9550  176.3590  138.0850 C   0  0  2  0  0  3  0  0  0  0  0  0
  192.4380  176.4080  138.3450 C   0  0  0  0  0  3  0  0  0  0  0  0
  191.3020  175.7250  137.9000 C   0  0  0  0  0  0  0  0  0  0  0  0
  192.7130  173.9010  137.1400 C   0  0  0  0  0  3  0  0  0  0  0  0
  191.4450  174.4680  137.2940 C   0  0  0  0  0  3  0  0  0  0  0  0
  193.7060  175.8410  138.1930 C   0  0  0  0  0  3  0  0  0  0  0  0
  193.8550  174.5810  137.5920 C   0  0  0  0  0  0  0  0  0  0  0  0
  195.1540  173.9870  137.4370 N   0  0  0  0  0  0  0  0  0  0  0  0
  195.5510  173.5260  136.2260 O   0  0  0  0  0  1  0  0  0  0  0  0
  196.0530  173.8220  138.5710 C   0  0  0  0  0  1  0  0  0  0  0  0
  188.0690  176.0530  136.5980 O   0  0  0  0  0  1  0  0  0  0  0  0
  189.2650  176.7500  136.7730 C   0  0  0  0  0  2  0  0  0  0  0  0
  2  8  1  6  0  0  0
  2 15  1  0  0  0  0
  3  2  1  0  0  0  0
  3 10  1  1  0  0  0
  4 18  1  0  0  0  0
  4 12  1  0  0  0  0
  5 16  1  0  0  0  0
  7 13  1  0  0  0  0
  7  8  2  0  0  0  0
  9  7  1  0  0  0  0
 10 14  2  0  0  0  0
 11  9  2  0  0  0  0
 12  5  2  0  0  0  0
 13  3  1  0  0  0  0
 15  1  2  0  0  0  0
 15 14  1  0  0  0  0
 16  6  1  0  0  0  0
 17  8  1  0  0  0  0
 17 16  2  0  0  0  0
 18 11  1  6  0  0  0
 18 17  1  0  0  0  0
 19 26  1  0  0  0  0
 21 28  1  0  0  0  0
 21 19  2  0  0  0  0
 22 19  1  0  0  0  0
 23 20  1  0  0  0  0
 23 12  1  0  0  0  0
 24 22  1  0  0  0  0
 25 21  1  0  0  0  0
 26 20  2  0  0  0  0
 27 25  2  0  0  0  0
 27 24  1  0  0  0  0
 28 23  2  0  0  0  0
 29 24  2  0  0  0  0
 30 11  1  0  0  0  0
 31 30  1  0  0  0  0
 32 33  1  6  0  0  0
 32 31  1  0  0  0  0
 34 45  1  6  0  0  0
 34 32  1  0  0  0  0
 36 34  1  0  0  0  0
 36 35  2  0  0  0  0
 37 38  2  0  0  0  0
 37 40  1  0  0  0  0
 38 36  1  0  0  0  0
 39 35  1  0  0  0  0
 40 39  2  0  0  0  0
 41 40  1  0  0  0  0
 41 43  1  0  0  0  0
 42 41  1  0  0  0  0
 44 45  1  0  0  0  0
M  END
>  <MODEL>
6

>  <REMARK>
 VINA RESULT:      -8.5      2.355      4.245
  Name = 
  8 active torsions:
  status: ('A' for Active; 'I' for Inactive)
    1  A    between atoms: C_1  and  C_12
    2  A    between atoms: C_1  and  N_30
    3  A    between atoms: C_9  and  C_12
    4  A    between atoms: C_12  and  C_31
    5  A    between atoms: N_16  and  C_43
    6  A    between atoms: C_17  and  C_28
    7  A    between atoms: C_24  and  C_33
    8  A    between atoms: N_30  and  C_33
                            x       y       z     vdW  Elec       q    Type
                         _______ _______ _______ _____ _____    ______ ____

>  <TORSDO>
F 8

$$$$
=
 OpenBabel11032420413D

 45 51  0  0  1  0  0  0  0  0999 V2000
  180.5230  181.1670  138.9770 O   0  0  0  0  0  0  0  0  0  0  0  0
  180.5500  179.6270  140.8390 C   0  0  2  0  0  3  0  0  0  0  0  0
  179.9820  179.7520  142.0770 C   0  0  2  0  0  3  0  0  0  0  0  0
  185.2150  178.2420  140.0390 O   0  0  0  0  0  0  0  0  0  0  0  0
  183.9580  178.4150  138.0470 C   0  0  0  0  0  3  0  0  0  0  0  0
  181.5180  178.7260  138.0400 C   0  0  0  0  0  1  0  0  0  0  0  0
  181.9460  179.0210  142.4180 C   0  0  0  0  0  0  0  0  0  0  0  0
  181.8240  179.1280  141.0440 C   0  0  0  0  0  0  0  0  0  0  0  0
  183.1540  178.6920  143.0220 C   0  0  0  0  0  3  0  0  0  0  0  0
  178.9600  180.8430  142.1300 C   0  0  0  0  0  3  0  0  0  0  0  0
  184.2670  178.4480  142.2040 C   0  0  0  0  0  0  0  0  0  0  0  0
  185.1730  178.2080  138.7100 C   0  0  0  0  0  0  0  0  0  0  0  0
  180.8360  179.4290  143.0710 N   0  0  0  0  0  2  0  0  0  0  0  0
  179.0720  181.4710  140.8100 N   0  0  0  0  0  0  0  0  0  0  0  0
  180.0620  180.7590  140.0740 C   0  0  0  0  0  0  0  0  0  0  0  0
  182.8100  178.7080  138.7800 C   0  0  0  0  0  0  0  0  0  0  0  0
  182.9010  178.8180  140.1840 C   0  0  0  0  0  0  0  0  0  0  0  0
  184.1500  178.5050  140.7940 C   0  0  2  0  0  3  0  0  0  0  0  0
  188.7590  177.4390  136.5400 C   0  0  0  0  0  0  0  0  0  0  0  0
  187.1420  178.9470  137.4500 N   0  0  0  0  0  0  0  0  0  0  0  0
  188.0190  176.3570  137.0520 C   0  0  0  0  0  0  0  0  0  0  0  0
  190.0370  177.2360  135.7720 C   0  0  0  0  0  2  0  0  0  0  0  0
  186.4070  177.9170  137.9570 C   0  0  0  0  0  0  0  0  0  0  0  0
  190.4470  175.7920  135.6630 C   0  0  0  0  0  0  0  0  0  0  0  0
  188.4720  174.9750  136.8490 C   0  0  0  0  0  3  0  0  0  0  0  0
  188.2920  178.7380  136.7540 C   0  0  0  0  0  3  0  0  0  0  0  0
  189.6070  174.7100  136.2030 C   0  0  0  0  0  3  0  0  0  0  0  0
  186.8400  176.5980  137.7590 C   0  0  0  0  0  3  0  0  0  0  0  0
  191.5330  175.5010  135.0970 O   0  0  0  0  0  0  0  0  0  0  0  0
  185.5600  178.0770  142.8490 C   0  0  0  0  0  2  0  0  0  0  0  0
  185.7370  178.8550  144.0660 N   0  0  0  0  0  2  0  0  0  0  0  0
  186.0560  177.9180  145.1320 C   0  0  2  0  0  3  0  0  0  0  0  0
  185.2050  178.2210  146.3560 C   0  0  0  0  0  1  0  0  0  0  0  0
  187.5650  177.9440  145.4220 C   0  0  2  0  0  3  0  0  0  0  0  0
  189.3310  178.6260  143.7920 C   0  0  0  0  0  3  0  0  0  0  0  0
  188.4250  177.6530  144.2280 C   0  0  0  0  0  0  0  0  0  0  0  0
  189.1610  176.1870  142.4380 C   0  0  0  0  0  3  0  0  0  0  0  0
  188.3430  176.4300  143.5440 C   0  0  0  0  0  3  0  0  0  0  0  0
  190.1500  178.3810  142.6870 C   0  0  0  0  0  3  0  0  0  0  0  0
  190.0750  177.1580  142.0020 C   0  0  0  0  0  0  0  0  0  0  0  0
  190.9180  176.8950  140.8680 N   0  0  0  0  0  0  0  0  0  0  0  0
  190.5190  176.0240  139.9100 O   0  0  0  0  0  1  0  0  0  0  0  0
  192.2310  177.5130  140.7400 C   0  0  0  0  0  1  0  0  0  0  0  0
  189.2710  177.6290  147.1110 O   0  0  0  0  0  1  0  0  0  0  0  0
  188.0040  177.2150  146.6970 C   0  0  0  0  0  2  0  0  0  0  0  0
  1 15  2  0  0  0  0
  2 15  1  1  0  0  0
  2  8  1  0  0  0  0
  2  3  1  0  0  0  0
  3 10  1  1  0  0  0
  3 13  1  0  0  0  0
  5 12  2  0  0  0  0
  5 16  1  0  0  0  0
  6 16  1  0  0  0  0
  7  9  1  0  0  0  0
  7 13  1  0  0  0  0
  8  7  2  0  0  0  0
 11 30  1  0  0  0  0
 11  9  2  0  0  0  0
 12  4  1  0  0  0  0
 14 10  2  0  0  0  0
 15 14  1  0  0  0  0
 16 17  2  0  0  0  0
 17 18  1  0  0  0  0
 17  8  1  0  0  0  0
 18  4  1  6  0  0  0
 18 11  1  0  0  0  0
 19 26  2  0  0  0  0
 19 21  1  0  0  0  0
 20 23  2  0  0  0  0
 21 28  2  0  0  0  0
 22 19  1  0  0  0  0
 23 12  1  0  0  0  0
 24 22  1  0  0  0  0
 24 27  1  0  0  0  0
 25 21  1  0  0  0  0
 26 20  1  0  0  0  0
 27 25  2  0  0  0  0
 28 23  1  0  0  0  0
 29 24  2  0  0  0  0
 30 31  1  0  0  0  0
 31 32  1  0  0  0  0
 32 34  1  0  0  0  0
 32 33  1  1  0  0  0
 34 45  1  1  0  0  0
 35 36  1  0  0  0  0
 36 34  1  0  0  0  0
 37 38  1  0  0  0  0
 38 36  2  0  0  0  0
 39 35  2  0  0  0  0
 40 37  2  0  0  0  0
 40 39  1  0  0  0  0
 41 40  1  0  0  0  0
 42 41  1  0  0  0  0
 43 41  1  0  0  0  0
 45 44  1  0  0  0  0
M  END
>  <MODEL>
7

>  <REMARK>
 VINA RESULT:      -8.5      2.412      8.539
  Name = 
  8 active torsions:
  status: ('A' for Active; 'I' for Inactive)
    1  A    between atoms: C_1  and  C_12
    2  A    between atoms: C_1  and  N_30
    3  A    between atoms: C_9  and  C_12
    4  A    between atoms: C_12  and  C_31
    5  A    between atoms: N_16  and  C_43
    6  A    between atoms: C_17  and  C_28
    7  A    between atoms: C_24  and  C_33
    8  A    between atoms: N_30  and  C_33
                            x       y       z     vdW  Elec       q    Type
                         _______ _______ _______ _____ _____    ______ ____

>  <TORSDO>
F 8

$$$$
=
 OpenBabel11032420413D

 45 51  0  0  1  0  0  0  0  0999 V2000
  181.6760  179.3690  136.1060 O   0  0  0  0  0  0  0  0  0  0  0  0
  181.4290  178.6760  138.4080 C   0  0  2  0  0  3  0  0  0  0  0  0
  180.5740  179.1430  139.3680 C   0  0  2  0  0  3  0  0  0  0  0  0
  186.2740  178.0250  139.0660 O   0  0  0  0  0  0  0  0  0  0  0  0
  185.5120  177.1920  136.9910 C   0  0  0  0  0  3  0  0  0  0  0  0
  183.1240  176.9980  136.4340 C   0  0  0  0  0  1  0  0  0  0  0  0
  182.4690  178.9880  140.3130 C   0  0  0  0  0  0  0  0  0  0  0  0
  182.6650  178.5470  139.0160 C   0  0  2  0  0  3  0  0  0  0  0  0
  183.5280  179.1510  141.1990 C   0  0  0  0  0  3  0  0  0  0  0  0
  179.4560  179.9530  138.7930 C   0  0  0  0  0  3  0  0  0  0  0  0
  184.8230  178.8390  140.7580 C   0  0  0  0  0  0  0  0  0  0  0  0
  186.5500  177.4870  137.8810 C   0  0  0  0  0  0  0  0  0  0  0  0
  181.1990  179.3870  140.5390 N   0  0  0  0  0  2  0  0  0  0  0  0
  179.8080  180.0500  137.3740 N   0  0  0  0  0  0  0  0  0  0  0  0
  181.0150  179.3210  137.1760 C   0  0  0  0  0  0  0  0  0  0  0  0
  184.1980  177.5090  137.3300 C   0  0  0  0  0  0  0  0  0  0  0  0
  183.9420  178.1530  138.5590 C   0  0  0  0  0  0  0  0  0  0  0  0
  185.0380  178.3400  139.4500 C   0  0  0  0  0  0  0  0  0  0  0  0
  190.5850  176.6160  136.8210 C   0  0  0  0  0  0  0  0  0  0  0  0
  188.2910  176.9520  136.2380 N   0  0  0  0  0  0  0  0  0  0  0  0
  190.2620  176.8470  138.1710 C   0  0  0  0  0  0  0  0  0  0  0  0
  191.9910  176.3110  136.3810 C   0  0  0  0  0  2  0  0  0  0  0  0
  187.9520  177.1810  137.5380 C   0  0  0  0  0  0  0  0  0  0  0  0
  192.9900  176.3330  137.5070 C   0  0  0  0  0  0  0  0  0  0  0  0
  191.2990  176.7950  139.2100 C   0  0  0  0  0  3  0  0  0  0  0  0
  189.5690  176.6730  135.8650 C   0  0  0  0  0  3  0  0  0  0  0  0
  192.5740  176.5570  138.9010 C   0  0  0  0  0  3  0  0  0  0  0  0
  188.9430  177.1280  138.5290 C   0  0  0  0  0  3  0  0  0  0  0  0
  194.2090  176.1530  137.2510 O   0  0  0  0  0  0  0  0  0  0  0  0
  185.9590  178.9950  141.7120 C   0  0  0  0  0  2  0  0  0  0  0  0
  185.7580  178.1200  142.8560 N   0  0  0  0  0  2  0  0  0  0  0  0
  187.0670  177.8700  143.4410 C   0  0  2  0  0  3  0  0  0  0  0  0
  187.4800  176.4290  143.1810 C   0  0  0  0  0  1  0  0  0  0  0  0
  187.0560  178.2380  144.9330 C   0  0  2  0  0  3  0  0  0  0  0  0
  189.5260  177.8990  145.0860 C   0  0  0  0  0  3  0  0  0  0  0  0
  188.2690  177.7780  145.6870 C   0  0  0  0  0  0  0  0  0  0  0  0
  189.3180  176.8190  147.6550 C   0  0  0  0  0  3  0  0  0  0  0  0
  188.1690  177.2340  146.9760 C   0  0  0  0  0  3  0  0  0  0  0  0
  190.6750  177.4860  145.7650 C   0  0  0  0  0  3  0  0  0  0  0  0
  190.5810  176.9450  147.0580 C   0  0  0  0  0  0  0  0  0  0  0  0
  191.7580  176.5230  147.7670 N   0  0  0  0  0  0  0  0  0  0  0  0
  192.2800  177.3050  148.7440 O   0  0  0  0  0  1  0  0  0  0  0  0
  192.4430  175.2830  147.4310 C   0  0  0  0  0  1  0  0  0  0  0  0
  185.0430  179.1710  145.9010 O   0  0  0  0  0  1  0  0  0  0  0  0
  185.7340  177.9810  145.6650 C   0  0  0  0  0  2  0  0  0  0  0  0
  1 15  2  0  0  0  0
  2 15  1  6  0  0  0
  2  8  1  0  0  0  0
  2  3  1  0  0  0  0
  3 10  1  6  0  0  0
  3 13  1  0  0  0  0
  4 18  1  0  0  0  0
  5 16  1  0  0  0  0
  5 12  2  0  0  0  0
  6 16  1  0  0  0  0
  7 13  1  0  0  0  0
  7  9  2  0  0  0  0
  8 17  1  6  0  0  0
  8  7  1  0  0  0  0
 11  9  1  0  0  0  0
 11 30  1  0  0  0  0
 12  4  1  0  0  0  0
 14 10  2  0  0  0  0
 15 14  1  0  0  0  0
 16 17  2  0  0  0  0
 17 18  1  0  0  0  0
 18 11  2  0  0  0  0
 19 21  1  0  0  0  0
 20 23  2  0  0  0  0
 21 28  2  0  0  0  0
 21 25  1  0  0  0  0
 22 19  1  0  0  0  0
 22 24  1  0  0  0  0
 23 12  1  0  0  0  0
 23 28  1  0  0  0  0
 24 27  1  0  0  0  0
 26 20  1  0  0  0  0
 26 19  2  0  0  0  0
 27 25  2  0  0  0  0
 29 24  2  0  0  0  0
 30 31  1  0  0  0  0
 31 32  1  0  0  0  0
 32 33  1  1  0  0  0
 32 34  1  0  0  0  0
 34 45  1  1  0  0  0
 34 36  1  0  0  0  0
 35 36  2  0  0  0  0
 35 39  1  0  0  0  0
 36 38  1  0  0  0  0
 38 37  2  0  0  0  0
 39 40  2  0  0  0  0
 40 37  1  0  0  0  0
 40 41  1  0  0  0  0
 41 42  1  0  0  0  0
 43 41  1  0  0  0  0
 45 44  1  0  0  0  0
M  END
>  <MODEL>
8

>  <REMARK>
 VINA RESULT:      -8.4      2.276      9.873
  Name = 
  8 active torsions:
  status: ('A' for Active; 'I' for Inactive)
    1  A    between atoms: C_1  and  C_12
    2  A    between atoms: C_1  and  N_30
    3  A    between atoms: C_9  and  C_12
    4  A    between atoms: C_12  and  C_31
    5  A    between atoms: N_16  and  C_43
    6  A    between atoms: C_17  and  C_28
    7  A    between atoms: C_24  and  C_33
    8  A    between atoms: N_30  and  C_33
                            x       y       z     vdW  Elec       q    Type
                         _______ _______ _______ _____ _____    ______ ____

>  <TORSDO>
F 8

$$$$
=
 OpenBabel11032420413D

 45 51  0  0  1  0  0  0  0  0999 V2000
  189.6930  176.2310  146.8160 O   0  0  0  0  0  0  0  0  0  0  0  0
  188.1630  178.0890  146.6000 C   0  0  2  0  0  3  0  0  0  0  0  0
  187.1220  178.4530  147.4070 C   0  0  2  0  0  3  0  0  0  0  0  0
  187.8810  177.6980  141.6910 O   0  0  0  0  0  0  0  0  0  0  0  0
  190.0850  177.4490  142.5030 C   0  0  0  0  0  3  0  0  0  0  0  0
  190.7030  177.9300  144.8360 C   0  0  0  0  0  1  0  0  0  0  0  0
  186.3830  178.5900  145.4210 C   0  0  0  0  0  0  0  0  0  0  0  0
  187.7040  178.1960  145.2990 C   0  0  0  0  0  0  0  0  0  0  0  0
  185.5350  178.6590  144.3220 C   0  0  0  0  0  3  0  0  0  0  0  0
  187.1740  177.7870  148.7450 C   0  0  0  0  0  3  0  0  0  0  0  0
  186.0490  178.3340  143.0580 C   0  0  0  0  0  0  0  0  0  0  0  0
  189.1610  177.4200  141.4540 C   0  0  0  0  0  0  0  0  0  0  0  0
  185.9980  178.7240  146.7090 N   0  0  0  0  0  2  0  0  0  0  0  0
  188.2970  176.8540  148.6110 N   0  0  0  0  0  0  0  0  0  0  0  0
  188.8410  177.0170  147.3050 C   0  0  0  0  0  0  0  0  0  0  0  0
  189.6530  177.7210  143.8000 C   0  0  0  0  0  0  0  0  0  0  0  0
  188.2780  177.9320  144.0360 C   0  0  0  0  0  0  0  0  0  0  0  0
  187.4110  177.9750  142.9060 C   0  0  2  0  0  3  0  0  0  0  0  0
  190.3310  176.5660  137.4460 C   0  0  0  0  0  0  0  0  0  0  0  0
  188.6680  177.1240  139.0700 N   0  0  0  0  0  0  0  0  0  0  0  0
  191.3020  176.5480  138.4660 C   0  0  0  0  0  0  0  0  0  0  0  0
  190.6810  176.2800  136.0110 C   0  0  0  0  0  2  0  0  0  0  0  0
  189.5880  177.1150  140.0760 C   0  0  0  0  0  0  0  0  0  0  0  0
  192.1500  176.0350  135.7890 C   0  0  0  0  0  0  0  0  0  0  0  0
  192.7060  176.2450  138.1600 C   0  0  0  0  0  3  0  0  0  0  0  0
  189.0070  176.8570  137.7800 C   0  0  0  0  0  3  0  0  0  0  0  0
  193.1030  176.0070  136.9100 C   0  0  0  0  0  3  0  0  0  0  0  0
  190.9270  176.8210  139.7820 C   0  0  0  0  0  3  0  0  0  0  0  0
  192.5720  175.8460  134.6190 O   0  0  0  0  0  0  0  0  0  0  0  0
  185.1460  178.4240  141.8750 C   0  0  0  0  0  2  0  0  0  0  0  0
  183.9050  177.7200  142.1550 N   0  0  0  0  0  2  0  0  0  0  0  0
  182.8140  178.6280  141.8350 C   0  0  2  0  0  3  0  0  0  0  0  0
  182.0680  179.0060  143.1060 C   0  0  0  0  0  1  0  0  0  0  0  0
  181.9060  178.0040  140.7630 C   0  0  2  0  0  3  0  0  0  0  0  0
  183.3290  178.2240  138.7230 C   0  0  0  0  0  3  0  0  0  0  0  0
  182.6480  177.3880  139.6130 C   0  0  0  0  0  0  0  0  0  0  0  0
  183.3780  175.4560  138.3370 C   0  0  0  0  0  3  0  0  0  0  0  0
  182.6740  175.9990  139.4150 C   0  0  0  0  0  3  0  0  0  0  0  0
  184.0350  177.6800  137.6460 C   0  0  0  0  0  3  0  0  0  0  0  0
  184.0680  176.2900  137.4450 C   0  0  0  0  0  0  0  0  0  0  0  0
  184.7960  175.7220  136.3450 N   0  0  0  0  0  0  0  0  0  0  0  0
  184.5740  174.4370  135.9740 O   0  0  0  0  0  1  0  0  0  0  0  0
  185.8140  176.4830  135.6340 C   0  0  0  0  0  1  0  0  0  0  0  0
  179.5340  178.0930  140.2880 O   0  0  0  0  0  1  0  0  0  0  0  0
  180.7020  178.8550  140.3430 C   0  0  0  0  0  2  0  0  0  0  0  0
  1 15  2  0  0  0  0
  2  8  1  6  0  0  0
  2 15  1  0  0  0  0
  2  3  1  0  0  0  0
  3 10  1  1  0  0  0
  5 16  1  0  0  0  0
  7 13  1  0  0  0  0
  8  7  2  0  0  0  0
  9  7  1  0  0  0  0
 11  9  2  0  0  0  0
 12  4  1  0  0  0  0
 12  5  2  0  0  0  0
 13  3  1  0  0  0  0
 14 10  2  0  0  0  0
 15 14  1  0  0  0  0
 16 17  2  0  0  0  0
 16  6  1  0  0  0  0
 17  8  1  0  0  0  0
 18  4  1  6  0  0  0
 18 11  1  0  0  0  0
 18 17  1  0  0  0  0
 19 26  2  0  0  0  0
 19 21  1  0  0  0  0
 20 23  2  0  0  0  0
 21 28  2  0  0  0  0
 22 19  1  0  0  0  0
 23 12  1  0  0  0  0
 24 22  1  0  0  0  0
 24 27  1  0  0  0  0
 25 21  1  0  0  0  0
 26 20  1  0  0  0  0
 27 25  2  0  0  0  0
 28 23  1  0  0  0  0
 29 24  2  0  0  0  0
 30 31  1  0  0  0  0
 30 11  1  0  0  0  0
 32 31  1  0  0  0  0
 32 33  1  1  0  0  0
 34 45  1  6  0  0  0
 34 32  1  0  0  0  0
 35 36  1  0  0  0  0
 36 34  1  0  0  0  0
 37 38  1  0  0  0  0
 38 36  2  0  0  0  0
 39 35  2  0  0  0  0
 40 39  1  0  0  0  0
 40 37  2  0  0  0  0
 41 40  1  0  0  0  0
 42 41  1  0  0  0  0
 43 41  1  0  0  0  0
 44 45  1  0  0  0  0
M  END
>  <MODEL>
9

>  <REMARK>
 VINA RESULT:      -8.4      1.989      6.493
  Name = 
  8 active torsions:
  status: ('A' for Active; 'I' for Inactive)
    1  A    between atoms: C_1  and  C_12
    2  A    between atoms: C_1  and  N_30
    3  A    between atoms: C_9  and  C_12
    4  A    between atoms: C_12  and  C_31
    5  A    between atoms: N_16  and  C_43
    6  A    between atoms: C_17  and  C_28
    7  A    between atoms: C_24  and  C_33
    8  A    between atoms: N_30  and  C_33
                            x       y       z     vdW  Elec       q    Type
                         _______ _______ _______ _____ _____    ______ ____

>  <TORSDO>
F 8

$$$$
