=
 OpenBabel11042413013D

 40 44  0  0  1  0  0  0  0  0999 V2000
  180.8020  178.4040  137.3170 C   0  0  0  0  0  0  0  0  0  0  0  0
  181.7470  178.8420  138.4170 C   0  0  1  0  0  3  0  0  0  0  0  0
  179.5750  175.7150  136.5440 C   0  0  0  0  0  2  0  0  0  0  0  0
  183.7550  172.8290  136.5260 C   0  0  0  0  0  0  0  0  0  0  0  0
  180.6630  179.8710  141.7300 O   0  0  0  0  0  0  0  0  0  0  0  0
  183.0210  175.5130  139.0580 C   0  0  0  0  0  2  0  0  0  0  0  0
  184.7170  171.8470  135.9690 C   0  0  0  0  0  3  0  0  0  0  0  0
  180.9900  179.3790  139.5140 O   0  0  0  0  0  0  0  0  0  0  0  0
  180.5030  175.2510  137.5200 O   0  0  0  0  0  0  0  0  0  0  0  0
  182.6970  171.7180  134.8700 N   0  0  0  0  0  0  0  0  0  0  0  0
  181.4780  173.4900  136.1580 C   0  0  0  0  0  2  0  0  0  0  0  0
  182.5600  178.4760  141.2580 C   0  0  1  0  0  3  0  0  0  0  0  0
  181.2180  177.5410  136.2470 N   0  0  0  0  0  0  0  0  0  0  0  0
  183.9120  173.7430  137.5640 C   0  0  0  0  0  3  0  0  0  0  0  0
  181.3820  179.3200  140.8540 C   0  0  0  0  0  0  0  0  0  0  0  0
  182.0650  176.5380  139.1160 O   0  0  0  0  0  0  0  0  0  0  0  0
  182.7450  177.7400  138.8610 C   0  0  2  0  0  3  0  0  0  0  0  0
  183.5270  178.1880  140.1100 C   0  0  1  0  0  3  0  0  0  0  0  0
  183.9850  171.1430  134.8920 N   0  0  0  0  0  0  0  0  0  0  0  0
  182.5900  172.7140  135.8570 C   0  0  0  0  0  0  0  0  0  0  0  0
  181.5900  174.4340  137.2000 C   0  0  0  0  0  0  0  0  0  0  0  0
  179.6090  178.8120  137.3460 O   0  0  0  0  0  0  0  0  0  0  0  0
  182.8200  174.5660  137.9070 C   0  0  0  0  0  0  0  0  0  0  0  0
  180.2530  176.6790  135.5660 C   0  0  0  0  0  2  0  0  0  0  0  0
  185.7730  178.9720  140.3400 F   0  0  0  0  0  0  0  0  0  0  0  0
  184.6390  179.5880  138.4830 F   0  0  0  0  0  0  0  0  0  0  0  0
  184.5330  179.3110  139.8350 C   0  0  0  0  0  3  0  0  0  0  0  0
  182.5530  177.5050  135.8200 C   0  0  0  0  0  0  0  0  0  0  0  0
  183.6970  177.4710  135.4420 C   0  0  0  0  0  3  0  0  0  0  0  0
  182.2040  178.7220  143.7600 C   0  0  0  0  0  1  0  0  0  0  0  0
  183.2070  178.7610  142.6200 C   0  0  1  0  0  3  0  0  0  0  0  0
  184.2360  177.8380  142.8460 O   0  0  0  0  0  0  0  0  0  0  0  0
  184.9090  180.0260  143.5080 C   0  0  0  0  0  1  0  0  0  0  0  0
  185.3430  178.5950  143.2590 C   0  0  1  0  0  3  0  0  0  0  0  0
  186.0020  178.0280  144.5270 C   0  0  2  0  0  3  0  0  0  0  0  0
  185.7050  178.9730  145.6920 C   0  0  0  0  0  3  0  0  0  0  0  0
  184.6780  178.3140  146.5960 C   0  0  0  0  0  2  0  0  0  0  0  0
  186.1230  178.3990  147.0370 C   0  0  0  0  0  2  0  0  0  0  0  0
  187.3800  177.8480  144.3450 O   0  0  0  0  0  0  0  0  0  0  0  0
  187.4940  176.9860  143.2560 C   0  0  0  0  0  1  0  0  0  0  0  0
  1 22  2  0  0  0  0
  2  1  1  6  0  0  0
  2 17  1  0  0  0  0
  2  8  1  0  0  0  0
  3  9  1  0  0  0  0
  4 14  2  0  0  0  0
  6 16  1  0  0  0  0
  7  4  1  0  0  0  0
  8 15  1  0  0  0  0
 10 19  1  0  0  0  0
 10 20  2  0  0  0  0
 11 21  1  0  0  0  0
 12 31  1  1  0  0  0
 13  1  1  0  0  0  0
 14 23  1  0  0  0  0
 15 12  1  0  0  0  0
 15  5  2  0  0  0  0
 17 16  1  1  0  0  0
 17 18  1  0  0  0  0
 18 27  1  6  0  0  0
 18 12  1  0  0  0  0
 19  7  2  0  0  0  0
 20 11  1  0  0  0  0
 20  4  1  0  0  0  0
 21  9  1  0  0  0  0
 21 23  2  0  0  0  0
 23  6  1  0  0  0  0
 24 13  1  0  0  0  0
 24  3  1  0  0  0  0
 26 27  1  0  0  0  0
 27 25  1  0  0  0  0
 28 13  1  0  0  0  0
 29 28  3  0  0  0  0
 31 32  1  0  0  0  0
 31 30  1  1  0  0  0
 32 34  1  0  0  0  0
 34 33  1  1  0  0  0
 34 35  1  0  0  0  0
 35 39  1  6  0  0  0
 35 36  1  0  0  0  0
 36 37  1  0  0  0  0
 36 38  1  0  0  0  0
 37 38  1  0  0  0  0
 40 39  1  0  0  0  0
M  END
>  <MODEL>
1

>  <REMARK>
 VINA RESULT:      -6.2      0.000      0.000
  Name = 
  8 active torsions:
  status: ('A' for Active; 'I' for Inactive)
    1  A    between atoms: C_4  and  N_23
    2  A    between atoms: C_8  and  C_17
    3  A    between atoms: O_9  and  C_35
    4  A    between atoms: O_9  and  C_40
    5  A    between atoms: C_17  and  O_19
    6  A    between atoms: C_17  and  C_35
    7  A    between atoms: C_22  and  C_40
    8  A    between atoms: C_29  and  C_30
                            x       y       z     vdW  Elec       q    Type
                         _______ _______ _______ _____ _____    ______ ____

>  <TORSDO>
F 8

$$$$
=
 OpenBabel11042413013D

 40 44  0  0  1  0  0  0  0  0999 V2000
  180.4830  176.1560  138.0520 C   0  0  0  0  0  0  0  0  0  0  0  0
  180.4350  177.3190  139.0210 C   0  0  1  0  0  3  0  0  0  0  0  0
  182.6560  174.1540  137.2730 C   0  0  0  0  0  2  0  0  0  0  0  0
  186.4960  177.3530  136.3720 C   0  0  2  0  0  3  0  0  0  0  0  0
  179.5580  176.9980  142.5330 O   0  0  0  0  0  0  0  0  0  0  0  0
  184.0310  177.7140  139.1900 C   0  0  0  0  0  2  0  0  0  0  0  0
  187.6210  177.9320  135.5960 C   0  0  0  0  0  3  0  0  0  0  0  0
  179.8540  176.8860  140.2610 O   0  0  0  0  0  0  0  0  0  0  0  0
  183.4550  175.0400  138.0510 O   0  0  0  0  0  0  0  0  0  0  0  0
  187.0960  175.8280  134.8220 N   0  0  0  0  0  0  0  0  0  0  0  0
  185.2340  175.3140  136.4200 C   0  0  0  0  0  3  0  0  0  0  0  0
  181.3280  178.3660  141.6600 C   0  0  1  0  0  3  0  0  0  0  0  0
  181.2920  176.1780  136.8650 N   0  0  0  0  0  0  0  0  0  0  0  0
  185.7830  177.8870  137.4410 C   0  0  0  0  0  3  0  0  0  0  0  0
  180.1680  177.4190  141.5150 C   0  0  0  0  0  0  0  0  0  0  0  0
  182.8090  177.0880  139.4780 O   0  0  0  0  0  0  0  0  0  0  0  0
  181.8000  178.0300  139.2140 C   0  0  2  0  0  3  0  0  0  0  0  0
  181.7190  179.0600  140.3570 C   0  0  1  0  0  3  0  0  0  0  0  0
  187.9810  176.9020  134.5950 N   0  0  0  0  0  0  0  0  0  0  0  0
  186.2300  176.1250  135.8880 C   0  0  0  0  0  0  0  0  0  0  0  0
  184.4800  175.8140  137.5020 C   0  0  0  0  0  0  0  0  0  0  0  0
  179.7880  175.1320  138.3000 O   0  0  0  0  0  0  0  0  0  0  0  0
  184.7520  177.1140  138.0150 C   0  0  0  0  0  0  0  0  0  0  0  0
  181.7910  174.9350  136.2790 C   0  0  0  0  0  2  0  0  0  0  0  0
  180.9720  180.5780  138.6690 F   0  0  0  0  0  0  0  0  0  0  0  0
  179.5380  180.1040  140.3520 F   0  0  0  0  0  0  0  0  0  0  0  0
  180.8670  180.2880  140.0150 C   0  0  0  0  0  3  0  0  0  0  0  0
  181.6200  177.3850  136.2320 C   0  0  0  0  0  0  0  0  0  0  0  0
  181.9040  178.4280  135.6990 C   0  0  0  0  0  3  0  0  0  0  0  0
  180.0100  179.4530  143.5400 C   0  0  0  0  0  1  0  0  0  0  0  0
  181.3810  179.2380  142.9220 C   0  0  1  0  0  3  0  0  0  0  0  0
  182.2470  178.6520  143.8540 O   0  0  0  0  0  0  0  0  0  0  0  0
  183.7500  180.4630  144.2310 C   0  0  0  0  0  1  0  0  0  0  0  0
  183.5280  179.1330  143.5390 C   0  0  1  0  0  3  0  0  0  0  0  0
  184.6390  178.1510  143.9430 C   0  0  2  0  0  3  0  0  0  0  0  0
  185.4770  178.7940  145.0480 C   0  0  0  0  0  3  0  0  0  0  0  0
  185.0160  178.2390  146.3860 C   0  0  0  0  0  2  0  0  0  0  0  0
  186.3350  177.7860  145.7980 C   0  0  0  0  0  2  0  0  0  0  0  0
  185.4250  177.7940  142.8380 O   0  0  0  0  0  0  0  0  0  0  0  0
  185.5210  178.9520  142.0700 C   0  0  0  0  0  1  0  0  0  0  0  0
  1 22  2  0  0  0  0
  2  1  1  6  0  0  0
  2 17  1  0  0  0  0
  2  8  1  0  0  0  0
  3  9  1  0  0  0  0
  4  7  1  1  0  0  0
  4 14  1  0  0  0  0
  6 16  1  0  0  0  0
  8 15  1  0  0  0  0
 10 20  2  0  0  0  0
 11 21  2  0  0  0  0
 12 31  1  1  0  0  0
 13  1  1  0  0  0  0
 14 23  2  0  0  0  0
 15 12  1  0  0  0  0
 15  5  2  0  0  0  0
 17 16  1  1  0  0  0
 17 18  1  0  0  0  0
 18 27  1  6  0  0  0
 18 12  1  0  0  0  0
 19 10  1  0  0  0  0
 19  7  2  0  0  0  0
 20  4  1  0  0  0  0
 20 11  1  0  0  0  0
 21 23  1  0  0  0  0
 21  9  1  0  0  0  0
 23  6  1  0  0  0  0
 24 13  1  0  0  0  0
 24  3  1  0  0  0  0
 25 27  1  0  0  0  0
 27 26  1  0  0  0  0
 28 13  1  0  0  0  0
 29 28  3  0  0  0  0
 31 30  1  1  0  0  0
 31 32  1  0  0  0  0
 34 32  1  0  0  0  0
 34 35  1  0  0  0  0
 34 33  1  1  0  0  0
 35 39  1  6  0  0  0
 35 36  1  0  0  0  0
 36 38  1  0  0  0  0
 36 37  1  0  0  0  0
 38 37  1  0  0  0  0
 40 39  1  0  0  0  0
M  END
>  <MODEL>
2

>  <REMARK>
 VINA RESULT:      -5.8      2.516      3.365
  Name = 
  8 active torsions:
  status: ('A' for Active; 'I' for Inactive)
    1  A    between atoms: C_4  and  N_23
    2  A    between atoms: C_8  and  C_17
    3  A    between atoms: O_9  and  C_35
    4  A    between atoms: O_9  and  C_40
    5  A    between atoms: C_17  and  O_19
    6  A    between atoms: C_17  and  C_35
    7  A    between atoms: C_22  and  C_40
    8  A    between atoms: C_29  and  C_30
                            x       y       z     vdW  Elec       q    Type
                         _______ _______ _______ _____ _____    ______ ____

>  <TORSDO>
F 8

$$$$
=
 OpenBabel11042413013D

 40 44  0  0  1  0  0  0  0  0999 V2000
  183.4320  178.6150  138.5520 C   0  0  0  0  0  0  0  0  0  0  0  0
  184.7650  178.4910  137.8430 C   0  0  1  0  0  3  0  0  0  0  0  0
  181.5370  176.5950  139.8400 C   0  0  0  0  0  2  0  0  0  0  0  0
  181.2190  173.1910  136.0850 C   0  0  2  0  0  3  0  0  0  0  0  0
  187.9780  178.5390  139.5410 O   0  0  0  0  0  0  0  0  0  0  0  0
  184.3760  174.9690  137.0960 C   0  0  0  0  0  2  0  0  0  0  0  0
  180.5250  172.2950  135.1270 C   0  0  0  0  0  3  0  0  0  0  0  0
  185.8280  178.7590  138.7700 O   0  0  0  0  0  0  0  0  0  0  0  0
  182.4270  175.6790  139.2110 O   0  0  0  0  0  0  0  0  0  0  0  0
  179.1150  172.8950  136.8450 N   0  0  0  0  0  0  0  0  0  0  0  0
  180.7170  174.3260  138.1380 C   0  0  0  0  0  3  0  0  0  0  0  0
  187.3770  177.0690  137.7400 C   0  0  1  0  0  3  0  0  0  0  0  0
  182.2140  178.0980  137.9940 N   0  0  0  0  0  0  0  0  0  0  0  0
  182.5270  173.6660  136.0750 C   0  0  0  0  0  3  0  0  0  0  0  0
  187.1040  178.1920  138.7020 C   0  0  0  0  0  0  0  0  0  0  0  0
  184.6290  176.0680  137.9300 O   0  0  0  0  0  0  0  0  0  0  0  0
  184.9500  177.1480  137.0900 C   0  0  2  0  0  3  0  0  0  0  0  0
  186.3940  177.0110  136.5720 C   0  0  1  0  0  3  0  0  0  0  0  0
  179.1550  172.1290  135.6620 N   0  0  0  0  0  0  0  0  0  0  0  0
  180.3580  173.5100  137.0720 C   0  0  0  0  0  0  0  0  0  0  0  0
  182.0320  174.8360  138.1690 C   0  0  0  0  0  0  0  0  0  0  0  0
  183.3950  179.1950  139.6720 O   0  0  0  0  0  0  0  0  0  0  0  0
  182.9450  174.5080  137.1260 C   0  0  0  0  0  0  0  0  0  0  0  0
  181.1090  177.6940  138.8620 C   0  0  0  0  0  2  0  0  0  0  0  0
  185.6270  178.1130  134.5940 F   0  0  0  0  0  0  0  0  0  0  0  0
  187.1340  179.2060  135.8780 F   0  0  0  0  0  0  0  0  0  0  0  0
  186.7250  177.9660  135.4190 C   0  0  0  0  0  3  0  0  0  0  0  0
  182.0460  177.9700  136.6080 C   0  0  0  0  0  0  0  0  0  0  0  0
  181.9040  177.8490  135.4170 C   0  0  0  0  0  3  0  0  0  0  0  0
  189.6660  178.0290  137.2010 C   0  0  0  0  0  1  0  0  0  0  0  0
  188.8420  176.7670  137.3940 C   0  0  1  0  0  3  0  0  0  0  0  0
  189.4020  175.9700  138.4000 O   0  0  0  0  0  0  0  0  0  0  0  0
  191.2750  176.6910  139.6860 C   0  0  0  0  0  1  0  0  0  0  0  0
  190.7860  176.1950  138.3390 C   0  0  1  0  0  3  0  0  0  0  0  0
  191.5680  174.9330  137.9400 C   0  0  2  0  0  3  0  0  0  0  0  0
  192.5070  175.2890  136.7870 C   0  0  0  0  0  3  0  0  0  0  0  0
  193.3620  176.4720  137.2100 C   0  0  0  0  0  2  0  0  0  0  0  0
  193.9740  175.0900  137.1390 C   0  0  0  0  0  2  0  0  0  0  0  0
  190.7010  173.8870  137.5970 O   0  0  0  0  0  0  0  0  0  0  0  0
  190.7570  173.8060  136.2070 C   0  0  0  0  0  1  0  0  0  0  0  0
  1 22  2  0  0  0  0
  2  1  1  1  0  0  0
  2  8  1  0  0  0  0
  4  7  1  1  0  0  0
  4 20  1  0  0  0  0
  6 23  1  0  0  0  0
  6 16  1  0  0  0  0
  7 19  2  0  0  0  0
  9  3  1  0  0  0  0
 10 20  2  0  0  0  0
 11 21  2  0  0  0  0
 12 31  1  6  0  0  0
 12 15  1  0  0  0  0
 13  1  1  0  0  0  0
 13 24  1  0  0  0  0
 14  4  1  0  0  0  0
 14 23  2  0  0  0  0
 15  8  1  0  0  0  0
 15  5  2  0  0  0  0
 17  2  1  0  0  0  0
 17 16  1  1  0  0  0
 18 27  1  6  0  0  0
 18 17  1  0  0  0  0
 18 12  1  0  0  0  0
 19 10  1  0  0  0  0
 20 11  1  0  0  0  0
 21  9  1  0  0  0  0
 23 21  1  0  0  0  0
 24  3  1  0  0  0  0
 25 27  1  0  0  0  0
 27 26  1  0  0  0  0
 28 13  1  0  0  0  0
 29 28  3  0  0  0  0
 31 30  1  1  0  0  0
 31 32  1  0  0  0  0
 34 32  1  0  0  0  0
 34 33  1  1  0  0  0
 35 39  1  6  0  0  0
 35 34  1  0  0  0  0
 36 38  1  0  0  0  0
 36 37  1  0  0  0  0
 36 35  1  0  0  0  0
 38 37  1  0  0  0  0
 40 39  1  0  0  0  0
M  END
>  <MODEL>
3

>  <REMARK>
 VINA RESULT:      -5.7      4.350      6.099
  Name = 
  8 active torsions:
  status: ('A' for Active; 'I' for Inactive)
    1  A    between atoms: C_4  and  N_23
    2  A    between atoms: C_8  and  C_17
    3  A    between atoms: O_9  and  C_35
    4  A    between atoms: O_9  and  C_40
    5  A    between atoms: C_17  and  O_19
    6  A    between atoms: C_17  and  C_35
    7  A    between atoms: C_22  and  C_40
    8  A    between atoms: C_29  and  C_30
                            x       y       z     vdW  Elec       q    Type
                         _______ _______ _______ _____ _____    ______ ____

>  <TORSDO>
F 8

$$$$
=
 OpenBabel11042413013D

 40 44  0  0  1  0  0  0  0  0999 V2000
  183.3530  178.5970  138.8330 C   0  0  0  0  0  0  0  0  0  0  0  0
  184.7100  178.6070  138.1600 C   0  0  1  0  0  3  0  0  0  0  0  0
  181.5050  176.3690  139.8110 C   0  0  0  0  0  2  0  0  0  0  0  0
  181.4390  173.4230  135.6740 C   0  0  2  0  0  3  0  0  0  0  0  0
  187.8660  178.5750  139.9610 O   0  0  0  0  0  0  0  0  0  0  0  0
  184.4880  175.1860  136.9930 C   0  0  0  0  0  2  0  0  0  0  0  0
  180.8110  172.6210  134.5950 C   0  0  0  0  0  3  0  0  0  0  0  0
  185.7340  178.8040  139.1490 O   0  0  0  0  0  0  0  0  0  0  0  0
  182.4500  175.5670  139.1100 O   0  0  0  0  0  0  0  0  0  0  0  0
  179.3270  172.9610  136.3230 N   0  0  0  0  0  0  0  0  0  0  0  0
  180.8310  174.2880  137.8280 C   0  0  0  0  0  3  0  0  0  0  0  0
  187.3810  177.3060  137.9810 C   0  0  1  0  0  3  0  0  0  0  0  0
  182.1740  178.1040  138.1770 N   0  0  0  0  0  0  0  0  0  0  0  0
  182.7260  173.9450  135.7640 C   0  0  0  0  0  3  0  0  0  0  0  0
  187.0330  178.2970  139.0580 C   0  0  0  0  0  0  0  0  0  0  0  0
  184.6720  176.1880  137.9590 O   0  0  0  0  0  0  0  0  0  0  0  0
  184.9720  177.3710  137.2620 C   0  0  2  0  0  3  0  0  0  0  0  0
  186.4360  177.3500  136.7810 C   0  0  1  0  0  3  0  0  0  0  0  0
  179.4340  172.3420  135.0600 N   0  0  0  0  0  0  0  0  0  0  0  0
  180.5370  173.5910  136.6620 C   0  0  0  0  0  0  0  0  0  0  0  0
  182.1220  174.8400  137.9640 C   0  0  0  0  0  0  0  0  0  0  0  0
  183.2580  179.0390  140.0110 O   0  0  0  0  0  0  0  0  0  0  0  0
  183.0770  174.6710  136.9210 C   0  0  0  0  0  0  0  0  0  0  0  0
  181.0620  177.5590  138.9530 C   0  0  0  0  0  2  0  0  0  0  0  0
  187.4000  179.5010  136.3840 F   0  0  0  0  0  0  0  0  0  0  0  0
  187.5450  177.9710  134.7250 F   0  0  0  0  0  0  0  0  0  0  0  0
  186.7610  178.4470  135.7600 C   0  0  0  0  0  3  0  0  0  0  0  0
  182.0530  178.1350  136.7810 C   0  0  0  0  0  0  0  0  0  0  0  0
  181.9530  178.1510  135.5800 C   0  0  0  0  0  3  0  0  0  0  0  0
  189.7770  177.9430  138.5310 C   0  0  0  0  0  1  0  0  0  0  0  0
  188.8660  177.1030  137.6520 C   0  0  1  0  0  3  0  0  0  0  0  0
  189.1870  175.7450  137.7780 O   0  0  0  0  0  0  0  0  0  0  0  0
  190.1020  176.0730  135.6020 C   0  0  0  0  0  1  0  0  0  0  0  0
  189.1890  175.2320  136.4710 C   0  0  1  0  0  3  0  0  0  0  0  0
  189.6370  173.7620  136.4180 C   0  0  2  0  0  3  0  0  0  0  0  0
  188.4660  172.8820  136.8520 C   0  0  0  0  0  3  0  0  0  0  0  0
  187.3350  173.0590  135.8530 C   0  0  0  0  0  2  0  0  0  0  0  0
  188.1500  171.7840  135.8470 C   0  0  0  0  0  2  0  0  0  0  0  0
  190.7690  173.5500  137.2180 O   0  0  0  0  0  0  0  0  0  0  0  0
  191.7640  173.1290  136.3380 C   0  0  0  0  0  1  0  0  0  0  0  0
  1 22  2  0  0  0  0
  2  1  1  1  0  0  0
  2  8  1  0  0  0  0
  4  7  1  1  0  0  0
  4 14  1  0  0  0  0
  4 20  1  0  0  0  0
  6 16  1  0  0  0  0
  7 19  2  0  0  0  0
  9  3  1  0  0  0  0
 10 20  2  0  0  0  0
 11 21  2  0  0  0  0
 12 31  1  6  0  0  0
 12 15  1  0  0  0  0
 13  1  1  0  0  0  0
 13 24  1  0  0  0  0
 14 23  2  0  0  0  0
 15  8  1  0  0  0  0
 15  5  2  0  0  0  0
 17 16  1  1  0  0  0
 17  2  1  0  0  0  0
 18 27  1  1  0  0  0
 18 17  1  0  0  0  0
 18 12  1  0  0  0  0
 19 10  1  0  0  0  0
 20 11  1  0  0  0  0
 21  9  1  0  0  0  0
 23  6  1  0  0  0  0
 23 21  1  0  0  0  0
 24  3  1  0  0  0  0
 26 27  1  0  0  0  0
 27 25  1  0  0  0  0
 28 13  1  0  0  0  0
 29 28  3  0  0  0  0
 31 32  1  0  0  0  0
 31 30  1  1  0  0  0
 34 33  1  6  0  0  0
 34 32  1  0  0  0  0
 35 34  1  0  0  0  0
 35 36  1  0  0  0  0
 35 39  1  1  0  0  0
 37 36  1  0  0  0  0
 38 37  1  0  0  0  0
 38 36  1  0  0  0  0
 40 39  1  0  0  0  0
M  END
>  <MODEL>
4

>  <REMARK>
 VINA RESULT:      -5.5      3.779      6.127
  Name = 
  8 active torsions:
  status: ('A' for Active; 'I' for Inactive)
    1  A    between atoms: C_4  and  N_23
    2  A    between atoms: C_8  and  C_17
    3  A    between atoms: O_9  and  C_35
    4  A    between atoms: O_9  and  C_40
    5  A    between atoms: C_17  and  O_19
    6  A    between atoms: C_17  and  C_35
    7  A    between atoms: C_22  and  C_40
    8  A    between atoms: C_29  and  C_30
                            x       y       z     vdW  Elec       q    Type
                         _______ _______ _______ _____ _____    ______ ____

>  <TORSDO>
F 8

$$$$
=
 OpenBabel11042413013D

 40 44  0  0  1  0  0  0  0  0999 V2000
  191.7210  177.4830  141.9010 C   0  0  0  0  0  0  0  0  0  0  0  0
  191.0180  177.5980  140.5630 C   0  0  1  0  0  3  0  0  0  0  0  0
  190.9470  176.2440  144.5840 C   0  0  0  0  0  2  0  0  0  0  0  0
  186.3410  178.2970  145.1880 C   0  0  0  0  0  0  0  0  0  0  0  0
  191.1920  175.0710  137.9570 O   0  0  0  0  0  0  0  0  0  0  0  0
  187.7070  177.0370  141.9180 C   0  0  0  0  0  2  0  0  0  0  0  0
  185.2650  179.0160  145.9150 C   0  0  0  0  0  3  0  0  0  0  0  0
  191.4620  176.5420  139.6960 O   0  0  0  0  0  0  0  0  0  0  0  0
  189.6860  176.1390  143.9320 O   0  0  0  0  0  0  0  0  0  0  0  0
  186.8590  178.2370  147.3840 N   0  0  0  0  0  0  0  0  0  0  0  0
  188.3670  177.1270  145.7170 C   0  0  0  0  0  3  0  0  0  0  0  0
  189.2140  176.2680  138.6050 C   0  0  1  0  0  3  0  0  0  0  0  0
  191.2620  178.1780  143.0710 N   0  0  0  0  0  0  0  0  0  0  0  0
  186.4840  178.0450  143.8270 C   0  0  0  0  0  3  0  0  0  0  0  0
  190.6830  175.9570  138.6940 C   0  0  0  0  0  0  0  0  0  0  0  0
  188.9900  176.6500  141.5030 O   0  0  0  0  0  0  0  0  0  0  0  0
  189.4730  177.6750  140.6720 C   0  0  2  0  0  3  0  0  0  0  0  0
  188.8250  177.5830  139.2780 C   0  0  1  0  0  3  0  0  0  0  0  0
  185.6440  178.9530  147.3450 N   0  0  0  0  0  2  0  0  0  0  0  0
  187.2440  177.8570  146.0870 C   0  0  0  0  0  0  0  0  0  0  0  0
  188.5580  176.8500  144.3470 C   0  0  0  0  0  0  0  0  0  0  0  0
  192.7440  176.7500  141.9850 O   0  0  0  0  0  0  0  0  0  0  0  0
  187.6100  177.3180  143.3920 C   0  0  0  0  0  0  0  0  0  0  0  0
  191.5340  177.6490  144.4060 C   0  0  0  0  0  2  0  0  0  0  0  0
  190.1800  178.6590  137.6280 F   0  0  0  0  0  0  0  0  0  0  0  0
  187.9640  179.1060  137.6090 F   0  0  0  0  0  0  0  0  0  0  0  0
  189.0560  178.8280  138.4120 C   0  0  0  0  0  3  0  0  0  0  0  0
  190.5490  179.3800  142.9690 C   0  0  0  0  0  0  0  0  0  0  0  0
  189.9280  180.4100  142.8900 C   0  0  0  0  0  3  0  0  0  0  0  0
  189.4020  176.1430  136.0760 C   0  0  0  0  0  1  0  0  0  0  0  0
  188.4990  175.9580  137.2830 C   0  0  1  0  0  3  0  0  0  0  0  0
  188.0010  174.6500  137.3210 O   0  0  0  0  0  0  0  0  0  0  0  0
  187.3860  173.4050  135.3830 C   0  0  0  0  0  1  0  0  0  0  0  0
  187.0510  174.5740  136.2890 C   0  0  1  0  0  3  0  0  0  0  0  0
  185.6180  174.4190  136.8220 C   0  0  2  0  0  3  0  0  0  0  0  0
  185.0950  175.8000  137.2180 C   0  0  0  0  0  3  0  0  0  0  0  0
  185.1410  176.7000  135.9950 C   0  0  0  0  0  2  0  0  0  0  0  0
  183.8120  176.1740  136.4920 C   0  0  0  0  0  2  0  0  0  0  0  0
  185.5710  173.5190  137.8960 O   0  0  0  0  0  0  0  0  0  0  0  0
  184.5470  172.6280  137.5810 C   0  0  0  0  0  1  0  0  0  0  0  0
  1 22  2  0  0  0  0
  1 13  1  0  0  0  0
  2  8  1  6  0  0  0
  2 17  1  0  0  0  0
  2  1  1  0  0  0  0
  4  7  2  0  0  0  0
  4 20  1  0  0  0  0
  5 15  2  0  0  0  0
  6 23  1  0  0  0  0
  7 19  1  0  0  0  0
  9 21  1  0  0  0  0
  9  3  1  0  0  0  0
 11 20  1  0  0  0  0
 12 31  1  6  0  0  0
 12 15  1  0  0  0  0
 12 18  1  0  0  0  0
 13 24  1  0  0  0  0
 14  4  1  0  0  0  0
 15  8  1  0  0  0  0
 16  6  1  0  0  0  0
 17 16  1  1  0  0  0
 18 27  1  6  0  0  0
 18 17  1  0  0  0  0
 19 10  1  0  0  0  0
 20 10  2  0  0  0  0
 21 11  2  0  0  0  0
 23 14  2  0  0  0  0
 23 21  1  0  0  0  0
 24  3  1  0  0  0  0
 25 27  1  0  0  0  0
 26 27  1  0  0  0  0
 28 13  1  0  0  0  0
 29 28  3  0  0  0  0
 31 30  1  6  0  0  0
 31 32  1  0  0  0  0
 34 33  1  6  0  0  0
 34 35  1  0  0  0  0
 34 32  1  0  0  0  0
 35 36  1  0  0  0  0
 35 39  1  1  0  0  0
 37 38  1  0  0  0  0
 37 36  1  0  0  0  0
 38 36  1  0  0  0  0
 40 39  1  0  0  0  0
M  END
>  <MODEL>
5

>  <REMARK>
 VINA RESULT:      -5.2      5.161     10.181
  Name = 
  8 active torsions:
  status: ('A' for Active; 'I' for Inactive)
    1  A    between atoms: C_4  and  N_23
    2  A    between atoms: C_8  and  C_17
    3  A    between atoms: O_9  and  C_35
    4  A    between atoms: O_9  and  C_40
    5  A    between atoms: C_17  and  O_19
    6  A    between atoms: C_17  and  C_35
    7  A    between atoms: C_22  and  C_40
    8  A    between atoms: C_29  and  C_30
                            x       y       z     vdW  Elec       q    Type
                         _______ _______ _______ _____ _____    ______ ____

>  <TORSDO>
F 8

$$$$
=
 OpenBabel11042413013D

 40 44  0  0  1  0  0  0  0  0999 V2000
  180.3120  178.2160  139.8950 C   0  0  0  0  0  0  0  0  0  0  0  0
  181.6960  178.7170  140.2530 C   0  0  1  0  0  3  0  0  0  0  0  0
  179.0990  175.4290  139.5830 C   0  0  0  0  0  2  0  0  0  0  0  0
  182.5790  173.3060  136.5530 C   0  0  2  0  0  3  0  0  0  0  0  0
  182.8310  179.2760  143.6600 O   0  0  0  0  0  0  0  0  0  0  0  0
  183.3630  175.6120  139.4190 C   0  0  0  0  0  2  0  0  0  0  0  0
  183.0620  172.5490  135.3720 C   0  0  0  0  0  3  0  0  0  0  0  0
  181.7450  179.0280  141.6550 O   0  0  0  0  0  0  0  0  0  0  0  0
  180.4670  175.0520  139.7020 O   0  0  0  0  0  0  0  0  0  0  0  0
  180.8170  172.1690  135.7170 N   0  0  0  0  0  0  0  0  0  0  0  0
  180.5240  173.5980  137.7550 C   0  0  0  0  0  3  0  0  0  0  0  0
  184.1280  178.2670  141.9100 C   0  0  1  0  0  3  0  0  0  0  0  0
  180.0400  177.5260  138.6640 N   0  0  0  0  0  0  0  0  0  0  0  0
  183.2720  174.1460  137.4190 C   0  0  0  0  0  3  0  0  0  0  0  0
  182.8900  178.9280  142.4510 C   0  0  0  0  0  0  0  0  0  0  0  0
  182.5700  176.4520  140.2150 O   0  0  0  0  0  0  0  0  0  0  0  0
  182.8400  177.7690  139.8080 C   0  0  2  0  0  3  0  0  0  0  0  0
  184.1890  178.2400  140.3830 C   0  0  1  0  0  3  0  0  0  0  0  0
  181.8800  171.8210  134.8570 N   0  0  0  0  0  0  0  0  0  0  0  0
  181.2660  173.0490  136.7170 C   0  0  0  0  0  0  0  0  0  0  0  0
  181.1820  174.4600  138.6580 C   0  0  0  0  0  0  0  0  0  0  0  0
  179.3680  178.4130  140.7080 O   0  0  0  0  0  0  0  0  0  0  0  0
  182.5680  174.7410  138.4860 C   0  0  0  0  0  0  0  0  0  0  0  0
  178.9380  176.5710  138.5730 C   0  0  0  0  0  2  0  0  0  0  0  0
  185.6500  179.2480  138.7820 F   0  0  0  0  0  0  0  0  0  0  0  0
  183.6830  180.2840  139.1960 F   0  0  0  0  0  0  0  0  0  0  0  0
  184.7070  179.5360  139.7490 C   0  0  0  0  0  3  0  0  0  0  0  0
  180.8160  177.7510  137.5190 C   0  0  0  0  0  0  0  0  0  0  0  0
  181.4910  177.9390  136.5380 C   0  0  0  0  0  3  0  0  0  0  0  0
  185.4490  179.8690  143.3720 C   0  0  0  0  0  1  0  0  0  0  0  0
  185.4560  178.5450  142.6260 C   0  0  1  0  0  3  0  0  0  0  0  0
  185.7380  177.4930  143.5070 O   0  0  0  0  0  0  0  0  0  0  0  0
  185.6730  178.0370  145.8260 C   0  0  0  0  0  1  0  0  0  0  0  0
  186.4890  178.0590  144.5490 C   0  0  1  0  0  3  0  0  0  0  0  0
  187.8210  177.3270  144.7760 C   0  0  2  0  0  3  0  0  0  0  0  0
  188.5430  177.9870  145.9510 C   0  0  0  0  0  3  0  0  0  0  0  0
  188.3840  177.0990  147.1740 C   0  0  0  0  0  2  0  0  0  0  0  0
  189.7170  177.1630  146.4590 C   0  0  0  0  0  2  0  0  0  0  0  0
  188.6080  177.3340  143.6150 O   0  0  0  0  0  0  0  0  0  0  0  0
  188.7060  175.9970  143.2340 C   0  0  0  0  0  1  0  0  0  0  0  0
  1 22  2  0  0  0  0
  2  1  1  1  0  0  0
  2  8  1  0  0  0  0
  3  9  1  0  0  0  0
  4  7  1  1  0  0  0
  4 20  1  0  0  0  0
  4 14  1  0  0  0  0
  6 16  1  0  0  0  0
  8 15  1  0  0  0  0
 10 20  2  0  0  0  0
 11 21  2  0  0  0  0
 12 15  1  0  0  0  0
 12 31  1  1  0  0  0
 13  1  1  0  0  0  0
 14 23  2  0  0  0  0
 15  5  2  0  0  0  0
 17 16  1  1  0  0  0
 17  2  1  0  0  0  0
 17 18  1  0  0  0  0
 18 27  1  6  0  0  0
 18 12  1  0  0  0  0
 19  7  2  0  0  0  0
 19 10  1  0  0  0  0
 20 11  1  0  0  0  0
 21  9  1  0  0  0  0
 23 21  1  0  0  0  0
 23  6  1  0  0  0  0
 24 13  1  0  0  0  0
 24  3  1  0  0  0  0
 25 27  1  0  0  0  0
 26 27  1  0  0  0  0
 28 13  1  0  0  0  0
 29 28  3  0  0  0  0
 31 30  1  1  0  0  0
 31 32  1  0  0  0  0
 32 34  1  0  0  0  0
 34 35  1  0  0  0  0
 34 33  1  1  0  0  0
 35 39  1  6  0  0  0
 35 36  1  0  0  0  0
 36 38  1  0  0  0  0
 36 37  1  0  0  0  0
 38 37  1  0  0  0  0
 40 39  1  0  0  0  0
M  END
>  <MODEL>
6

>  <REMARK>
 VINA RESULT:      -5.1      1.623      2.242
  Name = 
  8 active torsions:
  status: ('A' for Active; 'I' for Inactive)
    1  A    between atoms: C_4  and  N_23
    2  A    between atoms: C_8  and  C_17
    3  A    between atoms: O_9  and  C_35
    4  A    between atoms: O_9  and  C_40
    5  A    between atoms: C_17  and  O_19
    6  A    between atoms: C_17  and  C_35
    7  A    between atoms: C_22  and  C_40
    8  A    between atoms: C_29  and  C_30
                            x       y       z     vdW  Elec       q    Type
                         _______ _______ _______ _____ _____    ______ ____

>  <TORSDO>
F 8

$$$$
=
 OpenBabel11042413013D

 40 44  0  0  1  0  0  0  0  0999 V2000
  183.1580  178.5250  138.4680 C   0  0  0  0  0  0  0  0  0  0  0  0
  184.6310  178.5520  138.1150 C   0  0  1  0  0  3  0  0  0  0  0  0
  181.2320  176.3030  139.2980 C   0  0  0  0  0  2  0  0  0  0  0  0
  182.2350  172.8910  135.6720 C   0  0  2  0  0  3  0  0  0  0  0  0
  187.2930  178.9560  140.5560 O   0  0  0  0  0  0  0  0  0  0  0  0
  184.8260  175.0100  137.3880 C   0  0  0  0  0  2  0  0  0  0  0  0
  181.9040  171.9240  134.5960 C   0  0  0  0  0  3  0  0  0  0  0  0
  185.3930  178.9360  139.2710 O   0  0  0  0  0  0  0  0  0  0  0  0
  182.3450  175.4930  138.9340 O   0  0  0  0  0  0  0  0  0  0  0  0
  180.0530  172.3600  135.8940 N   0  0  0  0  0  0  0  0  0  0  0  0
  181.1160  173.9590  137.5050 C   0  0  0  0  0  3  0  0  0  0  0  0
  187.3250  177.4310  138.7020 C   0  0  1  0  0  3  0  0  0  0  0  0
  182.1820  177.8750  137.6390 N   0  0  0  0  0  0  0  0  0  0  0  0
  183.4440  173.5100  135.9750 C   0  0  0  0  0  3  0  0  0  0  0  0
  186.7000  178.5150  139.5360 C   0  0  0  0  0  0  0  0  0  0  0  0
  184.7420  176.1290  138.2300 O   0  0  0  0  0  0  0  0  0  0  0  0
  185.1430  177.2390  137.4680 C   0  0  2  0  0  3  0  0  0  0  0  0
  186.6770  177.2650  137.3280 C   0  0  1  0  0  3  0  0  0  0  0  0
  180.4700  171.6050  134.7780 N   0  0  0  0  0  0  0  0  0  0  0  0
  181.1260  173.1100  136.4050 C   0  0  0  0  0  0  0  0  0  0  0  0
  182.3180  174.6130  137.8490 C   0  0  0  0  0  0  0  0  0  0  0  0
  182.7790  179.0950  139.5280 O   0  0  0  0  0  0  0  0  0  0  0  0
  183.4920  174.3910  137.0740 C   0  0  0  0  0  0  0  0  0  0  0  0
  180.9460  177.3490  138.2150 C   0  0  0  0  0  2  0  0  0  0  0  0
  186.3990  178.1700  135.1330 F   0  0  0  0  0  0  0  0  0  0  0  0
  187.1820  179.5550  136.7390 F   0  0  0  0  0  0  0  0  0  0  0  0
  187.1800  178.2540  136.2690 C   0  0  0  0  0  3  0  0  0  0  0  0
  182.3800  177.7320  136.2580 C   0  0  0  0  0  0  0  0  0  0  0  0
  182.5400  177.6070  135.0700 C   0  0  0  0  0  3  0  0  0  0  0  0
  189.5120  177.7830  137.4590 C   0  0  0  0  0  1  0  0  0  0  0  0
  188.8540  177.2960  138.7390 C   0  0  1  0  0  3  0  0  0  0  0  0
  189.3550  178.0000  139.8410 O   0  0  0  0  0  0  0  0  0  0  0  0
  191.5430  177.1180  140.1810 C   0  0  0  0  0  1  0  0  0  0  0  0
  190.0850  177.0640  140.5910 C   0  0  1  0  0  3  0  0  0  0  0  0
  189.9660  177.3040  142.1050 C   0  0  2  0  0  3  0  0  0  0  0  0
  191.3700  177.4940  142.6780 C   0  0  0  0  0  3  0  0  0  0  0  0
  191.2720  178.3720  143.9140 C   0  0  0  0  0  2  0  0  0  0  0  0
  191.5280  176.8880  144.0650 C   0  0  0  0  0  2  0  0  0  0  0  0
  189.2880  176.2500  142.7340 O   0  0  0  0  0  0  0  0  0  0  0  0
  188.0170  176.7480  143.0110 C   0  0  0  0  0  1  0  0  0  0  0  0
  1 22  2  0  0  0  0
  2  1  1  1  0  0  0
  2  8  1  0  0  0  0
  4  7  1  1  0  0  0
  4 14  1  0  0  0  0
  4 20  1  0  0  0  0
  6 16  1  0  0  0  0
  7 19  2  0  0  0  0
  8 15  1  0  0  0  0
  9  3  1  0  0  0  0
 10 20  2  0  0  0  0
 11 21  2  0  0  0  0
 12 31  1  6  0  0  0
 12 15  1  0  0  0  0
 13 24  1  0  0  0  0
 13  1  1  0  0  0  0
 14 23  2  0  0  0  0
 15  5  2  0  0  0  0
 17  2  1  0  0  0  0
 17 16  1  1  0  0  0
 18 27  1  6  0  0  0
 18 17  1  0  0  0  0
 18 12  1  0  0  0  0
 19 10  1  0  0  0  0
 20 11  1  0  0  0  0
 21  9  1  0  0  0  0
 23  6  1  0  0  0  0
 23 21  1  0  0  0  0
 24  3  1  0  0  0  0
 25 27  1  0  0  0  0
 27 26  1  0  0  0  0
 28 13  1  0  0  0  0
 29 28  3  0  0  0  0
 31 30  1  6  0  0  0
 31 32  1  0  0  0  0
 32 34  1  0  0  0  0
 34 33  1  6  0  0  0
 34 35  1  0  0  0  0
 35 36  1  0  0  0  0
 35 39  1  1  0  0  0
 36 37  1  0  0  0  0
 36 38  1  0  0  0  0
 37 38  1  0  0  0  0
 39 40  1  0  0  0  0
M  END
>  <MODEL>
7

>  <REMARK>
 VINA RESULT:      -5.0      2.916      4.383
  Name = 
  8 active torsions:
  status: ('A' for Active; 'I' for Inactive)
    1  A    between atoms: C_4  and  N_23
    2  A    between atoms: C_8  and  C_17
    3  A    between atoms: O_9  and  C_35
    4  A    between atoms: O_9  and  C_40
    5  A    between atoms: C_17  and  O_19
    6  A    between atoms: C_17  and  C_35
    7  A    between atoms: C_22  and  C_40
    8  A    between atoms: C_29  and  C_30
                            x       y       z     vdW  Elec       q    Type
                         _______ _______ _______ _____ _____    ______ ____

>  <TORSDO>
F 8

$$$$
=
 OpenBabel11042413013D

 40 44  0  0  1  0  0  0  0  0999 V2000
  191.0350  176.3570  138.0700 C   0  0  0  0  0  0  0  0  0  0  0  0
  190.8140  176.3000  139.5680 C   0  0  1  0  0  3  0  0  0  0  0  0
  189.8520  178.0680  135.8330 C   0  0  0  0  0  2  0  0  0  0  0  0
  184.9070  177.5400  136.8630 C   0  0  0  0  0  0  0  0  0  0  0  0
  192.6240  178.3470  141.9640 O   0  0  0  0  0  0  0  0  0  0  0  0
  187.5970  177.9590  139.4580 C   0  0  0  0  0  2  0  0  0  0  0  0
  183.4840  177.2560  136.5530 C   0  0  0  0  0  3  0  0  0  0  0  0
  191.8280  177.0720  140.2320 O   0  0  0  0  0  0  0  0  0  0  0  0
  188.9780  178.4630  136.8850 O   0  0  0  0  0  0  0  0  0  0  0  0
  184.6630  177.6970  134.6250 N   0  0  0  0  0  0  0  0  0  0  0  0
  186.9050  178.1170  135.6660 C   0  0  0  0  0  2  0  0  0  0  0  0
  190.2730  177.8660  142.0400 C   0  0  1  0  0  3  0  0  0  0  0  0
  190.0220  175.9670  137.1290 N   0  0  0  0  0  0  0  0  0  0  0  0
  185.5620  177.5800  138.0900 C   0  0  0  0  0  3  0  0  0  0  0  0
  191.6480  177.7410  141.4460 C   0  0  0  0  0  0  0  0  0  0  0  0
  188.9980  177.9030  139.4010 O   0  0  0  0  0  0  0  0  0  0  0  0
  189.3790  176.6920  140.0050 C   0  0  2  0  0  3  0  0  0  0  0  0
  189.2910  176.8080  141.5380 C   0  0  1  0  0  3  0  0  0  0  0  0
  183.3690  177.3700  135.0810 N   0  0  0  0  0  0  0  0  0  0  0  0
  185.5530  177.7960  135.7080 C   0  0  0  0  0  0  0  0  0  0  0  0
  187.6130  178.1660  136.8850 C   0  0  0  0  0  0  0  0  0  0  0  0
  192.1490  176.7630  137.6380 O   0  0  0  0  0  0  0  0  0  0  0  0
  186.9370  177.8900  138.1090 C   0  0  0  0  0  0  0  0  0  0  0  0
  189.9910  176.5430  135.7860 C   0  0  0  0  0  2  0  0  0  0  0  0
  190.6060  175.3560  142.9080 F   0  0  0  0  0  0  0  0  0  0  0  0
  188.3610  175.2870  143.1710 F   0  0  0  0  0  0  0  0  0  0  0  0
  189.3900  175.4600  142.2620 C   0  0  0  0  0  3  0  0  0  0  0  0
  189.0430  175.0230  137.4670 C   0  0  0  0  0  0  0  0  0  0  0  0
  188.1950  174.2130  137.7460 C   0  0  0  0  0  3  0  0  0  0  0  0
  190.7310  179.5930  143.8450 C   0  0  0  0  0  1  0  0  0  0  0  0
  190.1700  178.2170  143.5310 C   0  0  1  0  0  3  0  0  0  0  0  0
  188.8310  178.1340  143.9350 O   0  0  0  0  0  0  0  0  0  0  0  0
  190.2390  177.1250  145.5720 C   0  0  0  0  0  1  0  0  0  0  0  0
  188.8230  177.2900  145.0570 C   0  0  1  0  0  3  0  0  0  0  0  0
  187.9230  177.8210  146.1840 C   0  0  2  0  0  3  0  0  0  0  0  0
  188.3990  177.2200  147.5070 C   0  0  0  0  0  3  0  0  0  0  0  0
  189.1720  178.2840  148.2690 C   0  0  0  0  0  2  0  0  0  0  0  0
  187.7790  177.9000  148.7190 C   0  0  0  0  0  2  0  0  0  0  0  0
  186.5750  177.5270  145.9370 O   0  0  0  0  0  0  0  0  0  0  0  0
  185.9360  178.7640  145.8860 C   0  0  0  0  0  1  0  0  0  0  0  0
  2  1  1  6  0  0  0
  2 17  1  0  0  0  0
  2  8  1  0  0  0  0
  3  9  1  0  0  0  0
  4 14  2  0  0  0  0
  7  4  1  0  0  0  0
  8 15  1  0  0  0  0
  9 21  1  0  0  0  0
 10 19  1  0  0  0  0
 10 20  2  0  0  0  0
 11 20  1  0  0  0  0
 11 21  1  0  0  0  0
 12 31  1  1  0  0  0
 13 28  1  0  0  0  0
 13  1  1  0  0  0  0
 14 23  1  0  0  0  0
 15  5  2  0  0  0  0
 15 12  1  0  0  0  0
 16  6  1  0  0  0  0
 17 16  1  6  0  0  0
 17 18  1  0  0  0  0
 18 12  1  0  0  0  0
 18 27  1  1  0  0  0
 19  7  2  0  0  0  0
 20  4  1  0  0  0  0
 21 23  2  0  0  0  0
 22  1  2  0  0  0  0
 23  6  1  0  0  0  0
 24  3  1  0  0  0  0
 24 13  1  0  0  0  0
 27 25  1  0  0  0  0
 27 26  1  0  0  0  0
 28 29  3  0  0  0  0
 31 30  1  6  0  0  0
 31 32  1  0  0  0  0
 32 34  1  0  0  0  0
 34 33  1  1  0  0  0
 34 35  1  0  0  0  0
 35 39  1  6  0  0  0
 35 36  1  0  0  0  0
 36 37  1  0  0  0  0
 36 38  1  0  0  0  0
 37 38  1  0  0  0  0
 40 39  1  0  0  0  0
M  END
>  <MODEL>
8

>  <REMARK>
 VINA RESULT:      -5.0      4.558      7.317
  Name = 
  8 active torsions:
  status: ('A' for Active; 'I' for Inactive)
    1  A    between atoms: C_4  and  N_23
    2  A    between atoms: C_8  and  C_17
    3  A    between atoms: O_9  and  C_35
    4  A    between atoms: O_9  and  C_40
    5  A    between atoms: C_17  and  O_19
    6  A    between atoms: C_17  and  C_35
    7  A    between atoms: C_22  and  C_40
    8  A    between atoms: C_29  and  C_30
                            x       y       z     vdW  Elec       q    Type
                         _______ _______ _______ _____ _____    ______ ____

>  <TORSDO>
F 8

$$$$
=
 OpenBabel11042413013D

 40 44  0  0  1  0  0  0  0  0999 V2000
  180.9000  179.4050  141.7490 C   0  0  0  0  0  0  0  0  0  0  0  0
  182.3620  179.4910  142.1340 C   0  0  1  0  0  3  0  0  0  0  0  0
  179.0960  177.1160  140.8310 C   0  0  0  0  0  2  0  0  0  0  0  0
  182.0000  175.1480  137.1580 C   0  0  2  0  0  3  0  0  0  0  0  0
  183.6130  178.9040  145.4950 O   0  0  0  0  0  0  0  0  0  0  0  0
  183.2930  176.4220  140.4520 C   0  0  0  0  0  2  0  0  0  0  0  0
  182.2970  174.6340  135.7980 C   0  0  0  0  0  3  0  0  0  0  0  0
  182.4870  179.4150  143.5630 O   0  0  0  0  0  0  0  0  0  0  0  0
  180.3470  176.4380  140.7670 O   0  0  0  0  0  0  0  0  0  0  0  0
  180.0260  174.6660  136.1770 N   0  0  0  0  0  0  0  0  0  0  0  0
  180.0690  175.5540  138.5210 C   0  0  0  0  0  3  0  0  0  0  0  0
  184.6430  178.1240  143.4720 C   0  0  1  0  0  3  0  0  0  0  0  0
  180.4740  179.1270  140.4050 N   0  0  0  0  0  0  0  0  0  0  0  0
  182.8680  175.5700  138.1600 C   0  0  0  0  0  3  0  0  0  0  0  0
  183.5860  178.8730  144.2360 C   0  0  0  0  0  0  0  0  0  0  0  0
  182.7110  177.1790  141.4800 O   0  0  0  0  0  0  0  0  0  0  0  0
  183.2650  178.4670  141.3970 C   0  0  2  0  0  3  0  0  0  0  0  0
  184.6880  178.4770  141.9860 C   0  0  1  0  0  3  0  0  0  0  0  0
  180.9800  174.3310  135.1930 N   0  0  0  0  0  0  0  0  0  0  0  0
  180.6640  175.1430  137.3340 C   0  0  0  0  0  0  0  0  0  0  0  0
  180.9070  175.9950  139.5660 C   0  0  0  0  0  0  0  0  0  0  0  0
  180.0270  179.5840  142.6430 O   0  0  0  0  0  0  0  0  0  0  0  0
  182.3190  176.0090  139.3830 C   0  0  0  0  0  0  0  0  0  0  0  0
  179.1860  178.4850  140.1490 C   0  0  0  0  0  2  0  0  0  0  0  0
  185.6790  180.4890  142.8120 F   0  0  0  0  0  0  0  0  0  0  0  0
  186.6950  179.4670  141.0690 F   0  0  0  0  0  0  0  0  0  0  0  0
  185.4770  179.7510  141.6620 C   0  0  0  0  0  3  0  0  0  0  0  0
  181.2740  179.4680  139.3050 C   0  0  0  0  0  0  0  0  0  0  0  0
  181.9700  179.7560  138.3650 C   0  0  0  0  0  3  0  0  0  0  0  0
  185.9200  177.0030  145.3590 C   0  0  0  0  0  1  0  0  0  0  0  0
  186.0040  177.9200  144.1510 C   0  0  1  0  0  3  0  0  0  0  0  0
  186.9170  177.4130  143.2170 O   0  0  0  0  0  0  0  0  0  0  0  0
  188.5770  175.7040  143.2150 C   0  0  0  0  0  1  0  0  0  0  0  0
  187.9690  176.8690  143.9700 C   0  0  1  0  0  3  0  0  0  0  0  0
  189.0610  177.9050  144.2850 C   0  0  2  0  0  3  0  0  0  0  0  0
  190.4140  177.3250  143.8700 C   0  0  0  0  0  3  0  0  0  0  0  0
  190.7740  177.8770  142.5010 C   0  0  0  0  0  2  0  0  0  0  0  0
  191.4920  178.3890  143.7310 C   0  0  0  0  0  2  0  0  0  0  0  0
  189.0440  178.2620  145.6410 O   0  0  0  0  0  0  0  0  0  0  0  0
  189.4140  177.1070  146.3270 C   0  0  0  0  0  1  0  0  0  0  0  0
  1 22  2  0  0  0  0
  2  1  1  1  0  0  0
  2  8  1  0  0  0  0
  4  7  1  1  0  0  0
  4 20  1  0  0  0  0
  4 14  1  0  0  0  0
  6 16  1  0  0  0  0
  8 15  1  0  0  0  0
  9  3  1  0  0  0  0
 10 20  2  0  0  0  0
 11 21  2  0  0  0  0
 12 31  1  1  0  0  0
 12 15  1  0  0  0  0
 13  1  1  0  0  0  0
 14 23  2  0  0  0  0
 15  5  2  0  0  0  0
 17 16  1  1  0  0  0
 17 18  1  0  0  0  0
 17  2  1  0  0  0  0
 18 27  1  1  0  0  0
 18 12  1  0  0  0  0
 19  7  2  0  0  0  0
 19 10  1  0  0  0  0
 20 11  1  0  0  0  0
 21  9  1  0  0  0  0
 23 21  1  0  0  0  0
 23  6  1  0  0  0  0
 24 13  1  0  0  0  0
 24  3  1  0  0  0  0
 26 27  1  0  0  0  0
 27 25  1  0  0  0  0
 28 13  1  0  0  0  0
 29 28  3  0  0  0  0
 31 30  1  1  0  0  0
 32 34  1  0  0  0  0
 32 31  1  0  0  0  0
 34 33  1  6  0  0  0
 34 35  1  0  0  0  0
 35 39  1  1  0  0  0
 36 35  1  0  0  0  0
 37 38  1  0  0  0  0
 37 36  1  0  0  0  0
 38 36  1  0  0  0  0
 39 40  1  0  0  0  0
M  END
>  <MODEL>
9

>  <REMARK>
 VINA RESULT:      -4.9      2.248      3.939
  Name = 
  8 active torsions:
  status: ('A' for Active; 'I' for Inactive)
    1  A    between atoms: C_4  and  N_23
    2  A    between atoms: C_8  and  C_17
    3  A    between atoms: O_9  and  C_35
    4  A    between atoms: O_9  and  C_40
    5  A    between atoms: C_17  and  O_19
    6  A    between atoms: C_17  and  C_35
    7  A    between atoms: C_22  and  C_40
    8  A    between atoms: C_29  and  C_30
                            x       y       z     vdW  Elec       q    Type
                         _______ _______ _______ _____ _____    ______ ____

>  <TORSDO>
F 8

$$$$
