=
 OpenBabel11042410333D

 67 72  0  0  1  0  0  0  0  0999 V2000
  181.9160  178.5300  141.5540 O   0  0  0  0  0  0  0  0  0  0  0  0
  181.1250  179.4400  142.2650 C   0  0  2  0  0  3  0  0  0  0  0  0
  182.2320  178.3430  144.3210 C   0  0  2  0  0  3  0  0  0  0  0  0
  183.3470  179.3710  144.3970 C   0  0  2  0  0  3  0  0  0  0  0  0
  183.4510  178.2380  143.3910 C   0  0  2  0  0  3  0  0  0  0  0  0
  183.2290  178.7920  141.9750 C   0  0  1  0  0  3  0  0  0  0  0  0
  180.9560  178.9480  143.7060 C   0  0  0  0  0  2  0  0  0  0  0  0
  179.7630  179.6500  141.5880 C   0  0  0  0  0  0  0  0  0  0  0  0
  179.0660  180.6050  142.3070 F   0  0  0  0  0  0  0  0  0  0  0  0
  179.0160  178.4740  141.6200 F   0  0  0  0  0  0  0  0  0  0  0  0
  179.9340  180.1520  140.2780 O   0  0  0  0  0  0  0  0  0  0  0  0
  179.3950  181.9580  138.8190 C   0  0  0  0  0  1  0  0  0  0  0  0
  179.6440  181.5250  140.2500 C   0  0  0  0  0  2  0  0  0  0  0  0
  184.2460  178.1630  141.0150 C   0  0  2  0  0  3  0  0  0  0  0  0
  185.2670  179.2090  140.5860 C   0  0  0  0  0  2  0  0  0  0  0  0
  186.0110  179.6340  141.6900 O   0  0  0  0  0  1  0  0  0  0  0  0
  183.5710  177.5900  139.7770 C   0  0  0  0  0  2  0  0  0  0  0  0
  183.8340  178.4900  138.5860 C   0  0  0  0  0  2  0  0  0  0  0  0
  185.1310  178.0900  137.9250 C   0  0  0  0  0  2  0  0  0  0  0  0
  185.2060  176.5630  135.9240 C   0  0  0  0  0  0  0  0  0  0  0  0
  184.9740  176.7850  137.3160 N   0  0  0  0  0  2  0  0  0  0  0  0
  185.4660  177.5330  135.1600 O   0  0  0  0  0  0  0  0  0  0  0  0
  185.4930  173.3760  137.1400 C   0  0  0  0  0  3  0  0  0  0  0  0
  184.0100  173.1390  137.2320 C   0  0  0  0  0  2  0  0  0  0  0  0
  186.0680  174.2290  136.2740 C   0  0  0  0  0  0  0  0  0  0  0  0
  183.8030  174.6430  135.2140 C   0  0  0  0  0  2  0  0  0  0  0  0
  185.2320  175.1510  135.4090 C   0  0  1  0  0  3  0  0  0  0  0  0
  183.2040  174.2570  136.5680 C   0  0  1  0  0  3  0  0  0  0  0  0
  187.4970  174.3570  136.2050 N   0  0  0  0  0  2  0  0  0  0  0  0
  187.8260  175.9640  137.8910 O   0  0  0  0  0  0  0  0  0  0  0  0
  188.3230  175.2200  137.0030 C   0  0  0  0  0  0  0  0  0  0  0  0
  189.7990  175.2340  136.7890 C   0  0  0  0  0  2  0  0  0  0  0  0
  191.3930  175.7390  134.8810 N   0  0  0  0  0  2  0  0  0  0  0  0
  190.1680  176.0090  135.5640 C   0  0  0  0  0  0  0  0  0  0  0  0
  189.4240  176.9380  135.1560 O   0  0  0  0  0  0  0  0  0  0  0  0
  192.2200  174.7310  135.2610 O   0  0  0  0  0  0  0  0  0  0  0  0
  194.0950  176.2220  135.3110 C   0  0  0  0  0  1  0  0  0  0  0  0
  193.1620  175.3250  136.1080 C   0  0  2  0  0  3  0  0  0  0  0  0
  194.2200  173.1720  135.9950 O   0  0  0  0  0  1  0  0  0  0  0  0
  193.9540  174.2500  136.8380 C   0  0  0  0  0  2  0  0  0  0  0  0
  181.8180  173.9870  136.5160 O   0  0  0  0  0  0  0  0  0  0  0  0
  181.3860  173.5450  137.7800 C   0  0  0  0  0  2  0  0  0  0  0  0
  179.6940  175.1200  137.1940 O   0  0  0  0  0  1  0  0  0  0  0  0
  180.2010  174.3700  138.2560 C   0  0  0  0  0  0  0  0  0  0  0  0
  179.2040  173.5300  138.7520 O   0  0  0  0  0  1  0  0  0  0  0  0
  180.6570  175.3070  139.3560 C   0  0  0  0  0  1  0  0  0  0  0  0
  184.2150  179.0750  145.5260 N   0  0  0  0  0  2  0  0  0  0  0  0
  185.5480  178.7860  145.0100 C   0  0  0  0  0  2  0  0  0  0  0  0
  186.1180  177.5240  145.6430 C   0  0  0  0  0  2  0  0  0  0  0  0
  188.4170  178.4530  145.5690 C   0  0  0  0  0  2  0  0  0  0  0  0
  190.2100  176.6920  145.2680 C   0  0  1  0  0  3  0  0  0  0  0  0
  187.5350  177.2730  145.1630 C   0  0  2  0  0  3  0  0  0  0  0  0
  189.6640  178.8510  142.7230 C   0  0  0  0  0  2  0  0  0  0  0  0
  189.8980  178.1970  145.2830 C   0  0  1  0  0  3  0  0  0  0  0  0
  190.3950  179.0100  144.0740 C   0  0  1  0  0  3  0  0  0  0  0  0
  188.6190  177.5340  140.8800 C   0  0  0  0  0  1  0  0  0  0  0  0
  191.9050  179.0990  143.9630 C   0  0  0  0  0  1  0  0  0  0  0  0
  188.7520  176.5150  143.1210 C   0  0  1  0  0  3  0  0  0  0  0  0
  187.5320  177.1100  143.7140 N   0  0  0  0  0  2  0  0  0  0  0  0
  191.0920  175.9770  143.0320 C   0  0  0  0  0  2  0  0  0  0  0  0
  189.4600  177.4220  142.1390 C   0  0  2  0  0  0  0  0  0  0  0  0
  190.6970  176.6940  141.8190 N   0  0  0  0  0  0  0  0  0  0  0  0
  191.7910  177.5430  141.3580 C   0  0  0  0  0  1  0  0  0  0  0  0
  189.8850  175.9220  143.9770 C   0  0  1  0  0  3  0  0  0  0  0  0
  191.9420  177.0390  146.8660 O   0  0  0  0  0  1  0  0  0  0  0  0
  191.4540  176.2770  145.9890 C   0  0  0  0  0  0  0  0  0  0  0  0
  192.0540  175.0490  145.7340 O   0  0  0  0  0  0  0  0  0  0  0  0
  1  6  1  0  0  0  0
  1  2  1  0  0  0  0
  2  8  1  6  0  0  0
  2  7  1  0  0  0  0
  3  7  1  6  0  0  0
  3  4  1  0  0  0  0
  4 47  1  1  0  0  0
  5  3  1  0  0  0  0
  5  4  1  0  0  0  0
  6  5  1  0  0  0  0
  8 10  1  0  0  0  0
  8  9  1  0  0  0  0
 11  8  1  0  0  0  0
 12 13  1  0  0  0  0
 13 11  1  0  0  0  0
 14  6  1  0  0  0  0
 15 14  1  0  0  0  0
 15 16  1  0  0  0  0
 17 14  1  0  0  0  0
 18 17  1  0  0  0  0
 19 18  1  0  0  0  0
 20 21  1  0  0  0  0
 21 19  1  0  0  0  0
 22 20  2  0  0  0  0
 23 24  1  0  0  0  0
 25 23  2  0  0  0  0
 26 27  1  0  0  0  0
 26 28  1  0  0  0  0
 27 20  1  0  0  0  0
 27 25  1  0  0  0  0
 28 24  1  0  0  0  0
 29 25  1  0  0  0  0
 29 31  1  0  0  0  0
 31 30  2  0  0  0  0
 32 31  1  0  0  0  0
 33 36  1  0  0  0  0
 33 34  1  0  0  0  0
 34 32  1  0  0  0  0
 35 34  2  0  0  0  0
 36 38  1  0  0  0  0
 37 38  1  0  0  0  0
 38 40  1  0  0  0  0
 39 40  1  0  0  0  0
 41 28  1  0  0  0  0
 41 42  1  0  0  0  0
 42 44  1  0  0  0  0
 43 44  1  0  0  0  0
 44 45  1  0  0  0  0
 44 46  1  0  0  0  0
 48 47  1  0  0  0  0
 48 49  1  0  0  0  0
 51 54  1  0  0  0  0
 51 66  1  0  0  0  0
 52 50  1  0  0  0  0
 52 49  1  0  0  0  0
 53 55  1  0  0  0  0
 54 50  1  0  0  0  0
 55 54  1  0  0  0  0
 56 61  1  0  0  0  0
 57 55  1  0  0  0  0
 58 59  1  0  0  0  0
 58 64  1  0  0  0  0
 59 52  1  0  0  0  0
 60 64  1  0  0  0  0
 61 53  1  0  0  0  0
 61 58  1  0  0  0  0
 62 61  1  0  0  0  0
 62 60  1  0  0  0  0
 63 62  1  0  0  0  0
 64 51  1  0  0  0  0
 66 65  1  0  0  0  0
 67 66  2  0  0  0  0
M  END
>  <MODEL>
1

>  <REMARK>
 VINA RESULT:      -6.9      0.000      0.000
  Name = 
  24 active torsions:
  status: ('A' for Active; 'I' for Inactive)
    1  A    between atoms: C_4  and  C_8
    2  A    between atoms: N_5  and  O_43
    3  A    between atoms: C_7  and  C_25
    4  A    between atoms: N_9  and  C_15
    5  A    between atoms: N_9  and  C_29
    6  A    between atoms: C_10  and  C_54
    7  A    between atoms: C_11  and  C_20
    8  A    between atoms: C_13  and  C_62
    9  A    between atoms: C_15  and  C_20
   10  A    between atoms: C_16  and  C_66
   11  A    between atoms: C_16  and  C_67
   12  A    between atoms: C_17  and  C_51
   13  A    between atoms: C_17  and  C_60
   14  A    between atoms: C_17  and  C_66
   15  A    between atoms: N_19  and  C_27
   16  A    between atoms: O_22  and  C_39
   17  A    between atoms: O_22  and  C_55
   18  A    between atoms: C_24  and  C_39
   19  A    between atoms: C_25  and  O_49
   20  A    between atoms: N_30  and  C_67
   21  A    between atoms: C_38  and  C_41
   22  A    between atoms: C_38  and  O_43
   23  A    between atoms: O_49  and  C_59
   24  A    between atoms: C_58  and  C_62
                            x       y       z     vdW  Elec       q    Type
                         _______ _______ _______ _____ _____    ______ ____

>  <TORSDO>
F 24

$$$$
=
 OpenBabel11042410333D

 67 72  0  0  1  0  0  0  0  0999 V2000
  182.0800  178.3120  141.4690 O   0  0  0  0  0  0  0  0  0  0  0  0
  181.1820  179.1510  142.1410 C   0  0  2  0  0  3  0  0  0  0  0  0
  182.3450  178.2160  144.2460 C   0  0  2  0  0  3  0  0  0  0  0  0
  183.3460  179.3540  144.3240 C   0  0  2  0  0  3  0  0  0  0  0  0
  183.5910  178.2180  143.3460 C   0  0  2  0  0  3  0  0  0  0  0  0
  183.3490  178.7160  141.9130 C   0  0  1  0  0  3  0  0  0  0  0  0
  181.0290  178.6730  143.5890 C   0  0  0  0  0  2  0  0  0  0  0  0
  179.8240  179.2050  141.4290 C   0  0  0  0  0  0  0  0  0  0  0  0
  179.0560  180.1840  142.0360 F   0  0  0  0  0  0  0  0  0  0  0  0
  179.1490  177.9940  141.5730 F   0  0  0  0  0  0  0  0  0  0  0  0
  179.9890  179.5790  140.0760 O   0  0  0  0  0  0  0  0  0  0  0  0
  180.4230  178.3390  138.0880 C   0  0  0  0  0  1  0  0  0  0  0  0
  179.4650  178.5830  139.2370 C   0  0  0  0  0  2  0  0  0  0  0  0
  184.4480  178.1760  140.9920 C   0  0  2  0  0  3  0  0  0  0  0  0
  185.3750  179.3100  140.5720 C   0  0  0  0  0  2  0  0  0  0  0  0
  186.5560  179.2650  141.3170 O   0  0  0  0  0  1  0  0  0  0  0  0
  183.8670  177.5230  139.7450 C   0  0  0  0  0  2  0  0  0  0  0  0
  184.1610  178.3800  138.5310 C   0  0  0  0  0  2  0  0  0  0  0  0
  185.4360  177.9080  137.8730 C   0  0  0  0  0  2  0  0  0  0  0  0
  184.9540  176.2440  136.0460 C   0  0  0  0  0  0  0  0  0  0  0  0
  185.2560  176.5480  137.4090 N   0  0  0  0  0  2  0  0  0  0  0  0
  184.7370  177.1740  135.2200 O   0  0  0  0  0  0  0  0  0  0  0  0
  185.6490  173.1510  137.3370 C   0  0  0  0  0  3  0  0  0  0  0  0
  184.2200  172.8290  137.6790 C   0  0  0  0  0  2  0  0  0  0  0  0
  186.0180  173.9890  136.3530 C   0  0  0  0  0  0  0  0  0  0  0  0
  183.5910  174.2070  135.6580 C   0  0  0  0  0  2  0  0  0  0  0  0
  184.9940  174.8100  135.5960 C   0  0  1  0  0  3  0  0  0  0  0  0
  183.2430  173.8590  137.1070 C   0  0  1  0  0  3  0  0  0  0  0  0
  187.4060  174.2010  136.0470 N   0  0  0  0  0  2  0  0  0  0  0  0
  187.7660  172.3870  134.5940 O   0  0  0  0  0  0  0  0  0  0  0  0
  188.2310  173.3950  135.1920 C   0  0  0  0  0  0  0  0  0  0  0  0
  189.6650  173.7560  134.9940 C   0  0  0  0  0  2  0  0  0  0  0  0
  190.2580  175.4890  136.7500 N   0  0  0  0  0  2  0  0  0  0  0  0
  190.3170  174.1400  136.2840 C   0  0  0  0  0  0  0  0  0  0  0  0
  190.9650  173.2860  136.9420 O   0  0  0  0  0  0  0  0  0  0  0  0
  189.5510  176.4450  136.0940 O   0  0  0  0  0  0  0  0  0  0  0  0
  190.6080  177.3840  138.0280 C   0  0  0  0  0  1  0  0  0  0  0  0
  189.8990  177.6520  136.7110 C   0  0  2  0  0  3  0  0  0  0  0  0
  188.9920  179.7620  137.4140 O   0  0  0  0  0  1  0  0  0  0  0  0
  188.6530  178.4960  136.9400 C   0  0  0  0  0  2  0  0  0  0  0  0
  181.8880  173.5020  137.2930 O   0  0  0  0  0  0  0  0  0  0  0  0
  181.3490  173.0800  136.0640 C   0  0  0  0  0  2  0  0  0  0  0  0
  180.0990  171.0660  135.8000 O   0  0  0  0  0  1  0  0  0  0  0  0
  180.0200  172.3740  136.2800 C   0  0  0  0  0  0  0  0  0  0  0  0
  179.7070  172.3530  137.6390 O   0  0  0  0  0  1  0  0  0  0  0  0
  178.9340  173.1170  135.5290 C   0  0  0  0  0  1  0  0  0  0  0  0
  184.2120  179.1730  145.4790 N   0  0  0  0  0  2  0  0  0  0  0  0
  185.5510  178.8580  144.9960 C   0  0  0  0  0  2  0  0  0  0  0  0
  186.0510  177.5450  145.5840 C   0  0  0  0  0  2  0  0  0  0  0  0
  188.3500  178.4740  145.5820 C   0  0  0  0  0  2  0  0  0  0  0  0
  190.1550  176.7070  145.4120 C   0  0  1  0  0  3  0  0  0  0  0  0
  187.4870  177.2820  145.1740 C   0  0  2  0  0  3  0  0  0  0  0  0
  189.7200  178.7900  142.7830 C   0  0  0  0  0  2  0  0  0  0  0  0
  189.8420  178.2120  145.3690 C   0  0  1  0  0  3  0  0  0  0  0  0
  190.3910  178.9890  144.1580 C   0  0  1  0  0  3  0  0  0  0  0  0
  188.7550  177.4180  140.9360 C   0  0  0  0  0  1  0  0  0  0  0  0
  191.9040  179.0770  144.1100 C   0  0  0  0  0  1  0  0  0  0  0  0
  188.7910  176.4650  143.2090 C   0  0  1  0  0  3  0  0  0  0  0  0
  187.5470  177.0760  143.7310 N   0  0  0  0  0  2  0  0  0  0  0  0
  191.1330  175.9280  143.2380 C   0  0  0  0  0  2  0  0  0  0  0  0
  189.5410  177.3440  142.2330 C   0  0  2  0  0  0  0  0  0  0  0  0
  190.7910  176.6090  141.9890 N   0  0  0  0  0  0  0  0  0  0  0  0
  191.9040  177.4440  141.5500 C   0  0  0  0  0  1  0  0  0  0  0  0
  189.8860  175.8990  144.1310 C   0  0  1  0  0  3  0  0  0  0  0  0
  192.0290  175.3040  145.8470 O   0  0  0  0  0  0  0  0  0  0  0  0
  191.3660  176.3160  146.1980 C   0  0  0  0  0  0  0  0  0  0  0  0
  191.7910  177.0740  147.2830 O   0  0  0  0  0  1  0  0  0  0  0  0
  1  6  1  0  0  0  0
  1  2  1  0  0  0  0
  2  8  1  6  0  0  0
  2  7  1  0  0  0  0
  3  7  1  6  0  0  0
  3  4  1  0  0  0  0
  4 47  1  1  0  0  0
  5  3  1  0  0  0  0
  5  4  1  0  0  0  0
  6  5  1  0  0  0  0
  8 10  1  0  0  0  0
  8  9  1  0  0  0  0
 11  8  1  0  0  0  0
 12 13  1  0  0  0  0
 13 11  1  0  0  0  0
 14  6  1  0  0  0  0
 15 14  1  0  0  0  0
 15 16  1  0  0  0  0
 17 14  1  0  0  0  0
 18 17  1  0  0  0  0
 19 18  1  0  0  0  0
 20 21  1  0  0  0  0
 21 19  1  0  0  0  0
 22 20  2  0  0  0  0
 23 24  1  0  0  0  0
 25 23  2  0  0  0  0
 26 28  1  0  0  0  0
 27 26  1  0  0  0  0
 27 20  1  0  0  0  0
 27 25  1  0  0  0  0
 28 41  1  0  0  0  0
 28 24  1  0  0  0  0
 29 25  1  0  0  0  0
 30 31  2  0  0  0  0
 31 29  1  0  0  0  0
 32 31  1  0  0  0  0
 32 34  1  0  0  0  0
 34 33  1  0  0  0  0
 34 35  2  0  0  0  0
 36 38  1  0  0  0  0
 36 33  1  0  0  0  0
 38 40  1  0  0  0  0
 38 37  1  0  0  0  0
 40 39  1  0  0  0  0
 42 44  1  0  0  0  0
 42 41  1  0  0  0  0
 43 44  1  0  0  0  0
 44 45  1  0  0  0  0
 46 44  1  0  0  0  0
 48 47  1  0  0  0  0
 48 49  1  0  0  0  0
 51 66  1  0  0  0  0
 52 50  1  0  0  0  0
 52 49  1  0  0  0  0
 53 55  1  0  0  0  0
 54 51  1  0  0  0  0
 54 50  1  0  0  0  0
 55 54  1  0  0  0  0
 56 61  1  0  0  0  0
 57 55  1  0  0  0  0
 58 59  1  0  0  0  0
 58 64  1  0  0  0  0
 59 52  1  0  0  0  0
 60 64  1  0  0  0  0
 61 53  1  0  0  0  0
 61 58  1  0  0  0  0
 62 61  1  0  0  0  0
 62 60  1  0  0  0  0
 63 62  1  0  0  0  0
 64 51  1  0  0  0  0
 65 66  2  0  0  0  0
 66 67  1  0  0  0  0
M  END
>  <MODEL>
2

>  <REMARK>
 VINA RESULT:      -6.7      1.460      2.208
  Name = 
  24 active torsions:
  status: ('A' for Active; 'I' for Inactive)
    1  A    between atoms: C_4  and  C_8
    2  A    between atoms: N_5  and  O_43
    3  A    between atoms: C_7  and  C_25
    4  A    between atoms: N_9  and  C_15
    5  A    between atoms: N_9  and  C_29
    6  A    between atoms: C_10  and  C_54
    7  A    between atoms: C_11  and  C_20
    8  A    between atoms: C_13  and  C_62
    9  A    between atoms: C_15  and  C_20
   10  A    between atoms: C_16  and  C_66
   11  A    between atoms: C_16  and  C_67
   12  A    between atoms: C_17  and  C_51
   13  A    between atoms: C_17  and  C_60
   14  A    between atoms: C_17  and  C_66
   15  A    between atoms: N_19  and  C_27
   16  A    between atoms: O_22  and  C_39
   17  A    between atoms: O_22  and  C_55
   18  A    between atoms: C_24  and  C_39
   19  A    between atoms: C_25  and  O_49
   20  A    between atoms: N_30  and  C_67
   21  A    between atoms: C_38  and  C_41
   22  A    between atoms: C_38  and  O_43
   23  A    between atoms: O_49  and  C_59
   24  A    between atoms: C_58  and  C_62
                            x       y       z     vdW  Elec       q    Type
                         _______ _______ _______ _____ _____    ______ ____

>  <TORSDO>
F 24

$$$$
=
 OpenBabel11042410333D

 67 72  0  0  1  0  0  0  0  0999 V2000
  190.0130  176.1950  137.7220 O   0  0  0  0  0  0  0  0  0  0  0  0
  191.0180  175.4750  137.0650 C   0  0  2  0  0  3  0  0  0  0  0  0
  189.1380  173.7420  136.7210 C   0  0  2  0  0  3  0  0  0  0  0  0
  188.7450  174.2860  135.3590 C   0  0  2  0  0  3  0  0  0  0  0  0
  188.2460  174.9890  136.6100 C   0  0  2  0  0  3  0  0  0  0  0  0
  188.9870  176.3250  136.7730 C   0  0  1  0  0  3  0  0  0  0  0  0
  190.6290  173.9940  137.0150 C   0  0  0  0  0  2  0  0  0  0  0  0
  192.3820  175.6660  137.7430 C   0  0  0  0  0  0  0  0  0  0  0  0
  192.1690  176.2120  138.9970 F   0  0  0  0  0  0  0  0  0  0  0  0
  193.1620  176.5680  137.0210 F   0  0  0  0  0  0  0  0  0  0  0  0
  193.0210  174.4200  137.9300 O   0  0  0  0  0  0  0  0  0  0  0  0
  195.3100  174.4450  138.5910 C   0  0  0  0  0  1  0  0  0  0  0  0
  194.3330  174.4760  137.4330 C   0  0  0  0  0  2  0  0  0  0  0  0
  187.9910  177.4130  137.1920 C   0  0  2  0  0  3  0  0  0  0  0  0
  187.7500  178.3670  136.0290 C   0  0  0  0  0  2  0  0  0  0  0  0
  187.4350  179.6410  136.5100 O   0  0  0  0  0  1  0  0  0  0  0  0
  188.4930  178.2060  138.3890 C   0  0  0  0  0  2  0  0  0  0  0  0
  187.3940  178.3240  139.4260 C   0  0  0  0  0  2  0  0  0  0  0  0
  187.9960  178.6870  140.7630 C   0  0  0  0  0  2  0  0  0  0  0  0
  185.8090  178.8100  142.0060 C   0  0  0  0  0  0  0  0  0  0  0  0
  187.1090  178.2460  141.8200 N   0  0  0  0  0  2  0  0  0  0  0  0
  185.4340  179.7880  141.3020 O   0  0  0  0  0  0  0  0  0  0  0  0
  183.3140  179.6980  144.1740 C   0  0  0  0  0  3  0  0  0  0  0  0
  182.1990  179.4580  143.1930 C   0  0  0  0  0  2  0  0  0  0  0  0
  184.5010  179.0690  144.1350 C   0  0  0  0  0  0  0  0  0  0  0  0
  183.6440  177.6200  142.2390 C   0  0  0  0  0  2  0  0  0  0  0  0
  184.8690  178.1580  142.9810 C   0  0  1  0  0  3  0  0  0  0  0  0
  182.6900  178.7720  141.9170 C   0  0  1  0  0  3  0  0  0  0  0  0
  185.4960  179.3080  145.1430 N   0  0  0  0  0  2  0  0  0  0  0  0
  186.2450  177.1040  145.4830 O   0  0  0  0  0  0  0  0  0  0  0  0
  186.3230  178.3260  145.7860 C   0  0  0  0  0  0  0  0  0  0  0  0
  187.3030  178.7510  146.8260 C   0  0  0  0  0  2  0  0  0  0  0  0
  189.1880  177.0560  146.9490 N   0  0  0  0  0  2  0  0  0  0  0  0
  187.9630  177.5750  147.4720 C   0  0  0  0  0  0  0  0  0  0  0  0
  187.4180  177.0020  148.4510 O   0  0  0  0  0  0  0  0  0  0  0  0
  189.8330  177.6490  145.9120 O   0  0  0  0  0  0  0  0  0  0  0  0
  191.6890  176.3740  145.0920 C   0  0  0  0  0  1  0  0  0  0  0  0
  190.1870  176.6050  145.0500 C   0  0  2  0  0  3  0  0  0  0  0  0
  189.0050  175.8750  143.0900 O   0  0  0  0  0  1  0  0  0  0  0  0
  189.7390  176.9290  143.6320 C   0  0  0  0  0  2  0  0  0  0  0  0
  181.6400  178.4080  141.0430 O   0  0  0  0  0  0  0  0  0  0  0  0
  180.6330  179.3900  141.0970 C   0  0  0  0  0  2  0  0  0  0  0  0
  179.2080  179.1550  139.1990 O   0  0  0  0  0  1  0  0  0  0  0  0
  180.2920  179.8800  139.6990 C   0  0  0  0  0  0  0  0  0  0  0  0
  179.9670  181.2370  139.7360 O   0  0  0  0  0  1  0  0  0  0  0  0
  181.4890  179.6770  138.7940 C   0  0  0  0  0  1  0  0  0  0  0  0
  187.6600  173.4920  134.8030 N   0  0  0  0  0  2  0  0  0  0  0  0
  187.7300  172.1570  135.3860 C   0  0  0  0  0  2  0  0  0  0  0  0
  186.3820  171.7370  135.9550 C   0  0  0  0  0  2  0  0  0  0  0  0
  185.1030  173.4570  137.2010 C   0  0  0  0  0  2  0  0  0  0  0  0
  184.3520  175.3990  135.7620 C   0  0  1  0  0  3  0  0  0  0  0  0
  185.3670  172.8560  135.8220 C   0  0  2  0  0  3  0  0  0  0  0  0
  181.9820  173.3090  136.9680 C   0  0  0  0  0  2  0  0  0  0  0  0
  184.2280  174.7110  137.1310 C   0  0  1  0  0  3  0  0  0  0  0  0
  182.7980  174.4390  137.6330 C   0  0  1  0  0  3  0  0  0  0  0  0
  181.0940  172.0340  135.0170 C   0  0  0  0  0  1  0  0  0  0  0  0
  182.0000  175.6900  137.9430 C   0  0  0  0  0  1  0  0  0  0  0  0
  183.1750  173.3230  134.7260 C   0  0  1  0  0  3  0  0  0  0  0  0
  184.1360  172.3250  135.2500 N   0  0  0  0  0  2  0  0  0  0  0  0
  182.1340  175.4850  134.5940 C   0  0  0  0  0  2  0  0  0  0  0  0
  181.8300  173.2990  135.4190 C   0  0  2  0  0  0  0  0  0  0  0  0
  181.1240  174.4580  134.8520 N   0  0  0  0  0  0  0  0  0  0  0  0
  180.0680  174.9940  135.7060 C   0  0  0  0  0  1  0  0  0  0  0  0
  183.5160  174.8190  134.6080 C   0  0  1  0  0  3  0  0  0  0  0  0
  184.4540  177.4900  136.8980 O   0  0  0  0  0  1  0  0  0  0  0  0
  184.4920  176.8890  135.7920 C   0  0  0  0  0  0  0  0  0  0  0  0
  184.7030  177.6120  134.6240 O   0  0  0  0  0  0  0  0  0  0  0  0
  2  1  1  0  0  0  0
  2  8  1  1  0  0  0
  3  7  1  6  0  0  0
  4 47  1  1  0  0  0
  4  5  1  0  0  0  0
  4  3  1  0  0  0  0
  5  3  1  0  0  0  0
  5  6  1  0  0  0  0
  6 14  1  0  0  0  0
  6  1  1  0  0  0  0
  7  2  1  0  0  0  0
  8 11  1  0  0  0  0
  8  9  1  0  0  0  0
 10  8  1  0  0  0  0
 13 11  1  0  0  0  0
 13 12  1  0  0  0  0
 14 17  1  0  0  0  0
 15 16  1  0  0  0  0
 15 14  1  0  0  0  0
 17 18  1  0  0  0  0
 18 19  1  0  0  0  0
 19 21  1  0  0  0  0
 20 27  1  0  0  0  0
 21 20  1  0  0  0  0
 22 20  2  0  0  0  0
 24 23  1  0  0  0  0
 25 23  2  0  0  0  0
 25 29  1  0  0  0  0
 26 27  1  0  0  0  0
 27 25  1  0  0  0  0
 28 26  1  0  0  0  0
 28 24  1  0  0  0  0
 29 31  1  0  0  0  0
 30 31  2  0  0  0  0
 31 32  1  0  0  0  0
 32 34  1  0  0  0  0
 33 34  1  0  0  0  0
 34 35  2  0  0  0  0
 36 33  1  0  0  0  0
 38 37  1  0  0  0  0
 38 36  1  0  0  0  0
 39 40  1  0  0  0  0
 40 38  1  0  0  0  0
 41 42  1  0  0  0  0
 41 28  1  0  0  0  0
 43 44  1  0  0  0  0
 44 45  1  0  0  0  0
 44 42  1  0  0  0  0
 46 44  1  0  0  0  0
 47 48  1  0  0  0  0
 48 49  1  0  0  0  0
 51 66  1  0  0  0  0
 51 54  1  0  0  0  0
 52 49  1  0  0  0  0
 52 50  1  0  0  0  0
 53 55  1  0  0  0  0
 54 50  1  0  0  0  0
 54 55  1  0  0  0  0
 55 57  1  0  0  0  0
 56 61  1  0  0  0  0
 58 59  1  0  0  0  0
 58 61  1  0  0  0  0
 59 52  1  0  0  0  0
 60 64  1  0  0  0  0
 60 62  1  0  0  0  0
 61 53  1  0  0  0  0
 62 61  1  0  0  0  0
 62 63  1  0  0  0  0
 64 58  1  0  0  0  0
 64 51  1  0  0  0  0
 66 65  1  0  0  0  0
 67 66  2  0  0  0  0
M  END
>  <MODEL>
3

>  <REMARK>
 VINA RESULT:      -6.7      3.247     10.423
  Name = 
  24 active torsions:
  status: ('A' for Active; 'I' for Inactive)
    1  A    between atoms: C_4  and  C_8
    2  A    between atoms: N_5  and  O_43
    3  A    between atoms: C_7  and  C_25
    4  A    between atoms: N_9  and  C_15
    5  A    between atoms: N_9  and  C_29
    6  A    between atoms: C_10  and  C_54
    7  A    between atoms: C_11  and  C_20
    8  A    between atoms: C_13  and  C_62
    9  A    between atoms: C_15  and  C_20
   10  A    between atoms: C_16  and  C_66
   11  A    between atoms: C_16  and  C_67
   12  A    between atoms: C_17  and  C_51
   13  A    between atoms: C_17  and  C_60
   14  A    between atoms: C_17  and  C_66
   15  A    between atoms: N_19  and  C_27
   16  A    between atoms: O_22  and  C_39
   17  A    between atoms: O_22  and  C_55
   18  A    between atoms: C_24  and  C_39
   19  A    between atoms: C_25  and  O_49
   20  A    between atoms: N_30  and  C_67
   21  A    between atoms: C_38  and  C_41
   22  A    between atoms: C_38  and  O_43
   23  A    between atoms: O_49  and  C_59
   24  A    between atoms: C_58  and  C_62
                            x       y       z     vdW  Elec       q    Type
                         _______ _______ _______ _____ _____    ______ ____

>  <TORSDO>
F 24

$$$$
=
 OpenBabel11042410333D

 67 72  0  0  1  0  0  0  0  0999 V2000
  191.3820  175.9820  137.6010 O   0  0  0  0  0  0  0  0  0  0  0  0
  192.1650  175.3790  136.6090 C   0  0  2  0  0  3  0  0  0  0  0  0
  190.5310  173.4090  136.9340 C   0  0  2  0  0  3  0  0  0  0  0  0
  189.6040  173.8600  135.8190 C   0  0  2  0  0  3  0  0  0  0  0  0
  189.5050  174.5270  137.1800 C   0  0  2  0  0  3  0  0  0  0  0  0
  190.0740  175.9510  137.0920 C   0  0  1  0  0  3  0  0  0  0  0  0
  191.9800  173.8600  136.6710 C   0  0  0  0  0  2  0  0  0  0  0  0
  193.6440  175.7640  136.7490 C   0  0  0  0  0  0  0  0  0  0  0  0
  194.1220  175.2230  137.9300 F   0  0  0  0  0  0  0  0  0  0  0  0
  193.7810  177.1490  136.8380 F   0  0  0  0  0  0  0  0  0  0  0  0
  194.4020  175.2080  135.6940 O   0  0  0  0  0  0  0  0  0  0  0  0
  196.6180  174.6610  136.3810 C   0  0  0  0  0  1  0  0  0  0  0  0
  195.7170  175.6980  135.7400 C   0  0  0  0  0  2  0  0  0  0  0  0
  189.1640  176.9120  137.8670 C   0  0  2  0  0  3  0  0  0  0  0  0
  189.6230  177.0010  139.3180 C   0  0  0  0  0  2  0  0  0  0  0  0
  189.1910  178.2030  139.8850 O   0  0  0  0  0  1  0  0  0  0  0  0
  187.7100  176.4640  137.8320 C   0  0  0  0  0  2  0  0  0  0  0  0
  186.8950  177.4280  136.9950 C   0  0  0  0  0  2  0  0  0  0  0  0
  186.3070  178.4990  137.8830 C   0  0  0  0  0  2  0  0  0  0  0  0
  184.9510  178.5530  140.0040 C   0  0  0  0  0  0  0  0  0  0  0  0
  185.8720  177.9000  139.1280 N   0  0  0  0  0  2  0  0  0  0  0  0
  184.5620  179.7280  139.7570 O   0  0  0  0  0  0  0  0  0  0  0  0
  183.8680  179.1240  143.2010 C   0  0  0  0  0  3  0  0  0  0  0  0
  182.4220  179.2920  142.8190 C   0  0  0  0  0  2  0  0  0  0  0  0
  184.7510  178.3880  142.5030 C   0  0  0  0  0  0  0  0  0  0  0  0
  182.8730  177.6150  140.9860 C   0  0  0  0  0  2  0  0  0  0  0  0
  184.3830  177.7830  141.1630 C   0  0  1  0  0  3  0  0  0  0  0  0
  182.1630  178.9180  141.3580 C   0  0  1  0  0  3  0  0  0  0  0  0
  186.1020  178.2270  142.9630 N   0  0  0  0  0  2  0  0  0  0  0  0
  185.6830  177.3400  145.1010 O   0  0  0  0  0  0  0  0  0  0  0  0
  186.5220  177.7200  144.2400 C   0  0  0  0  0  0  0  0  0  0  0  0
  187.9760  177.6300  144.5570 C   0  0  0  0  0  2  0  0  0  0  0  0
  190.0900  176.9460  143.3320 N   0  0  0  0  0  2  0  0  0  0  0  0
  188.6970  176.7540  143.5820 C   0  0  0  0  0  0  0  0  0  0  0  0
  188.0680  175.8740  142.9380 O   0  0  0  0  0  0  0  0  0  0  0  0
  190.8230  177.8620  144.0150 O   0  0  0  0  0  0  0  0  0  0  0  0
  191.8080  175.6920  144.2610 C   0  0  0  0  0  1  0  0  0  0  0  0
  191.7230  177.1170  144.7850 C   0  0  2  0  0  3  0  0  0  0  0  0
  191.5560  175.8930  146.8450 O   0  0  0  0  0  1  0  0  0  0  0  0
  191.2860  177.1210  146.2430 C   0  0  0  0  0  2  0  0  0  0  0  0
  180.7920  178.9310  141.0170 O   0  0  0  0  0  0  0  0  0  0  0  0
  180.6630  179.1130  139.6280 C   0  0  0  0  0  2  0  0  0  0  0  0
  179.0120  180.4320  138.5230 O   0  0  0  0  0  1  0  0  0  0  0  0
  180.1560  180.5120  139.3190 C   0  0  0  0  0  0  0  0  0  0  0  0
  179.8520  181.1820  140.5040 O   0  0  0  0  0  1  0  0  0  0  0  0
  181.2300  181.2780  138.5740 C   0  0  0  0  0  1  0  0  0  0  0  0
  188.5050  172.9170  135.6780 N   0  0  0  0  0  2  0  0  0  0  0  0
  187.2560  173.6510  135.8430 C   0  0  0  0  0  2  0  0  0  0  0  0
  186.0630  172.7040  135.8580 C   0  0  0  0  0  2  0  0  0  0  0  0
  184.6100  174.3320  137.0370 C   0  0  0  0  0  2  0  0  0  0  0  0
  183.0540  175.6010  135.4960 C   0  0  1  0  0  3  0  0  0  0  0  0
  184.7600  173.4770  135.7800 C   0  0  2  0  0  3  0  0  0  0  0  0
  181.6880  173.3910  137.6610 C   0  0  0  0  0  2  0  0  0  0  0  0
  183.4120  175.2800  136.9560 C   0  0  1  0  0  3  0  0  0  0  0  0
  182.2530  174.8140  137.8570 C   0  0  1  0  0  3  0  0  0  0  0  0
  180.8430  171.4820  136.2960 C   0  0  0  0  0  1  0  0  0  0  0  0
  181.2020  175.8760  138.1160 C   0  0  0  0  0  1  0  0  0  0  0  0
  182.3550  173.1100  135.2270 C   0  0  1  0  0  3  0  0  0  0  0  0
  183.6500  172.5390  135.6640 N   0  0  0  0  0  2  0  0  0  0  0  0
  180.7230  174.8520  134.9540 C   0  0  0  0  0  2  0  0  0  0  0  0
  181.2420  172.9460  136.2370 C   0  0  2  0  0  0  0  0  0  0  0  0
  180.1290  173.7170  135.6620 N   0  0  0  0  0  0  0  0  0  0  0  0
  179.1550  174.1880  136.6400 C   0  0  0  0  0  1  0  0  0  0  0  0
  182.2130  174.5610  134.7360 C   0  0  1  0  0  3  0  0  0  0  0  0
  181.6880  177.3340  134.6000 O   0  0  0  0  0  0  0  0  0  0  0  0
  182.7560  177.0370  135.1990 C   0  0  0  0  0  0  0  0  0  0  0  0
  183.6180  178.0470  135.6080 O   0  0  0  0  0  1  0  0  0  0  0  0
  2  7  1  0  0  0  0
  2  8  1  1  0  0  0
  2  1  1  0  0  0  0
  3  7  1  6  0  0  0
  3  5  1  0  0  0  0
  4 47  1  1  0  0  0
  4  3  1  0  0  0  0
  4  5  1  0  0  0  0
  6  5  1  0  0  0  0
  6  1  1  0  0  0  0
  6 14  1  0  0  0  0
  8 10  1  0  0  0  0
  8  9  1  0  0  0  0
 11 13  1  0  0  0  0
 11  8  1  0  0  0  0
 13 12  1  0  0  0  0
 14 15  1  0  0  0  0
 15 16  1  0  0  0  0
 17 14  1  0  0  0  0
 18 17  1  0  0  0  0
 18 19  1  0  0  0  0
 19 21  1  0  0  0  0
 20 27  1  0  0  0  0
 21 20  1  0  0  0  0
 22 20  2  0  0  0  0
 24 23  1  0  0  0  0
 25 29  1  0  0  0  0
 25 23  2  0  0  0  0
 26 27  1  0  0  0  0
 26 28  1  0  0  0  0
 27 25  1  0  0  0  0
 28 24  1  0  0  0  0
 29 31  1  0  0  0  0
 31 32  1  0  0  0  0
 31 30  2  0  0  0  0
 33 34  1  0  0  0  0
 33 36  1  0  0  0  0
 34 32  1  0  0  0  0
 35 34  2  0  0  0  0
 36 38  1  0  0  0  0
 37 38  1  0  0  0  0
 38 40  1  0  0  0  0
 40 39  1  0  0  0  0
 41 28  1  0  0  0  0
 42 41  1  0  0  0  0
 43 44  1  0  0  0  0
 44 42  1  0  0  0  0
 44 45  1  0  0  0  0
 46 44  1  0  0  0  0
 47 48  1  0  0  0  0
 48 49  1  0  0  0  0
 51 54  1  0  0  0  0
 52 49  1  0  0  0  0
 52 50  1  0  0  0  0
 53 55  1  0  0  0  0
 54 50  1  0  0  0  0
 54 55  1  0  0  0  0
 55 57  1  0  0  0  0
 58 59  1  0  0  0  0
 58 61  1  0  0  0  0
 59 52  1  0  0  0  0
 60 62  1  0  0  0  0
 61 56  1  0  0  0  0
 61 53  1  0  0  0  0
 62 61  1  0  0  0  0
 62 63  1  0  0  0  0
 64 60  1  0  0  0  0
 64 58  1  0  0  0  0
 64 51  1  0  0  0  0
 65 66  2  0  0  0  0
 66 51  1  0  0  0  0
 66 67  1  0  0  0  0
M  END
>  <MODEL>
4

>  <REMARK>
 VINA RESULT:      -6.0      3.431     10.460
  Name = 
  24 active torsions:
  status: ('A' for Active; 'I' for Inactive)
    1  A    between atoms: C_4  and  C_8
    2  A    between atoms: N_5  and  O_43
    3  A    between atoms: C_7  and  C_25
    4  A    between atoms: N_9  and  C_15
    5  A    between atoms: N_9  and  C_29
    6  A    between atoms: C_10  and  C_54
    7  A    between atoms: C_11  and  C_20
    8  A    between atoms: C_13  and  C_62
    9  A    between atoms: C_15  and  C_20
   10  A    between atoms: C_16  and  C_66
   11  A    between atoms: C_16  and  C_67
   12  A    between atoms: C_17  and  C_51
   13  A    between atoms: C_17  and  C_60
   14  A    between atoms: C_17  and  C_66
   15  A    between atoms: N_19  and  C_27
   16  A    between atoms: O_22  and  C_39
   17  A    between atoms: O_22  and  C_55
   18  A    between atoms: C_24  and  C_39
   19  A    between atoms: C_25  and  O_49
   20  A    between atoms: N_30  and  C_67
   21  A    between atoms: C_38  and  C_41
   22  A    between atoms: C_38  and  O_43
   23  A    between atoms: O_49  and  C_59
   24  A    between atoms: C_58  and  C_62
                            x       y       z     vdW  Elec       q    Type
                         _______ _______ _______ _____ _____    ______ ____

>  <TORSDO>
F 24

$$$$
=
 OpenBabel11042410333D

 67 72  0  0  1  0  0  0  0  0999 V2000
  191.7990  175.2350  137.6200 O   0  0  0  0  0  0  0  0  0  0  0  0
  191.7350  174.7170  136.3210 C   0  0  2  0  0  3  0  0  0  0  0  0
  189.3500  175.6990  136.3650 C   0  0  2  0  0  3  0  0  0  0  0  0
  189.7700  177.0150  135.7350 C   0  0  2  0  0  3  0  0  0  0  0  0
  190.0050  176.7960  137.2200 C   0  0  2  0  0  3  0  0  0  0  0  0
  191.5070  176.6010  137.4750 C   0  0  1  0  0  3  0  0  0  0  0  0
  190.2670  174.5470  135.9150 C   0  0  0  0  0  2  0  0  0  0  0  0
  192.4980  173.3900  136.2070 C   0  0  0  0  0  0  0  0  0  0  0  0
  193.2430  173.4190  135.0410 F   0  0  0  0  0  0  0  0  0  0  0  0
  191.6080  172.3220  136.1080 F   0  0  0  0  0  0  0  0  0  0  0  0
  193.4050  173.2470  137.2820 O   0  0  0  0  0  0  0  0  0  0  0  0
  195.4000  174.5460  137.3920 C   0  0  0  0  0  1  0  0  0  0  0  0
  194.7240  173.3220  136.8070 C   0  0  0  0  0  2  0  0  0  0  0  0
  191.9180  177.3830  138.7280 C   0  0  2  0  0  3  0  0  0  0  0  0
  193.2310  176.8320  139.2720 C   0  0  0  0  0  2  0  0  0  0  0  0
  193.8570  177.7910  140.0740 O   0  0  0  0  0  1  0  0  0  0  0  0
  190.8570  177.3020  139.8160 C   0  0  0  0  0  2  0  0  0  0  0  0
  190.9850  175.9890  140.5620 C   0  0  0  0  0  2  0  0  0  0  0  0
  191.0960  176.2570  142.0440 C   0  0  0  0  0  2  0  0  0  0  0  0
  188.8450  176.9390  142.9440 C   0  0  0  0  0  0  0  0  0  0  0  0
  190.1320  177.2710  142.4180 N   0  0  0  0  0  2  0  0  0  0  0  0
  188.4750  175.7340  143.0070 O   0  0  0  0  0  0  0  0  0  0  0  0
  186.0510  177.2910  144.8910 C   0  0  0  0  0  3  0  0  0  0  0  0
  186.8100  177.4500  146.1790 C   0  0  0  0  0  2  0  0  0  0  0  0
  186.5410  177.6160  143.6820 C   0  0  0  0  0  0  0  0  0  0  0  0
  188.6070  178.5680  144.8010 C   0  0  0  0  0  2  0  0  0  0  0  0
  187.9870  178.0360  143.5080 C   0  0  1  0  0  3  0  0  0  0  0  0
  188.3160  177.5980  145.9480 C   0  0  1  0  0  3  0  0  0  0  0  0
  185.7330  177.4920  142.5010 N   0  0  0  0  0  2  0  0  0  0  0  0
  185.3580  179.7680  142.0420 O   0  0  0  0  0  0  0  0  0  0  0  0
  185.1640  178.5620  141.7300 C   0  0  0  0  0  0  0  0  0  0  0  0
  184.3360  178.2490  140.5300 C   0  0  0  0  0  2  0  0  0  0  0  0
  182.3130  179.7750  140.3950 N   0  0  0  0  0  2  0  0  0  0  0  0
  183.6520  179.4700  140.0030 C   0  0  0  0  0  0  0  0  0  0  0  0
  184.2360  180.2110  139.1700 O   0  0  0  0  0  0  0  0  0  0  0  0
  181.6450  179.0260  141.3100 O   0  0  0  0  0  0  0  0  0  0  0  0
  179.7340  180.4230  141.6790 C   0  0  0  0  0  1  0  0  0  0  0  0
  180.2900  179.1820  140.9980 C   0  0  2  0  0  3  0  0  0  0  0  0
  179.9440  176.8200  140.7310 O   0  0  0  0  0  1  0  0  0  0  0  0
  179.5130  177.9470  141.4300 C   0  0  0  0  0  2  0  0  0  0  0  0
  189.0320  177.8910  147.1310 O   0  0  0  0  0  0  0  0  0  0  0  0
  189.6530  176.7180  147.5980 C   0  0  0  0  0  2  0  0  0  0  0  0
  191.7050  177.8700  147.9820 O   0  0  0  0  0  1  0  0  0  0  0  0
  191.1490  176.7660  147.3350 C   0  0  0  0  0  0  0  0  0  0  0  0
  191.7530  175.5990  147.8040 O   0  0  0  0  0  1  0  0  0  0  0  0
  191.3890  176.8870  145.8440 C   0  0  0  0  0  1  0  0  0  0  0  0
  188.6090  177.8760  135.5670 N   0  0  0  0  0  2  0  0  0  0  0  0
  187.4290  177.0270  135.4490 C   0  0  0  0  0  2  0  0  0  0  0  0
  186.2410  177.8130  134.9110 C   0  0  0  0  0  2  0  0  0  0  0  0
  184.7780  177.3400  136.8570 C   0  0  0  0  0  2  0  0  0  0  0  0
  182.3490  176.9910  136.2360 C   0  0  1  0  0  3  0  0  0  0  0  0
  184.9330  177.1800  135.3460 C   0  0  2  0  0  3  0  0  0  0  0  0
  184.0920  174.3280  137.3800 C   0  0  0  0  0  2  0  0  0  0  0  0
  183.4020  176.8900  137.3520 C   0  0  1  0  0  3  0  0  0  0  0  0
  183.4760  175.5470  138.1010 C   0  0  1  0  0  3  0  0  0  0  0  0
  184.3980  172.7880  135.4420 C   0  0  0  0  0  1  0  0  0  0  0  0
  182.2460  175.2290  138.9290 C   0  0  0  0  0  1  0  0  0  0  0  0
  183.6200  175.0860  135.0020 C   0  0  1  0  0  3  0  0  0  0  0  0
  184.9350  175.7690  134.9770 N   0  0  0  0  0  2  0  0  0  0  0  0
  181.3550  174.7460  135.7280 C   0  0  0  0  0  2  0  0  0  0  0  0
  183.5510  173.9300  135.9750 C   0  0  2  0  0  0  0  0  0  0  0  0
  182.1370  173.5270  135.9410 N   0  0  0  0  0  0  0  0  0  0  0  0
  181.6790  172.8390  137.1430 C   0  0  0  0  0  1  0  0  0  0  0  0
  182.2970  175.8420  135.2140 C   0  0  1  0  0  3  0  0  0  0  0  0
  181.0070  178.5260  137.4660 O   0  0  0  0  0  1  0  0  0  0  0  0
  181.0330  177.5810  136.6340 C   0  0  0  0  0  0  0  0  0  0  0  0
  179.8460  177.1290  136.0700 O   0  0  0  0  0  0  0  0  0  0  0  0
  2  8  1  1  0  0  0
  2  1  1  0  0  0  0
  3  7  1  6  0  0  0
  3  5  1  0  0  0  0
  4 47  1  1  0  0  0
  4  3  1  0  0  0  0
  4  5  1  0  0  0  0
  5  6  1  0  0  0  0
  6  1  1  0  0  0  0
  6 14  1  0  0  0  0
  7  2  1  0  0  0  0
  8 11  1  0  0  0  0
  9  8  1  0  0  0  0
 10  8  1  0  0  0  0
 13 11  1  0  0  0  0
 13 12  1  0  0  0  0
 14 15  1  0  0  0  0
 14 17  1  0  0  0  0
 15 16  1  0  0  0  0
 17 18  1  0  0  0  0
 18 19  1  0  0  0  0
 19 21  1  0  0  0  0
 20 22  2  0  0  0  0
 20 27  1  0  0  0  0
 21 20  1  0  0  0  0
 23 24  1  0  0  0  0
 25 23  2  0  0  0  0
 26 28  1  0  0  0  0
 27 25  1  0  0  0  0
 27 26  1  0  0  0  0
 28 24  1  0  0  0  0
 28 41  1  0  0  0  0
 29 25  1  0  0  0  0
 31 30  2  0  0  0  0
 31 29  1  0  0  0  0
 32 31  1  0  0  0  0
 33 36  1  0  0  0  0
 34 33  1  0  0  0  0
 34 32  1  0  0  0  0
 35 34  2  0  0  0  0
 38 36  1  0  0  0  0
 38 40  1  0  0  0  0
 38 37  1  0  0  0  0
 39 40  1  0  0  0  0
 41 42  1  0  0  0  0
 44 42  1  0  0  0  0
 44 45  1  0  0  0  0
 44 43  1  0  0  0  0
 46 44  1  0  0  0  0
 48 47  1  0  0  0  0
 49 52  1  0  0  0  0
 49 48  1  0  0  0  0
 50 54  1  0  0  0  0
 51 66  1  0  0  0  0
 51 54  1  0  0  0  0
 52 50  1  0  0  0  0
 53 55  1  0  0  0  0
 54 55  1  0  0  0  0
 55 57  1  0  0  0  0
 56 61  1  0  0  0  0
 58 64  1  0  0  0  0
 58 61  1  0  0  0  0
 59 58  1  0  0  0  0
 59 52  1  0  0  0  0
 60 62  1  0  0  0  0
 61 53  1  0  0  0  0
 62 61  1  0  0  0  0
 62 63  1  0  0  0  0
 64 60  1  0  0  0  0
 64 51  1  0  0  0  0
 66 65  1  0  0  0  0
 67 66  2  0  0  0  0
M  END
>  <MODEL>
5

>  <REMARK>
 VINA RESULT:      -5.5      3.479     11.632
  Name = 
  24 active torsions:
  status: ('A' for Active; 'I' for Inactive)
    1  A    between atoms: C_4  and  C_8
    2  A    between atoms: N_5  and  O_43
    3  A    between atoms: C_7  and  C_25
    4  A    between atoms: N_9  and  C_15
    5  A    between atoms: N_9  and  C_29
    6  A    between atoms: C_10  and  C_54
    7  A    between atoms: C_11  and  C_20
    8  A    between atoms: C_13  and  C_62
    9  A    between atoms: C_15  and  C_20
   10  A    between atoms: C_16  and  C_66
   11  A    between atoms: C_16  and  C_67
   12  A    between atoms: C_17  and  C_51
   13  A    between atoms: C_17  and  C_60
   14  A    between atoms: C_17  and  C_66
   15  A    between atoms: N_19  and  C_27
   16  A    between atoms: O_22  and  C_39
   17  A    between atoms: O_22  and  C_55
   18  A    between atoms: C_24  and  C_39
   19  A    between atoms: C_25  and  O_49
   20  A    between atoms: N_30  and  C_67
   21  A    between atoms: C_38  and  C_41
   22  A    between atoms: C_38  and  O_43
   23  A    between atoms: O_49  and  C_59
   24  A    between atoms: C_58  and  C_62
                            x       y       z     vdW  Elec       q    Type
                         _______ _______ _______ _____ _____    ______ ____

>  <TORSDO>
F 24

$$$$
=
 OpenBabel11042410333D

 67 72  0  0  1  0  0  0  0  0999 V2000
  188.8660  177.2350  144.9760 O   0  0  0  0  0  0  0  0  0  0  0  0
  188.1030  177.1430  146.1460 C   0  0  2  0  0  3  0  0  0  0  0  0
  186.6600  178.9440  144.9920 C   0  0  2  0  0  3  0  0  0  0  0  0
  185.7050  177.9340  144.3820 C   0  0  2  0  0  3  0  0  0  0  0  0
  187.0450  178.1840  143.7120 C   0  0  2  0  0  3  0  0  0  0  0  0
  187.9610  176.9710  143.9360 C   0  0  1  0  0  3  0  0  0  0  0  0
  187.2660  178.4170  146.3060 C   0  0  0  0  0  2  0  0  0  0  0  0
  188.9870  176.9040  147.3770 C   0  0  0  0  0  0  0  0  0  0  0  0
  188.1740  176.5050  148.4230 F   0  0  0  0  0  0  0  0  0  0  0  0
  189.6160  178.0860  147.7630 F   0  0  0  0  0  0  0  0  0  0  0  0
  189.9020  175.8540  147.1320 O   0  0  0  0  0  0  0  0  0  0  0  0
  192.2740  176.0660  147.0340 C   0  0  0  0  0  1  0  0  0  0  0  0
  191.0480  176.0250  147.9250 C   0  0  0  0  0  2  0  0  0  0  0  0
  188.7040  176.6460  142.6350 C   0  0  2  0  0  3  0  0  0  0  0  0
  190.1820  176.4160  142.9280 C   0  0  0  0  0  2  0  0  0  0  0  0
  190.4190  175.0590  143.1660 O   0  0  0  0  0  1  0  0  0  0  0  0
  188.5690  177.7660  141.6140 C   0  0  0  0  0  2  0  0  0  0  0  0
  187.9340  177.2310  140.3460 C   0  0  0  0  0  2  0  0  0  0  0  0
  187.9030  178.3170  139.2980 C   0  0  0  0  0  2  0  0  0  0  0  0
  188.0360  176.5930  137.4670 C   0  0  0  0  0  0  0  0  0  0  0  0
  188.4790  177.8110  138.0690 N   0  0  0  0  0  2  0  0  0  0  0  0
  187.1840  175.8680  138.0520 O   0  0  0  0  0  0  0  0  0  0  0  0
  189.8210  174.1210  135.9120 C   0  0  0  0  0  3  0  0  0  0  0  0
  188.6120  173.3270  135.5010 C   0  0  0  0  0  2  0  0  0  0  0  0
  189.8170  175.4500  136.1140 C   0  0  0  0  0  0  0  0  0  0  0  0
  187.4170  175.5430  135.3050 C   0  0  0  0  0  2  0  0  0  0  0  0
  188.5270  176.2440  136.0900 C   0  0  1  0  0  3  0  0  0  0  0  0
  187.3080  174.0860  135.7580 C   0  0  1  0  0  3  0  0  0  0  0  0
  191.0280  176.1480  136.4480 N   0  0  0  0  0  2  0  0  0  0  0  0
  191.2020  175.5650  138.7200 O   0  0  0  0  0  0  0  0  0  0  0  0
  191.6720  176.1900  137.7310 C   0  0  0  0  0  0  0  0  0  0  0  0
  192.9250  176.9790  137.9030 C   0  0  0  0  0  2  0  0  0  0  0  0
  194.7190  175.1840  137.9480 N   0  0  0  0  0  2  0  0  0  0  0  0
  193.9710  176.1940  138.6290 C   0  0  0  0  0  0  0  0  0  0  0  0
  194.1660  176.3840  139.8570 O   0  0  0  0  0  0  0  0  0  0  0  0
  194.5700  174.9540  136.6180 O   0  0  0  0  0  0  0  0  0  0  0  0
  196.1910  173.4510  137.5380 C   0  0  0  0  0  1  0  0  0  0  0  0
  195.2870  173.7810  136.3620 C   0  0  2  0  0  3  0  0  0  0  0  0
  197.3340  174.5450  135.3640 O   0  0  0  0  0  1  0  0  0  0  0  0
  196.1070  173.9410  135.0900 C   0  0  0  0  0  2  0  0  0  0  0  0
  186.1690  173.4210  135.2500 O   0  0  0  0  0  0  0  0  0  0  0  0
  185.6030  172.6300  136.2670 C   0  0  0  0  0  2  0  0  0  0  0  0
  183.9030  172.5430  134.5980 O   0  0  0  0  0  1  0  0  0  0  0  0
  184.3590  171.9190  135.7600 C   0  0  0  0  0  0  0  0  0  0  0  0
  184.6520  170.5830  135.4870 O   0  0  0  0  0  1  0  0  0  0  0  0
  183.2800  171.9870  136.8200 C   0  0  0  0  0  1  0  0  0  0  0  0
  184.6690  178.6240  143.6290 N   0  0  0  0  0  2  0  0  0  0  0  0
  184.3660  177.8320  142.4430 C   0  0  0  0  0  2  0  0  0  0  0  0
  184.6410  178.6230  141.1710 C   0  0  0  0  0  2  0  0  0  0  0  0
  183.6280  179.1650  138.9730 C   0  0  0  0  0  2  0  0  0  0  0  0
  183.3160  177.1460  137.4780 C   0  0  1  0  0  3  0  0  0  0  0  0
  183.8520  178.0600  140.0040 C   0  0  2  0  0  3  0  0  0  0  0  0
  180.5490  178.6590  138.6980 C   0  0  0  0  0  2  0  0  0  0  0  0
  182.9990  178.6370  137.6820 C   0  0  1  0  0  3  0  0  0  0  0  0
  181.5190  179.0430  137.5610 C   0  0  1  0  0  3  0  0  0  0  0  0
  179.5490  177.0890  140.3590 C   0  0  0  0  0  1  0  0  0  0  0  0
  180.9430  178.8840  136.1660 C   0  0  0  0  0  1  0  0  0  0  0  0
  181.8410  176.6510  139.5630 C   0  0  1  0  0  3  0  0  0  0  0  0
  182.5770  177.5440  140.4870 N   0  0  0  0  0  2  0  0  0  0  0  0
  181.2160  175.7790  137.4130 C   0  0  0  0  0  2  0  0  0  0  0  0
  180.4800  177.1740  139.1620 C   0  0  2  0  0  0  0  0  0  0  0  0
  180.0240  176.2200  138.1400 N   0  0  0  0  0  0  0  0  0  0  0  0
  179.0390  176.7610  137.2090 C   0  0  0  0  0  1  0  0  0  0  0  0
  182.4520  176.1340  138.2490 C   0  0  1  0  0  3  0  0  0  0  0  0
  183.6420  175.5410  135.7480 O   0  0  0  0  0  1  0  0  0  0  0  0
  183.7210  176.7500  136.0930 C   0  0  0  0  0  0  0  0  0  0  0  0
  184.1430  177.7010  135.1710 O   0  0  0  0  0  0  0  0  0  0  0  0
  1  2  1  0  0  0  0
  2  7  1  0  0  0  0
  2  8  1  1  0  0  0
  3  7  1  1  0  0  0
  4 47  1  6  0  0  0
  4  3  1  0  0  0  0
  5  6  1  0  0  0  0
  5  4  1  0  0  0  0
  5  3  1  0  0  0  0
  6  1  1  0  0  0  0
  8 10  1  0  0  0  0
  8  9  1  0  0  0  0
 11  8  1  0  0  0  0
 11 13  1  0  0  0  0
 12 13  1  0  0  0  0
 14 15  1  0  0  0  0
 14  6  1  0  0  0  0
 15 16  1  0  0  0  0
 17 14  1  0  0  0  0
 18 17  1  0  0  0  0
 19 18  1  0  0  0  0
 20 22  2  0  0  0  0
 20 21  1  0  0  0  0
 21 19  1  0  0  0  0
 23 25  2  0  0  0  0
 24 28  1  0  0  0  0
 24 23  1  0  0  0  0
 25 29  1  0  0  0  0
 26 28  1  0  0  0  0
 26 27  1  0  0  0  0
 27 25  1  0  0  0  0
 27 20  1  0  0  0  0
 29 31  1  0  0  0  0
 31 32  1  0  0  0  0
 31 30  2  0  0  0  0
 32 34  1  0  0  0  0
 33 34  1  0  0  0  0
 34 35  2  0  0  0  0
 36 33  1  0  0  0  0
 38 36  1  0  0  0  0
 38 37  1  0  0  0  0
 40 39  1  0  0  0  0
 40 38  1  0  0  0  0
 41 28  1  0  0  0  0
 41 42  1  0  0  0  0
 43 44  1  0  0  0  0
 44 42  1  0  0  0  0
 44 46  1  0  0  0  0
 45 44  1  0  0  0  0
 48 47  1  0  0  0  0
 49 48  1  0  0  0  0
 50 52  1  0  0  0  0
 51 54  1  0  0  0  0
 51 64  1  0  0  0  0
 52 59  1  0  0  0  0
 52 49  1  0  0  0  0
 53 61  1  0  0  0  0
 54 50  1  0  0  0  0
 55 54  1  0  0  0  0
 55 53  1  0  0  0  0
 57 55  1  0  0  0  0
 58 59  1  0  0  0  0
 60 62  1  0  0  0  0
 60 64  1  0  0  0  0
 61 58  1  0  0  0  0
 61 56  1  0  0  0  0
 62 61  1  0  0  0  0
 63 62  1  0  0  0  0
 64 58  1  0  0  0  0
 65 66  1  0  0  0  0
 66 51  1  0  0  0  0
 67 66  2  0  0  0  0
M  END
>  <MODEL>
6

>  <REMARK>
 VINA RESULT:      -5.4      3.340      7.802
  Name = 
  24 active torsions:
  status: ('A' for Active; 'I' for Inactive)
    1  A    between atoms: C_4  and  C_8
    2  A    between atoms: N_5  and  O_43
    3  A    between atoms: C_7  and  C_25
    4  A    between atoms: N_9  and  C_15
    5  A    between atoms: N_9  and  C_29
    6  A    between atoms: C_10  and  C_54
    7  A    between atoms: C_11  and  C_20
    8  A    between atoms: C_13  and  C_62
    9  A    between atoms: C_15  and  C_20
   10  A    between atoms: C_16  and  C_66
   11  A    between atoms: C_16  and  C_67
   12  A    between atoms: C_17  and  C_51
   13  A    between atoms: C_17  and  C_60
   14  A    between atoms: C_17  and  C_66
   15  A    between atoms: N_19  and  C_27
   16  A    between atoms: O_22  and  C_39
   17  A    between atoms: O_22  and  C_55
   18  A    between atoms: C_24  and  C_39
   19  A    between atoms: C_25  and  O_49
   20  A    between atoms: N_30  and  C_67
   21  A    between atoms: C_38  and  C_41
   22  A    between atoms: C_38  and  O_43
   23  A    between atoms: O_49  and  C_59
   24  A    between atoms: C_58  and  C_62
                            x       y       z     vdW  Elec       q    Type
                         _______ _______ _______ _____ _____    ______ ____

>  <TORSDO>
F 24

$$$$
=
 OpenBabel11042410333D

 67 72  0  0  1  0  0  0  0  0999 V2000
  187.5100  177.8080  145.8860 O   0  0  0  0  0  0  0  0  0  0  0  0
  186.9010  177.8080  147.1460 C   0  0  2  0  0  3  0  0  0  0  0  0
  185.4060  179.6290  146.0950 C   0  0  2  0  0  3  0  0  0  0  0  0
  184.3340  178.6440  145.6640 C   0  0  2  0  0  3  0  0  0  0  0  0
  185.5860  178.7940  144.8170 C   0  0  2  0  0  3  0  0  0  0  0  0
  186.4660  177.5460  144.9840 C   0  0  1  0  0  3  0  0  0  0  0  0
  186.1520  179.1300  147.3460 C   0  0  0  0  0  2  0  0  0  0  0  0
  187.9260  177.5780  148.2660 C   0  0  0  0  0  0  0  0  0  0  0  0
  188.0080  176.2170  148.5020 F   0  0  0  0  0  0  0  0  0  0  0  0
  187.5010  178.1830  149.4470 F   0  0  0  0  0  0  0  0  0  0  0  0
  189.2080  178.0130  147.8600 O   0  0  0  0  0  0  0  0  0  0  0  0
  191.3110  178.1130  148.9770 C   0  0  0  0  0  1  0  0  0  0  0  0
  189.8770  178.6030  148.9430 C   0  0  0  0  0  2  0  0  0  0  0  0
  187.0180  177.1240  143.6180 C   0  0  2  0  0  3  0  0  0  0  0  0
  188.3710  176.4440  143.7950 C   0  0  0  0  0  2  0  0  0  0  0  0
  188.4040  175.2470  143.0730 O   0  0  0  0  0  1  0  0  0  0  0  0
  187.1800  178.3140  142.6830 C   0  0  0  0  0  2  0  0  0  0  0  0
  186.8900  177.8920  141.2570 C   0  0  0  0  0  2  0  0  0  0  0  0
  187.1950  179.0340  140.3180 C   0  0  0  0  0  2  0  0  0  0  0  0
  188.1980  177.7470  138.3990 C   0  0  0  0  0  0  0  0  0  0  0  0
  188.3210  178.6740  139.4800 N   0  0  0  0  0  2  0  0  0  0  0  0
  187.1100  177.1370  138.2050 O   0  0  0  0  0  0  0  0  0  0  0  0
  190.5440  175.4030  137.5530 C   0  0  0  0  0  3  0  0  0  0  0  0
  189.7430  174.8210  136.4210 C   0  0  0  0  0  2  0  0  0  0  0  0
  190.4300  176.6710  137.9840 C   0  0  0  0  0  0  0  0  0  0  0  0
  188.8320  177.1500  136.0750 C   0  0  0  0  0  2  0  0  0  0  0  0
  189.3490  177.5880  137.4460 C   0  0  1  0  0  3  0  0  0  0  0  0
  188.5020  175.6570  136.1020 C   0  0  1  0  0  3  0  0  0  0  0  0
  191.2730  177.1720  139.0330 N   0  0  0  0  0  2  0  0  0  0  0  0
  190.2350  176.1590  140.8850 O   0  0  0  0  0  0  0  0  0  0  0  0
  191.1450  176.9100  140.4390 C   0  0  0  0  0  0  0  0  0  0  0  0
  192.1090  177.5250  141.3970 C   0  0  0  0  0  2  0  0  0  0  0  0
  191.5430  176.7690  143.7520 N   0  0  0  0  0  2  0  0  0  0  0  0
  191.4770  177.7660  142.7310 C   0  0  0  0  0  0  0  0  0  0  0  0
  190.8410  178.8310  142.9460 O   0  0  0  0  0  0  0  0  0  0  0  0
  192.2370  175.6140  143.5850 O   0  0  0  0  0  0  0  0  0  0  0  0
  191.9470  173.6720  144.9570 C   0  0  0  0  0  1  0  0  0  0  0  0
  192.4340  175.1100  144.8750 C   0  0  2  0  0  3  0  0  0  0  0  0
  192.4480  176.1080  147.0590 O   0  0  0  0  0  1  0  0  0  0  0  0
  191.7020  175.9770  145.8890 C   0  0  0  0  0  2  0  0  0  0  0  0
  187.8120  175.2100  134.9520 O   0  0  0  0  0  0  0  0  0  0  0  0
  186.5480  175.8250  134.9030 C   0  0  0  0  0  2  0  0  0  0  0  0
  184.2080  175.3750  135.0120 O   0  0  0  0  0  1  0  0  0  0  0  0
  185.4620  174.8460  135.3200 C   0  0  0  0  0  0  0  0  0  0  0  0
  185.6330  173.6330  134.6520 O   0  0  0  0  0  1  0  0  0  0  0  0
  185.5520  174.6090  136.8140 C   0  0  0  0  0  1  0  0  0  0  0  0
  183.2420  179.3540  145.0150 N   0  0  0  0  0  2  0  0  0  0  0  0
  182.6550  178.4680  144.0170 C   0  0  0  0  0  2  0  0  0  0  0  0
  183.2410  178.7320  142.6370 C   0  0  0  0  0  2  0  0  0  0  0  0
  183.1160  177.6640  140.4020 C   0  0  0  0  0  2  0  0  0  0  0  0
  180.9010  176.5280  139.9470 C   0  0  1  0  0  3  0  0  0  0  0  0
  182.2980  178.2550  141.5490 C   0  0  2  0  0  3  0  0  0  0  0  0
  181.6600  179.2970  138.1600 C   0  0  0  0  0  2  0  0  0  0  0  0
  182.2370  176.9950  139.3450 C   0  0  1  0  0  3  0  0  0  0  0  0
  182.1490  177.8360  138.0580 C   0  0  1  0  0  3  0  0  0  0  0  0
  180.1240  181.0990  138.9460 C   0  0  0  0  0  1  0  0  0  0  0  0
  181.6180  177.0800  136.8560 C   0  0  0  0  0  1  0  0  0  0  0  0
  180.2930  179.0350  140.2840 C   0  0  1  0  0  3  0  0  0  0  0  0
  181.4950  179.3780  141.0800 N   0  0  0  0  0  2  0  0  0  0  0  0
  178.9640  177.6620  138.8290 C   0  0  0  0  0  2  0  0  0  0  0  0
  180.3110  179.5930  138.8790 C   0  0  2  0  0  0  0  0  0  0  0  0
  179.1240  178.9960  138.2500 N   0  0  0  0  0  0  0  0  0  0  0  0
  179.1940  178.9080  136.7950 C   0  0  0  0  0  1  0  0  0  0  0  0
  179.7990  177.5880  140.1130 C   0  0  1  0  0  3  0  0  0  0  0  0
  180.1230  174.3300  140.4320 O   0  0  0  0  0  1  0  0  0  0  0  0
  180.4460  175.1600  139.5420 C   0  0  0  0  0  0  0  0  0  0  0  0
  180.3390  174.8090  138.2020 O   0  0  0  0  0  0  0  0  0  0  0  0
  1  2  1  0  0  0  0
  2  7  1  0  0  0  0
  2  8  1  1  0  0  0
  3  7  1  1  0  0  0
  4 47  1  6  0  0  0
  4  3  1  0  0  0  0
  5  6  1  0  0  0  0
  5  4  1  0  0  0  0
  5  3  1  0  0  0  0
  6  1  1  0  0  0  0
  8  9  1  0  0  0  0
  8 10  1  0  0  0  0
 11  8  1  0  0  0  0
 11 13  1  0  0  0  0
 13 12  1  0  0  0  0
 14 15  1  0  0  0  0
 14  6  1  0  0  0  0
 16 15  1  0  0  0  0
 17 14  1  0  0  0  0
 18 17  1  0  0  0  0
 19 18  1  0  0  0  0
 20 21  1  0  0  0  0
 21 19  1  0  0  0  0
 22 20  2  0  0  0  0
 23 25  2  0  0  0  0
 24 23  1  0  0  0  0
 25 29  1  0  0  0  0
 26 28  1  0  0  0  0
 26 27  1  0  0  0  0
 27 25  1  0  0  0  0
 27 20  1  0  0  0  0
 28 24  1  0  0  0  0
 29 31  1  0  0  0  0
 31 30  2  0  0  0  0
 31 32  1  0  0  0  0
 32 34  1  0  0  0  0
 34 35  2  0  0  0  0
 34 33  1  0  0  0  0
 36 33  1  0  0  0  0
 36 38  1  0  0  0  0
 38 37  1  0  0  0  0
 38 40  1  0  0  0  0
 40 39  1  0  0  0  0
 41 28  1  0  0  0  0
 42 41  1  0  0  0  0
 42 44  1  0  0  0  0
 43 44  1  0  0  0  0
 44 46  1  0  0  0  0
 45 44  1  0  0  0  0
 48 47  1  0  0  0  0
 49 48  1  0  0  0  0
 50 52  1  0  0  0  0
 51 64  1  0  0  0  0
 52 49  1  0  0  0  0
 53 61  1  0  0  0  0
 54 51  1  0  0  0  0
 54 50  1  0  0  0  0
 55 53  1  0  0  0  0
 55 54  1  0  0  0  0
 57 55  1  0  0  0  0
 58 59  1  0  0  0  0
 59 52  1  0  0  0  0
 60 64  1  0  0  0  0
 61 56  1  0  0  0  0
 61 58  1  0  0  0  0
 62 60  1  0  0  0  0
 62 61  1  0  0  0  0
 63 62  1  0  0  0  0
 64 58  1  0  0  0  0
 66 51  1  0  0  0  0
 66 65  1  0  0  0  0
 67 66  2  0  0  0  0
M  END
>  <MODEL>
7

>  <REMARK>
 VINA RESULT:      -5.4      3.169      8.390
  Name = 
  24 active torsions:
  status: ('A' for Active; 'I' for Inactive)
    1  A    between atoms: C_4  and  C_8
    2  A    between atoms: N_5  and  O_43
    3  A    between atoms: C_7  and  C_25
    4  A    between atoms: N_9  and  C_15
    5  A    between atoms: N_9  and  C_29
    6  A    between atoms: C_10  and  C_54
    7  A    between atoms: C_11  and  C_20
    8  A    between atoms: C_13  and  C_62
    9  A    between atoms: C_15  and  C_20
   10  A    between atoms: C_16  and  C_66
   11  A    between atoms: C_16  and  C_67
   12  A    between atoms: C_17  and  C_51
   13  A    between atoms: C_17  and  C_60
   14  A    between atoms: C_17  and  C_66
   15  A    between atoms: N_19  and  C_27
   16  A    between atoms: O_22  and  C_39
   17  A    between atoms: O_22  and  C_55
   18  A    between atoms: C_24  and  C_39
   19  A    between atoms: C_25  and  O_49
   20  A    between atoms: N_30  and  C_67
   21  A    between atoms: C_38  and  C_41
   22  A    between atoms: C_38  and  O_43
   23  A    between atoms: O_49  and  C_59
   24  A    between atoms: C_58  and  C_62
                            x       y       z     vdW  Elec       q    Type
                         _______ _______ _______ _____ _____    ______ ____

>  <TORSDO>
F 24

$$$$
=
 OpenBabel11042410333D

 67 72  0  0  1  0  0  0  0  0999 V2000
  191.7700  175.7290  137.2510 O   0  0  0  0  0  0  0  0  0  0  0  0
  192.1780  175.3950  135.9540 C   0  0  2  0  0  3  0  0  0  0  0  0
  189.9880  174.0320  135.9360 C   0  0  2  0  0  3  0  0  0  0  0  0
  189.1760  175.1500  135.3080 C   0  0  2  0  0  3  0  0  0  0  0  0
  189.4630  175.1900  136.7990 C   0  0  2  0  0  3  0  0  0  0  0  0
  190.4940  176.2920  137.0910 C   0  0  1  0  0  3  0  0  0  0  0  0
  191.4670  174.1110  135.5140 C   0  0  0  0  0  2  0  0  0  0  0  0
  193.7030  175.2420  135.8660 C   0  0  0  0  0  0  0  0  0  0  0  0
  194.0080  174.6450  134.6560 F   0  0  0  0  0  0  0  0  0  0  0  0
  194.1670  174.4020  136.8760 F   0  0  0  0  0  0  0  0  0  0  0  0
  194.3290  176.5100  135.8800 O   0  0  0  0  0  0  0  0  0  0  0  0
  196.5760  176.0150  135.2600 C   0  0  0  0  0  1  0  0  0  0  0  0
  195.2480  176.6000  134.8230 C   0  0  0  0  0  2  0  0  0  0  0  0
  190.0750  177.0620  138.3490 C   0  0  2  0  0  3  0  0  0  0  0  0
  190.9320  176.6250  139.5310 C   0  0  0  0  0  2  0  0  0  0  0  0
  192.1660  177.2810  139.4970 O   0  0  0  0  0  1  0  0  0  0  0  0
  188.6090  176.8340  138.6880 C   0  0  0  0  0  2  0  0  0  0  0  0
  187.9450  178.1570  139.0130 C   0  0  0  0  0  2  0  0  0  0  0  0
  188.2800  178.5580  140.4290 C   0  0  0  0  0  2  0  0  0  0  0  0
  187.4910  178.0190  142.7590 C   0  0  0  0  0  0  0  0  0  0  0  0
  187.4570  177.7980  141.3470 N   0  0  0  0  0  2  0  0  0  0  0  0
  188.3220  178.8270  143.2560 O   0  0  0  0  0  0  0  0  0  0  0  0
  185.9600  178.4820  145.7850 C   0  0  0  0  0  3  0  0  0  0  0  0
  184.7710  179.2090  145.2190 C   0  0  0  0  0  2  0  0  0  0  0  0
  186.6920  177.5860  145.1010 C   0  0  0  0  0  0  0  0  0  0  0  0
  185.0570  177.7590  143.1710 C   0  0  0  0  0  2  0  0  0  0  0  0
  186.4600  177.3480  143.6230 C   0  0  1  0  0  3  0  0  0  0  0  0
  184.7410  179.1630  143.6890 C   0  0  1  0  0  3  0  0  0  0  0  0
  187.7780  176.8880  145.7300 N   0  0  0  0  0  2  0  0  0  0  0  0
  188.2130  178.3630  147.5090 O   0  0  0  0  0  0  0  0  0  0  0  0
  188.5040  177.2990  146.8990 C   0  0  0  0  0  0  0  0  0  0  0  0
  189.6190  176.4520  147.4130 C   0  0  0  0  0  2  0  0  0  0  0  0
  191.5020  177.4720  146.0510 N   0  0  0  0  0  2  0  0  0  0  0  0
  190.9320  177.1620  147.3240 C   0  0  0  0  0  0  0  0  0  0  0  0
  191.5680  177.4470  148.3720 O   0  0  0  0  0  0  0  0  0  0  0  0
  190.8480  177.2120  144.8900 O   0  0  0  0  0  0  0  0  0  0  0  0
  191.8490  178.1170  142.9110 C   0  0  0  0  0  1  0  0  0  0  0  0
  191.8520  176.9980  143.9400 C   0  0  2  0  0  3  0  0  0  0  0  0
  190.4430  175.6320  142.5540 O   0  0  0  0  0  1  0  0  0  0  0  0
  191.6450  175.6510  143.2610 C   0  0  0  0  0  2  0  0  0  0  0  0
  183.5600  179.7140  143.1410 O   0  0  0  0  0  0  0  0  0  0  0  0
  182.6940  178.6710  142.7640 C   0  0  0  0  0  2  0  0  0  0  0  0
  180.8760  180.1560  143.1800 O   0  0  0  0  0  1  0  0  0  0  0  0
  181.3740  179.2310  142.2620 C   0  0  0  0  0  0  0  0  0  0  0  0
  181.5580  179.8530  141.0270 O   0  0  0  0  0  1  0  0  0  0  0  0
  180.3800  178.0980  142.1060 C   0  0  0  0  0  1  0  0  0  0  0  0
  187.8030  174.7130  135.1080 N   0  0  0  0  0  2  0  0  0  0  0  0
  186.9420  175.5110  135.9730 C   0  0  0  0  0  2  0  0  0  0  0  0
  186.2100  174.6310  136.9770 C   0  0  0  0  0  2  0  0  0  0  0  0
  183.9310  174.3940  137.9250 C   0  0  0  0  0  2  0  0  0  0  0  0
  182.1060  175.2610  136.4010 C   0  0  1  0  0  3  0  0  0  0  0  0
  184.7360  174.5320  136.6340 C   0  0  2  0  0  3  0  0  0  0  0  0
  182.2670  171.9270  136.9460 C   0  0  0  0  0  2  0  0  0  0  0  0
  182.4230  174.4710  137.6820 C   0  0  1  0  0  3  0  0  0  0  0  0
  181.7510  173.0920  137.8170 C   0  0  1  0  0  3  0  0  0  0  0  0
  183.0160  170.8880  134.8050 C   0  0  0  0  0  1  0  0  0  0  0  0
  180.2420  173.1470  137.9600 C   0  0  0  0  0  1  0  0  0  0  0  0
  183.2200  173.3320  135.0570 C   0  0  1  0  0  3  0  0  0  0  0  0
  184.5180  173.3790  135.7700 N   0  0  0  0  0  2  0  0  0  0  0  0
  180.8920  173.8300  134.7380 C   0  0  0  0  0  2  0  0  0  0  0  0
  182.3750  172.1270  135.4060 C   0  0  2  0  0  0  0  0  0  0  0  0
  181.1010  172.3810  134.7180 N   0  0  0  0  0  0  0  0  0  0  0  0
  179.9530  171.6990  135.3070 C   0  0  0  0  0  1  0  0  0  0  0  0
  182.2280  174.5080  135.0650 C   0  0  1  0  0  3  0  0  0  0  0  0
  180.8720  177.1480  135.6320 O   0  0  0  0  0  0  0  0  0  0  0  0
  180.9840  176.2460  136.5040 C   0  0  0  0  0  0  0  0  0  0  0  0
  180.0430  176.1550  137.5230 O   0  0  0  0  0  1  0  0  0  0  0  0
  2  8  1  1  0  0  0
  2  1  1  0  0  0  0
  3  7  1  6  0  0  0
  3  5  1  0  0  0  0
  4 47  1  1  0  0  0
  4  3  1  0  0  0  0
  4  5  1  0  0  0  0
  5  6  1  0  0  0  0
  6  1  1  0  0  0  0
  6 14  1  0  0  0  0
  7  2  1  0  0  0  0
  8 11  1  0  0  0  0
  8 10  1  0  0  0  0
  9  8  1  0  0  0  0
 13 12  1  0  0  0  0
 13 11  1  0  0  0  0
 14 17  1  0  0  0  0
 14 15  1  0  0  0  0
 16 15  1  0  0  0  0
 17 18  1  0  0  0  0
 18 19  1  0  0  0  0
 19 21  1  0  0  0  0
 20 22  2  0  0  0  0
 20 27  1  0  0  0  0
 21 20  1  0  0  0  0
 24 23  1  0  0  0  0
 25 29  1  0  0  0  0
 25 23  2  0  0  0  0
 26 27  1  0  0  0  0
 26 28  1  0  0  0  0
 27 25  1  0  0  0  0
 28 24  1  0  0  0  0
 29 31  1  0  0  0  0
 31 32  1  0  0  0  0
 31 30  2  0  0  0  0
 33 34  1  0  0  0  0
 34 32  1  0  0  0  0
 34 35  2  0  0  0  0
 36 33  1  0  0  0  0
 37 38  1  0  0  0  0
 38 36  1  0  0  0  0
 39 40  1  0  0  0  0
 40 38  1  0  0  0  0
 41 28  1  0  0  0  0
 42 41  1  0  0  0  0
 44 42  1  0  0  0  0
 44 43  1  0  0  0  0
 45 44  1  0  0  0  0
 46 44  1  0  0  0  0
 47 48  1  0  0  0  0
 48 49  1  0  0  0  0
 51 66  1  0  0  0  0
 51 54  1  0  0  0  0
 52 49  1  0  0  0  0
 52 50  1  0  0  0  0
 53 55  1  0  0  0  0
 54 55  1  0  0  0  0
 54 50  1  0  0  0  0
 55 57  1  0  0  0  0
 56 61  1  0  0  0  0
 58 64  1  0  0  0  0
 58 61  1  0  0  0  0
 58 59  1  0  0  0  0
 59 52  1  0  0  0  0
 60 64  1  0  0  0  0
 61 53  1  0  0  0  0
 62 60  1  0  0  0  0
 62 63  1  0  0  0  0
 62 61  1  0  0  0  0
 64 51  1  0  0  0  0
 65 66  2  0  0  0  0
 66 67  1  0  0  0  0
M  END
>  <MODEL>
8

>  <REMARK>
 VINA RESULT:      -5.2      3.690     10.985
  Name = 
  24 active torsions:
  status: ('A' for Active; 'I' for Inactive)
    1  A    between atoms: C_4  and  C_8
    2  A    between atoms: N_5  and  O_43
    3  A    between atoms: C_7  and  C_25
    4  A    between atoms: N_9  and  C_15
    5  A    between atoms: N_9  and  C_29
    6  A    between atoms: C_10  and  C_54
    7  A    between atoms: C_11  and  C_20
    8  A    between atoms: C_13  and  C_62
    9  A    between atoms: C_15  and  C_20
   10  A    between atoms: C_16  and  C_66
   11  A    between atoms: C_16  and  C_67
   12  A    between atoms: C_17  and  C_51
   13  A    between atoms: C_17  and  C_60
   14  A    between atoms: C_17  and  C_66
   15  A    between atoms: N_19  and  C_27
   16  A    between atoms: O_22  and  C_39
   17  A    between atoms: O_22  and  C_55
   18  A    between atoms: C_24  and  C_39
   19  A    between atoms: C_25  and  O_49
   20  A    between atoms: N_30  and  C_67
   21  A    between atoms: C_38  and  C_41
   22  A    between atoms: C_38  and  O_43
   23  A    between atoms: O_49  and  C_59
   24  A    between atoms: C_58  and  C_62
                            x       y       z     vdW  Elec       q    Type
                         _______ _______ _______ _____ _____    ______ ____

>  <TORSDO>
F 24

$$$$
=
 OpenBabel11042410333D

 67 72  0  0  1  0  0  0  0  0999 V2000
  184.4260  179.4380  143.9810 O   0  0  0  0  0  0  0  0  0  0  0  0
  184.1510  178.5990  145.0680 C   0  0  2  0  0  3  0  0  0  0  0  0
  181.7100  179.2930  144.6030 C   0  0  2  0  0  3  0  0  0  0  0  0
  181.4320  178.0980  143.7100 C   0  0  2  0  0  3  0  0  0  0  0  0
  182.1720  179.2940  143.1370 C   0  0  2  0  0  3  0  0  0  0  0  0
  183.6490  178.9280  142.9290 C   0  0  1  0  0  3  0  0  0  0  0  0
  182.7840  178.9650  145.6570 C   0  0  0  0  0  2  0  0  0  0  0  0
  185.2520  178.6790  146.1340 C   0  0  0  0  0  0  0  0  0  0  0  0
  184.6540  178.6180  147.3800 F   0  0  0  0  0  0  0  0  0  0  0  0
  185.9230  179.8980  146.0510 F   0  0  0  0  0  0  0  0  0  0  0  0
  186.1220  177.5690  146.0300 O   0  0  0  0  0  0  0  0  0  0  0  0
  188.1440  177.4970  147.2890 C   0  0  0  0  0  1  0  0  0  0  0  0
  187.4560  178.0060  146.0380 C   0  0  0  0  0  2  0  0  0  0  0  0
  184.1270  179.4800  141.5810 C   0  0  2  0  0  3  0  0  0  0  0  0
  183.5590  178.6350  140.4470 C   0  0  0  0  0  2  0  0  0  0  0  0
  182.3590  179.1870  139.9920 O   0  0  0  0  0  1  0  0  0  0  0  0
  185.6460  179.4880  141.4820 C   0  0  0  0  0  2  0  0  0  0  0  0
  186.1680  178.0650  141.4750 C   0  0  0  0  0  2  0  0  0  0  0  0
  186.7440  177.7300  142.8300 C   0  0  0  0  0  2  0  0  0  0  0  0
  188.6800  176.1210  142.8660 C   0  0  0  0  0  0  0  0  0  0  0  0
  188.1560  177.4380  142.6890 N   0  0  0  0  0  2  0  0  0  0  0  0
  187.9280  175.1830  143.2500 O   0  0  0  0  0  0  0  0  0  0  0  0
  191.4070  177.8320  141.7010 C   0  0  0  0  0  3  0  0  0  0  0  0
  191.9830  178.1000  143.0640 C   0  0  0  0  0  2  0  0  0  0  0  0
  190.6170  176.7840  141.4090 C   0  0  0  0  0  0  0  0  0  0  0  0
  190.9870  175.8820  143.7490 C   0  0  0  0  0  2  0  0  0  0  0  0
  190.1120  175.8550  142.4950 C   0  0  1  0  0  3  0  0  0  0  0  0
  191.2470  177.3320  144.1640 C   0  0  1  0  0  3  0  0  0  0  0  0
  190.1520  176.5620  140.0680 N   0  0  0  0  0  2  0  0  0  0  0  0
  188.7290  178.4210  139.8350 O   0  0  0  0  0  0  0  0  0  0  0  0
  189.2250  177.3750  139.3330 C   0  0  0  0  0  0  0  0  0  0  0  0
  188.8420  176.9890  137.9440 C   0  0  0  0  0  2  0  0  0  0  0  0
  190.5970  177.2280  136.1270 N   0  0  0  0  0  2  0  0  0  0  0  0
  189.5660  177.8110  136.9270 C   0  0  0  0  0  0  0  0  0  0  0  0
  189.3060  179.0360  136.8030 O   0  0  0  0  0  0  0  0  0  0  0  0
  190.9020  175.9070  136.2000 O   0  0  0  0  0  0  0  0  0  0  0  0
  192.8720  174.8560  135.3340 C   0  0  0  0  0  1  0  0  0  0  0  0
  192.2940  175.8540  136.3250 C   0  0  2  0  0  3  0  0  0  0  0  0
  193.8800  174.7730  137.7680 O   0  0  0  0  0  1  0  0  0  0  0  0
  192.6740  175.4710  137.7480 C   0  0  0  0  0  2  0  0  0  0  0  0
  191.8590  177.4550  145.4320 O   0  0  0  0  0  0  0  0  0  0  0  0
  192.0850  176.1720  145.9630 C   0  0  0  0  0  2  0  0  0  0  0  0
  191.8200  177.4420  147.9640 O   0  0  0  0  0  1  0  0  0  0  0  0
  191.7650  176.1460  147.4490 C   0  0  0  0  0  0  0  0  0  0  0  0
  190.4900  175.6180  147.6520 O   0  0  0  0  0  1  0  0  0  0  0  0
  192.7830  175.2810  148.1620 C   0  0  0  0  0  1  0  0  0  0  0  0
  180.0530  178.1360  143.2470 N   0  0  0  0  0  2  0  0  0  0  0  0
  180.0410  177.8000  141.8280 C   0  0  0  0  0  2  0  0  0  0  0  0
  180.0570  176.2920  141.6220 C   0  0  0  0  0  2  0  0  0  0  0  0
  181.5790  175.7130  139.7520 C   0  0  0  0  0  2  0  0  0  0  0  0
  180.4410  174.4500  137.8760 C   0  0  1  0  0  3  0  0  0  0  0  0
  180.1220  175.9490  140.1460 C   0  0  2  0  0  3  0  0  0  0  0  0
  181.4960  177.6030  137.2550 C   0  0  0  0  0  2  0  0  0  0  0  0
  181.7160  175.1850  138.3230 C   0  0  1  0  0  3  0  0  0  0  0  0
  182.2550  176.2630  137.3650 C   0  0  1  0  0  3  0  0  0  0  0  0
  179.4490  179.0080  137.0190 C   0  0  0  0  0  1  0  0  0  0  0  0
  182.7640  175.7220  136.0430 C   0  0  0  0  0  1  0  0  0  0  0  0
  179.2140  176.7420  137.9610 C   0  0  1  0  0  3  0  0  0  0  0  0
  179.5540  177.0460  139.3710 N   0  0  0  0  0  2  0  0  0  0  0  0
  179.4140  175.5630  135.8770 C   0  0  0  0  0  2  0  0  0  0  0  0
  179.9680  177.5830  136.9560 C   0  0  2  0  0  0  0  0  0  0  0  0
  179.5930  177.0000  135.6590 N   0  0  0  0  0  0  0  0  0  0  0  0
  180.5630  177.2300  134.5940 C   0  0  0  0  0  1  0  0  0  0  0  0
  179.2690  175.3170  137.3850 C   0  0  1  0  0  3  0  0  0  0  0  0
  181.7430  172.9550  136.5560 O   0  0  0  0  0  0  0  0  0  0  0  0
  180.6540  173.1560  137.1550 C   0  0  0  0  0  0  0  0  0  0  0  0
  179.6850  172.1600  137.1710 O   0  0  0  0  0  1  0  0  0  0  0  0
  1  2  1  0  0  0  0
  2  7  1  0  0  0  0
  2  8  1  1  0  0  0
  3  7  1  1  0  0  0
  4 47  1  6  0  0  0
  4  3  1  0  0  0  0
  5  4  1  0  0  0  0
  5  3  1  0  0  0  0
  6  5  1  0  0  0  0
  6  1  1  0  0  0  0
  8  9  1  0  0  0  0
 10  8  1  0  0  0  0
 11 13  1  0  0  0  0
 11  8  1  0  0  0  0
 13 12  1  0  0  0  0
 14  6  1  0  0  0  0
 15 14  1  0  0  0  0
 16 15  1  0  0  0  0
 17 14  1  0  0  0  0
 18 17  1  0  0  0  0
 18 19  1  0  0  0  0
 20 22  2  0  0  0  0
 21 19  1  0  0  0  0
 21 20  1  0  0  0  0
 23 24  1  0  0  0  0
 24 28  1  0  0  0  0
 25 23  2  0  0  0  0
 25 27  1  0  0  0  0
 26 28  1  0  0  0  0
 27 20  1  0  0  0  0
 27 26  1  0  0  0  0
 28 41  1  0  0  0  0
 29 25  1  0  0  0  0
 31 30  2  0  0  0  0
 31 29  1  0  0  0  0
 32 31  1  0  0  0  0
 33 36  1  0  0  0  0
 33 34  1  0  0  0  0
 34 32  1  0  0  0  0
 35 34  2  0  0  0  0
 36 38  1  0  0  0  0
 37 38  1  0  0  0  0
 38 40  1  0  0  0  0
 40 39  1  0  0  0  0
 41 42  1  0  0  0  0
 42 44  1  0  0  0  0
 44 45  1  0  0  0  0
 44 43  1  0  0  0  0
 44 46  1  0  0  0  0
 48 47  1  0  0  0  0
 49 48  1  0  0  0  0
 50 52  1  0  0  0  0
 51 54  1  0  0  0  0
 52 49  1  0  0  0  0
 53 55  1  0  0  0  0
 54 50  1  0  0  0  0
 55 54  1  0  0  0  0
 57 55  1  0  0  0  0
 58 59  1  0  0  0  0
 59 52  1  0  0  0  0
 60 64  1  0  0  0  0
 61 56  1  0  0  0  0
 61 53  1  0  0  0  0
 61 58  1  0  0  0  0
 62 60  1  0  0  0  0
 62 61  1  0  0  0  0
 63 62  1  0  0  0  0
 64 51  1  0  0  0  0
 64 58  1  0  0  0  0
 65 66  2  0  0  0  0
 66 67  1  0  0  0  0
 66 51  1  0  0  0  0
M  END
>  <MODEL>
9

>  <REMARK>
 VINA RESULT:      -5.2      2.656      9.075
  Name = 
  24 active torsions:
  status: ('A' for Active; 'I' for Inactive)
    1  A    between atoms: C_4  and  C_8
    2  A    between atoms: N_5  and  O_43
    3  A    between atoms: C_7  and  C_25
    4  A    between atoms: N_9  and  C_15
    5  A    between atoms: N_9  and  C_29
    6  A    between atoms: C_10  and  C_54
    7  A    between atoms: C_11  and  C_20
    8  A    between atoms: C_13  and  C_62
    9  A    between atoms: C_15  and  C_20
   10  A    between atoms: C_16  and  C_66
   11  A    between atoms: C_16  and  C_67
   12  A    between atoms: C_17  and  C_51
   13  A    between atoms: C_17  and  C_60
   14  A    between atoms: C_17  and  C_66
   15  A    between atoms: N_19  and  C_27
   16  A    between atoms: O_22  and  C_39
   17  A    between atoms: O_22  and  C_55
   18  A    between atoms: C_24  and  C_39
   19  A    between atoms: C_25  and  O_49
   20  A    between atoms: N_30  and  C_67
   21  A    between atoms: C_38  and  C_41
   22  A    between atoms: C_38  and  O_43
   23  A    between atoms: O_49  and  C_59
   24  A    between atoms: C_58  and  C_62
                            x       y       z     vdW  Elec       q    Type
                         _______ _______ _______ _____ _____    ______ ____

>  <TORSDO>
F 24

$$$$
