=
 OpenBabel11032420183D

 32 35  0  0  1  0  0  0  0  0999 V2000
  185.5970  178.3570  141.7600 C   0  0  0  0  0  0  0  0  0  0  0  0
  179.9080  176.3690  136.3130 C   0  0  0  0  0  2  0  0  0  0  0  0
  181.3060  179.3250  134.7890 C   0  0  0  0  0  1  0  0  0  0  0  0
  178.9310  177.0080  140.7680 C   0  0  0  0  0  2  0  0  0  0  0  0
  183.1040  177.7670  137.0990 N   0  0  0  0  0  2  0  0  0  0  0  0
  180.1090  177.2270  135.1460 N   0  0  0  0  0  2  0  0  0  0  0  0
  179.5270  179.1980  143.7110 O   0  0  0  0  0  1  0  0  0  0  0  0
  180.5190  174.9170  138.9320 C   0  0  1  0  0  3  0  0  0  0  0  0
  181.2820  176.1130  138.4200 C   0  0  0  0  0  0  0  0  0  0  0  0
  179.3470  177.3790  142.1780 C   0  0  0  0  0  2  0  0  0  0  0  0
  185.2930  177.9990  144.7950 C   0  0  0  0  0  3  0  0  0  0  0  0
  186.3530  177.6970  144.0340 C   0  0  0  0  0  3  0  0  0  0  0  0
  184.5910  177.7380  138.9080 O   0  0  0  0  0  0  0  0  0  0  0  0
  183.2400  177.7380  138.5570 C   0  0  2  0  0  3  0  0  0  0  0  0
  182.3650  179.2260  142.8990 N   0  0  0  0  0  0  0  0  0  0  0  0
  184.2130  178.9840  144.4270 C   0  0  2  0  0  3  0  0  0  0  0  0
  179.3350  178.8900  142.3640 C   0  0  2  0  0  3  0  0  0  0  0  0
  181.3910  177.9150  135.3360 C   0  0  2  0  0  3  0  0  0  0  0  0
  184.1980  177.8840  142.0490 C   0  0  0  0  0  2  0  0  0  0  0  0
  184.8220  179.0100  139.4360 C   0  0  0  0  0  2  0  0  0  0  0  0
  181.6840  177.9520  136.8200 C   0  0  1  0  0  3  0  0  0  0  0  0
  179.1840  175.2470  139.1890 O   0  0  0  0  0  0  0  0  0  0  0  0
  185.9700  178.9560  140.4350 C   0  0  0  0  0  2  0  0  0  0  0  0
  182.5530  176.4930  139.1480 C   0  0  0  0  0  2  0  0  0  0  0  0
  179.1350  175.5210  140.5580 C   0  0  0  0  0  2  0  0  0  0  0  0
  180.4000  179.5820  141.5110 C   0  0  0  0  0  2  0  0  0  0  0  0
  180.9190  176.7890  137.3100 C   0  0  0  0  0  0  0  0  0  0  0  0
  183.5410  178.7220  143.1070 C   0  0  0  0  0  0  0  0  0  0  0  0
  181.6880  179.0190  141.7180 O   0  0  0  0  0  0  0  0  0  0  0  0
  180.5970  173.7470  137.9670 C   0  0  0  0  0  1  0  0  0  0  0  0
  186.5690  178.2020  142.6640 C   0  0  0  0  0  3  0  0  0  0  0  0
  184.7340  180.4090  144.4930 C   0  0  0  0  0  1  0  0  0  0  0  0
  1 19  1  0  0  0  0
  1 31  2  0  0  0  0
  2 27  1  0  0  0  0
  4 10  1  0  0  0  0
  5 14  1  0  0  0  0
  6 18  1  0  0  0  0
  6  2  1  0  0  0  0
  8 30  1  6  0  0  0
  8 22  1  0  0  0  0
  9  8  1  0  0  0  0
  9 24  1  0  0  0  0
 10 17  1  0  0  0  0
 12 11  2  0  0  0  0
 13 20  1  0  0  0  0
 14 13  1  0  0  0  0
 14 24  1  6  0  0  0
 15 28  2  0  0  0  0
 16 32  1  6  0  0  0
 16 11  1  0  0  0  0
 17  7  1  1  0  0  0
 18  3  1  1  0  0  0
 18 21  1  0  0  0  0
 19 28  1  0  0  0  0
 20 23  1  0  0  0  0
 21  5  1  6  0  0  0
 21 27  1  0  0  0  0
 22 25  1  0  0  0  0
 23  1  1  0  0  0  0
 25  4  1  0  0  0  0
 26 29  1  0  0  0  0
 26 17  1  0  0  0  0
 27  9  2  0  0  0  0
 28 16  1  0  0  0  0
 29 15  1  0  0  0  0
 31 12  1  0  0  0  0
M  END
>  <MODEL>
1

>  <REMARK>
 VINA RESULT:      -6.7      0.000      0.000
  Name = 
  0 active torsions:
  status: ('A' for Active; 'I' for Inactive)
                            x       y       z     vdW  Elec       q    Type
                         _______ _______ _______ _____ _____    ______ ____

>  <TORSDO>
F 0

$$$$
=
 OpenBabel11032420183D

 32 35  0  0  1  0  0  0  0  0999 V2000
  187.8290  178.2850  138.8140 C   0  0  0  0  0  0  0  0  0  0  0  0
  180.0150  179.7670  140.4710 C   0  0  0  0  0  2  0  0  0  0  0  0
  181.0660  178.1620  143.5260 C   0  0  0  0  0  1  0  0  0  0  0  0
  181.3350  177.4210  136.7340 C   0  0  0  0  0  2  0  0  0  0  0  0
  183.4080  179.4230  141.5450 N   0  0  0  0  0  2  0  0  0  0  0  0
  179.8090  179.4620  141.8860 N   0  0  0  0  0  2  0  0  0  0  0  0
  183.6080  174.7630  135.4780 O   0  0  0  0  0  1  0  0  0  0  0  0
  181.4880  180.4130  137.8720 C   0  0  1  0  0  3  0  0  0  0  0  0
  182.1320  179.8000  139.0890 C   0  0  0  0  0  0  0  0  0  0  0  0
  182.4130  176.7890  135.8760 C   0  0  0  0  0  2  0  0  0  0  0  0
  188.8970  177.5120  136.0400 C   0  0  0  0  0  3  0  0  0  0  0  0
  189.4120  178.4000  136.9010 C   0  0  0  0  0  3  0  0  0  0  0  0
  185.5280  179.3910  140.5500 O   0  0  0  0  0  0  0  0  0  0  0  0
  184.1920  179.0260  140.3740 C   0  0  2  0  0  3  0  0  0  0  0  0
  185.7040  176.0070  137.1420 N   0  0  0  0  0  0  0  0  0  0  0  0
  187.9690  176.3840  136.4090 C   0  0  2  0  0  3  0  0  0  0  0  0
  182.7650  175.3990  136.3880 C   0  0  2  0  0  3  0  0  0  0  0  0
  181.1350  179.2530  142.4770 C   0  0  2  0  0  3  0  0  0  0  0  0
  186.6600  178.1100  137.8820 C   0  0  0  0  0  2  0  0  0  0  0  0
  186.2040  178.1880  140.7580 C   0  0  0  0  0  2  0  0  0  0  0  0
  182.0800  178.8460  141.3670 C   0  0  1  0  0  3  0  0  0  0  0  0
  180.5060  179.5650  137.3440 O   0  0  0  0  0  0  0  0  0  0  0  0
  187.6510  178.3200  140.3040 C   0  0  0  0  0  2  0  0  0  0  0  0
  183.6410  179.6820  139.0950 C   0  0  0  0  0  2  0  0  0  0  0  0
  181.1450  178.8660  136.3170 C   0  0  0  0  0  2  0  0  0  0  0  0
  183.4220  175.4460  137.7690 C   0  0  0  0  0  2  0  0  0  0  0  0
  181.4290  179.4360  140.1820 C   0  0  0  0  0  0  0  0  0  0  0  0
  186.7290  176.8000  137.1520 C   0  0  0  0  0  0  0  0  0  0  0  0
  184.5340  176.3300  137.7920 O   0  0  0  0  0  0  0  0  0  0  0  0
  180.8980  181.7790  138.1770 C   0  0  0  0  0  1  0  0  0  0  0  0
  189.0610  178.4750  138.3330 C   0  0  0  0  0  3  0  0  0  0  0  0
  188.7120  175.2960  137.1670 C   0  0  0  0  0  1  0  0  0  0  0  0
  1 23  1  0  0  0  0
  2  6  1  0  0  0  0
  6 18  1  0  0  0  0
  8 30  1  1  0  0  0
  8  9  1  0  0  0  0
  9 24  1  0  0  0  0
  9 27  2  0  0  0  0
 10 17  1  0  0  0  0
 10  4  1  0  0  0  0
 11 16  1  0  0  0  0
 11 12  2  0  0  0  0
 12 31  1  0  0  0  0
 13 20  1  0  0  0  0
 14 24  1  6  0  0  0
 14 13  1  0  0  0  0
 14  5  1  0  0  0  0
 15 28  2  0  0  0  0
 15 29  1  0  0  0  0
 16 28  1  0  0  0  0
 16 32  1  1  0  0  0
 17  7  1  6  0  0  0
 17 26  1  0  0  0  0
 18  3  1  1  0  0  0
 19  1  1  0  0  0  0
 21 27  1  6  0  0  0
 21  5  1  0  0  0  0
 21 18  1  0  0  0  0
 22  8  1  0  0  0  0
 23 20  1  0  0  0  0
 25  4  1  0  0  0  0
 25 22  1  0  0  0  0
 26 29  1  0  0  0  0
 27  2  1  0  0  0  0
 28 19  1  0  0  0  0
 31  1  2  0  0  0  0
M  END
>  <MODEL>
2

>  <REMARK>
 VINA RESULT:      -6.7      3.012      6.308
  Name = 
  0 active torsions:
  status: ('A' for Active; 'I' for Inactive)
                            x       y       z     vdW  Elec       q    Type
                         _______ _______ _______ _____ _____    ______ ____

>  <TORSDO>
F 0

$$$$
=
 OpenBabel11032420183D

 32 35  0  0  1  0  0  0  0  0999 V2000
  190.2590  177.1910  142.1060 C   0  0  0  0  0  0  0  0  0  0  0  0
  193.1230  175.2360  134.7590 C   0  0  0  0  0  2  0  0  0  0  0  0
  195.4310  177.8380  135.7190 C   0  0  0  0  0  1  0  0  0  0  0  0
  188.7380  176.4650  135.4410 C   0  0  0  0  0  2  0  0  0  0  0  0
  193.6700  176.3600  138.1100 N   0  0  0  0  0  2  0  0  0  0  0  0
  194.3980  175.9330  134.5940 N   0  0  0  0  0  2  0  0  0  0  0  0
  186.5090  178.8890  137.1640 O   0  0  0  0  0  1  0  0  0  0  0  0
  190.6880  174.0250  136.1550 C   0  0  1  0  0  3  0  0  0  0  0  0
  191.5910  175.0680  136.7630 C   0  0  0  0  0  0  0  0  0  0  0  0
  187.6190  176.9420  136.3460 C   0  0  0  0  0  2  0  0  0  0  0  0
  187.2810  177.2050  142.8590 C   0  0  0  0  0  3  0  0  0  0  0  0
  188.3050  176.7080  143.5650 C   0  0  0  0  0  3  0  0  0  0  0  0
  192.4850  176.3720  140.1290 O   0  0  0  0  0  0  0  0  0  0  0  0
  192.3550  176.4780  138.7440 C   0  0  2  0  0  3  0  0  0  0  0  0
  188.2290  178.5230  139.5360 N   0  0  0  0  0  0  0  0  0  0  0  0
  187.3980  178.2530  141.7820 C   0  0  2  0  0  3  0  0  0  0  0  0
  187.6540  178.4570  136.4950 C   0  0  2  0  0  3  0  0  0  0  0  0
  194.7510  176.4960  135.9010 C   0  0  2  0  0  3  0  0  0  0  0  0
  189.4510  176.9060  140.8680 C   0  0  0  0  0  2  0  0  0  0  0  0
  192.2510  177.6620  140.6100 C   0  0  0  0  0  2  0  0  0  0  0  0
  193.4750  176.6650  136.6960 C   0  0  1  0  0  3  0  0  0  0  0  0
  190.0440  174.5240  135.0160 O   0  0  0  0  0  0  0  0  0  0  0  0
  191.7020  177.5960  142.0280 C   0  0  0  0  0  2  0  0  0  0  0  0
  191.3970  175.3880  138.2300 C   0  0  0  0  0  2  0  0  0  0  0  0
  188.7920  174.9510  135.4660 C   0  0  0  0  0  2  0  0  0  0  0  0
  188.9060  178.9320  137.2360 C   0  0  0  0  0  2  0  0  0  0  0  0
  192.5970  175.6520  136.0790 C   0  0  0  0  0  0  0  0  0  0  0  0
  188.3620  177.9210  140.6760 C   0  0  0  0  0  0  0  0  0  0  0  0
  189.0690  178.2600  138.4770 O   0  0  0  0  0  0  0  0  0  0  0  0
  191.4480  172.7540  135.8170 C   0  0  0  0  0  1  0  0  0  0  0  0
  189.7240  177.0330  143.3200 C   0  0  0  0  0  3  0  0  0  0  0  0
  187.7130  179.6130  142.3810 C   0  0  0  0  0  1  0  0  0  0  0  0
  1 31  2  0  0  0  0
  2 27  1  0  0  0  0
  4 25  1  0  0  0  0
  4 10  1  0  0  0  0
  5 14  1  0  0  0  0
  6  2  1  0  0  0  0
  6 18  1  0  0  0  0
  8 30  1  6  0  0  0
  8  9  1  0  0  0  0
  9 24  1  0  0  0  0
 10 17  1  0  0  0  0
 11 12  2  0  0  0  0
 13 20  1  0  0  0  0
 14 24  1  6  0  0  0
 14 13  1  0  0  0  0
 15 28  2  0  0  0  0
 16 32  1  1  0  0  0
 16 11  1  0  0  0  0
 17  7  1  1  0  0  0
 17 26  1  0  0  0  0
 18  3  1  6  0  0  0
 18 21  1  0  0  0  0
 19  1  1  0  0  0  0
 20 23  1  0  0  0  0
 21 27  1  6  0  0  0
 21  5  1  0  0  0  0
 22 25  1  0  0  0  0
 22  8  1  0  0  0  0
 23  1  1  0  0  0  0
 26 29  1  0  0  0  0
 27  9  2  0  0  0  0
 28 19  1  0  0  0  0
 28 16  1  0  0  0  0
 29 15  1  0  0  0  0
 31 12  1  0  0  0  0
M  END
>  <MODEL>
3

>  <REMARK>
 VINA RESULT:      -6.0      6.788      9.446
  Name = 
  0 active torsions:
  status: ('A' for Active; 'I' for Inactive)
                            x       y       z     vdW  Elec       q    Type
                         _______ _______ _______ _____ _____    ______ ____

>  <TORSDO>
F 0

$$$$
=
 OpenBabel11032420183D

 32 35  0  0  1  0  0  0  0  0999 V2000
  189.0280  176.8070  136.6040 C   0  0  0  0  0  0  0  0  0  0  0  0
  181.1850  178.0560  138.3150 C   0  0  0  0  0  2  0  0  0  0  0  0
  182.6830  178.6030  141.5510 C   0  0  0  0  0  1  0  0  0  0  0  0
  182.6840  174.1740  136.3420 C   0  0  0  0  0  2  0  0  0  0  0  0
  184.6420  178.7760  138.8800 N   0  0  0  0  0  2  0  0  0  0  0  0
  181.1190  178.5870  139.6760 N   0  0  0  0  0  2  0  0  0  0  0  0
  185.3200  171.5560  136.4360 O   0  0  0  0  0  1  0  0  0  0  0  0
  182.3640  177.2760  135.6050 C   0  0  1  0  0  3  0  0  0  0  0  0
  183.1780  177.5410  136.8460 C   0  0  0  0  0  0  0  0  0  0  0  0
  183.8070  173.2960  135.8250 C   0  0  0  0  0  2  0  0  0  0  0  0
  190.0540  174.7250  134.5940 C   0  0  0  0  0  3  0  0  0  0  0  0
  190.4510  175.9970  134.7350 C   0  0  0  0  0  3  0  0  0  0  0  0
  186.6710  178.4290  137.7640 O   0  0  0  0  0  0  0  0  0  0  0  0
  185.4140  177.8770  138.0200 C   0  0  2  0  0  3  0  0  0  0  0  0
  187.2520  173.7570  136.8040 N   0  0  0  0  0  0  0  0  0  0  0  0
  189.3660  173.9080  135.6570 C   0  0  2  0  0  3  0  0  0  0  0  0
  184.4310  172.4940  136.9590 C   0  0  2  0  0  3  0  0  0  0  0  0
  182.4940  178.9050  140.0780 C   0  0  2  0  0  3  0  0  0  0  0  0
  187.8570  176.0010  136.1100 C   0  0  0  0  0  2  0  0  0  0  0  0
  187.5620  177.6440  138.4970 C   0  0  0  0  0  2  0  0  0  0  0  0
  183.4300  178.0520  139.2500 C   0  0  1  0  0  3  0  0  0  0  0  0
  181.5220  176.1720  135.7850 O   0  0  0  0  0  0  0  0  0  0  0  0
  188.9340  177.6610  137.8360 C   0  0  0  0  0  2  0  0  0  0  0  0
  184.6810  177.6230  136.6900 C   0  0  0  0  0  2  0  0  0  0  0  0
  182.2140  175.0930  135.2320 C   0  0  0  0  0  2  0  0  0  0  0  0
  185.1490  173.3920  137.9680 C   0  0  0  0  0  2  0  0  0  0  0  0
  182.6160  177.7850  138.0490 C   0  0  0  0  0  0  0  0  0  0  0  0
  188.1180  174.5260  136.2220 C   0  0  0  0  0  0  0  0  0  0  0  0
  186.0830  174.2540  137.3350 O   0  0  0  0  0  0  0  0  0  0  0  0
  181.5570  178.4940  135.1910 C   0  0  0  0  0  1  0  0  0  0  0  0
  190.1750  176.8300  135.9210 C   0  0  0  0  0  3  0  0  0  0  0  0
  190.3350  173.5370  136.7670 C   0  0  0  0  0  1  0  0  0  0  0  0
  1 23  1  0  0  0  0
  2  6  1  0  0  0  0
  5 21  1  0  0  0  0
  6 18  1  0  0  0  0
  8 30  1  1  0  0  0
  8 22  1  0  0  0  0
  8  9  1  0  0  0  0
  9 27  2  0  0  0  0
 10  4  1  0  0  0  0
 10 17  1  0  0  0  0
 11 12  2  0  0  0  0
 11 16  1  0  0  0  0
 12 31  1  0  0  0  0
 13 14  1  0  0  0  0
 13 20  1  0  0  0  0
 14 24  1  6  0  0  0
 14  5  1  0  0  0  0
 15 29  1  0  0  0  0
 16 28  1  0  0  0  0
 16 32  1  1  0  0  0
 17  7  1  6  0  0  0
 17 26  1  0  0  0  0
 18  3  1  1  0  0  0
 19 28  1  0  0  0  0
 19  1  1  0  0  0  0
 21 27  1  6  0  0  0
 21 18  1  0  0  0  0
 23 20  1  0  0  0  0
 24  9  1  0  0  0  0
 25 22  1  0  0  0  0
 25  4  1  0  0  0  0
 27  2  1  0  0  0  0
 28 15  2  0  0  0  0
 29 26  1  0  0  0  0
 31  1  2  0  0  0  0
M  END
>  <MODEL>
4

>  <REMARK>
 VINA RESULT:      -5.8      4.486      7.128
  Name = 
  0 active torsions:
  status: ('A' for Active; 'I' for Inactive)
                            x       y       z     vdW  Elec       q    Type
                         _______ _______ _______ _____ _____    ______ ____

>  <TORSDO>
F 0

$$$$
=
 OpenBabel11032420183D

 32 35  0  0  1  0  0  0  0  0999 V2000
  181.9770  173.4460  135.9790 C   0  0  0  0  0  0  0  0  0  0  0  0
  181.5110  181.2360  138.2380 C   0  0  0  0  0  2  0  0  0  0  0  0
  180.2630  181.4320  134.8580 C   0  0  0  0  0  1  0  0  0  0  0  0
  185.4270  178.8280  138.5060 C   0  0  0  0  0  2  0  0  0  0  0  0
  180.2630  178.4680  136.3480 N   0  0  0  0  0  2  0  0  0  0  0  0
  180.7830  181.9470  137.1870 N   0  0  0  0  0  2  0  0  0  0  0  0
  187.6280  176.4250  136.7190 O   0  0  0  0  0  1  0  0  0  0  0  0
  182.5510  178.9040  139.9170 C   0  0  1  0  0  3  0  0  0  0  0  0
  181.9870  178.7690  138.5260 C   0  0  0  0  0  0  0  0  0  0  0  0
  186.2210  177.5560  138.2790 C   0  0  0  0  0  2  0  0  0  0  0  0
  184.2000  171.5170  136.8540 C   0  0  0  0  0  3  0  0  0  0  0  0
  182.8810  171.2860  136.8100 C   0  0  0  0  0  3  0  0  0  0  0  0
  180.5140  176.1400  136.3460 O   0  0  0  0  0  0  0  0  0  0  0  0
  181.1780  177.3470  136.5720 C   0  0  2  0  0  3  0  0  0  0  0  0
  185.1630  174.9790  135.9810 N   0  0  0  0  0  0  0  0  0  0  0  0
  184.9200  172.5830  136.0690 C   0  0  2  0  0  3  0  0  0  0  0  0
  186.7430  177.4940  136.8490 C   0  0  2  0  0  3  0  0  0  0  0  0
  180.2270  180.9300  136.2880 C   0  0  2  0  0  3  0  0  0  0  0  0
  182.9980  174.2200  136.7690 C   0  0  0  0  0  2  0  0  0  0  0  0
  181.0480  175.6560  135.1510 C   0  0  0  0  0  2  0  0  0  0  0  0
  181.0710  179.6810  136.4200 C   0  0  1  0  0  3  0  0  0  0  0  0
  183.7130  179.6850  139.9130 O   0  0  0  0  0  0  0  0  0  0  0  0
  180.9580  174.1370  135.1190 C   0  0  0  0  0  2  0  0  0  0  0  0
  181.7350  177.3700  138.0070 C   0  0  0  0  0  2  0  0  0  0  0  0
  184.7660  178.7700  139.8680 C   0  0  0  0  0  2  0  0  0  0  0  0
  185.6100  177.3650  135.8300 C   0  0  0  0  0  2  0  0  0  0  0  0
  181.6300  179.8340  137.7760 C   0  0  0  0  0  0  0  0  0  0  0  0
  184.3890  173.9770  136.2570 C   0  0  0  0  0  0  0  0  0  0  0  0
  184.7450  176.2820  136.1400 O   0  0  0  0  0  0  0  0  0  0  0  0
  181.5310  179.4790  140.8840 C   0  0  0  0  0  1  0  0  0  0  0  0
  181.9120  172.1150  136.0670 C   0  0  0  0  0  3  0  0  0  0  0  0
  184.9790  172.2230  134.5940 C   0  0  0  0  0  1  0  0  0  0  0  0
  1 31  2  0  0  0  0
  1 19  1  0  0  0  0
  4 25  1  0  0  0  0
  5 14  1  0  0  0  0
  6  2  1  0  0  0  0
  8 30  1  1  0  0  0
  9  8  1  0  0  0  0
 10  4  1  0  0  0  0
 12 11  2  0  0  0  0
 13 14  1  0  0  0  0
 14 24  1  1  0  0  0
 15 29  1  0  0  0  0
 15 28  2  0  0  0  0
 16 32  1  6  0  0  0
 16 28  1  0  0  0  0
 16 11  1  0  0  0  0
 17  7  1  1  0  0  0
 17 10  1  0  0  0  0
 18  3  1  6  0  0  0
 18 21  1  0  0  0  0
 18  6  1  0  0  0  0
 20 13  1  0  0  0  0
 21  5  1  1  0  0  0
 21 27  1  0  0  0  0
 22  8  1  0  0  0  0
 23 20  1  0  0  0  0
 23  1  1  0  0  0  0
 24  9  1  0  0  0  0
 25 22  1  0  0  0  0
 26 29  1  0  0  0  0
 26 17  1  0  0  0  0
 27  2  1  0  0  0  0
 27  9  2  0  0  0  0
 28 19  1  0  0  0  0
 31 12  1  0  0  0  0
M  END
>  <MODEL>
5

>  <REMARK>
 VINA RESULT:      -5.3      3.135      7.268
  Name = 
  0 active torsions:
  status: ('A' for Active; 'I' for Inactive)
                            x       y       z     vdW  Elec       q    Type
                         _______ _______ _______ _____ _____    ______ ____

>  <TORSDO>
F 0

$$$$
=
 OpenBabel11032420183D

 32 35  0  0  1  0  0  0  0  0999 V2000
  181.1620  179.5960  136.7290 C   0  0  0  0  0  0  0  0  0  0  0  0
  187.7900  174.9250  137.2410 C   0  0  0  0  0  2  0  0  0  0  0  0
  185.2340  172.4270  136.7440 C   0  0  0  0  0  1  0  0  0  0  0  0
  186.6500  177.9450  140.5260 C   0  0  0  0  0  2  0  0  0  0  0  0
  184.5310  175.5600  135.9130 N   0  0  0  0  0  2  0  0  0  0  0  0
  187.3890  173.5660  136.8770 N   0  0  0  0  0  2  0  0  0  0  0  0
  183.8450  179.2800  142.5650 O   0  0  0  0  0  1  0  0  0  0  0  0
  187.6740  177.9690  137.4900 C   0  0  1  0  0  3  0  0  0  0  0  0
  186.4850  177.0900  137.1970 C   0  0  0  0  0  0  0  0  0  0  0  0
  185.7080  178.9820  141.1060 C   0  0  0  0  0  2  0  0  0  0  0  0
  180.7240  182.1680  138.3480 C   0  0  0  0  0  3  0  0  0  0  0  0
  180.4900  181.9670  137.0450 C   0  0  0  0  0  3  0  0  0  0  0  0
  183.0790  177.3880  135.7340 O   0  0  0  0  0  0  0  0  0  0  0  0
  184.0390  176.7850  136.5470 C   0  0  2  0  0  3  0  0  0  0  0  0
  182.2600  179.2810  140.0750 N   0  0  0  0  0  0  0  0  0  0  0  0
  180.8140  181.0830  139.3910 C   0  0  2  0  0  3  0  0  0  0  0  0
  184.5810  178.3140  141.8800 C   0  0  2  0  0  3  0  0  0  0  0  0
  186.0280  173.6520  136.3360 C   0  0  2  0  0  3  0  0  0  0  0  0
  182.3050  179.7530  137.6960 C   0  0  0  0  0  2  0  0  0  0  0  0
  181.8680  177.1820  136.3980 C   0  0  0  0  0  2  0  0  0  0  0  0
  185.3820  174.8990  136.8970 C   0  0  1  0  0  3  0  0  0  0  0  0
  188.2100  177.6820  138.7500 O   0  0  0  0  0  0  0  0  0  0  0  0
  180.8850  178.2900  136.0420 C   0  0  0  0  0  2  0  0  0  0  0  0
  185.1930  177.7730  136.8040 C   0  0  0  0  0  2  0  0  0  0  0  0
  187.6450  178.6280  139.6090 C   0  0  0  0  0  2  0  0  0  0  0  0
  183.6600  177.5030  140.9670 C   0  0  0  0  0  2  0  0  0  0  0  0
  186.5560  175.7420  137.1940 C   0  0  0  0  0  0  0  0  0  0  0  0
  181.8130  179.9990  139.0930 C   0  0  0  0  0  0  0  0  0  0  0  0
  183.1840  178.2790  139.8760 O   0  0  0  0  0  0  0  0  0  0  0  0
  188.7440  177.8400  136.4190 C   0  0  0  0  0  1  0  0  0  0  0  0
  180.3930  180.6390  136.4090 C   0  0  0  0  0  3  0  0  0  0  0  0
  179.4440  180.4890  139.6740 C   0  0  0  0  0  1  0  0  0  0  0  0
  1 19  1  0  0  0  0
  4 10  1  0  0  0  0
  5 14  1  0  0  0  0
  6  2  1  0  0  0  0
  8 30  1  6  0  0  0
  8 22  1  0  0  0  0
  9  8  1  0  0  0  0
 10 17  1  0  0  0  0
 11 16  1  0  0  0  0
 12 11  2  0  0  0  0
 13 20  1  0  0  0  0
 13 14  1  0  0  0  0
 14 24  1  6  0  0  0
 16 32  1  6  0  0  0
 17  7  1  6  0  0  0
 18  3  1  1  0  0  0
 18  6  1  0  0  0  0
 18 21  1  0  0  0  0
 19 28  1  0  0  0  0
 21  5  1  6  0  0  0
 21 27  1  0  0  0  0
 22 25  1  0  0  0  0
 23 20  1  0  0  0  0
 23  1  1  0  0  0  0
 24  9  1  0  0  0  0
 25  4  1  0  0  0  0
 26 17  1  0  0  0  0
 27  9  2  0  0  0  0
 27  2  1  0  0  0  0
 28 16  1  0  0  0  0
 28 15  2  0  0  0  0
 29 15  1  0  0  0  0
 29 26  1  0  0  0  0
 31  1  2  0  0  0  0
 31 12  1  0  0  0  0
M  END
>  <MODEL>
6

>  <REMARK>
 VINA RESULT:      -5.1      3.230      6.581
  Name = 
  0 active torsions:
  status: ('A' for Active; 'I' for Inactive)
                            x       y       z     vdW  Elec       q    Type
                         _______ _______ _______ _____ _____    ______ ____

>  <TORSDO>
F 0

$$$$
=
 OpenBabel11032420183D

 32 35  0  0  1  0  0  0  0  0999 V2000
  193.5820  175.4230  136.9370 C   0  0  0  0  0  0  0  0  0  0  0  0
  186.1650  178.4120  138.3700 C   0  0  0  0  0  2  0  0  0  0  0  0
  187.3540  177.8990  141.7370 C   0  0  0  0  0  1  0  0  0  0  0  0
  186.8570  174.7210  135.7030 C   0  0  0  0  0  2  0  0  0  0  0  0
  189.5980  178.0390  139.2990 N   0  0  0  0  0  2  0  0  0  0  0  0
  186.0740  178.6700  139.8060 N   0  0  0  0  0  2  0  0  0  0  0  0
  188.7120  171.5160  135.3970 O   0  0  0  0  0  1  0  0  0  0  0  0
  187.4240  177.8740  135.6370 C   0  0  1  0  0  3  0  0  0  0  0  0
  188.1240  177.6650  136.9560 C   0  0  0  0  0  0  0  0  0  0  0  0
  187.7740  173.6860  135.0810 C   0  0  0  0  0  2  0  0  0  0  0  0
  194.2810  173.5650  134.5940 C   0  0  0  0  0  3  0  0  0  0  0  0
  194.9670  174.6290  135.0320 C   0  0  0  0  0  3  0  0  0  0  0  0
  191.5920  177.3730  138.2670 O   0  0  0  0  0  0  0  0  0  0  0  0
  190.2150  177.1460  138.3160 C   0  0  2  0  0  3  0  0  0  0  0  0
  191.0810  172.9930  136.3570 N   0  0  0  0  0  0  0  0  0  0  0  0
  193.2860  172.7790  135.4080 C   0  0  2  0  0  3  0  0  0  0  0  0
  188.0340  172.5430  136.0530 C   0  0  2  0  0  3  0  0  0  0  0  0
  187.4260  178.5170  140.3550 C   0  0  2  0  0  3  0  0  0  0  0  0
  192.3130  175.0770  136.2060 C   0  0  0  0  0  2  0  0  0  0  0  0
  192.1610  176.2490  138.8680 C   0  0  0  0  0  2  0  0  0  0  0  0
  188.2070  177.6170  139.4250 C   0  0  1  0  0  3  0  0  0  0  0  0
  186.3140  177.0290  135.5190 O   0  0  0  0  0  0  0  0  0  0  0  0
  193.5610  176.0170  138.3160 C   0  0  0  0  0  2  0  0  0  0  0  0
  189.6060  177.3610  136.9180 C   0  0  0  0  0  2  0  0  0  0  0  0
  186.7710  175.9290  134.7910 C   0  0  0  0  0  2  0  0  0  0  0  0
  188.8290  173.0000  137.2770 C   0  0  0  0  0  2  0  0  0  0  0  0
  187.5020  177.8170  138.1440 C   0  0  0  0  0  0  0  0  0  0  0  0
  192.1760  173.5940  136.0130 C   0  0  0  0  0  0  0  0  0  0  0  0
  190.0210  173.6790  136.9060 O   0  0  0  0  0  0  0  0  0  0  0  0
  187.0080  179.3220  135.4460 C   0  0  0  0  0  1  0  0  0  0  0  0
  194.7720  175.2630  136.3510 C   0  0  0  0  0  3  0  0  0  0  0  0
  193.9890  171.9520  136.4720 C   0  0  0  0  0  1  0  0  0  0  0  0
  1 23  1  0  0  0  0
  2  6  1  0  0  0  0
  5 21  1  0  0  0  0
  6 18  1  0  0  0  0
  8 30  1  1  0  0  0
  8  9  1  0  0  0  0
  9 27  2  0  0  0  0
 10  4  1  0  0  0  0
 10 17  1  0  0  0  0
 11 12  2  0  0  0  0
 11 16  1  0  0  0  0
 12 31  1  0  0  0  0
 13 14  1  0  0  0  0
 13 20  1  0  0  0  0
 14 24  1  6  0  0  0
 14  5  1  0  0  0  0
 15 29  1  0  0  0  0
 16 28  1  0  0  0  0
 16 32  1  1  0  0  0
 17  7  1  6  0  0  0
 17 26  1  0  0  0  0
 18  3  1  1  0  0  0
 19  1  1  0  0  0  0
 21 27  1  6  0  0  0
 21 18  1  0  0  0  0
 22  8  1  0  0  0  0
 23 20  1  0  0  0  0
 24  9  1  0  0  0  0
 25 22  1  0  0  0  0
 25  4  1  0  0  0  0
 27  2  1  0  0  0  0
 28 19  1  0  0  0  0
 28 15  2  0  0  0  0
 29 26  1  0  0  0  0
 31  1  2  0  0  0  0
M  END
>  <MODEL>
7

>  <REMARK>
 VINA RESULT:      -4.9      7.219     10.173
  Name = 
  0 active torsions:
  status: ('A' for Active; 'I' for Inactive)
                            x       y       z     vdW  Elec       q    Type
                         _______ _______ _______ _____ _____    ______ ____

>  <TORSDO>
F 0

$$$$
=
 OpenBabel11032420183D

 32 35  0  0  1  0  0  0  0  0999 V2000
  181.9840  178.7580  142.4340 C   0  0  0  0  0  0  0  0  0  0  0  0
  185.9410  176.5860  135.6790 C   0  0  0  0  0  2  0  0  0  0  0  0
  187.9970  179.3210  136.8230 C   0  0  0  0  0  1  0  0  0  0  0  0
  181.4640  177.6660  135.6670 C   0  0  0  0  0  2  0  0  0  0  0  0
  185.9620  177.8840  139.0110 N   0  0  0  0  0  2  0  0  0  0  0  0
  187.2020  177.3270  135.6610 N   0  0  0  0  0  2  0  0  0  0  0  0
  178.9310  180.0740  136.9290 O   0  0  0  0  0  1  0  0  0  0  0  0
  183.3730  175.3430  136.7740 C   0  0  1  0  0  3  0  0  0  0  0  0
  184.1430  176.4480  137.4510 C   0  0  0  0  0  0  0  0  0  0  0  0
  180.2110  178.1380  136.3780 C   0  0  0  0  0  2  0  0  0  0  0  0
  178.9310  178.6850  142.7540 C   0  0  0  0  0  3  0  0  0  0  0  0
  179.8590  178.2630  143.6230 C   0  0  0  0  0  3  0  0  0  0  0  0
  184.4990  177.9400  140.8380 O   0  0  0  0  0  0  0  0  0  0  0  0
  184.5660  177.9770  139.4450 C   0  0  2  0  0  3  0  0  0  0  0  0
  180.3020  179.8870  139.5370 N   0  0  0  0  0  0  0  0  0  0  0  0
  179.1660  179.6870  141.6520 C   0  0  2  0  0  3  0  0  0  0  0  0
  180.1740  179.6590  136.4530 C   0  0  2  0  0  3  0  0  0  0  0  0
  187.3450  177.9620  136.9750 C   0  0  2  0  0  3  0  0  0  0  0  0
  181.3730  178.3840  141.1100 C   0  0  0  0  0  2  0  0  0  0  0  0
  184.1550  179.2410  141.2140 C   0  0  0  0  0  2  0  0  0  0  0  0
  185.9620  178.1150  137.5700 C   0  0  1  0  0  3  0  0  0  0  0  0
  182.8820  175.7620  135.5320 O   0  0  0  0  0  0  0  0  0  0  0  0
  183.4090  179.2170  142.5420 C   0  0  0  0  0  2  0  0  0  0  0  0
  183.7290  176.8260  138.8560 C   0  0  0  0  0  2  0  0  0  0  0  0
  181.5660  176.1580  135.7760 C   0  0  0  0  0  2  0  0  0  0  0  0
  181.2890  180.2170  137.3380 C   0  0  0  0  0  2  0  0  0  0  0  0
  185.2170  177.0410  136.8870 C   0  0  0  0  0  0  0  0  0  0  0  0
  180.2890  179.3440  140.7130 C   0  0  0  0  0  0  0  0  0  0  0  0
  181.2940  179.6100  138.6230 O   0  0  0  0  0  0  0  0  0  0  0  0
  184.2150  174.0890  136.6130 C   0  0  0  0  0  1  0  0  0  0  0  0
  181.2860  178.6340  143.5660 C   0  0  0  0  0  3  0  0  0  0  0  0
  179.3450  181.0850  142.2200 C   0  0  0  0  0  1  0  0  0  0  0  0
  1 23  1  0  0  0  0
  1 31  2  0  0  0  0
  2 27  1  0  0  0  0
  4 25  1  0  0  0  0
  4 10  1  0  0  0  0
  5 14  1  0  0  0  0
  6  2  1  0  0  0  0
  6 18  1  0  0  0  0
  8 30  1  6  0  0  0
  8  9  1  0  0  0  0
  9 24  1  0  0  0  0
 10 17  1  0  0  0  0
 11 12  2  0  0  0  0
 13 20  1  0  0  0  0
 14 24  1  6  0  0  0
 14 13  1  0  0  0  0
 15 28  2  0  0  0  0
 16 32  1  1  0  0  0
 16 11  1  0  0  0  0
 17  7  1  1  0  0  0
 17 26  1  0  0  0  0
 18  3  1  6  0  0  0
 18 21  1  0  0  0  0
 19  1  1  0  0  0  0
 20 23  1  0  0  0  0
 21 27  1  6  0  0  0
 21  5  1  0  0  0  0
 22 25  1  0  0  0  0
 22  8  1  0  0  0  0
 26 29  1  0  0  0  0
 27  9  2  0  0  0  0
 28 19  1  0  0  0  0
 28 16  1  0  0  0  0
 29 15  1  0  0  0  0
 31 12  1  0  0  0  0
M  END
>  <MODEL>
8

>  <REMARK>
 VINA RESULT:      -4.7      2.763      4.876
  Name = 
  0 active torsions:
  status: ('A' for Active; 'I' for Inactive)
                            x       y       z     vdW  Elec       q    Type
                         _______ _______ _______ _____ _____    ______ ____

>  <TORSDO>
F 0

$$$$
=
 OpenBabel11032420183D

 32 35  0  0  1  0  0  0  0  0999 V2000
  191.7440  177.1070  140.3780 C   0  0  0  0  0  0  0  0  0  0  0  0
  195.8250  172.6410  134.9570 C   0  0  0  0  0  2  0  0  0  0  0  0
  197.6960  175.7240  134.8450 C   0  0  0  0  0  1  0  0  0  0  0  0
  191.2860  173.3520  134.6390 C   0  0  0  0  0  2  0  0  0  0  0  0
  195.7640  175.1700  137.4840 N   0  0  0  0  0  2  0  0  0  0  0  0
  197.0340  173.3860  134.6060 N   0  0  0  0  0  2  0  0  0  0  0  0
  188.6000  175.9060  134.8980 O   0  0  0  0  0  1  0  0  0  0  0  0
  193.3470  171.7920  136.5320 C   0  0  1  0  0  3  0  0  0  0  0  0
  194.0430  173.1200  136.6850 C   0  0  0  0  0  0  0  0  0  0  0  0
  190.0060  173.9940  135.1360 C   0  0  0  0  0  2  0  0  0  0  0  0
  188.7020  176.9860  140.7870 C   0  0  0  0  0  3  0  0  0  0  0  0
  189.6580  177.0070  141.7250 C   0  0  0  0  0  3  0  0  0  0  0  0
  194.3040  175.8700  139.1750 O   0  0  0  0  0  0  0  0  0  0  0  0
  194.3660  175.3460  137.8830 C   0  0  2  0  0  3  0  0  0  0  0  0
  189.9850  176.8690  137.3200 N   0  0  0  0  0  0  0  0  0  0  0  0
  188.8680  177.4710  139.3690 C   0  0  2  0  0  3  0  0  0  0  0  0
  189.8670  175.4100  134.5940 C   0  0  2  0  0  3  0  0  0  0  0  0
  197.1360  174.5040  135.5500 C   0  0  2  0  0  3  0  0  0  0  0  0
  191.1560  176.1960  139.3340 C   0  0  0  0  0  2  0  0  0  0  0  0
  193.8750  177.1880  139.0060 C   0  0  0  0  0  2  0  0  0  0  0  0
  195.7470  174.8010  136.0720 C   0  0  1  0  0  3  0  0  0  0  0  0
  192.8280  171.6440  135.2400 O   0  0  0  0  0  0  0  0  0  0  0  0
  193.1350  177.6570  140.2510 C   0  0  0  0  0  2  0  0  0  0  0  0
  193.6070  174.0070  137.8310 C   0  0  0  0  0  2  0  0  0  0  0  0
  191.4880  172.0250  135.3430 C   0  0  0  0  0  2  0  0  0  0  0  0
  190.9440  176.3440  135.1480 C   0  0  0  0  0  2  0  0  0  0  0  0
  195.0740  173.4990  135.9010 C   0  0  0  0  0  0  0  0  0  0  0  0
  190.0100  176.8470  138.6160 C   0  0  0  0  0  0  0  0  0  0  0  0
  190.9920  176.3080  136.5670 O   0  0  0  0  0  0  0  0  0  0  0  0
  194.2710  170.6330  136.8650 C   0  0  0  0  0  1  0  0  0  0  0  0
  191.0580  177.4090  141.4830 C   0  0  0  0  0  3  0  0  0  0  0  0
  188.9550  178.9870  139.3220 C   0  0  0  0  0  1  0  0  0  0  0  0
  1 31  2  0  0  0  0
  2 27  1  0  0  0  0
  4 10  1  0  0  0  0
  4 25  1  0  0  0  0
  5 14  1  0  0  0  0
  6  2  1  0  0  0  0
  6 18  1  0  0  0  0
  8  9  1  0  0  0  0
  8 30  1  6  0  0  0
  9 24  1  0  0  0  0
 11 12  2  0  0  0  0
 14 24  1  1  0  0  0
 14 13  1  0  0  0  0
 15 28  2  0  0  0  0
 16 32  1  1  0  0  0
 16 11  1  0  0  0  0
 17  7  1  1  0  0  0
 17 10  1  0  0  0  0
 17 26  1  0  0  0  0
 18  3  1  6  0  0  0
 18 21  1  0  0  0  0
 19  1  1  0  0  0  0
 20 13  1  0  0  0  0
 20 23  1  0  0  0  0
 21 27  1  1  0  0  0
 21  5  1  0  0  0  0
 22 25  1  0  0  0  0
 22  8  1  0  0  0  0
 23  1  1  0  0  0  0
 26 29  1  0  0  0  0
 27  9  2  0  0  0  0
 28 19  1  0  0  0  0
 28 16  1  0  0  0  0
 29 15  1  0  0  0  0
 31 12  1  0  0  0  0
M  END
>  <MODEL>
9

>  <REMARK>
 VINA RESULT:      -4.7      9.258     11.984
  Name = 
  0 active torsions:
  status: ('A' for Active; 'I' for Inactive)
                            x       y       z     vdW  Elec       q    Type
                         _______ _______ _______ _____ _____    ______ ____

>  <TORSDO>
F 0

$$$$
