=
 OpenBabel11042412043D

 30 35  0  0  1  0  0  0  0  0999 V2000
  190.3020  176.7210  144.1630 C   0  0  1  0  0  3  0  0  0  0  0  0
  187.6060  178.2280  146.5240 C   0  0  1  0  0  3  0  0  0  0  0  0
  183.5420  179.2770  143.7310 C   0  0  0  0  0  3  0  0  0  0  0  0
  184.2030  179.3190  144.9590 C   0  0  0  0  0  3  0  0  0  0  0  0
  185.3200  177.9640  142.8360 N   0  0  0  0  0  0  0  0  0  0  0  0
  184.1290  178.5990  142.6530 C   0  0  0  0  0  0  0  0  0  0  0  0
  186.1530  178.6740  146.4330 C   0  0  1  0  0  0  0  0  0  0  0  0
  190.6650  177.7320  145.1670 N   0  0  0  0  0  0  0  0  0  0  0  0
  188.6320  176.6750  142.2440 C   0  0  0  0  0  2  0  0  0  0  0  0
  187.2390  177.3230  144.1780 N   0  0  0  0  0  0  0  0  0  0  0  0
  189.4410  176.9340  145.3520 C   0  0  1  0  0  3  0  0  0  0  0  0
  186.4800  177.2940  146.9720 C   0  0  0  0  0  2  0  0  0  0  0  0
  185.7430  179.5650  147.4260 O   0  0  0  0  0  1  0  0  0  0  0  0
  187.5780  176.2350  143.2600 C   0  0  0  0  0  2  0  0  0  0  0  0
  189.8160  177.4130  142.8860 C   0  0  2  0  0  3  0  0  0  0  0  0
  185.9890  178.0040  144.0210 C   0  0  0  0  0  0  0  0  0  0  0  0
  191.6890  177.1370  146.0060 C   0  0  0  0  0  1  0  0  0  0  0  0
  188.2160  177.8440  145.1560 C   0  0  2  0  0  3  0  0  0  0  0  0
  185.4400  178.6870  145.1100 C   0  0  0  0  0  0  0  0  0  0  0  0
  185.9060  178.7440  140.0210 Cl  0  0  0  0  0  0  0  0  0  0  0  0
  182.0450  178.4590  141.3090 C   0  0  0  0  0  3  0  0  0  0  0  0
  181.3580  178.3790  140.0970 C   0  0  0  0  0  3  0  0  0  0  0  0
  183.4570  178.4810  138.9040 C   0  0  0  0  0  3  0  0  0  0  0  0
  184.1580  178.5590  140.1130 C   0  0  0  0  0  0  0  0  0  0  0  0
  183.4480  178.5420  141.3400 C   0  0  0  0  0  0  0  0  0  0  0  0
  182.0650  178.3870  138.8940 C   0  0  0  0  0  3  0  0  0  0  0  0
  190.9600  177.5290  141.8910 C   0  0  0  0  0  2  0  0  0  0  0  0
  190.7180  176.0610  139.8940 O   0  0  0  0  0  1  0  0  0  0  0  0
  189.8770  178.1940  139.8710 O   0  0  0  0  0  0  0  0  0  0  0  0
  190.4760  177.2850  140.5020 C   0  0  0  0  0  0  0  0  0  0  0  0
  1  8  1  1  0  0  0
  1 11  1  0  0  0  0
  2 12  1  1  0  0  0
  3  4  1  0  0  0  0
  4 19  2  0  0  0  0
  5 16  2  0  0  0  0
  6  5  1  0  0  0  0
  6  3  2  0  0  0  0
  7  2  1  0  0  0  0
  7 12  1  0  0  0  0
  7 13  1  1  0  0  0
  8 17  1  0  0  0  0
  9 15  1  0  0  0  0
  9 14  1  0  0  0  0
 11  8  1  1  0  0  0
 14 10  1  0  0  0  0
 15 27  1  6  0  0  0
 15  1  1  0  0  0  0
 16 10  1  0  0  0  0
 16 19  1  0  0  0  0
 18 10  1  6  0  0  0
 18 11  1  0  0  0  0
 18  2  1  0  0  0  0
 19  7  1  0  0  0  0
 20 24  1  0  0  0  0
 21 25  1  0  0  0  0
 22 21  2  0  0  0  0
 23 24  1  0  0  0  0
 24 25  2  0  0  0  0
 25  6  1  0  0  0  0
 26 23  2  0  0  0  0
 26 22  1  0  0  0  0
 28 30  1  0  0  0  0
 29 30  2  0  0  0  0
 30 27  1  0  0  0  0
M  END
>  <MODEL>
1

>  <REMARK>
 VINA RESULT:      -9.2      0.000      0.000
  Name = 
  3 active torsions:
  status: ('A' for Active; 'I' for Inactive)
    1  A    between atoms: C_10  and  C_25
    2  A    between atoms: C_10  and  C_26
    3  A    between atoms: C_11  and  C_22
                            x       y       z     vdW  Elec       q    Type
                         _______ _______ _______ _____ _____    ______ ____

>  <TORSDO>
F 3

$$$$
=
 OpenBabel11042412043D

 30 35  0  0  1  0  0  0  0  0999 V2000
  189.1140  177.1580  146.3990 C   0  0  1  0  0  3  0  0  0  0  0  0
  185.6880  178.7160  145.4250 C   0  0  1  0  0  3  0  0  0  0  0  0
  185.5650  179.1220  140.4020 C   0  0  0  0  0  3  0  0  0  0  0  0
  184.9740  179.3560  141.6440 C   0  0  0  0  0  3  0  0  0  0  0  0
  187.2780  177.8550  141.4720 N   0  0  0  0  0  0  0  0  0  0  0  0
  186.7470  178.3710  140.3290 C   0  0  0  0  0  0  0  0  0  0  0  0
  184.9180  179.0360  144.1510 C   0  0  1  0  0  0  0  0  0  0  0  0
  188.5720  178.3030  147.1450 N   0  0  0  0  0  0  0  0  0  0  0  0
  189.6600  176.7640  143.9460 C   0  0  0  0  0  2  0  0  0  0  0  0
  187.3110  177.5210  143.8770 N   0  0  0  0  0  0  0  0  0  0  0  0
  187.6580  177.4400  146.3770 C   0  0  1  0  0  3  0  0  0  0  0  0
  184.6150  177.7570  144.9060 C   0  0  0  0  0  2  0  0  0  0  0  0
  183.9190  180.0010  144.2870 O   0  0  0  0  0  1  0  0  0  0  0  0
  188.1970  176.3650  143.7520 C   0  0  0  0  0  2  0  0  0  0  0  0
  189.8830  177.6600  145.1730 C   0  0  2  0  0  3  0  0  0  0  0  0
  186.7260  178.0820  142.6960 C   0  0  0  0  0  0  0  0  0  0  0  0
  188.4780  177.8880  148.5330 C   0  0  0  0  0  1  0  0  0  0  0  0
  187.1300  178.2250  145.1630 C   0  0  2  0  0  3  0  0  0  0  0  0
  185.5580  178.8420  142.8050 C   0  0  0  0  0  0  0  0  0  0  0  0
  184.9320  177.3900  137.9090 Cl  0  0  0  0  0  0  0  0  0  0  0  0
  188.7850  178.2790  138.9140 C   0  0  0  0  0  3  0  0  0  0  0  0
  189.4390  178.0710  137.6980 C   0  0  0  0  0  3  0  0  0  0  0  0
  187.3300  177.5040  136.6640 C   0  0  0  0  0  3  0  0  0  0  0  0
  186.6620  177.7120  137.8770 C   0  0  0  0  0  0  0  0  0  0  0  0
  187.3940  178.1120  139.0230 C   0  0  0  0  0  0  0  0  0  0  0  0
  188.7110  177.6860  136.5730 C   0  0  0  0  0  3  0  0  0  0  0  0
  191.3670  177.7480  145.4920 C   0  0  0  0  0  2  0  0  0  0  0  0
  191.8830  176.8810  147.7700 O   0  0  0  0  0  1  0  0  0  0  0  0
  192.0490  175.5060  145.9430 O   0  0  0  0  0  0  0  0  0  0  0  0
  191.7750  176.6430  146.4060 C   0  0  0  0  0  0  0  0  0  0  0  0
  1  8  1  1  0  0  0
  2 12  1  6  0  0  0
  3  4  1  0  0  0  0
  4 19  2  0  0  0  0
  5 16  2  0  0  0  0
  6  3  2  0  0  0  0
  6  5  1  0  0  0  0
  7 13  1  1  0  0  0
  7 12  1  0  0  0  0
  7  2  1  0  0  0  0
  8 17  1  0  0  0  0
  9 15  1  0  0  0  0
 11  1  1  0  0  0  0
 11  8  1  1  0  0  0
 14 10  1  0  0  0  0
 14  9  1  0  0  0  0
 15 27  1  1  0  0  0
 15  1  1  0  0  0  0
 16 19  1  0  0  0  0
 16 10  1  0  0  0  0
 18 10  1  6  0  0  0
 18  2  1  0  0  0  0
 18 11  1  0  0  0  0
 19  7  1  0  0  0  0
 21 25  1  0  0  0  0
 22 21  2  0  0  0  0
 23 24  1  0  0  0  0
 24 20  1  0  0  0  0
 24 25  2  0  0  0  0
 25  6  1  0  0  0  0
 26 23  2  0  0  0  0
 26 22  1  0  0  0  0
 27 30  1  0  0  0  0
 29 30  2  0  0  0  0
 30 28  1  0  0  0  0
M  END
>  <MODEL>
2

>  <REMARK>
 VINA RESULT:      -8.8      2.758      4.206
  Name = 
  3 active torsions:
  status: ('A' for Active; 'I' for Inactive)
    1  A    between atoms: C_10  and  C_25
    2  A    between atoms: C_10  and  C_26
    3  A    between atoms: C_11  and  C_22
                            x       y       z     vdW  Elec       q    Type
                         _______ _______ _______ _____ _____    ______ ____

>  <TORSDO>
F 3

$$$$
=
 OpenBabel11042412043D

 30 35  0  0  1  0  0  0  0  0999 V2000
  187.4850  177.4280  136.8680 C   0  0  1  0  0  3  0  0  0  0  0  0
  184.1450  178.5690  138.4980 C   0  0  1  0  0  3  0  0  0  0  0  0
  184.7140  178.3000  143.4990 C   0  0  0  0  0  3  0  0  0  0  0  0
  183.9000  178.5370  142.3910 C   0  0  0  0  0  3  0  0  0  0  0  0
  186.5990  178.0960  142.0540 N   0  0  0  0  0  0  0  0  0  0  0  0
  186.0830  178.0590  143.3140 C   0  0  0  0  0  0  0  0  0  0  0  0
  183.6090  178.8370  139.8980 C   0  0  1  0  0  0  0  0  0  0  0  0
  186.1950  176.9530  136.3450 N   0  0  0  0  0  0  0  0  0  0  0  0
  188.5950  177.3270  139.1540 C   0  0  0  0  0  2  0  0  0  0  0  0
  186.4000  178.3460  139.6470 N   0  0  0  0  0  0  0  0  0  0  0  0
  186.2440  178.1990  137.1300 C   0  0  1  0  0  3  0  0  0  0  0  0
  184.0970  179.9950  139.0490 C   0  0  0  0  0  2  0  0  0  0  0  0
  182.2190  178.7950  140.0200 O   0  0  0  0  0  1  0  0  0  0  0  0
  187.8330  178.6040  139.5070 C   0  0  0  0  0  2  0  0  0  0  0  0
  187.9370  176.5260  138.0210 C   0  0  2  0  0  3  0  0  0  0  0  0
  185.8230  178.3110  140.9570 C   0  0  0  0  0  0  0  0  0  0  0  0
  186.1450  177.3370  134.9460 C   0  0  0  0  0  1  0  0  0  0  0  0
  185.5660  177.9590  138.4910 C   0  0  2  0  0  3  0  0  0  0  0  0
  184.4510  178.5360  141.1070 C   0  0  0  0  0  0  0  0  0  0  0  0
  188.8860  176.6490  142.7990 Cl  0  0  0  0  0  0  0  0  0  0  0  0
  186.5180  178.1620  145.7570 C   0  0  0  0  0  3  0  0  0  0  0  0
  187.3220  177.9630  146.8790 C   0  0  0  0  0  3  0  0  0  0  0  0
  189.0460  177.0190  145.4730 C   0  0  0  0  0  3  0  0  0  0  0  0
  188.2490  177.2170  144.3390 C   0  0  0  0  0  0  0  0  0  0  0  0
  186.9660  177.8030  144.4740 C   0  0  0  0  0  0  0  0  0  0  0  0
  188.5880  177.3940  146.7370 C   0  0  0  0  0  3  0  0  0  0  0  0
  188.8970  175.4670  137.5040 C   0  0  0  0  0  2  0  0  0  0  0  0
  190.9200  176.8060  136.9410 O   0  0  0  0  0  0  0  0  0  0  0  0
  190.9590  175.3360  138.6990 O   0  0  0  0  0  1  0  0  0  0  0  0
  190.3110  175.8670  137.7610 C   0  0  0  0  0  0  0  0  0  0  0  0
  1  8  1  6  0  0  0
  1 11  1  0  0  0  0
  1 15  1  0  0  0  0
  2 12  1  6  0  0  0
  2  7  1  0  0  0  0
  4  3  2  0  0  0  0
  5  6  2  0  0  0  0
  6  3  1  0  0  0  0
  6 25  1  0  0  0  0
  7 13  1  1  0  0  0
  7 19  1  0  0  0  0
  9 14  1  0  0  0  0
 10 16  1  0  0  0  0
 11  8  1  6  0  0  0
 11 18  1  0  0  0  0
 12  7  1  0  0  0  0
 14 10  1  0  0  0  0
 15 27  1  6  0  0  0
 15  9  1  0  0  0  0
 16 19  2  0  0  0  0
 16  5  1  0  0  0  0
 17  8  1  0  0  0  0
 18  2  1  0  0  0  0
 18 10  1  1  0  0  0
 19  4  1  0  0  0  0
 20 24  1  0  0  0  0
 21 22  1  0  0  0  0
 23 26  1  0  0  0  0
 24 25  1  0  0  0  0
 24 23  2  0  0  0  0
 25 21  2  0  0  0  0
 26 22  2  0  0  0  0
 27 30  1  0  0  0  0
 28 30  2  0  0  0  0
 30 29  1  0  0  0  0
M  END
>  <MODEL>
3

>  <REMARK>
 VINA RESULT:      -8.2      3.047      6.524
  Name = 
  3 active torsions:
  status: ('A' for Active; 'I' for Inactive)
    1  A    between atoms: C_10  and  C_25
    2  A    between atoms: C_10  and  C_26
    3  A    between atoms: C_11  and  C_22
                            x       y       z     vdW  Elec       q    Type
                         _______ _______ _______ _____ _____    ______ ____

>  <TORSDO>
F 3

$$$$
=
 OpenBabel11042412043D

 30 35  0  0  1  0  0  0  0  0999 V2000
  182.1000  178.6110  140.0690 C   0  0  1  0  0  3  0  0  0  0  0  0
  183.1190  178.6280  143.8210 C   0  0  1  0  0  3  0  0  0  0  0  0
  188.0620  177.6690  144.0660 C   0  0  0  0  0  3  0  0  0  0  0  0
  186.8450  177.8860  144.7110 C   0  0  0  0  0  3  0  0  0  0  0  0
  187.0300  178.1690  141.9770 N   0  0  0  0  0  0  0  0  0  0  0  0
  188.1400  177.7990  142.6720 C   0  0  0  0  0  0  0  0  0  0  0  0
  184.3990  178.5210  144.6400 C   0  0  1  0  0  0  0  0  0  0  0  0
  181.2680  177.9350  141.0750 N   0  0  0  0  0  0  0  0  0  0  0  0
  184.5400  178.3980  139.3810 C   0  0  0  0  0  2  0  0  0  0  0  0
  184.6800  178.7630  141.8200 N   0  0  0  0  0  0  0  0  0  0  0  0
  182.1870  179.0070  141.4960 C   0  0  1  0  0  3  0  0  0  0  0  0
  183.8130  179.8880  144.3430 C   0  0  0  0  0  2  0  0  0  0  0  0
  184.2210  178.1270  145.9670 O   0  0  0  0  0  1  0  0  0  0  0  0
  184.8740  179.3780  140.5060 C   0  0  0  0  0  2  0  0  0  0  0  0
  183.2080  177.6650  139.5960 C   0  0  2  0  0  3  0  0  0  0  0  0
  185.8270  178.3720  142.5830 C   0  0  0  0  0  0  0  0  0  0  0  0
  179.9450  178.5250  140.9850 C   0  0  0  0  0  1  0  0  0  0  0  0
  183.3380  178.3870  142.3090 C   0  0  2  0  0  3  0  0  0  0  0  0
  185.7120  178.2330  143.9690 C   0  0  0  0  0  0  0  0  0  0  0  0
  190.8510  178.3760  144.2300 Cl  0  0  0  0  0  0  0  0  0  0  0  0
  189.3870  177.1400  140.6280 C   0  0  0  0  0  3  0  0  0  0  0  0
  190.5670  176.8870  139.9270 C   0  0  0  0  0  3  0  0  0  0  0  0
  191.8550  177.5070  141.8750 C   0  0  0  0  0  3  0  0  0  0  0  0
  190.6790  177.7610  142.5900 C   0  0  0  0  0  0  0  0  0  0  0  0
  189.4210  177.5710  141.9660 C   0  0  0  0  0  0  0  0  0  0  0  0
  191.8010  177.0690  140.5510 C   0  0  0  0  0  3  0  0  0  0  0  0
  182.7830  176.9680  138.3130 C   0  0  0  0  0  2  0  0  0  0  0  0
  181.3030  175.1100  139.0620 O   0  0  0  0  0  1  0  0  0  0  0  0
  183.4360  174.6730  138.3430 O   0  0  0  0  0  0  0  0  0  0  0  0
  182.5300  175.5200  138.5600 C   0  0  0  0  0  0  0  0  0  0  0  0
  1  8  1  1  0  0  0
  1 11  1  0  0  0  0
  2 12  1  6  0  0  0
  2  7  1  0  0  0  0
  3  4  1  0  0  0  0
  5 16  2  0  0  0  0
  5  6  1  0  0  0  0
  6  3  2  0  0  0  0
  7 13  1  1  0  0  0
  9 15  1  0  0  0  0
  9 14  1  0  0  0  0
 10 16  1  0  0  0  0
 11  8  1  1  0  0  0
 11 18  1  0  0  0  0
 12  7  1  0  0  0  0
 14 10  1  0  0  0  0
 15 27  1  6  0  0  0
 15  1  1  0  0  0  0
 16 19  1  0  0  0  0
 17  8  1  0  0  0  0
 18 10  1  6  0  0  0
 18  2  1  0  0  0  0
 19  7  1  0  0  0  0
 19  4  2  0  0  0  0
 21 25  1  0  0  0  0
 22 26  1  0  0  0  0
 22 21  2  0  0  0  0
 23 24  1  0  0  0  0
 24 20  1  0  0  0  0
 25 24  2  0  0  0  0
 25  6  1  0  0  0  0
 26 23  2  0  0  0  0
 27 30  1  0  0  0  0
 29 30  2  0  0  0  0
 30 28  1  0  0  0  0
M  END
>  <MODEL>
4

>  <REMARK>
 VINA RESULT:      -8.1      2.875      6.949
  Name = 
  3 active torsions:
  status: ('A' for Active; 'I' for Inactive)
    1  A    between atoms: C_10  and  C_25
    2  A    between atoms: C_10  and  C_26
    3  A    between atoms: C_11  and  C_22
                            x       y       z     vdW  Elec       q    Type
                         _______ _______ _______ _____ _____    ______ ____

>  <TORSDO>
F 3

$$$$
=
 OpenBabel11042412043D

 30 35  0  0  1  0  0  0  0  0999 V2000
  187.5030  177.4470  136.8780 C   0  0  1  0  0  3  0  0  0  0  0  0
  184.2010  178.6420  138.5470 C   0  0  1  0  0  3  0  0  0  0  0  0
  184.8310  178.3820  143.5420 C   0  0  0  0  0  3  0  0  0  0  0  0
  184.0060  178.6270  142.4430 C   0  0  0  0  0  3  0  0  0  0  0  0
  186.6940  178.1470  142.0740 N   0  0  0  0  0  0  0  0  0  0  0  0
  186.1940  178.1220  143.3400 C   0  0  0  0  0  0  0  0  0  0  0  0
  183.6870  178.9230  139.9530 C   0  0  1  0  0  0  0  0  0  0  0  0
  186.1990  176.9880  136.3750 N   0  0  0  0  0  0  0  0  0  0  0  0
  188.6410  177.3380  139.1510 C   0  0  0  0  0  2  0  0  0  0  0  0
  186.4680  178.3900  139.6680 N   0  0  0  0  0  0  0  0  0  0  0  0
  186.2770  178.2360  137.1540 C   0  0  1  0  0  3  0  0  0  0  0  0
  184.1800  180.0700  139.0940 C   0  0  0  0  0  2  0  0  0  0  0  0
  182.2990  178.9010  140.0930 O   0  0  0  0  0  1  0  0  0  0  0  0
  187.9020  178.6280  139.5090 C   0  0  0  0  0  2  0  0  0  0  0  0
  187.9570  176.5430  138.0290 C   0  0  2  0  0  3  0  0  0  0  0  0
  185.9060  178.3690  140.9860 C   0  0  0  0  0  0  0  0  0  0  0  0
  186.1370  177.3680  134.9750 C   0  0  0  0  0  1  0  0  0  0  0  0
  185.6130  178.0120  138.5240 C   0  0  2  0  0  3  0  0  0  0  0  0
  184.5400  178.6140  141.1520 C   0  0  0  0  0  0  0  0  0  0  0  0
  185.0760  178.6280  146.2730 Cl  0  0  0  0  0  0  0  0  0  0  0  0
  188.4010  177.4240  144.2390 C   0  0  0  0  0  3  0  0  0  0  0  0
  189.2740  177.1370  145.2890 C   0  0  0  0  0  3  0  0  0  0  0  0
  187.5520  177.7250  146.8780 C   0  0  0  0  0  3  0  0  0  0  0  0
  186.6650  178.0130  145.8340 C   0  0  0  0  0  0  0  0  0  0  0  0
  187.0880  177.8570  144.4900 C   0  0  0  0  0  0  0  0  0  0  0  0
  188.8480  177.2850  146.6090 C   0  0  0  0  0  3  0  0  0  0  0  0
  188.8950  175.4680  137.5040 C   0  0  0  0  0  2  0  0  0  0  0  0
  190.9570  176.7480  136.9410 O   0  0  0  0  0  0  0  0  0  0  0  0
  190.9430  175.2990  138.7180 O   0  0  0  0  0  1  0  0  0  0  0  0
  190.3160  175.8350  137.7680 C   0  0  0  0  0  0  0  0  0  0  0  0
  1  8  1  6  0  0  0
  1 11  1  0  0  0  0
  1 15  1  0  0  0  0
  2 12  1  6  0  0  0
  2  7  1  0  0  0  0
  4  3  2  0  0  0  0
  5  6  2  0  0  0  0
  6  3  1  0  0  0  0
  6 25  1  0  0  0  0
  7 13  1  1  0  0  0
  7 19  1  0  0  0  0
  9 14  1  0  0  0  0
 10 16  1  0  0  0  0
 11  8  1  6  0  0  0
 11 18  1  0  0  0  0
 12  7  1  0  0  0  0
 14 10  1  0  0  0  0
 15 27  1  6  0  0  0
 15  9  1  0  0  0  0
 16 19  2  0  0  0  0
 16  5  1  0  0  0  0
 17  8  1  0  0  0  0
 18  2  1  0  0  0  0
 18 10  1  1  0  0  0
 19  4  1  0  0  0  0
 21 25  2  0  0  0  0
 21 22  1  0  0  0  0
 22 26  2  0  0  0  0
 24 20  1  0  0  0  0
 24 23  2  0  0  0  0
 25 24  1  0  0  0  0
 26 23  1  0  0  0  0
 27 30  1  0  0  0  0
 28 30  2  0  0  0  0
 30 29  1  0  0  0  0
M  END
>  <MODEL>
5

>  <REMARK>
 VINA RESULT:      -8.1      3.148      6.627
  Name = 
  3 active torsions:
  status: ('A' for Active; 'I' for Inactive)
    1  A    between atoms: C_10  and  C_25
    2  A    between atoms: C_10  and  C_26
    3  A    between atoms: C_11  and  C_22
                            x       y       z     vdW  Elec       q    Type
                         _______ _______ _______ _____ _____    ______ ____

>  <TORSDO>
F 3

$$$$
=
 OpenBabel11042412043D

 30 35  0  0  1  0  0  0  0  0999 V2000
  189.3720  176.8870  145.8230 C   0  0  1  0  0  3  0  0  0  0  0  0
  186.6860  178.4510  143.4870 C   0  0  1  0  0  3  0  0  0  0  0  0
  188.4230  178.1800  138.7630 C   0  0  0  0  0  3  0  0  0  0  0  0
  187.4470  178.6060  139.6640 C   0  0  0  0  0  3  0  0  0  0  0  0
  189.5110  176.9940  140.5210 N   0  0  0  0  0  0  0  0  0  0  0  0
  189.4780  177.3750  139.2140 C   0  0  0  0  0  0  0  0  0  0  0  0
  186.4610  178.6300  141.9920 C   0  0  1  0  0  0  0  0  0  0  0  0
  188.7040  178.1460  146.1860 N   0  0  0  0  0  0  0  0  0  0  0  0
  190.7300  176.1420  143.8040 C   0  0  0  0  0  2  0  0  0  0  0  0
  188.6430  176.9870  142.7890 N   0  0  0  0  0  0  0  0  0  0  0  0
  188.0540  177.2280  145.2340 C   0  0  1  0  0  3  0  0  0  0  0  0
  185.7900  177.4790  142.7170 C   0  0  0  0  0  2  0  0  0  0  0  0
  185.5730  179.6490  141.6430 O   0  0  0  0  0  1  0  0  0  0  0  0
  189.4050  175.7860  143.1280 C   0  0  0  0  0  2  0  0  0  0  0  0
  190.5750  177.1840  144.9210 C   0  0  2  0  0  3  0  0  0  0  0  0
  188.5780  177.4090  141.4220 C   0  0  0  0  0  0  0  0  0  0  0  0
  188.0780  177.9260  147.4770 C   0  0  0  0  0  1  0  0  0  0  0  0
  188.0750  177.8650  143.8330 C   0  0  2  0  0  3  0  0  0  0  0  0
  187.5240  178.2280  141.0070 C   0  0  0  0  0  0  0  0  0  0  0  0
  192.5020  177.3950  140.1990 Cl  0  0  0  0  0  0  0  0  0  0  0  0
  190.1490  176.5160  136.9830 C   0  0  0  0  0  3  0  0  0  0  0  0
  191.0970  176.0500  136.0710 C   0  0  0  0  0  3  0  0  0  0  0  0
  192.8380  176.3810  137.7140 C   0  0  0  0  0  3  0  0  0  0  0  0
  191.8960  176.8470  138.6390 C   0  0  0  0  0  0  0  0  0  0  0  0
  190.5270  176.9130  138.2770 C   0  0  0  0  0  0  0  0  0  0  0  0
  192.4410  175.9800  136.4380 C   0  0  0  0  0  3  0  0  0  0  0  0
  191.8450  177.2480  145.7550 C   0  0  0  0  0  2  0  0  0  0  0  0
  192.2890  174.8340  146.1760 O   0  0  0  0  0  0  0  0  0  0  0  0
  191.6460  176.2090  147.8940 O   0  0  0  0  0  1  0  0  0  0  0  0
  191.9290  176.0780  146.6750 C   0  0  0  0  0  0  0  0  0  0  0  0
  1  8  1  1  0  0  0
  2 12  1  6  0  0  0
  2 18  1  0  0  0  0
  3  6  2  0  0  0  0
  3  4  1  0  0  0  0
  4 19  2  0  0  0  0
  5 16  2  0  0  0  0
  6  5  1  0  0  0  0
  7 13  1  6  0  0  0
  7 12  1  0  0  0  0
  7  2  1  0  0  0  0
  8 17  1  0  0  0  0
  9 15  1  0  0  0  0
 10 14  1  0  0  0  0
 11  1  1  0  0  0  0
 11  8  1  1  0  0  0
 14  9  1  0  0  0  0
 15 27  1  1  0  0  0
 15  1  1  0  0  0  0
 16 10  1  0  0  0  0
 18 10  1  6  0  0  0
 18 11  1  0  0  0  0
 19 16  1  0  0  0  0
 19  7  1  0  0  0  0
 21 25  1  0  0  0  0
 22 26  1  0  0  0  0
 22 21  2  0  0  0  0
 23 24  1  0  0  0  0
 24 20  1  0  0  0  0
 25 24  2  0  0  0  0
 25  6  1  0  0  0  0
 26 23  2  0  0  0  0
 27 30  1  0  0  0  0
 28 30  2  0  0  0  0
 30 29  1  0  0  0  0
M  END
>  <MODEL>
6

>  <REMARK>
 VINA RESULT:      -8.1      3.305      6.007
  Name = 
  3 active torsions:
  status: ('A' for Active; 'I' for Inactive)
    1  A    between atoms: C_10  and  C_25
    2  A    between atoms: C_10  and  C_26
    3  A    between atoms: C_11  and  C_22
                            x       y       z     vdW  Elec       q    Type
                         _______ _______ _______ _____ _____    ______ ____

>  <TORSDO>
F 3

$$$$
=
 OpenBabel11042412043D

 30 35  0  0  1  0  0  0  0  0999 V2000
  188.7330  177.1340  146.4120 C   0  0  1  0  0  3  0  0  0  0  0  0
  185.3240  178.8020  145.5690 C   0  0  1  0  0  3  0  0  0  0  0  0
  185.0260  179.2230  140.5550 C   0  0  0  0  0  3  0  0  0  0  0  0
  184.4890  179.4720  141.8180 C   0  0  0  0  0  3  0  0  0  0  0  0
  186.7370  177.9000  141.5580 N   0  0  0  0  0  0  0  0  0  0  0  0
  186.1800  178.4350  140.4360 C   0  0  0  0  0  0  0  0  0  0  0  0
  184.5180  179.1480  144.3250 C   0  0  1  0  0  0  0  0  0  0  0  0
  188.2560  178.2940  147.1790 N   0  0  0  0  0  0  0  0  0  0  0  0
  189.1750  176.7280  143.9390 C   0  0  0  0  0  2  0  0  0  0  0  0
  186.8490  177.5600  143.9600 N   0  0  0  0  0  0  0  0  0  0  0  0
  187.2870  177.4620  146.4450 C   0  0  1  0  0  3  0  0  0  0  0  0
  184.2030  177.8780  145.0900 C   0  0  0  0  0  2  0  0  0  0  0  0
  183.5560  180.1450  144.5000 O   0  0  0  0  0  1  0  0  0  0  0  0
  187.6930  176.3760  143.8010 C   0  0  0  0  0  2  0  0  0  0  0  0
  189.4720  177.6140  145.1580 C   0  0  2  0  0  3  0  0  0  0  0  0
  186.2390  178.1420  142.8020 C   0  0  0  0  0  0  0  0  0  0  0  0
  188.2010  177.8790  148.5690 C   0  0  0  0  0  1  0  0  0  0  0  0
  186.7400  178.2660  145.2530 C   0  0  2  0  0  3  0  0  0  0  0  0
  185.1000  178.9380  142.9550 C   0  0  0  0  0  0  0  0  0  0  0  0
  189.3120  177.9210  140.2470 Cl  0  0  0  0  0  0  0  0  0  0  0  0
  185.9290  178.1660  137.9800 C   0  0  0  0  0  3  0  0  0  0  0  0
  186.4320  177.8870  136.7090 C   0  0  0  0  0  3  0  0  0  0  0  0
  188.6400  177.6020  137.6480 C   0  0  0  0  0  3  0  0  0  0  0  0
  188.1480  177.8770  138.9290 C   0  0  0  0  0  0  0  0  0  0  0  0
  186.7700  178.1590  139.1070 C   0  0  0  0  0  0  0  0  0  0  0  0
  187.7870  177.6030  136.5430 C   0  0  0  0  0  3  0  0  0  0  0  0
  190.9690  177.6540  145.4220 C   0  0  0  0  0  2  0  0  0  0  0  0
  192.0560  177.5110  143.1850 O   0  0  0  0  0  0  0  0  0  0  0  0
  191.9860  179.5060  144.3120 O   0  0  0  0  0  1  0  0  0  0  0  0
  191.6870  178.2850  144.2770 C   0  0  0  0  0  0  0  0  0  0  0  0
  1 11  1  0  0  0  0
  1  8  1  1  0  0  0
  2 12  1  6  0  0  0
  3  4  1  0  0  0  0
  4 19  2  0  0  0  0
  5 16  2  0  0  0  0
  6  3  2  0  0  0  0
  6  5  1  0  0  0  0
  7 13  1  1  0  0  0
  7 12  1  0  0  0  0
  7  2  1  0  0  0  0
  8 17  1  0  0  0  0
  9 15  1  0  0  0  0
 11  8  1  1  0  0  0
 14  9  1  0  0  0  0
 14 10  1  0  0  0  0
 15 27  1  1  0  0  0
 15  1  1  0  0  0  0
 16 19  1  0  0  0  0
 16 10  1  0  0  0  0
 18 10  1  6  0  0  0
 18  2  1  0  0  0  0
 18 11  1  0  0  0  0
 19  7  1  0  0  0  0
 21 25  1  0  0  0  0
 22 21  2  0  0  0  0
 23 24  1  0  0  0  0
 24 25  2  0  0  0  0
 24 20  1  0  0  0  0
 25  6  1  0  0  0  0
 26 22  1  0  0  0  0
 26 23  2  0  0  0  0
 28 30  2  0  0  0  0
 30 29  1  0  0  0  0
 30 27  1  0  0  0  0
M  END
>  <MODEL>
7

>  <REMARK>
 VINA RESULT:      -8.1      2.462      3.562
  Name = 
  3 active torsions:
  status: ('A' for Active; 'I' for Inactive)
    1  A    between atoms: C_10  and  C_25
    2  A    between atoms: C_10  and  C_26
    3  A    between atoms: C_11  and  C_22
                            x       y       z     vdW  Elec       q    Type
                         _______ _______ _______ _____ _____    ______ ____

>  <TORSDO>
F 3

$$$$
=
 OpenBabel11042412043D

 30 35  0  0  1  0  0  0  0  0999 V2000
  182.5020  179.0260  142.4780 C   0  0  1  0  0  3  0  0  0  0  0  0
  184.6920  178.2710  145.6000 C   0  0  1  0  0  3  0  0  0  0  0  0
  189.3200  177.1060  143.9760 C   0  0  0  0  0  3  0  0  0  0  0  0
  188.4090  177.2360  145.0250 C   0  0  0  0  0  3  0  0  0  0  0  0
  187.7140  178.0430  142.4840 N   0  0  0  0  0  0  0  0  0  0  0  0
  188.9490  177.5040  142.6840 C   0  0  0  0  0  0  0  0  0  0  0  0
  186.1520  177.9600  145.9030 C   0  0  1  0  0  0  0  0  0  0  0  0
  181.9830  178.1960  143.5750 N   0  0  0  0  0  0  0  0  0  0  0  0
  184.5470  178.8650  140.9730 C   0  0  0  0  0  2  0  0  0  0  0  0
  185.5150  178.7400  143.2420 N   0  0  0  0  0  0  0  0  0  0  0  0
  183.0910  179.1310  143.8350 C   0  0  1  0  0  3  0  0  0  0  0  0
  185.6400  179.3780  146.0630 C   0  0  0  0  0  2  0  0  0  0  0  0
  186.3810  177.3200  147.1220 O   0  0  0  0  0  1  0  0  0  0  0  0
  185.3280  179.5920  142.0680 C   0  0  0  0  0  2  0  0  0  0  0  0
  183.2930  178.1520  141.5000 C   0  0  2  0  0  3  0  0  0  0  0  0
  186.8040  178.1660  143.4890 C   0  0  0  0  0  0  0  0  0  0  0  0
  180.7690  178.8390  144.0450 C   0  0  0  0  0  1  0  0  0  0  0  0
  184.3770  178.3240  144.0870 C   0  0  2  0  0  3  0  0  0  0  0  0
  187.1370  177.7620  144.7850 C   0  0  0  0  0  0  0  0  0  0  0  0
  192.0480  177.9270  143.2550 Cl  0  0  0  0  0  0  0  0  0  0  0  0
  189.3880  177.0990  140.2740 C   0  0  0  0  0  3  0  0  0  0  0  0
  190.2430  176.9420  139.1820 C   0  0  0  0  0  3  0  0  0  0  0  0
  192.1450  177.3470  140.6150 C   0  0  0  0  0  3  0  0  0  0  0  0
  191.2990  177.5040  141.7190 C   0  0  0  0  0  0  0  0  0  0  0  0
  189.8970  177.3730  141.5550 C   0  0  0  0  0  0  0  0  0  0  0  0
  191.6220  177.0640  139.3530 C   0  0  0  0  0  3  0  0  0  0  0  0
  182.4030  177.7360  140.3400 C   0  0  0  0  0  2  0  0  0  0  0  0
  180.0810  178.6260  140.4900 O   0  0  0  0  0  1  0  0  0  0  0  0
  181.7060  179.8110  139.3880 O   0  0  0  0  0  0  0  0  0  0  0  0
  181.3880  178.7900  140.0510 C   0  0  0  0  0  0  0  0  0  0  0  0
  1  8  1  1  0  0  0
  1 11  1  0  0  0  0
  2  7  1  0  0  0  0
  2 12  1  6  0  0  0
  3  4  1  0  0  0  0
  5  6  1  0  0  0  0
  5 16  2  0  0  0  0
  6  3  2  0  0  0  0
  7 12  1  0  0  0  0
  7 13  1  1  0  0  0
  8 17  1  0  0  0  0
  9 15  1  0  0  0  0
  9 14  1  0  0  0  0
 10 16  1  0  0  0  0
 11  8  1  1  0  0  0
 11 18  1  0  0  0  0
 14 10  1  0  0  0  0
 15 27  1  6  0  0  0
 15  1  1  0  0  0  0
 16 19  1  0  0  0  0
 18 10  1  6  0  0  0
 18  2  1  0  0  0  0
 19  4  2  0  0  0  0
 19  7  1  0  0  0  0
 21 25  1  0  0  0  0
 22 26  1  0  0  0  0
 22 21  2  0  0  0  0
 23 24  1  0  0  0  0
 24 20  1  0  0  0  0
 25 24  2  0  0  0  0
 25  6  1  0  0  0  0
 26 23  2  0  0  0  0
 29 30  2  0  0  0  0
 30 27  1  0  0  0  0
 30 28  1  0  0  0  0
M  END
>  <MODEL>
8

>  <REMARK>
 VINA RESULT:      -8.1      2.922      6.718
  Name = 
  3 active torsions:
  status: ('A' for Active; 'I' for Inactive)
    1  A    between atoms: C_10  and  C_25
    2  A    between atoms: C_10  and  C_26
    3  A    between atoms: C_11  and  C_22
                            x       y       z     vdW  Elec       q    Type
                         _______ _______ _______ _____ _____    ______ ____

>  <TORSDO>
F 3

$$$$
=
 OpenBabel11042412043D

 30 35  0  0  1  0  0  0  0  0999 V2000
  190.6640  177.3260  140.4020 C   0  0  1  0  0  3  0  0  0  0  0  0
  188.1920  177.6210  137.4160 C   0  0  1  0  0  3  0  0  0  0  0  0
  183.5680  178.2640  139.3170 C   0  0  0  0  0  3  0  0  0  0  0  0
  184.4010  178.0800  138.2130 C   0  0  0  0  0  3  0  0  0  0  0  0
  185.4870  178.4370  140.7200 N   0  0  0  0  0  0  0  0  0  0  0  0
  184.1320  178.4280  140.5900 C   0  0  0  0  0  0  0  0  0  0  0  0
  186.7130  177.9140  137.2040 C   0  0  1  0  0  0  0  0  0  0  0  0
  190.7610  176.4110  139.2550 N   0  0  0  0  0  0  0  0  0  0  0  0
  188.7990  177.9000  142.0350 C   0  0  0  0  0  2  0  0  0  0  0  0
  187.7410  178.2630  139.8330 N   0  0  0  0  0  0  0  0  0  0  0  0
  190.0920  177.7130  139.0890 C   0  0  1  0  0  3  0  0  0  0  0  0
  187.7260  179.0290  137.0410 C   0  0  0  0  0  2  0  0  0  0  0  0
  186.1890  177.4690  135.9890 O   0  0  0  0  0  1  0  0  0  0  0  0
  188.3070  178.9220  141.0100 C   0  0  0  0  0  2  0  0  0  0  0  0
  189.6480  176.7820  141.4110 C   0  0  2  0  0  3  0  0  0  0  0  0
  186.3200  178.2450  139.6600 C   0  0  0  0  0  0  0  0  0  0  0  0
  192.1030  176.5560  138.7200 C   0  0  0  0  0  1  0  0  0  0  0  0
  188.5820  177.4780  138.9050 C   0  0  2  0  0  3  0  0  0  0  0  0
  185.7880  178.0610  138.3800 C   0  0  0  0  0  0  0  0  0  0  0  0
  185.4730  178.3240  143.4710 Cl  0  0  0  0  0  0  0  0  0  0  0  0
  181.8890  178.8120  141.5840 C   0  0  0  0  0  3  0  0  0  0  0  0
  181.0360  179.0230  142.6680 C   0  0  0  0  0  3  0  0  0  0  0  0
  182.9150  178.8440  144.1770 C   0  0  0  0  0  3  0  0  0  0  0  0
  183.7810  178.6330  143.0980 C   0  0  0  0  0  0  0  0  0  0  0  0
  183.2680  178.6220  141.7770 C   0  0  0  0  0  0  0  0  0  0  0  0
  181.5500  179.0420  143.9650 C   0  0  0  0  0  3  0  0  0  0  0  0
  190.3660  176.0010  142.5010 C   0  0  0  0  0  2  0  0  0  0  0  0
  191.6870  177.7960  143.6130 O   0  0  0  0  0  0  0  0  0  0  0  0
  189.9710  176.7620  144.7280 O   0  0  0  0  0  1  0  0  0  0  0  0
  190.6490  176.8760  143.6740 C   0  0  0  0  0  0  0  0  0  0  0  0
  1  8  1  6  0  0  0
  1 15  1  0  0  0  0
  2 12  1  1  0  0  0
  2 18  1  0  0  0  0
  3  6  1  0  0  0  0
  4 19  1  0  0  0  0
  4  3  2  0  0  0  0
  6  5  2  0  0  0  0
  6 25  1  0  0  0  0
  7 13  1  6  0  0  0
  7  2  1  0  0  0  0
  7 19  1  0  0  0  0
 10 14  1  0  0  0  0
 11  8  1  6  0  0  0
 11  1  1  0  0  0  0
 12  7  1  0  0  0  0
 14  9  1  0  0  0  0
 15  9  1  0  0  0  0
 15 27  1  1  0  0  0
 16 10  1  0  0  0  0
 16  5  1  0  0  0  0
 17  8  1  0  0  0  0
 18 11  1  0  0  0  0
 18 10  1  1  0  0  0
 19 16  2  0  0  0  0
 21 25  2  0  0  0  0
 21 22  1  0  0  0  0
 22 26  2  0  0  0  0
 24 20  1  0  0  0  0
 24 23  2  0  0  0  0
 25 24  1  0  0  0  0
 26 23  1  0  0  0  0
 27 30  1  0  0  0  0
 28 30  2  0  0  0  0
 30 29  1  0  0  0  0
M  END
>  <MODEL>
9

>  <REMARK>
 VINA RESULT:      -8.0      2.888      5.513
  Name = 
  3 active torsions:
  status: ('A' for Active; 'I' for Inactive)
    1  A    between atoms: C_10  and  C_25
    2  A    between atoms: C_10  and  C_26
    3  A    between atoms: C_11  and  C_22
                            x       y       z     vdW  Elec       q    Type
                         _______ _______ _______ _____ _____    ______ ____

>  <TORSDO>
F 3

$$$$
