=
 OpenBabel11032421303D

 60 67  0  0  1  0  0  0  0  0999 V2000
  189.4410  177.8430  139.2940 C   0  0  0  0  0  3  0  0  0  0  0  0
  191.4070  177.6260  140.7410 O   0  0  0  0  0  0  0  0  0  0  0  0
  188.6600  177.9890  140.3730 C   0  0  0  0  0  0  0  0  0  0  0  0
  190.9000  177.4450  139.4090 C   0  0  1  0  0  3  0  0  0  0  0  0
  189.6970  177.9100  144.0370 C   0  0  2  0  0  3  0  0  0  0  0  0
  189.2620  177.8380  141.7120 C   0  0  0  0  0  0  0  0  0  0  0  0
  188.5570  177.8770  143.0160 C   0  0  0  0  0  2  0  0  0  0  0  0
  190.9930  177.6480  143.2600 C   0  0  0  0  0  2  0  0  0  0  0  0
  190.5570  177.6980  141.8500 C   0  0  0  0  0  0  0  0  0  0  0  0
  187.6060  176.2320  137.2260 O   0  0  0  0  0  0  0  0  0  0  0  0
  186.6210  179.0730  141.2770 C   0  0  0  0  0  2  0  0  0  0  0  0
  187.2290  177.1850  136.4320 C   0  0  2  0  0  3  0  0  0  0  0  0
  185.3230  178.3170  138.8570 N   0  0  0  0  0  0  0  0  0  0  0  0
  184.5470  178.8480  139.9370 C   0  0  0  0  0  0  0  0  0  0  0  0
  187.2660  177.4290  137.8770 N   0  0  0  0  0  0  0  0  0  0  0  0
  185.1310  179.1480  141.1030 C   0  0  0  0  0  3  0  0  0  0  0  0
  186.5900  178.0620  138.9640 C   0  0  0  0  0  0  0  0  0  0  0  0
  187.2720  178.3050  140.2110 N   0  0  0  0  0  0  0  0  0  0  0  0
  182.6550  180.2260  139.2350 N   0  0  0  0  0  2  0  0  0  0  0  0
  181.2010  178.0630  136.7920 C   0  0  0  0  0  3  0  0  0  0  0  0
  181.8380  178.5850  137.8370 C   0  0  0  0  0  0  0  0  0  0  0  0
  182.5250  177.8060  138.8690 C   0  0  0  0  0  2  0  0  0  0  0  0
  181.9470  179.9310  138.0910 O   0  0  0  0  0  0  0  0  0  0  0  0
  183.0580  178.9190  139.7830 C   0  0  1  0  0  3  0  0  0  0  0  0
  180.5530  178.8950  135.8130 C   0  0  0  0  0  0  0  0  0  0  0  0
  180.0100  179.5950  134.9930 C   0  0  0  0  0  3  0  0  0  0  0  0
  185.7970  176.9490  135.9850 C   0  0  0  0  0  2  0  0  0  0  0  0
  185.5880  175.4720  135.6630 C   0  0  0  0  0  2  0  0  0  0  0  0
  184.4430  174.8290  136.4570 C   0  0  2  0  0  3  0  0  0  0  0  0
  185.3410  172.9500  137.8080 C   0  0  0  0  0  2  0  0  0  0  0  0
  184.5990  173.3160  136.5350 C   0  0  0  0  0  3  0  0  0  0  0  0
  186.0680  172.9410  136.4810 C   0  0  0  0  0  2  0  0  0  0  0  0
  183.0940  175.1910  135.9110 C   0  0  0  0  0  3  0  0  0  0  0  0
  182.8940  175.3150  134.6000 C   0  0  0  0  0  2  0  0  0  0  0  0
  191.0610  175.9870  139.0030 C   0  0  0  0  0  2  0  0  0  0  0  0
  191.3430  175.8740  137.5140 C   0  0  0  0  0  2  0  0  0  0  0  0
  192.8400  175.8620  137.2610 C   0  0  0  0  0  2  0  0  0  0  0  0
  195.7040  171.1490  137.7860 C   0  0  0  0  0  1  0  0  0  0  0  0
  193.5800  173.6160  136.1500 S   0  0  0  0  0  0  0  0  0  0  0  0
  195.8620  172.6240  137.4670 C   0  0  1  0  0  0  0  0  0  0  0  0
  197.5820  173.2230  135.8480 C   0  0  1  0  0  3  0  0  0  0  0  0
  196.0950  175.0840  135.5260 O   0  0  0  0  0  1  0  0  0  0  0  0
  195.2950  173.4440  138.6380 C   0  0  0  0  0  2  0  0  0  0  0  0
  197.3460  172.9370  137.3180 C   0  0  0  0  0  2  0  0  0  0  0  0
  192.5840  172.4920  136.1720 O   0  0  0  0  0  0  0  0  0  0  0  0
  193.3850  174.5580  137.6060 N   0  0  0  0  0  0  0  0  0  0  0  0
  196.2520  173.7120  135.2920 C   0  0  2  0  0  3  0  0  0  0  0  0
  193.3400  174.4500  134.9210 O   0  0  0  0  0  0  0  0  0  0  0  0
  198.7180  174.2140  135.6600 C   0  0  0  0  0  1  0  0  0  0  0  0
  194.6950  174.7770  138.2040 C   0  0  0  0  0  2  0  0  0  0  0  0
  195.2320  172.9060  136.0910 C   0  0  2  0  0  3  0  0  0  0  0  0
  189.4780  176.8490  145.1020 C   0  0  0  0  0  2  0  0  0  0  0  0
  189.8480  177.3740  146.4880 C   0  0  2  0  0  3  0  0  0  0  0  0
  191.2630  176.3960  147.0990 P   0  0  0  0  0  0  0  0  0  0  0  0
  190.7020  174.9590  147.7930 O   0  0  0  0  0  1  0  0  0  0  0  0
  192.1870  176.0670  145.9500 O   0  0  0  0  0  0  0  0  0  0  0  0
  192.1250  177.2720  148.2610 O   0  0  0  0  0  1  0  0  0  0  0  0
  187.3270  177.4990  146.7740 C   0  0  0  0  0  1  0  0  0  0  0  0
  188.7860  178.3350  148.5620 C   0  0  0  0  0  1  0  0  0  0  0  0
  188.6630  177.2890  147.4680 C   0  0  0  0  0  3  0  0  0  0  0  0
  1  4  1  0  0  0  0
  1  3  2  0  0  0  0
  2  9  1  0  0  0  0
  3  6  1  0  0  0  0
  4 35  1  1  0  0  0
  4  2  1  0  0  0  0
  5 52  1  1  0  0  0
  6  9  2  0  0  0  0
  6  7  1  0  0  0  0
  7  5  1  0  0  0  0
  8  5  1  0  0  0  0
  9  8  1  0  0  0  0
 10 15  1  0  0  0  0
 12 27  1  1  0  0  0
 12 10  1  0  0  0  0
 12 15  1  0  0  0  0
 13 17  2  0  0  0  0
 13 14  1  0  0  0  0
 14 16  2  0  0  0  0
 15 17  1  0  0  0  0
 16 11  1  0  0  0  0
 17 18  1  0  0  0  0
 18  3  1  0  0  0  0
 18 11  1  0  0  0  0
 19 24  1  0  0  0  0
 20 21  2  0  0  0  0
 21 23  1  0  0  0  0
 21 22  1  0  0  0  0
 22 24  1  0  0  0  0
 23 19  1  0  0  0  0
 24 14  1  6  0  0  0
 25 20  1  0  0  0  0
 26 25  3  0  0  0  0
 28 27  1  0  0  0  0
 29 28  1  6  0  0  0
 29 31  1  0  0  0  0
 31 30  1  0  0  0  0
 32 31  1  0  0  0  0
 32 30  1  0  0  0  0
 33 29  1  0  0  0  0
 34 33  2  0  0  0  0
 36 35  1  0  0  0  0
 37 36  1  0  0  0  0
 37 46  1  0  0  0  0
 39 45  2  0  0  0  0
 39 46  1  0  0  0  0
 40 38  1  1  0  0  0
 40 43  1  0  0  0  0
 41 49  1  1  0  0  0
 41 44  1  0  0  0  0
 44 40  1  0  0  0  0
 46 50  1  0  0  0  0
 47 42  1  1  0  0  0
 47 41  1  0  0  0  0
 47 51  1  0  0  0  0
 48 39  2  0  0  0  0
 50 43  1  0  0  0  0
 51 39  1  1  0  0  0
 51 40  1  0  0  0  0
 53 52  1  6  0  0  0
 53 54  1  0  0  0  0
 53 60  1  0  0  0  0
 54 55  1  0  0  0  0
 54 57  1  0  0  0  0
 56 54  2  0  0  0  0
 58 60  1  0  0  0  0
 60 59  1  0  0  0  0
M  END
>  <MODEL>
1

>  <REMARK>
 VINA RESULT:      -8.2      0.000      0.000
  Name = 
  16 active torsions:
  status: ('A' for Active; 'I' for Inactive)
    1  A    between atoms: P_3  and  C_59
    2  A    between atoms: C_5  and  C_49
    3  A    between atoms: C_6  and  C_15
    4  A    between atoms: C_6  and  C_49
    5  A    between atoms: C_9  and  N_45
    6  A    between atoms: C_13  and  N_36
    7  A    between atoms: C_13  and  C_38
    8  A    between atoms: C_15  and  C_27
    9  A    between atoms: C_17  and  C_33
   10  A    between atoms: C_17  and  C_38
   11  A    between atoms: C_21  and  C_34
   12  A    between atoms: C_30  and  C_49
   13  A    between atoms: C_31  and  C_51
   14  A    between atoms: C_35  and  C_57
   15  A    between atoms: C_46  and  C_59
   16  A    between atoms: C_57  and  C_59
                            x       y       z     vdW  Elec       q    Type
                         _______ _______ _______ _____ _____    ______ ____

>  <TORSDO>
F 16

$$$$
=
 OpenBabel11032421303D

 60 67  0  0  1  0  0  0  0  0999 V2000
  190.9590  175.9460  136.7600 C   0  0  0  0  0  3  0  0  0  0  0  0
  192.3270  177.1290  138.4140 O   0  0  0  0  0  0  0  0  0  0  0  0
  189.9570  175.8630  137.6450 C   0  0  0  0  0  0  0  0  0  0  0  0
  192.3390  176.4330  137.1570 C   0  0  1  0  0  3  0  0  0  0  0  0
  189.9060  177.1110  141.2430 C   0  0  2  0  0  3  0  0  0  0  0  0
  190.1830  176.3400  139.0230 C   0  0  0  0  0  0  0  0  0  0  0  0
  189.2380  176.2580  140.1620 C   0  0  0  0  0  2  0  0  0  0  0  0
  191.3160  177.4390  140.7370 C   0  0  0  0  0  2  0  0  0  0  0  0
  191.2950  176.9550  139.3420 C   0  0  0  0  0  0  0  0  0  0  0  0
  187.5870  178.7730  137.7820 O   0  0  0  0  0  0  0  0  0  0  0  0
  188.6430  173.9400  136.7920 C   0  0  0  0  0  2  0  0  0  0  0  0
  186.6980  178.4280  138.6590 C   0  0  2  0  0  3  0  0  0  0  0  0
  186.3380  175.5960  137.0330 N   0  0  0  0  0  0  0  0  0  0  0  0
  186.2330  174.3350  136.3640 C   0  0  0  0  0  0  0  0  0  0  0  0
  187.5030  177.3900  138.0080 N   0  0  0  0  0  0  0  0  0  0  0  0
  187.3190  173.5730  136.1850 C   0  0  0  0  0  3  0  0  0  0  0  0
  187.4680  176.0760  137.4500 C   0  0  0  0  0  0  0  0  0  0  0  0
  188.6870  175.3370  137.2380 N   0  0  0  0  0  0  0  0  0  0  0  0
  184.0390  173.3250  136.7380 N   0  0  0  0  0  2  0  0  0  0  0  0
  181.9430  176.0210  135.6900 C   0  0  0  0  0  3  0  0  0  0  0  0
  182.9300  175.1460  135.8610 C   0  0  0  0  0  0  0  0  0  0  0  0
  184.2050  175.1770  135.1410 C   0  0  0  0  0  2  0  0  0  0  0  0
  182.8950  174.0930  136.7430 O   0  0  0  0  0  0  0  0  0  0  0  0
  184.9210  173.9590  135.7440 C   0  0  1  0  0  3  0  0  0  0  0  0
  180.7180  175.9300  136.4410 C   0  0  0  0  0  0  0  0  0  0  0  0
  179.6930  175.8550  137.0720 C   0  0  0  0  0  3  0  0  0  0  0  0
  185.3130  178.4740  138.0380 C   0  0  0  0  0  2  0  0  0  0  0  0
  184.3080  179.0260  139.0450 C   0  0  0  0  0  2  0  0  0  0  0  0
  182.9370  178.3400  138.9780 C   0  0  2  0  0  3  0  0  0  0  0  0
  180.9440  179.4040  137.9480 C   0  0  0  0  0  2  0  0  0  0  0  0
  181.8050  179.3360  139.1980 C   0  0  0  0  0  3  0  0  0  0  0  0
  181.9440  180.5020  138.2370 C   0  0  0  0  0  2  0  0  0  0  0  0
  182.8210  177.1940  139.9370 C   0  0  0  0  0  3  0  0  0  0  0  0
  182.5850  175.9560  139.5030 C   0  0  0  0  0  2  0  0  0  0  0  0
  193.2900  175.2480  137.2460 C   0  0  0  0  0  2  0  0  0  0  0  0
  192.7140  174.0440  136.5200 C   0  0  0  0  0  2  0  0  0  0  0  0
  193.7350  172.9220  136.4690 C   0  0  0  0  0  2  0  0  0  0  0  0
  199.1640  173.9270  136.9340 C   0  0  0  0  0  1  0  0  0  0  0  0
  195.9060  172.6030  137.8890 S   0  0  0  0  0  0  0  0  0  0  0  0
  198.1640  173.0090  136.2560 C   0  0  1  0  0  0  0  0  0  0  0  0
  198.8530  170.6980  135.9010 C   0  0  1  0  0  3  0  0  0  0  0  0
  196.4730  170.3730  135.9980 O   0  0  0  0  0  1  0  0  0  0  0  0
  197.1760  173.8690  135.4500 C   0  0  0  0  0  2  0  0  0  0  0  0
  198.9130  172.0890  135.2990 C   0  0  0  0  0  2  0  0  0  0  0  0
  196.0880  173.5260  139.0600 O   0  0  0  0  0  0  0  0  0  0  0  0
  195.0740  173.4710  136.6240 N   0  0  0  0  0  0  0  0  0  0  0  0
  197.6040  170.6660  136.7710 C   0  0  2  0  0  3  0  0  0  0  0  0
  195.1210  171.4010  138.3370 O   0  0  0  0  0  0  0  0  0  0  0  0
  198.8640  169.6340  134.8180 C   0  0  0  0  0  1  0  0  0  0  0  0
  195.7790  173.2620  135.3660 C   0  0  0  0  0  2  0  0  0  0  0  0
  197.5330  172.0890  137.3170 C   0  0  2  0  0  3  0  0  0  0  0  0
  189.9630  176.3460  142.5540 C   0  0  0  0  0  2  0  0  0  0  0  0
  189.7290  177.2730  143.7450 C   0  0  2  0  0  3  0  0  0  0  0  0
  191.2100  177.2030  144.8100 P   0  0  0  0  0  0  0  0  0  0  0  0
  190.7400  177.0270  146.4260 O   0  0  0  0  0  1  0  0  0  0  0  0
  192.0680  176.0250  144.4100 O   0  0  0  0  0  0  0  0  0  0  0  0
  192.1180  178.6210  144.6490 O   0  0  0  0  0  1  0  0  0  0  0  0
  187.2640  176.6690  143.6350 C   0  0  0  0  0  1  0  0  0  0  0  0
  188.1070  177.9530  145.5490 C   0  0  0  0  0  1  0  0  0  0  0  0
  188.4690  176.8800  144.5380 C   0  0  0  0  0  3  0  0  0  0  0  0
  1  4  1  0  0  0  0
  1  3  2  0  0  0  0
  2  9  1  0  0  0  0
  3  6  1  0  0  0  0
  4 35  1  1  0  0  0
  4  2  1  0  0  0  0
  5 52  1  1  0  0  0
  6  9  2  0  0  0  0
  6  7  1  0  0  0  0
  7  5  1  0  0  0  0
  8  5  1  0  0  0  0
  9  8  1  0  0  0  0
 10 15  1  0  0  0  0
 10 12  1  0  0  0  0
 11 18  1  0  0  0  0
 12 27  1  6  0  0  0
 13 17  2  0  0  0  0
 14 13  1  0  0  0  0
 15 12  1  0  0  0  0
 16 14  2  0  0  0  0
 16 11  1  0  0  0  0
 17 15  1  0  0  0  0
 18 17  1  0  0  0  0
 18  3  1  0  0  0  0
 19 23  1  0  0  0  0
 20 21  2  0  0  0  0
 20 25  1  0  0  0  0
 21 23  1  0  0  0  0
 22 24  1  0  0  0  0
 22 21  1  0  0  0  0
 24 14  1  1  0  0  0
 24 19  1  0  0  0  0
 25 26  3  0  0  0  0
 27 28  1  0  0  0  0
 29 28  1  1  0  0  0
 29 31  1  0  0  0  0
 29 33  1  0  0  0  0
 30 32  1  0  0  0  0
 30 31  1  0  0  0  0
 32 31  1  0  0  0  0
 34 33  2  0  0  0  0
 36 35  1  0  0  0  0
 37 36  1  0  0  0  0
 37 46  1  0  0  0  0
 39 48  2  0  0  0  0
 39 45  2  0  0  0  0
 40 38  1  1  0  0  0
 40 51  1  0  0  0  0
 41 49  1  6  0  0  0
 41 47  1  0  0  0  0
 43 40  1  0  0  0  0
 44 41  1  0  0  0  0
 44 40  1  0  0  0  0
 46 39  1  0  0  0  0
 47 42  1  6  0  0  0
 47 51  1  0  0  0  0
 50 43  1  0  0  0  0
 50 46  1  0  0  0  0
 51 39  1  6  0  0  0
 53 52  1  6  0  0  0
 53 60  1  0  0  0  0
 53 54  1  0  0  0  0
 54 55  1  0  0  0  0
 56 54  2  0  0  0  0
 57 54  1  0  0  0  0
 58 60  1  0  0  0  0
 60 59  1  0  0  0  0
M  END
>  <MODEL>
2

>  <REMARK>
 VINA RESULT:      -7.4      2.196      4.229
  Name = 
  16 active torsions:
  status: ('A' for Active; 'I' for Inactive)
    1  A    between atoms: P_3  and  C_59
    2  A    between atoms: C_5  and  C_49
    3  A    between atoms: C_6  and  C_15
    4  A    between atoms: C_6  and  C_49
    5  A    between atoms: C_9  and  N_45
    6  A    between atoms: C_13  and  N_36
    7  A    between atoms: C_13  and  C_38
    8  A    between atoms: C_15  and  C_27
    9  A    between atoms: C_17  and  C_33
   10  A    between atoms: C_17  and  C_38
   11  A    between atoms: C_21  and  C_34
   12  A    between atoms: C_30  and  C_49
   13  A    between atoms: C_31  and  C_51
   14  A    between atoms: C_35  and  C_57
   15  A    between atoms: C_46  and  C_59
   16  A    between atoms: C_57  and  C_59
                            x       y       z     vdW  Elec       q    Type
                         _______ _______ _______ _____ _____    ______ ____

>  <TORSDO>
F 16

$$$$
=
 OpenBabel11032421303D

 60 67  0  0  1  0  0  0  0  0999 V2000
  189.3310  177.8260  139.0460 C   0  0  0  0  0  3  0  0  0  0  0  0
  191.2580  177.8070  140.5610 O   0  0  0  0  0  0  0  0  0  0  0  0
  188.5070  177.9760  140.0920 C   0  0  0  0  0  0  0  0  0  0  0  0
  190.8070  177.5270  139.2260 C   0  0  1  0  0  3  0  0  0  0  0  0
  189.4240  178.1490  143.7840 C   0  0  2  0  0  3  0  0  0  0  0  0
  189.0720  177.9310  141.4550 C   0  0  0  0  0  0  0  0  0  0  0  0
  188.3230  177.9920  142.7330 C   0  0  0  0  0  2  0  0  0  0  0  0
  190.7590  177.9290  143.0620 C   0  0  0  0  0  2  0  0  0  0  0  0
  190.3680  177.8810  141.6390 C   0  0  0  0  0  0  0  0  0  0  0  0
  187.7060  176.1420  136.9150 O   0  0  0  0  0  0  0  0  0  0  0  0
  186.3630  178.9210  140.9060 C   0  0  0  0  0  2  0  0  0  0  0  0
  187.2970  177.0640  136.1010 C   0  0  2  0  0  3  0  0  0  0  0  0
  185.2200  178.0690  138.4400 N   0  0  0  0  0  0  0  0  0  0  0  0
  184.3660  178.5480  139.4840 C   0  0  0  0  0  0  0  0  0  0  0  0
  187.2590  177.3140  137.5450 N   0  0  0  0  0  0  0  0  0  0  0  0
  184.8800  178.8920  140.6720 C   0  0  0  0  0  3  0  0  0  0  0  0
  186.4960  177.9030  138.5990 C   0  0  0  0  0  0  0  0  0  0  0  0
  187.1080  178.1950  139.8720 N   0  0  0  0  0  0  0  0  0  0  0  0
  182.2000  179.3980  140.2310 N   0  0  0  0  0  2  0  0  0  0  0  0
  181.0050  180.7920  137.1680 C   0  0  0  0  0  3  0  0  0  0  0  0
  181.6080  180.0680  138.1060 C   0  0  0  0  0  0  0  0  0  0  0  0
  182.5040  178.9410  137.8430 C   0  0  0  0  0  2  0  0  0  0  0  0
  181.4780  180.2800  139.4580 O   0  0  0  0  0  0  0  0  0  0  0  0
  182.8830  178.5170  139.2690 C   0  0  1  0  0  3  0  0  0  0  0  0
  180.1410  181.8920  137.5040 C   0  0  0  0  0  0  0  0  0  0  0  0
  179.4160  182.8160  137.7840 C   0  0  0  0  0  3  0  0  0  0  0  0
  185.9040  176.7280  135.5970 C   0  0  0  0  0  2  0  0  0  0  0  0
  185.7940  175.2300  135.3300 C   0  0  0  0  0  2  0  0  0  0  0  0
  184.4770  174.6160  135.8250 C   0  0  2  0  0  3  0  0  0  0  0  0
  184.3760  172.3630  136.8640 C   0  0  0  0  0  2  0  0  0  0  0  0
  184.4210  173.1190  135.5480 C   0  0  0  0  0  3  0  0  0  0  0  0
  185.6690  172.4430  136.0830 C   0  0  0  0  0  2  0  0  0  0  0  0
  183.2730  175.3020  135.2540 C   0  0  0  0  0  3  0  0  0  0  0  0
  182.1080  175.2970  135.9000 C   0  0  0  0  0  2  0  0  0  0  0  0
  191.0710  176.0630  138.9020 C   0  0  0  0  0  2  0  0  0  0  0  0
  191.6940  175.9240  137.5230 C   0  0  0  0  0  2  0  0  0  0  0  0
  193.1810  175.6420  137.6430 C   0  0  0  0  0  2  0  0  0  0  0  0
  195.1680  171.4640  134.5960 C   0  0  0  0  0  1  0  0  0  0  0  0
  195.2990  174.4010  136.7480 S   0  0  0  0  0  0  0  0  0  0  0  0
  194.5960  171.7910  135.9620 C   0  0  1  0  0  0  0  0  0  0  0  0
  195.4710  170.5270  137.8540 C   0  0  1  0  0  3  0  0  0  0  0  0
  194.8070  172.5280  139.0100 O   0  0  0  0  0  1  0  0  0  0  0  0
  193.2130  172.4360  135.7750 C   0  0  0  0  0  2  0  0  0  0  0  0
  194.4340  170.4950  136.7480 C   0  0  0  0  0  2  0  0  0  0  0  0
  195.9830  175.0070  135.5550 O   0  0  0  0  0  0  0  0  0  0  0  0
  193.5850  174.6970  136.6120 N   0  0  0  0  0  0  0  0  0  0  0  0
  195.7560  171.9980  138.1250 C   0  0  2  0  0  3  0  0  0  0  0  0
  195.8660  175.0190  137.9970 O   0  0  0  0  0  0  0  0  0  0  0  0
  194.9880  169.7680  139.0780 C   0  0  0  0  0  1  0  0  0  0  0  0
  192.8700  173.4520  136.8600 C   0  0  0  0  0  2  0  0  0  0  0  0
  195.6210  172.6310  136.7440 C   0  0  2  0  0  3  0  0  0  0  0  0
  189.2350  177.1310  144.8960 C   0  0  0  0  0  2  0  0  0  0  0  0
  188.7870  177.8070  146.1920 C   0  0  2  0  0  3  0  0  0  0  0  0
  189.8720  177.2170  147.5370 P   0  0  0  0  0  0  0  0  0  0  0  0
  189.7860  178.2860  148.8450 O   0  0  0  0  0  1  0  0  0  0  0  0
  189.4270  175.8440  147.9840 O   0  0  0  0  0  1  0  0  0  0  0  0
  191.4740  177.1260  147.0010 O   0  0  0  0  0  0  0  0  0  0  0  0
  186.3790  177.9490  145.3960 C   0  0  0  0  0  1  0  0  0  0  0  0
  186.8770  178.2140  147.7850 C   0  0  0  0  0  1  0  0  0  0  0  0
  187.3110  177.5070  146.5130 C   0  0  0  0  0  3  0  0  0  0  0  0
  1  4  1  0  0  0  0
  1  3  2  0  0  0  0
  2  9  1  0  0  0  0
  3  6  1  0  0  0  0
  4 35  1  1  0  0  0
  4  2  1  0  0  0  0
  5 52  1  1  0  0  0
  6  9  2  0  0  0  0
  6  7  1  0  0  0  0
  7  5  1  0  0  0  0
  8  5  1  0  0  0  0
  9  8  1  0  0  0  0
 10 15  1  0  0  0  0
 12 27  1  1  0  0  0
 12 10  1  0  0  0  0
 12 15  1  0  0  0  0
 13 17  2  0  0  0  0
 13 14  1  0  0  0  0
 14 16  2  0  0  0  0
 15 17  1  0  0  0  0
 16 11  1  0  0  0  0
 17 18  1  0  0  0  0
 18  3  1  0  0  0  0
 18 11  1  0  0  0  0
 20 25  1  0  0  0  0
 20 21  2  0  0  0  0
 21 23  1  0  0  0  0
 22 21  1  0  0  0  0
 22 24  1  0  0  0  0
 23 19  1  0  0  0  0
 24 14  1  6  0  0  0
 24 19  1  0  0  0  0
 25 26  3  0  0  0  0
 28 27  1  0  0  0  0
 28 29  1  0  0  0  0
 29 33  1  6  0  0  0
 31 29  1  0  0  0  0
 31 32  1  0  0  0  0
 31 30  1  0  0  0  0
 32 30  1  0  0  0  0
 33 34  2  0  0  0  0
 36 37  1  0  0  0  0
 36 35  1  0  0  0  0
 39 48  2  0  0  0  0
 40 38  1  6  0  0  0
 40 51  1  0  0  0  0
 40 44  1  0  0  0  0
 41 47  1  0  0  0  0
 41 49  1  1  0  0  0
 43 40  1  0  0  0  0
 43 50  1  0  0  0  0
 44 41  1  0  0  0  0
 45 39  2  0  0  0  0
 46 39  1  0  0  0  0
 46 50  1  0  0  0  0
 46 37  1  0  0  0  0
 47 42  1  1  0  0  0
 51 39  1  1  0  0  0
 51 47  1  0  0  0  0
 53 52  1  6  0  0  0
 53 60  1  0  0  0  0
 53 54  1  0  0  0  0
 54 56  1  0  0  0  0
 54 55  1  0  0  0  0
 57 54  2  0  0  0  0
 58 60  1  0  0  0  0
 60 59  1  0  0  0  0
M  END
>  <MODEL>
3

>  <REMARK>
 VINA RESULT:      -6.9      1.424      2.170
  Name = 
  16 active torsions:
  status: ('A' for Active; 'I' for Inactive)
    1  A    between atoms: P_3  and  C_59
    2  A    between atoms: C_5  and  C_49
    3  A    between atoms: C_6  and  C_15
    4  A    between atoms: C_6  and  C_49
    5  A    between atoms: C_9  and  N_45
    6  A    between atoms: C_13  and  N_36
    7  A    between atoms: C_13  and  C_38
    8  A    between atoms: C_15  and  C_27
    9  A    between atoms: C_17  and  C_33
   10  A    between atoms: C_17  and  C_38
   11  A    between atoms: C_21  and  C_34
   12  A    between atoms: C_30  and  C_49
   13  A    between atoms: C_31  and  C_51
   14  A    between atoms: C_35  and  C_57
   15  A    between atoms: C_46  and  C_59
   16  A    between atoms: C_57  and  C_59
                            x       y       z     vdW  Elec       q    Type
                         _______ _______ _______ _____ _____    ______ ____

>  <TORSDO>
F 16

$$$$
=
 OpenBabel11032421303D

 60 67  0  0  1  0  0  0  0  0999 V2000
  186.0540  178.5540  139.7020 C   0  0  0  0  0  3  0  0  0  0  0  0
  184.8960  178.2560  137.5620 O   0  0  0  0  0  0  0  0  0  0  0  0
  187.1410  177.9520  139.2000 C   0  0  0  0  0  0  0  0  0  0  0  0
  184.7360  178.5800  138.9520 C   0  0  1  0  0  3  0  0  0  0  0  0
  187.5980  176.4740  135.7200 C   0  0  2  0  0  3  0  0  0  0  0  0
  187.0710  177.3720  137.8440 C   0  0  0  0  0  0  0  0  0  0  0  0
  188.1280  176.5980  137.1500 C   0  0  0  0  0  2  0  0  0  0  0  0
  186.1510  176.9830  135.7390 C   0  0  0  0  0  2  0  0  0  0  0  0
  186.0150  177.5590  137.0930 C   0  0  0  0  0  0  0  0  0  0  0  0
  186.0190  177.5600  142.7620 O   0  0  0  0  0  0  0  0  0  0  0  0
  189.6200  177.8930  139.2440 C   0  0  0  0  0  2  0  0  0  0  0  0
  186.4710  178.6150  143.3640 C   0  0  2  0  0  3  0  0  0  0  0  0
  189.4250  177.9570  142.0850 N   0  0  0  0  0  0  0  0  0  0  0  0
  190.6940  177.7080  141.4710 C   0  0  0  0  0  0  0  0  0  0  0  0
  187.0860  178.1900  142.1020 N   0  0  0  0  0  0  0  0  0  0  0  0
  190.7920  177.6100  140.1400 C   0  0  0  0  0  3  0  0  0  0  0  0
  188.3250  178.0530  141.4050 C   0  0  0  0  0  0  0  0  0  0  0  0
  188.3470  177.8980  139.9720 N   0  0  0  0  0  0  0  0  0  0  0  0
  192.1180  178.5320  143.2780 N   0  0  0  0  0  2  0  0  0  0  0  0
  191.7270  175.8670  145.6240 C   0  0  0  0  0  3  0  0  0  0  0  0
  191.8200  176.6200  144.5320 C   0  0  0  0  0  0  0  0  0  0  0  0
  191.6700  176.1250  143.1620 C   0  0  0  0  0  2  0  0  0  0  0  0
  192.0650  177.9720  144.5360 O   0  0  0  0  0  0  0  0  0  0  0  0
  191.8710  177.4140  142.3520 C   0  0  1  0  0  3  0  0  0  0  0  0
  191.8800  176.4270  146.9410 C   0  0  0  0  0  0  0  0  0  0  0  0
  192.0070  176.8980  148.0440 C   0  0  0  0  0  3  0  0  0  0  0  0
  187.3520  178.2060  144.5310 C   0  0  0  0  0  2  0  0  0  0  0  0
  186.5470  177.3710  145.5230 C   0  0  0  0  0  2  0  0  0  0  0  0
  185.9960  178.1850  146.7020 C   0  0  2  0  0  3  0  0  0  0  0  0
  187.6390  178.4740  148.5410 C   0  0  0  0  0  2  0  0  0  0  0  0
  186.4800  177.6320  148.0360 C   0  0  0  0  0  3  0  0  0  0  0  0
  187.9060  177.1280  147.9040 C   0  0  0  0  0  2  0  0  0  0  0  0
  184.5000  178.2790  146.6840 C   0  0  0  0  0  3  0  0  0  0  0  0
  183.8320  178.3780  145.5360 C   0  0  0  0  0  2  0  0  0  0  0  0
  183.7700  177.5930  139.5910 C   0  0  0  0  0  2  0  0  0  0  0  0
  182.6550  177.2330  138.6230 C   0  0  0  0  0  2  0  0  0  0  0  0
  182.2150  175.7960  138.8390 C   0  0  0  0  0  2  0  0  0  0  0  0
  178.9320  173.6960  134.9010 C   0  0  0  0  0  1  0  0  0  0  0  0
  181.8300  175.4200  136.2820 S   0  0  0  0  0  0  0  0  0  0  0  0
  180.0000  173.3130  135.9080 C   0  0  1  0  0  0  0  0  0  0  0  0
  181.5320  171.5290  135.2640 C   0  0  1  0  0  3  0  0  0  0  0  0
  182.9520  172.7110  136.8020 O   0  0  0  0  0  1  0  0  0  0  0  0
  179.5320  173.7390  137.3090 C   0  0  0  0  0  2  0  0  0  0  0  0
  180.1740  171.7990  135.8840 C   0  0  0  0  0  2  0  0  0  0  0  0
  181.2710  176.5780  135.5060 O   0  0  0  0  0  0  0  0  0  0  0  0
  181.1610  175.4580  137.8930 N   0  0  0  0  0  0  0  0  0  0  0  0
  182.3730  172.7700  135.5270 C   0  0  2  0  0  3  0  0  0  0  0  0
  183.3300  175.5340  136.3070 O   0  0  0  0  0  0  0  0  0  0  0  0
  182.1430  170.2540  135.8190 C   0  0  0  0  0  1  0  0  0  0  0  0
  180.6790  174.1270  138.2350 C   0  0  0  0  0  2  0  0  0  0  0  0
  181.3480  173.8980  135.4500 C   0  0  2  0  0  3  0  0  0  0  0  0
  187.6570  175.0270  135.2620 C   0  0  0  0  0  2  0  0  0  0  0  0
  188.1130  174.1080  136.3950 C   0  0  2  0  0  3  0  0  0  0  0  0
  189.8700  173.6990  136.1150 P   0  0  0  0  0  0  0  0  0  0  0  0
  190.5650  174.8530  135.0920 O   0  0  0  0  0  0  0  0  0  0  0  0
  190.6070  173.6950  137.4350 O   0  0  0  0  0  1  0  0  0  0  0  0
  190.0110  172.1710  135.4040 O   0  0  0  0  0  1  0  0  0  0  0  0
  185.9570  172.9570  135.7010 C   0  0  0  0  0  1  0  0  0  0  0  0
  186.9170  172.4890  137.9110 C   0  0  0  0  0  1  0  0  0  0  0  0
  187.2610  172.8270  136.4720 C   0  0  0  0  0  3  0  0  0  0  0  0
  2  4  1  0  0  0  0
  3  1  2  0  0  0  0
  3 18  1  0  0  0  0
  4 35  1  1  0  0  0
  4  1  1  0  0  0  0
  5 52  1  1  0  0  0
  5  8  1  0  0  0  0
  5  7  1  0  0  0  0
  6  3  1  0  0  0  0
  7  6  1  0  0  0  0
  8  9  1  0  0  0  0
  9  2  1  0  0  0  0
  9  6  2  0  0  0  0
 10 12  1  0  0  0  0
 11 18  1  0  0  0  0
 11 16  1  0  0  0  0
 12 27  1  1  0  0  0
 14 13  1  0  0  0  0
 15 10  1  0  0  0  0
 15 12  1  0  0  0  0
 16 14  2  0  0  0  0
 17 13  2  0  0  0  0
 17 15  1  0  0  0  0
 18 17  1  0  0  0  0
 19 23  1  0  0  0  0
 20 25  1  0  0  0  0
 21 23  1  0  0  0  0
 21 20  2  0  0  0  0
 22 21  1  0  0  0  0
 24 14  1  1  0  0  0
 24 22  1  0  0  0  0
 24 19  1  0  0  0  0
 25 26  3  0  0  0  0
 27 28  1  0  0  0  0
 29 28  1  6  0  0  0
 29 31  1  0  0  0  0
 31 30  1  0  0  0  0
 32 31  1  0  0  0  0
 32 30  1  0  0  0  0
 33 29  1  0  0  0  0
 34 33  2  0  0  0  0
 36 37  1  0  0  0  0
 36 35  1  0  0  0  0
 39 48  2  0  0  0  0
 39 46  1  0  0  0  0
 40 38  1  6  0  0  0
 40 43  1  0  0  0  0
 41 47  1  0  0  0  0
 41 49  1  1  0  0  0
 41 44  1  0  0  0  0
 43 50  1  0  0  0  0
 44 40  1  0  0  0  0
 45 39  2  0  0  0  0
 46 50  1  0  0  0  0
 46 37  1  0  0  0  0
 47 42  1  1  0  0  0
 51 47  1  0  0  0  0
 51 40  1  0  0  0  0
 51 39  1  1  0  0  0
 53 52  1  6  0  0  0
 53 60  1  0  0  0  0
 54 53  1  0  0  0  0
 54 56  1  0  0  0  0
 55 54  2  0  0  0  0
 57 54  1  0  0  0  0
 58 60  1  0  0  0  0
 60 59  1  0  0  0  0
M  END
>  <MODEL>
4

>  <REMARK>
 VINA RESULT:      -6.4      4.456     11.112
  Name = 
  16 active torsions:
  status: ('A' for Active; 'I' for Inactive)
    1  A    between atoms: P_3  and  C_59
    2  A    between atoms: C_5  and  C_49
    3  A    between atoms: C_6  and  C_15
    4  A    between atoms: C_6  and  C_49
    5  A    between atoms: C_9  and  N_45
    6  A    between atoms: C_13  and  N_36
    7  A    between atoms: C_13  and  C_38
    8  A    between atoms: C_15  and  C_27
    9  A    between atoms: C_17  and  C_33
   10  A    between atoms: C_17  and  C_38
   11  A    between atoms: C_21  and  C_34
   12  A    between atoms: C_30  and  C_49
   13  A    between atoms: C_31  and  C_51
   14  A    between atoms: C_35  and  C_57
   15  A    between atoms: C_46  and  C_59
   16  A    between atoms: C_57  and  C_59
                            x       y       z     vdW  Elec       q    Type
                         _______ _______ _______ _____ _____    ______ ____

>  <TORSDO>
F 16

$$$$
=
 OpenBabel11032421303D

 60 67  0  0  1  0  0  0  0  0999 V2000
  188.7640  177.5710  138.2680 C   0  0  0  0  0  3  0  0  0  0  0  0
  190.6220  177.7390  139.8580 O   0  0  0  0  0  0  0  0  0  0  0  0
  187.8900  177.7530  139.2670 C   0  0  0  0  0  0  0  0  0  0  0  0
  190.2420  177.3510  138.5280 C   0  0  1  0  0  3  0  0  0  0  0  0
  188.6370  178.2110  142.9730 C   0  0  2  0  0  3  0  0  0  0  0  0
  188.3960  177.8240  140.6520 C   0  0  0  0  0  0  0  0  0  0  0  0
  187.5900  177.9360  141.8920 C   0  0  0  0  0  2  0  0  0  0  0  0
  190.0100  178.0040  142.3220 C   0  0  0  0  0  2  0  0  0  0  0  0
  189.6840  177.8440  140.8910 C   0  0  0  0  0  0  0  0  0  0  0  0
  186.9190  174.5780  137.5130 O   0  0  0  0  0  0  0  0  0  0  0  0
  185.8100  179.0860  139.4880 C   0  0  0  0  0  2  0  0  0  0  0  0
  186.5190  174.9630  136.3410 C   0  0  2  0  0  3  0  0  0  0  0  0
  184.5570  177.1360  137.8330 N   0  0  0  0  0  0  0  0  0  0  0  0
  183.7560  178.1280  138.4820 C   0  0  0  0  0  0  0  0  0  0  0  0
  186.5360  175.9280  137.4450 N   0  0  0  0  0  0  0  0  0  0  0  0
  184.3200  179.0130  139.3140 C   0  0  0  0  0  3  0  0  0  0  0  0
  185.8310  177.0140  138.0460 C   0  0  0  0  0  0  0  0  0  0  0  0
  186.4930  177.8940  138.9760 N   0  0  0  0  0  0  0  0  0  0  0  0
  181.9060  177.4000  137.0620 N   0  0  0  0  0  2  0  0  0  0  0  0
  180.1540  175.3100  139.3690 C   0  0  0  0  0  3  0  0  0  0  0  0
  180.8940  176.2470  138.7830 C   0  0  0  0  0  0  0  0  0  0  0  0
  181.6040  177.3140  139.4920 C   0  0  0  0  0  2  0  0  0  0  0  0
  181.1030  176.3420  137.4280 O   0  0  0  0  0  0  0  0  0  0  0  0
  182.2670  178.0620  138.3260 C   0  0  1  0  0  3  0  0  0  0  0  0
  179.4910  174.2870  138.6040 C   0  0  0  0  0  0  0  0  0  0  0  0
  178.9330  173.4310  137.9620 C   0  0  0  0  0  3  0  0  0  0  0  0
  185.0990  174.4840  136.0960 C   0  0  0  0  0  2  0  0  0  0  0  0
  185.0310  172.9650  136.2330 C   0  0  0  0  0  2  0  0  0  0  0  0
  185.1160  172.2260  134.8900 C   0  0  2  0  0  3  0  0  0  0  0  0
  182.6930  171.7590  134.6250 C   0  0  0  0  0  2  0  0  0  0  0  0
  184.0650  171.1290  134.7890 C   0  0  0  0  0  3  0  0  0  0  0  0
  183.1150  171.2090  135.9700 C   0  0  0  0  0  2  0  0  0  0  0  0
  186.4840  171.6690  134.6280 C   0  0  0  0  0  3  0  0  0  0  0  0
  187.2100  171.1410  135.6120 C   0  0  0  0  0  2  0  0  0  0  0  0
  190.5810  175.8820  138.3160 C   0  0  0  0  0  2  0  0  0  0  0  0
  191.3110  175.6870  136.9980 C   0  0  0  0  0  2  0  0  0  0  0  0
  192.8110  175.8000  137.2050 C   0  0  0  0  0  2  0  0  0  0  0  0
  195.7290  171.1220  137.7520 C   0  0  0  0  0  1  0  0  0  0  0  0
  193.6620  173.6060  136.0690 S   0  0  0  0  0  0  0  0  0  0  0  0
  195.8770  172.6100  137.4920 C   0  0  1  0  0  0  0  0  0  0  0  0
  197.6820  173.2940  136.0040 C   0  0  1  0  0  3  0  0  0  0  0  0
  196.1810  175.1380  135.6520 O   0  0  0  0  0  1  0  0  0  0  0  0
  195.2230  173.3790  138.6520 C   0  0  0  0  0  2  0  0  0  0  0  0
  197.3610  172.9530  137.4470 C   0  0  0  0  0  2  0  0  0  0  0  0
  192.6890  172.4640  135.9930 O   0  0  0  0  0  0  0  0  0  0  0  0
  193.3590  174.4940  137.5400 N   0  0  0  0  0  0  0  0  0  0  0  0
  196.3790  173.7770  135.3820 C   0  0  2  0  0  3  0  0  0  0  0  0
  193.4820  174.4770  134.8550 O   0  0  0  0  0  0  0  0  0  0  0  0
  198.8080  174.3090  135.9190 C   0  0  0  0  0  1  0  0  0  0  0  0
  194.6250  174.7160  138.2260 C   0  0  0  0  0  2  0  0  0  0  0  0
  195.3290  172.9270  136.0900 C   0  0  2  0  0  3  0  0  0  0  0  0
  188.4420  177.2620  144.1440 C   0  0  0  0  0  2  0  0  0  0  0  0
  188.0900  178.0250  145.4200 C   0  0  2  0  0  3  0  0  0  0  0  0
  189.1570  177.3980  146.7620 P   0  0  0  0  0  0  0  0  0  0  0  0
  190.3960  176.4510  146.1060 O   0  0  0  0  0  0  0  0  0  0  0  0
  189.7630  178.5610  147.5130 O   0  0  0  0  0  1  0  0  0  0  0  0
  188.2550  176.4600  147.8410 O   0  0  0  0  0  1  0  0  0  0  0  0
  185.7760  177.3380  144.6280 C   0  0  0  0  0  1  0  0  0  0  0  0
  186.0050  179.1960  146.2150 C   0  0  0  0  0  1  0  0  0  0  0  0
  186.6030  177.8670  145.7890 C   0  0  0  0  0  3  0  0  0  0  0  0
  1  4  1  0  0  0  0
  1  3  2  0  0  0  0
  2  9  1  0  0  0  0
  3  6  1  0  0  0  0
  4 35  1  1  0  0  0
  4  2  1  0  0  0  0
  5 52  1  1  0  0  0
  6  9  2  0  0  0  0
  6  7  1  0  0  0  0
  7  5  1  0  0  0  0
  8  5  1  0  0  0  0
  9  8  1  0  0  0  0
 12 27  1  1  0  0  0
 12 15  1  0  0  0  0
 12 10  1  0  0  0  0
 13 17  2  0  0  0  0
 13 14  1  0  0  0  0
 14 16  2  0  0  0  0
 15 10  1  0  0  0  0
 15 17  1  0  0  0  0
 16 11  1  0  0  0  0
 17 18  1  0  0  0  0
 18  3  1  0  0  0  0
 18 11  1  0  0  0  0
 19 23  1  0  0  0  0
 19 24  1  0  0  0  0
 21 20  2  0  0  0  0
 21 22  1  0  0  0  0
 23 21  1  0  0  0  0
 24 14  1  1  0  0  0
 24 22  1  0  0  0  0
 25 20  1  0  0  0  0
 26 25  3  0  0  0  0
 27 28  1  0  0  0  0
 29 33  1  1  0  0  0
 29 28  1  0  0  0  0
 30 31  1  0  0  0  0
 30 32  1  0  0  0  0
 31 29  1  0  0  0  0
 31 32  1  0  0  0  0
 33 34  2  0  0  0  0
 36 37  1  0  0  0  0
 36 35  1  0  0  0  0
 37 46  1  0  0  0  0
 39 46  1  0  0  0  0
 40 38  1  1  0  0  0
 40 43  1  0  0  0  0
 41 49  1  1  0  0  0
 41 44  1  0  0  0  0
 44 40  1  0  0  0  0
 45 39  2  0  0  0  0
 46 50  1  0  0  0  0
 47 42  1  1  0  0  0
 47 41  1  0  0  0  0
 47 51  1  0  0  0  0
 48 39  2  0  0  0  0
 50 43  1  0  0  0  0
 51 39  1  1  0  0  0
 51 40  1  0  0  0  0
 53 52  1  6  0  0  0
 53 60  1  0  0  0  0
 53 54  1  0  0  0  0
 54 56  1  0  0  0  0
 54 57  1  0  0  0  0
 55 54  2  0  0  0  0
 58 60  1  0  0  0  0
 60 59  1  0  0  0  0
M  END
>  <MODEL>
5

>  <REMARK>
 VINA RESULT:      -6.4      1.849      2.523
  Name = 
  16 active torsions:
  status: ('A' for Active; 'I' for Inactive)
    1  A    between atoms: P_3  and  C_59
    2  A    between atoms: C_5  and  C_49
    3  A    between atoms: C_6  and  C_15
    4  A    between atoms: C_6  and  C_49
    5  A    between atoms: C_9  and  N_45
    6  A    between atoms: C_13  and  N_36
    7  A    between atoms: C_13  and  C_38
    8  A    between atoms: C_15  and  C_27
    9  A    between atoms: C_17  and  C_33
   10  A    between atoms: C_17  and  C_38
   11  A    between atoms: C_21  and  C_34
   12  A    between atoms: C_30  and  C_49
   13  A    between atoms: C_31  and  C_51
   14  A    between atoms: C_35  and  C_57
   15  A    between atoms: C_46  and  C_59
   16  A    between atoms: C_57  and  C_59
                            x       y       z     vdW  Elec       q    Type
                         _______ _______ _______ _____ _____    ______ ____

>  <TORSDO>
F 16

$$$$
=
 OpenBabel11032421303D

 60 67  0  0  1  0  0  0  0  0999 V2000
  186.7440  177.8650  139.7870 C   0  0  0  0  0  3  0  0  0  0  0  0
  185.3410  177.8820  141.7960 O   0  0  0  0  0  0  0  0  0  0  0  0
  187.8140  177.5610  140.5330 C   0  0  0  0  0  0  0  0  0  0  0  0
  185.4160  178.2510  140.4100 C   0  0  1  0  0  3  0  0  0  0  0  0
  187.9760  177.1150  144.3120 C   0  0  2  0  0  3  0  0  0  0  0  0
  187.6680  177.5200  142.0020 C   0  0  0  0  0  0  0  0  0  0  0  0
  188.7410  177.2880  142.9980 C   0  0  0  0  0  2  0  0  0  0  0  0
  186.5180  177.4940  144.0280 C   0  0  0  0  0  2  0  0  0  0  0  0
  186.4890  177.6460  142.5590 C   0  0  0  0  0  0  0  0  0  0  0  0
  186.9350  176.5880  137.0150 O   0  0  0  0  0  0  0  0  0  0  0  0
  190.2890  177.5000  140.6710 C   0  0  0  0  0  2  0  0  0  0  0  0
  187.3490  175.3650  136.9020 C   0  0  2  0  0  3  0  0  0  0  0  0
  190.2600  176.3490  138.0650 N   0  0  0  0  0  0  0  0  0  0  0  0
  191.5040  176.7660  138.6380 C   0  0  0  0  0  0  0  0  0  0  0  0
  187.9160  176.2200  137.9500 N   0  0  0  0  0  0  0  0  0  0  0  0
  191.5290  177.3670  139.8340 C   0  0  0  0  0  3  0  0  0  0  0  0
  189.1170  176.5670  138.6390 C   0  0  0  0  0  0  0  0  0  0  0  0
  189.0640  177.2630  139.9000 N   0  0  0  0  0  0  0  0  0  0  0  0
  193.9360  176.5320  138.6740 N   0  0  0  0  0  2  0  0  0  0  0  0
  194.2890  173.5500  136.7400 C   0  0  0  0  0  3  0  0  0  0  0  0
  193.8900  174.7010  137.2740 C   0  0  0  0  0  0  0  0  0  0  0  0
  192.6940  175.4400  136.8650 C   0  0  0  0  0  2  0  0  0  0  0  0
  194.5420  175.3560  138.2910 O   0  0  0  0  0  0  0  0  0  0  0  0
  192.7480  176.6490  137.8110 C   0  0  1  0  0  3  0  0  0  0  0  0
  195.4750  172.8770  137.1990 C   0  0  0  0  0  0  0  0  0  0  0  0
  196.4710  172.3140  137.5840 C   0  0  0  0  0  3  0  0  0  0  0  0
  188.3240  175.2540  135.7420 C   0  0  0  0  0  2  0  0  0  0  0  0
  187.9280  174.0900  134.8390 C   0  0  0  0  0  2  0  0  0  0  0  0
  188.7230  172.8060  135.1120 C   0  0  2  0  0  3  0  0  0  0  0  0
  187.4430  170.6870  135.2990 C   0  0  0  0  0  2  0  0  0  0  0  0
  187.9800  171.8820  136.0680 C   0  0  0  0  0  3  0  0  0  0  0  0
  186.5120  171.8130  135.6890 C   0  0  0  0  0  2  0  0  0  0  0  0
  190.1060  173.0850  135.6210 C   0  0  0  0  0  3  0  0  0  0  0  0
  191.1380  172.3270  135.2540 C   0  0  0  0  0  2  0  0  0  0  0  0
  185.2110  179.7540  140.2770 C   0  0  0  0  0  2  0  0  0  0  0  0
  183.9590  180.0530  139.4690 C   0  0  0  0  0  2  0  0  0  0  0  0
  183.6430  178.8950  138.5400 C   0  0  0  0  0  2  0  0  0  0  0  0
  178.9310  176.0180  139.0020 C   0  0  0  0  0  1  0  0  0  0  0  0
  181.3990  178.1750  137.4100 S   0  0  0  0  0  0  0  0  0  0  0  0
  180.4060  175.8680  138.6830 C   0  0  1  0  0  0  0  0  0  0  0  0
  181.0100  174.1780  137.0330 C   0  0  1  0  0  3  0  0  0  0  0  0
  182.8700  175.6720  136.7430 O   0  0  0  0  0  1  0  0  0  0  0  0
  181.2230  176.4130  139.8660 C   0  0  0  0  0  2  0  0  0  0  0  0
  180.7200  174.3870  138.5070 C   0  0  0  0  0  2  0  0  0  0  0  0
  180.2740  179.1690  137.4500 O   0  0  0  0  0  0  0  0  0  0  0  0
  182.3380  178.3430  138.8710 N   0  0  0  0  0  0  0  0  0  0  0  0
  181.4980  175.5190  136.5030 C   0  0  2  0  0  3  0  0  0  0  0  0
  182.2350  178.4370  136.1870 O   0  0  0  0  0  0  0  0  0  0  0  0
  182.0010  173.0470  136.8250 C   0  0  0  0  0  1  0  0  0  0  0  0
  182.5570  177.0220  139.4460 C   0  0  0  0  0  2  0  0  0  0  0  0
  180.6900  176.5230  137.3200 C   0  0  2  0  0  3  0  0  0  0  0  0
  188.5710  178.0090  145.3870 C   0  0  0  0  0  2  0  0  0  0  0  0
  189.1610  177.1830  146.5290 C   0  0  2  0  0  3  0  0  0  0  0  0
  188.3460  177.7030  148.0770 P   0  0  0  0  0  0  0  0  0  0  0  0
  186.9750  178.6270  147.7150 O   0  0  0  0  0  0  0  0  0  0  0  0
  187.9310  176.4840  148.8670 O   0  0  0  0  0  1  0  0  0  0  0  0
  189.4060  178.6290  149.0160 O   0  0  0  0  0  1  0  0  0  0  0  0
  191.3460  177.4720  145.2660 C   0  0  0  0  0  1  0  0  0  0  0  0
  191.3200  176.1800  147.3530 C   0  0  0  0  0  1  0  0  0  0  0  0
  190.6870  177.3560  146.6320 C   0  0  0  0  0  3  0  0  0  0  0  0
  1  4  1  0  0  0  0
  1  3  2  0  0  0  0
  2  9  1  0  0  0  0
  3  6  1  0  0  0  0
  4 35  1  1  0  0  0
  4  2  1  0  0  0  0
  5 52  1  1  0  0  0
  6  9  2  0  0  0  0
  6  7  1  0  0  0  0
  7  5  1  0  0  0  0
  8  5  1  0  0  0  0
  9  8  1  0  0  0  0
 10 15  1  0  0  0  0
 12 27  1  6  0  0  0
 12 10  1  0  0  0  0
 12 15  1  0  0  0  0
 13 14  1  0  0  0  0
 13 17  2  0  0  0  0
 14 16  2  0  0  0  0
 15 17  1  0  0  0  0
 16 11  1  0  0  0  0
 17 18  1  0  0  0  0
 18  3  1  0  0  0  0
 18 11  1  0  0  0  0
 20 25  1  0  0  0  0
 20 21  2  0  0  0  0
 21 23  1  0  0  0  0
 22 21  1  0  0  0  0
 22 24  1  0  0  0  0
 23 19  1  0  0  0  0
 24 14  1  1  0  0  0
 24 19  1  0  0  0  0
 25 26  3  0  0  0  0
 28 27  1  0  0  0  0
 29 28  1  1  0  0  0
 29 33  1  0  0  0  0
 29 31  1  0  0  0  0
 30 32  1  0  0  0  0
 30 31  1  0  0  0  0
 32 31  1  0  0  0  0
 34 33  2  0  0  0  0
 36 35  1  0  0  0  0
 37 46  1  0  0  0  0
 37 36  1  0  0  0  0
 39 45  2  0  0  0  0
 39 46  1  0  0  0  0
 40 38  1  1  0  0  0
 40 43  1  0  0  0  0
 41 49  1  1  0  0  0
 41 44  1  0  0  0  0
 44 40  1  0  0  0  0
 46 50  1  0  0  0  0
 47 42  1  1  0  0  0
 47 41  1  0  0  0  0
 47 51  1  0  0  0  0
 48 39  2  0  0  0  0
 50 43  1  0  0  0  0
 51 39  1  1  0  0  0
 51 40  1  0  0  0  0
 53 52  1  6  0  0  0
 53 60  1  0  0  0  0
 53 54  1  0  0  0  0
 54 56  1  0  0  0  0
 54 57  1  0  0  0  0
 55 54  2  0  0  0  0
 58 60  1  0  0  0  0
 60 59  1  0  0  0  0
M  END
>  <MODEL>
6

>  <REMARK>
 VINA RESULT:      -5.9      2.891      9.432
  Name = 
  16 active torsions:
  status: ('A' for Active; 'I' for Inactive)
    1  A    between atoms: P_3  and  C_59
    2  A    between atoms: C_5  and  C_49
    3  A    between atoms: C_6  and  C_15
    4  A    between atoms: C_6  and  C_49
    5  A    between atoms: C_9  and  N_45
    6  A    between atoms: C_13  and  N_36
    7  A    between atoms: C_13  and  C_38
    8  A    between atoms: C_15  and  C_27
    9  A    between atoms: C_17  and  C_33
   10  A    between atoms: C_17  and  C_38
   11  A    between atoms: C_21  and  C_34
   12  A    between atoms: C_30  and  C_49
   13  A    between atoms: C_31  and  C_51
   14  A    between atoms: C_35  and  C_57
   15  A    between atoms: C_46  and  C_59
   16  A    between atoms: C_57  and  C_59
                            x       y       z     vdW  Elec       q    Type
                         _______ _______ _______ _____ _____    ______ ____

>  <TORSDO>
F 16

$$$$
=
 OpenBabel11032421303D

 60 67  0  0  1  0  0  0  0  0999 V2000
  190.9130  175.8910  136.9270 C   0  0  0  0  0  3  0  0  0  0  0  0
  192.1890  177.1220  138.6190 O   0  0  0  0  0  0  0  0  0  0  0  0
  189.8540  175.8580  137.7470 C   0  0  0  0  0  0  0  0  0  0  0  0
  192.2720  176.3760  137.3940 C   0  0  1  0  0  3  0  0  0  0  0  0
  189.5880  177.2520  141.2810 C   0  0  2  0  0  3  0  0  0  0  0  0
  189.9980  176.3880  139.1170 C   0  0  0  0  0  0  0  0  0  0  0  0
  188.9780  176.3650  140.1930 C   0  0  0  0  0  2  0  0  0  0  0  0
  191.0340  177.5400  140.8570 C   0  0  0  0  0  2  0  0  0  0  0  0
  191.0960  177.0000  139.4840 C   0  0  0  0  0  0  0  0  0  0  0  0
  187.4690  178.7580  137.8190 O   0  0  0  0  0  0  0  0  0  0  0  0
  188.5860  173.9420  136.8130 C   0  0  0  0  0  2  0  0  0  0  0  0
  186.5430  178.3980  138.6520 C   0  0  2  0  0  3  0  0  0  0  0  0
  186.2650  175.5860  136.9750 N   0  0  0  0  0  0  0  0  0  0  0  0
  186.1950  174.3340  136.2850 C   0  0  0  0  0  0  0  0  0  0  0  0
  187.3800  177.3710  138.0230 N   0  0  0  0  0  0  0  0  0  0  0  0
  187.2910  173.5780  136.1440 C   0  0  0  0  0  3  0  0  0  0  0  0
  187.3750  176.0650  137.4470 C   0  0  0  0  0  0  0  0  0  0  0  0
  188.6050  175.3330  137.2780 N   0  0  0  0  0  0  0  0  0  0  0  0
  184.5010  172.5990  135.9810 N   0  0  0  0  0  2  0  0  0  0  0  0
  181.5880  174.4140  136.9680 C   0  0  0  0  0  3  0  0  0  0  0  0
  182.7780  174.0360  136.5100 C   0  0  0  0  0  0  0  0  0  0  0  0
  183.7800  174.9410  135.9450 C   0  0  0  0  0  2  0  0  0  0  0  0
  183.2370  172.7410  136.5090 O   0  0  0  0  0  0  0  0  0  0  0  0
  184.9130  173.9620  135.6040 C   0  0  1  0  0  3  0  0  0  0  0  0
  180.6550  173.4660  137.5170 C   0  0  0  0  0  0  0  0  0  0  0  0
  179.8710  172.6720  137.9770 C   0  0  0  0  0  3  0  0  0  0  0  0
  185.1870  178.4470  137.9720 C   0  0  0  0  0  2  0  0  0  0  0  0
  184.1580  179.0770  138.9070 C   0  0  0  0  0  2  0  0  0  0  0  0
  182.8690  178.2560  139.0400 C   0  0  2  0  0  3  0  0  0  0  0  0
  181.8530  179.4500  137.1150 C   0  0  0  0  0  2  0  0  0  0  0  0
  181.6540  179.0420  138.5650 C   0  0  0  0  0  3  0  0  0  0  0  0
  182.0580  180.4640  138.2190 C   0  0  0  0  0  2  0  0  0  0  0  0
  182.6530  177.7480  140.4340 C   0  0  0  0  0  3  0  0  0  0  0  0
  182.3620  178.5820  141.4310 C   0  0  0  0  0  2  0  0  0  0  0  0
  193.1960  175.1830  137.5930 C   0  0  0  0  0  2  0  0  0  0  0  0
  194.5740  175.6420  138.0410 C   0  0  0  0  0  2  0  0  0  0  0  0
  195.6420  174.7200  137.4810 C   0  0  0  0  0  2  0  0  0  0  0  0
  194.3570  169.7640  135.3660 C   0  0  0  0  0  1  0  0  0  0  0  0
  195.2920  173.2850  135.3260 S   0  0  0  0  0  0  0  0  0  0  0  0
  195.5010  170.5530  135.9730 C   0  0  1  0  0  0  0  0  0  0  0  0
  197.7370  170.0830  135.1210 C   0  0  1  0  0  3  0  0  0  0  0  0
  198.0740  172.3520  135.8400 O   0  0  0  0  0  1  0  0  0  0  0  0
  195.0710  171.0550  137.3610 C   0  0  0  0  0  2  0  0  0  0  0  0
  196.7020  169.6280  136.1330 C   0  0  0  0  0  2  0  0  0  0  0  0
  193.9720  173.4300  134.6250 O   0  0  0  0  0  0  0  0  0  0  0  0
  195.0330  173.4740  137.0410 N   0  0  0  0  0  0  0  0  0  0  0  0
  197.4580  171.5580  134.8640 C   0  0  2  0  0  3  0  0  0  0  0  0
  196.2390  174.3270  134.7960 O   0  0  0  0  0  0  0  0  0  0  0  0
  199.1450  169.8110  135.6180 C   0  0  0  0  0  1  0  0  0  0  0  0
  195.7060  172.3880  137.7420 C   0  0  0  0  0  2  0  0  0  0  0  0
  195.9390  171.6420  134.9770 C   0  0  2  0  0  3  0  0  0  0  0  0
  189.5470  176.5400  142.6220 C   0  0  0  0  0  2  0  0  0  0  0  0
  189.5230  177.5390  143.7770 C   0  0  2  0  0  3  0  0  0  0  0  0
  191.1010  177.3890  144.6830 P   0  0  0  0  0  0  0  0  0  0  0  0
  192.0460  176.1740  143.9800 O   0  0  0  0  0  0  0  0  0  0  0  0
  191.8490  178.7010  144.6210 O   0  0  0  0  0  1  0  0  0  0  0  0
  190.8140  176.9990  146.3040 O   0  0  0  0  0  1  0  0  0  0  0  0
  186.9960  177.5650  144.0400 C   0  0  0  0  0  1  0  0  0  0  0  0
  188.4130  178.1900  145.9440 C   0  0  0  0  0  1  0  0  0  0  0  0
  188.3300  177.2960  144.7200 C   0  0  0  0  0  3  0  0  0  0  0  0
  1  4  1  0  0  0  0
  1  3  2  0  0  0  0
  2  9  1  0  0  0  0
  3  6  1  0  0  0  0
  4 35  1  1  0  0  0
  4  2  1  0  0  0  0
  5 52  1  1  0  0  0
  6  9  2  0  0  0  0
  6  7  1  0  0  0  0
  7  5  1  0  0  0  0
  8  5  1  0  0  0  0
  9  8  1  0  0  0  0
 10 15  1  0  0  0  0
 10 12  1  0  0  0  0
 11 18  1  0  0  0  0
 12 27  1  6  0  0  0
 13 17  2  0  0  0  0
 14 13  1  0  0  0  0
 15 12  1  0  0  0  0
 16 14  2  0  0  0  0
 16 11  1  0  0  0  0
 17 15  1  0  0  0  0
 18 17  1  0  0  0  0
 18  3  1  0  0  0  0
 19 23  1  0  0  0  0
 20 25  1  0  0  0  0
 21 20  2  0  0  0  0
 22 21  1  0  0  0  0
 23 21  1  0  0  0  0
 24 22  1  0  0  0  0
 24 19  1  0  0  0  0
 24 14  1  1  0  0  0
 25 26  3  0  0  0  0
 27 28  1  0  0  0  0
 29 28  1  1  0  0  0
 29 33  1  0  0  0  0
 30 32  1  0  0  0  0
 30 31  1  0  0  0  0
 31 29  1  0  0  0  0
 32 31  1  0  0  0  0
 33 34  2  0  0  0  0
 35 36  1  0  0  0  0
 37 36  1  0  0  0  0
 39 46  1  0  0  0  0
 40 38  1  6  0  0  0
 40 44  1  0  0  0  0
 40 43  1  0  0  0  0
 41 49  1  1  0  0  0
 41 44  1  0  0  0  0
 43 50  1  0  0  0  0
 45 39  2  0  0  0  0
 46 37  1  0  0  0  0
 46 50  1  0  0  0  0
 47 51  1  0  0  0  0
 47 41  1  0  0  0  0
 47 42  1  1  0  0  0
 48 39  2  0  0  0  0
 51 39  1  1  0  0  0
 51 40  1  0  0  0  0
 53 52  1  6  0  0  0
 53 54  1  0  0  0  0
 53 60  1  0  0  0  0
 54 57  1  0  0  0  0
 55 54  2  0  0  0  0
 56 54  1  0  0  0  0
 58 60  1  0  0  0  0
 60 59  1  0  0  0  0
M  END
>  <MODEL>
7

>  <REMARK>
 VINA RESULT:      -5.8      2.158      4.331
  Name = 
  16 active torsions:
  status: ('A' for Active; 'I' for Inactive)
    1  A    between atoms: P_3  and  C_59
    2  A    between atoms: C_5  and  C_49
    3  A    between atoms: C_6  and  C_15
    4  A    between atoms: C_6  and  C_49
    5  A    between atoms: C_9  and  N_45
    6  A    between atoms: C_13  and  N_36
    7  A    between atoms: C_13  and  C_38
    8  A    between atoms: C_15  and  C_27
    9  A    between atoms: C_17  and  C_33
   10  A    between atoms: C_17  and  C_38
   11  A    between atoms: C_21  and  C_34
   12  A    between atoms: C_30  and  C_49
   13  A    between atoms: C_31  and  C_51
   14  A    between atoms: C_35  and  C_57
   15  A    between atoms: C_46  and  C_59
   16  A    between atoms: C_57  and  C_59
                            x       y       z     vdW  Elec       q    Type
                         _______ _______ _______ _____ _____    ______ ____

>  <TORSDO>
F 16

$$$$
=
 OpenBabel11032421303D

 60 67  0  0  1  0  0  0  0  0999 V2000
  188.9860  176.8910  136.4560 C   0  0  0  0  0  3  0  0  0  0  0  0
  191.0790  177.0320  137.7240 O   0  0  0  0  0  0  0  0  0  0  0  0
  188.2910  177.1550  137.5700 C   0  0  0  0  0  0  0  0  0  0  0  0
  190.4760  176.6110  136.4900 C   0  0  1  0  0  3  0  0  0  0  0  0
  189.6380  177.7230  141.0870 C   0  0  2  0  0  3  0  0  0  0  0  0
  189.0140  177.2570  138.8530 C   0  0  0  0  0  0  0  0  0  0  0  0
  188.4220  177.4560  140.1970 C   0  0  0  0  0  2  0  0  0  0  0  0
  190.8800  177.4240  140.2380 C   0  0  0  0  0  2  0  0  0  0  0  0
  190.3230  177.2230  138.8850 C   0  0  0  0  0  0  0  0  0  0  0  0
  186.9500  174.0770  135.8890 O   0  0  0  0  0  0  0  0  0  0  0  0
  186.3190  178.5470  138.1400 C   0  0  0  0  0  2  0  0  0  0  0  0
  186.3950  174.5140  134.8020 C   0  0  2  0  0  3  0  0  0  0  0  0
  184.7610  176.6980  136.6350 N   0  0  0  0  0  0  0  0  0  0  0  0
  184.1040  177.6930  137.4260 C   0  0  0  0  0  0  0  0  0  0  0  0
  186.6130  175.4400  135.9190 N   0  0  0  0  0  0  0  0  0  0  0  0
  184.8180  178.5290  138.1890 C   0  0  0  0  0  3  0  0  0  0  0  0
  186.0470  176.5270  136.6510 C   0  0  0  0  0  0  0  0  0  0  0  0
  186.8730  177.3520  137.4960 N   0  0  0  0  0  0  0  0  0  0  0  0
  182.1210  178.7120  138.4270 N   0  0  0  0  0  2  0  0  0  0  0  0
  180.3850  179.6990  135.4650 C   0  0  0  0  0  3  0  0  0  0  0  0
  181.1470  179.0950  136.3720 C   0  0  0  0  0  0  0  0  0  0  0  0
  181.9710  177.9120  136.1150 C   0  0  0  0  0  2  0  0  0  0  0  0
  181.2730  179.5000  137.6790 O   0  0  0  0  0  0  0  0  0  0  0  0
  182.6060  177.6810  137.4940 C   0  0  1  0  0  3  0  0  0  0  0  0
  179.6060  180.8650  135.7910 C   0  0  0  0  0  0  0  0  0  0  0  0
  178.9500  181.8410  136.0640 C   0  0  0  0  0  3  0  0  0  0  0  0
  184.9380  174.0910  134.7600 C   0  0  0  0  0  2  0  0  0  0  0  0
  184.7900  172.6770  135.3150 C   0  0  0  0  0  2  0  0  0  0  0  0
  183.3370  172.2900  135.6230 C   0  0  2  0  0  3  0  0  0  0  0  0
  181.1830  172.9920  136.6390 C   0  0  0  0  0  2  0  0  0  0  0  0
  182.6590  173.3270  136.5090 C   0  0  0  0  0  3  0  0  0  0  0  0
  181.6260  174.1000  135.7080 C   0  0  0  0  0  2  0  0  0  0  0  0
  183.2240  170.9250  136.2320 C   0  0  0  0  0  3  0  0  0  0  0  0
  183.8820  169.8870  135.7180 C   0  0  0  0  0  2  0  0  0  0  0  0
  190.7160  175.1200  136.2960 C   0  0  0  0  0  2  0  0  0  0  0  0
  191.1790  174.8320  134.8770 C   0  0  0  0  0  2  0  0  0  0  0  0
  192.6730  175.0710  134.7520 C   0  0  0  0  0  2  0  0  0  0  0  0
  195.8990  174.0870  139.1470 C   0  0  0  0  0  1  0  0  0  0  0  0
  193.7370  173.2780  136.3280 S   0  0  0  0  0  0  0  0  0  0  0  0
  195.9490  174.3970  137.6630 C   0  0  1  0  0  0  0  0  0  0  0  0
  197.7680  173.3930  136.3880 C   0  0  1  0  0  3  0  0  0  0  0  0
  196.1540  173.6290  134.6230 O   0  0  0  0  0  1  0  0  0  0  0  0
  195.1850  175.7070  137.4080 C   0  0  0  0  0  2  0  0  0  0  0  0
  197.4050  174.5860  137.2510 C   0  0  0  0  0  2  0  0  0  0  0  0
  192.8560  172.7220  137.4100 O   0  0  0  0  0  0  0  0  0  0  0  0
  193.2990  174.9460  136.0600 N   0  0  0  0  0  0  0  0  0  0  0  0
  196.4640  172.8980  135.7770 C   0  0  2  0  0  3  0  0  0  0  0  0
  193.5520  172.4550  135.0820 O   0  0  0  0  0  0  0  0  0  0  0  0
  198.8180  173.7650  135.3560 C   0  0  0  0  0  1  0  0  0  0  0  0
  194.5120  175.7540  136.0410 C   0  0  0  0  0  2  0  0  0  0  0  0
  195.4470  173.1710  136.8810 C   0  0  2  0  0  3  0  0  0  0  0  0
  189.5930  176.8320  142.3160 C   0  0  0  0  0  2  0  0  0  0  0  0
  189.2850  177.6420  143.5750 C   0  0  2  0  0  3  0  0  0  0  0  0
  190.7610  177.5950  144.6480 P   0  0  0  0  0  0  0  0  0  0  0  0
  190.2910  177.2940  146.2450 O   0  0  0  0  0  1  0  0  0  0  0  0
  191.6900  176.4970  144.1860 O   0  0  0  0  0  0  0  0  0  0  0  0
  191.5830  179.0720  144.5810 O   0  0  0  0  0  1  0  0  0  0  0  0
  186.8490  176.9400  143.4020 C   0  0  0  0  0  1  0  0  0  0  0  0
  187.6510  178.0200  145.4550 C   0  0  0  0  0  1  0  0  0  0  0  0
  188.0520  177.0970  144.3190 C   0  0  0  0  0  3  0  0  0  0  0  0
  1  4  1  0  0  0  0
  1  3  2  0  0  0  0
  2  9  1  0  0  0  0
  3  6  1  0  0  0  0
  4 35  1  1  0  0  0
  4  2  1  0  0  0  0
  5 52  1  1  0  0  0
  6  9  2  0  0  0  0
  6  7  1  0  0  0  0
  7  5  1  0  0  0  0
  8  5  1  0  0  0  0
  9  8  1  0  0  0  0
 10 15  1  0  0  0  0
 11 16  1  0  0  0  0
 12 27  1  1  0  0  0
 12 10  1  0  0  0  0
 12 15  1  0  0  0  0
 13 17  2  0  0  0  0
 13 14  1  0  0  0  0
 14 16  2  0  0  0  0
 15 17  1  0  0  0  0
 17 18  1  0  0  0  0
 18  3  1  0  0  0  0
 18 11  1  0  0  0  0
 20 25  1  0  0  0  0
 20 21  2  0  0  0  0
 21 23  1  0  0  0  0
 22 21  1  0  0  0  0
 22 24  1  0  0  0  0
 23 19  1  0  0  0  0
 24 14  1  6  0  0  0
 24 19  1  0  0  0  0
 25 26  3  0  0  0  0
 27 28  1  0  0  0  0
 29 28  1  1  0  0  0
 29 33  1  0  0  0  0
 29 31  1  0  0  0  0
 31 30  1  0  0  0  0
 32 31  1  0  0  0  0
 32 30  1  0  0  0  0
 34 33  2  0  0  0  0
 36 35  1  0  0  0  0
 37 36  1  0  0  0  0
 37 46  1  0  0  0  0
 39 45  2  0  0  0  0
 40 38  1  1  0  0  0
 41 49  1  6  0  0  0
 41 44  1  0  0  0  0
 43 40  1  0  0  0  0
 44 40  1  0  0  0  0
 46 39  1  0  0  0  0
 47 42  1  6  0  0  0
 47 41  1  0  0  0  0
 47 51  1  0  0  0  0
 48 39  2  0  0  0  0
 50 46  1  0  0  0  0
 50 43  1  0  0  0  0
 51 39  1  6  0  0  0
 51 40  1  0  0  0  0
 53 52  1  6  0  0  0
 53 60  1  0  0  0  0
 53 54  1  0  0  0  0
 54 55  1  0  0  0  0
 56 54  2  0  0  0  0
 57 54  1  0  0  0  0
 58 60  1  0  0  0  0
 60 59  1  0  0  0  0
M  END
>  <MODEL>
8

>  <REMARK>
 VINA RESULT:      -5.6      1.815      2.798
  Name = 
  16 active torsions:
  status: ('A' for Active; 'I' for Inactive)
    1  A    between atoms: P_3  and  C_59
    2  A    between atoms: C_5  and  C_49
    3  A    between atoms: C_6  and  C_15
    4  A    between atoms: C_6  and  C_49
    5  A    between atoms: C_9  and  N_45
    6  A    between atoms: C_13  and  N_36
    7  A    between atoms: C_13  and  C_38
    8  A    between atoms: C_15  and  C_27
    9  A    between atoms: C_17  and  C_33
   10  A    between atoms: C_17  and  C_38
   11  A    between atoms: C_21  and  C_34
   12  A    between atoms: C_30  and  C_49
   13  A    between atoms: C_31  and  C_51
   14  A    between atoms: C_35  and  C_57
   15  A    between atoms: C_46  and  C_59
   16  A    between atoms: C_57  and  C_59
                            x       y       z     vdW  Elec       q    Type
                         _______ _______ _______ _____ _____    ______ ____

>  <TORSDO>
F 16

$$$$
=
 OpenBabel11032421303D

 60 67  0  0  1  0  0  0  0  0999 V2000
  189.6520  177.6100  138.6580 C   0  0  0  0  0  3  0  0  0  0  0  0
  191.6140  177.4620  140.1190 O   0  0  0  0  0  0  0  0  0  0  0  0
  188.8750  177.8500  139.7220 C   0  0  0  0  0  0  0  0  0  0  0  0
  191.1030  177.1930  138.8040 C   0  0  1  0  0  3  0  0  0  0  0  0
  189.9100  178.0200  143.3830 C   0  0  2  0  0  3  0  0  0  0  0  0
  189.4730  177.7860  141.0700 C   0  0  0  0  0  0  0  0  0  0  0  0
  188.7700  177.9340  142.3660 C   0  0  0  0  0  2  0  0  0  0  0  0
  191.2010  177.6760  142.6290 C   0  0  0  0  0  2  0  0  0  0  0  0
  190.7660  177.6310  141.2190 C   0  0  0  0  0  0  0  0  0  0  0  0
  187.9620  176.4320  136.3670 O   0  0  0  0  0  0  0  0  0  0  0  0
  186.7940  178.8320  140.6480 C   0  0  0  0  0  2  0  0  0  0  0  0
  187.6130  177.4620  135.6620 C   0  0  2  0  0  3  0  0  0  0  0  0
  185.6020  178.3320  138.1100 N   0  0  0  0  0  0  0  0  0  0  0  0
  184.7790  178.7470  139.2060 C   0  0  0  0  0  0  0  0  0  0  0  0
  187.5890  177.5540  137.1250 N   0  0  0  0  0  0  0  0  0  0  0  0
  185.3120  178.9240  140.4210 C   0  0  0  0  0  3  0  0  0  0  0  0
  186.8650  178.0690  138.2430 C   0  0  0  0  0  0  0  0  0  0  0  0
  187.4920  178.1800  139.5360 N   0  0  0  0  0  0  0  0  0  0  0  0
  182.8800  177.9770  137.8740 N   0  0  0  0  0  2  0  0  0  0  0  0
  180.8260  176.6280  140.4660 C   0  0  0  0  0  3  0  0  0  0  0  0
  181.6930  177.3290  139.7410 C   0  0  0  0  0  0  0  0  0  0  0  0
  182.5190  178.4230  140.2560 C   0  0  0  0  0  2  0  0  0  0  0  0
  181.9400  177.1220  138.4050 O   0  0  0  0  0  0  0  0  0  0  0  0
  183.2970  178.8330  138.9970 C   0  0  1  0  0  3  0  0  0  0  0  0
  180.0530  175.5600  139.8900 C   0  0  0  0  0  0  0  0  0  0  0  0
  179.4040  174.6630  139.4080 C   0  0  0  0  0  3  0  0  0  0  0  0
  186.2020  177.2730  135.1330 C   0  0  0  0  0  2  0  0  0  0  0  0
  185.7490  175.8340  135.3620 C   0  0  0  0  0  2  0  0  0  0  0  0
  184.2810  175.7170  135.7940 C   0  0  2  0  0  3  0  0  0  0  0  0
  183.1980  174.4090  137.6050 C   0  0  0  0  0  2  0  0  0  0  0  0
  183.9550  174.3150  136.2910 C   0  0  0  0  0  3  0  0  0  0  0  0
  184.6680  174.0510  137.6050 C   0  0  0  0  0  2  0  0  0  0  0  0
  183.3290  176.1230  134.7080 C   0  0  0  0  0  3  0  0  0  0  0  0
  182.1550  176.6830  134.9980 C   0  0  0  0  0  2  0  0  0  0  0  0
  191.2360  175.7060  138.5060 C   0  0  0  0  0  2  0  0  0  0  0  0
  192.3920  175.4530  137.5530 C   0  0  0  0  0  2  0  0  0  0  0  0
  192.9960  174.0840  137.8120 C   0  0  0  0  0  2  0  0  0  0  0  0
  197.4910  173.4210  134.6420 C   0  0  0  0  0  1  0  0  0  0  0  0
  194.8630  175.2380  136.3940 S   0  0  0  0  0  0  0  0  0  0  0  0
  197.0350  173.4730  136.0880 C   0  0  1  0  0  0  0  0  0  0  0  0
  198.5920  174.4310  137.7010 C   0  0  1  0  0  3  0  0  0  0  0  0
  196.5290  174.9030  138.8400 O   0  0  0  0  0  1  0  0  0  0  0  0
  195.9430  172.4120  136.2980 C   0  0  0  0  0  2  0  0  0  0  0  0
  198.2220  173.1450  136.9880 C   0  0  0  0  0  2  0  0  0  0  0  0
  194.4900  175.6590  135.0010 O   0  0  0  0  0  0  0  0  0  0  0  0
  193.9840  173.7830  136.7870 N   0  0  0  0  0  0  0  0  0  0  0  0
  197.3240  175.2720  137.7460 C   0  0  2  0  0  3  0  0  0  0  0  0
  194.5270  176.3560  137.3440 O   0  0  0  0  0  0  0  0  0  0  0  0
  199.1800  174.1470  139.0720 C   0  0  0  0  0  1  0  0  0  0  0  0
  194.9120  172.8090  137.3490 C   0  0  0  0  0  2  0  0  0  0  0  0
  196.6340  174.9180  136.4320 C   0  0  2  0  0  3  0  0  0  0  0  0
  189.6710  177.0450  144.5230 C   0  0  0  0  0  2  0  0  0  0  0  0
  188.9990  177.7360  145.7090 C   0  0  2  0  0  3  0  0  0  0  0  0
  189.8570  177.2020  147.2290 P   0  0  0  0  0  0  0  0  0  0  0  0
  191.5040  176.9910  146.9070 O   0  0  0  0  0  0  0  0  0  0  0  0
  189.6890  178.2530  148.3020 O   0  0  0  0  0  1  0  0  0  0  0  0
  189.2100  175.7420  147.7870 O   0  0  0  0  0  1  0  0  0  0  0  0
  186.8240  177.4610  144.4240 C   0  0  0  0  0  1  0  0  0  0  0  0
  186.7740  178.3820  146.6990 C   0  0  0  0  0  1  0  0  0  0  0  0
  187.4970  177.4070  145.7870 C   0  0  0  0  0  3  0  0  0  0  0  0
  1  4  1  0  0  0  0
  1  3  2  0  0  0  0
  2  9  1  0  0  0  0
  3  6  1  0  0  0  0
  4 35  1  1  0  0  0
  4  2  1  0  0  0  0
  5 52  1  1  0  0  0
  6  9  2  0  0  0  0
  6  7  1  0  0  0  0
  7  5  1  0  0  0  0
  8  5  1  0  0  0  0
  9  8  1  0  0  0  0
 10 15  1  0  0  0  0
 12 27  1  1  0  0  0
 12 10  1  0  0  0  0
 12 15  1  0  0  0  0
 13 17  2  0  0  0  0
 13 14  1  0  0  0  0
 14 16  2  0  0  0  0
 15 17  1  0  0  0  0
 16 11  1  0  0  0  0
 17 18  1  0  0  0  0
 18  3  1  0  0  0  0
 18 11  1  0  0  0  0
 19 23  1  0  0  0  0
 19 24  1  0  0  0  0
 21 22  1  0  0  0  0
 21 20  2  0  0  0  0
 23 21  1  0  0  0  0
 24 14  1  1  0  0  0
 24 22  1  0  0  0  0
 25 20  1  0  0  0  0
 26 25  3  0  0  0  0
 27 28  1  0  0  0  0
 28 29  1  0  0  0  0
 29 33  1  6  0  0  0
 29 31  1  0  0  0  0
 31 32  1  0  0  0  0
 31 30  1  0  0  0  0
 32 30  1  0  0  0  0
 33 34  2  0  0  0  0
 36 37  1  0  0  0  0
 36 35  1  0  0  0  0
 39 46  1  0  0  0  0
 39 48  2  0  0  0  0
 40 38  1  6  0  0  0
 40 43  1  0  0  0  0
 40 51  1  0  0  0  0
 40 44  1  0  0  0  0
 41 47  1  0  0  0  0
 41 49  1  1  0  0  0
 43 50  1  0  0  0  0
 44 41  1  0  0  0  0
 45 39  2  0  0  0  0
 46 50  1  0  0  0  0
 46 37  1  0  0  0  0
 47 42  1  1  0  0  0
 51 39  1  1  0  0  0
 51 47  1  0  0  0  0
 53 52  1  6  0  0  0
 53 60  1  0  0  0  0
 53 54  1  0  0  0  0
 54 57  1  0  0  0  0
 54 56  1  0  0  0  0
 55 54  2  0  0  0  0
 58 60  1  0  0  0  0
 60 59  1  0  0  0  0
M  END
>  <MODEL>
9

>  <REMARK>
 VINA RESULT:      -5.6      1.625      2.284
  Name = 
  16 active torsions:
  status: ('A' for Active; 'I' for Inactive)
    1  A    between atoms: P_3  and  C_59
    2  A    between atoms: C_5  and  C_49
    3  A    between atoms: C_6  and  C_15
    4  A    between atoms: C_6  and  C_49
    5  A    between atoms: C_9  and  N_45
    6  A    between atoms: C_13  and  N_36
    7  A    between atoms: C_13  and  C_38
    8  A    between atoms: C_15  and  C_27
    9  A    between atoms: C_17  and  C_33
   10  A    between atoms: C_17  and  C_38
   11  A    between atoms: C_21  and  C_34
   12  A    between atoms: C_30  and  C_49
   13  A    between atoms: C_31  and  C_51
   14  A    between atoms: C_35  and  C_57
   15  A    between atoms: C_46  and  C_59
   16  A    between atoms: C_57  and  C_59
                            x       y       z     vdW  Elec       q    Type
                         _______ _______ _______ _____ _____    ______ ____

>  <TORSDO>
F 16

$$$$
