=
 OpenBabel11032421313D

 60 68  0  0  1  0  0  0  0  0999 V2000
  184.9210  172.6110  137.4870 C   0  0  1  0  0  3  0  0  0  0  0  0
  182.2000  179.3110  141.0900 C   0  0  1  0  0  3  0  0  0  0  0  0
  189.1480  174.7140  135.7870 C   0  0  0  0  0  2  0  0  0  0  0  0
  189.3830  177.9560  136.0440 C   0  0  0  0  0  2  0  0  0  0  0  0
  185.4970  178.1980  138.7040 C   0  0  0  0  0  0  0  0  0  0  0  0
  183.6870  171.7370  137.1590 C   0  0  2  0  0  3  0  0  0  0  0  0
  183.2260  174.6580  137.7730 C   0  0  1  0  0  3  0  0  0  0  0  0
  186.8010  179.0960  142.0240 C   0  0  0  0  0  1  0  0  0  0  0  0
  183.6740  178.8720  141.1440 C   0  0  0  0  0  2  0  0  0  0  0  0
  181.5130  178.9300  139.8080 C   0  0  0  0  0  0  0  0  0  0  0  0
  188.2050  178.3810  140.1000 C   0  0  0  0  0  0  0  0  0  0  0  0
  184.6370  174.1060  137.4690 C   0  0  0  0  0  0  0  0  0  0  0  0
  188.0730  177.6270  136.4180 O   0  0  0  0  0  0  0  0  0  0  0  0
  183.2460  176.1150  138.2040 C   0  0  1  0  0  3  0  0  0  0  0  0
  188.3090  172.1610  135.7780 C   0  0  0  0  0  0  0  0  0  0  0  0
  190.6710  176.3700  134.6160 C   0  0  0  0  0  2  0  0  0  0  0  0
  185.6380  174.9410  137.1590 C   0  0  0  0  0  3  0  0  0  0  0  0
  183.3500  170.9250  135.9280 C   0  0  2  0  0  0  0  0  0  0  0  0
  180.6110  179.8110  139.2310 O   0  0  0  0  0  1  0  0  0  0  0  0
  186.3700  177.1150  138.2150 C   0  0  1  0  0  3  0  0  0  0  0  0
  181.8320  172.2100  135.3150 C   0  0  2  0  0  0  0  0  0  0  0  0
  189.6300  177.4850  134.6130 C   0  0  0  0  0  2  0  0  0  0  0  0
  185.4640  172.2050  138.7190 O   0  0  0  0  0  1  0  0  0  0  0  0
  186.3960  170.6180  136.1020 C   0  0  0  0  0  2  0  0  0  0  0  0
  188.6730  173.3160  135.7530 C   0  0  0  0  0  0  0  0  0  0  0  0
  181.9000  170.7300  135.4770 C   0  0  0  0  0  2  0  0  0  0  0  0
  185.5230  176.4520  137.1100 C   0  0  2  0  0  3  0  0  0  0  0  0
  184.4840  170.1900  135.1110 C   0  0  0  0  0  2  0  0  0  0  0  0
  184.3090  178.2400  137.9900 O   0  0  0  0  0  0  0  0  0  0  0  0
  187.6880  177.6650  137.7670 C   0  0  0  0  0  0  0  0  0  0  0  0
  180.7970  172.8780  134.5940 O   0  0  0  0  0  1  0  0  0  0  0  0
  184.1010  177.0230  137.3020 C   0  0  2  0  0  0  0  0  0  0  0  0
  183.1640  172.4580  135.8880 C   0  0  2  0  0  0  0  0  0  0  0  0
  189.1870  178.3840  140.8970 O   0  0  0  0  0  0  0  0  0  0  0  0
  184.5600  179.7560  140.2890 C   0  0  0  0  0  2  0  0  0  0  0  0
  187.8940  170.7560  135.8400 C   0  0  0  0  0  2  0  0  0  0  0  0
  182.1790  174.3570  136.6490 C   0  0  0  0  0  2  0  0  0  0  0  0
  181.9560  172.8990  136.5960 N   0  0  1  0  0  0  0  0  0  0  0  0
  183.4480  177.3040  135.9520 C   0  0  0  0  0  1  0  0  0  0  0  0
  185.6420  170.9590  134.9870 O   0  0  0  0  0  0  0  0  0  0  0  0
  181.7230  177.7820  139.2160 C   0  0  0  0  0  0  0  0  0  0  0  0
  188.5120  178.2010  138.6800 C   0  0  0  0  0  3  0  0  0  0  0  0
  181.8910  176.6570  138.5750 C   0  0  0  0  0  3  0  0  0  0  0  0
  185.7170  178.9460  139.7880 C   0  0  0  0  0  0  0  0  0  0  0  0
  186.9000  178.7650  140.6040 N   0  0  0  0  0  0  0  0  0  0  0  0
  190.0550  174.9660  134.5940 C   0  0  0  0  0  2  0  0  0  0  0  0
  180.6680  177.7550  142.0490 O   0  0  0  0  0  0  0  0  0  0  0  0
  181.4630  178.7280  142.2460 C   0  0  0  0  0  0  0  0  0  0  0  0
  181.6570  179.2560  143.5180 O   0  0  0  0  0  0  0  0  0  0  0  0
  184.1920  180.3640  144.2720 O   0  0  0  0  0  0  0  0  0  0  0  0
  182.5630  178.6780  144.3940 N   0  0  0  0  0  2  0  0  0  0  0  0
  183.8870  179.1800  144.5840 C   0  0  0  0  0  0  0  0  0  0  0  0
  184.9170  178.2580  145.1750 C   0  0  2  0  0  3  0  0  0  0  0  0
  185.3480  179.4450  147.2100 O   0  0  0  0  0  0  0  0  0  0  0  0
  184.9500  178.3730  146.6630 C   0  0  0  0  0  0  0  0  0  0  0  0
  184.4860  177.3360  147.4710 O   0  0  0  0  0  1  0  0  0  0  0  0
  186.3110  178.5530  144.6000 C   0  0  0  0  0  2  0  0  0  0  0  0
  187.4540  176.3450  144.1580 O   0  0  0  0  0  0  0  0  0  0  0  0
  187.9850  177.6020  146.0200 O   0  0  0  0  0  1  0  0  0  0  0  0
  187.3260  177.4990  144.9420 C   0  0  0  0  0  0  0  0  0  0  0  0
  1 23  1  1  0  0  0
  2  9  1  0  0  0  0
  2 48  1  1  0  0  0
  4 13  1  0  0  0  0
  5 44  2  0  0  0  0
  6  1  1  0  0  0  0
  7 14  1  0  0  0  0
 10  2  1  0  0  0  0
 11 45  1  0  0  0  0
 11 34  2  0  0  0  0
 12  1  1  0  0  0  0
 12  7  1  0  0  0  0
 13 30  1  0  0  0  0
 14 43  1  0  0  0  0
 15 36  1  0  0  0  0
 17 12  2  0  0  0  0
 18  6  1  0  0  0  0
 19 10  1  0  0  0  0
 20  5  1  0  0  0  0
 21 26  1  0  0  0  0
 21 33  1  0  0  0  0
 21 38  1  0  0  0  0
 22 16  1  0  0  0  0
 22  4  1  0  0  0  0
 25 15  3  0  0  0  0
 25  3  1  0  0  0  0
 26 18  1  0  0  0  0
 27 17  1  0  0  0  0
 27 32  1  0  0  0  0
 27 20  1  0  0  0  0
 28 18  1  0  0  0  0
 29  5  1  0  0  0  0
 30 20  1  0  0  0  0
 30 42  2  0  0  0  0
 31 21  1  0  0  0  0
 32 29  1  0  0  0  0
 32 14  1  0  0  0  0
 33 18  1  0  0  0  0
 33 38  1  0  0  0  0
 33  6  1  0  0  0  0
 35  9  1  0  0  0  0
 36 24  1  0  0  0  0
 37  7  1  0  0  0  0
 38 37  1  0  0  0  0
 39 32  1  0  0  0  0
 40 28  1  0  0  0  0
 40 24  1  0  0  0  0
 41 10  2  0  0  0  0
 42 11  1  0  0  0  0
 43 41  2  0  0  0  0
 44 35  1  0  0  0  0
 44 45  1  0  0  0  0
 45  8  1  0  0  0  0
 46 16  1  0  0  0  0
 46  3  1  0  0  0  0
 47 48  2  0  0  0  0
 48 49  1  0  0  0  0
 49 51  1  0  0  0  0
 50 52  2  0  0  0  0
 51 52  1  0  0  0  0
 52 53  1  0  0  0  0
 53 55  1  0  0  0  0
 55 54  2  0  0  0  0
 55 56  1  0  0  0  0
 57 60  1  0  0  0  0
 57 53  1  0  0  0  0
 58 60  2  0  0  0  0
 60 59  1  0  0  0  0
M  END
>  <MODEL>
1

>  <REMARK>
 VINA RESULT:      -6.4      0.000      0.000
  Name = 
  7 active torsions:
  status: ('A' for Active; 'I' for Inactive)
    1  A    between atoms: C_2  and  C_36
    2  A    between atoms: C_3  and  C_20
    3  A    between atoms: C_3  and  C_22
    4  A    between atoms: C_3  and  C_23
    5  A    between atoms: O_4  and  N_11
    6  A    between atoms: O_4  and  C_36
    7  A    between atoms: C_20  and  C_58
                            x       y       z     vdW  Elec       q    Type
                         _______ _______ _______ _____ _____    ______ ____

>  <TORSDO>
F 7

$$$$
=
 OpenBabel11032421313D

 60 68  0  0  1  0  0  0  0  0999 V2000
  188.4330  176.4670  143.0290 C   0  0  1  0  0  3  0  0  0  0  0  0
  191.5330  174.7180  135.7750 C   0  0  1  0  0  3  0  0  0  0  0  0
  184.1420  178.3450  141.2290 C   0  0  0  0  0  2  0  0  0  0  0  0
  183.9910  178.8430  138.0110 C   0  0  0  0  0  2  0  0  0  0  0  0
  188.0570  176.5640  137.2950 C   0  0  0  0  0  0  0  0  0  0  0  0
  189.6230  176.6570  143.9990 C   0  0  2  0  0  3  0  0  0  0  0  0
  190.1850  176.7780  141.0340 C   0  0  1  0  0  3  0  0  0  0  0  0
  187.0050  173.4740  135.6010 C   0  0  0  0  0  1  0  0  0  0  0  0
  190.0580  174.4700  136.1370 C   0  0  0  0  0  2  0  0  0  0  0  0
  192.1210  175.9150  136.4690 C   0  0  0  0  0  0  0  0  0  0  0  0
  185.4570  175.0830  136.6940 C   0  0  0  0  0  0  0  0  0  0  0  0
  188.7460  176.8540  141.5910 C   0  0  0  0  0  0  0  0  0  0  0  0
  185.3170  178.4850  138.2900 O   0  0  0  0  0  0  0  0  0  0  0  0
  190.2240  176.7010  139.5160 C   0  0  1  0  0  3  0  0  0  0  0  0
  184.9270  177.8070  143.7430 C   0  0  0  0  0  0  0  0  0  0  0  0
  182.5760  179.7750  139.8380 C   0  0  0  0  0  2  0  0  0  0  0  0
  187.7430  177.2890  140.8150 C   0  0  0  0  0  3  0  0  0  0  0  0
  189.8580  177.6820  145.0870 C   0  0  2  0  0  0  0  0  0  0  0  0
  192.9990  176.7380  135.7800 O   0  0  0  0  0  1  0  0  0  0  0  0
  187.1300  176.7290  138.4300 C   0  0  1  0  0  3  0  0  0  0  0  0
  191.3550  178.6740  144.0360 C   0  0  2  0  0  0  0  0  0  0  0  0
  183.6360  180.1050  138.7930 C   0  0  0  0  0  2  0  0  0  0  0  0
  187.9690  175.1430  143.1160 O   0  0  0  0  0  1  0  0  0  0  0  0
  186.8260  177.2500  145.2350 C   0  0  0  0  0  2  0  0  0  0  0  0
  184.5850  178.0790  142.6130 C   0  0  0  0  0  0  0  0  0  0  0  0
  191.2690  178.1650  145.4340 C   0  0  0  0  0  2  0  0  0  0  0  0
  187.8850  177.6980  139.3630 C   0  0  2  0  0  3  0  0  0  0  0  0
  188.6550  178.2300  145.9510 C   0  0  0  0  0  2  0  0  0  0  0  0
  189.1930  177.3410  137.4640 O   0  0  0  0  0  0  0  0  0  0  0  0
  185.7950  177.2100  137.9520 C   0  0  0  0  0  0  0  0  0  0  0  0
  192.3510  179.5950  143.5920 O   0  0  0  0  0  1  0  0  0  0  0  0
  189.3280  177.7350  138.8140 C   0  0  2  0  0  0  0  0  0  0  0  0
  190.0710  178.0930  143.6140 C   0  0  2  0  0  0  0  0  0  0  0  0
  184.5330  174.2490  136.4700 O   0  0  0  0  0  0  0  0  0  0  0  0
  189.1320  175.4520  135.4450 C   0  0  0  0  0  2  0  0  0  0  0  0
  185.3160  177.4420  145.1080 C   0  0  0  0  0  2  0  0  0  0  0  0
  191.1450  177.8630  141.6260 C   0  0  0  0  0  2  0  0  0  0  0  0
  191.3350  177.5850  143.0640 N   0  0  1  0  0  0  0  0  0  0  0  0
  189.8910  179.1520  138.8790 C   0  0  0  0  0  1  0  0  0  0  0  0
  187.5070  178.4590  145.1910 O   0  0  0  0  0  0  0  0  0  0  0  0
  191.8480  176.2060  137.7160 C   0  0  0  0  0  0  0  0  0  0  0  0
  185.0480  176.3990  137.1890 C   0  0  0  0  0  3  0  0  0  0  0  0
  191.6130  176.5530  138.9520 C   0  0  0  0  0  3  0  0  0  0  0  0
  187.9270  175.6750  136.3070 C   0  0  0  0  0  0  0  0  0  0  0  0
  186.8000  174.7660  136.2510 N   0  0  0  0  0  0  0  0  0  0  0  0
  183.1590  179.5040  141.2300 C   0  0  0  0  0  2  0  0  0  0  0  0
  191.7380  172.4210  136.3830 O   0  0  0  0  0  0  0  0  0  0  0  0
  192.3370  173.5060  136.0990 C   0  0  0  0  0  0  0  0  0  0  0  0
  193.7250  173.5830  136.0840 O   0  0  0  0  0  0  0  0  0  0  0  0
  195.7870  175.4490  136.7810 O   0  0  0  0  0  0  0  0  0  0  0  0
  194.4480  173.5830  137.2670 N   0  0  0  0  0  2  0  0  0  0  0  0
  195.5890  174.4160  137.4780 C   0  0  0  0  0  0  0  0  0  0  0  0
  196.5560  174.0340  138.5650 C   0  0  2  0  0  3  0  0  0  0  0  0
  197.3130  174.9950  140.6230 O   0  0  0  0  0  1  0  0  0  0  0  0
  196.3820  174.9000  139.7670 C   0  0  0  0  0  0  0  0  0  0  0  0
  195.2290  175.6660  139.9380 O   0  0  0  0  0  0  0  0  0  0  0  0
  198.0060  174.1220  138.0650 C   0  0  0  0  0  2  0  0  0  0  0  0
  198.8520  173.4030  135.7960 O   0  0  0  0  0  0  0  0  0  0  0  0
  198.0650  171.8520  137.3150 O   0  0  0  0  0  1  0  0  0  0  0  0
  198.3500  173.0600  137.0580 C   0  0  0  0  0  0  0  0  0  0  0  0
  1 23  1  6  0  0  0
  1  6  1  0  0  0  0
  2 48  1  1  0  0  0
  2  9  1  0  0  0  0
  2 10  1  0  0  0  0
  3 46  1  0  0  0  0
  3 25  1  0  0  0  0
  4 13  1  0  0  0  0
  4 22  1  0  0  0  0
  5 29  1  0  0  0  0
  5 20  1  0  0  0  0
  6 18  1  0  0  0  0
  7 12  1  0  0  0  0
  7 37  1  0  0  0  0
  8 45  1  0  0  0  0
 10 41  2  0  0  0  0
 11 42  1  0  0  0  0
 12  1  1  0  0  0  0
 14  7  1  0  0  0  0
 15 36  1  0  0  0  0
 16 46  1  0  0  0  0
 17 12  2  0  0  0  0
 18 26  1  0  0  0  0
 18 28  1  0  0  0  0
 19 10  1  0  0  0  0
 20 27  1  0  0  0  0
 21 26  1  0  0  0  0
 22 16  1  0  0  0  0
 25 15  3  0  0  0  0
 27 17  1  0  0  0  0
 29 32  1  0  0  0  0
 30 13  1  0  0  0  0
 30 20  1  0  0  0  0
 31 21  1  0  0  0  0
 32 39  1  0  0  0  0
 32 27  1  0  0  0  0
 32 14  1  0  0  0  0
 33  6  1  0  0  0  0
 33 21  1  0  0  0  0
 33 18  1  0  0  0  0
 34 11  2  0  0  0  0
 35  9  1  0  0  0  0
 35 44  1  0  0  0  0
 36 24  1  0  0  0  0
 37 38  1  0  0  0  0
 38 33  1  0  0  0  0
 38 21  1  0  0  0  0
 40 24  1  0  0  0  0
 40 28  1  0  0  0  0
 41 43  2  0  0  0  0
 42 30  2  0  0  0  0
 43 14  1  0  0  0  0
 44  5  2  0  0  0  0
 45 44  1  0  0  0  0
 45 11  1  0  0  0  0
 48 47  2  0  0  0  0
 49 48  1  0  0  0  0
 49 51  1  0  0  0  0
 50 52  2  0  0  0  0
 51 52  1  0  0  0  0
 52 53  1  0  0  0  0
 53 55  1  0  0  0  0
 55 56  2  0  0  0  0
 55 54  1  0  0  0  0
 57 53  1  0  0  0  0
 58 60  2  0  0  0  0
 60 59  1  0  0  0  0
 60 57  1  0  0  0  0
M  END
>  <MODEL>
2

>  <REMARK>
 VINA RESULT:      -6.2      4.524     10.711
  Name = 
  7 active torsions:
  status: ('A' for Active; 'I' for Inactive)
    1  A    between atoms: C_2  and  C_36
    2  A    between atoms: C_3  and  C_20
    3  A    between atoms: C_3  and  C_22
    4  A    between atoms: C_3  and  C_23
    5  A    between atoms: O_4  and  N_11
    6  A    between atoms: O_4  and  C_36
    7  A    between atoms: C_20  and  C_58
                            x       y       z     vdW  Elec       q    Type
                         _______ _______ _______ _____ _____    ______ ____

>  <TORSDO>
F 7

$$$$
=
 OpenBabel11032421313D

 60 68  0  0  1  0  0  0  0  0999 V2000
  185.5730  172.4360  137.4360 C   0  0  1  0  0  3  0  0  0  0  0  0
  184.5940  179.4470  141.3310 C   0  0  1  0  0  3  0  0  0  0  0  0
  190.1910  173.4950  135.7840 C   0  0  0  0  0  2  0  0  0  0  0  0
  191.2220  176.5630  136.1690 C   0  0  0  0  0  2  0  0  0  0  0  0
  187.5140  177.6510  138.8720 C   0  0  0  0  0  0  0  0  0  0  0  0
  184.1610  171.9090  137.0850 C   0  0  2  0  0  3  0  0  0  0  0  0
  184.4380  174.8250  137.8200 C   0  0  1  0  0  3  0  0  0  0  0  0
  188.9960  178.0600  142.2130 C   0  0  0  0  0  1  0  0  0  0  0  0
  185.9130  178.6540  141.3530 C   0  0  0  0  0  2  0  0  0  0  0  0
  183.8350  179.3010  140.0410 C   0  0  0  0  0  0  0  0  0  0  0  0
  190.1810  177.1000  140.2500 C   0  0  0  0  0  0  0  0  0  0  0  0
  185.6680  173.9540  137.4810 C   0  0  0  0  0  0  0  0  0  0  0  0
  189.8710  176.5540  136.5410 O   0  0  0  0  0  0  0  0  0  0  0  0
  184.8180  176.2130  138.3090 C   0  0  1  0  0  3  0  0  0  0  0  0
  188.7450  171.2310  135.6800 C   0  0  0  0  0  0  0  0  0  0  0  0
  192.0780  174.7690  134.6670 C   0  0  0  0  0  2  0  0  0  0  0  0
  186.8450  174.5270  137.1950 C   0  0  0  0  0  3  0  0  0  0  0  0
  183.6340  171.2570  135.8250 C   0  0  2  0  0  0  0  0  0  0  0  0
  183.1800  180.4000  139.5080 O   0  0  0  0  0  1  0  0  0  0  0  0
  188.0930  176.4060  138.3310 C   0  0  1  0  0  3  0  0  0  0  0  0
  182.4830  172.9030  135.2780 C   0  0  2  0  0  0  0  0  0  0  0  0
  191.3460  176.1050  134.7180 C   0  0  0  0  0  2  0  0  0  0  0  0
  185.9960  171.8580  138.6460 O   0  0  0  0  0  1  0  0  0  0  0  0
  186.5090  170.1980  135.9590 C   0  0  0  0  0  2  0  0  0  0  0  0
  189.3840  172.2600  135.6980 C   0  0  0  0  0  0  0  0  0  0  0  0
  182.1820  171.4470  135.3800 C   0  0  0  0  0  2  0  0  0  0  0  0
  187.1080  176.0200  137.2090 C   0  0  2  0  0  3  0  0  0  0  0  0
  184.5520  170.2990  134.9690 C   0  0  0  0  0  2  0  0  0  0  0  0
  186.3750  178.0150  138.1710 O   0  0  0  0  0  0  0  0  0  0  0  0
  189.5060  176.6310  137.8950 C   0  0  0  0  0  0  0  0  0  0  0  0
  181.6470  173.8350  134.5940 O   0  0  0  0  0  1  0  0  0  0  0  0
  185.8720  176.9170  137.4360 C   0  0  2  0  0  0  0  0  0  0  0  0
  183.8350  172.7880  135.8480 C   0  0  2  0  0  0  0  0  0  0  0  0
  191.1320  176.8270  141.0370 O   0  0  0  0  0  0  0  0  0  0  0  0
  186.9910  179.3260  140.5270 C   0  0  0  0  0  2  0  0  0  0  0  0
  187.9950  169.9720  135.6890 C   0  0  0  0  0  2  0  0  0  0  0  0
  183.3500  174.8400  136.6940 C   0  0  0  0  0  2  0  0  0  0  0  0
  182.7720  173.4850  136.5850 N   0  0  1  0  0  0  0  0  0  0  0  0
  185.3110  177.4060  136.1050 C   0  0  0  0  0  1  0  0  0  0  0  0
  185.8640  170.7610  134.8650 O   0  0  0  0  0  0  0  0  0  0  0  0
  183.7550  178.1620  139.4010 C   0  0  0  0  0  0  0  0  0  0  0  0
  190.4360  176.9080  138.8210 C   0  0  0  0  0  3  0  0  0  0  0  0
  183.6390  177.0580  138.7140 C   0  0  0  0  0  3  0  0  0  0  0  0
  187.9120  178.2750  139.9830 C   0  0  0  0  0  0  0  0  0  0  0  0
  189.0120  177.7730  140.7800 N   0  0  0  0  0  0  0  0  0  0  0  0
  191.1340  173.5620  134.5940 C   0  0  0  0  0  2  0  0  0  0  0  0
  182.6040  179.5760  142.6390 O   0  0  0  0  0  0  0  0  0  0  0  0
  183.7330  179.0170  142.4690 C   0  0  0  0  0  0  0  0  0  0  0  0
  184.1790  178.0140  143.3230 O   0  0  0  0  0  0  0  0  0  0  0  0
  186.5750  176.6400  144.0950 O   0  0  0  0  0  0  0  0  0  0  0  0
  184.9660  178.3180  144.4230 N   0  0  0  0  0  2  0  0  0  0  0  0
  186.0380  177.4830  144.8650 C   0  0  0  0  0  0  0  0  0  0  0  0
  186.5200  177.6360  146.2810 C   0  0  2  0  0  3  0  0  0  0  0  0
  184.4200  178.2980  147.2220 O   0  0  0  0  0  0  0  0  0  0  0  0
  185.6460  178.5710  147.0480 C   0  0  0  0  0  0  0  0  0  0  0  0
  186.1710  179.7210  147.6370 O   0  0  0  0  0  1  0  0  0  0  0  0
  187.9720  178.1350  146.3150 C   0  0  0  0  0  2  0  0  0  0  0  0
  189.9600  176.7190  146.9670 O   0  0  0  0  0  0  0  0  0  0  0  0
  188.4120  177.3880  148.5440 O   0  0  0  0  0  1  0  0  0  0  0  0
  188.8150  177.4330  147.3430 C   0  0  0  0  0  0  0  0  0  0  0  0
  1 12  1  0  0  0  0
  1 23  1  1  0  0  0
  2  9  1  0  0  0  0
  2 48  1  1  0  0  0
  4 13  1  0  0  0  0
  5 44  2  0  0  0  0
  6  1  1  0  0  0  0
  7 14  1  0  0  0  0
 10  2  1  0  0  0  0
 11 45  1  0  0  0  0
 11 34  2  0  0  0  0
 12  7  1  0  0  0  0
 13 30  1  0  0  0  0
 14 43  1  0  0  0  0
 15 36  1  0  0  0  0
 15 25  3  0  0  0  0
 16 22  1  0  0  0  0
 17 27  1  0  0  0  0
 17 12  2  0  0  0  0
 18 33  1  0  0  0  0
 18  6  1  0  0  0  0
 19 10  1  0  0  0  0
 20  5  1  0  0  0  0
 21 26  1  0  0  0  0
 21 33  1  0  0  0  0
 21 38  1  0  0  0  0
 22  4  1  0  0  0  0
 25  3  1  0  0  0  0
 26 18  1  0  0  0  0
 27 32  1  0  0  0  0
 27 20  1  0  0  0  0
 28 18  1  0  0  0  0
 29  5  1  0  0  0  0
 30 20  1  0  0  0  0
 30 42  2  0  0  0  0
 31 21  1  0  0  0  0
 32 29  1  0  0  0  0
 32 14  1  0  0  0  0
 33 38  1  0  0  0  0
 33  6  1  0  0  0  0
 35  9  1  0  0  0  0
 36 24  1  0  0  0  0
 37  7  1  0  0  0  0
 38 37  1  0  0  0  0
 39 32  1  0  0  0  0
 40 28  1  0  0  0  0
 40 24  1  0  0  0  0
 41 10  2  0  0  0  0
 42 11  1  0  0  0  0
 43 41  2  0  0  0  0
 44 35  1  0  0  0  0
 44 45  1  0  0  0  0
 45  8  1  0  0  0  0
 46 16  1  0  0  0  0
 46  3  1  0  0  0  0
 48 47  2  0  0  0  0
 48 49  1  0  0  0  0
 49 51  1  0  0  0  0
 50 52  2  0  0  0  0
 51 52  1  0  0  0  0
 52 53  1  0  0  0  0
 53 57  1  0  0  0  0
 53 55  1  0  0  0  0
 55 54  2  0  0  0  0
 55 56  1  0  0  0  0
 57 60  1  0  0  0  0
 58 60  2  0  0  0  0
 60 59  1  0  0  0  0
M  END
>  <MODEL>
3

>  <REMARK>
 VINA RESULT:      -5.9      1.535      2.017
  Name = 
  7 active torsions:
  status: ('A' for Active; 'I' for Inactive)
    1  A    between atoms: C_2  and  C_36
    2  A    between atoms: C_3  and  C_20
    3  A    between atoms: C_3  and  C_22
    4  A    between atoms: C_3  and  C_23
    5  A    between atoms: O_4  and  N_11
    6  A    between atoms: O_4  and  C_36
    7  A    between atoms: C_20  and  C_58
                            x       y       z     vdW  Elec       q    Type
                         _______ _______ _______ _____ _____    ______ ____

>  <TORSDO>
F 7

$$$$
=
 OpenBabel11032421313D

 60 68  0  0  1  0  0  0  0  0999 V2000
  188.3410  176.5070  143.0760 C   0  0  1  0  0  3  0  0  0  0  0  0
  191.4790  174.5900  135.8820 C   0  0  1  0  0  3  0  0  0  0  0  0
  184.0630  178.3470  141.2100 C   0  0  0  0  0  2  0  0  0  0  0  0
  183.9300  178.7720  137.9810 C   0  0  0  0  0  2  0  0  0  0  0  0
  187.9970  176.4730  137.3390 C   0  0  0  0  0  0  0  0  0  0  0  0
  189.5260  176.7180  144.0490 C   0  0  2  0  0  3  0  0  0  0  0  0
  190.1040  176.7700  141.0840 C   0  0  1  0  0  3  0  0  0  0  0  0
  186.9510  173.3460  135.7110 C   0  0  0  0  0  1  0  0  0  0  0  0
  190.0020  174.3520  136.2410 C   0  0  0  0  0  2  0  0  0  0  0  0
  192.0650  175.8020  136.5510 C   0  0  0  0  0  0  0  0  0  0  0  0
  185.3980  174.9810  136.7580 C   0  0  0  0  0  0  0  0  0  0  0  0
  188.6620  176.8610  141.6310 C   0  0  0  0  0  0  0  0  0  0  0  0
  185.2540  178.4190  138.2760 O   0  0  0  0  0  0  0  0  0  0  0  0
  190.1520  176.6590  139.5690 C   0  0  1  0  0  3  0  0  0  0  0  0
  184.8320  177.8660  143.7400 C   0  0  0  0  0  0  0  0  0  0  0  0
  182.5050  179.7460  139.7780 C   0  0  0  0  0  2  0  0  0  0  0  0
  187.6640  177.2780  140.8400 C   0  0  0  0  0  3  0  0  0  0  0  0
  189.7560  177.7670  145.1140 C   0  0  2  0  0  0  0  0  0  0  0  0
  192.9470  176.6080  135.8490 O   0  0  0  0  0  1  0  0  0  0  0  0
  187.0630  176.6650  138.4650 C   0  0  1  0  0  3  0  0  0  0  0  0
  191.2600  178.7330  144.0480 C   0  0  2  0  0  0  0  0  0  0  0  0
  183.5710  180.0510  138.7320 C   0  0  0  0  0  2  0  0  0  0  0  0
  187.8760  175.1860  143.1910 O   0  0  0  0  0  1  0  0  0  0  0  0
  186.7220  177.3410  145.2550 C   0  0  0  0  0  2  0  0  0  0  0  0
  184.4970  178.1130  142.6030 C   0  0  0  0  0  0  0  0  0  0  0  0
  191.1650  178.2560  145.4570 C   0  0  0  0  0  2  0  0  0  0  0  0
  187.8150  177.6540  139.3800 C   0  0  2  0  0  3  0  0  0  0  0  0
  188.5490  178.3360  145.9580 C   0  0  0  0  0  2  0  0  0  0  0  0
  189.1320  177.2530  137.4970 O   0  0  0  0  0  0  0  0  0  0  0  0
  185.7320  177.1360  137.9690 C   0  0  0  0  0  0  0  0  0  0  0  0
  192.2590  179.6440  143.5900 O   0  0  0  0  0  1  0  0  0  0  0  0
  189.2600  177.6780  138.8390 C   0  0  2  0  0  0  0  0  0  0  0  0
  189.9780  178.1440  143.6330 C   0  0  2  0  0  0  0  0  0  0  0  0
  184.4750  174.1430  136.5480 O   0  0  0  0  0  0  0  0  0  0  0  0
  189.0810  175.3180  135.5210 C   0  0  0  0  0  2  0  0  0  0  0  0
  185.2140  177.5330  145.1150 C   0  0  0  0  0  2  0  0  0  0  0  0
  191.0620  177.8680  141.6570 C   0  0  0  0  0  2  0  0  0  0  0  0
  191.2440  177.6230  143.1010 N   0  0  1  0  0  0  0  0  0  0  0  0
  189.8250  179.0950  138.8740 C   0  0  0  0  0  1  0  0  0  0  0  0
  187.4050  178.5480  145.1880 O   0  0  0  0  0  0  0  0  0  0  0  0
  191.7850  176.1210  137.7890 C   0  0  0  0  0  0  0  0  0  0  0  0
  184.9880  176.3080  137.2210 C   0  0  0  0  0  3  0  0  0  0  0  0
  191.5440  176.4970  139.0160 C   0  0  0  0  0  3  0  0  0  0  0  0
  187.8720  175.5610  136.3720 C   0  0  0  0  0  0  0  0  0  0  0  0
  186.7440  174.6530  136.3300 N   0  0  0  0  0  0  0  0  0  0  0  0
  183.0810  179.5070  141.1800 C   0  0  0  0  0  2  0  0  0  0  0  0
  192.3140  172.9970  137.4480 O   0  0  0  0  0  0  0  0  0  0  0  0
  192.2800  173.3840  136.2380 C   0  0  0  0  0  0  0  0  0  0  0  0
  192.9730  172.7060  135.2420 O   0  0  0  0  0  0  0  0  0  0  0  0
  195.4450  171.2850  134.9380 O   0  0  0  0  0  0  0  0  0  0  0  0
  194.1450  173.2260  134.7130 N   0  0  0  0  0  2  0  0  0  0  0  0
  195.3930  172.5330  134.7630 C   0  0  0  0  0  0  0  0  0  0  0  0
  196.6560  173.3320  134.5950 C   0  0  2  0  0  3  0  0  0  0  0  0
  198.9600  172.8680  135.0520 O   0  0  0  0  0  0  0  0  0  0  0  0
  197.7560  172.7820  135.4400 C   0  0  0  0  0  0  0  0  0  0  0  0
  197.4890  172.2260  136.6900 O   0  0  0  0  0  1  0  0  0  0  0  0
  196.4210  174.8090  134.9440 C   0  0  0  0  0  2  0  0  0  0  0  0
  195.9140  175.0020  137.4110 O   0  0  0  0  0  1  0  0  0  0  0  0
  197.9410  175.7040  136.5590 O   0  0  0  0  0  0  0  0  0  0  0  0
  196.8180  175.1540  136.3520 C   0  0  0  0  0  0  0  0  0  0  0  0
  1 23  1  6  0  0  0
  1  6  1  0  0  0  0
  2 48  1  1  0  0  0
  2  9  1  0  0  0  0
  2 10  1  0  0  0  0
  3 25  1  0  0  0  0
  4 13  1  0  0  0  0
  4 22  1  0  0  0  0
  5 29  1  0  0  0  0
  5 20  1  0  0  0  0
  6 18  1  0  0  0  0
  7 12  1  0  0  0  0
  7 37  1  0  0  0  0
  8 45  1  0  0  0  0
 10 41  2  0  0  0  0
 11 42  1  0  0  0  0
 12  1  1  0  0  0  0
 14  7  1  0  0  0  0
 15 36  1  0  0  0  0
 16 46  1  0  0  0  0
 17 12  2  0  0  0  0
 18 26  1  0  0  0  0
 18 28  1  0  0  0  0
 19 10  1  0  0  0  0
 20 27  1  0  0  0  0
 21 26  1  0  0  0  0
 22 16  1  0  0  0  0
 25 15  3  0  0  0  0
 27 17  1  0  0  0  0
 29 32  1  0  0  0  0
 30 13  1  0  0  0  0
 30 20  1  0  0  0  0
 31 21  1  0  0  0  0
 32 39  1  0  0  0  0
 32 27  1  0  0  0  0
 32 14  1  0  0  0  0
 33 21  1  0  0  0  0
 33  6  1  0  0  0  0
 33 18  1  0  0  0  0
 34 11  2  0  0  0  0
 35  9  1  0  0  0  0
 35 44  1  0  0  0  0
 36 24  1  0  0  0  0
 37 38  1  0  0  0  0
 38 33  1  0  0  0  0
 38 21  1  0  0  0  0
 40 24  1  0  0  0  0
 40 28  1  0  0  0  0
 41 43  2  0  0  0  0
 42 30  2  0  0  0  0
 43 14  1  0  0  0  0
 44  5  2  0  0  0  0
 45 44  1  0  0  0  0
 45 11  1  0  0  0  0
 46  3  1  0  0  0  0
 48 47  2  0  0  0  0
 49 48  1  0  0  0  0
 51 52  1  0  0  0  0
 51 49  1  0  0  0  0
 52 50  2  0  0  0  0
 53 52  1  0  0  0  0
 53 57  1  0  0  0  0
 53 55  1  0  0  0  0
 54 55  2  0  0  0  0
 55 56  1  0  0  0  0
 57 60  1  0  0  0  0
 60 59  2  0  0  0  0
 60 58  1  0  0  0  0
M  END
>  <MODEL>
4

>  <REMARK>
 VINA RESULT:      -4.6      4.544     11.143
  Name = 
  7 active torsions:
  status: ('A' for Active; 'I' for Inactive)
    1  A    between atoms: C_2  and  C_36
    2  A    between atoms: C_3  and  C_20
    3  A    between atoms: C_3  and  C_22
    4  A    between atoms: C_3  and  C_23
    5  A    between atoms: O_4  and  N_11
    6  A    between atoms: O_4  and  C_36
    7  A    between atoms: C_20  and  C_58
                            x       y       z     vdW  Elec       q    Type
                         _______ _______ _______ _____ _____    ______ ____

>  <TORSDO>
F 7

$$$$
