=
 OpenBabel11032421233D

 58 63  0  0  1  0  0  0  0  0999 V2000
  188.2320  175.4170  134.6130 N   0  0  0  0  0  0  0  0  0  0  0  0
  187.4110  176.6060  137.0740 C   0  0  2  0  0  3  0  0  0  0  0  0
  188.7280  175.8770  136.9390 C   0  0  0  0  0  0  0  0  0  0  0  0
  189.0900  175.3530  135.7580 C   0  0  0  0  0  3  0  0  0  0  0  0
  187.0260  175.8860  134.6850 C   0  0  0  0  0  3  0  0  0  0  0  0
  186.5030  176.3830  135.9260 N   0  0  0  0  0  0  0  0  0  0  0  0
  184.4270  176.5140  137.2780 C   0  0  0  0  0  3  0  0  0  0  0  0
  182.3190  177.1000  136.2500 C   0  0  0  0  0  3  0  0  0  0  0  0
  183.0540  176.7500  137.3840 C   0  0  0  0  0  0  0  0  0  0  0  0
  182.9630  177.2360  135.0210 C   0  0  0  0  0  3  0  0  0  0  0  0
  184.3370  177.0110  134.9210 C   0  0  0  0  0  3  0  0  0  0  0  0
  185.0910  176.6390  136.0450 C   0  0  0  0  0  0  0  0  0  0  0  0
  182.1980  176.5020  138.9420 S   0  0  0  0  0  0  0  0  0  0  0  0
  182.0430  178.2530  139.4550 C   0  0  2  0  0  0  0  0  0  0  0  0
  182.5720  179.1590  138.3380 C   0  0  0  0  0  2  0  0  0  0  0  0
  180.5900  180.7050  138.4530 N   0  0  0  0  0  0  0  0  0  0  0  0
  182.7980  178.4600  140.6120 O   0  0  0  0  0  1  0  0  0  0  0  0
  182.0620  180.5840  138.5560 C   0  0  0  0  0  2  0  0  0  0  0  0
  179.8700  179.4360  138.6650 C   0  0  0  0  0  2  0  0  0  0  0  0
  180.5350  178.5340  139.7200 C   0  0  2  0  0  3  0  0  0  0  0  0
  180.2280  177.8560  142.1180 C   0  0  0  0  0  3  0  0  0  0  0  0
  180.1620  178.8690  141.1470 C   0  0  0  0  0  0  0  0  0  0  0  0
  179.5900  179.4500  143.8250 C   0  0  0  0  0  3  0  0  0  0  0  0
  179.5400  180.4640  142.8650 C   0  0  0  0  0  3  0  0  0  0  0  0
  179.8330  180.1750  141.5340 C   0  0  0  0  0  3  0  0  0  0  0  0
  179.9410  178.1440  143.4560 C   0  0  0  0  0  3  0  0  0  0  0  0
  180.0940  181.2360  137.1690 C   0  0  2  0  0  3  0  0  0  0  0  0
  180.3200  180.3620  135.9570 C   0  0  0  0  0  0  0  0  0  0  0  0
  179.8100  179.0630  135.9110 O   0  0  0  0  0  1  0  0  0  0  0  0
  181.0160  180.7820  134.9890 O   0  0  0  0  0  0  0  0  0  0  0  0
  179.6000  183.5240  136.6190 O   0  0  0  0  0  1  0  0  0  0  0  0
  180.6370  182.6430  136.9350 C   0  0  0  0  0  2  0  0  0  0  0  0
  192.2390  176.4090  138.5190 N   0  0  0  0  0  0  0  0  0  0  0  0
  191.0190  176.1250  137.9330 C   0  0  0  0  0  0  0  0  0  0  0  0
  189.6220  175.8540  138.0570 N   0  0  0  0  0  2  0  0  0  0  0  0
  192.1070  176.2810  137.1590 N   0  0  0  0  0  0  0  0  0  0  0  0
  193.0480  176.6210  139.6450 N   0  0  0  0  0  2  0  0  0  0  0  0
  192.4700  177.7320  140.4010 C   0  0  0  0  0  2  0  0  0  0  0  0
  191.3590  177.2710  141.2460 C   0  0  0  0  0  0  0  0  0  0  0  0
  190.4420  176.9300  141.9550 C   0  0  0  0  0  0  0  0  0  0  0  0
  189.3780  176.5670  142.7930 N   0  0  0  0  0  2  0  0  0  0  0  0
  188.8920  177.3790  143.8420 N   0  0  0  0  0  0  0  0  0  0  0  0
  184.7350  178.2850  143.7770 C   0  0  0  0  0  0  0  0  0  0  0  0
  185.3850  178.1560  142.6140 C   0  0  0  0  0  3  0  0  0  0  0  0
  186.8850  178.3310  142.5470 C   0  0  0  0  0  2  0  0  0  0  0  0
  183.3830  178.1640  143.8070 F   0  0  0  0  0  0  0  0  0  0  0  0
  187.5570  177.8980  143.8370 C   0  0  0  0  0  0  0  0  0  0  0  0
  186.8750  178.0130  144.9890 C   0  0  0  0  0  3  0  0  0  0  0  0
  185.4930  178.6040  145.0390 C   0  0  0  0  0  2  0  0  0  0  0  0
  189.8480  177.8720  144.8440 C   0  0  0  0  0  2  0  0  0  0  0  0
  190.4100  176.7740  145.5440 O   0  0  0  0  0  0  0  0  0  0  0  0
  191.4010  176.1770  147.5420 O   0  0  0  0  0  0  0  0  0  0  0  0
  190.4330  176.7250  146.9420 C   0  0  0  0  0  0  0  0  0  0  0  0
  188.1810  176.5980  147.8590 C   0  0  0  0  0  2  0  0  0  0  0  0
  189.3100  177.2810  147.7160 C   0  0  0  0  0  0  0  0  0  0  0  0
  189.4710  178.5610  148.4660 C   0  0  0  0  0  1  0  0  0  0  0  0
  187.7240  178.2020  138.5910 C   0  0  0  0  0  1  0  0  0  0  0  0
  187.6550  177.9790  137.2180 O   0  0  0  0  0  0  0  0  0  0  0  0
  1  5  2  0  0  0  0
  1  4  1  0  0  0  0
  2 58  1  6  0  0  0
  3  2  1  0  0  0  0
  3 35  1  0  0  0  0
  4  3  2  0  0  0  0
  5  6  1  0  0  0  0
  6 12  1  0  0  0  0
  6  2  1  0  0  0  0
  7  9  1  0  0  0  0
  8  9  2  0  0  0  0
  9 13  1  0  0  0  0
 10  8  1  0  0  0  0
 11 10  2  0  0  0  0
 11 12  1  0  0  0  0
 12  7  2  0  0  0  0
 13 14  1  0  0  0  0
 14 20  1  0  0  0  0
 14 17  1  1  0  0  0
 15 18  1  0  0  0  0
 15 14  1  0  0  0  0
 16 18  1  0  0  0  0
 16 19  1  0  0  0  0
 19 20  1  0  0  0  0
 20 22  1  1  0  0  0
 21 26  1  0  0  0  0
 22 25  1  0  0  0  0
 22 21  2  0  0  0  0
 24 23  1  0  0  0  0
 25 24  2  0  0  0  0
 26 23  2  0  0  0  0
 27 32  1  6  0  0  0
 27 16  1  0  0  0  0
 28 27  1  0  0  0  0
 29 28  1  0  0  0  0
 30 28  2  0  0  0  0
 31 32  1  0  0  0  0
 33 37  1  0  0  0  0
 34 35  1  0  0  0  0
 34 33  1  0  0  0  0
 36 34  2  0  0  0  0
 36 33  1  0  0  0  0
 37 38  1  0  0  0  0
 38 39  1  0  0  0  0
 39 40  3  0  0  0  0
 40 41  1  0  0  0  0
 41 42  1  0  0  0  0
 42 50  1  0  0  0  0
 43 46  1  0  0  0  0
 43 49  1  0  0  0  0
 44 43  2  0  0  0  0
 45 44  1  0  0  0  0
 45 47  1  0  0  0  0
 47 42  1  0  0  0  0
 47 48  2  0  0  0  0
 48 49  1  0  0  0  0
 50 51  1  0  0  0  0
 51 53  1  0  0  0  0
 53 52  2  0  0  0  0
 53 55  1  0  0  0  0
 55 54  2  0  0  0  0
 55 56  1  0  0  0  0
 58 57  1  0  0  0  0
M  END
>  <MODEL>
1

>  <REMARK>
 VINA RESULT:      -7.3      0.000      0.000
  Name = 
  19 active torsions:
  status: ('A' for Active; 'I' for Inactive)
    1  A    between atoms: C_4  and  S_14
    2  A    between atoms: N_5  and  N_56
    3  A    between atoms: C_8  and  O_37
    4  A    between atoms: S_14  and  C_27
    5  A    between atoms: C_17  and  N_23
    6  A    between atoms: C_18  and  C_19
    7  A    between atoms: C_19  and  N_56
    8  A    between atoms: C_20  and  C_43
    9  A    between atoms: N_21  and  C_30
   10  A    between atoms: C_25  and  C_49
   11  A    between atoms: C_29  and  N_48
   12  A    between atoms: C_30  and  C_31
   13  A    between atoms: C_30  and  C_40
   14  A    between atoms: N_35  and  C_47
   15  A    between atoms: N_35  and  N_48
   16  A    between atoms: N_45  and  C_55
   17  A    between atoms: C_46  and  N_48
   18  A    between atoms: C_46  and  O_54
   19  A    between atoms: C_49  and  O_54
                            x       y       z     vdW  Elec       q    Type
                         _______ _______ _______ _____ _____    ______ ____

>  <TORSDO>
F 19

$$$$
=
 OpenBabel11032421233D

 58 63  0  0  1  0  0  0  0  0999 V2000
  189.7720  177.4920  144.0780 N   0  0  0  0  0  0  0  0  0  0  0  0
  187.8480  177.7960  141.9920 C   0  0  2  0  0  3  0  0  0  0  0  0
  187.4410  177.5200  143.4210 C   0  0  0  0  0  0  0  0  0  0  0  0
  188.3740  177.4080  144.3780 C   0  0  0  0  0  3  0  0  0  0  0  0
  190.2080  177.5720  142.8590 C   0  0  0  0  0  3  0  0  0  0  0  0
  189.2960  177.5990  141.7520 N   0  0  0  0  0  0  0  0  0  0  0  0
  188.9950  177.6540  139.2900 C   0  0  0  0  0  3  0  0  0  0  0  0
  190.7910  176.9960  137.8120 C   0  0  0  0  0  3  0  0  0  0  0  0
  189.4870  177.4570  137.9970 C   0  0  0  0  0  0  0  0  0  0  0  0
  191.6060  176.7580  138.9180 C   0  0  0  0  0  3  0  0  0  0  0  0
  191.1150  176.9670  140.2080 C   0  0  0  0  0  3  0  0  0  0  0  0
  189.8000  177.4110  140.4170 C   0  0  0  0  0  0  0  0  0  0  0  0
  188.4260  177.6840  136.5670 S   0  0  0  0  0  0  0  0  0  0  0  0
  188.7030  176.0660  135.7570 C   0  0  2  0  0  0  0  0  0  0  0  0
  190.0680  176.0720  135.0600 C   0  0  0  0  0  2  0  0  0  0  0  0
  190.7140  173.8220  135.9830 N   0  0  0  0  0  0  0  0  0  0  0  0
  187.7030  175.8520  134.8050 O   0  0  0  0  0  1  0  0  0  0  0  0
  190.4950  174.6340  134.7650 C   0  0  0  0  0  2  0  0  0  0  0  0
  190.0270  174.3430  137.1790 C   0  0  0  0  0  2  0  0  0  0  0  0
  188.6580  174.9720  136.8630 C   0  0  2  0  0  3  0  0  0  0  0  0
  186.2700  174.3270  137.2920 C   0  0  0  0  0  3  0  0  0  0  0  0
  187.5240  173.9750  136.7670 C   0  0  0  0  0  0  0  0  0  0  0  0
  185.3570  172.2200  136.5250 C   0  0  0  0  0  3  0  0  0  0  0  0
  186.6000  171.8740  135.9870 C   0  0  0  0  0  3  0  0  0  0  0  0
  187.6750  172.7520  136.1000 C   0  0  0  0  0  3  0  0  0  0  0  0
  185.1870  173.4510  137.1730 C   0  0  0  0  0  3  0  0  0  0  0  0
  192.1260  173.6530  136.3760 C   0  0  2  0  0  3  0  0  0  0  0  0
  193.0750  174.7420  135.9320 C   0  0  0  0  0  0  0  0  0  0  0  0
  193.4650  174.8440  134.5950 O   0  0  0  0  0  0  0  0  0  0  0  0
  193.5660  175.5430  136.7770 O   0  0  0  0  0  1  0  0  0  0  0  0
  191.6370  171.5850  135.2500 O   0  0  0  0  0  1  0  0  0  0  0  0
  192.6320  172.2790  135.9440 C   0  0  0  0  0  2  0  0  0  0  0  0
  184.2980  179.0440  145.1270 N   0  0  0  0  0  0  0  0  0  0  0  0
  185.4370  178.4550  144.6080 C   0  0  0  0  0  0  0  0  0  0  0  0
  186.0470  177.4910  143.7480 N   0  0  0  0  0  2  0  0  0  0  0  0
  185.5530  179.4460  145.5090 N   0  0  0  0  0  0  0  0  0  0  0  0
  182.9040  179.1460  145.2410 N   0  0  0  0  0  2  0  0  0  0  0  0
  182.3130  178.3020  144.2030 C   0  0  0  0  0  2  0  0  0  0  0  0
  181.5120  179.1030  143.2650 C   0  0  0  0  0  0  0  0  0  0  0  0
  180.8770  179.7470  142.4650 C   0  0  0  0  0  0  0  0  0  0  0  0
  180.1640  180.4850  141.5090 N   0  0  0  0  0  2  0  0  0  0  0  0
  180.1220  180.1590  140.1350 N   0  0  0  0  0  0  0  0  0  0  0  0
  182.4210  176.7100  139.1740 C   0  0  0  0  0  0  0  0  0  0  0  0
  183.0590  177.8490  139.4660 C   0  0  0  0  0  3  0  0  0  0  0  0
  182.3600  179.1820  139.3280 C   0  0  0  0  0  2  0  0  0  0  0  0
  183.0810  175.5270  139.2660 F   0  0  0  0  0  0  0  0  0  0  0  0
  180.8710  179.0620  139.5980 C   0  0  0  0  0  0  0  0  0  0  0  0
  180.2560  177.9000  139.3200 C   0  0  0  0  0  3  0  0  0  0  0  0
  180.9900  176.7420  138.7030 C   0  0  0  0  0  2  0  0  0  0  0  0
  179.4680  181.0990  139.2140 C   0  0  0  0  0  2  0  0  0  0  0  0
  180.4540  181.8160  138.4890 O   0  0  0  0  0  0  0  0  0  0  0  0
  179.5110  183.9200  138.3600 O   0  0  0  0  0  0  0  0  0  0  0  0
  180.1470  182.9890  137.7890 C   0  0  0  0  0  0  0  0  0  0  0  0
  180.9920  184.2790  135.9060 C   0  0  0  0  0  2  0  0  0  0  0  0
  180.5360  183.1250  136.3750 C   0  0  0  0  0  0  0  0  0  0  0  0
  180.5530  181.9320  135.4790 C   0  0  0  0  0  1  0  0  0  0  0  0
  186.2450  179.0110  141.0420 C   0  0  0  0  0  1  0  0  0  0  0  0
  187.4920  179.1100  141.6560 O   0  0  0  0  0  0  0  0  0  0  0  0
  1  4  1  0  0  0  0
  2 58  1  1  0  0  0
  2  3  1  0  0  0  0
  3 35  1  0  0  0  0
  3  4  2  0  0  0  0
  5  1  2  0  0  0  0
  6  2  1  0  0  0  0
  6  5  1  0  0  0  0
  7 12  1  0  0  0  0
  8  9  1  0  0  0  0
  8 10  2  0  0  0  0
  9  7  2  0  0  0  0
 10 11  1  0  0  0  0
 11 12  2  0  0  0  0
 12  6  1  0  0  0  0
 13  9  1  0  0  0  0
 14 17  1  6  0  0  0
 14 13  1  0  0  0  0
 14 20  1  0  0  0  0
 15 14  1  0  0  0  0
 16 27  1  0  0  0  0
 16 19  1  0  0  0  0
 18 15  1  0  0  0  0
 18 16  1  0  0  0  0
 20 22  1  6  0  0  0
 20 19  1  0  0  0  0
 22 21  2  0  0  0  0
 23 26  2  0  0  0  0
 24 25  2  0  0  0  0
 24 23  1  0  0  0  0
 25 22  1  0  0  0  0
 26 21  1  0  0  0  0
 27 32  1  6  0  0  0
 28 27  1  0  0  0  0
 28 30  1  0  0  0  0
 29 28  2  0  0  0  0
 31 32  1  0  0  0  0
 33 37  1  0  0  0  0
 33 36  1  0  0  0  0
 34 33  1  0  0  0  0
 34 36  2  0  0  0  0
 35 34  1  0  0  0  0
 38 37  1  0  0  0  0
 39 38  1  0  0  0  0
 40 39  3  0  0  0  0
 41 40  1  0  0  0  0
 42 41  1  0  0  0  0
 43 46  1  0  0  0  0
 43 44  2  0  0  0  0
 45 44  1  0  0  0  0
 45 47  1  0  0  0  0
 47 42  1  0  0  0  0
 48 47  2  0  0  0  0
 49 43  1  0  0  0  0
 49 48  1  0  0  0  0
 50 42  1  0  0  0  0
 51 50  1  0  0  0  0
 53 52  2  0  0  0  0
 53 51  1  0  0  0  0
 54 55  2  0  0  0  0
 55 53  1  0  0  0  0
 56 55  1  0  0  0  0
 57 58  1  0  0  0  0
M  END
>  <MODEL>
2

>  <REMARK>
 VINA RESULT:      -6.0      3.105     10.560
  Name = 
  19 active torsions:
  status: ('A' for Active; 'I' for Inactive)
    1  A    between atoms: C_4  and  S_14
    2  A    between atoms: N_5  and  N_56
    3  A    between atoms: C_8  and  O_37
    4  A    between atoms: S_14  and  C_27
    5  A    between atoms: C_17  and  N_23
    6  A    between atoms: C_18  and  C_19
    7  A    between atoms: C_19  and  N_56
    8  A    between atoms: C_20  and  C_43
    9  A    between atoms: N_21  and  C_30
   10  A    between atoms: C_25  and  C_49
   11  A    between atoms: C_29  and  N_48
   12  A    between atoms: C_30  and  C_31
   13  A    between atoms: C_30  and  C_40
   14  A    between atoms: N_35  and  C_47
   15  A    between atoms: N_35  and  N_48
   16  A    between atoms: N_45  and  C_55
   17  A    between atoms: C_46  and  N_48
   18  A    between atoms: C_46  and  O_54
   19  A    between atoms: C_49  and  O_54
                            x       y       z     vdW  Elec       q    Type
                         _______ _______ _______ _____ _____    ______ ____

>  <TORSDO>
F 19

$$$$
=
 OpenBabel11032421233D

 58 63  0  0  1  0  0  0  0  0999 V2000
  190.2230  176.9860  147.3440 N   0  0  0  0  0  0  0  0  0  0  0  0
  189.2480  177.3220  144.6830 C   0  0  2  0  0  3  0  0  0  0  0  0
  190.7260  177.3280  144.9990 C   0  0  0  0  0  0  0  0  0  0  0  0
  191.1460  177.1420  146.2590 C   0  0  0  0  0  3  0  0  0  0  0  0
  188.9450  177.1240  147.1810 C   0  0  0  0  0  3  0  0  0  0  0  0
  188.3960  177.4230  145.8890 N   0  0  0  0  0  0  0  0  0  0  0  0
  186.5720  178.6130  144.7010 C   0  0  0  0  0  3  0  0  0  0  0  0
  184.3380  178.6810  145.6220 C   0  0  0  0  0  3  0  0  0  0  0  0
  185.2390  179.0250  144.6130 C   0  0  0  0  0  0  0  0  0  0  0  0
  184.7650  177.9080  146.7000 C   0  0  0  0  0  3  0  0  0  0  0  0
  186.0940  177.4890  146.7790 C   0  0  0  0  0  3  0  0  0  0  0  0
  187.0210  177.8390  145.7850 C   0  0  0  0  0  0  0  0  0  0  0  0
  184.6940  180.0860  143.2720 S   0  0  0  0  0  0  0  0  0  0  0  0
  184.3170  178.7920  142.0320 C   0  0  2  0  0  0  0  0  0  0  0  0
  182.8380  178.4040  142.1340 C   0  0  0  0  0  2  0  0  0  0  0  0
  182.4850  178.5170  139.6450 N   0  0  0  0  0  0  0  0  0  0  0  0
  185.1060  177.6680  142.2880 O   0  0  0  0  0  1  0  0  0  0  0  0
  182.4150  177.6730  140.8590 C   0  0  0  0  0  2  0  0  0  0  0  0
  183.3850  179.6780  139.7750 C   0  0  0  0  0  2  0  0  0  0  0  0
  184.6330  179.3810  140.6260 C   0  0  2  0  0  3  0  0  0  0  0  0
  185.5230  178.2880  138.5490 C   0  0  0  0  0  3  0  0  0  0  0  0
  185.7600  178.7190  139.8650 C   0  0  0  0  0  0  0  0  0  0  0  0
  187.8330  177.5860  138.3630 C   0  0  0  0  0  3  0  0  0  0  0  0
  188.0760  178.0290  139.6670 C   0  0  0  0  0  3  0  0  0  0  0  0
  187.0450  178.6010  140.4090 C   0  0  0  0  0  3  0  0  0  0  0  0
  186.5570  177.7210  137.7980 C   0  0  0  0  0  3  0  0  0  0  0  0
  181.1930  179.0630  139.1880 C   0  0  2  0  0  3  0  0  0  0  0  0
  179.9650  178.5590  139.9100 C   0  0  0  0  0  0  0  0  0  0  0  0
  179.5310  179.1720  141.0880 O   0  0  0  0  0  1  0  0  0  0  0  0
  179.3450  177.5450  139.4820 O   0  0  0  0  0  0  0  0  0  0  0  0
  181.8520  177.8310  137.2310 O   0  0  0  0  0  1  0  0  0  0  0  0
  181.0490  178.8830  137.6790 C   0  0  0  0  0  2  0  0  0  0  0  0
  191.6620  176.9680  141.2430 N   0  0  0  0  0  0  0  0  0  0  0  0
  191.3540  176.9980  142.5920 C   0  0  0  0  0  0  0  0  0  0  0  0
  191.6630  177.4240  143.9200 N   0  0  0  0  0  2  0  0  0  0  0  0
  190.5550  176.3280  141.7430 N   0  0  0  0  0  0  0  0  0  0  0  0
  192.4910  177.2890  140.1590 N   0  0  0  0  0  2  0  0  0  0  0  0
  191.6420  177.4070  138.9740 C   0  0  0  0  0  2  0  0  0  0  0  0
  191.1890  176.0850  138.5180 C   0  0  0  0  0  0  0  0  0  0  0  0
  190.8220  175.0110  138.1050 C   0  0  0  0  0  0  0  0  0  0  0  0
  190.3960  173.7770  137.5920 N   0  0  0  0  0  2  0  0  0  0  0  0
  189.7850  173.6200  136.3280 N   0  0  0  0  0  0  0  0  0  0  0  0
  185.5720  174.2110  136.4400 C   0  0  0  0  0  0  0  0  0  0  0  0
  186.0760  173.0650  136.9140 C   0  0  0  0  0  3  0  0  0  0  0  0
  187.4370  172.5810  136.4730 C   0  0  0  0  0  2  0  0  0  0  0  0
  184.3300  174.6070  136.8190 F   0  0  0  0  0  0  0  0  0  0  0  0
  188.3670  173.7370  136.1570 C   0  0  0  0  0  0  0  0  0  0  0  0
  187.8370  174.8860  135.7050 C   0  0  0  0  0  3  0  0  0  0  0  0
  186.3620  175.0360  135.4570 C   0  0  0  0  0  2  0  0  0  0  0  0
  190.6010  173.1150  135.2160 C   0  0  0  0  0  2  0  0  0  0  0  0
  191.9510  173.5110  135.3990 O   0  0  0  0  0  0  0  0  0  0  0  0
  192.7390  171.3430  135.5180 O   0  0  0  0  0  0  0  0  0  0  0  0
  192.9640  172.5790  135.6530 C   0  0  0  0  0  0  0  0  0  0  0  0
  195.0500  172.2590  136.8660 C   0  0  0  0  0  2  0  0  0  0  0  0
  194.2860  173.0380  136.1110 C   0  0  0  0  0  0  0  0  0  0  0  0
  194.8480  174.3310  135.6220 C   0  0  0  0  0  1  0  0  0  0  0  0
  187.8840  176.5010  143.1300 C   0  0  0  0  0  1  0  0  0  0  0  0
  188.9300  176.1520  143.9800 O   0  0  0  0  0  0  0  0  0  0  0  0
  2 58  1  1  0  0  0
  2  3  1  0  0  0  0
  2  6  1  0  0  0  0
  3  4  2  0  0  0  0
  4  1  1  0  0  0  0
  5  1  2  0  0  0  0
  6  5  1  0  0  0  0
  7 12  1  0  0  0  0
  8 10  2  0  0  0  0
  9  7  2  0  0  0  0
  9  8  1  0  0  0  0
 10 11  1  0  0  0  0
 12  6  1  0  0  0  0
 12 11  2  0  0  0  0
 13  9  1  0  0  0  0
 14 15  1  0  0  0  0
 14 17  1  1  0  0  0
 14 13  1  0  0  0  0
 16 19  1  0  0  0  0
 16 18  1  0  0  0  0
 18 15  1  0  0  0  0
 19 20  1  0  0  0  0
 20 22  1  6  0  0  0
 20 14  1  0  0  0  0
 21 22  1  0  0  0  0
 22 25  2  0  0  0  0
 23 24  2  0  0  0  0
 24 25  1  0  0  0  0
 26 23  1  0  0  0  0
 26 21  2  0  0  0  0
 27 32  1  6  0  0  0
 27 16  1  0  0  0  0
 27 28  1  0  0  0  0
 28 29  1  0  0  0  0
 30 28  2  0  0  0  0
 31 32  1  0  0  0  0
 33 36  1  0  0  0  0
 33 34  1  0  0  0  0
 34 35  1  0  0  0  0
 35  3  1  0  0  0  0
 36 34  2  0  0  0  0
 37 33  1  0  0  0  0
 38 37  1  0  0  0  0
 39 38  1  0  0  0  0
 40 39  3  0  0  0  0
 41 40  1  0  0  0  0
 42 41  1  0  0  0  0
 43 46  1  0  0  0  0
 43 44  2  0  0  0  0
 45 44  1  0  0  0  0
 47 42  1  0  0  0  0
 47 45  1  0  0  0  0
 48 47  2  0  0  0  0
 49 48  1  0  0  0  0
 49 43  1  0  0  0  0
 50 51  1  0  0  0  0
 50 42  1  0  0  0  0
 51 53  1  0  0  0  0
 52 53  2  0  0  0  0
 53 55  1  0  0  0  0
 55 54  2  0  0  0  0
 56 55  1  0  0  0  0
 57 58  1  0  0  0  0
M  END
>  <MODEL>
3

>  <REMARK>
 VINA RESULT:      -5.8      3.021      8.237
  Name = 
  19 active torsions:
  status: ('A' for Active; 'I' for Inactive)
    1  A    between atoms: C_4  and  S_14
    2  A    between atoms: N_5  and  N_56
    3  A    between atoms: C_8  and  O_37
    4  A    between atoms: S_14  and  C_27
    5  A    between atoms: C_17  and  N_23
    6  A    between atoms: C_18  and  C_19
    7  A    between atoms: C_19  and  N_56
    8  A    between atoms: C_20  and  C_43
    9  A    between atoms: N_21  and  C_30
   10  A    between atoms: C_25  and  C_49
   11  A    between atoms: C_29  and  N_48
   12  A    between atoms: C_30  and  C_31
   13  A    between atoms: C_30  and  C_40
   14  A    between atoms: N_35  and  C_47
   15  A    between atoms: N_35  and  N_48
   16  A    between atoms: N_45  and  C_55
   17  A    between atoms: C_46  and  N_48
   18  A    between atoms: C_46  and  O_54
   19  A    between atoms: C_49  and  O_54
                            x       y       z     vdW  Elec       q    Type
                         _______ _______ _______ _____ _____    ______ ____

>  <TORSDO>
F 19

$$$$
=
 OpenBabel11032421233D

 58 63  0  0  1  0  0  0  0  0999 V2000
  190.1470  177.2620  147.4360 N   0  0  0  0  0  0  0  0  0  0  0  0
  189.1570  177.6610  144.7890 C   0  0  2  0  0  3  0  0  0  0  0  0
  190.6330  177.7260  145.1090 C   0  0  0  0  0  0  0  0  0  0  0  0
  191.0610  177.5080  146.3610 C   0  0  0  0  0  3  0  0  0  0  0  0
  188.8630  177.3440  147.2760 C   0  0  0  0  0  3  0  0  0  0  0  0
  188.3000  177.6690  145.9960 N   0  0  0  0  0  0  0  0  0  0  0  0
  186.4020  178.7310  144.8030 C   0  0  0  0  0  3  0  0  0  0  0  0
  184.1860  178.7400  145.7690 C   0  0  0  0  0  3  0  0  0  0  0  0
  185.0510  179.0820  144.7290 C   0  0  0  0  0  0  0  0  0  0  0  0
  184.6690  178.0290  146.8670 C   0  0  0  0  0  3  0  0  0  0  0  0
  186.0160  177.6710  146.9330 C   0  0  0  0  0  3  0  0  0  0  0  0
  186.9070  178.0210  145.9070 C   0  0  0  0  0  0  0  0  0  0  0  0
  184.4330  180.0650  143.3600 S   0  0  0  0  0  0  0  0  0  0  0  0
  184.2660  178.7320  142.1150 C   0  0  2  0  0  0  0  0  0  0  0  0
  182.8130  178.2490  142.0770 C   0  0  0  0  0  2  0  0  0  0  0  0
  182.7070  178.3040  139.5630 N   0  0  0  0  0  0  0  0  0  0  0  0
  185.0960  177.6660  142.4720 O   0  0  0  0  0  1  0  0  0  0  0  0
  182.5690  177.4740  140.7810 C   0  0  0  0  0  2  0  0  0  0  0  0
  183.5130  179.5230  139.7590 C   0  0  0  0  0  2  0  0  0  0  0  0
  184.6850  179.3210  140.7370 C   0  0  2  0  0  3  0  0  0  0  0  0
  187.1300  178.7580  140.8230 C   0  0  0  0  0  3  0  0  0  0  0  0
  185.9230  178.7230  140.1060 C   0  0  0  0  0  0  0  0  0  0  0  0
  188.2250  177.5370  139.0410 C   0  0  0  0  0  3  0  0  0  0  0  0
  187.0210  177.4860  138.3320 C   0  0  0  0  0  3  0  0  0  0  0  0
  185.8750  178.0690  138.8670 C   0  0  0  0  0  3  0  0  0  0  0  0
  188.2810  178.1680  140.2920 C   0  0  0  0  0  3  0  0  0  0  0  0
  181.4360  178.7580  138.9680 C   0  0  2  0  0  3  0  0  0  0  0  0
  180.8620  177.8810  137.8780 C   0  0  0  0  0  0  0  0  0  0  0  0
  181.2870  178.0200  136.5550 O   0  0  0  0  0  0  0  0  0  0  0  0
  179.9520  177.0450  138.1460 O   0  0  0  0  0  1  0  0  0  0  0  0
  180.4050  180.9230  138.8020 O   0  0  0  0  0  1  0  0  0  0  0  0
  181.5620  180.2030  138.4940 C   0  0  0  0  0  2  0  0  0  0  0  0
  191.8290  177.0730  141.4680 N   0  0  0  0  0  0  0  0  0  0  0  0
  191.4540  177.2210  142.7910 C   0  0  0  0  0  0  0  0  0  0  0  0
  191.5640  177.9120  144.0370 N   0  0  0  0  0  2  0  0  0  0  0  0
  190.9140  176.2350  142.0550 N   0  0  0  0  0  0  0  0  0  0  0  0
  192.5960  177.4430  140.3540 N   0  0  0  0  0  2  0  0  0  0  0  0
  191.6870  177.5690  139.2150 C   0  0  0  0  0  2  0  0  0  0  0  0
  191.4930  176.2710  138.5510 C   0  0  0  0  0  0  0  0  0  0  0  0
  191.3300  175.2250  137.9700 C   0  0  0  0  0  0  0  0  0  0  0  0
  191.1330  174.0280  137.2660 N   0  0  0  0  0  2  0  0  0  0  0  0
  190.2570  173.9000  136.1650 N   0  0  0  0  0  0  0  0  0  0  0  0
  187.1180  171.1030  135.5090 C   0  0  0  0  0  0  0  0  0  0  0  0
  187.0250  171.9450  136.5450 C   0  0  0  0  0  3  0  0  0  0  0  0
  188.2610  172.5920  137.1250 C   0  0  0  0  0  2  0  0  0  0  0  0
  185.9990  170.5020  135.0290 F   0  0  0  0  0  0  0  0  0  0  0  0
  189.3250  172.8170  136.0660 C   0  0  0  0  0  0  0  0  0  0  0  0
  189.3830  171.9730  135.0220 C   0  0  0  0  0  3  0  0  0  0  0  0
  188.4620  170.7900  134.9050 C   0  0  0  0  0  2  0  0  0  0  0  0
  190.4620  174.7760  135.0030 C   0  0  0  0  0  2  0  0  0  0  0  0
  189.2190  175.3210  134.5940 O   0  0  0  0  0  0  0  0  0  0  0  0
  189.4520  177.2450  135.8500 O   0  0  0  0  0  0  0  0  0  0  0  0
  188.7050  176.4930  135.1610 C   0  0  0  0  0  0  0  0  0  0  0  0
  186.9210  178.0520  134.6020 C   0  0  0  0  0  2  0  0  0  0  0  0
  187.2830  176.8340  134.9840 C   0  0  0  0  0  0  0  0  0  0  0  0
  186.2350  175.7790  135.0990 C   0  0  0  0  0  1  0  0  0  0  0  0
  187.5560  176.5950  143.6720 C   0  0  0  0  0  1  0  0  0  0  0  0
  188.8970  176.5070  144.0370 O   0  0  0  0  0  0  0  0  0  0  0  0
  2 58  1  1  0  0  0
  2  3  1  0  0  0  0
  2  6  1  0  0  0  0
  3  4  2  0  0  0  0
  4  1  1  0  0  0  0
  5  1  2  0  0  0  0
  6  5  1  0  0  0  0
  7 12  1  0  0  0  0
  8 10  2  0  0  0  0
  9  7  2  0  0  0  0
  9  8  1  0  0  0  0
 10 11  1  0  0  0  0
 12  6  1  0  0  0  0
 12 11  2  0  0  0  0
 13  9  1  0  0  0  0
 14 17  1  1  0  0  0
 14 13  1  0  0  0  0
 15 14  1  0  0  0  0
 16 19  1  0  0  0  0
 16 18  1  0  0  0  0
 18 15  1  0  0  0  0
 19 20  1  0  0  0  0
 20 22  1  6  0  0  0
 20 14  1  0  0  0  0
 22 21  2  0  0  0  0
 23 26  2  0  0  0  0
 24 25  2  0  0  0  0
 24 23  1  0  0  0  0
 25 22  1  0  0  0  0
 26 21  1  0  0  0  0
 27 32  1  6  0  0  0
 27 16  1  0  0  0  0
 28 30  1  0  0  0  0
 28 27  1  0  0  0  0
 29 28  2  0  0  0  0
 32 31  1  0  0  0  0
 33 36  1  0  0  0  0
 33 34  1  0  0  0  0
 34 35  1  0  0  0  0
 35  3  1  0  0  0  0
 36 34  2  0  0  0  0
 37 33  1  0  0  0  0
 38 37  1  0  0  0  0
 39 38  1  0  0  0  0
 40 39  3  0  0  0  0
 41 40  1  0  0  0  0
 42 41  1  0  0  0  0
 43 44  2  0  0  0  0
 44 45  1  0  0  0  0
 46 43  1  0  0  0  0
 47 42  1  0  0  0  0
 47 45  1  0  0  0  0
 48 47  2  0  0  0  0
 49 48  1  0  0  0  0
 49 43  1  0  0  0  0
 50 42  1  0  0  0  0
 51 50  1  0  0  0  0
 51 53  1  0  0  0  0
 53 52  2  0  0  0  0
 54 55  2  0  0  0  0
 55 56  1  0  0  0  0
 55 53  1  0  0  0  0
 57 58  1  0  0  0  0
M  END
>  <MODEL>
4

>  <REMARK>
 VINA RESULT:      -5.5      2.874      8.429
  Name = 
  19 active torsions:
  status: ('A' for Active; 'I' for Inactive)
    1  A    between atoms: C_4  and  S_14
    2  A    between atoms: N_5  and  N_56
    3  A    between atoms: C_8  and  O_37
    4  A    between atoms: S_14  and  C_27
    5  A    between atoms: C_17  and  N_23
    6  A    between atoms: C_18  and  C_19
    7  A    between atoms: C_19  and  N_56
    8  A    between atoms: C_20  and  C_43
    9  A    between atoms: N_21  and  C_30
   10  A    between atoms: C_25  and  C_49
   11  A    between atoms: C_29  and  N_48
   12  A    between atoms: C_30  and  C_31
   13  A    between atoms: C_30  and  C_40
   14  A    between atoms: N_35  and  C_47
   15  A    between atoms: N_35  and  N_48
   16  A    between atoms: N_45  and  C_55
   17  A    between atoms: C_46  and  N_48
   18  A    between atoms: C_46  and  O_54
   19  A    between atoms: C_49  and  O_54
                            x       y       z     vdW  Elec       q    Type
                         _______ _______ _______ _____ _____    ______ ____

>  <TORSDO>
F 19

$$$$
=
 OpenBabel11032421233D

 58 63  0  0  1  0  0  0  0  0999 V2000
  186.8480  178.8230  147.8100 N   0  0  0  0  0  0  0  0  0  0  0  0
  186.4920  178.0300  145.0910 C   0  0  2  0  0  3  0  0  0  0  0  0
  185.3380  178.0900  146.0640 C   0  0  0  0  0  0  0  0  0  0  0  0
  185.5410  178.4920  147.3270 C   0  0  0  0  0  3  0  0  0  0  0  0
  187.9100  178.6490  147.0870 C   0  0  0  0  0  3  0  0  0  0  0  0
  187.8140  178.1300  145.7520 N   0  0  0  0  0  0  0  0  0  0  0  0
  188.9440  176.9730  143.8710 C   0  0  0  0  0  3  0  0  0  0  0  0
  191.3540  176.8020  143.7950 C   0  0  0  0  0  3  0  0  0  0  0  0
  190.1060  176.5380  143.2290 C   0  0  0  0  0  0  0  0  0  0  0  0
  191.4360  177.5200  144.9880 C   0  0  0  0  0  3  0  0  0  0  0  0
  190.2740  177.9630  145.6200 C   0  0  0  0  0  3  0  0  0  0  0  0
  189.0080  177.6910  145.0780 C   0  0  0  0  0  0  0  0  0  0  0  0
  190.0130  175.5450  141.7360 S   0  0  0  0  0  0  0  0  0  0  0  0
  190.6000  176.7960  140.5350 C   0  0  2  0  0  0  0  0  0  0  0  0
  192.1240  176.9230  140.6340 C   0  0  0  0  0  2  0  0  0  0  0  0
  192.4400  176.8350  138.1380 N   0  0  0  0  0  0  0  0  0  0  0  0
  190.0150  178.0290  140.8350 O   0  0  0  0  0  1  0  0  0  0  0  0
  192.6590  177.6130  139.3780 C   0  0  0  0  0  2  0  0  0  0  0  0
  191.3550  175.8410  138.2410 C   0  0  0  0  0  2  0  0  0  0  0  0
  190.1800  176.3170  139.1140 C   0  0  2  0  0  3  0  0  0  0  0  0
  189.5920  177.8640  137.2260 C   0  0  0  0  0  3  0  0  0  0  0  0
  189.1800  177.1870  138.3860 C   0  0  0  0  0  0  0  0  0  0  0  0
  187.3480  178.7260  136.9320 C   0  0  0  0  0  3  0  0  0  0  0  0
  186.9310  178.0410  138.0770 C   0  0  0  0  0  3  0  0  0  0  0  0
  187.8420  177.2680  138.7940 C   0  0  0  0  0  3  0  0  0  0  0  0
  188.6780  178.6340  136.5000 C   0  0  0  0  0  3  0  0  0  0  0  0
  193.6170  176.0920  137.6510 C   0  0  2  0  0  3  0  0  0  0  0  0
  194.0270  176.3600  136.2200 C   0  0  0  0  0  0  0  0  0  0  0  0
  195.0490  177.2660  135.9310 O   0  0  0  0  0  1  0  0  0  0  0  0
  193.4140  175.8020  135.2670 O   0  0  0  0  0  0  0  0  0  0  0  0
  194.6300  173.9120  137.6630 O   0  0  0  0  0  1  0  0  0  0  0  0
  193.4350  174.5960  137.8940 C   0  0  0  0  0  2  0  0  0  0  0  0
  182.2260  179.0020  143.9200 N   0  0  0  0  0  0  0  0  0  0  0  0
  183.2930  178.7340  144.7580 C   0  0  0  0  0  0  0  0  0  0  0  0
  184.0160  177.8190  145.5840 N   0  0  0  0  0  2  0  0  0  0  0  0
  183.1520  179.9650  144.2360 N   0  0  0  0  0  0  0  0  0  0  0  0
  181.0460  178.6230  143.2640 N   0  0  0  0  0  2  0  0  0  0  0  0
  180.4070  179.8410  142.7650 C   0  0  0  0  0  2  0  0  0  0  0  0
  180.2290  179.7820  141.3070 C   0  0  0  0  0  0  0  0  0  0  0  0
  180.0580  179.7030  140.1140 C   0  0  0  0  0  0  0  0  0  0  0  0
  179.8410  179.5790  138.7340 N   0  0  0  0  0  2  0  0  0  0  0  0
  180.7360  180.0570  137.7520 N   0  0  0  0  0  0  0  0  0  0  0  0
  180.8410  183.8450  135.8150 C   0  0  0  0  0  0  0  0  0  0  0  0
  180.9480  183.7990  137.1490 C   0  0  0  0  0  3  0  0  0  0  0  0
  180.4370  182.6060  137.9220 C   0  0  0  0  0  2  0  0  0  0  0  0
  181.2710  184.9440  135.1440 F   0  0  0  0  0  0  0  0  0  0  0  0
  180.5470  181.3260  137.1140 C   0  0  0  0  0  0  0  0  0  0  0  0
  180.4620  181.4000  135.7750 C   0  0  0  0  0  3  0  0  0  0  0  0
  180.2080  182.7010  135.0660 C   0  0  0  0  0  2  0  0  0  0  0  0
  181.7540  179.1370  137.2260 C   0  0  0  0  0  2  0  0  0  0  0  0
  182.0110  178.1190  138.1800 O   0  0  0  0  0  0  0  0  0  0  0  0
  182.7170  176.3500  136.8740 O   0  0  0  0  0  0  0  0  0  0  0  0
  182.0040  176.7630  137.8310 C   0  0  0  0  0  0  0  0  0  0  0  0
  180.7790  176.0620  139.8150 C   0  0  0  0  0  2  0  0  0  0  0  0
  181.1370  175.8210  138.5600 C   0  0  0  0  0  0  0  0  0  0  0  0
  180.5340  174.6520  137.8560 C   0  0  0  0  0  1  0  0  0  0  0  0
  186.1360  178.4250  142.9320 C   0  0  0  0  0  1  0  0  0  0  0  0
  186.3600  179.0600  144.1510 O   0  0  0  0  0  0  0  0  0  0  0  0
  2 58  1  6  0  0  0
  2  6  1  0  0  0  0
  2  3  1  0  0  0  0
  3  4  2  0  0  0  0
  4  1  1  0  0  0  0
  5  1  2  0  0  0  0
  6  5  1  0  0  0  0
  7 12  1  0  0  0  0
  8 10  2  0  0  0  0
  9  8  1  0  0  0  0
  9  7  2  0  0  0  0
 10 11  1  0  0  0  0
 12 11  2  0  0  0  0
 12  6  1  0  0  0  0
 13  9  1  0  0  0  0
 14 15  1  0  0  0  0
 14 17  1  1  0  0  0
 14 13  1  0  0  0  0
 16 19  1  0  0  0  0
 16 18  1  0  0  0  0
 18 15  1  0  0  0  0
 19 20  1  0  0  0  0
 20 22  1  6  0  0  0
 20 14  1  0  0  0  0
 21 22  1  0  0  0  0
 22 25  2  0  0  0  0
 23 24  2  0  0  0  0
 24 25  1  0  0  0  0
 26 23  1  0  0  0  0
 26 21  2  0  0  0  0
 27 32  1  6  0  0  0
 27 16  1  0  0  0  0
 28 27  1  0  0  0  0
 29 28  1  0  0  0  0
 30 28  2  0  0  0  0
 31 32  1  0  0  0  0
 33 36  1  0  0  0  0
 33 34  1  0  0  0  0
 34 35  1  0  0  0  0
 35  3  1  0  0  0  0
 36 34  2  0  0  0  0
 37 33  1  0  0  0  0
 38 37  1  0  0  0  0
 39 38  1  0  0  0  0
 40 39  3  0  0  0  0
 41 40  1  0  0  0  0
 42 41  1  0  0  0  0
 43 44  2  0  0  0  0
 44 45  1  0  0  0  0
 46 43  1  0  0  0  0
 47 42  1  0  0  0  0
 47 45  1  0  0  0  0
 48 47  2  0  0  0  0
 49 48  1  0  0  0  0
 49 43  1  0  0  0  0
 50 42  1  0  0  0  0
 50 51  1  0  0  0  0
 52 53  2  0  0  0  0
 53 51  1  0  0  0  0
 53 55  1  0  0  0  0
 55 54  2  0  0  0  0
 56 55  1  0  0  0  0
 57 58  1  0  0  0  0
M  END
>  <MODEL>
5

>  <REMARK>
 VINA RESULT:      -5.5      3.484     11.363
  Name = 
  19 active torsions:
  status: ('A' for Active; 'I' for Inactive)
    1  A    between atoms: C_4  and  S_14
    2  A    between atoms: N_5  and  N_56
    3  A    between atoms: C_8  and  O_37
    4  A    between atoms: S_14  and  C_27
    5  A    between atoms: C_17  and  N_23
    6  A    between atoms: C_18  and  C_19
    7  A    between atoms: C_19  and  N_56
    8  A    between atoms: C_20  and  C_43
    9  A    between atoms: N_21  and  C_30
   10  A    between atoms: C_25  and  C_49
   11  A    between atoms: C_29  and  N_48
   12  A    between atoms: C_30  and  C_31
   13  A    between atoms: C_30  and  C_40
   14  A    between atoms: N_35  and  C_47
   15  A    between atoms: N_35  and  N_48
   16  A    between atoms: N_45  and  C_55
   17  A    between atoms: C_46  and  N_48
   18  A    between atoms: C_46  and  O_54
   19  A    between atoms: C_49  and  O_54
                            x       y       z     vdW  Elec       q    Type
                         _______ _______ _______ _____ _____    ______ ____

>  <TORSDO>
F 19

$$$$
=
 OpenBabel11032421233D

 58 63  0  0  1  0  0  0  0  0999 V2000
  192.4240  176.1390  135.2720 N   0  0  0  0  0  0  0  0  0  0  0  0
  190.4140  175.0200  136.9620 C   0  0  2  0  0  3  0  0  0  0  0  0
  190.3980  174.8260  135.4630 C   0  0  0  0  0  0  0  0  0  0  0  0
  191.3740  175.3460  134.7050 C   0  0  0  0  0  3  0  0  0  0  0  0
  192.4250  176.4820  136.5220 C   0  0  0  0  0  3  0  0  0  0  0  0
  191.3730  176.0600  137.4020 N   0  0  0  0  0  0  0  0  0  0  0  0
  190.0060  177.1180  139.1820 C   0  0  0  0  0  3  0  0  0  0  0  0
  191.0340  177.9050  141.2230 C   0  0  0  0  0  3  0  0  0  0  0  0
  189.8950  177.7230  140.4370 C   0  0  0  0  0  0  0  0  0  0  0  0
  192.2730  177.4620  140.7640 C   0  0  0  0  0  3  0  0  0  0  0  0
  192.3780  176.8480  139.5150 C   0  0  0  0  0  3  0  0  0  0  0  0
  191.2490  176.6710  138.7000 C   0  0  0  0  0  0  0  0  0  0  0  0
  188.3210  178.3700  141.0070 S   0  0  0  0  0  0  0  0  0  0  0  0
  188.1360  177.3530  142.5190 C   0  0  2  0  0  0  0  0  0  0  0  0
  189.2860  176.3440  142.5990 C   0  0  0  0  0  2  0  0  0  0  0  0
  189.7490  176.8410  145.0220 N   0  0  0  0  0  0  0  0  0  0  0  0
  186.9220  176.6630  142.4610 O   0  0  0  0  0  1  0  0  0  0  0  0
  189.3920  175.8050  144.0260 C   0  0  0  0  0  2  0  0  0  0  0  0
  189.4480  178.2170  144.5860 C   0  0  0  0  0  2  0  0  0  0  0  0
  188.1660  178.3170  143.7410 C   0  0  2  0  0  3  0  0  0  0  0  0
  186.9560  178.1550  145.9340 C   0  0  0  0  0  3  0  0  0  0  0  0
  186.8930  178.4030  144.5530 C   0  0  0  0  0  0  0  0  0  0  0  0
  184.5940  178.6520  146.1300 C   0  0  0  0  0  3  0  0  0  0  0  0
  184.5320  178.9150  144.7590 C   0  0  0  0  0  3  0  0  0  0  0  0
  185.6780  178.7990  143.9770 C   0  0  0  0  0  3  0  0  0  0  0  0
  185.8080  178.2780  146.7230 C   0  0  0  0  0  3  0  0  0  0  0  0
  191.1650  176.8520  145.4330 C   0  0  2  0  0  3  0  0  0  0  0  0
  191.9860  175.6520  145.0210 C   0  0  0  0  0  0  0  0  0  0  0  0
  192.4180  175.5040  143.7010 O   0  0  0  0  0  0  0  0  0  0  0  0
  192.2500  174.7420  145.8580 O   0  0  0  0  0  1  0  0  0  0  0  0
  190.0850  176.7530  147.5790 O   0  0  0  0  0  1  0  0  0  0  0  0
  191.2760  177.0980  146.9350 C   0  0  0  0  0  2  0  0  0  0  0  0
  187.0360  172.8840  135.6730 N   0  0  0  0  0  0  0  0  0  0  0  0
  188.2780  173.4920  135.6360 C   0  0  0  0  0  0  0  0  0  0  0  0
  189.3890  173.9870  134.8870 N   0  0  0  0  0  2  0  0  0  0  0  0
  187.6820  173.2720  136.8210 N   0  0  0  0  0  0  0  0  0  0  0  0
  185.9410  172.2740  135.0440 N   0  0  0  0  0  2  0  0  0  0  0  0
  184.9940  171.8830  136.0880 C   0  0  0  0  0  2  0  0  0  0  0  0
  184.2450  173.0470  136.5830 C   0  0  0  0  0  0  0  0  0  0  0  0
  183.6430  174.0250  136.9570 C   0  0  0  0  0  0  0  0  0  0  0  0
  182.9590  175.1800  137.3650 N   0  0  0  0  0  2  0  0  0  0  0  0
  183.3790  176.4920  137.0550 N   0  0  0  0  0  0  0  0  0  0  0  0
  187.3120  178.1120  136.9550 C   0  0  0  0  0  0  0  0  0  0  0  0
  187.0210  177.0760  136.1600 C   0  0  0  0  0  3  0  0  0  0  0  0
  185.8640  176.1590  136.4810 C   0  0  0  0  0  2  0  0  0  0  0  0
  188.3810  178.8990  136.6700 F   0  0  0  0  0  0  0  0  0  0  0  0
  184.7460  176.8990  137.1930 C   0  0  0  0  0  0  0  0  0  0  0  0
  185.0590  177.9520  137.9660 C   0  0  0  0  0  3  0  0  0  0  0  0
  186.4840  178.3800  138.1850 C   0  0  0  0  0  2  0  0  0  0  0  0
  182.3520  177.5110  136.7940 C   0  0  0  0  0  2  0  0  0  0  0  0
  181.3820  177.4820  137.8280 O   0  0  0  0  0  0  0  0  0  0  0  0
  182.0230  177.3940  140.0450 O   0  0  0  0  0  0  0  0  0  0  0  0
  181.6110  178.0850  139.0710 C   0  0  0  0  0  0  0  0  0  0  0  0
  181.8740  180.4210  138.4380 C   0  0  0  0  0  2  0  0  0  0  0  0
  181.3380  179.5200  139.2530 C   0  0  0  0  0  0  0  0  0  0  0  0
  180.3460  179.9770  140.2690 C   0  0  0  0  0  1  0  0  0  0  0  0
  191.8580  173.3290  136.9250 C   0  0  0  0  0  1  0  0  0  0  0  0
  190.7260  173.8030  137.5830 O   0  0  0  0  0  0  0  0  0  0  0  0
  1  5  2  0  0  0  0
  2  6  1  0  0  0  0
  2 58  1  1  0  0  0
  3  2  1  0  0  0  0
  4  1  1  0  0  0  0
  4  3  2  0  0  0  0
  5  6  1  0  0  0  0
  6 12  1  0  0  0  0
  7  9  1  0  0  0  0
  9 13  1  0  0  0  0
  9  8  2  0  0  0  0
 10  8  1  0  0  0  0
 11 10  2  0  0  0  0
 12  7  2  0  0  0  0
 12 11  1  0  0  0  0
 13 14  1  0  0  0  0
 14 17  1  6  0  0  0
 14 15  1  0  0  0  0
 14 20  1  0  0  0  0
 15 18  1  0  0  0  0
 16 27  1  0  0  0  0
 18 16  1  0  0  0  0
 19 16  1  0  0  0  0
 20 22  1  1  0  0  0
 20 19  1  0  0  0  0
 21 26  1  0  0  0  0
 22 21  2  0  0  0  0
 23 26  2  0  0  0  0
 24 23  1  0  0  0  0
 25 22  1  0  0  0  0
 25 24  2  0  0  0  0
 27 32  1  1  0  0  0
 28 27  1  0  0  0  0
 28 30  1  0  0  0  0
 29 28  2  0  0  0  0
 32 31  1  0  0  0  0
 33 36  1  0  0  0  0
 34 33  1  0  0  0  0
 34 36  2  0  0  0  0
 35  3  1  0  0  0  0
 35 34  1  0  0  0  0
 37 33  1  0  0  0  0
 37 38  1  0  0  0  0
 38 39  1  0  0  0  0
 39 40  3  0  0  0  0
 40 41  1  0  0  0  0
 42 47  1  0  0  0  0
 42 41  1  0  0  0  0
 43 49  1  0  0  0  0
 44 45  1  0  0  0  0
 44 43  2  0  0  0  0
 45 47  1  0  0  0  0
 46 43  1  0  0  0  0
 47 48  2  0  0  0  0
 48 49  1  0  0  0  0
 50 42  1  0  0  0  0
 50 51  1  0  0  0  0
 51 53  1  0  0  0  0
 53 55  1  0  0  0  0
 53 52  2  0  0  0  0
 54 55  2  0  0  0  0
 55 56  1  0  0  0  0
 57 58  1  0  0  0  0
M  END
>  <MODEL>
6

>  <REMARK>
 VINA RESULT:      -5.2      2.701      9.275
  Name = 
  19 active torsions:
  status: ('A' for Active; 'I' for Inactive)
    1  A    between atoms: C_4  and  S_14
    2  A    between atoms: N_5  and  N_56
    3  A    between atoms: C_8  and  O_37
    4  A    between atoms: S_14  and  C_27
    5  A    between atoms: C_17  and  N_23
    6  A    between atoms: C_18  and  C_19
    7  A    between atoms: C_19  and  N_56
    8  A    between atoms: C_20  and  C_43
    9  A    between atoms: N_21  and  C_30
   10  A    between atoms: C_25  and  C_49
   11  A    between atoms: C_29  and  N_48
   12  A    between atoms: C_30  and  C_31
   13  A    between atoms: C_30  and  C_40
   14  A    between atoms: N_35  and  C_47
   15  A    between atoms: N_35  and  N_48
   16  A    between atoms: N_45  and  C_55
   17  A    between atoms: C_46  and  N_48
   18  A    between atoms: C_46  and  O_54
   19  A    between atoms: C_49  and  O_54
                            x       y       z     vdW  Elec       q    Type
                         _______ _______ _______ _____ _____    ______ ____

>  <TORSDO>
F 19

$$$$
=
 OpenBabel11032421233D

 58 63  0  0  1  0  0  0  0  0999 V2000
  188.8960  177.8780  146.6590 N   0  0  0  0  0  0  0  0  0  0  0  0
  188.5760  177.2140  143.9020 C   0  0  2  0  0  3  0  0  0  0  0  0
  189.9380  177.2880  144.5540 C   0  0  0  0  0  0  0  0  0  0  0  0
  190.0460  177.5790  145.8580 C   0  0  0  0  0  3  0  0  0  0  0  0
  187.7120  177.9880  146.1440 C   0  0  0  0  0  3  0  0  0  0  0  0
  187.5000  177.7930  144.7380 N   0  0  0  0  0  0  0  0  0  0  0  0
  186.1050  178.3450  142.7620 C   0  0  0  0  0  3  0  0  0  0  0  0
  183.7930  178.9990  143.0270 C   0  0  0  0  0  3  0  0  0  0  0  0
  184.8880  178.7400  142.2010 C   0  0  0  0  0  0  0  0  0  0  0  0
  183.9120  178.8390  144.4070 C   0  0  0  0  0  3  0  0  0  0  0  0
  185.1260  178.4330  144.9630 C   0  0  0  0  0  3  0  0  0  0  0  0
  186.2450  178.1860  144.1520 C   0  0  0  0  0  0  0  0  0  0  0  0
  184.7420  179.0260  140.4350 S   0  0  0  0  0  0  0  0  0  0  0  0
  183.1050  178.2520  140.1630 C   0  0  2  0  0  0  0  0  0  0  0  0
  182.0150  179.1300  140.7870 C   0  0  0  0  0  2  0  0  0  0  0  0
  180.5380  178.9980  138.7540 N   0  0  0  0  0  0  0  0  0  0  0  0
  183.0860  176.9940  140.7720 O   0  0  0  0  0  1  0  0  0  0  0  0
  180.6550  178.7410  140.2070 C   0  0  0  0  0  2  0  0  0  0  0  0
  181.8350  179.0870  138.0580 C   0  0  0  0  0  2  0  0  0  0  0  0
  182.8930  178.1250  138.6260 C   0  0  2  0  0  3  0  0  0  0  0  0
  183.9990  176.0580  137.7270 C   0  0  0  0  0  3  0  0  0  0  0  0
  182.8090  176.7170  138.0800 C   0  0  0  0  0  0  0  0  0  0  0  0
  182.7320  174.0720  137.1650 C   0  0  0  0  0  3  0  0  0  0  0  0
  181.5480  174.7200  137.5310 C   0  0  0  0  0  3  0  0  0  0  0  0
  181.5890  176.0330  137.9940 C   0  0  0  0  0  3  0  0  0  0  0  0
  183.9610  174.7380  137.2690 C   0  0  0  0  0  3  0  0  0  0  0  0
  179.8050  180.2250  138.3920 C   0  0  2  0  0  3  0  0  0  0  0  0
  179.6220  180.4790  136.9140 C   0  0  0  0  0  0  0  0  0  0  0  0
  180.0390  179.5360  135.9720 O   0  0  0  0  0  0  0  0  0  0  0  0
  179.1330  181.5730  136.5110 O   0  0  0  0  0  1  0  0  0  0  0  0
  181.5300  181.8990  138.3510 O   0  0  0  0  0  1  0  0  0  0  0  0
  180.4320  181.4350  139.0790 C   0  0  0  0  0  2  0  0  0  0  0  0
  192.0730  177.4830  141.3110 N   0  0  0  0  0  0  0  0  0  0  0  0
  191.2630  177.3360  142.4230 C   0  0  0  0  0  0  0  0  0  0  0  0
  191.0920  176.9350  143.7830 N   0  0  0  0  0  2  0  0  0  0  0  0
  190.7480  177.8400  141.2870 N   0  0  0  0  0  0  0  0  0  0  0  0
  193.3030  177.3380  140.6530 N   0  0  0  0  0  2  0  0  0  0  0  0
  193.0640  177.5320  139.2230 C   0  0  0  0  0  2  0  0  0  0  0  0
  192.2550  176.4350  138.6720 C   0  0  0  0  0  0  0  0  0  0  0  0
  191.5900  175.5170  138.2550 C   0  0  0  0  0  0  0  0  0  0  0  0
  190.8250  174.4320  137.8030 N   0  0  0  0  0  2  0  0  0  0  0  0
  190.1350  174.4180  136.5700 N   0  0  0  0  0  0  0  0  0  0  0  0
  187.6770  177.8370  135.9580 C   0  0  0  0  0  0  0  0  0  0  0  0
  187.4000  177.0190  136.9800 C   0  0  0  0  0  3  0  0  0  0  0  0
  187.8780  175.5850  136.9700 C   0  0  0  0  0  2  0  0  0  0  0  0
  187.2030  179.1100  135.9690 F   0  0  0  0  0  0  0  0  0  0  0  0
  189.1910  175.4390  136.2230 C   0  0  0  0  0  0  0  0  0  0  0  0
  189.4590  176.2880  135.2170 C   0  0  0  0  0  3  0  0  0  0  0  0
  188.4750  177.3380  134.7820 C   0  0  0  0  0  2  0  0  0  0  0  0
  190.2310  173.2160  135.7300 C   0  0  0  0  0  2  0  0  0  0  0  0
  191.5100  173.1640  135.1210 O   0  0  0  0  0  0  0  0  0  0  0  0
  191.9910  170.9550  134.6520 O   0  0  0  0  0  0  0  0  0  0  0  0
  192.3280  172.0330  135.2190 C   0  0  0  0  0  0  0  0  0  0  0  0
  194.0030  173.2380  136.5110 C   0  0  0  0  0  2  0  0  0  0  0  0
  193.5670  172.0880  136.0130 C   0  0  0  0  0  0  0  0  0  0  0  0
  194.2800  170.8320  136.3880 C   0  0  0  0  0  1  0  0  0  0  0  0
  188.4380  175.7480  142.2350 C   0  0  0  0  0  1  0  0  0  0  0  0
  188.2740  175.8760  143.6120 O   0  0  0  0  0  0  0  0  0  0  0  0
  2 58  1  1  0  0  0
  2  3  1  0  0  0  0
  2  6  1  0  0  0  0
  3  4  2  0  0  0  0
  4  1  1  0  0  0  0
  5  1  2  0  0  0  0
  6  5  1  0  0  0  0
  7 12  1  0  0  0  0
  8 10  2  0  0  0  0
  9  7  2  0  0  0  0
  9  8  1  0  0  0  0
 10 11  1  0  0  0  0
 12  6  1  0  0  0  0
 12 11  2  0  0  0  0
 13  9  1  0  0  0  0
 14 13  1  0  0  0  0
 14 17  1  1  0  0  0
 14 15  1  0  0  0  0
 16 18  1  0  0  0  0
 18 15  1  0  0  0  0
 19 20  1  0  0  0  0
 19 16  1  0  0  0  0
 20 22  1  1  0  0  0
 20 14  1  0  0  0  0
 21 22  1  0  0  0  0
 23 26  1  0  0  0  0
 23 24  2  0  0  0  0
 24 25  1  0  0  0  0
 25 22  2  0  0  0  0
 26 21  2  0  0  0  0
 27 16  1  0  0  0  0
 27 32  1  6  0  0  0
 28 27  1  0  0  0  0
 29 28  2  0  0  0  0
 30 28  1  0  0  0  0
 31 32  1  0  0  0  0
 33 34  1  0  0  0  0
 34 35  1  0  0  0  0
 35  3  1  0  0  0  0
 36 33  1  0  0  0  0
 36 34  2  0  0  0  0
 37 33  1  0  0  0  0
 38 37  1  0  0  0  0
 39 38  1  0  0  0  0
 40 39  3  0  0  0  0
 41 40  1  0  0  0  0
 42 41  1  0  0  0  0
 43 46  1  0  0  0  0
 43 44  2  0  0  0  0
 45 44  1  0  0  0  0
 47 42  1  0  0  0  0
 47 45  1  0  0  0  0
 48 47  2  0  0  0  0
 49 48  1  0  0  0  0
 49 43  1  0  0  0  0
 50 42  1  0  0  0  0
 51 53  1  0  0  0  0
 51 50  1  0  0  0  0
 52 53  2  0  0  0  0
 53 55  1  0  0  0  0
 55 56  1  0  0  0  0
 55 54  2  0  0  0  0
 57 58  1  0  0  0  0
M  END
>  <MODEL>
7

>  <REMARK>
 VINA RESULT:      -5.1      2.790      7.549
  Name = 
  19 active torsions:
  status: ('A' for Active; 'I' for Inactive)
    1  A    between atoms: C_4  and  S_14
    2  A    between atoms: N_5  and  N_56
    3  A    between atoms: C_8  and  O_37
    4  A    between atoms: S_14  and  C_27
    5  A    between atoms: C_17  and  N_23
    6  A    between atoms: C_18  and  C_19
    7  A    between atoms: C_19  and  N_56
    8  A    between atoms: C_20  and  C_43
    9  A    between atoms: N_21  and  C_30
   10  A    between atoms: C_25  and  C_49
   11  A    between atoms: C_29  and  N_48
   12  A    between atoms: C_30  and  C_31
   13  A    between atoms: C_30  and  C_40
   14  A    between atoms: N_35  and  C_47
   15  A    between atoms: N_35  and  N_48
   16  A    between atoms: N_45  and  C_55
   17  A    between atoms: C_46  and  N_48
   18  A    between atoms: C_46  and  O_54
   19  A    between atoms: C_49  and  O_54
                            x       y       z     vdW  Elec       q    Type
                         _______ _______ _______ _____ _____    ______ ____

>  <TORSDO>
F 19

$$$$
=
 OpenBabel11032421233D

 58 63  0  0  1  0  0  0  0  0999 V2000
  189.6900  177.4340  144.0700 N   0  0  0  0  0  0  0  0  0  0  0  0
  187.7470  177.7850  142.0090 C   0  0  2  0  0  3  0  0  0  0  0  0
  187.3530  177.4840  143.4370 C   0  0  0  0  0  0  0  0  0  0  0  0
  188.2940  177.3510  144.3820 C   0  0  0  0  0  3  0  0  0  0  0  0
  190.1140  177.5340  142.8500 C   0  0  0  0  0  3  0  0  0  0  0  0
  189.1920  177.5850  141.7520 N   0  0  0  0  0  0  0  0  0  0  0  0
  188.8510  177.6320  139.2940 C   0  0  0  0  0  3  0  0  0  0  0  0
  190.6490  177.0480  137.7880 C   0  0  0  0  0  3  0  0  0  0  0  0
  189.3300  177.4560  137.9940 C   0  0  0  0  0  0  0  0  0  0  0  0
  191.4890  176.8400  138.8810 C   0  0  0  0  0  3  0  0  0  0  0  0
  191.0110  177.0280  140.1780 C   0  0  0  0  0  3  0  0  0  0  0  0
  189.6830  177.4200  140.4080 C   0  0  0  0  0  0  0  0  0  0  0  0
  188.2380  177.6420  136.5810 S   0  0  0  0  0  0  0  0  0  0  0  0
  188.6450  176.0840  135.7100 C   0  0  2  0  0  0  0  0  0  0  0  0
  190.0050  176.2250  135.0200 C   0  0  0  0  0  2  0  0  0  0  0  0
  190.8270  173.9990  135.8590 N   0  0  0  0  0  0  0  0  0  0  0  0
  187.6650  175.8280  134.7470 O   0  0  0  0  0  1  0  0  0  0  0  0
  190.5450  174.8370  134.6710 C   0  0  0  0  0  2  0  0  0  0  0  0
  190.0990  174.4170  137.0710 C   0  0  0  0  0  2  0  0  0  0  0  0
  188.6850  174.9480  136.7730 C   0  0  2  0  0  3  0  0  0  0  0  0
  186.3250  174.1420  137.0650 C   0  0  0  0  0  3  0  0  0  0  0  0
  187.6340  173.8680  136.6350 C   0  0  0  0  0  0  0  0  0  0  0  0
  185.6180  171.9540  136.3060 C   0  0  0  0  0  3  0  0  0  0  0  0
  186.9160  171.6850  135.8620 C   0  0  0  0  0  3  0  0  0  0  0  0
  187.9160  172.6420  136.0180 C   0  0  0  0  0  3  0  0  0  0  0  0
  185.3180  173.1860  136.9030 C   0  0  0  0  0  3  0  0  0  0  0  0
  192.2470  173.9270  136.2500 C   0  0  2  0  0  3  0  0  0  0  0  0
  193.1690  174.9320  135.5990 C   0  0  0  0  0  0  0  0  0  0  0  0
  194.0550  174.5380  134.5940 O   0  0  0  0  0  0  0  0  0  0  0  0
  193.1820  176.1330  135.9910 O   0  0  0  0  0  1  0  0  0  0  0  0
  193.8900  172.2870  136.8750 O   0  0  0  0  0  1  0  0  0  0  0  0
  192.7730  172.5060  136.0660 C   0  0  0  0  0  2  0  0  0  0  0  0
  183.9420  179.2540  144.0310 N   0  0  0  0  0  0  0  0  0  0  0  0
  185.1780  178.6430  143.9170 C   0  0  0  0  0  0  0  0  0  0  0  0
  185.9620  177.4570  143.7770 N   0  0  0  0  0  2  0  0  0  0  0  0
  185.1080  179.9790  144.0430 N   0  0  0  0  0  0  0  0  0  0  0  0
  182.5440  179.2020  144.1230 N   0  0  0  0  0  2  0  0  0  0  0  0
  182.0740  178.2180  143.1480 C   0  0  0  0  0  2  0  0  0  0  0  0
  182.4170  178.6290  141.7780 C   0  0  0  0  0  0  0  0  0  0  0  0
  182.7380  178.9590  140.6620 C   0  0  0  0  0  0  0  0  0  0  0  0
  183.1460  179.3420  139.3760 N   0  0  0  0  0  2  0  0  0  0  0  0
  182.3160  179.2720  138.2350 N   0  0  0  0  0  0  0  0  0  0  0  0
  180.2830  182.6320  136.5950 C   0  0  0  0  0  0  0  0  0  0  0  0
  181.2340  182.8390  137.5140 C   0  0  0  0  0  3  0  0  0  0  0  0
  181.6320  181.7410  138.4720 C   0  0  0  0  0  2  0  0  0  0  0  0
  179.9140  183.6460  135.7710 F   0  0  0  0  0  0  0  0  0  0  0  0
  181.4790  180.3680  137.8440 C   0  0  0  0  0  0  0  0  0  0  0  0
  180.5330  180.1900  136.9060 C   0  0  0  0  0  3  0  0  0  0  0  0
  179.5960  181.2950  136.5040 C   0  0  0  0  0  2  0  0  0  0  0  0
  182.1510  177.9730  137.5690 C   0  0  0  0  0  2  0  0  0  0  0  0
  181.5130  177.0650  138.4520 O   0  0  0  0  0  0  0  0  0  0  0  0
  182.7400  175.1090  138.4200 O   0  0  0  0  0  0  0  0  0  0  0  0
  181.6200  175.6790  138.2880 C   0  0  0  0  0  0  0  0  0  0  0  0
  180.4190  173.5700  138.0940 C   0  0  0  0  0  2  0  0  0  0  0  0
  180.4320  174.8870  137.9290 C   0  0  0  0  0  0  0  0  0  0  0  0
  179.1740  175.5650  137.5010 C   0  0  0  0  0  1  0  0  0  0  0  0
  186.3780  179.0080  140.7540 C   0  0  0  0  0  1  0  0  0  0  0  0
  187.3940  179.1060  141.7000 O   0  0  0  0  0  0  0  0  0  0  0  0
  1  4  1  0  0  0  0
  2 58  1  1  0  0  0
  2  3  1  0  0  0  0
  3 35  1  0  0  0  0
  3  4  2  0  0  0  0
  5  1  2  0  0  0  0
  6  2  1  0  0  0  0
  6  5  1  0  0  0  0
  7 12  1  0  0  0  0
  8  9  1  0  0  0  0
  8 10  2  0  0  0  0
  9  7  2  0  0  0  0
 10 11  1  0  0  0  0
 11 12  2  0  0  0  0
 12  6  1  0  0  0  0
 13  9  1  0  0  0  0
 14 17  1  6  0  0  0
 14 13  1  0  0  0  0
 14 20  1  0  0  0  0
 15 14  1  0  0  0  0
 16 27  1  0  0  0  0
 16 19  1  0  0  0  0
 18 15  1  0  0  0  0
 18 16  1  0  0  0  0
 20 22  1  6  0  0  0
 20 19  1  0  0  0  0
 22 21  2  0  0  0  0
 23 26  2  0  0  0  0
 24 25  2  0  0  0  0
 24 23  1  0  0  0  0
 25 22  1  0  0  0  0
 26 21  1  0  0  0  0
 27 32  1  6  0  0  0
 28 30  1  0  0  0  0
 28 27  1  0  0  0  0
 29 28  2  0  0  0  0
 32 31  1  0  0  0  0
 33 36  1  0  0  0  0
 33 37  1  0  0  0  0
 34 33  1  0  0  0  0
 34 36  2  0  0  0  0
 35 34  1  0  0  0  0
 38 37  1  0  0  0  0
 39 38  1  0  0  0  0
 40 39  3  0  0  0  0
 41 40  1  0  0  0  0
 42 41  1  0  0  0  0
 43 44  2  0  0  0  0
 44 45  1  0  0  0  0
 46 43  1  0  0  0  0
 47 42  1  0  0  0  0
 47 45  1  0  0  0  0
 48 47  2  0  0  0  0
 49 43  1  0  0  0  0
 49 48  1  0  0  0  0
 50 42  1  0  0  0  0
 50 51  1  0  0  0  0
 53 52  2  0  0  0  0
 53 51  1  0  0  0  0
 55 54  2  0  0  0  0
 55 53  1  0  0  0  0
 56 55  1  0  0  0  0
 57 58  1  0  0  0  0
M  END
>  <MODEL>
8

>  <REMARK>
 VINA RESULT:      -5.0      3.485     10.375
  Name = 
  19 active torsions:
  status: ('A' for Active; 'I' for Inactive)
    1  A    between atoms: C_4  and  S_14
    2  A    between atoms: N_5  and  N_56
    3  A    between atoms: C_8  and  O_37
    4  A    between atoms: S_14  and  C_27
    5  A    between atoms: C_17  and  N_23
    6  A    between atoms: C_18  and  C_19
    7  A    between atoms: C_19  and  N_56
    8  A    between atoms: C_20  and  C_43
    9  A    between atoms: N_21  and  C_30
   10  A    between atoms: C_25  and  C_49
   11  A    between atoms: C_29  and  N_48
   12  A    between atoms: C_30  and  C_31
   13  A    between atoms: C_30  and  C_40
   14  A    between atoms: N_35  and  C_47
   15  A    between atoms: N_35  and  N_48
   16  A    between atoms: N_45  and  C_55
   17  A    between atoms: C_46  and  N_48
   18  A    between atoms: C_46  and  O_54
   19  A    between atoms: C_49  and  O_54
                            x       y       z     vdW  Elec       q    Type
                         _______ _______ _______ _____ _____    ______ ____

>  <TORSDO>
F 19

$$$$
=
 OpenBabel11032421233D

 58 63  0  0  1  0  0  0  0  0999 V2000
  189.4990  178.2420  146.2150 N   0  0  0  0  0  0  0  0  0  0  0  0
  189.0700  177.1630  143.6080 C   0  0  2  0  0  3  0  0  0  0  0  0
  190.4580  177.3940  144.1600 C   0  0  0  0  0  0  0  0  0  0  0  0
  190.6190  177.8790  145.4000 C   0  0  0  0  0  3  0  0  0  0  0  0
  188.2850  178.2220  145.7610 C   0  0  0  0  0  3  0  0  0  0  0  0
  188.0100  177.8120  144.4130 N   0  0  0  0  0  0  0  0  0  0  0  0
  186.5360  178.2900  142.4750 C   0  0  0  0  0  3  0  0  0  0  0  0
  184.1560  178.5810  142.7780 C   0  0  0  0  0  3  0  0  0  0  0  0
  185.2710  178.5420  141.9390 C   0  0  0  0  0  0  0  0  0  0  0  0
  184.3070  178.3460  144.1440 C   0  0  0  0  0  3  0  0  0  0  0  0
  185.5710  178.0840  144.6740 C   0  0  0  0  0  3  0  0  0  0  0  0
  186.7080  178.0580  143.8520 C   0  0  0  0  0  0  0  0  0  0  0  0
  185.0730  178.9240  140.1960 S   0  0  0  0  0  0  0  0  0  0  0  0
  183.5270  177.9930  139.8830 C   0  0  2  0  0  0  0  0  0  0  0  0
  182.4350  178.4810  140.8400 C   0  0  0  0  0  2  0  0  0  0  0  0
  180.7100  178.6580  139.0170 N   0  0  0  0  0  0  0  0  0  0  0  0
  183.7590  176.6330  140.1050 O   0  0  0  0  0  1  0  0  0  0  0  0
  181.0670  178.0440  140.3150 C   0  0  0  0  0  2  0  0  0  0  0  0
  181.8710  179.1420  138.2460 C   0  0  0  0  0  2  0  0  0  0  0  0
  183.1150  178.2500  138.4040 C   0  0  2  0  0  3  0  0  0  0  0  0
  182.0930  176.8870  136.5600 C   0  0  0  0  0  3  0  0  0  0  0  0
  183.1360  177.0460  137.4880 C   0  0  0  0  0  0  0  0  0  0  0  0
  183.1710  174.9000  135.6910 C   0  0  0  0  0  3  0  0  0  0  0  0
  184.2180  175.0660  136.6030 C   0  0  0  0  0  3  0  0  0  0  0  0
  184.2040  176.1390  137.4900 C   0  0  0  0  0  3  0  0  0  0  0  0
  182.1090  175.8150  135.6630 C   0  0  0  0  0  3  0  0  0  0  0  0
  179.7800  179.8000  139.0990 C   0  0  2  0  0  3  0  0  0  0  0  0
  179.5420  180.5580  137.8130 C   0  0  0  0  0  0  0  0  0  0  0  0
  179.4550  181.9510  137.8140 O   0  0  0  0  0  1  0  0  0  0  0  0
  179.3710  179.9330  136.7280 O   0  0  0  0  0  0  0  0  0  0  0  0
  179.3280  180.6530  141.3000 O   0  0  0  0  0  1  0  0  0  0  0  0
  180.2060  180.7470  140.2180 C   0  0  0  0  0  2  0  0  0  0  0  0
  192.4760  177.3180  140.8380 N   0  0  0  0  0  0  0  0  0  0  0  0
  191.7070  177.2640  141.9860 C   0  0  0  0  0  0  0  0  0  0  0  0
  191.5880  176.9810  143.3810 N   0  0  0  0  0  2  0  0  0  0  0  0
  191.1480  177.6640  140.8310 N   0  0  0  0  0  0  0  0  0  0  0  0
  193.6830  177.1250  140.1510 N   0  0  0  0  0  2  0  0  0  0  0  0
  193.4170  177.3230  138.7260 C   0  0  0  0  0  2  0  0  0  0  0  0
  192.4750  176.3130  138.2210 C   0  0  0  0  0  0  0  0  0  0  0  0
  191.7090  175.4620  137.8390 C   0  0  0  0  0  0  0  0  0  0  0  0
  190.8310  174.4500  137.4220 N   0  0  0  0  0  2  0  0  0  0  0  0
  189.8450  174.6280  136.4260 N   0  0  0  0  0  0  0  0  0  0  0  0
  187.4350  178.1290  136.6300 C   0  0  0  0  0  0  0  0  0  0  0  0
  187.9880  177.6600  137.7550 C   0  0  0  0  0  3  0  0  0  0  0  0
  188.4160  176.2150  137.8590 C   0  0  0  0  0  2  0  0  0  0  0  0
  187.0210  179.4200  136.5720 F   0  0  0  0  0  0  0  0  0  0  0  0
  188.8600  175.6650  136.5160 C   0  0  0  0  0  0  0  0  0  0  0  0
  188.3090  176.1680  135.3990 C   0  0  0  0  0  3  0  0  0  0  0  0
  187.2330  177.2170  135.4480 C   0  0  0  0  0  2  0  0  0  0  0  0
  189.7000  173.5920  135.3940 C   0  0  0  0  0  2  0  0  0  0  0  0
  189.0510  172.4590  135.9460 O   0  0  0  0  0  0  0  0  0  0  0  0
  187.2580  172.9550  137.3140 O   0  0  0  0  0  0  0  0  0  0  0  0
  187.6810  172.4600  136.2310 C   0  0  0  0  0  0  0  0  0  0  0  0
  185.7670  172.5790  134.7300 C   0  0  0  0  0  2  0  0  0  0  0  0
  186.7320  171.8530  135.2820 C   0  0  0  0  0  0  0  0  0  0  0  0
  186.9220  170.4480  134.8190 C   0  0  0  0  0  1  0  0  0  0  0  0
  190.0290  175.2140  143.1320 C   0  0  0  0  0  1  0  0  0  0  0  0
  188.8250  175.7850  143.5330 O   0  0  0  0  0  0  0  0  0  0  0  0
  2 58  1  1  0  0  0
  2  3  1  0  0  0  0
  2  6  1  0  0  0  0
  3  4  2  0  0  0  0
  4  1  1  0  0  0  0
  5  1  2  0  0  0  0
  6  5  1  0  0  0  0
  7 12  1  0  0  0  0
  8 10  2  0  0  0  0
  9  7  2  0  0  0  0
  9  8  1  0  0  0  0
 10 11  1  0  0  0  0
 12  6  1  0  0  0  0
 12 11  2  0  0  0  0
 13  9  1  0  0  0  0
 14 17  1  1  0  0  0
 14 13  1  0  0  0  0
 14 15  1  0  0  0  0
 16 27  1  0  0  0  0
 16 18  1  0  0  0  0
 18 15  1  0  0  0  0
 19 20  1  0  0  0  0
 19 16  1  0  0  0  0
 20 22  1  1  0  0  0
 20 14  1  0  0  0  0
 21 22  1  0  0  0  0
 22 25  2  0  0  0  0
 23 24  2  0  0  0  0
 24 25  1  0  0  0  0
 26 23  1  0  0  0  0
 26 21  2  0  0  0  0
 27 32  1  1  0  0  0
 28 29  1  0  0  0  0
 28 27  1  0  0  0  0
 30 28  2  0  0  0  0
 32 31  1  0  0  0  0
 33 34  1  0  0  0  0
 34 35  1  0  0  0  0
 35  3  1  0  0  0  0
 36 33  1  0  0  0  0
 36 34  2  0  0  0  0
 37 33  1  0  0  0  0
 38 37  1  0  0  0  0
 39 38  1  0  0  0  0
 40 39  3  0  0  0  0
 41 40  1  0  0  0  0
 42 47  1  0  0  0  0
 42 41  1  0  0  0  0
 43 44  2  0  0  0  0
 44 45  1  0  0  0  0
 46 43  1  0  0  0  0
 47 45  1  0  0  0  0
 48 49  1  0  0  0  0
 48 47  2  0  0  0  0
 49 43  1  0  0  0  0
 50 51  1  0  0  0  0
 50 42  1  0  0  0  0
 51 53  1  0  0  0  0
 53 52  2  0  0  0  0
 54 55  2  0  0  0  0
 55 53  1  0  0  0  0
 56 55  1  0  0  0  0
 57 58  1  0  0  0  0
M  END
>  <MODEL>
9

>  <REMARK>
 VINA RESULT:      -4.8      2.418      7.528
  Name = 
  19 active torsions:
  status: ('A' for Active; 'I' for Inactive)
    1  A    between atoms: C_4  and  S_14
    2  A    between atoms: N_5  and  N_56
    3  A    between atoms: C_8  and  O_37
    4  A    between atoms: S_14  and  C_27
    5  A    between atoms: C_17  and  N_23
    6  A    between atoms: C_18  and  C_19
    7  A    between atoms: C_19  and  N_56
    8  A    between atoms: C_20  and  C_43
    9  A    between atoms: N_21  and  C_30
   10  A    between atoms: C_25  and  C_49
   11  A    between atoms: C_29  and  N_48
   12  A    between atoms: C_30  and  C_31
   13  A    between atoms: C_30  and  C_40
   14  A    between atoms: N_35  and  C_47
   15  A    between atoms: N_35  and  N_48
   16  A    between atoms: N_45  and  C_55
   17  A    between atoms: C_46  and  N_48
   18  A    between atoms: C_46  and  O_54
   19  A    between atoms: C_49  and  O_54
                            x       y       z     vdW  Elec       q    Type
                         _______ _______ _______ _____ _____    ______ ____

>  <TORSDO>
F 19

$$$$
