=
 OpenBabel11042412033D

 30 34  0  0  1  0  0  0  0  0999 V2000
  188.5770  178.3480  137.7160 C   0  0  0  0  0  0  0  0  0  0  0  0
  185.4460  175.8940  136.8650 C   0  0  0  0  0  0  0  0  0  0  0  0
  185.9820  173.7170  137.1830 C   0  0  0  0  0  0  0  0  0  0  0  0
  190.1890  173.9540  137.1320 C   0  0  0  0  0  2  0  0  0  0  0  0
  183.6110  174.0910  136.6140 N   0  0  0  0  0  0  0  0  0  0  0  0
  188.2860  172.4400  136.6160 C   0  0  0  0  0  3  0  0  0  0  0  0
  187.5380  179.0090  136.8280 C   0  0  0  0  0  2  0  0  0  0  0  0
  184.0250  175.4440  136.6270 C   0  0  0  0  0  3  0  0  0  0  0  0
  190.2250  176.5430  139.1170 C   0  0  0  0  0  0  0  0  0  0  0  0
  184.6570  173.3160  136.9180 C   0  0  0  0  0  0  0  0  0  0  0  0
  186.8390  171.9620  136.2430 C   0  0  0  0  0  2  0  0  0  0  0  0
  190.9410  174.2450  135.9800 O   0  0  0  0  0  0  0  0  0  0  0  0
  189.7270  177.8280  137.1680 N   0  0  0  0  0  0  0  0  0  0  0  0
  190.9620  175.6180  139.7810 F   0  0  0  0  0  0  0  0  0  0  0  0
  185.8290  177.3100  137.0580 C   0  0  0  0  0  2  0  0  0  0  0  0
  188.7420  173.7320  136.7930 C   0  0  0  0  0  0  0  0  0  0  0  0
  191.0590  175.6560  135.8490 C   0  0  1  0  0  3  0  0  0  0  0  0
  191.6940  176.3820  137.0580 C   0  0  0  0  0  2  0  0  0  0  0  0
  186.4790  174.9180  137.1190 C   0  0  0  0  0  0  0  0  0  0  0  0
  188.2550  178.0240  139.0420 C   0  0  0  0  0  0  0  0  0  0  0  0
  185.6750  172.3500  137.2390 C   0  0  1  0  0  3  0  0  0  0  0  0
  189.0650  177.0690  139.7090 C   0  0  0  0  0  3  0  0  0  0  0  0
  186.7230  177.8840  136.2540 C   0  0  0  0  0  2  0  0  0  0  0  0
  190.5680  176.9860  137.8290 C   0  0  0  0  0  0  0  0  0  0  0  0
  187.9080  175.0330  136.6780 C   0  0  0  0  0  2  0  0  0  0  0  0
  187.1440  178.6710  139.7150 N   0  0  0  0  0  0  0  0  0  0  0  0
  187.0200  178.6160  141.0030 C   0  0  0  0  0  2  0  0  0  0  0  0
  191.8660  175.9980  134.5940 C   0  0  0  0  0  2  0  0  0  0  0  0
  193.8720  174.9530  134.5980 O   0  0  0  0  0  1  0  0  0  0  0  0
  193.2870  176.1320  134.9090 N   0  0  0  0  0  2  0  0  0  0  0  0
  1 20  1  0  0  0  0
  2 15  1  0  0  0  0
  2 19  1  0  0  0  0
  3 21  1  0  0  0  0
  5  8  1  0  0  0  0
  5 10  2  0  0  0  0
  6 16  2  0  0  0  0
  7  1  1  0  0  0  0
  8  2  2  0  0  0  0
  9 22  1  0  0  0  0
  9 14  1  0  0  0  0
 10  3  1  0  0  0  0
 10 21  1  0  0  0  0
 11  6  1  0  0  0  0
 12  4  1  0  0  0  0
 13  1  2  0  0  0  0
 13 24  1  0  0  0  0
 16  4  1  0  0  0  0
 17 28  1  6  0  0  0
 17 12  1  0  0  0  0
 17 18  1  0  0  0  0
 18 24  1  0  0  0  0
 19  3  2  0  0  0  0
 20 22  2  0  0  0  0
 20 26  1  0  0  0  0
 21 11  1  6  0  0  0
 23  7  1  0  0  0  0
 23 15  1  0  0  0  0
 24  9  2  0  0  0  0
 25 16  1  0  0  0  0
 25 19  1  0  0  0  0
 26 27  2  0  0  0  0
 28 30  1  0  0  0  0
 29 30  1  0  0  0  0
M  END
>  <MODEL>
1

>  <REMARK>
 VINA RESULT:      -5.6      0.000      0.000
  Name = 
  3 active torsions:
  status: ('A' for Active; 'I' for Inactive)
    1  A    between atoms: N_14  and  C_27
    2  A    between atoms: C_19  and  C_27
    3  A    between atoms: N_20  and  C_23
                            x       y       z     vdW  Elec       q    Type
                         _______ _______ _______ _____ _____    ______ ____

>  <TORSDO>
F 3

$$$$
=
 OpenBabel11042412033D

 30 34  0  0  1  0  0  0  0  0999 V2000
  184.1410  176.7740  136.0990 C   0  0  0  0  0  0  0  0  0  0  0  0
  188.0250  177.3420  137.1680 C   0  0  0  0  0  0  0  0  0  0  0  0
  188.2550  177.5200  139.4130 C   0  0  0  0  0  0  0  0  0  0  0  0
  184.2890  178.4260  140.5140 C   0  0  0  0  0  2  0  0  0  0  0  0
  190.3950  177.4980  138.1870 N   0  0  0  0  0  0  0  0  0  0  0  0
  186.6580  178.7740  141.1850 C   0  0  0  0  0  3  0  0  0  0  0  0
  184.9940  177.2940  134.9560 C   0  0  0  0  0  2  0  0  0  0  0  0
  189.5310  177.3440  137.0770 C   0  0  0  0  0  3  0  0  0  0  0  0
  183.0570  176.0840  138.6070 C   0  0  0  0  0  0  0  0  0  0  0  0
  189.6590  177.5610  139.3010 C   0  0  0  0  0  0  0  0  0  0  0  0
  188.2180  178.9050  141.0800 C   0  0  0  0  0  2  0  0  0  0  0  0
  183.6550  179.6460  140.2170 O   0  0  0  0  0  0  0  0  0  0  0  0
  183.3400  177.6340  136.8130 N   0  0  0  0  0  0  0  0  0  0  0  0
  182.6090  175.7590  139.8450 F   0  0  0  0  0  0  0  0  0  0  0  0
  187.1430  176.9970  136.0320 C   0  0  0  0  0  2  0  0  0  0  0  0
  185.7540  178.4810  140.1820 C   0  0  0  0  0  0  0  0  0  0  0  0
  183.0650  179.5560  138.9260 C   0  0  1  0  0  3  0  0  0  0  0  0
  182.0500  178.4050  138.7400 C   0  0  0  0  0  2  0  0  0  0  0  0
  187.3800  177.4830  138.4510 C   0  0  0  0  0  0  0  0  0  0  0  0
  184.3650  175.4840  136.6040 C   0  0  0  0  0  0  0  0  0  0  0  0
  189.0150  177.6330  140.5860 C   0  0  1  0  0  3  0  0  0  0  0  0
  183.8590  175.1770  137.8940 C   0  0  0  0  0  3  0  0  0  0  0  0
  186.2280  177.8640  135.5990 C   0  0  0  0  0  2  0  0  0  0  0  0
  182.7670  177.3200  138.0090 C   0  0  0  0  0  0  0  0  0  0  0  0
  186.0810  178.1930  138.6950 C   0  0  0  0  0  2  0  0  0  0  0  0
  185.0670  174.4900  135.8140 N   0  0  0  0  0  0  0  0  0  0  0  0
  185.7190  173.5250  136.3820 C   0  0  0  0  0  2  0  0  0  0  0  0
  182.3780  180.8780  138.5750 C   0  0  0  0  0  2  0  0  0  0  0  0
  180.4260  181.5910  139.4690 O   0  0  0  0  0  1  0  0  0  0  0  0
  180.9240  180.7210  138.5600 N   0  0  0  0  0  2  0  0  0  0  0  0
  1 20  2  0  0  0  0
  1 13  1  0  0  0  0
  2 19  1  0  0  0  0
  3 21  1  0  0  0  0
  5 10  2  0  0  0  0
  7 23  1  0  0  0  0
  7  1  1  0  0  0  0
  8  2  2  0  0  0  0
  8  5  1  0  0  0  0
  9 14  1  0  0  0  0
 10  3  1  0  0  0  0
 10 21  1  0  0  0  0
 11  6  1  0  0  0  0
 12  4  1  0  0  0  0
 13 24  2  0  0  0  0
 15  2  1  0  0  0  0
 16  4  1  0  0  0  0
 16  6  2  0  0  0  0
 17 28  1  1  0  0  0
 17 12  1  0  0  0  0
 18 17  1  0  0  0  0
 19 25  1  0  0  0  0
 19  3  2  0  0  0  0
 20 22  1  0  0  0  0
 21 11  1  6  0  0  0
 22  9  2  0  0  0  0
 23 15  1  0  0  0  0
 24  9  1  0  0  0  0
 24 18  1  0  0  0  0
 25 16  1  0  0  0  0
 26 27  2  0  0  0  0
 26 20  1  0  0  0  0
 30 28  1  0  0  0  0
 30 29  1  0  0  0  0
M  END
>  <MODEL>
2

>  <REMARK>
 VINA RESULT:      -5.4      4.140      7.673
  Name = 
  3 active torsions:
  status: ('A' for Active; 'I' for Inactive)
    1  A    between atoms: N_14  and  C_27
    2  A    between atoms: C_19  and  C_27
    3  A    between atoms: N_20  and  C_23
                            x       y       z     vdW  Elec       q    Type
                         _______ _______ _______ _____ _____    ______ ____

>  <TORSDO>
F 3

$$$$
=
 OpenBabel11042412033D

 30 34  0  0  1  0  0  0  0  0999 V2000
  181.6700  177.9040  138.5500 C   0  0  0  0  0  0  0  0  0  0  0  0
  185.1770  178.4700  140.5310 C   0  0  0  0  0  0  0  0  0  0  0  0
  184.9280  178.1930  142.7650 C   0  0  0  0  0  0  0  0  0  0  0  0
  180.7500  178.6130  143.1210 C   0  0  0  0  0  2  0  0  0  0  0  0
  187.2630  178.5530  142.0560 N   0  0  0  0  0  0  0  0  0  0  0  0
  182.8850  178.9550  144.3480 C   0  0  0  0  0  3  0  0  0  0  0  0
  182.6780  178.7000  137.7420 C   0  0  0  0  0  2  0  0  0  0  0  0
  186.6630  178.5810  140.7750 C   0  0  0  0  0  3  0  0  0  0  0  0
  180.1760  176.6470  140.5820 C   0  0  0  0  0  0  0  0  0  0  0  0
  186.3140  178.3400  142.9730 C   0  0  0  0  0  0  0  0  0  0  0  0
  184.4120  179.1990  144.6140 C   0  0  0  0  0  2  0  0  0  0  0  0
  180.0670  179.8270  142.9290 O   0  0  0  0  0  0  0  0  0  0  0  0
  180.6570  178.5490  139.2210 N   0  0  0  0  0  0  0  0  0  0  0  0
  179.5230  176.0470  141.6070 F   0  0  0  0  0  0  0  0  0  0  0  0
  184.5840  178.3160  139.1850 C   0  0  0  0  0  2  0  0  0  0  0  0
  182.2380  178.8230  143.1350 C   0  0  0  0  0  0  0  0  0  0  0  0
  179.7630  179.9720  141.5470 C   0  0  1  0  0  3  0  0  0  0  0  0
  178.9300  178.8260  140.9290 C   0  0  0  0  0  2  0  0  0  0  0  0
  184.2740  178.3040  141.6450 C   0  0  0  0  0  0  0  0  0  0  0  0
  181.9180  176.5550  138.8380 C   0  0  0  0  0  0  0  0  0  0  0  0
  185.4180  178.1060  144.0760 C   0  0  1  0  0  3  0  0  0  0  0  0
  181.1950  175.9570  139.9030 C   0  0  0  0  0  3  0  0  0  0  0  0
  183.6910  179.1970  138.7360 C   0  0  0  0  0  2  0  0  0  0  0  0
  179.8880  177.9610  140.1800 C   0  0  0  0  0  0  0  0  0  0  0  0
  182.8870  178.8690  141.7290 C   0  0  0  0  0  2  0  0  0  0  0  0
  182.8640  175.7890  138.0470 N   0  0  0  0  0  0  0  0  0  0  0  0
  182.5270  174.6570  137.5150 C   0  0  0  0  0  2  0  0  0  0  0  0
  179.0300  181.2950  141.3110 C   0  0  0  0  0  2  0  0  0  0  0  0
  180.2710  181.7730  139.4820 O   0  0  0  0  0  1  0  0  0  0  0  0
  178.9890  181.6200  139.8860 N   0  0  0  0  0  2  0  0  0  0  0  0
  1 20  2  0  0  0  0
  1 13  1  0  0  0  0
  2  8  2  0  0  0  0
  2 19  1  0  0  0  0
  3 10  1  0  0  0  0
  3 21  1  0  0  0  0
  4 16  1  0  0  0  0
  5 10  2  0  0  0  0
  6 11  1  0  0  0  0
  7  1  1  0  0  0  0
  7 23  1  0  0  0  0
  8  5  1  0  0  0  0
  9 14  1  0  0  0  0
 10 21  1  0  0  0  0
 12  4  1  0  0  0  0
 13 24  2  0  0  0  0
 15  2  1  0  0  0  0
 16  6  2  0  0  0  0
 17 28  1  1  0  0  0
 17 12  1  0  0  0  0
 18 17  1  0  0  0  0
 19 25  1  0  0  0  0
 19  3  2  0  0  0  0
 20 22  1  0  0  0  0
 21 11  1  1  0  0  0
 22  9  2  0  0  0  0
 23 15  1  0  0  0  0
 24  9  1  0  0  0  0
 24 18  1  0  0  0  0
 25 16  1  0  0  0  0
 26 20  1  0  0  0  0
 27 26  2  0  0  0  0
 29 30  1  0  0  0  0
 30 28  1  0  0  0  0
M  END
>  <MODEL>
3

>  <REMARK>
 VINA RESULT:      -5.4      6.407      9.949
  Name = 
  3 active torsions:
  status: ('A' for Active; 'I' for Inactive)
    1  A    between atoms: N_14  and  C_27
    2  A    between atoms: C_19  and  C_27
    3  A    between atoms: N_20  and  C_23
                            x       y       z     vdW  Elec       q    Type
                         _______ _______ _______ _____ _____    ______ ____

>  <TORSDO>
F 3

$$$$
=
 OpenBabel11042412033D

 30 34  0  0  1  0  0  0  0  0999 V2000
  179.7410  178.6060  140.1010 C   0  0  0  0  0  0  0  0  0  0  0  0
  182.0690  178.7140  143.4340 C   0  0  0  0  0  0  0  0  0  0  0  0
  184.1860  179.3570  142.9530 C   0  0  0  0  0  0  0  0  0  0  0  0
  184.2750  178.6340  138.8020 C   0  0  0  0  0  2  0  0  0  0  0  0
  183.7460  179.0890  145.3650 N   0  0  0  0  0  0  0  0  0  0  0  0
  185.7120  178.7050  140.8300 C   0  0  0  0  0  3  0  0  0  0  0  0
  179.1760  177.7740  141.2380 C   0  0  0  0  0  2  0  0  0  0  0  0
  182.4480  178.7820  144.8940 C   0  0  0  0  0  3  0  0  0  0  0  0
  181.3800  180.0620  138.3310 C   0  0  0  0  0  0  0  0  0  0  0  0
  184.5300  179.3740  144.3190 C   0  0  0  0  0  0  0  0  0  0  0  0
  186.1410  178.6500  142.3380 C   0  0  0  0  0  2  0  0  0  0  0  0
  184.2540  177.3480  138.2330 O   0  0  0  0  0  0  0  0  0  0  0  0
  180.4340  178.0020  139.0780 N   0  0  0  0  0  0  0  0  0  0  0  0
  182.2210  180.7720  137.5400 F   0  0  0  0  0  0  0  0  0  0  0  0
  180.6740  178.5750  142.9630 C   0  0  0  0  0  2  0  0  0  0  0  0
  184.4470  178.5640  140.2930 C   0  0  0  0  0  0  0  0  0  0  0  0
  182.9010  176.9350  138.0740 C   0  0  1  0  0  3  0  0  0  0  0  0
  182.0180  177.8750  137.2220 C   0  0  0  0  0  2  0  0  0  0  0  0
  183.0570  178.9930  142.4190 C   0  0  0  0  0  0  0  0  0  0  0  0
  179.7950  180.0020  140.2200 C   0  0  0  0  0  0  0  0  0  0  0  0
  185.4940  179.7170  143.3080 C   0  0  1  0  0  3  0  0  0  0  0  0
  180.6710  180.7100  139.3570 C   0  0  0  0  0  3  0  0  0  0  0  0
  180.3230  177.5530  142.1850 C   0  0  0  0  0  2  0  0  0  0  0  0
  181.2040  178.6780  138.1800 C   0  0  0  0  0  0  0  0  0  0  0  0
  183.1300  178.3290  141.0760 C   0  0  0  0  0  2  0  0  0  0  0  0
  178.9570  180.6980  141.1780 N   0  0  0  0  0  0  0  0  0  0  0  0
  178.9310  181.9930  141.2260 C   0  0  0  0  0  2  0  0  0  0  0  0
  182.8530  175.5320  137.4650 C   0  0  0  0  0  2  0  0  0  0  0  0
  181.5790  173.7000  137.0930 O   0  0  0  0  0  1  0  0  0  0  0  0
  181.5130  174.9590  137.5840 N   0  0  0  0  0  2  0  0  0  0  0  0
  1 20  1  0  0  0  0
  1  7  1  0  0  0  0
  2  8  1  0  0  0  0
  3 21  1  0  0  0  0
  3 10  2  0  0  0  0
  4 16  1  0  0  0  0
  6 11  1  0  0  0  0
  7 23  1  0  0  0  0
  8  5  2  0  0  0  0
  9 22  1  0  0  0  0
 10  5  1  0  0  0  0
 12  4  1  0  0  0  0
 13  1  2  0  0  0  0
 14  9  1  0  0  0  0
 15  2  1  0  0  0  0
 16  6  2  0  0  0  0
 16 25  1  0  0  0  0
 17 28  1  6  0  0  0
 17 12  1  0  0  0  0
 18 17  1  0  0  0  0
 18 24  1  0  0  0  0
 19  3  1  0  0  0  0
 19  2  2  0  0  0  0
 20 26  1  0  0  0  0
 21 11  1  6  0  0  0
 21 10  1  0  0  0  0
 22 20  2  0  0  0  0
 23 15  1  0  0  0  0
 24  9  2  0  0  0  0
 24 13  1  0  0  0  0
 25 19  1  0  0  0  0
 26 27  2  0  0  0  0
 28 30  1  0  0  0  0
 29 30  1  0  0  0  0
M  END
>  <MODEL>
4

>  <REMARK>
 VINA RESULT:      -5.2      6.189      9.120
  Name = 
  3 active torsions:
  status: ('A' for Active; 'I' for Inactive)
    1  A    between atoms: N_14  and  C_27
    2  A    between atoms: C_19  and  C_27
    3  A    between atoms: N_20  and  C_23
                            x       y       z     vdW  Elec       q    Type
                         _______ _______ _______ _____ _____    ______ ____

>  <TORSDO>
F 3

$$$$
=
 OpenBabel11042412033D

 30 34  0  0  1  0  0  0  0  0999 V2000
  184.7870  177.1230  136.6320 C   0  0  0  0  0  0  0  0  0  0  0  0
  187.2730  178.1730  139.6750 C   0  0  0  0  0  0  0  0  0  0  0  0
  186.2050  178.1510  141.6710 C   0  0  0  0  0  0  0  0  0  0  0  0
  182.1940  178.3120  140.3880 C   0  0  0  0  0  2  0  0  0  0  0  0
  188.6270  178.5890  141.8380 N   0  0  0  0  0  0  0  0  0  0  0  0
  183.7000  178.9520  142.2600 C   0  0  0  0  0  3  0  0  0  0  0  0
  186.0100  177.8850  136.1540 C   0  0  0  0  0  2  0  0  0  0  0  0
  188.5540  178.4190  140.4350 C   0  0  0  0  0  3  0  0  0  0  0  0
  182.6630  176.0170  138.1170 C   0  0  0  0  0  0  0  0  0  0  0  0
  187.4060  178.4210  142.3570 C   0  0  0  0  0  0  0  0  0  0  0  0
  185.0080  179.3340  143.0380 C   0  0  0  0  0  2  0  0  0  0  0  0
  181.6100  179.4420  139.7890 O   0  0  0  0  0  0  0  0  0  0  0  0
  183.5820  177.7690  136.7820 N   0  0  0  0  0  0  0  0  0  0  0  0
  181.6830  175.5000  138.8980 F   0  0  0  0  0  0  0  0  0  0  0  0
  187.2360  177.8160  138.2410 C   0  0  0  0  0  2  0  0  0  0  0  0
  183.5620  178.6270  140.9240 C   0  0  0  0  0  0  0  0  0  0  0  0
  181.8480  179.3960  138.3870 C   0  0  1  0  0  3  0  0  0  0  0  0
  181.3340  178.1270  137.6700 C   0  0  0  0  0  2  0  0  0  0  0  0
  186.0210  178.0790  140.3860 C   0  0  0  0  0  0  0  0  0  0  0  0
  184.9350  175.8390  137.1760 C   0  0  0  0  0  0  0  0  0  0  0  0
  186.1650  178.2590  143.0690 C   0  0  1  0  0  3  0  0  0  0  0  0
  183.8770  175.3250  137.9690 C   0  0  0  0  0  3  0  0  0  0  0  0
  186.5620  178.5700  137.3740 C   0  0  0  0  0  2  0  0  0  0  0  0
  182.5210  177.2490  137.4580 C   0  0  0  0  0  0  0  0  0  0  0  0
  184.6930  178.5500  139.8680 C   0  0  0  0  0  2  0  0  0  0  0  0
  186.1260  175.0530  136.9080 N   0  0  0  0  0  0  0  0  0  0  0  0
  186.1800  173.7960  137.2180 C   0  0  0  0  0  2  0  0  0  0  0  0
  181.2300  180.6250  137.7140 C   0  0  0  0  0  2  0  0  0  0  0  0
  180.7040  182.8110  137.9590 O   0  0  0  0  0  1  0  0  0  0  0  0
  181.0950  181.7260  138.6660 N   0  0  0  0  0  2  0  0  0  0  0  0
  1 13  2  0  0  0  0
  1 20  1  0  0  0  0
  2 19  2  0  0  0  0
  2  8  1  0  0  0  0
  3 10  2  0  0  0  0
  3 21  1  0  0  0  0
  4 16  1  0  0  0  0
  5 10  1  0  0  0  0
  6 11  1  0  0  0  0
  7  1  1  0  0  0  0
  7 23  1  0  0  0  0
  8  5  2  0  0  0  0
  9 14  1  0  0  0  0
 10 21  1  0  0  0  0
 12  4  1  0  0  0  0
 13 24  1  0  0  0  0
 15  2  1  0  0  0  0
 16  6  2  0  0  0  0
 17 28  1  6  0  0  0
 17 12  1  0  0  0  0
 18 17  1  0  0  0  0
 19  3  1  0  0  0  0
 20 22  2  0  0  0  0
 21 11  1  6  0  0  0
 22  9  1  0  0  0  0
 23 15  1  0  0  0  0
 24 18  1  0  0  0  0
 24  9  2  0  0  0  0
 25 19  1  0  0  0  0
 25 16  1  0  0  0  0
 26 20  1  0  0  0  0
 26 27  2  0  0  0  0
 28 30  1  0  0  0  0
 29 30  1  0  0  0  0
M  END
>  <MODEL>
5

>  <REMARK>
 VINA RESULT:      -5.1      4.720      8.238
  Name = 
  3 active torsions:
  status: ('A' for Active; 'I' for Inactive)
    1  A    between atoms: N_14  and  C_27
    2  A    between atoms: C_19  and  C_27
    3  A    between atoms: N_20  and  C_23
                            x       y       z     vdW  Elec       q    Type
                         _______ _______ _______ _____ _____    ______ ____

>  <TORSDO>
F 3

$$$$
=
 OpenBabel11042412033D

 30 34  0  0  1  0  0  0  0  0999 V2000
  180.5000  178.7240  140.1560 C   0  0  0  0  0  0  0  0  0  0  0  0
  184.5000  178.4380  139.4750 C   0  0  0  0  0  0  0  0  0  0  0  0
  184.9430  177.2610  137.5920 C   0  0  0  0  0  0  0  0  0  0  0  0
  181.2840  175.2330  137.0830 C   0  0  0  0  0  2  0  0  0  0  0  0
  186.9410  178.2530  138.6450 N   0  0  0  0  0  0  0  0  0  0  0  0
  183.7260  175.0490  136.6520 C   0  0  0  0  0  3  0  0  0  0  0  0
  181.3270  178.9740  141.4050 C   0  0  0  0  0  2  0  0  0  0  0  0
  185.9740  178.7540  139.5480 C   0  0  0  0  0  3  0  0  0  0  0  0
  179.5320  177.9300  137.6320 C   0  0  0  0  0  0  0  0  0  0  0  0
  186.3220  177.5350  137.7030 C   0  0  0  0  0  0  0  0  0  0  0  0
  185.2720  175.2700  136.7990 C   0  0  0  0  0  2  0  0  0  0  0  0
  180.8340  174.2090  137.9340 O   0  0  0  0  0  0  0  0  0  0  0  0
  179.9120  177.4980  139.9490 N   0  0  0  0  0  0  0  0  0  0  0  0
  179.1430  177.5400  136.3930 F   0  0  0  0  0  0  0  0  0  0  0  0
  183.4820  179.1120  140.3090 C   0  0  0  0  0  2  0  0  0  0  0  0
  182.7050  175.6110  137.3930 C   0  0  0  0  0  0  0  0  0  0  0  0
  180.1310  174.7900  139.0260 C   0  0  1  0  0  3  0  0  0  0  0  0
  178.9310  175.6840  138.6390 C   0  0  0  0  0  2  0  0  0  0  0  0
  183.9970  177.5890  138.4220 C   0  0  0  0  0  0  0  0  0  0  0  0
  180.5530  179.6350  139.0920 C   0  0  0  0  0  0  0  0  0  0  0  0
  185.8070  176.7460  136.6150 C   0  0  1  0  0  3  0  0  0  0  0  0
  180.1140  179.1960  137.8160 C   0  0  0  0  0  3  0  0  0  0  0  0
  182.6870  178.4040  141.1100 C   0  0  0  0  0  2  0  0  0  0  0  0
  179.3980  177.0960  138.7540 C   0  0  0  0  0  0  0  0  0  0  0  0
  182.8550  176.6240  138.5570 C   0  0  0  0  0  2  0  0  0  0  0  0
  181.0150  180.9950  139.3020 N   0  0  0  0  0  0  0  0  0  0  0  0
  181.5760  181.6650  138.3450 C   0  0  0  0  0  2  0  0  0  0  0  0
  179.6410  173.6930  139.9740 C   0  0  0  0  0  2  0  0  0  0  0  0
  179.3070  173.3790  142.1890 O   0  0  0  0  0  1  0  0  0  0  0  0
  179.0850  174.2710  141.1960 N   0  0  0  0  0  2  0  0  0  0  0  0
  1  7  1  0  0  0  0
  2  8  1  0  0  0  0
  2 15  1  0  0  0  0
  3 10  2  0  0  0  0
  3 19  1  0  0  0  0
  4 16  1  0  0  0  0
  4 12  1  0  0  0  0
  5  8  2  0  0  0  0
  6 11  1  0  0  0  0
  6 16  2  0  0  0  0
  9 22  2  0  0  0  0
  9 24  1  0  0  0  0
 10  5  1  0  0  0  0
 12 17  1  0  0  0  0
 13  1  1  0  0  0  0
 14  9  1  0  0  0  0
 15 23  1  0  0  0  0
 16 25  1  0  0  0  0
 17 28  1  1  0  0  0
 18 24  1  0  0  0  0
 18 17  1  0  0  0  0
 19 25  1  0  0  0  0
 19  2  2  0  0  0  0
 20 26  1  0  0  0  0
 20  1  2  0  0  0  0
 21 11  1  1  0  0  0
 21  3  1  0  0  0  0
 21 10  1  0  0  0  0
 22 20  1  0  0  0  0
 23  7  1  0  0  0  0
 24 13  2  0  0  0  0
 27 26  2  0  0  0  0
 28 30  1  0  0  0  0
 30 29  1  0  0  0  0
M  END
>  <MODEL>
6

>  <REMARK>
 VINA RESULT:      -5.0      5.601      8.887
  Name = 
  3 active torsions:
  status: ('A' for Active; 'I' for Inactive)
    1  A    between atoms: N_14  and  C_27
    2  A    between atoms: C_19  and  C_27
    3  A    between atoms: N_20  and  C_23
                            x       y       z     vdW  Elec       q    Type
                         _______ _______ _______ _____ _____    ______ ____

>  <TORSDO>
F 3

$$$$
=
 OpenBabel11042412033D

 30 34  0  0  1  0  0  0  0  0999 V2000
  180.7000  178.4800  138.9320 C   0  0  0  0  0  0  0  0  0  0  0  0
  184.6410  178.5430  139.9330 C   0  0  0  0  0  0  0  0  0  0  0  0
  185.9560  177.9720  138.1800 C   0  0  0  0  0  0  0  0  0  0  0  0
  183.1370  176.0470  135.7100 C   0  0  0  0  0  2  0  0  0  0  0  0
  187.2110  178.6910  140.1790 N   0  0  0  0  0  0  0  0  0  0  0  0
  185.5510  176.0800  136.3040 C   0  0  0  0  0  3  0  0  0  0  0  0
  180.9260  178.3910  140.4300 C   0  0  0  0  0  2  0  0  0  0  0  0
  185.9040  178.8780  140.6890 C   0  0  0  0  0  3  0  0  0  0  0  0
  180.9250  178.4090  136.1240 C   0  0  0  0  0  0  0  0  0  0  0  0
  187.1240  178.2520  138.9190 C   0  0  0  0  0  0  0  0  0  0  0  0
  186.8640  176.3050  137.1330 C   0  0  0  0  0  2  0  0  0  0  0  0
  182.5500  174.8060  136.0140 O   0  0  0  0  0  0  0  0  0  0  0  0
  180.4310  177.3450  138.2030 N   0  0  0  0  0  0  0  0  0  0  0  0
  181.1140  178.3770  134.7820 F   0  0  0  0  0  0  0  0  0  0  0  0
  183.2900  178.9140  140.4040 C   0  0  0  0  0  2  0  0  0  0  0  0
  184.2500  176.3700  136.6660 C   0  0  0  0  0  0  0  0  0  0  0  0
  181.3980  175.0250  136.8190 C   0  0  1  0  0  3  0  0  0  0  0  0
  180.3240  175.9490  136.2000 C   0  0  0  0  0  2  0  0  0  0  0  0
  184.7240  178.0150  138.5920 C   0  0  0  0  0  0  0  0  0  0  0  0
  181.0260  179.6600  138.2470 C   0  0  0  0  0  0  0  0  0  0  0  0
  187.2000  177.7890  137.5580 C   0  0  1  0  0  3  0  0  0  0  0  0
  181.1920  179.5890  136.8400 C   0  0  0  0  0  3  0  0  0  0  0  0
  182.3620  177.9780  140.5980 C   0  0  0  0  0  2  0  0  0  0  0  0
  180.4910  177.2850  136.8440 C   0  0  0  0  0  0  0  0  0  0  0  0
  183.7790  177.0120  137.9960 C   0  0  0  0  0  2  0  0  0  0  0  0
  181.1590  180.9180  138.9590 N   0  0  0  0  0  0  0  0  0  0  0  0
  181.5570  181.9900  138.3500 C   0  0  0  0  0  2  0  0  0  0  0  0
  180.7480  173.6850  137.1730 C   0  0  0  0  0  2  0  0  0  0  0  0
  180.0660  174.0850  139.2930 O   0  0  0  0  0  1  0  0  0  0  0  0
  179.5890  173.8830  138.0430 N   0  0  0  0  0  2  0  0  0  0  0  0
  1  7  1  0  0  0  0
  2 15  1  0  0  0  0
  2  8  1  0  0  0  0
  3 19  1  0  0  0  0
  3 10  2  0  0  0  0
  4 12  1  0  0  0  0
  4 16  1  0  0  0  0
  5  8  2  0  0  0  0
  6 16  2  0  0  0  0
  6 11  1  0  0  0  0
  7 23  1  0  0  0  0
  9 22  1  0  0  0  0
  9 24  2  0  0  0  0
 10  5  1  0  0  0  0
 12 17  1  0  0  0  0
 13  1  2  0  0  0  0
 14  9  1  0  0  0  0
 15 23  1  0  0  0  0
 16 25  1  0  0  0  0
 17 28  1  6  0  0  0
 18 17  1  0  0  0  0
 18 24  1  0  0  0  0
 19  2  2  0  0  0  0
 20  1  1  0  0  0  0
 20 26  1  0  0  0  0
 21 11  1  1  0  0  0
 21  3  1  0  0  0  0
 21 10  1  0  0  0  0
 22 20  2  0  0  0  0
 24 13  1  0  0  0  0
 25 19  1  0  0  0  0
 27 26  2  0  0  0  0
 28 30  1  0  0  0  0
 30 29  1  0  0  0  0
M  END
>  <MODEL>
7

>  <REMARK>
 VINA RESULT:      -5.0      4.834      8.184
  Name = 
  3 active torsions:
  status: ('A' for Active; 'I' for Inactive)
    1  A    between atoms: N_14  and  C_27
    2  A    between atoms: C_19  and  C_27
    3  A    between atoms: N_20  and  C_23
                            x       y       z     vdW  Elec       q    Type
                         _______ _______ _______ _____ _____    ______ ____

>  <TORSDO>
F 3

$$$$
=
 OpenBabel11042412033D

 30 34  0  0  1  0  0  0  0  0999 V2000
  187.0280  177.8690  137.2110 C   0  0  0  0  0  0  0  0  0  0  0  0
  189.0090  177.9260  140.7630 C   0  0  0  0  0  0  0  0  0  0  0  0
  187.6520  177.3580  142.4850 C   0  0  0  0  0  0  0  0  0  0  0  0
  183.8790  177.9950  140.7200 C   0  0  0  0  0  2  0  0  0  0  0  0
  190.0130  177.6610  143.1310 N   0  0  0  0  0  0  0  0  0  0  0  0
  185.0740  178.0240  142.9000 C   0  0  0  0  0  3  0  0  0  0  0  0
  188.2960  178.7020  137.1630 C   0  0  0  0  0  2  0  0  0  0  0  0
  190.1560  177.9050  141.7440 C   0  0  0  0  0  3  0  0  0  0  0  0
  184.7230  176.4420  137.9780 C   0  0  0  0  0  0  0  0  0  0  0  0
  188.7310  177.3850  143.3910 C   0  0  0  0  0  0  0  0  0  0  0  0
  186.2430  178.1290  143.9410 C   0  0  0  0  0  2  0  0  0  0  0  0
  183.3730  179.2660  140.3940 O   0  0  0  0  0  0  0  0  0  0  0  0
  185.8040  178.4790  137.3610 N   0  0  0  0  0  0  0  0  0  0  0  0
  183.6450  175.7490  138.4210 F   0  0  0  0  0  0  0  0  0  0  0  0
  189.1940  177.9990  139.2980 C   0  0  0  0  0  2  0  0  0  0  0  0
  185.1440  178.1040  141.5220 C   0  0  0  0  0  0  0  0  0  0  0  0
  183.8200  179.6210  139.0910 C   0  0  1  0  0  3  0  0  0  0  0  0
  183.4420  178.6280  137.9680 C   0  0  0  0  0  2  0  0  0  0  0  0
  187.6650  177.6660  141.2210 C   0  0  0  0  0  0  0  0  0  0  0  0
  187.1140  176.4790  137.3760 C   0  0  0  0  0  0  0  0  0  0  0  0
  187.4000  177.0580  143.8310 C   0  0  1  0  0  3  0  0  0  0  0  0
  185.9570  175.7880  137.8180 C   0  0  0  0  0  3  0  0  0  0  0  0
  188.6460  178.9900  138.5960 C   0  0  0  0  0  2  0  0  0  0  0  0
  184.6620  177.8150  137.6910 C   0  0  0  0  0  0  0  0  0  0  0  0
  186.4230  178.3030  140.6700 C   0  0  0  0  0  2  0  0  0  0  0  0
  188.3440  175.7710  137.0720 N   0  0  0  0  0  0  0  0  0  0  0  0
  188.3370  174.5020  136.8120 C   0  0  0  0  0  2  0  0  0  0  0  0
  183.2910  181.0080  138.7190 C   0  0  0  0  0  2  0  0  0  0  0  0
  181.2570  181.9970  138.7180 O   0  0  0  0  0  1  0  0  0  0  0  0
  181.9180  180.9250  138.2240 N   0  0  0  0  0  2  0  0  0  0  0  0
  1 13  2  0  0  0  0
  1 20  1  0  0  0  0
  2 19  2  0  0  0  0
  2  8  1  0  0  0  0
  3 10  2  0  0  0  0
  3 21  1  0  0  0  0
  4 16  1  0  0  0  0
  5 10  1  0  0  0  0
  6 11  1  0  0  0  0
  7  1  1  0  0  0  0
  7 23  1  0  0  0  0
  8  5  2  0  0  0  0
  9 14  1  0  0  0  0
 10 21  1  0  0  0  0
 12  4  1  0  0  0  0
 13 24  1  0  0  0  0
 15  2  1  0  0  0  0
 16  6  2  0  0  0  0
 17 28  1  6  0  0  0
 17 12  1  0  0  0  0
 18 17  1  0  0  0  0
 19  3  1  0  0  0  0
 20 22  2  0  0  0  0
 21 11  1  1  0  0  0
 22  9  1  0  0  0  0
 23 15  1  0  0  0  0
 24 18  1  0  0  0  0
 24  9  2  0  0  0  0
 25 19  1  0  0  0  0
 25 16  1  0  0  0  0
 26 20  1  0  0  0  0
 27 26  2  0  0  0  0
 30 29  1  0  0  0  0
 30 28  1  0  0  0  0
M  END
>  <MODEL>
8

>  <REMARK>
 VINA RESULT:      -4.8      4.126      7.628
  Name = 
  3 active torsions:
  status: ('A' for Active; 'I' for Inactive)
    1  A    between atoms: N_14  and  C_27
    2  A    between atoms: C_19  and  C_27
    3  A    between atoms: N_20  and  C_23
                            x       y       z     vdW  Elec       q    Type
                         _______ _______ _______ _____ _____    ______ ____

>  <TORSDO>
F 3

$$$$
=
 OpenBabel11042412033D

 30 34  0  0  1  0  0  0  0  0999 V2000
  180.7260  176.8210  137.7550 C   0  0  0  0  0  0  0  0  0  0  0  0
  183.9750  175.6280  135.6180 C   0  0  0  0  0  0  0  0  0  0  0  0
  185.9060  176.0840  136.7100 C   0  0  0  0  0  0  0  0  0  0  0  0
  184.5580  178.9800  139.4580 C   0  0  0  0  0  2  0  0  0  0  0  0
  186.2150  174.8040  134.6240 N   0  0  0  0  0  0  0  0  0  0  0  0
  186.5550  178.2570  138.1660 C   0  0  0  0  0  3  0  0  0  0  0  0
  180.4240  176.6420  136.2780 C   0  0  0  0  0  2  0  0  0  0  0  0
  184.8020  174.8840  134.5980 C   0  0  0  0  0  3  0  0  0  0  0  0
  181.9340  177.2190  140.2690 C   0  0  0  0  0  0  0  0  0  0  0  0
  186.6620  175.4200  135.7240 C   0  0  0  0  0  0  0  0  0  0  0  0
  187.4240  177.5960  137.0390 C   0  0  0  0  0  2  0  0  0  0  0  0
  184.1500  180.2750  139.0920 O   0  0  0  0  0  0  0  0  0  0  0  0
  180.9530  178.0770  138.2690 N   0  0  0  0  0  0  0  0  0  0  0  0
  182.5850  177.3870  141.4470 F   0  0  0  0  0  0  0  0  0  0  0  0
  182.5000  175.5490  135.6810 C   0  0  0  0  0  2  0  0  0  0  0  0
  185.1790  178.2580  138.2970 C   0  0  0  0  0  0  0  0  0  0  0  0
  182.7690  180.2450  138.7510 C   0  0  1  0  0  3  0  0  0  0  0  0
  181.8260  179.7170  139.8560 C   0  0  0  0  0  2  0  0  0  0  0  0
  184.6230  176.2980  136.7200 C   0  0  0  0  0  0  0  0  0  0  0  0
  181.0410  175.7030  138.5420 C   0  0  0  0  0  0  0  0  0  0  0  0
  187.2990  176.0310  136.8610 C   0  0  1  0  0  3  0  0  0  0  0  0
  181.7010  175.9240  139.7780 C   0  0  0  0  0  3  0  0  0  0  0  0
  181.7600  176.6530  135.5880 C   0  0  0  0  0  2  0  0  0  0  0  0
  181.4980  178.3070  139.4960 C   0  0  0  0  0  0  0  0  0  0  0  0
  184.1580  177.5790  137.3490 C   0  0  0  0  0  2  0  0  0  0  0  0
  180.6730  174.3670  138.1120 N   0  0  0  0  0  0  0  0  0  0  0  0
  179.6160  173.7820  138.5810 C   0  0  0  0  0  2  0  0  0  0  0  0
  182.3040  181.6440  138.3370 C   0  0  0  0  0  2  0  0  0  0  0  0
  180.5910  182.8300  137.4570 O   0  0  0  0  0  1  0  0  0  0  0  0
  181.0760  181.5710  137.5460 N   0  0  0  0  0  2  0  0  0  0  0  0
  1 13  2  0  0  0  0
  1 20  1  0  0  0  0
  2 15  1  0  0  0  0
  2 19  1  0  0  0  0
  3 19  2  0  0  0  0
  3 21  1  0  0  0  0
  5 10  2  0  0  0  0
  6 16  2  0  0  0  0
  7  1  1  0  0  0  0
  8  5  1  0  0  0  0
  8  2  2  0  0  0  0
  9 14  1  0  0  0  0
 10  3  1  0  0  0  0
 10 21  1  0  0  0  0
 11  6  1  0  0  0  0
 12  4  1  0  0  0  0
 13 24  1  0  0  0  0
 16  4  1  0  0  0  0
 17 28  1  1  0  0  0
 17 12  1  0  0  0  0
 17 18  1  0  0  0  0
 19 25  1  0  0  0  0
 20 22  2  0  0  0  0
 21 11  1  6  0  0  0
 22  9  1  0  0  0  0
 23 15  1  0  0  0  0
 23  7  1  0  0  0  0
 24 18  1  0  0  0  0
 24  9  2  0  0  0  0
 25 16  1  0  0  0  0
 26 20  1  0  0  0  0
 26 27  2  0  0  0  0
 29 30  1  0  0  0  0
 30 28  1  0  0  0  0
M  END
>  <MODEL>
9

>  <REMARK>
 VINA RESULT:      -4.7      4.826      7.873
  Name = 
  3 active torsions:
  status: ('A' for Active; 'I' for Inactive)
    1  A    between atoms: N_14  and  C_27
    2  A    between atoms: C_19  and  C_27
    3  A    between atoms: N_20  and  C_23
                            x       y       z     vdW  Elec       q    Type
                         _______ _______ _______ _____ _____    ______ ____

>  <TORSDO>
F 3

$$$$
