=
 OpenBabel11032421023D

 46 48  0  0  1  0  0  0  0  0999 V2000
  186.0310  178.8150  141.8430 C   0  0  0  0  0  0  0  0  0  0  0  0
  182.3480  178.6110  142.7520 C   0  0  0  0  0  1  0  0  0  0  0  0
  184.8400  178.8220  142.5870 C   0  0  0  0  0  0  0  0  0  0  0  0
  184.8840  179.0190  143.9650 O   0  0  0  0  0  1  0  0  0  0  0  0
  183.5690  178.4070  140.5510 C   0  0  0  0  0  0  0  0  0  0  0  0
  185.9880  178.6090  140.4620 C   0  0  0  0  0  3  0  0  0  0  0  0
  183.6070  178.6180  141.9440 C   0  0  0  0  0  0  0  0  0  0  0  0
  184.7670  178.4080  139.8210 C   0  0  0  0  0  3  0  0  0  0  0  0
  187.3560  178.9460  142.5250 C   0  0  0  0  0  2  0  0  0  0  0  0
  188.6660  176.7810  142.0980 C   0  0  2  0  0  3  0  0  0  0  0  0
  187.8380  177.6000  143.0810 C   0  0  1  0  0  3  0  0  0  0  0  0
  189.4760  175.8600  142.9910 C   0  0  0  0  0  2  0  0  0  0  0  0
  189.7020  176.6110  144.2940 C   0  0  0  0  0  2  0  0  0  0  0  0
  188.6790  177.7350  144.3410 C   0  0  2  0  0  3  0  0  0  0  0  0
  187.7960  177.5880  145.5670 C   0  0  0  0  0  2  0  0  0  0  0  0
  188.6430  177.6050  146.8230 C   0  0  0  0  0  2  0  0  0  0  0  0
  187.8250  177.8220  147.9300 O   0  0  0  0  0  0  0  0  0  0  0  0
  186.6680  178.3970  147.4030 C   0  0  0  0  0  1  0  0  0  0  0  0
  189.6220  177.6470  141.2730 C   0  0  0  0  0  2  0  0  0  0  0  0
  189.4570  178.5470  139.0760 O   0  0  0  0  0  1  0  0  0  0  0  0
  189.4900  177.3440  139.7870 C   0  0  1  0  0  3  0  0  0  0  0  0
  191.8640  177.0900  139.6370 O   0  0  0  0  0  1  0  0  0  0  0  0
  190.6540  176.4790  139.3040 C   0  0  2  0  0  3  0  0  0  0  0  0
  190.6020  176.3040  137.7930 C   0  0  0  0  0  2  0  0  0  0  0  0
  189.4100  175.4460  137.3960 C   0  0  0  0  0  2  0  0  0  0  0  0
  188.6930  176.0650  136.2440 C   0  0  0  0  0  3  0  0  0  0  0  0
  188.1710  177.1620  136.3620 O   0  0  0  0  0  0  0  0  0  0  0  0
  182.2610  178.1530  139.8530 C   0  0  2  0  0  3  0  0  0  0  0  0
  179.9460  173.0610  138.4690 O   0  0  0  0  0  0  0  0  0  0  0  0
  181.4340  174.3640  137.1300 C   0  0  0  0  0  0  0  0  0  0  0  0
  181.8500  176.1960  138.3690 C   0  0  0  0  0  0  0  0  0  0  0  0
  180.7250  175.4010  139.5320 S   0  0  0  0  0  0  0  0  0  0  0  0
  182.0840  175.4790  137.1600 N   0  0  0  0  0  0  0  0  0  0  0  0
  182.4620  177.3550  138.6010 C   0  0  0  0  0  3  0  0  0  0  0  0
  180.6340  174.1020  138.3140 C   0  0  0  0  0  0  0  0  0  0  0  0
  181.4960  173.4820  136.0500 O   0  0  0  0  0  0  0  0  0  0  0  0
  182.6570  172.7120  135.7750 C   0  0  0  0  0  2  0  0  0  0  0  0
  183.0800  171.9720  137.0260 C   0  0  0  0  0  1  0  0  0  0  0  0
  181.5050  179.4280  139.5950 C   0  0  0  0  0  0  0  0  0  0  0  0
  179.5930  178.4300  140.5500 O   0  0  0  0  0  1  0  0  0  0  0  0
  182.1800  180.4990  139.0150 O   0  0  0  0  0  1  0  0  0  0  0  0
  180.2080  179.5220  139.9400 C   0  0  0  0  0  0  0  0  0  0  0  0
  178.9400  181.0430  138.5360 N   0  0  0  0  0  2  0  0  0  0  0  0
  179.3870  180.7370  139.7100 C   0  0  0  0  0  0  0  0  0  0  0  0
  178.9350  181.5500  140.8760 C   0  0  0  0  0  2  0  0  0  0  0  0
  179.6320  181.1610  142.0200 O   0  0  0  0  0  1  0  0  0  0  0  0
  1  9  1  0  0  0  0
  1  3  1  0  0  0  0
  3  4  1  0  0  0  0
  5  7  1  0  0  0  0
  6  1  2  0  0  0  0
  7  3  2  0  0  0  0
  7  2  1  0  0  0  0
  8  6  1  0  0  0  0
  8  5  2  0  0  0  0
 10 19  1  1  0  0  0
 10 12  1  0  0  0  0
 10 11  1  0  0  0  0
 11  9  1  6  0  0  0
 11 14  1  0  0  0  0
 12 13  1  0  0  0  0
 13 14  1  0  0  0  0
 14 15  1  1  0  0  0
 15 16  1  0  0  0  0
 16 17  1  0  0  0  0
 18 17  1  0  0  0  0
 21 20  1  6  0  0  0
 21 19  1  0  0  0  0
 23 22  1  6  0  0  0
 23 21  1  0  0  0  0
 24 23  1  0  0  0  0
 25 24  1  0  0  0  0
 26 27  2  0  0  0  0
 26 25  1  0  0  0  0
 28 34  1  6  0  0  0
 28  5  1  0  0  0  0
 30 33  2  0  0  0  0
 30 35  1  0  0  0  0
 31 34  2  0  0  0  0
 31 32  1  0  0  0  0
 33 31  1  0  0  0  0
 35 29  2  0  0  0  0
 35 32  1  0  0  0  0
 36 30  1  0  0  0  0
 37 36  1  0  0  0  0
 37 38  1  0  0  0  0
 39 28  1  0  0  0  0
 39 42  2  0  0  0  0
 41 39  1  0  0  0  0
 42 40  1  0  0  0  0
 43 44  2  0  0  0  0
 44 42  1  0  0  0  0
 44 45  1  0  0  0  0
 45 46  1  0  0  0  0
M  END
>  <MODEL>
1

>  <REMARK>
 VINA RESULT:      -6.3      0.000      0.000
  Name = 
  18 active torsions:
  status: ('A' for Active; 'I' for Inactive)
    1  A    between atoms: C_1  and  C_21
    2  A    between atoms: C_3  and  C_11
    3  A    between atoms: C_3  and  C_22
    4  A    between atoms: C_3  and  C_38
    5  A    between atoms: C_4  and  C_23
    6  A    between atoms: C_5  and  C_18
    7  A    between atoms: C_6  and  C_21
    8  A    between atoms: O_8  and  C_14
    9  A    between atoms: O_8  and  C_26
   10  A    between atoms: O_13  and  C_35
   11  A    between atoms: C_18  and  C_45
   12  A    between atoms: C_23  and  C_30
   13  A    between atoms: C_27  and  C_34
   14  A    between atoms: C_27  and  C_40
   15  A    between atoms: C_28  and  C_34
   16  A    between atoms: C_30  and  C_40
   17  A    between atoms: C_31  and  C_33
   18  A    between atoms: C_31  and  C_35
                            x       y       z     vdW  Elec       q    Type
                         _______ _______ _______ _____ _____    ______ ____

>  <TORSDO>
F 18

$$$$
=
 OpenBabel11032421023D

 46 48  0  0  1  0  0  0  0  0999 V2000
  185.2980  178.8210  141.8000 C   0  0  0  0  0  0  0  0  0  0  0  0
  183.7990  178.4510  138.3290 C   0  0  0  0  0  1  0  0  0  0  0  0
  185.1800  178.6780  140.4070 C   0  0  0  0  0  0  0  0  0  0  0  0
  186.3250  178.6380  139.6150 O   0  0  0  0  0  1  0  0  0  0  0  0
  182.7540  178.6390  140.6190 C   0  0  0  0  0  0  0  0  0  0  0  0
  184.1500  178.8690  142.5950 C   0  0  0  0  0  3  0  0  0  0  0  0
  183.9090  178.5870  139.8140 C   0  0  0  0  0  0  0  0  0  0  0  0
  182.8880  178.7780  142.0090 C   0  0  0  0  0  3  0  0  0  0  0  0
  186.6390  179.0040  142.4360 C   0  0  0  0  0  2  0  0  0  0  0  0
  188.1420  176.9480  142.1100 C   0  0  2  0  0  3  0  0  0  0  0  0
  187.1670  177.6870  143.0200 C   0  0  1  0  0  3  0  0  0  0  0  0
  188.9320  176.0740  143.0650 C   0  0  0  0  0  2  0  0  0  0  0  0
  188.9810  176.8170  144.3910 C   0  0  0  0  0  2  0  0  0  0  0  0
  187.8770  177.8620  144.3540 C   0  0  2  0  0  3  0  0  0  0  0  0
  186.8980  177.6290  145.4920 C   0  0  0  0  0  2  0  0  0  0  0  0
  187.6280  177.0850  146.7030 C   0  0  0  0  0  2  0  0  0  0  0  0
  188.4030  178.0950  147.2680 O   0  0  0  0  0  0  0  0  0  0  0  0
  187.6660  178.5270  148.3710 C   0  0  0  0  0  1  0  0  0  0  0  0
  189.1010  177.8960  141.3880 C   0  0  0  0  0  2  0  0  0  0  0  0
  189.4120  178.3710  139.0760 O   0  0  0  0  0  1  0  0  0  0  0  0
  189.4900  177.3460  140.0220 C   0  0  1  0  0  3  0  0  0  0  0  0
  191.6520  177.4010  141.0450 O   0  0  0  0  0  1  0  0  0  0  0  0
  190.9040  176.7640  140.0530 C   0  0  2  0  0  3  0  0  0  0  0  0
  191.5990  176.9710  138.7160 C   0  0  0  0  0  2  0  0  0  0  0  0
  191.7770  175.6430  137.9960 C   0  0  0  0  0  2  0  0  0  0  0  0
  190.4490  175.0990  137.5870 C   0  0  0  0  0  3  0  0  0  0  0  0
  190.2450  173.8960  137.6080 O   0  0  0  0  0  0  0  0  0  0  0  0
  181.3870  178.5780  139.9970 C   0  0  2  0  0  3  0  0  0  0  0  0
  179.9040  181.9550  135.5680 O   0  0  0  0  0  0  0  0  0  0  0  0
  179.5440  182.4010  137.8870 C   0  0  0  0  0  0  0  0  0  0  0  0
  180.3860  180.6020  138.9450 C   0  0  0  0  0  0  0  0  0  0  0  0
  180.7350  180.0460  137.2660 S   0  0  0  0  0  0  0  0  0  0  0  0
  179.7490  181.8730  139.0470 N   0  0  0  0  0  0  0  0  0  0  0  0
  180.7120  179.9150  140.0370 C   0  0  0  0  0  3  0  0  0  0  0  0
  180.0050  181.5960  136.7690 C   0  0  0  0  0  0  0  0  0  0  0  0
  178.9330  183.6440  137.7200 O   0  0  0  0  0  0  0  0  0  0  0  0
  179.2070  184.7380  138.5830 C   0  0  0  0  0  2  0  0  0  0  0  0
  179.2680  186.0170  137.7750 C   0  0  0  0  0  1  0  0  0  0  0  0
  180.5370  177.4980  140.6110 C   0  0  0  0  0  0  0  0  0  0  0  0
  181.0100  176.1330  138.7460 O   0  0  0  0  0  1  0  0  0  0  0  0
  179.9520  177.7340  141.8520 O   0  0  0  0  0  1  0  0  0  0  0  0
  180.3710  176.3270  139.9700 C   0  0  0  0  0  0  0  0  0  0  0  0
  179.2230  175.1420  141.7490 N   0  0  0  0  0  2  0  0  0  0  0  0
  179.5410  175.2160  140.4990 C   0  0  0  0  0  0  0  0  0  0  0  0
  178.9310  174.2400  139.5500 C   0  0  0  0  0  2  0  0  0  0  0  0
  179.9260  173.4380  138.9920 O   0  0  0  0  0  1  0  0  0  0  0  0
  1  9  1  0  0  0  0
  1  6  1  0  0  0  0
  2  7  1  0  0  0  0
  3  1  2  0  0  0  0
  4  3  1  0  0  0  0
  5  8  1  0  0  0  0
  7  3  1  0  0  0  0
  7  5  2  0  0  0  0
  8  6  2  0  0  0  0
 10 19  1  1  0  0  0
 10 11  1  0  0  0  0
 10 12  1  0  0  0  0
 11  9  1  6  0  0  0
 11 14  1  0  0  0  0
 12 13  1  0  0  0  0
 14 13  1  0  0  0  0
 14 15  1  1  0  0  0
 15 16  1  0  0  0  0
 16 17  1  0  0  0  0
 17 18  1  0  0  0  0
 21 20  1  6  0  0  0
 21 23  1  0  0  0  0
 21 19  1  0  0  0  0
 23 22  1  1  0  0  0
 24 23  1  0  0  0  0
 25 24  1  0  0  0  0
 26 27  2  0  0  0  0
 26 25  1  0  0  0  0
 28 34  1  1  0  0  0
 28 39  1  0  0  0  0
 28  5  1  0  0  0  0
 29 35  2  0  0  0  0
 30 33  2  0  0  0  0
 31 33  1  0  0  0  0
 31 34  2  0  0  0  0
 32 31  1  0  0  0  0
 35 32  1  0  0  0  0
 35 30  1  0  0  0  0
 36 30  1  0  0  0  0
 36 37  1  0  0  0  0
 38 37  1  0  0  0  0
 39 41  1  0  0  0  0
 40 42  1  0  0  0  0
 42 44  1  0  0  0  0
 42 39  2  0  0  0  0
 44 43  2  0  0  0  0
 45 44  1  0  0  0  0
 46 45  1  0  0  0  0
M  END
>  <MODEL>
2

>  <REMARK>
 VINA RESULT:      -6.2      2.341      5.054
  Name = 
  18 active torsions:
  status: ('A' for Active; 'I' for Inactive)
    1  A    between atoms: C_1  and  C_21
    2  A    between atoms: C_3  and  C_11
    3  A    between atoms: C_3  and  C_22
    4  A    between atoms: C_3  and  C_38
    5  A    between atoms: C_4  and  C_23
    6  A    between atoms: C_5  and  C_18
    7  A    between atoms: C_6  and  C_21
    8  A    between atoms: O_8  and  C_14
    9  A    between atoms: O_8  and  C_26
   10  A    between atoms: O_13  and  C_35
   11  A    between atoms: C_18  and  C_45
   12  A    between atoms: C_23  and  C_30
   13  A    between atoms: C_27  and  C_34
   14  A    between atoms: C_27  and  C_40
   15  A    between atoms: C_28  and  C_34
   16  A    between atoms: C_30  and  C_40
   17  A    between atoms: C_31  and  C_33
   18  A    between atoms: C_31  and  C_35
                            x       y       z     vdW  Elec       q    Type
                         _______ _______ _______ _____ _____    ______ ____

>  <TORSDO>
F 18

$$$$
=
 OpenBabel11032421023D

 46 48  0  0  1  0  0  0  0  0999 V2000
  188.9070  177.8690  143.0900 C   0  0  0  0  0  0  0  0  0  0  0  0
  192.1310  177.5290  141.1100 C   0  0  0  0  0  1  0  0  0  0  0  0
  190.2700  177.8890  142.7480 C   0  0  0  0  0  0  0  0  0  0  0  0
  191.2120  178.3210  143.6780 O   0  0  0  0  0  1  0  0  0  0  0  0
  189.7210  177.0610  140.5240 C   0  0  0  0  0  0  0  0  0  0  0  0
  187.9610  177.4430  142.1550 C   0  0  0  0  0  3  0  0  0  0  0  0
  190.6790  177.4860  141.4650 C   0  0  0  0  0  0  0  0  0  0  0  0
  188.3650  177.0410  140.8820 C   0  0  0  0  0  3  0  0  0  0  0  0
  188.4490  178.3730  144.4210 C   0  0  0  0  0  2  0  0  0  0  0  0
  186.7790  177.6380  146.2270 C   0  0  2  0  0  3  0  0  0  0  0  0
  187.0280  177.8940  144.7450 C   0  0  1  0  0  3  0  0  0  0  0  0
  185.2730  177.7580  146.3630 C   0  0  0  0  0  2  0  0  0  0  0  0
  184.8210  178.7540  145.3060 C   0  0  0  0  0  2  0  0  0  0  0  0
  185.9470  178.8620  144.2900 C   0  0  2  0  0  3  0  0  0  0  0  0
  185.4470  178.4650  142.9120 C   0  0  0  0  0  2  0  0  0  0  0  0
  183.9370  178.5730  142.8550 C   0  0  0  0  0  2  0  0  0  0  0  0
  183.5180  178.4970  141.5290 O   0  0  0  0  0  0  0  0  0  0  0  0
  184.6050  178.9650  140.7900 C   0  0  0  0  0  1  0  0  0  0  0  0
  187.4480  178.6840  147.1210 C   0  0  0  0  0  2  0  0  0  0  0  0
  187.7190  177.4440  149.1340 O   0  0  0  0  0  1  0  0  0  0  0  0
  188.4300  178.0320  148.0850 C   0  0  1  0  0  3  0  0  0  0  0  0
  189.0560  175.7280  147.9420 O   0  0  0  0  0  1  0  0  0  0  0  0
  189.2780  176.9810  147.3690 C   0  0  2  0  0  3  0  0  0  0  0  0
  190.7590  177.3120  147.4900 C   0  0  0  0  0  2  0  0  0  0  0  0
  191.5780  176.4390  146.5520 C   0  0  0  0  0  2  0  0  0  0  0  0
  192.4670  175.5340  147.3370 C   0  0  0  0  0  3  0  0  0  0  0  0
  193.0310  175.9430  148.3390 O   0  0  0  0  0  0  0  0  0  0  0  0
  190.1390  176.6590  139.1370 C   0  0  2  0  0  3  0  0  0  0  0  0
  193.6870  173.2560  136.1280 O   0  0  0  0  0  0  0  0  0  0  0  0
  194.2860  175.2190  137.3510 C   0  0  0  0  0  0  0  0  0  0  0  0
  192.3440  175.9630  138.2100 C   0  0  0  0  0  0  0  0  0  0  0  0
  191.6620  174.5400  137.3400 S   0  0  0  0  0  0  0  0  0  0  0  0
  193.7520  176.1400  138.0810 N   0  0  0  0  0  0  0  0  0  0  0  0
  191.6210  176.7940  138.9570 C   0  0  0  0  0  3  0  0  0  0  0  0
  193.3470  174.2330  136.8440 C   0  0  0  0  0  0  0  0  0  0  0  0
  195.6530  175.1730  137.0720 O   0  0  0  0  0  0  0  0  0  0  0  0
  196.4950  174.1640  137.6100 C   0  0  0  0  0  2  0  0  0  0  0  0
  196.6150  174.3520  139.1080 C   0  0  0  0  0  1  0  0  0  0  0  0
  189.3710  177.4050  138.0800 C   0  0  0  0  0  0  0  0  0  0  0  0
  188.3750  175.3670  137.4330 O   0  0  0  0  0  1  0  0  0  0  0  0
  189.5390  178.7840  137.9820 O   0  0  0  0  0  1  0  0  0  0  0  0
  188.5300  176.7430  137.2660 C   0  0  0  0  0  0  0  0  0  0  0  0
  188.0980  177.3260  134.9500 N   0  0  0  0  0  2  0  0  0  0  0  0
  187.7450  177.4000  136.1910 C   0  0  0  0  0  0  0  0  0  0  0  0
  186.4360  178.0360  136.5210 C   0  0  0  0  0  2  0  0  0  0  0  0
  185.8690  177.4010  137.6260 O   0  0  0  0  0  1  0  0  0  0  0  0
  1  9  1  0  0  0  0
  2  7  1  0  0  0  0
  3  1  1  0  0  0  0
  3  4  1  0  0  0  0
  5  8  2  0  0  0  0
  5  7  1  0  0  0  0
  6  1  2  0  0  0  0
  7  3  2  0  0  0  0
  8  6  1  0  0  0  0
 10 12  1  0  0  0  0
 10 19  1  1  0  0  0
 11  9  1  1  0  0  0
 11 10  1  0  0  0  0
 13 12  1  0  0  0  0
 14 15  1  6  0  0  0
 14 11  1  0  0  0  0
 14 13  1  0  0  0  0
 16 15  1  0  0  0  0
 17 16  1  0  0  0  0
 18 17  1  0  0  0  0
 19 21  1  0  0  0  0
 21 20  1  1  0  0  0
 23 24  1  0  0  0  0
 23 22  1  1  0  0  0
 23 21  1  0  0  0  0
 25 26  1  0  0  0  0
 25 24  1  0  0  0  0
 26 27  2  0  0  0  0
 28 34  1  1  0  0  0
 28  5  1  0  0  0  0
 29 35  2  0  0  0  0
 30 33  2  0  0  0  0
 31 34  2  0  0  0  0
 32 31  1  0  0  0  0
 33 31  1  0  0  0  0
 35 32  1  0  0  0  0
 35 30  1  0  0  0  0
 36 30  1  0  0  0  0
 36 37  1  0  0  0  0
 37 38  1  0  0  0  0
 39 28  1  0  0  0  0
 41 39  1  0  0  0  0
 42 40  1  0  0  0  0
 42 39  2  0  0  0  0
 43 44  2  0  0  0  0
 44 45  1  0  0  0  0
 44 42  1  0  0  0  0
 45 46  1  0  0  0  0
M  END
>  <MODEL>
3

>  <REMARK>
 VINA RESULT:      -5.7      4.165      8.994
  Name = 
  18 active torsions:
  status: ('A' for Active; 'I' for Inactive)
    1  A    between atoms: C_1  and  C_21
    2  A    between atoms: C_3  and  C_11
    3  A    between atoms: C_3  and  C_22
    4  A    between atoms: C_3  and  C_38
    5  A    between atoms: C_4  and  C_23
    6  A    between atoms: C_5  and  C_18
    7  A    between atoms: C_6  and  C_21
    8  A    between atoms: O_8  and  C_14
    9  A    between atoms: O_8  and  C_26
   10  A    between atoms: O_13  and  C_35
   11  A    between atoms: C_18  and  C_45
   12  A    between atoms: C_23  and  C_30
   13  A    between atoms: C_27  and  C_34
   14  A    between atoms: C_27  and  C_40
   15  A    between atoms: C_28  and  C_34
   16  A    between atoms: C_30  and  C_40
   17  A    between atoms: C_31  and  C_33
   18  A    between atoms: C_31  and  C_35
                            x       y       z     vdW  Elec       q    Type
                         _______ _______ _______ _____ _____    ______ ____

>  <TORSDO>
F 18

$$$$
=
 OpenBabel11032421023D

 46 48  0  0  1  0  0  0  0  0999 V2000
  186.6100  177.0010  136.8230 C   0  0  0  0  0  0  0  0  0  0  0  0
  189.3700  179.2520  138.1430 C   0  0  0  0  0  1  0  0  0  0  0  0
  187.3490  178.1480  137.1560 C   0  0  0  0  0  0  0  0  0  0  0  0
  186.8590  179.4090  136.8250 O   0  0  0  0  0  1  0  0  0  0  0  0
  189.0830  176.7440  138.1330 C   0  0  0  0  0  0  0  0  0  0  0  0
  187.1040  175.7350  137.1480 C   0  0  0  0  0  3  0  0  0  0  0  0
  188.5860  178.0230  137.8100 C   0  0  0  0  0  0  0  0  0  0  0  0
  188.3310  175.6080  137.7990 C   0  0  0  0  0  3  0  0  0  0  0  0
  185.3330  177.1140  136.0530 C   0  0  0  0  0  2  0  0  0  0  0  0
  183.6990  176.7370  137.9970 C   0  0  2  0  0  3  0  0  0  0  0  0
  184.2310  176.2360  136.6590 C   0  0  1  0  0  3  0  0  0  0  0  0
  182.3200  176.1120  138.0920 C   0  0  0  0  0  2  0  0  0  0  0  0
  181.8110  175.9700  136.6660 C   0  0  0  0  0  2  0  0  0  0  0  0
  183.0210  176.0750  135.7510 C   0  0  2  0  0  3  0  0  0  0  0  0
  183.1630  174.8090  134.9240 C   0  0  0  0  0  2  0  0  0  0  0  0
  183.9300  173.7610  135.7050 C   0  0  0  0  0  2  0  0  0  0  0  0
  183.0480  172.7780  136.1490 O   0  0  0  0  0  0  0  0  0  0  0  0
  183.8090  171.9890  137.0110 C   0  0  0  0  0  1  0  0  0  0  0  0
  183.5630  178.2610  138.0380 C   0  0  0  0  0  2  0  0  0  0  0  0
  184.2840  180.2480  139.1330 O   0  0  0  0  0  1  0  0  0  0  0  0
  184.4010  178.8550  139.1610 C   0  0  1  0  0  3  0  0  0  0  0  0
  182.7200  178.8790  140.8630 O   0  0  0  0  0  1  0  0  0  0  0  0
  183.9510  178.3160  140.5190 C   0  0  2  0  0  3  0  0  0  0  0  0
  184.9610  178.6700  141.6000 C   0  0  0  0  0  2  0  0  0  0  0  0
  184.2510  179.0370  142.8940 C   0  0  0  0  0  2  0  0  0  0  0  0
  184.8360  178.2740  144.0360 C   0  0  0  0  0  3  0  0  0  0  0  0
  186.0410  178.2870  144.2310 O   0  0  0  0  0  0  0  0  0  0  0  0
  190.4210  176.5920  138.8020 C   0  0  2  0  0  3  0  0  0  0  0  0
  195.4490  175.6840  136.1360 O   0  0  0  0  0  0  0  0  0  0  0  0
  193.9350  174.0170  136.9340 C   0  0  0  0  0  0  0  0  0  0  0  0
  192.2450  175.1850  137.8550 C   0  0  0  0  0  0  0  0  0  0  0  0
  193.2420  176.6040  137.3600 S   0  0  0  0  0  0  0  0  0  0  0  0
  192.7980  173.9110  137.5380 N   0  0  0  0  0  0  0  0  0  0  0  0
  191.0580  175.2830  138.4480 C   0  0  0  0  0  3  0  0  0  0  0  0
  194.3750  175.3850  136.7190 C   0  0  0  0  0  0  0  0  0  0  0  0
  194.6780  172.9110  136.5220 O   0  0  0  0  0  0  0  0  0  0  0  0
  195.4130  172.1150  137.4400 C   0  0  0  0  0  2  0  0  0  0  0  0
  196.8600  172.5600  137.4480 C   0  0  0  0  0  1  0  0  0  0  0  0
  190.3310  176.7920  140.2910 C   0  0  0  0  0  0  0  0  0  0  0  0
  192.5490  177.5950  140.2680 O   0  0  0  0  0  1  0  0  0  0  0  0
  189.1340  176.4870  140.9340 O   0  0  0  0  0  1  0  0  0  0  0  0
  191.3880  177.2730  140.9700 C   0  0  0  0  0  0  0  0  0  0  0  0
  191.0820  178.6320  142.9570 N   0  0  0  0  0  2  0  0  0  0  0  0
  191.3870  177.4880  142.4380 C   0  0  0  0  0  0  0  0  0  0  0  0
  191.5940  176.3270  143.3510 C   0  0  0  0  0  2  0  0  0  0  0  0
  191.6150  176.7650  144.6750 O   0  0  0  0  0  1  0  0  0  0  0  0
  1  6  2  0  0  0  0
  1  3  1  0  0  0  0
  3  7  2  0  0  0  0
  4  3  1  0  0  0  0
  5 28  1  0  0  0  0
  6  8  1  0  0  0  0
  7  5  1  0  0  0  0
  7  2  1  0  0  0  0
  8  5  2  0  0  0  0
  9  1  1  0  0  0  0
 10 19  1  6  0  0  0
 10 12  1  0  0  0  0
 11  9  1  6  0  0  0
 11 10  1  0  0  0  0
 13 12  1  0  0  0  0
 14 15  1  1  0  0  0
 14 11  1  0  0  0  0
 14 13  1  0  0  0  0
 15 16  1  0  0  0  0
 16 17  1  0  0  0  0
 17 18  1  0  0  0  0
 19 21  1  0  0  0  0
 21 20  1  1  0  0  0
 21 23  1  0  0  0  0
 23 22  1  1  0  0  0
 23 24  1  0  0  0  0
 24 25  1  0  0  0  0
 25 26  1  0  0  0  0
 26 27  2  0  0  0  0
 28 34  1  1  0  0  0
 28 39  1  0  0  0  0
 29 35  2  0  0  0  0
 30 33  2  0  0  0  0
 31 34  2  0  0  0  0
 32 31  1  0  0  0  0
 33 31  1  0  0  0  0
 35 30  1  0  0  0  0
 35 32  1  0  0  0  0
 36 30  1  0  0  0  0
 36 37  1  0  0  0  0
 37 38  1  0  0  0  0
 39 41  1  0  0  0  0
 39 42  2  0  0  0  0
 40 42  1  0  0  0  0
 42 44  1  0  0  0  0
 44 43  2  0  0  0  0
 44 45  1  0  0  0  0
 45 46  1  0  0  0  0
M  END
>  <MODEL>
4

>  <REMARK>
 VINA RESULT:      -5.5      4.045     10.164
  Name = 
  18 active torsions:
  status: ('A' for Active; 'I' for Inactive)
    1  A    between atoms: C_1  and  C_21
    2  A    between atoms: C_3  and  C_11
    3  A    between atoms: C_3  and  C_22
    4  A    between atoms: C_3  and  C_38
    5  A    between atoms: C_4  and  C_23
    6  A    between atoms: C_5  and  C_18
    7  A    between atoms: C_6  and  C_21
    8  A    between atoms: O_8  and  C_14
    9  A    between atoms: O_8  and  C_26
   10  A    between atoms: O_13  and  C_35
   11  A    between atoms: C_18  and  C_45
   12  A    between atoms: C_23  and  C_30
   13  A    between atoms: C_27  and  C_34
   14  A    between atoms: C_27  and  C_40
   15  A    between atoms: C_28  and  C_34
   16  A    between atoms: C_30  and  C_40
   17  A    between atoms: C_31  and  C_33
   18  A    between atoms: C_31  and  C_35
                            x       y       z     vdW  Elec       q    Type
                         _______ _______ _______ _____ _____    ______ ____

>  <TORSDO>
F 18

$$$$
=
 OpenBabel11032421023D

 46 48  0  0  1  0  0  0  0  0999 V2000
  183.2560  175.8710  137.7290 C   0  0  0  0  0  0  0  0  0  0  0  0
  184.4280  179.3890  138.5570 C   0  0  0  0  0  1  0  0  0  0  0  0
  183.8230  177.1510  137.6070 C   0  0  0  0  0  0  0  0  0  0  0  0
  184.4120  177.5350  136.4050 O   0  0  0  0  0  1  0  0  0  0  0  0
  183.2180  177.6380  139.9150 C   0  0  0  0  0  0  0  0  0  0  0  0
  182.6710  175.4820  138.9370 C   0  0  0  0  0  3  0  0  0  0  0  0
  183.8060  178.0360  138.6980 C   0  0  0  0  0  0  0  0  0  0  0  0
  182.6520  176.3590  140.0210 C   0  0  0  0  0  3  0  0  0  0  0  0
  183.3410  174.8890  136.6050 C   0  0  0  0  0  2  0  0  0  0  0  0
  182.5250  172.4650  136.8260 C   0  0  2  0  0  3  0  0  0  0  0  0
  183.6320  173.4720  137.1170 C   0  0  1  0  0  3  0  0  0  0  0  0
  183.2370  171.1260  136.8710 C   0  0  0  0  0  2  0  0  0  0  0  0
  184.6670  171.3820  136.4200 C   0  0  0  0  0  2  0  0  0  0  0  0
  184.9120  172.8780  136.5500 C   0  0  2  0  0  3  0  0  0  0  0  0
  186.0660  173.1380  137.5020 C   0  0  0  0  0  2  0  0  0  0  0  0
  186.8570  174.3460  137.0430 C   0  0  0  0  0  2  0  0  0  0  0  0
  188.1100  173.9350  136.5940 O   0  0  0  0  0  0  0  0  0  0  0  0
  188.9290  175.0510  136.7700 C   0  0  0  0  0  1  0  0  0  0  0  0
  181.9080  172.6580  135.4390 C   0  0  0  0  0  2  0  0  0  0  0  0
  179.9040  171.3760  135.5160 O   0  0  0  0  0  1  0  0  0  0  0  0
  180.3880  172.6870  135.5150 C   0  0  1  0  0  3  0  0  0  0  0  0
  178.9780  172.6440  137.4480 O   0  0  0  0  0  1  0  0  0  0  0  0
  179.9210  173.4210  136.7720 C   0  0  2  0  0  3  0  0  0  0  0  0
  179.2780  174.7520  136.4100 C   0  0  0  0  0  2  0  0  0  0  0  0
  179.2990  175.6960  137.6020 C   0  0  0  0  0  2  0  0  0  0  0  0
  179.3950  177.1110  137.1350 C   0  0  0  0  0  3  0  0  0  0  0  0
  180.3510  177.7990  137.4530 O   0  0  0  0  0  0  0  0  0  0  0  0
  183.2230  178.5600  141.1030 C   0  0  2  0  0  3  0  0  0  0  0  0
  188.9020  178.5080  142.0790 O   0  0  0  0  0  0  0  0  0  0  0  0
  187.2060  177.5640  143.4700 C   0  0  0  0  0  0  0  0  0  0  0  0
  185.2790  178.0250  142.4020 C   0  0  0  0  0  0  0  0  0  0  0  0
  186.3770  178.8280  141.2190 S   0  0  0  0  0  0  0  0  0  0  0  0
  185.9230  177.4230  143.5210 N   0  0  0  0  0  0  0  0  0  0  0  0
  183.9580  177.9530  142.2580 C   0  0  0  0  0  3  0  0  0  0  0  0
  187.6850  178.2870  142.3050 C   0  0  0  0  0  0  0  0  0  0  0  0
  188.0610  177.0640  144.4530 O   0  0  0  0  0  0  0  0  0  0  0  0
  188.5030  177.8620  145.5410 C   0  0  0  0  0  2  0  0  0  0  0  0
  189.2340  176.9920  146.5410 C   0  0  0  0  0  1  0  0  0  0  0  0
  181.8330  178.9940  141.4820 C   0  0  0  0  0  0  0  0  0  0  0  0
  182.5980  179.3500  143.6850 O   0  0  0  0  0  1  0  0  0  0  0  0
  180.8490  179.0210  140.4970 O   0  0  0  0  0  1  0  0  0  0  0  0
  181.5660  179.3620  142.7490 C   0  0  0  0  0  0  0  0  0  0  0  0
  179.6160  180.8060  142.6870 N   0  0  0  0  0  2  0  0  0  0  0  0
  180.2210  179.7910  143.2090 C   0  0  0  0  0  0  0  0  0  0  0  0
  179.4790  178.9490  144.1910 C   0  0  0  0  0  2  0  0  0  0  0  0
  179.6320  177.6010  143.8680 O   0  0  0  0  0  1  0  0  0  0  0  0
  1  6  1  0  0  0  0
  2  7  1  0  0  0  0
  3  1  2  0  0  0  0
  3  7  1  0  0  0  0
  4  3  1  0  0  0  0
  5  8  1  0  0  0  0
  5 28  1  0  0  0  0
  6  8  2  0  0  0  0
  7  5  2  0  0  0  0
  9  1  1  0  0  0  0
 10 19  1  6  0  0  0
 10 12  1  0  0  0  0
 10 11  1  0  0  0  0
 11  9  1  6  0  0  0
 13 14  1  0  0  0  0
 13 12  1  0  0  0  0
 14 11  1  0  0  0  0
 14 15  1  1  0  0  0
 16 15  1  0  0  0  0
 17 18  1  0  0  0  0
 17 16  1  0  0  0  0
 19 21  1  0  0  0  0
 21 20  1  1  0  0  0
 21 23  1  0  0  0  0
 23 22  1  6  0  0  0
 24 23  1  0  0  0  0
 24 25  1  0  0  0  0
 26 27  2  0  0  0  0
 26 25  1  0  0  0  0
 28 39  1  0  0  0  0
 28 34  1  1  0  0  0
 29 35  2  0  0  0  0
 30 33  2  0  0  0  0
 30 36  1  0  0  0  0
 31 33  1  0  0  0  0
 32 35  1  0  0  0  0
 32 31  1  0  0  0  0
 34 31  2  0  0  0  0
 35 30  1  0  0  0  0
 36 37  1  0  0  0  0
 37 38  1  0  0  0  0
 39 42  2  0  0  0  0
 41 39  1  0  0  0  0
 42 44  1  0  0  0  0
 42 40  1  0  0  0  0
 43 44  2  0  0  0  0
 44 45  1  0  0  0  0
 46 45  1  0  0  0  0
M  END
>  <MODEL>
5

>  <REMARK>
 VINA RESULT:      -5.1      2.645      8.448
  Name = 
  18 active torsions:
  status: ('A' for Active; 'I' for Inactive)
    1  A    between atoms: C_1  and  C_21
    2  A    between atoms: C_3  and  C_11
    3  A    between atoms: C_3  and  C_22
    4  A    between atoms: C_3  and  C_38
    5  A    between atoms: C_4  and  C_23
    6  A    between atoms: C_5  and  C_18
    7  A    between atoms: C_6  and  C_21
    8  A    between atoms: O_8  and  C_14
    9  A    between atoms: O_8  and  C_26
   10  A    between atoms: O_13  and  C_35
   11  A    between atoms: C_18  and  C_45
   12  A    between atoms: C_23  and  C_30
   13  A    between atoms: C_27  and  C_34
   14  A    between atoms: C_27  and  C_40
   15  A    between atoms: C_28  and  C_34
   16  A    between atoms: C_30  and  C_40
   17  A    between atoms: C_31  and  C_33
   18  A    between atoms: C_31  and  C_35
                            x       y       z     vdW  Elec       q    Type
                         _______ _______ _______ _____ _____    ______ ____

>  <TORSDO>
F 18

$$$$
=
 OpenBabel11032421023D

 46 48  0  0  1  0  0  0  0  0999 V2000
  183.6470  179.1640  139.7870 C   0  0  0  0  0  0  0  0  0  0  0  0
  185.9520  178.0190  142.5810 C   0  0  0  0  0  1  0  0  0  0  0  0
  184.1270  178.8160  141.0600 C   0  0  0  0  0  0  0  0  0  0  0  0
  183.2920  178.9260  142.1690 O   0  0  0  0  0  1  0  0  0  0  0  0
  186.2940  178.2710  140.0930 C   0  0  0  0  0  0  0  0  0  0  0  0
  184.4870  179.0610  138.6740 C   0  0  0  0  0  3  0  0  0  0  0  0
  185.4500  178.3700  141.2160 C   0  0  0  0  0  0  0  0  0  0  0  0
  185.7990  178.6170  138.8260 C   0  0  0  0  0  3  0  0  0  0  0  0
  182.2690  179.7200  139.6170 C   0  0  0  0  0  2  0  0  0  0  0  0
  181.5700  179.0180  137.2490 C   0  0  2  0  0  3  0  0  0  0  0  0
  182.0120  180.1520  138.1670 C   0  0  1  0  0  3  0  0  0  0  0  0
  180.8460  179.7310  136.1220 C   0  0  0  0  0  2  0  0  0  0  0  0
  180.2360  180.9860  136.7270 C   0  0  0  0  0  2  0  0  0  0  0  0
  180.9570  181.2410  138.0420 C   0  0  2  0  0  3  0  0  0  0  0  0
  181.6260  182.6040  138.0150 C   0  0  0  0  0  2  0  0  0  0  0  0
  180.7000  183.6260  137.3870 C   0  0  0  0  0  2  0  0  0  0  0  0
  181.4410  184.4870  136.5810 O   0  0  0  0  0  0  0  0  0  0  0  0
  180.8130  184.4290  135.3360 C   0  0  0  0  0  1  0  0  0  0  0  0
  180.6020  178.0520  137.9350 C   0  0  0  0  0  2  0  0  0  0  0  0
  181.6370  176.6340  136.3280 O   0  0  0  0  0  1  0  0  0  0  0  0
  180.8410  176.6200  137.4760 C   0  0  1  0  0  3  0  0  0  0  0  0
  181.1100  176.2700  139.8270 O   0  0  0  0  0  1  0  0  0  0  0  0
  181.5180  175.8030  138.5770 C   0  0  2  0  0  3  0  0  0  0  0  0
  183.0320  175.9280  138.4850 C   0  0  0  0  0  2  0  0  0  0  0  0
  183.6460  174.6260  137.9960 C   0  0  0  0  0  2  0  0  0  0  0  0
  184.6640  174.9030  136.9410 C   0  0  0  0  0  3  0  0  0  0  0  0
  185.5460  174.0910  136.7090 O   0  0  0  0  0  0  0  0  0  0  0  0
  187.7230  177.8270  140.2480 C   0  0  2  0  0  3  0  0  0  0  0  0
  191.6810  175.4880  143.7220 O   0  0  0  0  0  0  0  0  0  0  0  0
  190.6910  177.6510  143.9380 C   0  0  0  0  0  0  0  0  0  0  0  0
  189.2780  177.8010  142.1920 C   0  0  0  0  0  0  0  0  0  0  0  0
  189.9060  176.1530  141.8180 S   0  0  0  0  0  0  0  0  0  0  0  0
  189.8290  178.4150  143.3550 N   0  0  0  0  0  0  0  0  0  0  0  0
  188.3440  178.4210  141.4750 C   0  0  0  0  0  3  0  0  0  0  0  0
  190.8920  176.3660  143.2890 C   0  0  0  0  0  0  0  0  0  0  0  0
  191.3730  178.0260  145.0970 O   0  0  0  0  0  0  0  0  0  0  0  0
  191.3130  177.2530  146.2860 C   0  0  0  0  0  2  0  0  0  0  0  0
  189.8780  177.1630  146.7590 C   0  0  0  0  0  1  0  0  0  0  0  0
  188.5350  178.1070  139.0120 C   0  0  0  0  0  0  0  0  0  0  0  0
  188.1590  175.8820  138.3210 O   0  0  0  0  0  1  0  0  0  0  0  0
  189.0540  179.3860  138.8290 O   0  0  0  0  0  1  0  0  0  0  0  0
  188.7320  177.1340  138.1030 C   0  0  0  0  0  0  0  0  0  0  0  0
  190.7230  176.8400  136.7460 N   0  0  0  0  0  2  0  0  0  0  0  0
  189.5290  177.3220  136.8650 C   0  0  0  0  0  0  0  0  0  0  0  0
  188.8940  177.9490  135.6700 C   0  0  0  0  0  2  0  0  0  0  0  0
  187.5820  177.4940  135.5410 O   0  0  0  0  0  1  0  0  0  0  0  0
  1  3  1  0  0  0  0
  3  7  2  0  0  0  0
  3  4  1  0  0  0  0
  5 28  1  0  0  0  0
  5  7  1  0  0  0  0
  6  8  1  0  0  0  0
  6  1  2  0  0  0  0
  7  2  1  0  0  0  0
  8  5  2  0  0  0  0
  9  1  1  0  0  0  0
 10 19  1  1  0  0  0
 10 11  1  0  0  0  0
 11  9  1  1  0  0  0
 12 13  1  0  0  0  0
 12 10  1  0  0  0  0
 13 14  1  0  0  0  0
 14 15  1  6  0  0  0
 14 11  1  0  0  0  0
 16 15  1  0  0  0  0
 17 16  1  0  0  0  0
 18 17  1  0  0  0  0
 21 20  1  6  0  0  0
 21 19  1  0  0  0  0
 21 23  1  0  0  0  0
 23 22  1  1  0  0  0
 24 23  1  0  0  0  0
 25 24  1  0  0  0  0
 26 25  1  0  0  0  0
 27 26  2  0  0  0  0
 28 34  1  1  0  0  0
 30 36  1  0  0  0  0
 31 33  1  0  0  0  0
 32 31  1  0  0  0  0
 32 35  1  0  0  0  0
 33 30  2  0  0  0  0
 34 31  2  0  0  0  0
 35 29  2  0  0  0  0
 35 30  1  0  0  0  0
 36 37  1  0  0  0  0
 37 38  1  0  0  0  0
 39 28  1  0  0  0  0
 41 39  1  0  0  0  0
 42 40  1  0  0  0  0
 42 39  2  0  0  0  0
 43 44  2  0  0  0  0
 44 42  1  0  0  0  0
 45 44  1  0  0  0  0
 46 45  1  0  0  0  0
M  END
>  <MODEL>
6

>  <REMARK>
 VINA RESULT:      -5.0      3.445      9.475
  Name = 
  18 active torsions:
  status: ('A' for Active; 'I' for Inactive)
    1  A    between atoms: C_1  and  C_21
    2  A    between atoms: C_3  and  C_11
    3  A    between atoms: C_3  and  C_22
    4  A    between atoms: C_3  and  C_38
    5  A    between atoms: C_4  and  C_23
    6  A    between atoms: C_5  and  C_18
    7  A    between atoms: C_6  and  C_21
    8  A    between atoms: O_8  and  C_14
    9  A    between atoms: O_8  and  C_26
   10  A    between atoms: O_13  and  C_35
   11  A    between atoms: C_18  and  C_45
   12  A    between atoms: C_23  and  C_30
   13  A    between atoms: C_27  and  C_34
   14  A    between atoms: C_27  and  C_40
   15  A    between atoms: C_28  and  C_34
   16  A    between atoms: C_30  and  C_40
   17  A    between atoms: C_31  and  C_33
   18  A    between atoms: C_31  and  C_35
                            x       y       z     vdW  Elec       q    Type
                         _______ _______ _______ _____ _____    ______ ____

>  <TORSDO>
F 18

$$$$
=
 OpenBabel11032421023D

 46 48  0  0  1  0  0  0  0  0999 V2000
  185.5170  178.7930  141.6070 C   0  0  0  0  0  0  0  0  0  0  0  0
  184.0820  178.3370  138.1200 C   0  0  0  0  0  1  0  0  0  0  0  0
  185.4240  178.6230  140.2160 C   0  0  0  0  0  0  0  0  0  0  0  0
  186.5820  178.5890  139.4430 O   0  0  0  0  0  1  0  0  0  0  0  0
  182.9970  178.5470  140.3890 C   0  0  0  0  0  0  0  0  0  0  0  0
  184.3550  178.8350  142.3820 C   0  0  0  0  0  3  0  0  0  0  0  0
  184.1650  178.5000  139.6040 C   0  0  0  0  0  0  0  0  0  0  0  0
  183.1050  178.7120  141.7780 C   0  0  0  0  0  3  0  0  0  0  0  0
  186.8440  179.0090  142.2620 C   0  0  0  0  0  2  0  0  0  0  0  0
  188.4360  177.0040  142.4460 C   0  0  2  0  0  3  0  0  0  0  0  0
  187.2800  177.7790  143.0680 C   0  0  1  0  0  3  0  0  0  0  0  0
  189.0430  176.2600  143.6210 C   0  0  0  0  0  2  0  0  0  0  0  0
  188.8060  177.1250  144.8480 C   0  0  0  0  0  2  0  0  0  0  0  0
  187.7040  178.1100  144.4910 C   0  0  2  0  0  3  0  0  0  0  0  0
  186.5240  177.9400  145.4320 C   0  0  0  0  0  2  0  0  0  0  0  0
  187.0120  177.5490  146.8120 C   0  0  0  0  0  2  0  0  0  0  0  0
  186.7000  178.5620  147.7160 O   0  0  0  0  0  0  0  0  0  0  0  0
  185.6000  179.2080  147.1530 C   0  0  0  0  0  1  0  0  0  0  0  0
  189.4950  177.9230  141.8340 C   0  0  0  0  0  2  0  0  0  0  0  0
  190.8340  175.9620  141.9940 O   0  0  0  0  0  1  0  0  0  0  0  0
  190.6380  177.1170  141.2330 C   0  0  1  0  0  3  0  0  0  0  0  0
  191.5340  176.5540  139.0870 O   0  0  0  0  0  1  0  0  0  0  0  0
  190.3370  176.7470  139.7810 C   0  0  2  0  0  3  0  0  0  0  0  0
  189.5550  177.8570  139.0940 C   0  0  0  0  0  2  0  0  0  0  0  0
  189.2400  177.4760  137.6560 C   0  0  0  0  0  2  0  0  0  0  0  0
  189.2190  178.6940  136.7940 C   0  0  0  0  0  3  0  0  0  0  0  0
  188.8790  179.7700  137.2590 O   0  0  0  0  0  0  0  0  0  0  0  0
  181.6400  178.4510  139.7460 C   0  0  2  0  0  3  0  0  0  0  0  0
  178.9880  173.3410  139.5050 O   0  0  0  0  0  0  0  0  0  0  0  0
  180.3240  174.3380  137.7940 C   0  0  0  0  0  0  0  0  0  0  0  0
  180.9660  176.3140  138.6600 C   0  0  0  0  0  0  0  0  0  0  0  0
  179.9830  175.7710  140.0700 S   0  0  0  0  0  0  0  0  0  0  0  0
  181.0100  175.4070  137.5620 N   0  0  0  0  0  0  0  0  0  0  0  0
  181.6420  177.4600  138.6230 C   0  0  0  0  0  3  0  0  0  0  0  0
  179.6830  174.3060  139.0980 C   0  0  0  0  0  0  0  0  0  0  0  0
  180.2090  173.2980  136.8710 O   0  0  0  0  0  0  0  0  0  0  0  0
  180.3580  171.9370  137.2510 C   0  0  0  0  0  2  0  0  0  0  0  0
  179.2530  171.1140  136.6230 C   0  0  0  0  0  1  0  0  0  0  0  0
  181.1290  179.7980  139.3100 C   0  0  0  0  0  0  0  0  0  0  0  0
  178.9340  179.0500  139.7400 O   0  0  0  0  0  1  0  0  0  0  0  0
  182.0500  180.7690  138.9270 O   0  0  0  0  0  1  0  0  0  0  0  0
  179.8070  180.0480  139.3130 C   0  0  0  0  0  0  0  0  0  0  0  0
  178.9900  182.2950  139.7300 N   0  0  0  0  0  2  0  0  0  0  0  0
  179.2200  181.3430  138.8870 C   0  0  0  0  0  0  0  0  0  0  0  0
  179.0250  181.6190  137.4330 C   0  0  0  0  0  2  0  0  0  0  0  0
  179.3310  182.9520  137.1610 O   0  0  0  0  0  1  0  0  0  0  0  0
  1  9  1  0  0  0  0
  1  6  1  0  0  0  0
  2  7  1  0  0  0  0
  3  1  2  0  0  0  0
  4  3  1  0  0  0  0
  5  8  1  0  0  0  0
  7  3  1  0  0  0  0
  7  5  2  0  0  0  0
  8  6  2  0  0  0  0
 10 19  1  1  0  0  0
 10 11  1  0  0  0  0
 10 12  1  0  0  0  0
 11  9  1  6  0  0  0
 11 14  1  0  0  0  0
 12 13  1  0  0  0  0
 14 13  1  0  0  0  0
 14 15  1  1  0  0  0
 15 16  1  0  0  0  0
 16 17  1  0  0  0  0
 18 17  1  0  0  0  0
 21 19  1  0  0  0  0
 21 20  1  1  0  0  0
 23 22  1  6  0  0  0
 23 21  1  0  0  0  0
 24 23  1  0  0  0  0
 25 24  1  0  0  0  0
 26 27  2  0  0  0  0
 26 25  1  0  0  0  0
 28 34  1  6  0  0  0
 28  5  1  0  0  0  0
 30 35  1  0  0  0  0
 31 32  1  0  0  0  0
 33 30  2  0  0  0  0
 33 31  1  0  0  0  0
 34 31  2  0  0  0  0
 35 29  2  0  0  0  0
 35 32  1  0  0  0  0
 36 37  1  0  0  0  0
 36 30  1  0  0  0  0
 38 37  1  0  0  0  0
 39 42  2  0  0  0  0
 39 28  1  0  0  0  0
 41 39  1  0  0  0  0
 42 40  1  0  0  0  0
 44 42  1  0  0  0  0
 44 43  2  0  0  0  0
 45 44  1  0  0  0  0
 46 45  1  0  0  0  0
M  END
>  <MODEL>
7

>  <REMARK>
 VINA RESULT:      -5.0      1.561      2.158
  Name = 
  18 active torsions:
  status: ('A' for Active; 'I' for Inactive)
    1  A    between atoms: C_1  and  C_21
    2  A    between atoms: C_3  and  C_11
    3  A    between atoms: C_3  and  C_22
    4  A    between atoms: C_3  and  C_38
    5  A    between atoms: C_4  and  C_23
    6  A    between atoms: C_5  and  C_18
    7  A    between atoms: C_6  and  C_21
    8  A    between atoms: O_8  and  C_14
    9  A    between atoms: O_8  and  C_26
   10  A    between atoms: O_13  and  C_35
   11  A    between atoms: C_18  and  C_45
   12  A    between atoms: C_23  and  C_30
   13  A    between atoms: C_27  and  C_34
   14  A    between atoms: C_27  and  C_40
   15  A    between atoms: C_28  and  C_34
   16  A    between atoms: C_30  and  C_40
   17  A    between atoms: C_31  and  C_33
   18  A    between atoms: C_31  and  C_35
                            x       y       z     vdW  Elec       q    Type
                         _______ _______ _______ _____ _____    ______ ____

>  <TORSDO>
F 18

$$$$
=
 OpenBabel11032421023D

 46 48  0  0  1  0  0  0  0  0999 V2000
  186.4240  178.2500  141.5920 C   0  0  0  0  0  0  0  0  0  0  0  0
  182.7020  178.6320  142.2500 C   0  0  0  0  0  1  0  0  0  0  0  0
  185.1890  178.3290  142.2580 C   0  0  0  0  0  0  0  0  0  0  0  0
  185.1340  178.1580  143.6380 O   0  0  0  0  0  1  0  0  0  0  0  0
  184.0710  178.7280  140.1310 C   0  0  0  0  0  0  0  0  0  0  0  0
  186.4790  178.4140  140.2060 C   0  0  0  0  0  3  0  0  0  0  0  0
  184.0110  178.5680  141.5300 C   0  0  0  0  0  0  0  0  0  0  0  0
  185.3120  178.6520  139.4810 C   0  0  0  0  0  3  0  0  0  0  0  0
  187.6730  177.9140  142.3420 C   0  0  0  0  0  2  0  0  0  0  0  0
  190.2140  178.2660  142.2360 C   0  0  2  0  0  3  0  0  0  0  0  0
  188.9180  178.0680  141.4580 C   0  0  1  0  0  3  0  0  0  0  0  0
  191.2880  177.8160  141.2640 C   0  0  0  0  0  2  0  0  0  0  0  0
  190.6580  176.7430  140.3900 C   0  0  0  0  0  2  0  0  0  0  0  0
  189.1500  176.8840  140.5330 C   0  0  2  0  0  3  0  0  0  0  0  0
  188.5200  177.1570  139.1790 C   0  0  0  0  0  2  0  0  0  0  0  0
  189.3510  176.5250  138.0810 C   0  0  0  0  0  2  0  0  0  0  0  0
  189.1560  177.2260  136.8930 O   0  0  0  0  0  0  0  0  0  0  0  0
  187.7700  177.2920  136.7470 C   0  0  0  0  0  1  0  0  0  0  0  0
  190.2800  177.3960  143.4940 C   0  0  0  0  0  2  0  0  0  0  0  0
  191.5280  179.2340  144.3480 O   0  0  0  0  0  1  0  0  0  0  0  0
  191.4110  177.8420  144.4090 C   0  0  1  0  0  3  0  0  0  0  0  0
  191.9390  176.2850  146.1470 O   0  0  0  0  0  1  0  0  0  0  0  0
  191.1520  177.3990  145.8490 C   0  0  2  0  0  3  0  0  0  0  0  0
  189.6900  177.0210  146.0400 C   0  0  0  0  0  2  0  0  0  0  0  0
  189.0540  177.8810  147.1220 C   0  0  0  0  0  2  0  0  0  0  0  0
  187.5770  177.9490  146.9230 C   0  0  0  0  0  3  0  0  0  0  0  0
  187.0140  177.1290  146.2160 O   0  0  0  0  0  0  0  0  0  0  0  0
  182.8160  178.9500  139.3330 C   0  0  2  0  0  3  0  0  0  0  0  0
  179.9330  173.9700  139.0100 O   0  0  0  0  0  0  0  0  0  0  0  0
  181.2510  174.9710  137.2880 C   0  0  0  0  0  0  0  0  0  0  0  0
  182.0090  176.8850  138.1990 C   0  0  0  0  0  0  0  0  0  0  0  0
  181.0530  176.3330  139.6240 S   0  0  0  0  0  0  0  0  0  0  0  0
  181.9740  176.0180  137.0680 N   0  0  0  0  0  0  0  0  0  0  0  0
  182.7340  178.0010  138.1770 C   0  0  0  0  0  3  0  0  0  0  0  0
  180.6550  174.9190  138.6120 C   0  0  0  0  0  0  0  0  0  0  0  0
  181.0570  173.9720  136.3340 O   0  0  0  0  0  0  0  0  0  0  0  0
  181.8000  172.7620  136.3530 C   0  0  0  0  0  2  0  0  0  0  0  0
  183.0520  172.9240  135.5170 C   0  0  0  0  0  1  0  0  0  0  0  0
  182.6710  180.3830  138.8990 C   0  0  0  0  0  0  0  0  0  0  0  0
  180.3290  180.1090  138.9400 O   0  0  0  0  0  1  0  0  0  0  0  0
  183.8230  181.1460  138.7190 O   0  0  0  0  0  1  0  0  0  0  0  0
  181.4470  180.9090  138.7110 C   0  0  0  0  0  0  0  0  0  0  0  0
  182.1970  183.1170  138.0370 N   0  0  0  0  0  2  0  0  0  0  0  0
  181.2170  182.3080  138.2720 C   0  0  0  0  0  0  0  0  0  0  0  0
  179.8320  182.7570  137.9460 C   0  0  0  0  0  2  0  0  0  0  0  0
  179.8780  183.9790  137.2760 O   0  0  0  0  0  1  0  0  0  0  0  0
  1  3  1  0  0  0  0
  1  9  1  0  0  0  0
  3  4  1  0  0  0  0
  5  7  1  0  0  0  0
  6  1  2  0  0  0  0
  7  2  1  0  0  0  0
  7  3  2  0  0  0  0
  8  5  2  0  0  0  0
  8  6  1  0  0  0  0
 10 19  1  1  0  0  0
 11 10  1  0  0  0  0
 11  9  1  1  0  0  0
 12 10  1  0  0  0  0
 13 14  1  0  0  0  0
 13 12  1  0  0  0  0
 14 15  1  6  0  0  0
 14 11  1  0  0  0  0
 16 15  1  0  0  0  0
 17 16  1  0  0  0  0
 18 17  1  0  0  0  0
 19 21  1  0  0  0  0
 21 20  1  1  0  0  0
 21 23  1  0  0  0  0
 23 24  1  0  0  0  0
 23 22  1  6  0  0  0
 24 25  1  0  0  0  0
 26 25  1  0  0  0  0
 27 26  2  0  0  0  0
 28 34  1  6  0  0  0
 28  5  1  0  0  0  0
 30 35  1  0  0  0  0
 31 32  1  0  0  0  0
 33 30  2  0  0  0  0
 33 31  1  0  0  0  0
 34 31  2  0  0  0  0
 35 29  2  0  0  0  0
 35 32  1  0  0  0  0
 36 37  1  0  0  0  0
 36 30  1  0  0  0  0
 38 37  1  0  0  0  0
 39 28  1  0  0  0  0
 41 39  1  0  0  0  0
 42 39  2  0  0  0  0
 42 40  1  0  0  0  0
 43 44  2  0  0  0  0
 44 42  1  0  0  0  0
 45 44  1  0  0  0  0
 46 45  1  0  0  0  0
M  END
>  <MODEL>
8

>  <REMARK>
 VINA RESULT:      -4.8      1.855      4.765
  Name = 
  18 active torsions:
  status: ('A' for Active; 'I' for Inactive)
    1  A    between atoms: C_1  and  C_21
    2  A    between atoms: C_3  and  C_11
    3  A    between atoms: C_3  and  C_22
    4  A    between atoms: C_3  and  C_38
    5  A    between atoms: C_4  and  C_23
    6  A    between atoms: C_5  and  C_18
    7  A    between atoms: C_6  and  C_21
    8  A    between atoms: O_8  and  C_14
    9  A    between atoms: O_8  and  C_26
   10  A    between atoms: O_13  and  C_35
   11  A    between atoms: C_18  and  C_45
   12  A    between atoms: C_23  and  C_30
   13  A    between atoms: C_27  and  C_34
   14  A    between atoms: C_27  and  C_40
   15  A    between atoms: C_28  and  C_34
   16  A    between atoms: C_30  and  C_40
   17  A    between atoms: C_31  and  C_33
   18  A    between atoms: C_31  and  C_35
                            x       y       z     vdW  Elec       q    Type
                         _______ _______ _______ _____ _____    ______ ____

>  <TORSDO>
F 18

$$$$
=
 OpenBabel11032421023D

 46 48  0  0  1  0  0  0  0  0999 V2000
  187.4110  177.8610  137.0780 C   0  0  0  0  0  0  0  0  0  0  0  0
  184.2640  177.1480  135.0740 C   0  0  0  0  0  1  0  0  0  0  0  0
  186.5320  177.6790  135.9980 C   0  0  0  0  0  0  0  0  0  0  0  0
  186.9870  177.8630  134.6950 O   0  0  0  0  0  1  0  0  0  0  0  0
  184.7350  177.1480  137.5540 C   0  0  0  0  0  0  0  0  0  0  0  0
  186.9540  177.6840  138.3860 C   0  0  0  0  0  3  0  0  0  0  0  0
  185.1930  177.3230  136.2330 C   0  0  0  0  0  0  0  0  0  0  0  0
  185.6260  177.3290  138.6220 C   0  0  0  0  0  3  0  0  0  0  0  0
  188.8150  178.3220  136.8480 C   0  0  0  0  0  2  0  0  0  0  0  0
  190.8080  177.2020  138.0160 C   0  0  2  0  0  3  0  0  0  0  0  0
  189.8030  177.1480  136.8710 C   0  0  1  0  0  3  0  0  0  0  0  0
  191.2410  175.7580  138.1830 C   0  0  0  0  0  2  0  0  0  0  0  0
  190.0520  174.9010  137.7750 C   0  0  0  0  0  2  0  0  0  0  0  0
  189.1220  175.7900  136.9630 C   0  0  2  0  0  3  0  0  0  0  0  0
  188.9320  175.2150  135.5710 C   0  0  0  0  0  2  0  0  0  0  0  0
  187.6290  174.4440  135.5000 C   0  0  0  0  0  2  0  0  0  0  0  0
  187.7680  173.3840  134.6070 O   0  0  0  0  0  0  0  0  0  0  0  0
  189.1100  173.0160  134.7050 C   0  0  0  0  0  1  0  0  0  0  0  0
  190.1810  177.6920  139.3230 C   0  0  0  0  0  2  0  0  0  0  0  0
  192.2110  177.8630  140.5540 O   0  0  0  0  0  1  0  0  0  0  0  0
  190.9770  177.2080  140.5270 C   0  0  1  0  0  3  0  0  0  0  0  0
  190.7630  176.7080  142.8570 O   0  0  0  0  0  1  0  0  0  0  0  0
  190.2130  177.4720  141.8250 C   0  0  2  0  0  3  0  0  0  0  0  0
  188.7480  177.0920  141.6720 C   0  0  0  0  0  2  0  0  0  0  0  0
  187.8570  178.1250  142.3460 C   0  0  0  0  0  2  0  0  0  0  0  0
  187.0110  177.4730  143.3880 C   0  0  0  0  0  3  0  0  0  0  0  0
  186.4430  178.1490  144.2300 O   0  0  0  0  0  0  0  0  0  0  0  0
  183.2970  176.8010  137.8240 C   0  0  2  0  0  3  0  0  0  0  0  0
  179.8370  181.1290  139.4090 O   0  0  0  0  0  0  0  0  0  0  0  0
  180.9260  179.5680  140.8540 C   0  0  0  0  0  0  0  0  0  0  0  0
  182.0580  178.2080  139.4630 C   0  0  0  0  0  0  0  0  0  0  0  0
  181.3220  179.2510  138.1900 S   0  0  0  0  0  0  0  0  0  0  0  0
  181.7150  178.5470  140.8040 N   0  0  0  0  0  0  0  0  0  0  0  0
  182.8930  177.2030  139.2090 C   0  0  0  0  0  3  0  0  0  0  0  0
  180.5810  180.1260  139.5570 C   0  0  0  0  0  0  0  0  0  0  0  0
  180.4440  180.0940  142.0540 O   0  0  0  0  0  0  0  0  0  0  0  0
  179.7160  179.3030  142.9810 C   0  0  0  0  0  2  0  0  0  0  0  0
  180.6790  178.6320  143.9380 C   0  0  0  0  0  1  0  0  0  0  0  0
  183.0080  175.3500  137.5500 C   0  0  0  0  0  0  0  0  0  0  0  0
  180.9450  175.9890  136.6010 O   0  0  0  0  0  1  0  0  0  0  0  0
  183.9660  174.4010  137.9000 O   0  0  0  0  0  1  0  0  0  0  0  0
  181.8520  174.9930  136.9620 C   0  0  0  0  0  0  0  0  0  0  0  0
  181.9960  172.9440  135.6700 N   0  0  0  0  0  2  0  0  0  0  0  0
  181.4840  173.5860  136.6680 C   0  0  0  0  0  0  0  0  0  0  0  0
  180.6200  172.8370  137.6270 C   0  0  0  0  0  2  0  0  0  0  0  0
  180.1020  171.7000  137.0060 O   0  0  0  0  0  1  0  0  0  0  0  0
  1  6  1  0  0  0  0
  2  7  1  0  0  0  0
  3  7  1  0  0  0  0
  3  1  2  0  0  0  0
  4  3  1  0  0  0  0
  5 28  1  0  0  0  0
  5  8  1  0  0  0  0
  6  8  2  0  0  0  0
  7  5  2  0  0  0  0
  9  1  1  0  0  0  0
 10 12  1  0  0  0  0
 10 19  1  1  0  0  0
 11  9  1  1  0  0  0
 11 14  1  0  0  0  0
 11 10  1  0  0  0  0
 13 12  1  0  0  0  0
 14 15  1  6  0  0  0
 14 13  1  0  0  0  0
 16 15  1  0  0  0  0
 17 18  1  0  0  0  0
 17 16  1  0  0  0  0
 19 21  1  0  0  0  0
 21 20  1  1  0  0  0
 21 23  1  0  0  0  0
 23 22  1  1  0  0  0
 24 23  1  0  0  0  0
 24 25  1  0  0  0  0
 25 26  1  0  0  0  0
 26 27  2  0  0  0  0
 28 34  1  1  0  0  0
 29 35  2  0  0  0  0
 30 36  1  0  0  0  0
 31 33  1  0  0  0  0
 32 31  1  0  0  0  0
 32 35  1  0  0  0  0
 33 30  2  0  0  0  0
 34 31  2  0  0  0  0
 35 30  1  0  0  0  0
 36 37  1  0  0  0  0
 37 38  1  0  0  0  0
 39 28  1  0  0  0  0
 39 41  1  0  0  0  0
 40 42  1  0  0  0  0
 42 39  2  0  0  0  0
 43 44  2  0  0  0  0
 44 42  1  0  0  0  0
 44 45  1  0  0  0  0
 46 45  1  0  0  0  0
M  END
>  <MODEL>
9

>  <REMARK>
 VINA RESULT:      -4.7      2.216      7.102
  Name = 
  18 active torsions:
  status: ('A' for Active; 'I' for Inactive)
    1  A    between atoms: C_1  and  C_21
    2  A    between atoms: C_3  and  C_11
    3  A    between atoms: C_3  and  C_22
    4  A    between atoms: C_3  and  C_38
    5  A    between atoms: C_4  and  C_23
    6  A    between atoms: C_5  and  C_18
    7  A    between atoms: C_6  and  C_21
    8  A    between atoms: O_8  and  C_14
    9  A    between atoms: O_8  and  C_26
   10  A    between atoms: O_13  and  C_35
   11  A    between atoms: C_18  and  C_45
   12  A    between atoms: C_23  and  C_30
   13  A    between atoms: C_27  and  C_34
   14  A    between atoms: C_27  and  C_40
   15  A    between atoms: C_28  and  C_34
   16  A    between atoms: C_30  and  C_40
   17  A    between atoms: C_31  and  C_33
   18  A    between atoms: C_31  and  C_35
                            x       y       z     vdW  Elec       q    Type
                         _______ _______ _______ _____ _____    ______ ____

>  <TORSDO>
F 18

$$$$
