=
 OpenBabel11042411453D

 25 26  0  0  1  0  0  0  0  0999 V2000
  191.7230  176.9990  145.8370 C   0  0  0  0  0  2  0  0  0  0  0  0
  189.7420  177.2920  144.2090 C   0  0  2  0  0  3  0  0  0  0  0  0
  192.1130  177.1650  148.1710 O   0  0  0  0  0  1  0  0  0  0  0  0
  188.7080  177.0980  146.5190 C   0  0  1  0  0  3  0  0  0  0  0  0
  188.8860  177.9680  145.2870 C   0  0  0  0  0  2  0  0  0  0  0  0
  190.8810  176.3850  144.7140 C   0  0  0  0  0  2  0  0  0  0  0  0
  191.1830  176.6920  147.2420 C   0  0  1  0  0  0  0  0  0  0  0  0
  189.8500  177.3660  147.4650 C   0  0  0  0  0  0  0  0  0  0  0  0
  189.7190  178.1810  148.3690 O   0  0  0  0  0  0  0  0  0  0  0  0
  191.0400  175.1900  147.4440 C   0  0  0  0  0  1  0  0  0  0  0  0
  191.5910  178.6690  143.3140 N   0  0  0  0  0  1  0  0  0  0  0  0
  190.1880  178.3140  143.1580 C   0  0  1  0  0  3  0  0  0  0  0  0
  190.8250  177.1010  141.0870 N   0  0  0  0  0  0  0  0  0  0  0  0
  190.5750  176.6510  139.8300 C   0  0  0  0  0  3  0  0  0  0  0  0
  189.3910  176.9350  139.2280 N   0  0  0  0  0  0  0  0  0  0  0  0
  189.9060  177.8450  141.7630 C   0  0  0  0  0  0  0  0  0  0  0  0
  188.6800  178.1390  141.1570 C   0  0  0  0  0  0  0  0  0  0  0  0
  188.4430  177.6670  139.8670 C   0  0  0  0  0  3  0  0  0  0  0  0
  187.7330  178.8660  141.8010 F   0  0  0  0  0  0  0  0  0  0  0  0
  187.3440  177.3580  147.1510 C   0  0  0  0  0  2  0  0  0  0  0  0
  185.4060  178.6830  146.2040 C   0  0  0  0  0  0  0  0  0  0  0  0
  186.3450  177.6090  146.1220 N   0  0  0  0  0  2  0  0  0  0  0  0
  185.3900  179.4480  147.2040 O   0  0  0  0  0  0  0  0  0  0  0  0
  184.4620  178.9220  145.0800 C   0  0  0  0  0  2  0  0  0  0  0  0
  184.9660  178.2860  143.8760 N   0  0  0  0  0  1  0  0  0  0  0  0
  1  7  1  0  0  0  0
  2 12  1  1  0  0  0
  2  6  1  0  0  0  0
  2  5  1  0  0  0  0
  4 20  1  1  0  0  0
  4  8  1  0  0  0  0
  5  4  1  0  0  0  0
  6  1  1  0  0  0  0
  7 10  1  1  0  0  0
  7  8  1  0  0  0  0
  7  3  1  0  0  0  0
  8  9  2  0  0  0  0
 12 11  1  6  0  0  0
 13 16  1  0  0  0  0
 14 13  2  0  0  0  0
 15 14  1  0  0  0  0
 15 18  2  0  0  0  0
 16 12  1  0  0  0  0
 17 16  2  0  0  0  0
 17 19  1  0  0  0  0
 18 17  1  0  0  0  0
 21 23  2  0  0  0  0
 22 21  1  0  0  0  0
 22 20  1  0  0  0  0
 24 21  1  0  0  0  0
 25 24  1  0  0  0  0
M  END
>  <MODEL>
1

>  <REMARK>
 VINA RESULT:      -8.1      0.000      0.000
  Name = 
  5 active torsions:
  status: ('A' for Active; 'I' for Inactive)
    1  A    between atoms: C_3  and  C_14
    2  A    between atoms: C_4  and  C_13
    3  A    between atoms: C_7  and  C_15
    4  A    between atoms: C_12  and  C_14
    5  A    between atoms: C_15  and  N_17
                            x       y       z     vdW  Elec       q    Type
                         _______ _______ _______ _____ _____    ______ ____

>  <TORSDO>
F 5

$$$$
=
 OpenBabel11042411453D

 25 26  0  0  1  0  0  0  0  0999 V2000
  191.2550  177.7090  142.0530 C   0  0  0  0  0  2  0  0  0  0  0  0
  189.0280  177.1380  140.8820 C   0  0  2  0  0  3  0  0  0  0  0  0
  192.0010  178.2330  144.2420 O   0  0  0  0  0  1  0  0  0  0  0  0
  188.5940  176.8350  143.3640 C   0  0  1  0  0  3  0  0  0  0  0  0
  188.2110  177.5840  142.1000 C   0  0  0  0  0  2  0  0  0  0  0  0
  190.4900  176.7340  141.1530 C   0  0  0  0  0  2  0  0  0  0  0  0
  191.1410  177.3780  143.5480 C   0  0  1  0  0  0  0  0  0  0  0  0
  189.7250  177.5730  144.0350 C   0  0  0  0  0  0  0  0  0  0  0  0
  189.4880  178.3790  144.9250 O   0  0  0  0  0  0  0  0  0  0  0  0
  191.5850  175.9470  143.8160 C   0  0  0  0  0  1  0  0  0  0  0  0
  190.0670  178.2080  138.9100 N   0  0  0  0  0  1  0  0  0  0  0  0
  188.8680  178.1400  139.7330 C   0  0  1  0  0  3  0  0  0  0  0  0
  186.5280  178.5950  139.0400 N   0  0  0  0  0  0  0  0  0  0  0  0
  185.4310  178.3570  138.2740 C   0  0  0  0  0  3  0  0  0  0  0  0
  185.4520  177.3690  137.3430 N   0  0  0  0  0  0  0  0  0  0  0  0
  187.6590  177.8500  138.8970 C   0  0  0  0  0  0  0  0  0  0  0  0
  187.6960  176.8330  137.9370 C   0  0  0  0  0  0  0  0  0  0  0  0
  186.5610  176.6060  137.1610 C   0  0  0  0  0  3  0  0  0  0  0  0
  188.8080  176.0780  137.7540 F   0  0  0  0  0  0  0  0  0  0  0  0
  187.3770  176.6720  144.2680 C   0  0  0  0  0  2  0  0  0  0  0  0
  185.6180  178.3970  144.8530 C   0  0  0  0  0  0  0  0  0  0  0  0
  186.3350  177.6170  143.8940 N   0  0  0  0  0  2  0  0  0  0  0  0
  185.8490  178.2700  146.0860 O   0  0  0  0  0  0  0  0  0  0  0  0
  184.6180  179.3950  144.3910 C   0  0  0  0  0  2  0  0  0  0  0  0
  183.3760  179.2160  145.1200 N   0  0  0  0  0  1  0  0  0  0  0  0
  1  7  1  0  0  0  0
  2 12  1  6  0  0  0
  2  6  1  0  0  0  0
  2  5  1  0  0  0  0
  4  8  1  0  0  0  0
  4 20  1  1  0  0  0
  5  4  1  0  0  0  0
  6  1  1  0  0  0  0
  7 10  1  1  0  0  0
  7  8  1  0  0  0  0
  7  3  1  0  0  0  0
  8  9  2  0  0  0  0
 12 11  1  6  0  0  0
 14 13  2  0  0  0  0
 15 14  1  0  0  0  0
 16 13  1  0  0  0  0
 16 12  1  0  0  0  0
 17 16  2  0  0  0  0
 18 15  2  0  0  0  0
 18 17  1  0  0  0  0
 19 17  1  0  0  0  0
 21 23  2  0  0  0  0
 22 20  1  0  0  0  0
 22 21  1  0  0  0  0
 24 21  1  0  0  0  0
 24 25  1  0  0  0  0
M  END
>  <MODEL>
2

>  <REMARK>
 VINA RESULT:      -7.2      2.588      3.623
  Name = 
  5 active torsions:
  status: ('A' for Active; 'I' for Inactive)
    1  A    between atoms: C_3  and  C_14
    2  A    between atoms: C_4  and  C_13
    3  A    between atoms: C_7  and  C_15
    4  A    between atoms: C_12  and  C_14
    5  A    between atoms: C_15  and  N_17
                            x       y       z     vdW  Elec       q    Type
                         _______ _______ _______ _____ _____    ______ ____

>  <TORSDO>
F 5

$$$$
=
 OpenBabel11042411453D

 25 26  0  0  1  0  0  0  0  0999 V2000
  189.4400  176.4450  147.5360 C   0  0  0  0  0  2  0  0  0  0  0  0
  188.1750  178.0790  145.9900 C   0  0  2  0  0  3  0  0  0  0  0  0
  191.5040  175.2750  147.5370 O   0  0  0  0  0  1  0  0  0  0  0  0
  190.5760  178.0770  145.1670 C   0  0  1  0  0  3  0  0  0  0  0  0
  189.1250  177.7930  144.8210 C   0  0  0  0  0  2  0  0  0  0  0  0
  188.7260  177.7930  147.4000 C   0  0  0  0  0  2  0  0  0  0  0  0
  190.9430  176.5170  147.2270 C   0  0  1  0  0  0  0  0  0  0  0  0
  191.1790  176.8340  145.7690 C   0  0  0  0  0  0  0  0  0  0  0  0
  191.7970  176.0480  145.0630 O   0  0  0  0  0  0  0  0  0  0  0  0
  191.6190  177.5660  148.0970 C   0  0  0  0  0  1  0  0  0  0  0  0
  185.9740  177.4540  146.9270 N   0  0  0  0  0  1  0  0  0  0  0  0
  186.8000  177.4560  145.7280 C   0  0  1  0  0  3  0  0  0  0  0  0
  185.2300  179.1530  144.8210 N   0  0  0  0  0  0  0  0  0  0  0  0
  184.5950  179.7800  143.7960 C   0  0  0  0  0  3  0  0  0  0  0  0
  184.8160  179.3850  142.5150 N   0  0  0  0  0  0  0  0  0  0  0  0
  186.0890  178.1210  144.5890 C   0  0  0  0  0  0  0  0  0  0  0  0
  186.3300  177.7090  143.2740 C   0  0  0  0  0  0  0  0  0  0  0  0
  185.6690  178.3650  142.2370 C   0  0  0  0  0  3  0  0  0  0  0  0
  187.1870  176.6940  143.0000 F   0  0  0  0  0  0  0  0  0  0  0  0
  191.3280  178.5570  143.9290 C   0  0  0  0  0  2  0  0  0  0  0  0
  191.1600  177.4510  141.6580 C   0  0  0  0  0  0  0  0  0  0  0  0
  190.5890  178.2150  142.7210 N   0  0  0  0  0  2  0  0  0  0  0  0
  192.3580  177.0620  141.7160 O   0  0  0  0  0  0  0  0  0  0  0  0
  190.3220  177.0780  140.4870 C   0  0  0  0  0  2  0  0  0  0  0  0
  189.0550  177.7840  140.5500 N   0  0  0  0  0  1  0  0  0  0  0  0
  2 12  1  6  0  0  0
  2  6  1  0  0  0  0
  4 20  1  6  0  0  0
  4  8  1  0  0  0  0
  5  4  1  0  0  0  0
  5  2  1  0  0  0  0
  6  1  1  0  0  0  0
  7  1  1  0  0  0  0
  7  3  1  0  0  0  0
  7 10  1  1  0  0  0
  8  7  1  0  0  0  0
  9  8  2  0  0  0  0
 12 11  1  1  0  0  0
 14 13  2  0  0  0  0
 15 14  1  0  0  0  0
 16 13  1  0  0  0  0
 16 12  1  0  0  0  0
 17 16  2  0  0  0  0
 18 15  2  0  0  0  0
 18 17  1  0  0  0  0
 19 17  1  0  0  0  0
 21 23  2  0  0  0  0
 21 22  1  0  0  0  0
 22 20  1  0  0  0  0
 24 25  1  0  0  0  0
 24 21  1  0  0  0  0
M  END
>  <MODEL>
3

>  <REMARK>
 VINA RESULT:      -7.2      2.160      4.985
  Name = 
  5 active torsions:
  status: ('A' for Active; 'I' for Inactive)
    1  A    between atoms: C_3  and  C_14
    2  A    between atoms: C_4  and  C_13
    3  A    between atoms: C_7  and  C_15
    4  A    between atoms: C_12  and  C_14
    5  A    between atoms: C_15  and  N_17
                            x       y       z     vdW  Elec       q    Type
                         _______ _______ _______ _____ _____    ______ ____

>  <TORSDO>
F 5

$$$$
=
 OpenBabel11042411453D

 25 26  0  0  1  0  0  0  0  0999 V2000
  189.8610  177.1150  145.6600 C   0  0  0  0  0  2  0  0  0  0  0  0
  187.8350  177.8710  144.2520 C   0  0  2  0  0  3  0  0  0  0  0  0
  191.8160  175.8050  145.3580 O   0  0  0  0  0  1  0  0  0  0  0  0
  189.5620  177.0490  142.5820 C   0  0  1  0  0  3  0  0  0  0  0  0
  188.1630  176.8640  143.1420 C   0  0  0  0  0  2  0  0  0  0  0  0
  189.0070  178.2850  145.1620 C   0  0  0  0  0  2  0  0  0  0  0  0
  191.0290  176.7700  144.7240 C   0  0  1  0  0  0  0  0  0  0  0  0
  190.5210  176.2290  143.4080 C   0  0  0  0  0  0  0  0  0  0  0  0
  190.8330  175.1020  143.0470 O   0  0  0  0  0  0  0  0  0  0  0  0
  191.8980  177.9940  144.4760 C   0  0  0  0  0  1  0  0  0  0  0  0
  186.7060  177.7030  146.4450 N   0  0  0  0  0  1  0  0  0  0  0  0
  186.5830  177.4360  145.0190 C   0  0  1  0  0  3  0  0  0  0  0  0
  185.1810  178.1980  143.1170 N   0  0  0  0  0  0  0  0  0  0  0  0
  184.0490  178.7400  142.5970 C   0  0  0  0  0  3  0  0  0  0  0  0
  183.0470  179.1450  143.4200 N   0  0  0  0  0  0  0  0  0  0  0  0
  185.3380  178.0570  144.4630 C   0  0  0  0  0  0  0  0  0  0  0  0
  184.3110  178.4640  145.3220 C   0  0  0  0  0  0  0  0  0  0  0  0
  183.1580  179.0160  144.7680 C   0  0  0  0  0  3  0  0  0  0  0  0
  184.4230  178.3290  146.6660 F   0  0  0  0  0  0  0  0  0  0  0  0
  189.5890  176.6770  141.1030 C   0  0  0  0  0  2  0  0  0  0  0  0
  188.4110  177.3170  138.9550 C   0  0  0  0  0  0  0  0  0  0  0  0
  188.6090  177.4590  140.3630 N   0  0  0  0  0  2  0  0  0  0  0  0
  189.1130  176.5120  138.2860 O   0  0  0  0  0  0  0  0  0  0  0  0
  187.3410  178.0970  138.2800 C   0  0  0  0  0  2  0  0  0  0  0  0
  186.4190  178.6210  139.2720 N   0  0  0  0  0  1  0  0  0  0  0  0
  2 12  1  1  0  0  0
  2  6  1  0  0  0  0
  4 20  1  6  0  0  0
  4  5  1  0  0  0  0
  4  8  1  0  0  0  0
  5  2  1  0  0  0  0
  6  1  1  0  0  0  0
  7 10  1  6  0  0  0
  7  3  1  0  0  0  0
  7  1  1  0  0  0  0
  8  7  1  0  0  0  0
  9  8  2  0  0  0  0
 12 11  1  1  0  0  0
 13 16  1  0  0  0  0
 14 13  2  0  0  0  0
 14 15  1  0  0  0  0
 15 18  2  0  0  0  0
 16 12  1  0  0  0  0
 16 17  2  0  0  0  0
 17 19  1  0  0  0  0
 18 17  1  0  0  0  0
 21 22  1  0  0  0  0
 22 20  1  0  0  0  0
 23 21  2  0  0  0  0
 24 21  1  0  0  0  0
 24 25  1  0  0  0  0
M  END
>  <MODEL>
4

>  <REMARK>
 VINA RESULT:      -7.1      3.060      5.701
  Name = 
  5 active torsions:
  status: ('A' for Active; 'I' for Inactive)
    1  A    between atoms: C_3  and  C_14
    2  A    between atoms: C_4  and  C_13
    3  A    between atoms: C_7  and  C_15
    4  A    between atoms: C_12  and  C_14
    5  A    between atoms: C_15  and  N_17
                            x       y       z     vdW  Elec       q    Type
                         _______ _______ _______ _____ _____    ______ ____

>  <TORSDO>
F 5

$$$$
=
 OpenBabel11042411453D

 25 26  0  0  1  0  0  0  0  0999 V2000
  189.9330  177.1000  145.5830 C   0  0  0  0  0  2  0  0  0  0  0  0
  187.8700  177.9210  144.2680 C   0  0  2  0  0  3  0  0  0  0  0  0
  191.8620  175.7820  145.1760 O   0  0  0  0  0  1  0  0  0  0  0  0
  189.5320  177.1360  142.5170 C   0  0  1  0  0  3  0  0  0  0  0  0
  188.1500  176.9470  143.1170 C   0  0  0  0  0  2  0  0  0  0  0  0
  189.0760  178.2950  145.1510 C   0  0  0  0  0  2  0  0  0  0  0  0
  191.0650  176.7740  144.5980 C   0  0  1  0  0  0  0  0  0  0  0  0
  190.5090  176.2810  143.2830 C   0  0  0  0  0  0  0  0  0  0  0  0
  190.7960  175.1630  142.8770 O   0  0  0  0  0  0  0  0  0  0  0  0
  191.9390  177.9970  144.3610 C   0  0  0  0  0  1  0  0  0  0  0  0
  186.7920  177.7410  146.4850 N   0  0  0  0  0  1  0  0  0  0  0  0
  186.6390  177.4740  145.0630 C   0  0  1  0  0  3  0  0  0  0  0  0
  185.1780  178.2060  143.1930 N   0  0  0  0  0  0  0  0  0  0  0  0
  184.0300  178.7380  142.6990 C   0  0  0  0  0  3  0  0  0  0  0  0
  183.0530  179.1550  143.5470 N   0  0  0  0  0  0  0  0  0  0  0  0
  185.3770  178.0860  144.5350 C   0  0  0  0  0  0  0  0  0  0  0  0
  184.3760  178.5040  145.4180 C   0  0  0  0  0  0  0  0  0  0  0  0
  183.2050  179.0470  144.8920 C   0  0  0  0  0  3  0  0  0  0  0  0
  184.5290  178.3890  146.7610 F   0  0  0  0  0  0  0  0  0  0  0  0
  189.5070  176.8110  141.0270 C   0  0  0  0  0  2  0  0  0  0  0  0
  191.2670  176.4020  139.2530 C   0  0  0  0  0  0  0  0  0  0  0  0
  190.8060  177.0760  140.4260 N   0  0  0  0  0  2  0  0  0  0  0  0
  190.5610  175.5150  138.7030 O   0  0  0  0  0  0  0  0  0  0  0  0
  192.5750  176.7780  138.6540 C   0  0  0  0  0  2  0  0  0  0  0  0
  193.4680  177.2580  139.6930 N   0  0  0  0  0  1  0  0  0  0  0  0
  2 12  1  1  0  0  0
  2  6  1  0  0  0  0
  4 20  1  6  0  0  0
  4  5  1  0  0  0  0
  4  8  1  0  0  0  0
  5  2  1  0  0  0  0
  6  1  1  0  0  0  0
  7 10  1  6  0  0  0
  7  3  1  0  0  0  0
  7  1  1  0  0  0  0
  8  7  1  0  0  0  0
  9  8  2  0  0  0  0
 12 11  1  1  0  0  0
 13 16  1  0  0  0  0
 14 13  2  0  0  0  0
 14 15  1  0  0  0  0
 15 18  2  0  0  0  0
 16 12  1  0  0  0  0
 16 17  2  0  0  0  0
 17 19  1  0  0  0  0
 18 17  1  0  0  0  0
 21 22  1  0  0  0  0
 22 20  1  0  0  0  0
 23 21  2  0  0  0  0
 24 21  1  0  0  0  0
 24 25  1  0  0  0  0
M  END
>  <MODEL>
5

>  <REMARK>
 VINA RESULT:      -7.1      3.008      6.310
  Name = 
  5 active torsions:
  status: ('A' for Active; 'I' for Inactive)
    1  A    between atoms: C_3  and  C_14
    2  A    between atoms: C_4  and  C_13
    3  A    between atoms: C_7  and  C_15
    4  A    between atoms: C_12  and  C_14
    5  A    between atoms: C_15  and  N_17
                            x       y       z     vdW  Elec       q    Type
                         _______ _______ _______ _____ _____    ______ ____

>  <TORSDO>
F 5

$$$$
=
 OpenBabel11042411453D

 25 26  0  0  1  0  0  0  0  0999 V2000
  189.7640  177.7310  146.6760 C   0  0  0  0  0  2  0  0  0  0  0  0
  188.9260  177.4450  144.2520 C   0  0  2  0  0  3  0  0  0  0  0  0
  188.8870  178.4420  148.7620 O   0  0  0  0  0  1  0  0  0  0  0  0
  186.8370  177.6490  145.6800 C   0  0  1  0  0  3  0  0  0  0  0  0
  187.6490  178.2430  144.5420 C   0  0  0  0  0  2  0  0  0  0  0  0
  189.6160  176.7990  145.4680 C   0  0  0  0  0  2  0  0  0  0  0  0
  188.5660  177.6800  147.6350 C   0  0  1  0  0  0  0  0  0  0  0  0
  187.3260  178.2390  146.9780 C   0  0  0  0  0  0  0  0  0  0  0  0
  186.7620  179.2120  147.4600 O   0  0  0  0  0  0  0  0  0  0  0  0
  188.3060  176.2530  148.0940 C   0  0  0  0  0  1  0  0  0  0  0  0
  191.2520  178.1660  143.8250 N   0  0  0  0  0  1  0  0  0  0  0  0
  189.8750  178.2550  143.3630 C   0  0  1  0  0  3  0  0  0  0  0  0
  190.6610  176.9920  141.3750 N   0  0  0  0  0  0  0  0  0  0  0  0
  190.5640  176.6100  140.0750 C   0  0  0  0  0  3  0  0  0  0  0  0
  189.5590  177.0920  139.2970 N   0  0  0  0  0  0  0  0  0  0  0  0
  189.7670  177.8630  141.9210 C   0  0  0  0  0  0  0  0  0  0  0  0
  188.7240  178.3610  141.1330 C   0  0  0  0  0  0  0  0  0  0  0  0
  188.6420  177.9560  139.8020 C   0  0  0  0  0  3  0  0  0  0  0  0
  187.8060  179.2200  141.6410 F   0  0  0  0  0  0  0  0  0  0  0  0
  185.3490  177.8910  145.4450 C   0  0  0  0  0  2  0  0  0  0  0  0
  183.9100  178.6260  143.4960 C   0  0  0  0  0  0  0  0  0  0  0  0
  185.0640  177.9650  144.0190 N   0  0  0  0  0  2  0  0  0  0  0  0
  183.0670  179.1550  144.2680 O   0  0  0  0  0  0  0  0  0  0  0  0
  183.7230  178.7240  142.0240 C   0  0  0  0  0  2  0  0  0  0  0  0
  184.8740  179.3780  141.4280 N   0  0  0  0  0  1  0  0  0  0  0  0
  1  7  1  0  0  0  0
  2 12  1  1  0  0  0
  2  5  1  0  0  0  0
  2  6  1  0  0  0  0
  4 20  1  6  0  0  0
  4  8  1  0  0  0  0
  5  4  1  0  0  0  0
  6  1  1  0  0  0  0
  7 10  1  1  0  0  0
  7  3  1  0  0  0  0
  8  9  2  0  0  0  0
  8  7  1  0  0  0  0
 12 11  1  1  0  0  0
 13 16  1  0  0  0  0
 14 13  2  0  0  0  0
 15 18  2  0  0  0  0
 15 14  1  0  0  0  0
 16 12  1  0  0  0  0
 17 19  1  0  0  0  0
 17 16  2  0  0  0  0
 18 17  1  0  0  0  0
 21 22  1  0  0  0  0
 21 23  2  0  0  0  0
 22 20  1  0  0  0  0
 24 21  1  0  0  0  0
 25 24  1  0  0  0  0
M  END
>  <MODEL>
6

>  <REMARK>
 VINA RESULT:      -6.9      1.459      2.170
  Name = 
  5 active torsions:
  status: ('A' for Active; 'I' for Inactive)
    1  A    between atoms: C_3  and  C_14
    2  A    between atoms: C_4  and  C_13
    3  A    between atoms: C_7  and  C_15
    4  A    between atoms: C_12  and  C_14
    5  A    between atoms: C_15  and  N_17
                            x       y       z     vdW  Elec       q    Type
                         _______ _______ _______ _____ _____    ______ ____

>  <TORSDO>
F 5

$$$$
=
 OpenBabel11042411453D

 25 26  0  0  1  0  0  0  0  0999 V2000
  187.2030  178.4390  145.3170 C   0  0  0  0  0  2  0  0  0  0  0  0
  187.0570  177.3470  142.9830 C   0  0  2  0  0  3  0  0  0  0  0  0
  185.9160  179.9290  146.6390 O   0  0  0  0  0  1  0  0  0  0  0  0
  184.7240  178.2170  143.4800 C   0  0  1  0  0  3  0  0  0  0  0  0
  185.9260  178.2890  142.5540 C   0  0  0  0  0  2  0  0  0  0  0  0
  187.2340  177.1430  144.5000 C   0  0  0  0  0  2  0  0  0  0  0  0
  185.7930  178.8340  145.7800 C   0  0  1  0  0  0  0  0  0  0  0  0
  184.9230  179.2040  144.6020 C   0  0  0  0  0  0  0  0  0  0  0  0
  184.4390  180.3250  144.5250 O   0  0  0  0  0  0  0  0  0  0  0  0
  185.1460  177.6980  146.5600 C   0  0  0  0  0  1  0  0  0  0  0  0
  188.2730  179.0020  141.6060 N   0  0  0  0  0  1  0  0  0  0  0  0
  188.3570  177.7010  142.2530 C   0  0  1  0  0  3  0  0  0  0  0  0
  190.0360  178.7570  143.7470 N   0  0  0  0  0  0  0  0  0  0  0  0
  191.1020  178.7050  144.5870 C   0  0  0  0  0  3  0  0  0  0  0  0
  191.6960  177.5140  144.8600 N   0  0  0  0  0  0  0  0  0  0  0  0
  189.5480  177.6290  143.1590 C   0  0  0  0  0  0  0  0  0  0  0  0
  190.1470  176.3950  143.4360 C   0  0  0  0  0  0  0  0  0  0  0  0
  191.2390  176.3630  144.3020 C   0  0  0  0  0  3  0  0  0  0  0  0
  189.6840  175.2480  142.8820 F   0  0  0  0  0  0  0  0  0  0  0  0
  183.4410  178.4670  142.6950 C   0  0  0  0  0  2  0  0  0  0  0  0
  182.7660  179.0760  140.3320 C   0  0  0  0  0  0  0  0  0  0  0  0
  183.7480  178.9750  141.3650 N   0  0  0  0  0  2  0  0  0  0  0  0
  181.5820  178.6940  140.5300 O   0  0  0  0  0  0  0  0  0  0  0  0
  183.1360  179.6740  139.0220 C   0  0  0  0  0  2  0  0  0  0  0  0
  184.5180  180.1170  139.0600 N   0  0  0  0  0  1  0  0  0  0  0  0
  1  7  1  0  0  0  0
  2 12  1  1  0  0  0
  2  6  1  0  0  0  0
  4 20  1  6  0  0  0
  4  8  1  0  0  0  0
  5  2  1  0  0  0  0
  5  4  1  0  0  0  0
  6  1  1  0  0  0  0
  7 10  1  1  0  0  0
  7  3  1  0  0  0  0
  8  7  1  0  0  0  0
  9  8  2  0  0  0  0
 12 11  1  1  0  0  0
 12 16  1  0  0  0  0
 13 14  1  0  0  0  0
 14 15  2  0  0  0  0
 16 17  1  0  0  0  0
 16 13  2  0  0  0  0
 17 18  2  0  0  0  0
 18 15  1  0  0  0  0
 19 17  1  0  0  0  0
 21 23  2  0  0  0  0
 21 22  1  0  0  0  0
 22 20  1  0  0  0  0
 24 25  1  0  0  0  0
 24 21  1  0  0  0  0
M  END
>  <MODEL>
7

>  <REMARK>
 VINA RESULT:      -6.6      3.095      5.235
  Name = 
  5 active torsions:
  status: ('A' for Active; 'I' for Inactive)
    1  A    between atoms: C_3  and  C_14
    2  A    between atoms: C_4  and  C_13
    3  A    between atoms: C_7  and  C_15
    4  A    between atoms: C_12  and  C_14
    5  A    between atoms: C_15  and  N_17
                            x       y       z     vdW  Elec       q    Type
                         _______ _______ _______ _____ _____    ______ ____

>  <TORSDO>
F 5

$$$$
=
 OpenBabel11042411453D

 25 26  0  0  1  0  0  0  0  0999 V2000
  182.3510  179.0750  141.3080 C   0  0  0  0  0  2  0  0  0  0  0  0
  184.6190  178.1860  142.1580 C   0  0  2  0  0  3  0  0  0  0  0  0
  181.5220  180.2460  139.4190 O   0  0  0  0  0  1  0  0  0  0  0  0
  184.9540  178.6700  139.6880 C   0  0  1  0  0  3  0  0  0  0  0  0
  185.3900  178.9940  141.1060 C   0  0  0  0  0  2  0  0  0  0  0  0
  183.1460  177.8750  141.8310 C   0  0  0  0  0  2  0  0  0  0  0  0
  182.4050  179.2240  139.7810 C   0  0  1  0  0  0  0  0  0  0  0  0
  183.8020  179.5710  139.3230 C   0  0  0  0  0  0  0  0  0  0  0  0
  184.0080  180.6150  138.7180 O   0  0  0  0  0  0  0  0  0  0  0  0
  181.9440  177.9440  139.1000 C   0  0  0  0  0  1  0  0  0  0  0  0
  183.6310  178.6660  144.3730 N   0  0  0  0  0  1  0  0  0  0  0  0
  184.8280  178.7840  143.5530 C   0  0  1  0  0  3  0  0  0  0  0  0
  186.8530  177.3460  143.5810 N   0  0  0  0  0  0  0  0  0  0  0  0
  187.9440  176.8160  144.1920 C   0  0  0  0  0  3  0  0  0  0  0  0
  188.2200  177.1280  145.4850 N   0  0  0  0  0  0  0  0  0  0  0  0
  186.0150  178.1890  144.2480 C   0  0  0  0  0  0  0  0  0  0  0  0
  186.2910  178.5230  145.5780 C   0  0  0  0  0  0  0  0  0  0  0  0
  187.4170  177.9690  146.1850 C   0  0  0  0  0  3  0  0  0  0  0  0
  185.4900  179.3680  146.2720 F   0  0  0  0  0  0  0  0  0  0  0  0
  186.1340  178.8040  138.7320 C   0  0  0  0  0  2  0  0  0  0  0  0
  188.6440  178.4880  138.8410 C   0  0  0  0  0  0  0  0  0  0  0  0
  187.3250  178.1900  139.3030 N   0  0  0  0  0  2  0  0  0  0  0  0
  188.8250  179.2880  137.8850 O   0  0  0  0  0  0  0  0  0  0  0  0
  189.8170  177.8780  139.5220 C   0  0  0  0  0  2  0  0  0  0  0  0
  189.4410  177.4580  140.8600 N   0  0  0  0  0  1  0  0  0  0  0  0
  1  6  1  0  0  0  0
  2 12  1  1  0  0  0
  3  7  1  0  0  0  0
  4 20  1  6  0  0  0
  4  5  1  0  0  0  0
  5  2  1  0  0  0  0
  6  2  1  0  0  0  0
  7 10  1  6  0  0  0
  7  1  1  0  0  0  0
  8  4  1  0  0  0  0
  8  7  1  0  0  0  0
  9  8  2  0  0  0  0
 12 16  1  0  0  0  0
 12 11  1  1  0  0  0
 13 14  2  0  0  0  0
 13 16  1  0  0  0  0
 14 15  1  0  0  0  0
 15 18  2  0  0  0  0
 16 17  2  0  0  0  0
 17 18  1  0  0  0  0
 17 19  1  0  0  0  0
 20 22  1  0  0  0  0
 21 22  1  0  0  0  0
 21 24  1  0  0  0  0
 23 21  2  0  0  0  0
 24 25  1  0  0  0  0
M  END
>  <MODEL>
8

>  <REMARK>
 VINA RESULT:      -6.5      4.403      8.286
  Name = 
  5 active torsions:
  status: ('A' for Active; 'I' for Inactive)
    1  A    between atoms: C_3  and  C_14
    2  A    between atoms: C_4  and  C_13
    3  A    between atoms: C_7  and  C_15
    4  A    between atoms: C_12  and  C_14
    5  A    between atoms: C_15  and  N_17
                            x       y       z     vdW  Elec       q    Type
                         _______ _______ _______ _____ _____    ______ ____

>  <TORSDO>
F 5

$$$$
=
 OpenBabel11042411453D

 25 26  0  0  1  0  0  0  0  0999 V2000
  191.3010  177.5890  141.9130 C   0  0  0  0  0  2  0  0  0  0  0  0
  188.9550  177.2240  140.9020 C   0  0  2  0  0  3  0  0  0  0  0  0
  192.2320  178.2150  144.0040 O   0  0  0  0  0  1  0  0  0  0  0  0
  188.6230  177.2290  143.4190 C   0  0  1  0  0  3  0  0  0  0  0  0
  188.2750  177.8980  142.1010 C   0  0  0  0  0  2  0  0  0  0  0  0
  190.3620  176.6470  141.1540 C   0  0  0  0  0  2  0  0  0  0  0  0
  191.2260  177.4260  143.4390 C   0  0  1  0  0  0  0  0  0  0  0  0
  189.8790  177.8640  143.9610 C   0  0  0  0  0  0  0  0  0  0  0  0
  189.8030  178.7790  144.7710 O   0  0  0  0  0  0  0  0  0  0  0  0
  191.4870  175.9800  143.8360 C   0  0  0  0  0  1  0  0  0  0  0  0
  190.1050  178.0940  138.8930 N   0  0  0  0  0  1  0  0  0  0  0  0
  188.8690  178.1210  139.6630 C   0  0  1  0  0  3  0  0  0  0  0  0
  186.5780  178.5600  138.8110 N   0  0  0  0  0  0  0  0  0  0  0  0
  185.5130  178.2730  138.0190 C   0  0  0  0  0  3  0  0  0  0  0  0
  185.5490  177.1950  137.1930 N   0  0  0  0  0  0  0  0  0  0  0  0
  187.6930  177.7770  138.8000 C   0  0  0  0  0  0  0  0  0  0  0  0
  187.7460  176.6680  137.9490 C   0  0  0  0  0  0  0  0  0  0  0  0
  186.6430  176.3910  137.1440 C   0  0  0  0  0  3  0  0  0  0  0  0
  188.8420  175.8700  137.8990 F   0  0  0  0  0  0  0  0  0  0  0  0
  187.4470  177.3290  144.3850 C   0  0  0  0  0  2  0  0  0  0  0  0
  187.1970  177.9240  146.8330 C   0  0  0  0  0  0  0  0  0  0  0  0
  187.9180  177.3110  145.7630 N   0  0  0  0  0  2  0  0  0  0  0  0
  186.1200  178.5400  146.6130 O   0  0  0  0  0  0  0  0  0  0  0  0
  187.7020  177.8020  148.2260 C   0  0  0  0  0  2  0  0  0  0  0  0
  189.1510  177.8930  148.2300 N   0  0  0  0  0  1  0  0  0  0  0  0
  1  7  1  0  0  0  0
  2 12  1  6  0  0  0
  2  6  1  0  0  0  0
  2  5  1  0  0  0  0
  4  8  1  0  0  0  0
  4 20  1  1  0  0  0
  5  4  1  0  0  0  0
  6  1  1  0  0  0  0
  7 10  1  1  0  0  0
  7  8  1  0  0  0  0
  7  3  1  0  0  0  0
  8  9  2  0  0  0  0
 12 11  1  6  0  0  0
 14 13  2  0  0  0  0
 15 14  1  0  0  0  0
 16 13  1  0  0  0  0
 16 12  1  0  0  0  0
 17 16  2  0  0  0  0
 18 15  2  0  0  0  0
 18 17  1  0  0  0  0
 19 17  1  0  0  0  0
 20 22  1  0  0  0  0
 21 24  1  0  0  0  0
 22 21  1  0  0  0  0
 23 21  2  0  0  0  0
 24 25  1  0  0  0  0
M  END
>  <MODEL>
9

>  <REMARK>
 VINA RESULT:      -6.5      2.614      3.924
  Name = 
  5 active torsions:
  status: ('A' for Active; 'I' for Inactive)
    1  A    between atoms: C_3  and  C_14
    2  A    between atoms: C_4  and  C_13
    3  A    between atoms: C_7  and  C_15
    4  A    between atoms: C_12  and  C_14
    5  A    between atoms: C_15  and  N_17
                            x       y       z     vdW  Elec       q    Type
                         _______ _______ _______ _____ _____    ______ ____

>  <TORSDO>
F 5

$$$$
