=
 OpenBabel11032420363D

 27 30  0  0  1  0  0  0  0  0999 V2000
  189.0620  176.3930  142.8820 C   0  0  1  0  0  0  0  0  0  0  0  0
  186.8900  179.0130  141.4210 N   0  0  0  0  0  0  0  0  0  0  0  0
  185.0260  178.6730  142.8910 C   0  0  0  0  0  3  0  0  0  0  0  0
  188.9120  177.5280  141.8280 C   0  0  2  0  0  3  0  0  0  0  0  0
  185.7060  177.6770  143.5290 N   0  0  0  0  0  0  0  0  0  0  0  0
  189.1110  176.7160  144.3280 N   0  0  0  0  0  0  0  0  0  0  0  0
  187.8270  176.2760  143.6930 C   0  0  1  0  0  3  0  0  0  0  0  0
  189.6450  175.1810  142.5530 F   0  0  0  0  0  0  0  0  0  0  0  0
  185.6310  179.3570  141.8180 C   0  0  0  0  0  3  0  0  0  0  0  0
  186.9600  177.3580  143.1210 C   0  0  0  0  0  0  0  0  0  0  0  0
  187.5350  178.0080  142.0660 C   0  0  0  0  0  0  0  0  0  0  0  0
  189.1800  178.1590  144.5860 C   0  0  0  0  0  2  0  0  0  0  0  0
  189.0580  178.4330  146.0750 C   0  0  0  0  0  2  0  0  0  0  0  0
  189.1580  177.1480  146.8840 C   0  0  0  0  0  2  0  0  0  0  0  0
  190.2950  177.2390  147.8850 C   0  0  0  0  0  2  0  0  0  0  0  0
  192.0080  176.3180  145.7470 O   0  0  0  0  0  0  0  0  0  0  0  0
  191.7430  176.3590  147.2360 P   0  0  1  0  0  4  0  0  0  0  0  0
  192.8930  175.6300  148.2410 O   0  0  0  0  0  1  0  0  0  0  0  0
  189.1050  177.0650  140.4860 O   0  0  0  0  0  0  0  0  0  0  0  0
  191.6120  177.3510  140.4380 C   0  0  0  0  0  3  0  0  0  0  0  0
  192.7660  177.2810  139.7770 C   0  0  0  0  0  3  0  0  0  0  0  0
  191.7980  174.5980  137.6870 C   0  0  0  0  0  1  0  0  0  0  0  0
  193.8790  176.7870  137.7570 O   0  0  0  0  0  0  0  0  0  0  0  0
  190.3330  176.3530  138.6110 C   0  0  0  0  0  3  0  0  0  0  0  0
  191.5840  176.0960  137.8080 C   0  0  1  0  0  3  0  0  0  0  0  0
  192.8050  176.7370  138.4120 C   0  0  0  0  0  0  0  0  0  0  0  0
  190.3370  176.9100  139.8270 C   0  0  0  0  0  0  0  0  0  0  0  0
  1  8  1  6  0  0  0
  1  7  1  0  0  0  0
  1  6  1  0  0  0  0
  2  9  2  0  0  0  0
  2 11  1  0  0  0  0
  3  5  2  0  0  0  0
  4 19  1  6  0  0  0
  4 11  1  0  0  0  0
  4  1  1  0  0  0  0
  6 12  1  0  0  0  0
  7 10  1  6  0  0  0
  7  6  1  0  0  0  0
  9  3  1  0  0  0  0
 10  5  1  0  0  0  0
 11 10  2  0  0  0  0
 12 13  1  0  0  0  0
 13 14  1  0  0  0  0
 14 15  1  0  0  0  0
 17 16  2  1  0  0  0
 17 15  1  0  0  0  0
 17 18  1  0  0  0  0
 21 20  2  0  0  0  0
 23 26  2  0  0  0  0
 24 27  2  0  0  0  0
 25 22  1  1  0  0  0
 25 26  1  0  0  0  0
 25 24  1  0  0  0  0
 26 21  1  0  0  0  0
 27 20  1  0  0  0  0
 27 19  1  0  0  0  0
M  END
>  <MODEL>
1

>  <REMARK>
 VINA RESULT:      -7.1      0.000      0.000
  Name = 
  7 active torsions:
  status: ('A' for Active; 'I' for Inactive)
    1  A    between atoms: C_3  and  C_11
    2  A    between atoms: C_3  and  N_18
    3  A    between atoms: C_8  and  O_24
    4  A    between atoms: C_11  and  C_13
    5  A    between atoms: C_12  and  C_13
    6  A    between atoms: C_12  and  P_17
    7  A    between atoms: O_24  and  C_27
                            x       y       z     vdW  Elec       q    Type
                         _______ _______ _______ _____ _____    ______ ____

>  <TORSDO>
F 7

$$$$
=
 OpenBabel11032420363D

 27 30  0  0  1  0  0  0  0  0999 V2000
  189.2880  176.6000  142.5980 C   0  0  1  0  0  0  0  0  0  0  0  0
  186.8580  179.2460  141.6990 N   0  0  0  0  0  0  0  0  0  0  0  0
  185.0220  178.3730  142.9710 C   0  0  0  0  0  3  0  0  0  0  0  0
  189.0270  177.9280  141.8320 C   0  0  2  0  0  3  0  0  0  0  0  0
  185.7990  177.3310  143.3870 N   0  0  0  0  0  0  0  0  0  0  0  0
  189.2790  176.5740  144.0800 N   0  0  0  0  0  0  0  0  0  0  0  0
  188.0620  176.1640  143.3070 C   0  0  1  0  0  3  0  0  0  0  0  0
  190.0090  175.5690  142.0190 F   0  0  0  0  0  0  0  0  0  0  0  0
  185.5620  179.3500  142.1130 C   0  0  0  0  0  3  0  0  0  0  0  0
  187.0870  177.2520  142.9680 C   0  0  0  0  0  0  0  0  0  0  0  0
  187.6020  178.1910  142.1180 C   0  0  0  0  0  0  0  0  0  0  0  0
  189.1810  177.9150  144.6690 C   0  0  0  0  0  2  0  0  0  0  0  0
  189.6460  177.8880  146.1160 C   0  0  0  0  0  2  0  0  0  0  0  0
  188.5040  178.2060  147.0700 C   0  0  0  0  0  2  0  0  0  0  0  0
  187.2040  177.6170  146.5570 C   0  0  0  0  0  2  0  0  0  0  0  0
  184.4270  178.4200  146.4950 O   0  0  0  0  0  0  0  0  0  0  0  0
  185.8400  178.7590  146.9180 P   0  0  1  0  0  4  0  0  0  0  0  0
  186.0550  180.1860  147.8000 O   0  0  0  0  0  1  0  0  0  0  0  0
  189.2920  177.8190  140.4280 O   0  0  0  0  0  0  0  0  0  0  0  0
  191.8000  177.5610  140.5100 C   0  0  0  0  0  3  0  0  0  0  0  0
  192.9440  177.2310  139.9130 C   0  0  0  0  0  3  0  0  0  0  0  0
  191.5270  174.7760  137.7980 C   0  0  0  0  0  1  0  0  0  0  0  0
  194.0240  176.4690  137.9580 O   0  0  0  0  0  0  0  0  0  0  0  0
  190.4300  176.8230  138.6270 C   0  0  0  0  0  3  0  0  0  0  0  0
  191.6340  176.2870  137.8950 C   0  0  1  0  0  3  0  0  0  0  0  0
  192.9330  176.6640  138.5570 C   0  0  0  0  0  0  0  0  0  0  0  0
  190.4930  177.3900  139.8370 C   0  0  0  0  0  0  0  0  0  0  0  0
  1  8  1  6  0  0  0
  1  7  1  0  0  0  0
  1  6  1  0  0  0  0
  2  9  2  0  0  0  0
  2 11  1  0  0  0  0
  3  5  2  0  0  0  0
  4 19  1  6  0  0  0
  4 11  1  0  0  0  0
  4  1  1  0  0  0  0
  6 12  1  0  0  0  0
  7 10  1  1  0  0  0
  7  6  1  0  0  0  0
  9  3  1  0  0  0  0
 10  5  1  0  0  0  0
 11 10  2  0  0  0  0
 12 13  1  0  0  0  0
 13 14  1  0  0  0  0
 15 17  1  0  0  0  0
 15 14  1  0  0  0  0
 17 16  2  1  0  0  0
 17 18  1  0  0  0  0
 21 20  2  0  0  0  0
 23 26  2  0  0  0  0
 24 27  2  0  0  0  0
 25 22  1  1  0  0  0
 25 26  1  0  0  0  0
 25 24  1  0  0  0  0
 26 21  1  0  0  0  0
 27 19  1  0  0  0  0
 27 20  1  0  0  0  0
M  END
>  <MODEL>
2

>  <REMARK>
 VINA RESULT:      -6.9      2.470      2.639
  Name = 
  7 active torsions:
  status: ('A' for Active; 'I' for Inactive)
    1  A    between atoms: C_3  and  C_11
    2  A    between atoms: C_3  and  N_18
    3  A    between atoms: C_8  and  O_24
    4  A    between atoms: C_11  and  C_13
    5  A    between atoms: C_12  and  C_13
    6  A    between atoms: C_12  and  P_17
    7  A    between atoms: O_24  and  C_27
                            x       y       z     vdW  Elec       q    Type
                         _______ _______ _______ _____ _____    ______ ____

>  <TORSDO>
F 7

$$$$
=
 OpenBabel11032420363D

 27 30  0  0  1  0  0  0  0  0999 V2000
  182.7410  178.2020  140.0130 C   0  0  1  0  0  0  0  0  0  0  0  0
  186.3530  178.4830  139.2450 N   0  0  0  0  0  0  0  0  0  0  0  0
  186.1790  177.9400  136.9160 C   0  0  0  0  0  3  0  0  0  0  0  0
  184.1670  178.5320  140.5400 C   0  0  2  0  0  3  0  0  0  0  0  0
  184.8290  177.7960  137.0450 N   0  0  0  0  0  0  0  0  0  0  0  0
  182.0820  179.0930  139.0280 N   0  0  0  0  0  0  0  0  0  0  0  0
  182.7910  177.8540  138.5730 C   0  0  1  0  0  3  0  0  0  0  0  0
  181.8630  177.4320  140.7560 F   0  0  0  0  0  0  0  0  0  0  0  0
  186.9560  178.2930  138.0360 C   0  0  0  0  0  3  0  0  0  0  0  0
  184.2500  177.9980  138.2560 C   0  0  0  0  0  0  0  0  0  0  0  0
  185.0100  178.3190  139.3460 C   0  0  0  0  0  0  0  0  0  0  0  0
  182.8360  180.3290  138.7880 C   0  0  0  0  0  2  0  0  0  0  0  0
  181.8870  181.5130  138.6960 C   0  0  0  0  0  2  0  0  0  0  0  0
  181.0480  181.4520  137.4270 C   0  0  0  0  0  2  0  0  0  0  0  0
  180.1400  182.6640  137.3340 C   0  0  0  0  0  2  0  0  0  0  0  0
  182.2240  184.6680  137.3770 O   0  0  0  0  0  0  0  0  0  0  0  0
  181.0630  184.0560  136.6230 P   0  0  1  0  0  4  0  0  0  0  0  0
  180.7400  184.6710  135.0800 O   0  0  0  0  0  1  0  0  0  0  0  0
  184.5570  177.6990  141.6400 O   0  0  0  0  0  0  0  0  0  0  0  0
  183.6500  178.6220  143.8060 C   0  0  0  0  0  3  0  0  0  0  0  0
  183.8600  179.0930  145.0340 C   0  0  0  0  0  3  0  0  0  0  0  0
  186.7720  177.1800  145.6390 C   0  0  0  0  0  1  0  0  0  0  0  0
  185.4180  179.6580  146.7130 O   0  0  0  0  0  0  0  0  0  0  0  0
  186.0000  178.0470  143.4640 C   0  0  0  0  0  3  0  0  0  0  0  0
  186.3520  178.4260  144.8810 C   0  0  1  0  0  3  0  0  0  0  0  0
  185.2160  179.1020  145.6020 C   0  0  0  0  0  0  0  0  0  0  0  0
  184.7590  178.1140  142.9670 C   0  0  0  0  0  0  0  0  0  0  0  0
  1  4  1  0  0  0  0
  1  8  1  1  0  0  0
  2 11  1  0  0  0  0
  3  5  2  0  0  0  0
  3  9  1  0  0  0  0
  4 19  1  1  0  0  0
  5 10  1  0  0  0  0
  6  1  1  0  0  0  0
  7 10  1  6  0  0  0
  7  6  1  0  0  0  0
  7  1  1  0  0  0  0
  9  2  2  0  0  0  0
 10 11  2  0  0  0  0
 11  4  1  0  0  0  0
 12  6  1  0  0  0  0
 13 12  1  0  0  0  0
 14 13  1  0  0  0  0
 15 14  1  0  0  0  0
 17 18  1  6  0  0  0
 17 15  1  0  0  0  0
 17 16  2  0  0  0  0
 19 27  1  0  0  0  0
 20 21  2  0  0  0  0
 21 26  1  0  0  0  0
 24 25  1  0  0  0  0
 25 26  1  0  0  0  0
 25 22  1  1  0  0  0
 26 23  2  0  0  0  0
 27 24  2  0  0  0  0
 27 20  1  0  0  0  0
M  END
>  <MODEL>
3

>  <REMARK>
 VINA RESULT:      -6.7      6.221     10.030
  Name = 
  7 active torsions:
  status: ('A' for Active; 'I' for Inactive)
    1  A    between atoms: C_3  and  C_11
    2  A    between atoms: C_3  and  N_18
    3  A    between atoms: C_8  and  O_24
    4  A    between atoms: C_11  and  C_13
    5  A    between atoms: C_12  and  C_13
    6  A    between atoms: C_12  and  P_17
    7  A    between atoms: O_24  and  C_27
                            x       y       z     vdW  Elec       q    Type
                         _______ _______ _______ _____ _____    ______ ____

>  <TORSDO>
F 7

$$$$
=
 OpenBabel11032420363D

 27 30  0  0  1  0  0  0  0  0999 V2000
  190.5050  177.3760  139.5180 C   0  0  1  0  0  0  0  0  0  0  0  0
  186.9660  178.0460  138.6530 N   0  0  0  0  0  0  0  0  0  0  0  0
  187.3510  178.6250  136.3580 C   0  0  0  0  0  3  0  0  0  0  0  0
  189.0240  177.3950  139.9950 C   0  0  2  0  0  3  0  0  0  0  0  0
  188.6900  178.4190  136.5260 N   0  0  0  0  0  0  0  0  0  0  0  0
  190.9540  176.3910  138.5050 N   0  0  0  0  0  0  0  0  0  0  0  0
  190.5930  177.7860  138.0960 C   0  0  1  0  0  3  0  0  0  0  0  0
  191.5220  177.8690  140.3180 F   0  0  0  0  0  0  0  0  0  0  0  0
  186.4720  178.4320  137.4410 C   0  0  0  0  0  3  0  0  0  0  0  0
  189.1570  178.0270  137.7380 C   0  0  0  0  0  0  0  0  0  0  0  0
  188.3040  177.8620  138.7930 C   0  0  0  0  0  0  0  0  0  0  0  0
  189.9240  175.3950  138.1870 C   0  0  0  0  0  2  0  0  0  0  0  0
  190.4720  174.3670  137.2120 C   0  0  0  0  0  2  0  0  0  0  0  0
  191.8630  174.7500  136.7270 C   0  0  0  0  0  2  0  0  0  0  0  0
  192.8190  173.5820  136.8840 C   0  0  0  0  0  2  0  0  0  0  0  0
  194.7230  175.5710  137.7660 O   0  0  0  0  0  0  0  0  0  0  0  0
  194.2850  174.1230  137.8070 P   0  0  1  0  0  4  0  0  0  0  0  0
  195.1690  173.0820  138.8060 O   0  0  0  0  0  1  0  0  0  0  0  0
  188.8170  178.2510  141.1250 O   0  0  0  0  0  0  0  0  0  0  0  0
  187.7030  177.1140  143.0820 C   0  0  0  0  0  3  0  0  0  0  0  0
  187.6750  176.8230  144.3810 C   0  0  0  0  0  3  0  0  0  0  0  0
  191.1850  176.8390  144.8080 C   0  0  0  0  0  1  0  0  0  0  0  0
  188.6910  177.0570  146.4980 O   0  0  0  0  0  0  0  0  0  0  0  0
  189.8850  178.2040  143.2190 C   0  0  0  0  0  3  0  0  0  0  0  0
  190.0400  177.8250  144.6710 C   0  0  1  0  0  3  0  0  0  0  0  0
  188.7850  177.2310  145.2550 C   0  0  0  0  0  0  0  0  0  0  0  0
  188.8260  177.8650  142.4760 C   0  0  0  0  0  0  0  0  0  0  0  0
  1  4  1  0  0  0  0
  1  8  1  1  0  0  0
  2 11  1  0  0  0  0
  3  5  2  0  0  0  0
  3  9  1  0  0  0  0
  4 19  1  1  0  0  0
  5 10  1  0  0  0  0
  6  1  1  0  0  0  0
  7 10  1  6  0  0  0
  7  6  1  0  0  0  0
  7  1  1  0  0  0  0
  9  2  2  0  0  0  0
 10 11  2  0  0  0  0
 11  4  1  0  0  0  0
 12  6  1  0  0  0  0
 13 12  1  0  0  0  0
 14 15  1  0  0  0  0
 14 13  1  0  0  0  0
 15 17  1  0  0  0  0
 17 16  2  1  0  0  0
 17 18  1  0  0  0  0
 19 27  1  0  0  0  0
 20 21  2  0  0  0  0
 21 26  1  0  0  0  0
 24 25  1  0  0  0  0
 25 22  1  6  0  0  0
 25 26  1  0  0  0  0
 26 23  2  0  0  0  0
 27 20  1  0  0  0  0
 27 24  2  0  0  0  0
M  END
>  <MODEL>
4

>  <REMARK>
 VINA RESULT:      -6.5      3.287      7.075
  Name = 
  7 active torsions:
  status: ('A' for Active; 'I' for Inactive)
    1  A    between atoms: C_3  and  C_11
    2  A    between atoms: C_3  and  N_18
    3  A    between atoms: C_8  and  O_24
    4  A    between atoms: C_11  and  C_13
    5  A    between atoms: C_12  and  C_13
    6  A    between atoms: C_12  and  P_17
    7  A    between atoms: O_24  and  C_27
                            x       y       z     vdW  Elec       q    Type
                         _______ _______ _______ _____ _____    ______ ____

>  <TORSDO>
F 7

$$$$
=
 OpenBabel11032420363D

 27 30  0  0  1  0  0  0  0  0999 V2000
  190.2000  178.4200  143.7850 C   0  0  1  0  0  0  0  0  0  0  0  0
  191.7110  175.0440  143.9670 N   0  0  0  0  0  0  0  0  0  0  0  0
  192.4310  175.1900  146.2490 C   0  0  0  0  0  3  0  0  0  0  0  0
  190.4900  177.0770  143.0550 C   0  0  2  0  0  3  0  0  0  0  0  0
  191.9220  176.4530  146.3340 N   0  0  0  0  0  0  0  0  0  0  0  0
  189.2530  178.4650  144.9240 N   0  0  0  0  0  0  0  0  0  0  0  0
  190.7280  178.3780  145.1690 C   0  0  1  0  0  3  0  0  0  0  0  0
  190.3720  179.6360  143.1450 F   0  0  0  0  0  0  0  0  0  0  0  0
  192.3210  174.4700  145.0440 C   0  0  0  0  0  3  0  0  0  0  0  0
  191.3120  177.0000  145.2520 C   0  0  0  0  0  0  0  0  0  0  0  0
  191.2270  176.3070  144.0770 C   0  0  0  0  0  0  0  0  0  0  0  0
  188.5440  177.1940  145.1230 C   0  0  0  0  0  2  0  0  0  0  0  0
  187.0470  177.4370  145.2180 C   0  0  0  0  0  2  0  0  0  0  0  0
  186.4080  177.5000  143.8380 C   0  0  0  0  0  2  0  0  0  0  0  0
  185.6980  178.8260  143.6420 C   0  0  0  0  0  2  0  0  0  0  0  0
  184.4620  179.0020  146.2500 O   0  0  0  0  0  0  0  0  0  0  0  0
  184.2650  178.9130  144.7520 P   0  0  1  0  0  4  0  0  0  0  0  0
  182.6730  178.9850  144.1820 O   0  0  0  0  0  1  0  0  0  0  0  0
  191.2470  177.2540  141.8510 O   0  0  0  0  0  0  0  0  0  0  0  0
  191.2840  176.5500  139.4280 C   0  0  0  0  0  3  0  0  0  0  0  0
  190.8490  176.7010  138.1790 C   0  0  0  0  0  3  0  0  0  0  0  0
  187.6220  177.8360  139.0770 C   0  0  0  0  0  1  0  0  0  0  0  0
  189.4610  177.8830  136.6810 O   0  0  0  0  0  0  0  0  0  0  0  0
  189.7150  178.1900  140.3320 C   0  0  0  0  0  3  0  0  0  0  0  0
  189.0430  178.3610  138.9930 C   0  0  1  0  0  3  0  0  0  0  0  0
  189.7790  177.6630  137.8790 C   0  0  0  0  0  0  0  0  0  0  0  0
  190.7300  177.3450  140.5470 C   0  0  0  0  0  0  0  0  0  0  0  0
  1  8  1  6  0  0  0
  1  6  1  0  0  0  0
  1  7  1  0  0  0  0
  2 11  2  0  0  0  0
  2  9  1  0  0  0  0
  3  5  1  0  0  0  0
  4 19  1  6  0  0  0
  4  1  1  0  0  0  0
  4 11  1  0  0  0  0
  6 12  1  0  0  0  0
  6  7  1  0  0  0  0
  7 10  1  6  0  0  0
  9  3  2  0  0  0  0
 10  5  2  0  0  0  0
 11 10  1  0  0  0  0
 12 13  1  0  0  0  0
 14 13  1  0  0  0  0
 15 14  1  0  0  0  0
 15 17  1  0  0  0  0
 17 18  1  6  0  0  0
 17 16  2  0  0  0  0
 20 27  1  0  0  0  0
 21 20  2  0  0  0  0
 23 26  2  0  0  0  0
 24 27  2  0  0  0  0
 25 22  1  1  0  0  0
 25 24  1  0  0  0  0
 26 21  1  0  0  0  0
 26 25  1  0  0  0  0
 27 19  1  0  0  0  0
M  END
>  <MODEL>
5

>  <REMARK>
 VINA RESULT:      -6.4      3.506      5.351
  Name = 
  7 active torsions:
  status: ('A' for Active; 'I' for Inactive)
    1  A    between atoms: C_3  and  C_11
    2  A    between atoms: C_3  and  N_18
    3  A    between atoms: C_8  and  O_24
    4  A    between atoms: C_11  and  C_13
    5  A    between atoms: C_12  and  C_13
    6  A    between atoms: C_12  and  P_17
    7  A    between atoms: O_24  and  C_27
                            x       y       z     vdW  Elec       q    Type
                         _______ _______ _______ _____ _____    ______ ____

>  <TORSDO>
F 7

$$$$
=
 OpenBabel11032420363D

 27 30  0  0  1  0  0  0  0  0999 V2000
  188.7840  178.4250  138.0970 C   0  0  1  0  0  0  0  0  0  0  0  0
  185.3730  177.1360  137.4450 N   0  0  0  0  0  0  0  0  0  0  0  0
  185.4230  177.4260  135.0650 C   0  0  0  0  0  3  0  0  0  0  0  0
  187.4860  177.8050  138.6900 C   0  0  2  0  0  3  0  0  0  0  0  0
  186.6900  177.9260  135.1480 N   0  0  0  0  0  0  0  0  0  0  0  0
  189.6600  177.6240  137.2080 N   0  0  0  0  0  0  0  0  0  0  0  0
  188.6590  178.5750  136.6280 C   0  0  1  0  0  3  0  0  0  0  0  0
  189.4270  179.4770  138.7250 F   0  0  0  0  0  0  0  0  0  0  0  0
  184.7530  177.0200  136.2350 C   0  0  0  0  0  3  0  0  0  0  0  0
  187.2900  178.0240  136.3610 C   0  0  0  0  0  0  0  0  0  0  0  0
  186.6280  177.6510  137.4970 C   0  0  0  0  0  0  0  0  0  0  0  0
  189.2520  176.2150  137.1300 C   0  0  0  0  0  2  0  0  0  0  0  0
  190.2560  175.3370  137.8570 C   0  0  0  0  0  2  0  0  0  0  0  0
  191.2650  174.7330  136.8910 C   0  0  0  0  0  2  0  0  0  0  0  0
  192.5940  174.5020  137.5870 C   0  0  0  0  0  2  0  0  0  0  0  0
  193.5500  176.7950  139.0650 O   0  0  0  0  0  0  0  0  0  0  0  0
  193.4810  176.0790  137.7340 P   0  0  1  0  0  4  0  0  0  0  0  0
  194.3290  176.7700  136.4430 O   0  0  0  0  0  1  0  0  0  0  0  0
  186.8850  178.6330  139.6930 O   0  0  0  0  0  0  0  0  0  0  0  0
  185.5400  178.4660  141.8210 C   0  0  0  0  0  3  0  0  0  0  0  0
  185.4880  178.2840  143.1390 C   0  0  0  0  0  3  0  0  0  0  0  0
  188.3030  176.1500  143.2970 C   0  0  0  0  0  1  0  0  0  0  0  0
  186.6680  177.8930  145.1440 O   0  0  0  0  0  0  0  0  0  0  0  0
  187.9320  177.9890  141.6970 C   0  0  0  0  0  3  0  0  0  0  0  0
  187.9880  177.6280  143.1600 C   0  0  1  0  0  3  0  0  0  0  0  0
  186.7070  177.9440  143.8870 C   0  0  0  0  0  0  0  0  0  0  0  0
  186.8100  178.3540  141.0680 C   0  0  0  0  0  0  0  0  0  0  0  0
  1  4  1  0  0  0  0
  1  8  1  1  0  0  0
  2 11  1  0  0  0  0
  3  5  2  0  0  0  0
  3  9  1  0  0  0  0
  4 19  1  1  0  0  0
  5 10  1  0  0  0  0
  6  1  1  0  0  0  0
  7 10  1  6  0  0  0
  7  6  1  0  0  0  0
  7  1  1  0  0  0  0
  9  2  2  0  0  0  0
 10 11  2  0  0  0  0
 11  4  1  0  0  0  0
 12  6  1  0  0  0  0
 12 13  1  0  0  0  0
 14 15  1  0  0  0  0
 14 13  1  0  0  0  0
 15 17  1  0  0  0  0
 17 18  1  1  0  0  0
 17 16  2  0  0  0  0
 19 27  1  0  0  0  0
 20 21  2  0  0  0  0
 21 26  1  0  0  0  0
 24 25  1  0  0  0  0
 25 22  1  6  0  0  0
 25 26  1  0  0  0  0
 26 23  2  0  0  0  0
 27 24  2  0  0  0  0
 27 20  1  0  0  0  0
M  END
>  <MODEL>
6

>  <REMARK>
 VINA RESULT:      -6.4      4.007      7.466
  Name = 
  7 active torsions:
  status: ('A' for Active; 'I' for Inactive)
    1  A    between atoms: C_3  and  C_11
    2  A    between atoms: C_3  and  N_18
    3  A    between atoms: C_8  and  O_24
    4  A    between atoms: C_11  and  C_13
    5  A    between atoms: C_12  and  C_13
    6  A    between atoms: C_12  and  P_17
    7  A    between atoms: O_24  and  C_27
                            x       y       z     vdW  Elec       q    Type
                         _______ _______ _______ _____ _____    ______ ____

>  <TORSDO>
F 7

$$$$
=
 OpenBabel11032420363D

 27 30  0  0  1  0  0  0  0  0999 V2000
  190.4420  177.3100  139.4590 C   0  0  1  0  0  0  0  0  0  0  0  0
  186.9350  178.0830  138.5520 N   0  0  0  0  0  0  0  0  0  0  0  0
  187.3440  178.5210  136.2300 C   0  0  0  0  0  3  0  0  0  0  0  0
  188.9630  177.4170  139.9310 C   0  0  2  0  0  3  0  0  0  0  0  0
  188.6720  178.2660  136.4110 N   0  0  0  0  0  0  0  0  0  0  0  0
  190.8480  176.2530  138.5020 N   0  0  0  0  0  0  0  0  0  0  0  0
  190.5470  177.6380  138.0170 C   0  0  1  0  0  3  0  0  0  0  0  0
  191.4790  177.8010  140.2330 F   0  0  0  0  0  0  0  0  0  0  0  0
  186.4580  178.4250  137.3200 C   0  0  0  0  0  3  0  0  0  0  0  0
  189.1230  177.9210  137.6440 C   0  0  0  0  0  0  0  0  0  0  0  0
  188.2630  177.8500  138.7040 C   0  0  0  0  0  0  0  0  0  0  0  0
  189.7750  175.2860  138.2350 C   0  0  0  0  0  2  0  0  0  0  0  0
  190.1740  174.3600  137.0990 C   0  0  0  0  0  2  0  0  0  0  0  0
  188.9620  173.6570  136.5070 C   0  0  0  0  0  2  0  0  0  0  0  0
  187.8850  174.6640  136.1510 C   0  0  0  0  0  2  0  0  0  0  0  0
  186.2070  172.8560  137.6580 O   0  0  0  0  0  0  0  0  0  0  0  0
  186.3220  174.1810  136.9370 P   0  0  1  0  0  4  0  0  0  0  0  0
  184.9700  175.1980  136.9780 O   0  0  0  0  0  1  0  0  0  0  0  0
  188.7930  178.3420  141.0130 O   0  0  0  0  0  0  0  0  0  0  0  0
  189.9710  178.4320  143.2420 C   0  0  0  0  0  3  0  0  0  0  0  0
  190.0440  178.0670  144.5210 C   0  0  0  0  0  3  0  0  0  0  0  0
  186.5520  177.7680  144.9900 C   0  0  0  0  0  1  0  0  0  0  0  0
  189.1080  176.8280  146.2970 O   0  0  0  0  0  0  0  0  0  0  0  0
  187.8030  177.3580  142.9050 C   0  0  0  0  0  3  0  0  0  0  0  0
  187.6980  176.9940  144.3650 C   0  0  1  0  0  3  0  0  0  0  0  0
  188.9700  177.2660  145.1250 C   0  0  0  0  0  0  0  0  0  0  0  0
  188.8320  178.0360  142.3840 C   0  0  0  0  0  0  0  0  0  0  0  0
  1  4  1  0  0  0  0
  1  8  1  1  0  0  0
  2 11  1  0  0  0  0
  3  5  2  0  0  0  0
  3  9  1  0  0  0  0
  4 19  1  1  0  0  0
  5 10  1  0  0  0  0
  6  1  1  0  0  0  0
  7 10  1  6  0  0  0
  7  6  1  0  0  0  0
  7  1  1  0  0  0  0
  9  2  2  0  0  0  0
 10 11  2  0  0  0  0
 11  4  1  0  0  0  0
 12  6  1  0  0  0  0
 13 12  1  0  0  0  0
 14 13  1  0  0  0  0
 15 14  1  0  0  0  0
 15 17  1  0  0  0  0
 17 18  1  1  0  0  0
 17 16  2  0  0  0  0
 19 27  1  0  0  0  0
 20 21  2  0  0  0  0
 21 26  1  0  0  0  0
 24 25  1  0  0  0  0
 25 22  1  1  0  0  0
 25 26  1  0  0  0  0
 26 23  2  0  0  0  0
 27 24  2  0  0  0  0
 27 20  1  0  0  0  0
M  END
>  <MODEL>
7

>  <REMARK>
 VINA RESULT:      -6.3      3.849      7.562
  Name = 
  7 active torsions:
  status: ('A' for Active; 'I' for Inactive)
    1  A    between atoms: C_3  and  C_11
    2  A    between atoms: C_3  and  N_18
    3  A    between atoms: C_8  and  O_24
    4  A    between atoms: C_11  and  C_13
    5  A    between atoms: C_12  and  C_13
    6  A    between atoms: C_12  and  P_17
    7  A    between atoms: O_24  and  C_27
                            x       y       z     vdW  Elec       q    Type
                         _______ _______ _______ _____ _____    ______ ____

>  <TORSDO>
F 7

$$$$
=
 OpenBabel11032420363D

 27 30  0  0  1  0  0  0  0  0999 V2000
  189.5630  177.3880  141.2000 C   0  0  1  0  0  0  0  0  0  0  0  0
  186.5450  179.5300  141.3390 N   0  0  0  0  0  0  0  0  0  0  0  0
  185.3810  178.2530  143.0020 C   0  0  0  0  0  3  0  0  0  0  0  0
  188.8450  178.6690  140.6860 C   0  0  2  0  0  3  0  0  0  0  0  0
  186.4200  177.3710  143.0590 N   0  0  0  0  0  0  0  0  0  0  0  0
  190.0190  177.2970  142.6070 N   0  0  0  0  0  0  0  0  0  0  0  0
  188.7150  176.6860  142.1930 C   0  0  1  0  0  3  0  0  0  0  0  0
  190.2380  176.5480  140.3310 F   0  0  0  0  0  0  0  0  0  0  0  0
  185.4450  179.3550  142.1280 C   0  0  0  0  0  3  0  0  0  0  0  0
  187.5070  177.5700  142.2720 C   0  0  0  0  0  0  0  0  0  0  0  0
  187.5570  178.6280  141.4080 C   0  0  0  0  0  0  0  0  0  0  0  0
  189.8740  178.5650  143.3330 C   0  0  0  0  0  2  0  0  0  0  0  0
  190.5590  178.4760  144.6860 C   0  0  0  0  0  2  0  0  0  0  0  0
  190.5130  177.0580  145.2380 C   0  0  0  0  0  2  0  0  0  0  0  0
  190.4180  177.0810  146.7520 C   0  0  0  0  0  2  0  0  0  0  0  0
  187.6010  177.4690  146.2310 O   0  0  0  0  0  0  0  0  0  0  0  0
  188.7250  177.5070  147.2450 P   0  0  1  0  0  4  0  0  0  0  0  0
  188.3060  177.8770  148.8420 O   0  0  0  0  0  1  0  0  0  0  0  0
  188.6750  178.6760  139.2630 O   0  0  0  0  0  0  0  0  0  0  0  0
  186.3970  178.2530  138.2640 C   0  0  0  0  0  3  0  0  0  0  0  0
  185.5470  177.4410  137.6370 C   0  0  0  0  0  3  0  0  0  0  0  0
  188.0250  175.6860  135.8270 C   0  0  0  0  0  1  0  0  0  0  0  0
  185.1530  175.3190  136.6860 O   0  0  0  0  0  0  0  0  0  0  0  0
  188.2670  176.6950  138.0630 C   0  0  0  0  0  3  0  0  0  0  0  0
  187.4490  175.7410  137.2290 C   0  0  1  0  0  3  0  0  0  0  0  0
  185.9940  176.1230  137.1670 C   0  0  0  0  0  0  0  0  0  0  0  0
  187.8000  177.8600  138.5250 C   0  0  0  0  0  0  0  0  0  0  0  0
  1  8  1  6  0  0  0
  1  7  1  0  0  0  0
  1  6  1  0  0  0  0
  2 11  2  0  0  0  0
  2  9  1  0  0  0  0
  3  5  1  0  0  0  0
  4 19  1  6  0  0  0
  4  1  1  0  0  0  0
  4 11  1  0  0  0  0
  6 12  1  0  0  0  0
  7 10  1  1  0  0  0
  7  6  1  0  0  0  0
  9  3  2  0  0  0  0
 10  5  2  0  0  0  0
 11 10  1  0  0  0  0
 12 13  1  0  0  0  0
 13 14  1  0  0  0  0
 14 15  1  0  0  0  0
 15 17  1  0  0  0  0
 17 16  2  1  0  0  0
 17 18  1  0  0  0  0
 20 27  1  0  0  0  0
 21 20  2  0  0  0  0
 23 26  2  0  0  0  0
 24 27  2  0  0  0  0
 25 22  1  6  0  0  0
 25 24  1  0  0  0  0
 26 25  1  0  0  0  0
 26 21  1  0  0  0  0
 27 19  1  0  0  0  0
M  END
>  <MODEL>
8

>  <REMARK>
 VINA RESULT:      -6.3      2.826      3.684
  Name = 
  7 active torsions:
  status: ('A' for Active; 'I' for Inactive)
    1  A    between atoms: C_3  and  C_11
    2  A    between atoms: C_3  and  N_18
    3  A    between atoms: C_8  and  O_24
    4  A    between atoms: C_11  and  C_13
    5  A    between atoms: C_12  and  C_13
    6  A    between atoms: C_12  and  P_17
    7  A    between atoms: O_24  and  C_27
                            x       y       z     vdW  Elec       q    Type
                         _______ _______ _______ _____ _____    ______ ____

>  <TORSDO>
F 7

$$$$
=
 OpenBabel11032420363D

 27 30  0  0  1  0  0  0  0  0999 V2000
  184.0260  178.5160  140.5320 C   0  0  1  0  0  0  0  0  0  0  0  0
  181.4710  178.9500  143.1770 N   0  0  0  0  0  0  0  0  0  0  0  0
  179.7340  179.7790  141.7460 C   0  0  0  0  0  3  0  0  0  0  0  0
  183.6630  178.3580  142.0370 C   0  0  2  0  0  3  0  0  0  0  0  0
  180.5670  179.6770  140.6690 N   0  0  0  0  0  0  0  0  0  0  0  0
  183.3610  177.6760  139.5080 N   0  0  0  0  0  0  0  0  0  0  0  0
  182.8740  179.0670  139.7790 C   0  0  1  0  0  3  0  0  0  0  0  0
  185.2560  179.0180  140.1410 F   0  0  0  0  0  0  0  0  0  0  0  0
  180.1940  179.4070  143.0240 C   0  0  0  0  0  3  0  0  0  0  0  0
  181.8300  179.2130  140.8450 C   0  0  0  0  0  0  0  0  0  0  0  0
  182.2790  178.8730  142.0900 C   0  0  0  0  0  0  0  0  0  0  0  0
  182.5170  176.6280  140.0950 C   0  0  0  0  0  2  0  0  0  0  0  0
  182.1050  175.6270  139.0280 C   0  0  0  0  0  2  0  0  0  0  0  0
  180.6920  175.8960  138.5320 C   0  0  0  0  0  2  0  0  0  0  0  0
  179.7790  174.7340  138.8760 C   0  0  0  0  0  2  0  0  0  0  0  0
  178.9310  176.0130  141.3260 O   0  0  0  0  0  0  0  0  0  0  0  0
  179.4260  174.7500  140.6560 P   0  0  1  0  0  4  0  0  0  0  0  0
  179.5460  173.3650  141.6210 O   0  0  0  0  0  1  0  0  0  0  0  0
  184.5500  179.0810  142.8990 O   0  0  0  0  0  0  0  0  0  0  0  0
  185.4210  178.2730  145.1250 C   0  0  0  0  0  3  0  0  0  0  0  0
  186.4300  177.8340  145.8760 C   0  0  0  0  0  3  0  0  0  0  0  0
  188.1540  176.2400  143.2330 C   0  0  0  0  0  1  0  0  0  0  0  0
  188.7190  177.2800  146.0120 O   0  0  0  0  0  0  0  0  0  0  0  0
  186.7460  178.2580  143.0730 C   0  0  0  0  0  3  0  0  0  0  0  0
  187.9260  177.6380  143.7790 C   0  0  1  0  0  3  0  0  0  0  0  0
  187.7450  177.5780  145.2720 C   0  0  0  0  0  0  0  0  0  0  0  0
  185.5850  178.5340  143.6770 C   0  0  0  0  0  0  0  0  0  0  0  0
  1  8  1  6  0  0  0
  1  4  1  0  0  0  0
  3  9  2  0  0  0  0
  4 11  1  0  0  0  0
  4 19  1  1  0  0  0
  5 10  2  0  0  0  0
  5  3  1  0  0  0  0
  6  7  1  0  0  0  0
  6 12  1  0  0  0  0
  6  1  1  0  0  0  0
  7  1  1  0  0  0  0
  7 10  1  1  0  0  0
  9  2  1  0  0  0  0
 10 11  1  0  0  0  0
 11  2  2  0  0  0  0
 13 12  1  0  0  0  0
 14 15  1  0  0  0  0
 14 13  1  0  0  0  0
 15 17  1  0  0  0  0
 17 16  2  6  0  0  0
 17 18  1  0  0  0  0
 19 27  1  0  0  0  0
 20 21  2  0  0  0  0
 24 27  2  0  0  0  0
 24 25  1  0  0  0  0
 25 22  1  6  0  0  0
 25 26  1  0  0  0  0
 26 21  1  0  0  0  0
 26 23  2  0  0  0  0
 27 20  1  0  0  0  0
M  END
>  <MODEL>
9

>  <REMARK>
 VINA RESULT:      -6.3      5.575      8.705
  Name = 
  7 active torsions:
  status: ('A' for Active; 'I' for Inactive)
    1  A    between atoms: C_3  and  C_11
    2  A    between atoms: C_3  and  N_18
    3  A    between atoms: C_8  and  O_24
    4  A    between atoms: C_11  and  C_13
    5  A    between atoms: C_12  and  C_13
    6  A    between atoms: C_12  and  P_17
    7  A    between atoms: O_24  and  C_27
                            x       y       z     vdW  Elec       q    Type
                         _______ _______ _______ _____ _____    ______ ____

>  <TORSDO>
F 7

$$$$
