=
 OpenBabel11042411453D

 25 28  0  0  1  0  0  0  0  0999 V2000
  190.1240  177.1130  146.6840 N   0  0  0  0  0  2  0  0  0  0  0  0
  185.5960  177.8250  143.0260 C   0  0  2  0  0  3  0  0  0  0  0  0
  187.4100  177.5360  144.4720 C   0  0  0  0  0  0  0  0  0  0  0  0
  185.4880  178.9550  142.0870 N   0  0  0  0  0  0  0  0  0  0  0  0
  187.6650  178.1210  142.0740 C   0  0  0  0  0  0  0  0  0  0  0  0
  191.8090  176.3120  145.3480 O   0  0  0  0  0  0  0  0  0  0  0  0
  185.2580  178.2460  144.4310 C   0  0  0  0  0  0  0  0  0  0  0  0
  187.0040  177.4350  143.1070 N   0  0  0  0  0  0  0  0  0  0  0  0
  189.7580  176.7870  144.4390 N   0  0  0  0  0  2  0  0  0  0  0  0
  190.6250  176.7170  145.4820 C   0  0  0  0  0  0  0  0  0  0  0  0
  184.1470  178.6960  144.8130 O   0  0  0  0  0  0  0  0  0  0  0  0
  188.6520  177.2580  145.0310 C   0  0  0  0  0  0  0  0  0  0  0  0
  187.8560  177.9400  147.2220 C   0  0  0  0  0  0  0  0  0  0  0  0
  186.7550  179.0150  141.3460 C   0  0  0  0  0  2  0  0  0  0  0  0
  186.5910  178.2340  146.6600 C   0  0  0  0  0  3  0  0  0  0  0  0
  188.8950  178.0040  141.8330 O   0  0  0  0  0  0  0  0  0  0  0  0
  186.4070  178.0160  145.2810 C   0  0  0  0  0  0  0  0  0  0  0  0
  188.8650  177.4520  146.3680 C   0  0  0  0  0  0  0  0  0  0  0  0
  188.1010  178.1490  148.6750 C   0  0  0  0  0  1  0  0  0  0  0  0
  184.4500  178.6120  141.1250 C   0  0  0  0  0  2  0  0  0  0  0  0
  184.8610  179.0050  139.7060 C   0  0  2  0  0  3  0  0  0  0  0  0
  184.2810  180.2320  139.3690 O   0  0  0  0  0  1  0  0  0  0  0  0
  183.1440  178.2590  138.0440 C   0  0  0  0  0  1  0  0  0  0  0  0
  185.4920  177.8480  137.6480 N   0  0  0  0  0  1  0  0  0  0  0  0
  184.4790  177.9310  138.6880 C   0  0  1  0  0  3  0  0  0  0  0  0
  2  8  1  0  0  0  0
  2  7  1  1  0  0  0
  3 12  2  0  0  0  0
  3 17  1  0  0  0  0
  4  2  1  0  0  0  0
  5  8  1  0  0  0  0
  6 10  2  0  0  0  0
  7 11  2  0  0  0  0
  7 17  1  0  0  0  0
  8  3  1  0  0  0  0
  9 12  1  0  0  0  0
  9 10  1  0  0  0  0
 10  1  1  0  0  0  0
 12 18  1  0  0  0  0
 13 19  1  0  0  0  0
 14  5  1  0  0  0  0
 14  4  1  0  0  0  0
 15 13  1  0  0  0  0
 16  5  2  0  0  0  0
 17 15  2  0  0  0  0
 18  1  1  0  0  0  0
 18 13  2  0  0  0  0
 20  4  1  0  0  0  0
 21 22  1  6  0  0  0
 21 20  1  0  0  0  0
 24 25  1  0  0  0  0
 25 23  1  6  0  0  0
 25 21  1  0  0  0  0
M  END
>  <MODEL>
1

>  <REMARK>
 VINA RESULT:      -9.0      0.000      0.000
  Name = 
  3 active torsions:
  status: ('A' for Active; 'I' for Inactive)
    1  A    between atoms: N_4  and  C_24
    2  A    between atoms: C_10  and  C_11
    3  A    between atoms: C_11  and  C_24
                            x       y       z     vdW  Elec       q    Type
                         _______ _______ _______ _____ _____    ______ ____

>  <TORSDO>
F 3

$$$$
=
 OpenBabel11042411453D

 25 28  0  0  1  0  0  0  0  0999 V2000
  190.6590  176.9270  147.7060 N   0  0  0  0  0  2  0  0  0  0  0  0
  188.6280  176.9320  142.2050 C   0  0  2  0  0  3  0  0  0  0  0  0
  189.4510  176.9230  144.3920 C   0  0  0  0  0  0  0  0  0  0  0  0
  189.0500  177.9140  141.1910 N   0  0  0  0  0  0  0  0  0  0  0  0
  190.9040  177.1770  142.3970 C   0  0  0  0  0  0  0  0  0  0  0  0
  192.7580  176.0180  147.5330 O   0  0  0  0  0  0  0  0  0  0  0  0
  187.6420  177.5310  143.1700 C   0  0  0  0  0  0  0  0  0  0  0  0
  189.7880  176.6160  143.0400 N   0  0  0  0  0  0  0  0  0  0  0  0
  191.4660  176.2750  145.6570 N   0  0  0  0  0  2  0  0  0  0  0  0
  191.6830  176.3880  146.9920 C   0  0  0  0  0  0  0  0  0  0  0  0
  186.5070  177.9840  142.8710 O   0  0  0  0  0  0  0  0  0  0  0  0
  190.2300  176.7790  145.5350 C   0  0  0  0  0  0  0  0  0  0  0  0
  188.4610  177.7260  146.9020 C   0  0  0  0  0  0  0  0  0  0  0  0
  190.5200  177.9220  141.1910 C   0  0  0  0  0  2  0  0  0  0  0  0
  187.6650  177.8860  145.7430 C   0  0  0  0  0  3  0  0  0  0  0  0
  192.0820  177.0790  142.8290 O   0  0  0  0  0  0  0  0  0  0  0  0
  188.1950  177.4700  144.5070 C   0  0  0  0  0  0  0  0  0  0  0  0
  189.7440  177.1660  146.7540 C   0  0  0  0  0  0  0  0  0  0  0  0
  187.9450  178.1470  148.2330 C   0  0  0  0  0  1  0  0  0  0  0  0
  188.6290  177.3970  139.8950 C   0  0  0  0  0  2  0  0  0  0  0  0
  189.3990  178.0660  138.7580 C   0  0  2  0  0  3  0  0  0  0  0  0
  188.6820  179.1700  138.2870 O   0  0  0  0  0  1  0  0  0  0  0  0
  189.3070  177.6980  136.2830 C   0  0  0  0  0  1  0  0  0  0  0  0
  191.1080  176.7620  137.5950 N   0  0  0  0  0  1  0  0  0  0  0  0
  189.6920  177.0890  137.6190 C   0  0  1  0  0  3  0  0  0  0  0  0
  2  8  1  0  0  0  0
  2  7  1  1  0  0  0
  3 17  2  0  0  0  0
  3 12  1  0  0  0  0
  4 14  1  0  0  0  0
  4  2  1  0  0  0  0
  5 16  2  0  0  0  0
  5  8  1  0  0  0  0
  7 17  1  0  0  0  0
  8  3  1  0  0  0  0
  9 10  1  0  0  0  0
 10  6  2  0  0  0  0
 10  1  1  0  0  0  0
 11  7  2  0  0  0  0
 12  9  1  0  0  0  0
 12 18  2  0  0  0  0
 13 19  1  0  0  0  0
 14  5  1  0  0  0  0
 15 13  2  0  0  0  0
 17 15  1  0  0  0  0
 18 13  1  0  0  0  0
 18  1  1  0  0  0  0
 20  4  1  0  0  0  0
 21 22  1  6  0  0  0
 21 20  1  0  0  0  0
 24 25  1  0  0  0  0
 25 23  1  6  0  0  0
 25 21  1  0  0  0  0
M  END
>  <MODEL>
2

>  <REMARK>
 VINA RESULT:      -9.0      2.879      3.398
  Name = 
  3 active torsions:
  status: ('A' for Active; 'I' for Inactive)
    1  A    between atoms: N_4  and  C_24
    2  A    between atoms: C_10  and  C_11
    3  A    between atoms: C_11  and  C_24
                            x       y       z     vdW  Elec       q    Type
                         _______ _______ _______ _____ _____    ______ ____

>  <TORSDO>
F 3

$$$$
=
 OpenBabel11042411453D

 25 28  0  0  1  0  0  0  0  0999 V2000
  190.3790  177.2810  146.0900 N   0  0  0  0  0  2  0  0  0  0  0  0
  184.9840  177.9500  143.8920 C   0  0  2  0  0  3  0  0  0  0  0  0
  187.1390  177.6790  144.7540 C   0  0  0  0  0  0  0  0  0  0  0  0
  184.5940  179.0930  143.0470 N   0  0  0  0  0  0  0  0  0  0  0  0
  186.6900  178.3080  142.3960 C   0  0  0  0  0  0  0  0  0  0  0  0
  191.6260  176.5390  144.3130 O   0  0  0  0  0  0  0  0  0  0  0  0
  185.0540  178.3410  145.3430 C   0  0  0  0  0  0  0  0  0  0  0  0
  186.3630  177.5910  143.5590 N   0  0  0  0  0  0  0  0  0  0  0  0
  189.3930  176.9820  144.0360 N   0  0  0  0  0  2  0  0  0  0  0  0
  190.5220  176.9150  144.7880 C   0  0  0  0  0  0  0  0  0  0  0  0
  184.0910  178.7600  146.0360 O   0  0  0  0  0  0  0  0  0  0  0  0
  188.4940  177.4200  144.9290 C   0  0  0  0  0  0  0  0  0  0  0  0
  188.3450  178.0480  147.2700 C   0  0  0  0  0  0  0  0  0  0  0  0
  185.5960  179.1940  141.9770 C   0  0  0  0  0  2  0  0  0  0  0  0
  186.9680  178.3230  147.0990 C   0  0  0  0  0  3  0  0  0  0  0  0
  187.8020  178.2220  141.8120 O   0  0  0  0  0  0  0  0  0  0  0  0
  186.4020  178.1240  145.8250 C   0  0  0  0  0  0  0  0  0  0  0  0
  189.0760  177.5970  146.1550 C   0  0  0  0  0  0  0  0  0  0  0  0
  188.9910  178.2390  148.5980 C   0  0  0  0  0  1  0  0  0  0  0  0
  183.3300  178.7430  142.4130 C   0  0  0  0  0  2  0  0  0  0  0  0
  182.1480  179.3550  143.1640 C   0  0  2  0  0  3  0  0  0  0  0  0
  181.7420  178.4950  144.1890 O   0  0  0  0  0  1  0  0  0  0  0  0
  180.2810  178.3850  141.8080 C   0  0  0  0  0  1  0  0  0  0  0  0
  180.0200  180.5270  142.8960 N   0  0  0  0  0  1  0  0  0  0  0  0
  180.9810  179.6650  142.2270 C   0  0  1  0  0  3  0  0  0  0  0  0
  1 18  1  0  0  0  0
  2  7  1  1  0  0  0
  3 12  2  0  0  0  0
  3 17  1  0  0  0  0
  4  2  1  0  0  0  0
  5  8  1  0  0  0  0
  6 10  2  0  0  0  0
  7 17  1  0  0  0  0
  7 11  2  0  0  0  0
  8  2  1  0  0  0  0
  8  3  1  0  0  0  0
  9 10  1  0  0  0  0
  9 12  1  0  0  0  0
 10  1  1  0  0  0  0
 12 18  1  0  0  0  0
 13 19  1  0  0  0  0
 14  5  1  0  0  0  0
 14  4  1  0  0  0  0
 15 13  1  0  0  0  0
 16  5  2  0  0  0  0
 17 15  2  0  0  0  0
 18 13  2  0  0  0  0
 20  4  1  0  0  0  0
 20 21  1  0  0  0  0
 21 22  1  1  0  0  0
 25 23  1  1  0  0  0
 25 24  1  0  0  0  0
 25 21  1  0  0  0  0
M  END
>  <MODEL>
3

>  <REMARK>
 VINA RESULT:      -8.7      2.088      2.716
  Name = 
  3 active torsions:
  status: ('A' for Active; 'I' for Inactive)
    1  A    between atoms: N_4  and  C_24
    2  A    between atoms: C_10  and  C_11
    3  A    between atoms: C_11  and  C_24
                            x       y       z     vdW  Elec       q    Type
                         _______ _______ _______ _____ _____    ______ ____

>  <TORSDO>
F 3

$$$$
=
 OpenBabel11042411453D

 25 28  0  0  1  0  0  0  0  0999 V2000
  183.9050  178.9900  141.0660 N   0  0  0  0  0  2  0  0  0  0  0  0
  188.3610  178.0690  144.7650 C   0  0  2  0  0  3  0  0  0  0  0  0
  186.5960  178.4360  143.2790 C   0  0  0  0  0  0  0  0  0  0  0  0
  189.0410  176.7680  144.9000 N   0  0  0  0  0  0  0  0  0  0  0  0
  188.6740  177.2380  142.6460 C   0  0  0  0  0  0  0  0  0  0  0  0
  184.9050  179.1700  139.0100 O   0  0  0  0  0  0  0  0  0  0  0  0
  187.0330  178.0680  145.4710 C   0  0  0  0  0  0  0  0  0  0  0  0
  188.0080  178.2520  143.3560 N   0  0  0  0  0  0  0  0  0  0  0  0
  186.1860  178.7950  140.8740 N   0  0  0  0  0  2  0  0  0  0  0  0
  184.9950  178.9930  140.2530 C   0  0  0  0  0  0  0  0  0  0  0  0
  186.8600  177.8990  146.7060 O   0  0  0  0  0  0  0  0  0  0  0  0
  185.8090  178.6570  142.1530 C   0  0  0  0  0  0  0  0  0  0  0  0
  183.8000  178.6720  143.5170 C   0  0  0  0  0  0  0  0  0  0  0  0
  189.4070  176.3360  143.5440 C   0  0  0  0  0  2  0  0  0  0  0  0
  184.5910  178.4390  144.6670 C   0  0  0  0  0  3  0  0  0  0  0  0
  188.6140  177.1060  141.3960 O   0  0  0  0  0  0  0  0  0  0  0  0
  185.9860  178.3290  144.5070 C   0  0  0  0  0  0  0  0  0  0  0  0
  184.4520  178.7750  142.2730 C   0  0  0  0  0  0  0  0  0  0  0  0
  182.3220  178.7990  143.6340 C   0  0  0  0  0  1  0  0  0  0  0  0
  190.2850  177.0100  145.6180 C   0  0  0  0  0  2  0  0  0  0  0  0
  190.1850  176.5410  147.0690 C   0  0  2  0  0  3  0  0  0  0  0  0
  189.8180  177.6130  147.8880 O   0  0  0  0  0  1  0  0  0  0  0  0
  192.2980  175.3890  146.3810 C   0  0  0  0  0  1  0  0  0  0  0  0
  192.2870  176.9070  148.2610 N   0  0  0  0  0  1  0  0  0  0  0  0
  191.4920  175.9150  147.5540 C   0  0  1  0  0  3  0  0  0  0  0  0
  1 18  1  0  0  0  0
  2  4  1  0  0  0  0
  2  7  1  1  0  0  0
  3  8  1  0  0  0  0
  3 17  1  0  0  0  0
  4 20  1  0  0  0  0
  5  8  1  0  0  0  0
  5 14  1  0  0  0  0
  6 10  2  0  0  0  0
  7 11  2  0  0  0  0
  8  2  1  0  0  0  0
  9 12  1  0  0  0  0
 10  9  1  0  0  0  0
 10  1  1  0  0  0  0
 12 18  1  0  0  0  0
 12  3  2  0  0  0  0
 13 19  1  0  0  0  0
 13 15  1  0  0  0  0
 14  4  1  0  0  0  0
 16  5  2  0  0  0  0
 17 15  2  0  0  0  0
 17  7  1  0  0  0  0
 18 13  2  0  0  0  0
 20 21  1  0  0  0  0
 21 25  1  0  0  0  0
 21 22  1  1  0  0  0
 25 23  1  6  0  0  0
 25 24  1  0  0  0  0
M  END
>  <MODEL>
4

>  <REMARK>
 VINA RESULT:      -8.5      1.871      6.945
  Name = 
  3 active torsions:
  status: ('A' for Active; 'I' for Inactive)
    1  A    between atoms: N_4  and  C_24
    2  A    between atoms: C_10  and  C_11
    3  A    between atoms: C_11  and  C_24
                            x       y       z     vdW  Elec       q    Type
                         _______ _______ _______ _____ _____    ______ ____

>  <TORSDO>
F 3

$$$$
=
 OpenBabel11042411453D

 25 28  0  0  1  0  0  0  0  0999 V2000
  191.8110  177.1840  143.3670 N   0  0  0  0  0  2  0  0  0  0  0  0
  185.9610  177.5940  143.3650 C   0  0  2  0  0  3  0  0  0  0  0  0
  188.2920  177.4310  143.3500 C   0  0  0  0  0  0  0  0  0  0  0  0
  185.2420  178.8580  143.1280 N   0  0  0  0  0  0  0  0  0  0  0  0
  187.0070  178.6580  141.6180 C   0  0  0  0  0  0  0  0  0  0  0  0
  192.3810  177.2240  141.1460 O   0  0  0  0  0  0  0  0  0  0  0  0
  186.5220  177.5370  144.7590 C   0  0  0  0  0  0  0  0  0  0  0  0
  187.1490  177.5810  142.5090 N   0  0  0  0  0  0  0  0  0  0  0  0
  190.1770  177.3600  141.7620 N   0  0  0  0  0  2  0  0  0  0  0  0
  191.5010  177.2550  142.0450 C   0  0  0  0  0  0  0  0  0  0  0  0
  185.8470  177.5650  145.8220 O   0  0  0  0  0  0  0  0  0  0  0  0
  189.6330  177.3560  142.9860 C   0  0  0  0  0  0  0  0  0  0  0  0
  190.2920  177.2180  145.3190 C   0  0  0  0  0  0  0  0  0  0  0  0
  185.7930  179.4380  141.8950 C   0  0  0  0  0  2  0  0  0  0  0  0
  188.9320  177.3040  145.6990 C   0  0  0  0  0  3  0  0  0  0  0  0
  187.8420  178.9340  140.7180 O   0  0  0  0  0  0  0  0  0  0  0  0
  187.9610  177.4070  144.6840 C   0  0  0  0  0  0  0  0  0  0  0  0
  190.6010  177.2490  143.9460 C   0  0  0  0  0  0  0  0  0  0  0  0
  191.3560  177.1050  146.3540 C   0  0  0  0  0  1  0  0  0  0  0  0
  183.8540  178.5140  142.8500 C   0  0  0  0  0  2  0  0  0  0  0  0
  182.8980  179.3240  143.7250 C   0  0  2  0  0  3  0  0  0  0  0  0
  182.9640  178.8680  145.0440 O   0  0  0  0  0  1  0  0  0  0  0  0
  181.4330  178.7140  141.7890 C   0  0  0  0  0  1  0  0  0  0  0  0
  180.6600  178.4020  144.0580 N   0  0  0  0  0  1  0  0  0  0  0  0
  181.4630  179.2630  143.2040 C   0  0  1  0  0  3  0  0  0  0  0  0
  1 18  1  0  0  0  0
  2  7  1  1  0  0  0
  3 17  1  0  0  0  0
  4  2  1  0  0  0  0
  5 14  1  0  0  0  0
  5  8  1  0  0  0  0
  6 10  2  0  0  0  0
  7 11  2  0  0  0  0
  8  3  1  0  0  0  0
  8  2  1  0  0  0  0
  9 10  1  0  0  0  0
  9 12  1  0  0  0  0
 10  1  1  0  0  0  0
 12  3  2  0  0  0  0
 12 18  1  0  0  0  0
 13 15  1  0  0  0  0
 13 19  1  0  0  0  0
 14  4  1  0  0  0  0
 16  5  2  0  0  0  0
 17  7  1  0  0  0  0
 17 15  2  0  0  0  0
 18 13  2  0  0  0  0
 20  4  1  0  0  0  0
 20 21  1  0  0  0  0
 21 22  1  1  0  0  0
 25 23  1  6  0  0  0
 25 21  1  0  0  0  0
 25 24  1  0  0  0  0
M  END
>  <MODEL>
5

>  <REMARK>
 VINA RESULT:      -8.2      2.462      3.430
  Name = 
  3 active torsions:
  status: ('A' for Active; 'I' for Inactive)
    1  A    between atoms: N_4  and  C_24
    2  A    between atoms: C_10  and  C_11
    3  A    between atoms: C_11  and  C_24
                            x       y       z     vdW  Elec       q    Type
                         _______ _______ _______ _____ _____    ______ ____

>  <TORSDO>
F 3

$$$$
=
 OpenBabel11042411453D

 25 28  0  0  1  0  0  0  0  0999 V2000
  186.8260  178.2490  147.5260 N   0  0  0  0  0  2  0  0  0  0  0  0
  189.6940  176.6670  142.6620 C   0  0  2  0  0  3  0  0  0  0  0  0
  188.5640  177.2940  144.6090 C   0  0  0  0  0  0  0  0  0  0  0  0
  190.7260  177.5050  142.0260 N   0  0  0  0  0  0  0  0  0  0  0  0
  191.0210  177.5070  144.3390 C   0  0  0  0  0  0  0  0  0  0  0  0
  188.3310  177.8770  149.2160 O   0  0  0  0  0  0  0  0  0  0  0  0
  188.3120  177.1780  142.3600 C   0  0  0  0  0  0  0  0  0  0  0  0
  189.8150  176.8210  144.1130 N   0  0  0  0  0  0  0  0  0  0  0  0
  188.9180  177.4300  147.0450 N   0  0  0  0  0  2  0  0  0  0  0  0
  188.0410  177.8540  147.9920 C   0  0  0  0  0  0  0  0  0  0  0  0
  187.7970  177.2650  141.2160 O   0  0  0  0  0  0  0  0  0  0  0  0
  188.2010  177.5750  145.9220 C   0  0  0  0  0  0  0  0  0  0  0  0
  186.0010  178.3000  145.1950 C   0  0  0  0  0  0  0  0  0  0  0  0
  191.6790  177.8810  143.0800 C   0  0  0  0  0  2  0  0  0  0  0  0
  186.3640  178.0250  143.8550 C   0  0  0  0  0  3  0  0  0  0  0  0
  191.4580  177.7920  145.4840 O   0  0  0  0  0  0  0  0  0  0  0  0
  187.6540  177.5210  143.6030 C   0  0  0  0  0  0  0  0  0  0  0  0
  186.9540  178.0600  146.2030 C   0  0  0  0  0  0  0  0  0  0  0  0
  184.6470  178.8310  145.5130 C   0  0  0  0  0  1  0  0  0  0  0  0
  191.4460  176.6560  141.0870 C   0  0  0  0  0  2  0  0  0  0  0  0
  191.4850  177.2840  139.6940 C   0  0  2  0  0  3  0  0  0  0  0  0
  190.1870  177.5990  139.2820 O   0  0  0  0  0  1  0  0  0  0  0  0
  191.4630  176.4490  137.3340 C   0  0  0  0  0  1  0  0  0  0  0  0
  193.5540  176.7550  138.5060 N   0  0  0  0  0  1  0  0  0  0  0  0
  192.1640  176.3660  138.6780 C   0  0  1  0  0  3  0  0  0  0  0  0
  1 10  1  0  0  0  0
  2  7  1  6  0  0  0
  2  8  1  0  0  0  0
  3 12  1  0  0  0  0
  4  2  1  0  0  0  0
  4 14  1  0  0  0  0
  5 16  2  0  0  0  0
  7 17  1  0  0  0  0
  8  5  1  0  0  0  0
  8  3  1  0  0  0  0
  9 10  1  0  0  0  0
 10  6  2  0  0  0  0
 11  7  2  0  0  0  0
 12 18  2  0  0  0  0
 12  9  1  0  0  0  0
 13 19  1  0  0  0  0
 13 18  1  0  0  0  0
 14  5  1  0  0  0  0
 15 13  2  0  0  0  0
 17 15  1  0  0  0  0
 17  3  2  0  0  0  0
 18  1  1  0  0  0  0
 20  4  1  0  0  0  0
 21 22  1  6  0  0  0
 21 20  1  0  0  0  0
 24 25  1  0  0  0  0
 25 23  1  6  0  0  0
 25 21  1  0  0  0  0
M  END
>  <MODEL>
6

>  <REMARK>
 VINA RESULT:      -8.2      3.247      4.988
  Name = 
  3 active torsions:
  status: ('A' for Active; 'I' for Inactive)
    1  A    between atoms: N_4  and  C_24
    2  A    between atoms: C_10  and  C_11
    3  A    between atoms: C_11  and  C_24
                            x       y       z     vdW  Elec       q    Type
                         _______ _______ _______ _____ _____    ______ ____

>  <TORSDO>
F 3

$$$$
=
 OpenBabel11042411453D

 25 28  0  0  1  0  0  0  0  0999 V2000
  189.6630  176.9190  148.1150 N   0  0  0  0  0  2  0  0  0  0  0  0
  189.5560  178.2190  142.3980 C   0  0  2  0  0  3  0  0  0  0  0  0
  189.5840  177.7080  144.6780 C   0  0  0  0  0  0  0  0  0  0  0  0
  188.7370  177.4830  141.4190 N   0  0  0  0  0  0  0  0  0  0  0  0
  187.4940  177.8770  143.3520 C   0  0  0  0  0  0  0  0  0  0  0  0
  187.7030  177.7890  148.9300 O   0  0  0  0  0  0  0  0  0  0  0  0
  190.7870  177.4410  142.7770 C   0  0  0  0  0  0  0  0  0  0  0  0
  188.7990  178.3060  143.6480 N   0  0  0  0  0  0  0  0  0  0  0  0
  188.2080  177.9990  146.7030 N   0  0  0  0  0  2  0  0  0  0  0  0
  188.4840  177.5790  147.9650 C   0  0  0  0  0  0  0  0  0  0  0  0
  191.7070  177.0980  141.9900 O   0  0  0  0  0  0  0  0  0  0  0  0
  189.2830  177.5680  146.0290 C   0  0  0  0  0  0  0  0  0  0  0  0
  191.3670  176.3810  146.4060 C   0  0  0  0  0  0  0  0  0  0  0  0
  187.3700  177.4360  141.9560 C   0  0  0  0  0  2  0  0  0  0  0  0
  191.6780  176.5090  145.0310 C   0  0  0  0  0  3  0  0  0  0  0  0
  186.5620  177.8440  144.1960 O   0  0  0  0  0  0  0  0  0  0  0  0
  190.7620  177.1820  144.2010 C   0  0  0  0  0  0  0  0  0  0  0  0
  190.1540  176.9260  146.8660 C   0  0  0  0  0  0  0  0  0  0  0  0
  192.3050  175.6820  147.3260 C   0  0  0  0  0  1  0  0  0  0  0  0
  188.6890  178.2910  140.2080 C   0  0  0  0  0  2  0  0  0  0  0  0
  189.1100  177.4780  138.9850 C   0  0  2  0  0  3  0  0  0  0  0  0
  190.5020  177.5060  138.8550 O   0  0  0  0  0  1  0  0  0  0  0  0
  186.9310  177.8760  137.8200 C   0  0  0  0  0  1  0  0  0  0  0  0
  188.7930  179.3790  137.4810 N   0  0  0  0  0  1  0  0  0  0  0  0
  188.4400  177.9870  137.7090 C   0  0  1  0  0  3  0  0  0  0  0  0
  2  7  1  1  0  0  0
  2  8  1  0  0  0  0
  3 12  1  0  0  0  0
  4 14  1  0  0  0  0
  4  2  1  0  0  0  0
  5  8  1  0  0  0  0
  5 16  2  0  0  0  0
  7 17  1  0  0  0  0
  8  3  1  0  0  0  0
  9 10  1  0  0  0  0
 10  1  1  0  0  0  0
 10  6  2  0  0  0  0
 11  7  2  0  0  0  0
 12  9  1  0  0  0  0
 12 18  2  0  0  0  0
 13 18  1  0  0  0  0
 13 19  1  0  0  0  0
 14  5  1  0  0  0  0
 15 13  2  0  0  0  0
 17  3  2  0  0  0  0
 17 15  1  0  0  0  0
 18  1  1  0  0  0  0
 20  4  1  0  0  0  0
 21 22  1  6  0  0  0
 21 20  1  0  0  0  0
 24 25  1  0  0  0  0
 25 23  1  1  0  0  0
 25 21  1  0  0  0  0
M  END
>  <MODEL>
7

>  <REMARK>
 VINA RESULT:      -8.1      2.611      4.188
  Name = 
  3 active torsions:
  status: ('A' for Active; 'I' for Inactive)
    1  A    between atoms: N_4  and  C_24
    2  A    between atoms: C_10  and  C_11
    3  A    between atoms: C_11  and  C_24
                            x       y       z     vdW  Elec       q    Type
                         _______ _______ _______ _____ _____    ______ ____

>  <TORSDO>
F 3

$$$$
=
 OpenBabel11042411453D

 25 28  0  0  1  0  0  0  0  0999 V2000
  183.3070  179.1330  142.5490 N   0  0  0  0  0  2  0  0  0  0  0  0
  187.8200  176.9680  145.6040 C   0  0  2  0  0  3  0  0  0  0  0  0
  186.0120  177.8300  144.4000 C   0  0  0  0  0  0  0  0  0  0  0  0
  188.6410  177.7830  146.5160 N   0  0  0  0  0  0  0  0  0  0  0  0
  186.3860  178.2990  146.8070 C   0  0  0  0  0  0  0  0  0  0  0  0
  181.6170  179.3150  144.0900 O   0  0  0  0  0  0  0  0  0  0  0  0
  188.1830  177.2230  144.1660 C   0  0  0  0  0  0  0  0  0  0  0  0
  186.4350  177.4310  145.7030 N   0  0  0  0  0  0  0  0  0  0  0  0
  183.6660  178.5100  144.7310 N   0  0  0  0  0  2  0  0  0  0  0  0
  182.8030  179.0020  143.8060 C   0  0  0  0  0  0  0  0  0  0  0  0
  189.3070  177.0050  143.6450 O   0  0  0  0  0  0  0  0  0  0  0  0
  184.7760  178.3270  144.0020 C   0  0  0  0  0  0  0  0  0  0  0  0
  185.5760  178.5950  141.7260 C   0  0  0  0  0  0  0  0  0  0  0  0
  187.7120  178.4880  147.4110 C   0  0  0  0  0  2  0  0  0  0  0  0
  186.8410  178.1010  142.1230 C   0  0  0  0  0  3  0  0  0  0  0  0
  185.3350  178.8680  147.2020 O   0  0  0  0  0  0  0  0  0  0  0  0
  187.0190  177.7260  143.4680 C   0  0  0  0  0  0  0  0  0  0  0  0
  184.5660  178.6940  142.7020 C   0  0  0  0  0  0  0  0  0  0  0  0
  185.3370  179.0010  140.3140 C   0  0  0  0  0  1  0  0  0  0  0  0
  189.4060  176.8590  147.3420 C   0  0  0  0  0  2  0  0  0  0  0  0
  190.9070  177.1150  147.2110 C   0  0  2  0  0  3  0  0  0  0  0  0
  191.2010  177.5450  145.9130 O   0  0  0  0  0  1  0  0  0  0  0  0
  192.3190  175.2530  146.3130 C   0  0  0  0  0  1  0  0  0  0  0  0
  192.8080  176.2320  148.4680 N   0  0  0  0  0  1  0  0  0  0  0  0
  191.7270  175.8740  147.5650 C   0  0  1  0  0  3  0  0  0  0  0  0
  1 18  1  0  0  0  0
  1 10  1  0  0  0  0
  2  7  1  6  0  0  0
  2  8  1  0  0  0  0
  2  4  1  0  0  0  0
  3  8  1  0  0  0  0
  4 20  1  0  0  0  0
  4 14  1  0  0  0  0
  5 16  2  0  0  0  0
  5 14  1  0  0  0  0
  8  5  1  0  0  0  0
 10  6  2  0  0  0  0
 10  9  1  0  0  0  0
 11  7  2  0  0  0  0
 12  3  1  0  0  0  0
 12  9  1  0  0  0  0
 13 15  2  0  0  0  0
 13 18  1  0  0  0  0
 15 17  1  0  0  0  0
 17  7  1  0  0  0  0
 17  3  2  0  0  0  0
 18 12  2  0  0  0  0
 19 13  1  0  0  0  0
 21 22  1  6  0  0  0
 21 20  1  0  0  0  0
 21 25  1  0  0  0  0
 25 23  1  6  0  0  0
 25 24  1  0  0  0  0
M  END
>  <MODEL>
8

>  <REMARK>
 VINA RESULT:      -8.0      2.256      7.507
  Name = 
  3 active torsions:
  status: ('A' for Active; 'I' for Inactive)
    1  A    between atoms: N_4  and  C_24
    2  A    between atoms: C_10  and  C_11
    3  A    between atoms: C_11  and  C_24
                            x       y       z     vdW  Elec       q    Type
                         _______ _______ _______ _____ _____    ______ ____

>  <TORSDO>
F 3

$$$$
=
 OpenBabel11042411453D

 25 28  0  0  1  0  0  0  0  0999 V2000
  182.8170  179.3710  140.5310 N   0  0  0  0  0  2  0  0  0  0  0  0
  188.4100  178.3450  141.9650 C   0  0  2  0  0  3  0  0  0  0  0  0
  186.1860  178.7590  141.3790 C   0  0  0  0  0  0  0  0  0  0  0  0
  189.1570  177.1630  141.5010 N   0  0  0  0  0  0  0  0  0  0  0  0
  187.9110  178.0510  139.7420 C   0  0  0  0  0  0  0  0  0  0  0  0
  182.9190  180.1410  138.3730 O   0  0  0  0  0  0  0  0  0  0  0  0
  187.4670  177.9920  143.0830 C   0  0  0  0  0  0  0  0  0  0  0  0
  187.5230  178.7750  140.8830 N   0  0  0  0  0  0  0  0  0  0  0  0
  184.8470  179.5660  139.4720 N   0  0  0  0  0  2  0  0  0  0  0  0
  183.4990  179.7140  139.4050 C   0  0  0  0  0  0  0  0  0  0  0  0
  187.8020  177.5350  144.2070 O   0  0  0  0  0  0  0  0  0  0  0  0
  185.0100  179.0980  140.7180 C   0  0  0  0  0  0  0  0  0  0  0  0
  183.7000  178.5170  142.6780 C   0  0  0  0  0  0  0  0  0  0  0  0
  188.9850  177.0950  140.0430 C   0  0  0  0  0  2  0  0  0  0  0  0
  184.8900  178.1600  143.3550 C   0  0  0  0  0  3  0  0  0  0  0  0
  187.3730  178.1860  138.6130 O   0  0  0  0  0  0  0  0  0  0  0  0
  186.1130  178.2970  142.6730 C   0  0  0  0  0  0  0  0  0  0  0  0
  183.8040  178.9830  141.3530 C   0  0  0  0  0  0  0  0  0  0  0  0
  182.3810  178.3930  143.3570 C   0  0  0  0  0  1  0  0  0  0  0  0
  190.5680  177.4260  141.7490 C   0  0  0  0  0  2  0  0  0  0  0  0
  191.1060  176.5390  142.8720 C   0  0  2  0  0  3  0  0  0  0  0  0
  190.3860  175.3420  142.9130 O   0  0  0  0  0  1  0  0  0  0  0  0
  191.7060  176.3910  145.2980 C   0  0  0  0  0  1  0  0  0  0  0  0
  191.7540  178.5180  144.1520 N   0  0  0  0  0  1  0  0  0  0  0  0
  191.0540  177.2460  144.2260 C   0  0  1  0  0  3  0  0  0  0  0  0
  1 18  1  0  0  0  0
  2  7  1  1  0  0  0
  3 17  1  0  0  0  0
  4 20  1  0  0  0  0
  4  2  1  0  0  0  0
  5 14  1  0  0  0  0
  5  8  1  0  0  0  0
  6 10  2  0  0  0  0
  7 11  2  0  0  0  0
  8  3  1  0  0  0  0
  8  2  1  0  0  0  0
  9 12  1  0  0  0  0
 10  9  1  0  0  0  0
 10  1  1  0  0  0  0
 12 18  1  0  0  0  0
 12  3  2  0  0  0  0
 13 15  1  0  0  0  0
 13 19  1  0  0  0  0
 14  4  1  0  0  0  0
 16  5  2  0  0  0  0
 17  7  1  0  0  0  0
 17 15  2  0  0  0  0
 18 13  2  0  0  0  0
 20 21  1  0  0  0  0
 21 22  1  1  0  0  0
 21 25  1  0  0  0  0
 24 25  1  0  0  0  0
 25 23  1  1  0  0  0
M  END
>  <MODEL>
9

>  <REMARK>
 VINA RESULT:      -7.9      2.589      6.784
  Name = 
  3 active torsions:
  status: ('A' for Active; 'I' for Inactive)
    1  A    between atoms: N_4  and  C_24
    2  A    between atoms: C_10  and  C_11
    3  A    between atoms: C_11  and  C_24
                            x       y       z     vdW  Elec       q    Type
                         _______ _______ _______ _____ _____    ______ ____

>  <TORSDO>
F 3

$$$$
