=
 OpenBabel11032420483D

 51 57  0  0  1  0  0  0  0  0999 V2000
  188.1930  178.3470  145.5500 N   0  0  0  0  0  0  0  0  0  0  0  0
  188.3920  177.3490  144.5320 N   0  0  2  0  0  0  0  0  0  0  0  0
  192.5460  178.5090  140.4940 O   0  0  0  0  0  0  0  0  0  0  0  0
  192.9640  176.6230  138.9980 O   0  0  0  0  0  0  0  0  0  0  0  0
  188.8650  175.9170  142.0710 C   0  0  0  0  0  1  0  0  0  0  0  0
  186.9520  177.7150  139.8000 C   0  0  0  0  0  2  0  0  0  0  0  0
  189.4470  177.8000  143.7280 N   0  0  0  0  0  2  0  0  0  0  0  0
  188.1900  177.9940  138.9580 C   0  0  2  0  0  3  0  0  0  0  0  0
  185.5700  180.2780  141.9640 F   0  0  0  0  0  0  0  0  0  0  0  0
  184.4200  178.4440  142.9780 C   0  0  0  0  0  2  0  0  0  0  0  0
  185.3660  178.9100  141.8800 C   0  0  1  0  0  3  0  0  0  0  0  0
  187.3500  178.3050  144.3830 C   0  0  1  0  0  3  0  0  0  0  0  0
  190.5050  177.7140  138.9290 C   0  0  2  0  0  3  0  0  0  0  0  0
  189.8960  176.6860  142.8970 C   0  0  2  0  0  0  0  0  0  0  0  0
  191.9410  177.2670  139.8950 S   0  0  0  0  0  0  0  0  0  0  0  0
  188.3440  176.7020  137.6880 S   0  0  0  0  0  0  0  0  0  0  0  0
  184.8190  178.5170  140.5030 C   0  0  2  0  0  3  0  0  0  0  0  0
  189.3750  177.9810  139.8030 N   0  0  0  0  0  2  0  0  0  0  0  0
  191.3130  176.8540  142.3810 C   0  0  1  0  0  3  0  0  0  0  0  0
  185.0330  178.6550  144.3540 C   0  0  0  0  0  2  0  0  0  0  0  0
  185.8600  178.6290  139.4610 N   0  0  0  0  0  0  0  0  0  0  0  0
  191.0070  175.8650  143.5030 C   0  0  0  0  0  2  0  0  0  0  0  0
  186.0580  177.6590  144.6040 N   0  0  0  0  0  2  0  0  0  0  0  0
  185.2930  178.1530  138.2000 C   0  0  0  0  0  1  0  0  0  0  0  0
  190.1330  176.6000  137.9710 C   0  0  1  0  0  3  0  0  0  0  0  0
  191.5070  176.1300  141.1330 N   0  0  0  0  0  2  0  0  0  0  0  0
  183.5960  179.3900  140.1830 C   0  0  0  0  0  2  0  0  0  0  0  0
  179.7960  175.5990  139.8440 C   0  0  0  0  0  1  0  0  0  0  0  0
  182.3570  178.5650  139.9610 C   0  0  0  0  0  0  0  0  0  0  0  0
  181.0420  179.0520  139.9240 C   0  0  0  0  0  0  0  0  0  0  0  0
  180.6140  176.8390  139.9150 C   0  0  0  0  0  0  0  0  0  0  0  0
  182.2910  176.8760  139.9940 S   0  0  0  0  0  0  0  0  0  0  0  0
  180.0850  178.0830  139.8800 N   0  0  0  0  0  0  0  0  0  0  0  0
  180.6820  180.4840  139.8560 C   0  0  0  0  0  0  0  0  0  0  0  0
  180.0740  181.0260  140.8170 O   0  0  0  0  0  0  0  0  0  0  0  0
  181.0920  181.2920  138.7510 N   0  0  0  0  0  2  0  0  0  0  0  0
  180.3040  182.2980  136.5660 C   0  0  0  0  0  2  0  0  0  0  0  0
  179.1750  181.4830  137.1860 C   0  0  0  0  0  2  0  0  0  0  0  0
  180.6110  181.0730  137.3910 C   0  0  0  0  0  0  0  0  0  0  0  0
  181.0510  179.8220  136.6540 C   0  0  0  0  0  1  0  0  0  0  0  0
  190.8800  176.7690  136.6610 C   0  0  0  0  0  2  0  0  0  0  0  0
  191.3520  174.4910  136.7100 C   0  0  0  0  0  1  0  0  0  0  0  0
  190.8030  175.5460  135.8820 N   0  0  0  0  0  2  0  0  0  0  0  0
  187.6420  177.6460  146.7080 C   0  0  0  0  0  2  0  0  0  0  0  0
  188.6760  177.5920  147.8240 C   0  0  1  0  0  3  0  0  0  0  0  0
  188.0370  177.5830  149.0620 O   0  0  0  0  0  1  0  0  0  0  0  0
  189.6120  176.3850  147.6840 C   0  0  0  0  0  2  0  0  0  0  0  0
  191.6020  177.6930  148.5250 O   0  0  0  0  0  1  0  0  0  0  0  0
  191.7610  176.7570  146.2560 C   0  0  0  0  0  2  0  0  0  0  0  0
  191.0860  176.7760  147.6080 C   0  0  0  0  0  0  0  0  0  0  0  0
  192.0390  175.6520  147.2700 C   0  0  0  0  0  2  0  0  0  0  0  0
  1 44  1  0  0  0  0
  2  7  1  6  0  0  0
  2  1  1  0  0  0  0
  4 15  2  0  0  0  0
  8  6  1  1  0  0  0
  8 18  1  0  0  0  0
 10 20  1  0  0  0  0
 11  9  1  6  0  0  0
 11 10  1  0  0  0  0
 12  2  1  0  0  0  0
 12 23  1  1  0  0  0
 12  1  1  0  0  0  0
 13 18  1  1  0  0  0
 13 15  1  0  0  0  0
 14  5  1  6  0  0  0
 14 22  1  0  0  0  0
 14  7  1  0  0  0  0
 15  3  2  0  0  0  0
 15 26  1  0  0  0  0
 16 25  1  0  0  0  0
 16  8  1  0  0  0  0
 17 27  1  6  0  0  0
 17 11  1  0  0  0  0
 19 14  1  0  0  0  0
 19 22  1  1  0  0  0
 20 23  1  0  0  0  0
 21  6  1  0  0  0  0
 21 17  1  0  0  0  0
 24 21  1  0  0  0  0
 25 41  1  6  0  0  0
 25 13  1  0  0  0  0
 26 19  1  0  0  0  0
 28 31  1  0  0  0  0
 29 32  1  0  0  0  0
 29 27  1  0  0  0  0
 30 29  2  0  0  0  0
 31 32  1  0  0  0  0
 33 31  2  0  0  0  0
 33 30  1  0  0  0  0
 34 30  1  0  0  0  0
 34 35  2  0  0  0  0
 36 34  1  0  0  0  0
 37 38  1  0  0  0  0
 37 39  1  0  0  0  0
 38 39  1  0  0  0  0
 39 36  1  0  0  0  0
 40 39  1  0  0  0  0
 43 41  1  0  0  0  0
 43 42  1  0  0  0  0
 44 45  1  0  0  0  0
 45 46  1  1  0  0  0
 47 45  1  0  0  0  0
 49 51  1  0  0  0  0
 49 50  1  0  0  0  0
 50 47  1  0  0  0  0
 50 48  1  0  0  0  0
 51 50  1  0  0  0  0
M  END
>  <MODEL>
1

>  <REMARK>
 VINA RESULT:      -6.5      0.000      0.000
  Name = 
  10 active torsions:
  status: ('A' for Active; 'I' for Inactive)
    1  A    between atoms: N_1  and  C_37
    2  A    between atoms: C_9  and  C_17
    3  A    between atoms: C_9  and  C_37
    4  A    between atoms: C_11  and  C_35
    5  A    between atoms: C_17  and  C_28
    6  A    between atoms: C_25  and  C_31
    7  A    between atoms: C_31  and  C_34
    8  A    between atoms: C_32  and  N_38
    9  A    between atoms: C_32  and  C_49
   10  A    between atoms: N_33  and  C_36
                            x       y       z     vdW  Elec       q    Type
                         _______ _______ _______ _____ _____    ______ ____

>  <TORSDO>
F 10

$$$$
=
 OpenBabel11032420483D

 51 57  0  0  1  0  0  0  0  0999 V2000
  187.7160  176.6360  136.9760 N   0  0  0  0  0  0  0  0  0  0  0  0
  188.1100  177.5070  138.0530 N   0  0  2  0  0  0  0  0  0  0  0  0
  190.1200  174.8820  142.9490 O   0  0  0  0  0  0  0  0  0  0  0  0
  191.0030  176.4710  144.5800 O   0  0  0  0  0  0  0  0  0  0  0  0
  188.5940  178.7500  140.6120 C   0  0  0  0  0  1  0  0  0  0  0  0
  185.5780  178.2410  142.2540 C   0  0  0  0  0  2  0  0  0  0  0  0
  188.6010  176.6830  139.0750 N   0  0  0  0  0  2  0  0  0  0  0  0
  186.2960  177.4880  143.3660 C   0  0  2  0  0  3  0  0  0  0  0  0
  183.7190  176.4490  139.7060 F   0  0  0  0  0  0  0  0  0  0  0  0
  183.8500  178.5170  138.5160 C   0  0  0  0  0  2  0  0  0  0  0  0
  184.1690  177.7550  139.7940 C   0  0  1  0  0  3  0  0  0  0  0  0
  186.7400  177.1610  137.8950 C   0  0  1  0  0  3  0  0  0  0  0  0
  188.3870  176.6600  143.9860 C   0  0  2  0  0  3  0  0  0  0  0  0
  189.3060  177.5250  140.0390 C   0  0  2  0  0  0  0  0  0  0  0  0
  190.0480  176.3070  143.4300 S   0  0  0  0  0  0  0  0  0  0  0  0
  186.7300  178.6590  144.6880 S   0  0  0  0  0  0  0  0  0  0  0  0
  183.5590  178.4690  141.0060 C   0  0  2  0  0  3  0  0  0  0  0  0
  187.5110  176.8790  142.8460 N   0  0  0  0  0  2  0  0  0  0  0  0
  190.3070  176.7590  140.8850 C   0  0  1  0  0  3  0  0  0  0  0  0
  184.6010  177.9320  137.3290 C   0  0  0  0  0  2  0  0  0  0  0  0
  184.1390  177.9710  142.2690 N   0  0  0  0  0  0  0  0  0  0  0  0
  190.7820  177.6820  139.7650 C   0  0  0  0  0  2  0  0  0  0  0  0
  186.0000  178.3140  137.3860 N   0  0  0  0  0  2  0  0  0  0  0  0
  183.5790  178.7590  143.3670 C   0  0  0  0  0  1  0  0  0  0  0  0
  188.3640  177.8930  144.8650 C   0  0  1  0  0  3  0  0  0  0  0  0
  190.5120  177.4090  142.1710 N   0  0  0  0  0  2  0  0  0  0  0  0
  182.0330  178.2950  140.9730 C   0  0  0  0  0  2  0  0  0  0  0  0
  180.7330  182.0650  137.3640 C   0  0  0  0  0  1  0  0  0  0  0  0
  181.3830  179.2060  139.9650 C   0  0  0  0  0  0  0  0  0  0  0  0
  180.3230  178.8630  139.1140 C   0  0  0  0  0  0  0  0  0  0  0  0
  180.8550  180.8750  138.2460 C   0  0  0  0  0  0  0  0  0  0  0  0
  181.9860  180.7070  139.4770 S   0  0  0  0  0  0  0  0  0  0  0  0
  180.0280  179.8070  138.1760 N   0  0  0  0  0  0  0  0  0  0  0  0
  179.5150  177.6320  139.2380 C   0  0  0  0  0  0  0  0  0  0  0  0
  178.9370  177.3650  140.3250 O   0  0  0  0  0  0  0  0  0  0  0  0
  179.3040  176.7770  138.1120 N   0  0  0  0  0  2  0  0  0  0  0  0
  181.0940  176.7280  136.3230 C   0  0  0  0  0  2  0  0  0  0  0  0
  180.0730  175.6290  136.0500 C   0  0  0  0  0  2  0  0  0  0  0  0
  180.3860  176.0420  137.4650 C   0  0  0  0  0  0  0  0  0  0  0  0
  181.1800  175.0420  138.2840 C   0  0  0  0  0  1  0  0  0  0  0  0
  188.6040  177.5040  146.3130 C   0  0  0  0  0  2  0  0  0  0  0  0
  187.9320  177.7430  148.5280 C   0  0  0  0  0  1  0  0  0  0  0  0
  187.5980  178.1110  147.1660 N   0  0  0  0  0  2  0  0  0  0  0  0
  187.8560  177.4150  135.7480 C   0  0  0  0  0  2  0  0  0  0  0  0
  188.8620  176.7470  134.8190 C   0  0  1  0  0  3  0  0  0  0  0  0
  189.9850  177.5570  134.6760 O   0  0  0  0  0  1  0  0  0  0  0  0
  189.2550  175.3470  135.3070 C   0  0  0  0  0  2  0  0  0  0  0  0
  191.6630  174.9420  134.6660 O   0  0  0  0  0  1  0  0  0  0  0  0
  191.0980  174.7500  137.0510 C   0  0  0  0  0  2  0  0  0  0  0  0
  190.7340  175.2320  135.6660 C   0  0  0  0  0  0  0  0  0  0  0  0
  191.2330  176.2260  136.6900 C   0  0  0  0  0  2  0  0  0  0  0  0
  1 12  1  0  0  0  0
  1  2  1  0  0  0  0
  2  7  1  1  0  0  0
  3 15  2  0  0  0  0
  6 21  1  0  0  0  0
  7 14  1  0  0  0  0
  8  6  1  6  0  0  0
  8 16  1  0  0  0  0
 10 11  1  0  0  0  0
 11  9  1  6  0  0  0
 11 17  1  0  0  0  0
 12 23  1  6  0  0  0
 12  2  1  0  0  0  0
 13 18  1  6  0  0  0
 13 25  1  0  0  0  0
 14  5  1  1  0  0  0
 14 19  1  0  0  0  0
 15 13  1  0  0  0  0
 15  4  2  0  0  0  0
 16 25  1  0  0  0  0
 17 27  1  1  0  0  0
 17 21  1  0  0  0  0
 18  8  1  0  0  0  0
 19 22  1  6  0  0  0
 19 26  1  0  0  0  0
 20 23  1  0  0  0  0
 20 10  1  0  0  0  0
 21 24  1  0  0  0  0
 22 14  1  0  0  0  0
 25 41  1  1  0  0  0
 26 15  1  0  0  0  0
 28 31  1  0  0  0  0
 29 27  1  0  0  0  0
 30 34  1  0  0  0  0
 30 29  2  0  0  0  0
 31 32  1  0  0  0  0
 32 29  1  0  0  0  0
 33 31  2  0  0  0  0
 33 30  1  0  0  0  0
 34 35  2  0  0  0  0
 36 34  1  0  0  0  0
 37 39  1  0  0  0  0
 38 37  1  0  0  0  0
 38 39  1  0  0  0  0
 39 36  1  0  0  0  0
 39 40  1  0  0  0  0
 41 43  1  0  0  0  0
 43 42  1  0  0  0  0
 44  1  1  0  0  0  0
 45 46  1  1  0  0  0
 45 47  1  0  0  0  0
 45 44  1  0  0  0  0
 47 50  1  0  0  0  0
 48 50  1  0  0  0  0
 50 51  1  0  0  0  0
 50 49  1  0  0  0  0
 51 49  1  0  0  0  0
M  END
>  <MODEL>
2

>  <REMARK>
 VINA RESULT:      -6.0      2.665      7.083
  Name = 
  10 active torsions:
  status: ('A' for Active; 'I' for Inactive)
    1  A    between atoms: N_1  and  C_37
    2  A    between atoms: C_9  and  C_17
    3  A    between atoms: C_9  and  C_37
    4  A    between atoms: C_11  and  C_35
    5  A    between atoms: C_17  and  C_28
    6  A    between atoms: C_25  and  C_31
    7  A    between atoms: C_31  and  C_34
    8  A    between atoms: C_32  and  N_38
    9  A    between atoms: C_32  and  C_49
   10  A    between atoms: N_33  and  C_36
                            x       y       z     vdW  Elec       q    Type
                         _______ _______ _______ _____ _____    ______ ____

>  <TORSDO>
F 10

$$$$
=
 OpenBabel11032420483D

 51 57  0  0  1  0  0  0  0  0999 V2000
  185.4090  178.0540  142.8090 N   0  0  0  0  0  0  0  0  0  0  0  0
  184.6840  178.6600  141.7220 N   0  0  2  0  0  0  0  0  0  0  0  0
  180.6220  175.2880  139.0690 O   0  0  0  0  0  0  0  0  0  0  0  0
  179.2890  176.5230  137.4360 O   0  0  0  0  0  0  0  0  0  0  0  0
  183.3020  179.2310  139.2540 C   0  0  0  0  0  1  0  0  0  0  0  0
  185.3220  177.6630  136.9060 C   0  0  0  0  0  2  0  0  0  0  0  0
  183.7480  177.7120  141.2860 N   0  0  0  0  0  2  0  0  0  0  0  0
  184.1480  176.8060  136.4490 C   0  0  2  0  0  3  0  0  0  0  0  0
  187.9000  176.2810  139.0510 F   0  0  0  0  0  0  0  0  0  0  0  0
  188.4490  178.5740  139.4410 C   0  0  0  0  0  2  0  0  0  0  0  0
  187.5680  177.5790  138.6990 C   0  0  1  0  0  3  0  0  0  0  0  0
  185.9630  178.0870  141.4800 C   0  0  1  0  0  3  0  0  0  0  0  0
  181.9250  176.3050  136.9440 C   0  0  2  0  0  3  0  0  0  0  0  0
  182.7850  178.3890  140.4200 C   0  0  2  0  0  0  0  0  0  0  0  0
  180.6140  176.4790  138.1460 S   0  0  0  0  0  0  0  0  0  0  0  0
  183.3130  177.6360  135.0640 S   0  0  0  0  0  0  0  0  0  0  0  0
  187.6860  177.7880  137.1850 C   0  0  2  0  0  3  0  0  0  0  0  0
  183.2060  176.6350  137.5460 N   0  0  0  0  0  2  0  0  0  0  0  0
  181.4630  177.6530  140.3020 C   0  0  1  0  0  3  0  0  0  0  0  0
  188.2030  178.5100  140.9410 C   0  0  0  0  0  2  0  0  0  0  0  0
  186.5980  177.1000  136.4630 N   0  0  0  0  0  0  0  0  0  0  0  0
  181.5720  178.9260  141.1400 C   0  0  0  0  0  2  0  0  0  0  0  0
  186.9430  179.1500  141.2690 N   0  0  0  0  0  2  0  0  0  0  0  0
  186.7240  177.4190  135.0410 C   0  0  0  0  0  1  0  0  0  0  0  0
  181.6910  177.2170  135.7570 C   0  0  1  0  0  3  0  0  0  0  0  0
  180.8040  177.9560  139.0390 N   0  0  0  0  0  2  0  0  0  0  0  0
  189.0700  177.3090  136.7210 C   0  0  0  0  0  2  0  0  0  0  0  0
  188.8630  171.9700  136.1000 C   0  0  0  0  0  1  0  0  0  0  0  0
  189.2060  175.8110  136.8020 C   0  0  0  0  0  0  0  0  0  0  0  0
  190.2970  175.1150  137.3410 C   0  0  0  0  0  0  0  0  0  0  0  0
  189.1720  173.3870  136.4290 C   0  0  0  0  0  0  0  0  0  0  0  0
  188.2070  174.6980  136.0160 S   0  0  0  0  0  0  0  0  0  0  0  0
  190.2560  173.7670  137.1420 N   0  0  0  0  0  0  0  0  0  0  0  0
  191.3800  175.7370  138.1310 C   0  0  0  0  0  0  0  0  0  0  0  0
  191.1350  176.7380  138.8560 O   0  0  0  0  0  0  0  0  0  0  0  0
  192.6910  175.1670  138.1560 N   0  0  0  0  0  2  0  0  0  0  0  0
  193.8600  173.7300  136.4330 C   0  0  0  0  0  2  0  0  0  0  0  0
  194.8990  174.4960  137.2430 C   0  0  0  0  0  2  0  0  0  0  0  0
  193.5450  175.1010  136.9750 C   0  0  0  0  0  0  0  0  0  0  0  0
  193.5220  176.2570  135.9920 C   0  0  0  0  0  1  0  0  0  0  0  0
  180.8450  176.5080  134.7150 C   0  0  0  0  0  2  0  0  0  0  0  0
  179.9080  174.3810  134.5960 C   0  0  0  0  0  1  0  0  0  0  0  0
  181.1680  175.0930  134.6890 N   0  0  0  0  0  2  0  0  0  0  0  0
  185.8530  179.1490  143.6660 C   0  0  0  0  0  2  0  0  0  0  0  0
  186.3660  178.5990  144.9910 C   0  0  1  0  0  3  0  0  0  0  0  0
  185.4060  178.7790  145.9830 O   0  0  0  0  0  1  0  0  0  0  0  0
  186.7720  177.1240  144.8830 C   0  0  0  0  0  2  0  0  0  0  0  0
  188.6240  176.1120  143.4970 O   0  0  0  0  0  1  0  0  0  0  0  0
  189.2450  177.0090  145.7020 C   0  0  0  0  0  2  0  0  0  0  0  0
  188.2520  176.9320  144.5640 C   0  0  0  0  0  0  0  0  0  0  0  0
  189.1140  178.1650  144.7130 C   0  0  0  0  0  2  0  0  0  0  0  0
  1 44  1  0  0  0  0
  2  7  1  6  0  0  0
  2  1  1  0  0  0  0
  4 15  2  0  0  0  0
  8  6  1  1  0  0  0
  8 18  1  0  0  0  0
 10 20  1  0  0  0  0
 11  9  1  6  0  0  0
 11 10  1  0  0  0  0
 12 23  1  1  0  0  0
 12  2  1  0  0  0  0
 12  1  1  0  0  0  0
 13 18  1  1  0  0  0
 13 15  1  0  0  0  0
 14  5  1  6  0  0  0
 14 22  1  0  0  0  0
 14  7  1  0  0  0  0
 15 26  1  0  0  0  0
 15  3  2  0  0  0  0
 16 25  1  0  0  0  0
 16  8  1  0  0  0  0
 17 27  1  6  0  0  0
 17 11  1  0  0  0  0
 19 14  1  0  0  0  0
 19 22  1  1  0  0  0
 20 23  1  0  0  0  0
 21  6  1  0  0  0  0
 21 17  1  0  0  0  0
 24 21  1  0  0  0  0
 25 41  1  6  0  0  0
 25 13  1  0  0  0  0
 26 19  1  0  0  0  0
 27 29  1  0  0  0  0
 28 31  1  0  0  0  0
 29 30  2  0  0  0  0
 30 34  1  0  0  0  0
 31 33  2  0  0  0  0
 32 31  1  0  0  0  0
 32 29  1  0  0  0  0
 33 30  1  0  0  0  0
 34 36  1  0  0  0  0
 34 35  2  0  0  0  0
 37 39  1  0  0  0  0
 37 38  1  0  0  0  0
 39 38  1  0  0  0  0
 39 36  1  0  0  0  0
 40 39  1  0  0  0  0
 42 43  1  0  0  0  0
 43 41  1  0  0  0  0
 44 45  1  0  0  0  0
 45 46  1  1  0  0  0
 47 45  1  0  0  0  0
 48 50  1  0  0  0  0
 50 51  1  0  0  0  0
 50 47  1  0  0  0  0
 50 49  1  0  0  0  0
 51 49  1  0  0  0  0
M  END
>  <MODEL>
3

>  <REMARK>
 VINA RESULT:      -5.9      3.021      8.743
  Name = 
  10 active torsions:
  status: ('A' for Active; 'I' for Inactive)
    1  A    between atoms: N_1  and  C_37
    2  A    between atoms: C_9  and  C_17
    3  A    between atoms: C_9  and  C_37
    4  A    between atoms: C_11  and  C_35
    5  A    between atoms: C_17  and  C_28
    6  A    between atoms: C_25  and  C_31
    7  A    between atoms: C_31  and  C_34
    8  A    between atoms: C_32  and  N_38
    9  A    between atoms: C_32  and  C_49
   10  A    between atoms: N_33  and  C_36
                            x       y       z     vdW  Elec       q    Type
                         _______ _______ _______ _____ _____    ______ ____

>  <TORSDO>
F 10

$$$$
=
 OpenBabel11032420483D

 51 57  0  0  1  0  0  0  0  0999 V2000
  188.4880  178.3850  145.4600 N   0  0  0  0  0  0  0  0  0  0  0  0
  188.6550  177.3810  144.4410 N   0  0  2  0  0  0  0  0  0  0  0  0
  192.7210  178.4930  140.3020 O   0  0  0  0  0  0  0  0  0  0  0  0
  193.0900  176.5970  138.8050 O   0  0  0  0  0  0  0  0  0  0  0  0
  189.0590  175.9360  141.9770 C   0  0  0  0  0  1  0  0  0  0  0  0
  187.1070  177.7390  139.7430 C   0  0  0  0  0  2  0  0  0  0  0  0
  189.6950  177.8210  143.6110 N   0  0  0  0  0  2  0  0  0  0  0  0
  188.3270  178.0050  138.8710 C   0  0  2  0  0  3  0  0  0  0  0  0
  185.7960  180.3210  141.9290 F   0  0  0  0  0  0  0  0  0  0  0  0
  184.6570  178.5010  142.9770 C   0  0  0  0  0  2  0  0  0  0  0  0
  185.5800  178.9550  141.8550 C   0  0  1  0  0  3  0  0  0  0  0  0
  187.6170  178.3450  144.3140 C   0  0  1  0  0  3  0  0  0  0  0  0
  190.6390  177.7070  138.7890 C   0  0  2  0  0  3  0  0  0  0  0  0
  190.1150  176.7000  142.7750 C   0  0  2  0  0  0  0  0  0  0  0  0
  192.0930  177.2530  139.7230 S   0  0  0  0  0  0  0  0  0  0  0  0
  188.4410  176.7070  137.6040 S   0  0  0  0  0  0  0  0  0  0  0  0
  184.9980  178.5610  140.4930 C   0  0  2  0  0  3  0  0  0  0  0  0
  189.5320  177.9860  139.6880 N   0  0  0  0  0  2  0  0  0  0  0  0
  191.5210  176.8550  142.2250 C   0  0  1  0  0  3  0  0  0  0  0  0
  185.3030  178.7130  144.3370 C   0  0  0  0  0  2  0  0  0  0  0  0
  186.0140  178.6600  139.4270 N   0  0  0  0  0  0  0  0  0  0  0  0
  191.2340  175.8730  143.3590 C   0  0  0  0  0  2  0  0  0  0  0  0
  186.3260  177.7090  144.5670 N   0  0  0  0  0  2  0  0  0  0  0  0
  185.4140  178.1830  138.1810 C   0  0  0  0  0  1  0  0  0  0  0  0
  190.2350  176.5920  137.8460 C   0  0  1  0  0  3  0  0  0  0  0  0
  191.6800  176.1240  140.9760 N   0  0  0  0  0  2  0  0  0  0  0  0
  183.7740  179.4420  140.1980 C   0  0  0  0  0  2  0  0  0  0  0  0
  179.1330  177.1560  141.6690 C   0  0  0  0  0  1  0  0  0  0  0  0
  182.4840  178.6740  140.3160 C   0  0  0  0  0  0  0  0  0  0  0  0
  181.6450  178.3110  139.2530 C   0  0  0  0  0  0  0  0  0  0  0  0
  180.3200  177.7300  140.9810 C   0  0  0  0  0  0  0  0  0  0  0  0
  181.6710  178.3510  141.7620 S   0  0  0  0  0  0  0  0  0  0  0  0
  180.4540  177.7710  139.6370 N   0  0  0  0  0  0  0  0  0  0  0  0
  182.0120  178.4150  137.8250 C   0  0  0  0  0  0  0  0  0  0  0  0
  181.9670  179.5310  137.2430 O   0  0  0  0  0  0  0  0  0  0  0  0
  182.5030  177.2780  137.1090 N   0  0  0  0  0  2  0  0  0  0  0  0
  181.3940  175.7700  135.4060 C   0  0  0  0  0  2  0  0  0  0  0  0
  180.3280  176.4140  136.2840 C   0  0  0  0  0  2  0  0  0  0  0  0
  181.6880  176.0960  136.8490 C   0  0  0  0  0  0  0  0  0  0  0  0
  181.7410  174.9430  137.8340 C   0  0  0  0  0  1  0  0  0  0  0  0
  190.9530  176.7490  136.5170 C   0  0  0  0  0  2  0  0  0  0  0  0
  191.3810  174.4640  136.6190 C   0  0  0  0  0  1  0  0  0  0  0  0
  190.8740  175.5140  135.7580 N   0  0  0  0  0  2  0  0  0  0  0  0
  187.9590  177.6940  146.6330 C   0  0  0  0  0  2  0  0  0  0  0  0
  189.0330  177.5970  147.7090 C   0  0  1  0  0  3  0  0  0  0  0  0
  188.4540  177.7270  148.9690 O   0  0  0  0  0  1  0  0  0  0  0  0
  189.8340  176.2930  147.6070 C   0  0  0  0  0  2  0  0  0  0  0  0
  191.5700  177.6500  146.3730 O   0  0  0  0  0  1  0  0  0  0  0  0
  192.0980  175.2860  146.7960 C   0  0  0  0  0  2  0  0  0  0  0  0
  191.2620  176.5050  147.1090 C   0  0  0  0  0  0  0  0  0  0  0  0
  192.3520  176.0880  148.0690 C   0  0  0  0  0  2  0  0  0  0  0  0
  1 44  1  0  0  0  0
  2  7  1  6  0  0  0
  2  1  1  0  0  0  0
  4 15  2  0  0  0  0
  8 18  1  0  0  0  0
  8  6  1  1  0  0  0
 10 20  1  0  0  0  0
 11  9  1  6  0  0  0
 11 10  1  0  0  0  0
 12  2  1  0  0  0  0
 12 23  1  1  0  0  0
 12  1  1  0  0  0  0
 13 18  1  1  0  0  0
 13 15  1  0  0  0  0
 14  5  1  6  0  0  0
 14 22  1  0  0  0  0
 14  7  1  0  0  0  0
 15  3  2  0  0  0  0
 15 26  1  0  0  0  0
 16 25  1  0  0  0  0
 16  8  1  0  0  0  0
 17 27  1  6  0  0  0
 17 11  1  0  0  0  0
 19 14  1  0  0  0  0
 19 22  1  1  0  0  0
 20 23  1  0  0  0  0
 21  6  1  0  0  0  0
 21 17  1  0  0  0  0
 24 21  1  0  0  0  0
 25 41  1  6  0  0  0
 25 13  1  0  0  0  0
 26 19  1  0  0  0  0
 27 29  1  0  0  0  0
 29 32  1  0  0  0  0
 30 33  1  0  0  0  0
 30 29  2  0  0  0  0
 31 28  1  0  0  0  0
 31 32  1  0  0  0  0
 33 31  2  0  0  0  0
 34 30  1  0  0  0  0
 35 34  2  0  0  0  0
 36 34  1  0  0  0  0
 37 38  1  0  0  0  0
 37 39  1  0  0  0  0
 38 39  1  0  0  0  0
 39 36  1  0  0  0  0
 39 40  1  0  0  0  0
 43 41  1  0  0  0  0
 43 42  1  0  0  0  0
 44 45  1  0  0  0  0
 45 46  1  1  0  0  0
 47 45  1  0  0  0  0
 48 50  1  0  0  0  0
 49 50  1  0  0  0  0
 49 51  1  0  0  0  0
 50 47  1  0  0  0  0
 50 51  1  0  0  0  0
M  END
>  <MODEL>
4

>  <REMARK>
 VINA RESULT:      -5.4      1.489      1.983
  Name = 
  10 active torsions:
  status: ('A' for Active; 'I' for Inactive)
    1  A    between atoms: N_1  and  C_37
    2  A    between atoms: C_9  and  C_17
    3  A    between atoms: C_9  and  C_37
    4  A    between atoms: C_11  and  C_35
    5  A    between atoms: C_17  and  C_28
    6  A    between atoms: C_25  and  C_31
    7  A    between atoms: C_31  and  C_34
    8  A    between atoms: C_32  and  N_38
    9  A    between atoms: C_32  and  C_49
   10  A    between atoms: N_33  and  C_36
                            x       y       z     vdW  Elec       q    Type
                         _______ _______ _______ _____ _____    ______ ____

>  <TORSDO>
F 10

$$$$
=
 OpenBabel11032420483D

 51 57  0  0  1  0  0  0  0  0999 V2000
  183.7040  179.9080  138.8730 N   0  0  0  0  0  0  0  0  0  0  0  0
  183.8510  178.8700  139.8610 N   0  0  2  0  0  0  0  0  0  0  0  0
  185.3050  180.6180  145.3130 O   0  0  0  0  0  0  0  0  0  0  0  0
  185.2520  178.7940  146.9370 O   0  0  0  0  0  0  0  0  0  0  0  0
  184.6900  177.1910  142.0520 C   0  0  0  0  0  1  0  0  0  0  0  0
  188.1460  177.2340  141.7240 C   0  0  0  0  0  2  0  0  0  0  0  0
  184.1370  179.5090  141.0750 N   0  0  0  0  0  2  0  0  0  0  0  0
  188.2860  177.7980  143.1330 C   0  0  2  0  0  3  0  0  0  0  0  0
  188.5190  179.3830  138.8250 F   0  0  0  0  0  0  0  0  0  0  0  0
  187.4490  177.5860  137.6710 C   0  0  0  0  0  2  0  0  0  0  0  0
  188.0080  178.1070  138.9870 C   0  0  1  0  0  3  0  0  0  0  0  0
  184.9360  179.1720  138.9930 C   0  0  1  0  0  3  0  0  0  0  0  0
  187.0380  178.5950  144.9350 C   0  0  2  0  0  3  0  0  0  0  0  0
  183.9700  178.5350  142.1520 C   0  0  2  0  0  0  0  0  0  0  0  0
  185.4210  179.1260  145.4790 S   0  0  0  0  0  0  0  0  0  0  0  0
  188.4910  176.4210  144.3020 S   0  0  0  0  0  0  0  0  0  0  0  0
  189.0740  177.1490  139.5300 C   0  0  2  0  0  3  0  0  0  0  0  0
  187.0910  178.5520  143.4830 N   0  0  0  0  0  2  0  0  0  0  0  0
  183.7320  179.1750  143.5070 C   0  0  1  0  0  3  0  0  0  0  0  0
  186.2610  178.4190  137.2130 C   0  0  0  0  0  2  0  0  0  0  0  0
  189.3730  177.4270  140.9490 N   0  0  0  0  0  0  0  0  0  0  0  0
  182.5860  178.5040  142.7530 C   0  0  0  0  0  2  0  0  0  0  0  0
  185.0900  178.1020  138.0110 N   0  0  0  0  0  2  0  0  0  0  0  0
  190.3250  176.4200  141.4180 C   0  0  0  0  0  1  0  0  0  0  0  0
  187.3630  177.2180  145.4780 C   0  0  1  0  0  3  0  0  0  0  0  0
  184.1810  178.3040  144.5840 N   0  0  0  0  0  2  0  0  0  0  0  0
  190.3320  177.2520  138.6530 C   0  0  0  0  0  2  0  0  0  0  0  0
  190.3480  172.7520  135.7050 C   0  0  0  0  0  1  0  0  0  0  0  0
  190.6330  175.9580  137.9440 C   0  0  0  0  0  0  0  0  0  0  0  0
  191.9070  175.5000  137.5770 C   0  0  0  0  0  0  0  0  0  0  0  0
  190.6450  173.9680  136.5100 C   0  0  0  0  0  0  0  0  0  0  0  0
  189.4840  174.9550  137.2160 S   0  0  0  0  0  0  0  0  0  0  0  0
  191.8990  174.3840  136.7960 N   0  0  0  0  0  0  0  0  0  0  0  0
  193.1760  176.1000  138.0400 C   0  0  0  0  0  0  0  0  0  0  0  0
  193.1590  177.0500  138.8670 O   0  0  0  0  0  0  0  0  0  0  0  0
  194.4350  175.5590  137.6300 N   0  0  0  0  0  2  0  0  0  0  0  0
  195.1080  174.2500  135.5720 C   0  0  0  0  0  2  0  0  0  0  0  0
  196.2960  175.0710  136.0620 C   0  0  0  0  0  2  0  0  0  0  0  0
  194.8900  175.5820  136.2440 C   0  0  0  0  0  0  0  0  0  0  0  0
  194.4960  176.7560  135.3670 C   0  0  0  0  0  1  0  0  0  0  0  0
  188.0260  177.3380  146.8380 C   0  0  0  0  0  2  0  0  0  0  0  0
  190.2570  176.9340  147.3650 C   0  0  0  0  0  1  0  0  0  0  0  0
  189.3720  177.8650  146.6930 N   0  0  0  0  0  2  0  0  0  0  0  0
  182.7940  179.3820  137.8590 C   0  0  0  0  0  2  0  0  0  0  0  0
  181.5410  180.2450  137.7860 C   0  0  1  0  0  3  0  0  0  0  0  0
  180.4920  179.6140  138.4490 O   0  0  0  0  0  1  0  0  0  0  0  0
  181.7760  181.6520  138.3500 C   0  0  0  0  0  2  0  0  0  0  0  0
  179.6090  182.9370  138.5050 O   0  0  0  0  0  1  0  0  0  0  0  0
  180.7260  182.8970  136.3140 C   0  0  0  0  0  2  0  0  0  0  0  0
  180.7930  182.6860  137.8090 C   0  0  0  0  0  0  0  0  0  0  0  0
  181.4180  183.9240  137.2070 C   0  0  0  0  0  2  0  0  0  0  0  0
  1 12  1  0  0  0  0
  1  2  1  0  0  0  0
  2  7  1  1  0  0  0
  3 15  2  0  0  0  0
  7 14  1  0  0  0  0
  8  6  1  6  0  0  0
  8 18  1  0  0  0  0
  8 16  1  0  0  0  0
 10 11  1  0  0  0  0
 11  9  1  6  0  0  0
 11 17  1  0  0  0  0
 12 23  1  6  0  0  0
 12  2  1  0  0  0  0
 13 18  1  6  0  0  0
 13 25  1  0  0  0  0
 13 15  1  0  0  0  0
 14  5  1  6  0  0  0
 14 22  1  0  0  0  0
 14 19  1  0  0  0  0
 15  4  2  0  0  0  0
 16 25  1  0  0  0  0
 17 27  1  6  0  0  0
 17 21  1  0  0  0  0
 19 22  1  1  0  0  0
 19 26  1  0  0  0  0
 20 10  1  0  0  0  0
 20 23  1  0  0  0  0
 21 24  1  0  0  0  0
 21  6  1  0  0  0  0
 25 41  1  1  0  0  0
 26 15  1  0  0  0  0
 28 31  1  0  0  0  0
 29 27  1  0  0  0  0
 30 29  2  0  0  0  0
 30 34  1  0  0  0  0
 31 33  2  0  0  0  0
 31 32  1  0  0  0  0
 32 29  1  0  0  0  0
 33 30  1  0  0  0  0
 34 35  2  0  0  0  0
 36 34  1  0  0  0  0
 37 38  1  0  0  0  0
 37 39  1  0  0  0  0
 38 39  1  0  0  0  0
 39 36  1  0  0  0  0
 40 39  1  0  0  0  0
 43 41  1  0  0  0  0
 43 42  1  0  0  0  0
 44  1  1  0  0  0  0
 45 44  1  0  0  0  0
 45 47  1  0  0  0  0
 45 46  1  1  0  0  0
 49 51  1  0  0  0  0
 49 50  1  0  0  0  0
 50 47  1  0  0  0  0
 50 48  1  0  0  0  0
 51 50  1  0  0  0  0
M  END
>  <MODEL>
5

>  <REMARK>
 VINA RESULT:      -5.2      2.591     10.466
  Name = 
  10 active torsions:
  status: ('A' for Active; 'I' for Inactive)
    1  A    between atoms: N_1  and  C_37
    2  A    between atoms: C_9  and  C_17
    3  A    between atoms: C_9  and  C_37
    4  A    between atoms: C_11  and  C_35
    5  A    between atoms: C_17  and  C_28
    6  A    between atoms: C_25  and  C_31
    7  A    between atoms: C_31  and  C_34
    8  A    between atoms: C_32  and  N_38
    9  A    between atoms: C_32  and  C_49
   10  A    between atoms: N_33  and  C_36
                            x       y       z     vdW  Elec       q    Type
                         _______ _______ _______ _____ _____    ______ ____

>  <TORSDO>
F 10

$$$$
=
 OpenBabel11032420483D

 51 57  0  0  1  0  0  0  0  0999 V2000
  186.1490  179.1290  143.9750 N   0  0  0  0  0  0  0  0  0  0  0  0
  186.8120  177.9690  143.4390 N   0  0  2  0  0  0  0  0  0  0  0  0
  192.1760  178.8420  141.1230 O   0  0  0  0  0  0  0  0  0  0  0  0
  193.2900  176.7580  140.5040 O   0  0  0  0  0  0  0  0  0  0  0  0
  188.3430  176.1000  141.8620 C   0  0  0  0  0  1  0  0  0  0  0  0
  187.4240  176.9510  138.6240 C   0  0  0  0  0  2  0  0  0  0  0  0
  188.0730  178.3930  143.0020 N   0  0  0  0  0  2  0  0  0  0  0  0
  188.8790  177.2320  138.2710 C   0  0  2  0  0  3  0  0  0  0  0  0
  185.1160  179.6730  139.2740 F   0  0  0  0  0  0  0  0  0  0  0  0
  183.7700  177.9600  140.2560 C   0  0  0  0  0  2  0  0  0  0  0  0
  185.0510  178.3110  139.5140 C   0  0  1  0  0  3  0  0  0  0  0  0
  185.8640  178.6670  142.6410 C   0  0  1  0  0  3  0  0  0  0  0  0
  191.0140  177.3590  139.2020 C   0  0  2  0  0  3  0  0  0  0  0  0
  188.8930  177.2090  142.7590 C   0  0  2  0  0  0  0  0  0  0  0  0
  191.9500  177.4080  140.7230 S   0  0  0  0  0  0  0  0  0  0  0  0
  189.6220  175.7240  137.5810 S   0  0  0  0  0  0  0  0  0  0  0  0
  185.1450  177.5150  138.2070 C   0  0  2  0  0  3  0  0  0  0  0  0
  189.6100  177.6250  139.4670 N   0  0  0  0  0  2  0  0  0  0  0  0
  190.3830  177.4930  142.7930 C   0  0  1  0  0  3  0  0  0  0  0  0
  183.7480  178.5940  141.6390 C   0  0  0  0  0  2  0  0  0  0  0  0
  186.5120  177.5550  137.6520 N   0  0  0  0  0  0  0  0  0  0  0  0
  189.7060  176.7590  143.9480 C   0  0  0  0  0  2  0  0  0  0  0  0
  184.6400  177.8780  142.5320 N   0  0  0  0  0  2  0  0  0  0  0  0
  186.5450  176.7030  136.4630 C   0  0  0  0  0  1  0  0  0  0  0  0
  191.1380  176.0030  138.5360 C   0  0  1  0  0  3  0  0  0  0  0  0
  191.1190  176.5390  141.9740 N   0  0  0  0  0  2  0  0  0  0  0  0
  184.1090  178.0610  137.2130 C   0  0  0  0  0  2  0  0  0  0  0  0
  180.5800  174.0030  137.2390 C   0  0  0  0  0  1  0  0  0  0  0  0
  182.9500  177.1180  137.0290 C   0  0  0  0  0  0  0  0  0  0  0  0
  181.6270  177.4890  136.7510 C   0  0  0  0  0  0  0  0  0  0  0  0
  181.3170  175.2910  137.1450 C   0  0  0  0  0  0  0  0  0  0  0  0
  182.9680  175.4690  137.3970 S   0  0  0  0  0  0  0  0  0  0  0  0
  180.7340  176.4610  136.8010 N   0  0  0  0  0  0  0  0  0  0  0  0
  181.2050  178.8480  136.3560 C   0  0  0  0  0  0  0  0  0  0  0  0
  181.5480  179.3140  135.2370 O   0  0  0  0  0  0  0  0  0  0  0  0
  180.3340  179.6180  137.1890 N   0  0  0  0  0  2  0  0  0  0  0  0
  180.7890  181.5800  138.7210 C   0  0  0  0  0  2  0  0  0  0  0  0
  182.0670  180.7680  138.5440 C   0  0  0  0  0  2  0  0  0  0  0  0
  180.7220  180.0880  138.5150 C   0  0  0  0  0  0  0  0  0  0  0  0
  180.3920  179.2270  139.7190 C   0  0  0  0  0  1  0  0  0  0  0  0
  192.3460  175.9840  137.6170 C   0  0  0  0  0  2  0  0  0  0  0  0
  194.3560  174.8160  137.7350 C   0  0  0  0  0  1  0  0  0  0  0  0
  192.9240  174.6520  137.5800 N   0  0  0  0  0  2  0  0  0  0  0  0
  185.2160  178.6380  144.9860 C   0  0  0  0  0  2  0  0  0  0  0  0
  185.8810  178.6480  146.3570 C   0  0  1  0  0  3  0  0  0  0  0  0
  184.9090  178.6280  147.3550 O   0  0  0  0  0  1  0  0  0  0  0  0
  186.8650  177.4840  146.5280 C   0  0  0  0  0  2  0  0  0  0  0  0
  187.8050  178.6280  148.5740 O   0  0  0  0  0  1  0  0  0  0  0  0
  189.4180  177.8820  146.8740 C   0  0  0  0  0  2  0  0  0  0  0  0
  188.0270  177.8150  147.4610 C   0  0  0  0  0  0  0  0  0  0  0  0
  188.9960  176.6830  147.7180 C   0  0  0  0  0  2  0  0  0  0  0  0
  1 44  1  0  0  0  0
  2  7  1  6  0  0  0
  2  1  1  0  0  0  0
  4 15  2  0  0  0  0
  8  6  1  1  0  0  0
  8 18  1  0  0  0  0
 10 20  1  0  0  0  0
 11  9  1  6  0  0  0
 11 10  1  0  0  0  0
 12 23  1  1  0  0  0
 12  2  1  0  0  0  0
 12  1  1  0  0  0  0
 13 18  1  1  0  0  0
 13 15  1  0  0  0  0
 14  5  1  6  0  0  0
 14 19  1  0  0  0  0
 14  7  1  0  0  0  0
 14 22  1  0  0  0  0
 15  3  2  0  0  0  0
 15 26  1  0  0  0  0
 16  8  1  0  0  0  0
 16 25  1  0  0  0  0
 17 27  1  6  0  0  0
 17 11  1  0  0  0  0
 19 22  1  1  0  0  0
 20 23  1  0  0  0  0
 21 17  1  0  0  0  0
 21  6  1  0  0  0  0
 24 21  1  0  0  0  0
 25 41  1  6  0  0  0
 25 13  1  0  0  0  0
 26 19  1  0  0  0  0
 29 27  1  0  0  0  0
 29 32  1  0  0  0  0
 30 33  1  0  0  0  0
 30 29  2  0  0  0  0
 31 28  1  0  0  0  0
 31 32  1  0  0  0  0
 33 31  2  0  0  0  0
 34 30  1  0  0  0  0
 34 36  1  0  0  0  0
 35 34  2  0  0  0  0
 36 39  1  0  0  0  0
 38 37  1  0  0  0  0
 39 38  1  0  0  0  0
 39 37  1  0  0  0  0
 39 40  1  0  0  0  0
 43 41  1  0  0  0  0
 43 42  1  0  0  0  0
 44 45  1  0  0  0  0
 45 47  1  0  0  0  0
 45 46  1  1  0  0  0
 47 50  1  0  0  0  0
 49 50  1  0  0  0  0
 49 51  1  0  0  0  0
 50 51  1  0  0  0  0
 50 48  1  0  0  0  0
M  END
>  <MODEL>
6

>  <REMARK>
 VINA RESULT:      -5.1      2.028      2.683
  Name = 
  10 active torsions:
  status: ('A' for Active; 'I' for Inactive)
    1  A    between atoms: N_1  and  C_37
    2  A    between atoms: C_9  and  C_17
    3  A    between atoms: C_9  and  C_37
    4  A    between atoms: C_11  and  C_35
    5  A    between atoms: C_17  and  C_28
    6  A    between atoms: C_25  and  C_31
    7  A    between atoms: C_31  and  C_34
    8  A    between atoms: C_32  and  N_38
    9  A    between atoms: C_32  and  C_49
   10  A    between atoms: N_33  and  C_36
                            x       y       z     vdW  Elec       q    Type
                         _______ _______ _______ _____ _____    ______ ____

>  <TORSDO>
F 10

$$$$
=
 OpenBabel11032420483D

 51 57  0  0  1  0  0  0  0  0999 V2000
  183.9780  180.1260  139.2690 N   0  0  0  0  0  0  0  0  0  0  0  0
  184.0980  179.0530  140.2220 N   0  0  2  0  0  0  0  0  0  0  0  0
  185.6070  180.5830  145.7250 O   0  0  0  0  0  0  0  0  0  0  0  0
  185.5070  178.7090  147.2890 O   0  0  0  0  0  0  0  0  0  0  0  0
  184.8950  177.2820  142.3560 C   0  0  0  0  0  1  0  0  0  0  0  0
  188.3500  177.2420  142.0220 C   0  0  0  0  0  2  0  0  0  0  0  0
  184.4030  179.6440  141.4560 N   0  0  0  0  0  2  0  0  0  0  0  0
  188.5070  177.7550  143.4470 C   0  0  2  0  0  3  0  0  0  0  0  0
  188.7770  179.4730  139.1930 F   0  0  0  0  0  0  0  0  0  0  0  0
  187.6560  177.7430  137.9840 C   0  0  0  0  0  2  0  0  0  0  0  0
  188.2310  178.2060  139.3150 C   0  0  1  0  0  3  0  0  0  0  0  0
  185.1900  179.3540  139.3630 C   0  0  1  0  0  3  0  0  0  0  0  0
  187.2840  178.5260  145.2780 C   0  0  2  0  0  3  0  0  0  0  0  0
  184.2110  178.6410  142.5010 C   0  0  2  0  0  0  0  0  0  0  0  0
  185.6830  179.0830  145.8430 S   0  0  0  0  0  0  0  0  0  0  0  0
  188.6760  176.3360  144.5710 S   0  0  0  0  0  0  0  0  0  0  0  0
  189.2720  177.2020  139.8230 C   0  0  2  0  0  3  0  0  0  0  0  0
  187.3340  178.5300  143.8250 N   0  0  0  0  0  2  0  0  0  0  0  0
  183.9920  179.2420  143.8770 C   0  0  1  0  0  3  0  0  0  0  0  0
  186.4910  178.6230  137.5560 C   0  0  0  0  0  2  0  0  0  0  0  0
  189.5800  177.4250  141.2500 N   0  0  0  0  0  0  0  0  0  0  0  0
  182.8280  178.6280  143.1040 C   0  0  0  0  0  2  0  0  0  0  0  0
  185.3130  178.3120  138.3460 N   0  0  0  0  0  2  0  0  0  0  0  0
  190.5050  176.3790  141.6850 C   0  0  0  0  0  1  0  0  0  0  0  0
  187.5720  177.1240  145.7750 C   0  0  1  0  0  3  0  0  0  0  0  0
  184.4200  178.3250  144.9240 N   0  0  0  0  0  2  0  0  0  0  0  0
  190.5310  177.2990  138.9470 C   0  0  0  0  0  2  0  0  0  0  0  0
  190.3220  172.9890  135.7370 C   0  0  0  0  0  1  0  0  0  0  0  0
  190.7680  176.0390  138.1590 C   0  0  0  0  0  0  0  0  0  0  0  0
  192.0170  175.5500  137.7500 C   0  0  0  0  0  0  0  0  0  0  0  0
  190.6790  174.1400  136.6090 C   0  0  0  0  0  0  0  0  0  0  0  0
  189.5700  175.1320  137.3870 S   0  0  0  0  0  0  0  0  0  0  0  0
  191.9530  174.4840  136.9030 N   0  0  0  0  0  0  0  0  0  0  0  0
  193.3160  176.0650  138.2310 C   0  0  0  0  0  0  0  0  0  0  0  0
  193.3490  177.0320  139.0380 O   0  0  0  0  0  0  0  0  0  0  0  0
  194.5410  175.4260  137.8640 N   0  0  0  0  0  2  0  0  0  0  0  0
  195.2690  174.0250  135.8860 C   0  0  0  0  0  2  0  0  0  0  0  0
  196.4400  174.8750  136.3640 C   0  0  0  0  0  2  0  0  0  0  0  0
  195.0280  175.3860  136.4890 C   0  0  0  0  0  0  0  0  0  0  0  0
  194.6490  176.5140  135.5480 C   0  0  0  0  0  1  0  0  0  0  0  0
  188.2400  177.1820  147.1370 C   0  0  0  0  0  2  0  0  0  0  0  0
  190.5260  176.8470  147.4190 C   0  0  0  0  0  1  0  0  0  0  0  0
  189.5350  177.8310  147.0300 N   0  0  0  0  0  2  0  0  0  0  0  0
  183.0530  179.6580  138.2400 C   0  0  0  0  0  2  0  0  0  0  0  0
  181.6990  179.3400  138.8630 C   0  0  1  0  0  3  0  0  0  0  0  0
  180.9420  180.5030  138.9710 O   0  0  0  0  0  1  0  0  0  0  0  0
  180.9420  178.2650  138.0740 C   0  0  0  0  0  2  0  0  0  0  0  0
  179.6800  176.1080  138.4400 O   0  0  0  0  0  1  0  0  0  0  0  0
  180.7680  177.1110  140.4050 C   0  0  0  0  0  2  0  0  0  0  0  0
  180.6290  177.0220  138.9030 C   0  0  0  0  0  0  0  0  0  0  0  0
  181.8170  176.3750  139.5770 C   0  0  0  0  0  2  0  0  0  0  0  0
  1 12  1  0  0  0  0
  1  2  1  0  0  0  0
  2  7  1  1  0  0  0
  3 15  2  0  0  0  0
  7 14  1  0  0  0  0
  8  6  1  6  0  0  0
  8 18  1  0  0  0  0
  8 16  1  0  0  0  0
 10 11  1  0  0  0  0
 11  9  1  6  0  0  0
 11 17  1  0  0  0  0
 12 23  1  6  0  0  0
 12  2  1  0  0  0  0
 13 18  1  6  0  0  0
 13 25  1  0  0  0  0
 13 15  1  0  0  0  0
 14  5  1  6  0  0  0
 14 22  1  0  0  0  0
 14 19  1  0  0  0  0
 15  4  2  0  0  0  0
 16 25  1  0  0  0  0
 17 27  1  6  0  0  0
 17 21  1  0  0  0  0
 19 22  1  1  0  0  0
 19 26  1  0  0  0  0
 20 10  1  0  0  0  0
 20 23  1  0  0  0  0
 21 24  1  0  0  0  0
 21  6  1  0  0  0  0
 25 41  1  1  0  0  0
 26 15  1  0  0  0  0
 28 31  1  0  0  0  0
 29 27  1  0  0  0  0
 30 29  2  0  0  0  0
 30 34  1  0  0  0  0
 31 33  2  0  0  0  0
 31 32  1  0  0  0  0
 32 29  1  0  0  0  0
 33 30  1  0  0  0  0
 34 35  2  0  0  0  0
 36 34  1  0  0  0  0
 37 38  1  0  0  0  0
 37 39  1  0  0  0  0
 38 39  1  0  0  0  0
 39 36  1  0  0  0  0
 40 39  1  0  0  0  0
 43 41  1  0  0  0  0
 43 42  1  0  0  0  0
 44 45  1  0  0  0  0
 44  1  1  0  0  0  0
 45 46  1  6  0  0  0
 47 45  1  0  0  0  0
 47 50  1  0  0  0  0
 48 50  1  0  0  0  0
 50 51  1  0  0  0  0
 50 49  1  0  0  0  0
 51 49  1  0  0  0  0
M  END
>  <MODEL>
7

>  <REMARK>
 VINA RESULT:      -5.1      2.646     10.161
  Name = 
  10 active torsions:
  status: ('A' for Active; 'I' for Inactive)
    1  A    between atoms: N_1  and  C_37
    2  A    between atoms: C_9  and  C_17
    3  A    between atoms: C_9  and  C_37
    4  A    between atoms: C_11  and  C_35
    5  A    between atoms: C_17  and  C_28
    6  A    between atoms: C_25  and  C_31
    7  A    between atoms: C_31  and  C_34
    8  A    between atoms: C_32  and  N_38
    9  A    between atoms: C_32  and  C_49
   10  A    between atoms: N_33  and  C_36
                            x       y       z     vdW  Elec       q    Type
                         _______ _______ _______ _____ _____    ______ ____

>  <TORSDO>
F 10

$$$$
=
 OpenBabel11032420483D

 51 57  0  0  1  0  0  0  0  0999 V2000
  189.3610  175.6620  137.8140 N   0  0  0  0  0  0  0  0  0  0  0  0
  189.2020  176.8490  138.6130 N   0  0  2  0  0  0  0  0  0  0  0  0
  188.1420  176.0210  144.3660 O   0  0  0  0  0  0  0  0  0  0  0  0
  188.1650  178.1040  145.6410 O   0  0  0  0  0  0  0  0  0  0  0  0
  188.3740  178.8440  140.5270 C   0  0  0  0  0  1  0  0  0  0  0  0
  184.9150  178.5630  140.4250 C   0  0  0  0  0  2  0  0  0  0  0  0
  189.0190  176.4220  139.9350 N   0  0  0  0  0  2  0  0  0  0  0  0
  184.8830  178.2520  141.9160 C   0  0  2  0  0  3  0  0  0  0  0  0
  184.5260  175.9180  137.9730 F   0  0  0  0  0  0  0  0  0  0  0  0
  185.4230  177.5360  136.4600 C   0  0  0  0  0  2  0  0  0  0  0  0
  184.9660  177.2280  137.8780 C   0  0  1  0  0  3  0  0  0  0  0  0
  188.0930  176.3420  137.8800 C   0  0  1  0  0  3  0  0  0  0  0  0
  186.2690  177.8530  143.7490 C   0  0  2  0  0  3  0  0  0  0  0  0
  189.1810  177.5780  140.8140 C   0  0  2  0  0  0  0  0  0  0  0  0
  187.9420  177.5110  144.2770 S   0  0  0  0  0  0  0  0  0  0  0  0
  184.6530  179.8010  142.8390 S   0  0  0  0  0  0  0  0  0  0  0  0
  183.8710  178.2100  138.3110 C   0  0  2  0  0  3  0  0  0  0  0  0
  186.1390  177.6340  142.3180 N   0  0  0  0  0  2  0  0  0  0  0  0
  189.5270  177.2020  142.2420 C   0  0  1  0  0  3  0  0  0  0  0  0
  186.6340  176.6980  136.0820 C   0  0  0  0  0  2  0  0  0  0  0  0
  183.6640  178.1730  139.7720 N   0  0  0  0  0  0  0  0  0  0  0  0
  190.5890  177.7870  141.3140 C   0  0  0  0  0  2  0  0  0  0  0  0
  187.8230  177.2120  136.7380 N   0  0  0  0  0  2  0  0  0  0  0  0
  182.6770  179.1960  140.1180 C   0  0  0  0  0  1  0  0  0  0  0  0
  185.8880  179.2850  144.0640 C   0  0  1  0  0  3  0  0  0  0  0  0
  189.0810  178.2240  143.1780 N   0  0  0  0  0  2  0  0  0  0  0  0
  182.5790  177.8880  137.5450 C   0  0  0  0  0  2  0  0  0  0  0  0
  179.7940  174.0530  140.0870 C   0  0  0  0  0  1  0  0  0  0  0  0
  181.9310  176.6220  138.0370 C   0  0  0  0  0  0  0  0  0  0  0  0
  181.6440  175.4910  137.2590 C   0  0  0  0  0  0  0  0  0  0  0  0
  180.5690  174.9150  139.1550 C   0  0  0  0  0  0  0  0  0  0  0  0
  181.1820  176.4300  139.5400 S   0  0  0  0  0  0  0  0  0  0  0  0
  180.9020  174.5430  137.8990 N   0  0  0  0  0  0  0  0  0  0  0  0
  182.1480  175.2690  135.8880 C   0  0  0  0  0  0  0  0  0  0  0  0
  181.5750  175.8190  134.9100 O   0  0  0  0  0  0  0  0  0  0  0  0
  183.3350  174.5060  135.6560 N   0  0  0  0  0  2  0  0  0  0  0  0
  184.1790  172.6930  137.2060 C   0  0  0  0  0  2  0  0  0  0  0  0
  184.8260  172.5300  135.8360 C   0  0  0  0  0  2  0  0  0  0  0  0
  183.4290  173.0820  135.9570 C   0  0  0  0  0  0  0  0  0  0  0  0
  182.3140  172.1630  135.4930 C   0  0  0  0  0  1  0  0  0  0  0  0
  185.3040  179.3730  145.4620 C   0  0  0  0  0  2  0  0  0  0  0  0
  184.9430  177.8970  147.2250 C   0  0  0  0  0  1  0  0  0  0  0  0
  184.6690  178.1170  145.8180 N   0  0  0  0  0  2  0  0  0  0  0  0
  190.1830  176.0460  136.6690 C   0  0  0  0  0  2  0  0  0  0  0  0
  191.6510  175.7690  136.9660 C   0  0  1  0  0  3  0  0  0  0  0  0
  191.7590  174.7870  137.9480 O   0  0  0  0  0  1  0  0  0  0  0  0
  192.4280  175.3690  135.7050 C   0  0  0  0  0  2  0  0  0  0  0  0
  194.3890  176.7550  136.4870 O   0  0  0  0  0  1  0  0  0  0  0  0
  194.8280  175.0960  134.7250 C   0  0  0  0  0  2  0  0  0  0  0  0
  193.9300  175.6150  135.8230 C   0  0  0  0  0  0  0  0  0  0  0  0
  194.7710  174.3850  136.0740 C   0  0  0  0  0  2  0  0  0  0  0  0
  1 12  1  0  0  0  0
  1  2  1  0  0  0  0
  2  7  1  1  0  0  0
  7 14  1  0  0  0  0
  8  6  1  6  0  0  0
  8 18  1  0  0  0  0
  8 16  1  0  0  0  0
 10 11  1  0  0  0  0
 11  9  1  6  0  0  0
 11 17  1  0  0  0  0
 12 23  1  6  0  0  0
 12  2  1  0  0  0  0
 13 18  1  6  0  0  0
 13 25  1  0  0  0  0
 13 15  1  0  0  0  0
 14  5  1  6  0  0  0
 14 22  1  0  0  0  0
 14 19  1  0  0  0  0
 15  3  2  0  0  0  0
 15  4  2  0  0  0  0
 16 25  1  0  0  0  0
 17 27  1  6  0  0  0
 17 21  1  0  0  0  0
 19 22  1  6  0  0  0
 19 26  1  0  0  0  0
 20 10  1  0  0  0  0
 20 23  1  0  0  0  0
 21 24  1  0  0  0  0
 21  6  1  0  0  0  0
 25 41  1  1  0  0  0
 26 15  1  0  0  0  0
 27 29  1  0  0  0  0
 29 32  1  0  0  0  0
 30 33  1  0  0  0  0
 30 29  2  0  0  0  0
 31 32  1  0  0  0  0
 31 28  1  0  0  0  0
 33 31  2  0  0  0  0
 34 30  1  0  0  0  0
 35 34  2  0  0  0  0
 36 34  1  0  0  0  0
 36 39  1  0  0  0  0
 38 39  1  0  0  0  0
 38 37  1  0  0  0  0
 39 37  1  0  0  0  0
 40 39  1  0  0  0  0
 41 43  1  0  0  0  0
 43 42  1  0  0  0  0
 44 45  1  0  0  0  0
 44  1  1  0  0  0  0
 45 46  1  1  0  0  0
 47 50  1  0  0  0  0
 47 45  1  0  0  0  0
 49 50  1  0  0  0  0
 49 51  1  0  0  0  0
 50 51  1  0  0  0  0
 50 48  1  0  0  0  0
M  END
>  <MODEL>
8

>  <REMARK>
 VINA RESULT:      -4.8      3.363      7.598
  Name = 
  10 active torsions:
  status: ('A' for Active; 'I' for Inactive)
    1  A    between atoms: N_1  and  C_37
    2  A    between atoms: C_9  and  C_17
    3  A    between atoms: C_9  and  C_37
    4  A    between atoms: C_11  and  C_35
    5  A    between atoms: C_17  and  C_28
    6  A    between atoms: C_25  and  C_31
    7  A    between atoms: C_31  and  C_34
    8  A    between atoms: C_32  and  N_38
    9  A    between atoms: C_32  and  C_49
   10  A    between atoms: N_33  and  C_36
                            x       y       z     vdW  Elec       q    Type
                         _______ _______ _______ _____ _____    ______ ____

>  <TORSDO>
F 10

$$$$
=
 OpenBabel11032420483D

 51 57  0  0  1  0  0  0  0  0999 V2000
  189.2830  175.8820  135.8120 N   0  0  0  0  0  0  0  0  0  0  0  0
  188.0360  175.4430  136.3810 N   0  0  2  0  0  0  0  0  0  0  0  0
  183.1900  178.3410  134.6430 O   0  0  0  0  0  0  0  0  0  0  0  0
  181.1300  177.3220  135.4720 O   0  0  0  0  0  0  0  0  0  0  0  0
  185.3990  175.2600  137.5390 C   0  0  0  0  0  1  0  0  0  0  0  0
  185.4340  177.8490  139.8520 C   0  0  0  0  0  2  0  0  0  0  0  0
  187.0300  176.2210  135.7930 N   0  0  0  0  0  2  0  0  0  0  0  0
  184.2340  178.4920  139.1690 C   0  0  2  0  0  3  0  0  0  0  0  0
  188.7770  179.1620  139.3400 F   0  0  0  0  0  0  0  0  0  0  0  0
  189.4670  177.0510  140.2230 C   0  0  0  0  0  2  0  0  0  0  0  0
  188.3080  177.9710  139.8690 C   0  0  1  0  0  3  0  0  0  0  0  0
  188.8580  176.3490  137.1060 C   0  0  1  0  0  3  0  0  0  0  0  0
  182.8380  178.2910  137.3110 C   0  0  2  0  0  3  0  0  0  0  0  0
  185.7410  175.5990  136.0880 C   0  0  2  0  0  0  0  0  0  0  0  0
  182.6030  177.4840  135.7340 S   0  0  0  0  0  0  0  0  0  0  0  0
  182.7120  177.9010  139.9700 S   0  0  0  0  0  0  0  0  0  0  0  0
  187.4300  178.2210  141.1010 C   0  0  2  0  0  3  0  0  0  0  0  0
  184.2100  178.1240  137.7610 N   0  0  0  0  0  2  0  0  0  0  0  0
  184.6450  176.0000  135.1200 C   0  0  1  0  0  3  0  0  0  0  0  0
  190.2380  176.6390  138.9770 C   0  0  0  0  0  2  0  0  0  0  0  0
  186.1260  178.8000  140.7220 N   0  0  0  0  0  0  0  0  0  0  0  0
  185.2740  174.6110  135.0480 C   0  0  0  0  0  2  0  0  0  0  0  0
  189.4850  175.6510  138.2260 N   0  0  0  0  0  2  0  0  0  0  0  0
  185.3150  178.9240  141.9330 C   0  0  0  0  0  1  0  0  0  0  0  0
  181.9060  177.7120  138.3560 C   0  0  1  0  0  3  0  0  0  0  0  0
  183.3330  175.9090  135.7450 N   0  0  0  0  0  2  0  0  0  0  0  0
  188.1920  179.1260  142.0810 C   0  0  0  0  0  2  0  0  0  0  0  0
  191.8930  177.0900  145.4120 C   0  0  0  0  0  1  0  0  0  0  0  0
  189.0070  178.3310  143.0670 C   0  0  0  0  0  0  0  0  0  0  0  0
  188.4940  177.5180  144.0880 C   0  0  0  0  0  0  0  0  0  0  0  0
  190.6760  177.4860  144.6530 C   0  0  0  0  0  0  0  0  0  0  0  0
  190.6730  178.4850  143.3030 S   0  0  0  0  0  0  0  0  0  0  0  0
  189.4350  177.0410  144.9510 N   0  0  0  0  0  0  0  0  0  0  0  0
  187.0760  177.1230  144.2100 C   0  0  0  0  0  0  0  0  0  0  0  0
  186.4270  176.7780  143.1870 O   0  0  0  0  0  0  0  0  0  0  0  0
  186.4450  177.0390  145.4910 N   0  0  0  0  0  2  0  0  0  0  0  0
  184.8000  178.6310  146.5700 C   0  0  0  0  0  2  0  0  0  0  0  0
  185.6880  179.4000  145.6000 C   0  0  0  0  0  2  0  0  0  0  0  0
  186.2280  178.2050  146.3410 C   0  0  0  0  0  0  0  0  0  0  0  0
  187.2340  178.5060  147.4360 C   0  0  0  0  0  1  0  0  0  0  0  0
  180.5830  178.4560  138.3430 C   0  0  0  0  0  2  0  0  0  0  0  0
  179.5190  180.4580  138.8700 C   0  0  0  0  0  1  0  0  0  0  0  0
  180.6610  179.6270  139.1990 N   0  0  0  0  0  2  0  0  0  0  0  0
  190.1820  174.7320  135.8590 C   0  0  0  0  0  2  0  0  0  0  0  0
  191.5510  175.1170  135.3120 C   0  0  1  0  0  3  0  0  0  0  0  0
  191.4570  176.3080  134.5960 O   0  0  0  0  0  1  0  0  0  0  0  0
  192.6040  175.2290  136.4220 C   0  0  0  0  0  2  0  0  0  0  0  0
  193.4600  172.8540  136.3800 O   0  0  0  0  0  1  0  0  0  0  0  0
  195.1260  174.6330  136.7040 C   0  0  0  0  0  2  0  0  0  0  0  0
  193.7380  174.2180  136.2760 C   0  0  0  0  0  0  0  0  0  0  0  0
  194.7710  174.5490  135.2230 C   0  0  0  0  0  2  0  0  0  0  0  0
  1 44  1  0  0  0  0
  1  2  1  0  0  0  0
  1 12  1  0  0  0  0
  2  7  1  6  0  0  0
  2 12  1  0  0  0  0
  3 15  2  0  0  0  0
  4 15  2  0  0  0  0
  6 21  1  0  0  0  0
  7 14  1  0  0  0  0
  8  6  1  1  0  0  0
  8 16  1  0  0  0  0
 11  9  1  1  0  0  0
 11 10  1  0  0  0  0
 11 17  1  0  0  0  0
 12 23  1  1  0  0  0
 13 18  1  1  0  0  0
 13 25  1  0  0  0  0
 14  5  1  1  0  0  0
 15 26  1  0  0  0  0
 15 13  1  0  0  0  0
 17 27  1  1  0  0  0
 18  8  1  0  0  0  0
 19 22  1  6  0  0  0
 19 26  1  0  0  0  0
 19 14  1  0  0  0  0
 20 10  1  0  0  0  0
 21 17  1  0  0  0  0
 21 24  1  0  0  0  0
 22 14  1  0  0  0  0
 23 20  1  0  0  0  0
 25 41  1  1  0  0  0
 25 16  1  0  0  0  0
 27 29  1  0  0  0  0
 29 32  1  0  0  0  0
 29 30  2  0  0  0  0
 30 34  1  0  0  0  0
 30 33  1  0  0  0  0
 31 33  2  0  0  0  0
 31 28  1  0  0  0  0
 32 31  1  0  0  0  0
 34 36  1  0  0  0  0
 35 34  2  0  0  0  0
 36 39  1  0  0  0  0
 38 39  1  0  0  0  0
 38 37  1  0  0  0  0
 39 37  1  0  0  0  0
 39 40  1  0  0  0  0
 41 43  1  0  0  0  0
 42 43  1  0  0  0  0
 45 46  1  1  0  0  0
 45 44  1  0  0  0  0
 45 47  1  0  0  0  0
 50 48  1  0  0  0  0
 50 47  1  0  0  0  0
 50 49  1  0  0  0  0
 51 50  1  0  0  0  0
 51 49  1  0  0  0  0
M  END
>  <MODEL>
9

>  <REMARK>
 VINA RESULT:      -4.7      3.007      9.475
  Name = 
  10 active torsions:
  status: ('A' for Active; 'I' for Inactive)
    1  A    between atoms: N_1  and  C_37
    2  A    between atoms: C_9  and  C_17
    3  A    between atoms: C_9  and  C_37
    4  A    between atoms: C_11  and  C_35
    5  A    between atoms: C_17  and  C_28
    6  A    between atoms: C_25  and  C_31
    7  A    between atoms: C_31  and  C_34
    8  A    between atoms: C_32  and  N_38
    9  A    between atoms: C_32  and  C_49
   10  A    between atoms: N_33  and  C_36
                            x       y       z     vdW  Elec       q    Type
                         _______ _______ _______ _____ _____    ______ ____

>  <TORSDO>
F 10

$$$$
