=
 OpenBabel11032420063D

 66 69  0  0  1  0  0  0  0  0999 V2000
  186.4650  178.3930  135.0720 C   0  0  0  0  0  3  0  0  0  0  0  0
  182.9090  178.3020  135.6270 C   0  0  0  0  0  2  0  0  0  0  0  0
  185.3240  178.0610  135.5970 C   0  0  0  0  0  0  0  0  0  0  0  0
  182.9970  176.2040  137.6330 C   0  0  0  0  0  0  0  0  0  0  0  0
  181.7690  178.0450  136.5790 C   0  0  0  0  0  3  0  0  0  0  0  0
  184.1310  176.5270  137.0010 C   0  0  0  0  0  3  0  0  0  0  0  0
  184.1890  177.7090  136.1360 C   0  0  0  0  0  0  0  0  0  0  0  0
  181.7810  177.0660  137.5010 C   0  0  0  0  0  0  0  0  0  0  0  0
  187.6590  177.7530  135.5180 N   0  0  0  0  0  2  0  0  0  0  0  0
  187.7040  176.9070  136.7070 C   0  0  2  0  0  3  0  0  0  0  0  0
  187.3000  178.7540  140.3800 Cl  0  0  0  0  0  0  0  0  0  0  0  0
  187.0670  177.6440  137.9110 C   0  0  0  0  0  2  0  0  0  0  0  0
  189.1260  176.3560  136.9880 C   0  0  2  0  0  3  0  0  0  0  0  0
  189.9420  177.3030  137.8220 C   0  0  0  0  0  3  0  0  0  0  0  0
  187.9170  177.5930  139.1850 C   0  0  1  0  0  3  0  0  0  0  0  0
  189.3600  177.8920  138.8750 C   0  0  0  0  0  3  0  0  0  0  0  0
  189.1630  174.8500  134.7300 O   0  0  0  0  0  0  0  0  0  0  0  0
  190.3030  177.0340  134.6740 O   0  0  0  0  0  0  0  0  0  0  0  0
  190.0090  175.8220  135.5200 S   0  0  0  0  0  0  0  0  0  0  0  0
  191.5060  175.0770  135.9960 N   0  0  0  0  0  2  0  0  0  0  0  0
  191.9620  174.2580  134.8880 C   0  0  0  0  0  2  0  0  0  0  0  0
  193.6940  172.6430  134.5980 O   0  0  0  0  0  0  0  0  0  0  0  0
  193.2990  173.6770  135.2030 C   0  0  0  0  0  0  0  0  0  0  0  0
  194.0990  174.2620  136.1780 O   0  0  0  0  0  1  0  0  0  0  0  0
  180.6490  176.9050  138.3840 N   0  0  0  0  0  0  0  0  0  0  0  0
  181.7070  177.9740  140.3240 C   0  0  0  0  0  2  0  0  0  0  0  0
  180.4500  177.8590  139.4870 C   0  0  2  0  0  3  0  0  0  0  0  0
  179.3000  177.4500  140.4020 C   0  0  0  0  0  2  0  0  0  0  0  0
  179.6810  177.9540  142.1060 S   0  0  0  0  0  0  0  0  0  0  0  0
  181.3070  178.6270  141.6250 C   0  0  1  0  0  3  0  0  0  0  0  0
  182.9320  179.2570  143.3100 N   0  0  0  0  0  0  0  0  0  0  0  0
  182.3360  178.3130  142.6600 C   0  0  0  0  0  3  0  0  0  0  0  0
  185.0360  178.1500  143.9500 C   0  0  0  0  0  0  0  0  0  0  0  0
  183.8880  178.9310  144.2770 N   0  0  0  0  0  2  0  0  0  0  0  0
  185.2380  177.7810  142.7600 O   0  0  0  0  0  0  0  0  0  0  0  0
  185.9910  177.7530  145.0280 C   0  0  0  0  0  2  0  0  0  0  0  0
  187.3420  178.4120  144.8100 C   0  0  0  0  0  2  0  0  0  0  0  0
  188.1540  177.6400  143.7710 C   0  0  2  0  0  3  0  0  0  0  0  0
  189.2800  176.7570  144.3130 C   0  0  2  0  0  0  0  0  0  0  0  0
  189.6220  178.0940  143.6510 C   0  0  2  0  0  3  0  0  0  0  0  0
  190.1550  176.0160  142.2180 O   0  0  0  0  0  1  0  0  0  0  0  0
  189.5720  175.5740  143.4040 C   0  0  0  0  0  2  0  0  0  0  0  0
  189.9450  179.0820  144.5890 O   0  0  0  0  0  0  0  0  0  0  0  0
  191.8550  178.7620  143.2020 C   0  0  0  0  0  1  0  0  0  0  0  0
  191.0560  179.7350  144.0460 C   0  0  0  0  0  2  0  0  0  0  0  0
  189.5860  176.5530  145.8280 C   0  0  1  0  0  3  0  0  0  0  0  0
  192.8450  175.6120  147.4980 O   0  0  0  0  0  1  0  0  0  0  0  0
  191.5180  175.7770  147.2670 N   0  0  0  0  0  2  0  0  0  0  0  0
  191.8910  176.7390  145.1810 O   0  0  0  0  0  0  0  0  0  0  0  0
  191.0600  176.3790  146.0590 C   0  0  0  0  0  0  0  0  0  0  0  0
  189.0830  177.5570  146.6660 O   0  0  0  0  0  0  0  0  0  0  0  0
  188.9390  176.9500  147.9170 C   0  0  0  0  0  2  0  0  0  0  0  0
  187.6470  178.9740  148.2240 N   0  0  0  0  0  1  0  0  0  0  0  0
  187.7960  177.6050  148.6740 C   0  0  0  0  0  2  0  0  0  0  0  0
  178.9680  175.5500  137.4770 O   0  0  0  0  0  1  0  0  0  0  0  0
  179.9690  175.6070  138.4460 C   0  0  0  0  0  2  0  0  0  0  0  0
  182.9620  174.9010  138.3670 C   0  0  0  0  0  2  0  0  0  0  0  0
  183.9840  173.1680  136.9720 C   0  0  0  0  0  3  0  0  0  0  0  0
  182.8800  173.7790  137.3830 C   0  0  0  0  0  3  0  0  0  0  0  0
  183.8950  172.0600  135.9760 C   0  0  0  0  0  2  0  0  0  0  0  0
  185.1170  171.1600  136.0710 C   0  0  1  0  0  3  0  0  0  0  0  0
  184.4310  169.6330  134.6250 C   0  0  0  0  0  1  0  0  0  0  0  0
  185.3940  170.6190  134.8120 O   0  0  0  0  0  0  0  0  0  0  0  0
  186.3160  171.9710  136.5490 C   0  0  0  0  0  2  0  0  0  0  0  0
  188.4160  172.2420  135.9210 C   0  0  0  0  0  1  0  0  0  0  0  0
  187.4960  171.2650  136.3050 O   0  0  0  0  0  0  0  0  0  0  0  0
  1  9  1  0  0  0  0
  1  3  2  0  0  0  0
  2  7  1  0  0  0  0
  2  5  1  0  0  0  0
  3  7  2  0  0  0  0
  4 57  1  0  0  0  0
  5  8  2  0  0  0  0
  6  4  2  0  0  0  0
  7  6  1  0  0  0  0
  8  4  1  0  0  0  0
  8 25  1  0  0  0  0
 10  9  1  6  0  0  0
 10 13  1  0  0  0  0
 10 12  1  0  0  0  0
 12 15  1  0  0  0  0
 13 19  1  6  0  0  0
 13 14  1  0  0  0  0
 14 16  2  0  0  0  0
 15 11  1  1  0  0  0
 16 15  1  0  0  0  0
 17 19  2  0  0  0  0
 18 19  2  0  0  0  0
 19 20  1  0  0  0  0
 21 23  1  0  0  0  0
 21 20  1  0  0  0  0
 22 23  2  0  0  0  0
 23 24  1  0  0  0  0
 25 56  1  0  0  0  0
 26 30  1  0  0  0  0
 27 25  1  6  0  0  0
 27 26  1  0  0  0  0
 27 28  1  0  0  0  0
 28 29  1  0  0  0  0
 30 29  1  0  0  0  0
 30 32  1  1  0  0  0
 31 34  1  0  0  0  0
 32 31  2  0  0  0  0
 33 34  1  0  0  0  0
 33 36  1  0  0  0  0
 35 33  2  0  0  0  0
 37 36  1  0  0  0  0
 38 39  1  0  0  0  0
 38 37  1  1  0  0  0
 39 42  1  6  0  0  0
 39 46  1  0  0  0  0
 40 38  1  0  0  0  0
 40 39  1  0  0  0  0
 40 43  1  1  0  0  0
 41 42  1  0  0  0  0
 44 45  1  0  0  0  0
 45 43  1  0  0  0  0
 46 50  1  6  0  0  0
 46 51  1  0  0  0  0
 48 47  1  0  0  0  0
 49 50  2  0  0  0  0
 50 48  1  0  0  0  0
 51 52  1  0  0  0  0
 52 54  1  0  0  0  0
 53 54  1  0  0  0  0
 55 56  1  0  0  0  0
 58 59  2  0  0  0  0
 59 57  1  0  0  0  0
 60 58  1  0  0  0  0
 61 60  1  6  0  0  0
 61 64  1  0  0  0  0
 62 63  1  0  0  0  0
 63 61  1  0  0  0  0
 65 66  1  0  0  0  0
 66 64  1  0  0  0  0
M  END
>  <MODEL>
1

>  <REMARK>
 VINA RESULT:      -4.3      0.000      0.000
  Name = 
  29 active torsions:
  status: ('A' for Active; 'I' for Inactive)
    1  A    between atoms: C_1  and  C_18
    2  A    between atoms: C_1  and  C_55
    3  A    between atoms: C_6  and  C_26
    4  A    between atoms: C_6  and  C_47
    5  A    between atoms: C_7  and  N_17
    6  A    between atoms: C_10  and  N_17
    7  A    between atoms: O_12  and  C_53
    8  A    between atoms: O_12  and  C_66
    9  A    between atoms: N_13  and  N_21
   10  A    between atoms: O_14  and  C_15
   11  A    between atoms: O_14  and  C_62
   12  A    between atoms: C_15  and  C_60
   13  A    between atoms: N_16  and  C_33
   14  A    between atoms: N_16  and  C_50
   15  A    between atoms: N_16  and  C_56
   16  A    between atoms: C_19  and  C_26
   17  A    between atoms: C_23  and  C_65
   18  A    between atoms: C_28  and  C_39
   19  A    between atoms: C_29  and  S_31
   20  A    between atoms: S_31  and  N_43
   21  A    between atoms: C_34  and  C_41
   22  A    between atoms: O_37  and  C_58
   23  A    between atoms: C_39  and  C_58
   24  A    between atoms: C_41  and  N_43
   25  A    between atoms: C_46  and  O_51
   26  A    between atoms: C_46  and  C_58
   27  A    between atoms: C_49  and  C_61
   28  A    between atoms: C_49  and  C_62
   29  A    between atoms: C_62  and  C_64
                            x       y       z     vdW  Elec       q    Type
                         _______ _______ _______ _____ _____    ______ ____

>  <TORSDO>
F 29

$$$$
=
 OpenBabel11032420063D

 66 69  0  0  1  0  0  0  0  0999 V2000
  188.2330  178.2170  143.7700 C   0  0  0  0  0  3  0  0  0  0  0  0
  188.1240  178.1080  140.1730 C   0  0  0  0  0  2  0  0  0  0  0  0
  188.5690  177.9150  142.5510 C   0  0  0  0  0  0  0  0  0  0  0  0
  190.6110  176.6380  139.8670 C   0  0  0  0  0  0  0  0  0  0  0  0
  188.4810  177.3760  138.9030 C   0  0  0  0  0  3  0  0  0  0  0  0
  190.2600  177.0460  141.0910 C   0  0  0  0  0  3  0  0  0  0  0  0
  188.9270  177.6050  141.3360 C   0  0  0  0  0  0  0  0  0  0  0  0
  189.6350  176.7070  138.7340 C   0  0  0  0  0  0  0  0  0  0  0  0
  189.0600  177.7960  144.8530 N   0  0  0  0  0  2  0  0  0  0  0  0
  188.5280  177.1470  146.0470 C   0  0  2  0  0  3  0  0  0  0  0  0
  186.0860  179.3910  148.5120 Cl  0  0  0  0  0  0  0  0  0  0  0  0
  187.2920  177.9210  146.5700 C   0  0  0  0  0  2  0  0  0  0  0  0
  189.6170  176.9000  147.1230 C   0  0  2  0  0  3  0  0  0  0  0  0
  189.7860  178.0840  148.0330 C   0  0  0  0  0  3  0  0  0  0  0  0
  187.3320  178.2000  148.0770 C   0  0  1  0  0  3  0  0  0  0  0  0
  188.6900  178.7030  148.4900 C   0  0  0  0  0  3  0  0  0  0  0  0
  190.9630  175.5990  145.1590 O   0  0  0  0  0  0  0  0  0  0  0  0
  192.0640  177.5300  146.2210 O   0  0  0  0  0  0  0  0  0  0  0  0
  191.1840  176.3290  146.4630 S   0  0  0  0  0  0  0  0  0  0  0  0
  191.9450  175.2840  147.6240 N   0  0  0  0  0  2  0  0  0  0  0  0
  193.2510  175.8390  147.9280 C   0  0  0  0  0  2  0  0  0  0  0  0
  193.3360  175.5060  150.2890 O   0  0  0  0  0  1  0  0  0  0  0  0
  193.2790  176.3300  149.3350 C   0  0  0  0  0  0  0  0  0  0  0  0
  193.2200  177.6950  149.5970 O   0  0  0  0  0  0  0  0  0  0  0  0
  189.8840  176.0210  137.4880 N   0  0  0  0  0  0  0  0  0  0  0  0
  187.6900  176.8160  136.7290 C   0  0  0  0  0  2  0  0  0  0  0  0
  189.0650  176.3440  136.3080 C   0  0  2  0  0  3  0  0  0  0  0  0
  188.8990  175.1470  135.3770 C   0  0  0  0  0  2  0  0  0  0  0  0
  187.2580  175.2180  134.5970 S   0  0  0  0  0  0  0  0  0  0  0  0
  186.8070  176.7340  135.5060 C   0  0  1  0  0  3  0  0  0  0  0  0
  184.6580  175.6350  135.7250 N   0  0  0  0  0  0  0  0  0  0  0  0
  185.3800  176.6840  135.9420 C   0  0  0  0  0  3  0  0  0  0  0  0
  182.9750  175.2290  137.4760 C   0  0  0  0  0  0  0  0  0  0  0  0
  183.3250  175.6150  136.1480 N   0  0  0  0  0  2  0  0  0  0  0  0
  183.8740  174.9470  138.3160 O   0  0  0  0  0  0  0  0  0  0  0  0
  181.5350  175.1410  137.8630 C   0  0  0  0  0  2  0  0  0  0  0  0
  180.9480  176.5300  138.0470 C   0  0  0  0  0  2  0  0  0  0  0  0
  181.1790  177.0250  139.4730 C   0  0  2  0  0  3  0  0  0  0  0  0
  180.8050  178.4820  139.7520 C   0  0  2  0  0  0  0  0  0  0  0  0
  182.2780  178.0970  139.6000 C   0  0  2  0  0  3  0  0  0  0  0  0
  181.5580  178.7350  142.0050 O   0  0  0  0  0  1  0  0  0  0  0  0
  180.4170  178.7080  141.2050 C   0  0  0  0  0  2  0  0  0  0  0  0
  182.7970  178.4690  138.3540 O   0  0  0  0  0  0  0  0  0  0  0  0
  184.4610  178.5780  140.0540 C   0  0  0  0  0  1  0  0  0  0  0  0
  184.1730  178.5920  138.5670 C   0  0  0  0  0  2  0  0  0  0  0  0
  180.1510  179.4380  138.7080 C   0  0  1  0  0  3  0  0  0  0  0  0
  182.2340  182.5880  138.5190 O   0  0  0  0  0  1  0  0  0  0  0  0
  181.8100  181.3120  138.3340 N   0  0  0  0  0  2  0  0  0  0  0  0
  179.8930  181.6490  139.6100 O   0  0  0  0  0  0  0  0  0  0  0  0
  180.5970  180.8560  138.9270 C   0  0  0  0  0  0  0  0  0  0  0  0
  180.3550  179.0700  137.3720 O   0  0  0  0  0  0  0  0  0  0  0  0
  179.3700  179.7520  136.6520 C   0  0  0  0  0  2  0  0  0  0  0  0
  180.4070  178.5400  134.8300 N   0  0  0  0  0  1  0  0  0  0  0  0
  179.7430  179.7790  135.1790 C   0  0  0  0  0  2  0  0  0  0  0  0
  189.7370  173.6860  137.5850 O   0  0  0  0  0  1  0  0  0  0  0  0
  190.6260  174.7560  137.5030 C   0  0  0  0  0  2  0  0  0  0  0  0
  192.0340  176.2310  139.6550 C   0  0  0  0  0  2  0  0  0  0  0  0
  193.5590  176.5130  137.7600 C   0  0  0  0  0  3  0  0  0  0  0  0
  192.3380  176.2250  138.1910 C   0  0  0  0  0  3  0  0  0  0  0  0
  193.8480  176.5220  136.2960 C   0  0  0  0  0  2  0  0  0  0  0  0
  194.3780  175.1680  135.8510 C   0  0  1  0  0  3  0  0  0  0  0  0
  192.8600  173.9140  134.8430 C   0  0  0  0  0  1  0  0  0  0  0  0
  193.8530  174.8540  134.5940 O   0  0  0  0  0  0  0  0  0  0  0  0
  195.9000  175.2130  135.7690 C   0  0  0  0  0  2  0  0  0  0  0  0
  196.6100  173.2770  134.9800 C   0  0  0  0  0  1  0  0  0  0  0  0
  196.3320  174.5900  134.5960 O   0  0  0  0  0  0  0  0  0  0  0  0
  1  9  1  0  0  0  0
  2  7  1  0  0  0  0
  3  1  2  0  0  0  0
  4  6  2  0  0  0  0
  5  2  1  0  0  0  0
  6  7  1  0  0  0  0
  7  3  2  0  0  0  0
  8  5  2  0  0  0  0
  8  4  1  0  0  0  0
 10  9  1  6  0  0  0
 10 12  1  0  0  0  0
 10 13  1  0  0  0  0
 12 15  1  0  0  0  0
 13 19  1  6  0  0  0
 13 14  1  0  0  0  0
 14 16  2  0  0  0  0
 15 16  1  0  0  0  0
 15 11  1  6  0  0  0
 17 19  2  0  0  0  0
 18 19  2  0  0  0  0
 19 20  1  0  0  0  0
 20 21  1  0  0  0  0
 21 23  1  0  0  0  0
 23 24  2  0  0  0  0
 23 22  1  0  0  0  0
 25 56  1  0  0  0  0
 25  8  1  0  0  0  0
 27 26  1  0  0  0  0
 27 25  1  1  0  0  0
 28 27  1  0  0  0  0
 29 28  1  0  0  0  0
 29 30  1  0  0  0  0
 30 32  1  1  0  0  0
 30 26  1  0  0  0  0
 31 32  2  0  0  0  0
 31 34  1  0  0  0  0
 33 36  1  0  0  0  0
 33 35  2  0  0  0  0
 34 33  1  0  0  0  0
 36 37  1  0  0  0  0
 38 37  1  6  0  0  0
 38 40  1  0  0  0  0
 38 39  1  0  0  0  0
 39 42  1  1  0  0  0
 40 43  1  6  0  0  0
 40 39  1  0  0  0  0
 42 41  1  0  0  0  0
 43 45  1  0  0  0  0
 45 44  1  0  0  0  0
 46 51  1  6  0  0  0
 46 50  1  0  0  0  0
 46 39  1  0  0  0  0
 48 47  1  0  0  0  0
 48 50  1  0  0  0  0
 50 49  2  0  0  0  0
 52 51  1  0  0  0  0
 53 54  1  0  0  0  0
 54 52  1  0  0  0  0
 56 55  1  0  0  0  0
 57  4  1  0  0  0  0
 58 59  2  0  0  0  0
 59 57  1  0  0  0  0
 60 58  1  0  0  0  0
 61 64  1  6  0  0  0
 61 60  1  0  0  0  0
 63 62  1  0  0  0  0
 63 61  1  0  0  0  0
 66 65  1  0  0  0  0
 66 64  1  0  0  0  0
M  END
>  <MODEL>
2

>  <REMARK>
 VINA RESULT:      -3.4      3.216     10.432
  Name = 
  29 active torsions:
  status: ('A' for Active; 'I' for Inactive)
    1  A    between atoms: C_1  and  C_18
    2  A    between atoms: C_1  and  C_55
    3  A    between atoms: C_6  and  C_26
    4  A    between atoms: C_6  and  C_47
    5  A    between atoms: C_7  and  N_17
    6  A    between atoms: C_10  and  N_17
    7  A    between atoms: O_12  and  C_53
    8  A    between atoms: O_12  and  C_66
    9  A    between atoms: N_13  and  N_21
   10  A    between atoms: O_14  and  C_15
   11  A    between atoms: O_14  and  C_62
   12  A    between atoms: C_15  and  C_60
   13  A    between atoms: N_16  and  C_33
   14  A    between atoms: N_16  and  C_50
   15  A    between atoms: N_16  and  C_56
   16  A    between atoms: C_19  and  C_26
   17  A    between atoms: C_23  and  C_65
   18  A    between atoms: C_28  and  C_39
   19  A    between atoms: C_29  and  S_31
   20  A    between atoms: S_31  and  N_43
   21  A    between atoms: C_34  and  C_41
   22  A    between atoms: O_37  and  C_58
   23  A    between atoms: C_39  and  C_58
   24  A    between atoms: C_41  and  N_43
   25  A    between atoms: C_46  and  O_51
   26  A    between atoms: C_46  and  C_58
   27  A    between atoms: C_49  and  C_61
   28  A    between atoms: C_49  and  C_62
   29  A    between atoms: C_62  and  C_64
                            x       y       z     vdW  Elec       q    Type
                         _______ _______ _______ _____ _____    ______ ____

>  <TORSDO>
F 29

$$$$
=
 OpenBabel11032420063D

 66 69  0  0  1  0  0  0  0  0999 V2000
  189.8460  176.3330  140.2790 C   0  0  0  0  0  3  0  0  0  0  0  0
  187.7450  175.7220  143.1370 C   0  0  0  0  0  2  0  0  0  0  0  0
  189.2900  176.5100  141.4400 C   0  0  0  0  0  0  0  0  0  0  0  0
  188.7410  177.9610  144.6960 C   0  0  0  0  0  0  0  0  0  0  0  0
  186.9930  176.2850  144.3170 C   0  0  0  0  0  3  0  0  0  0  0  0
  189.3350  177.6840  143.5300 C   0  0  0  0  0  3  0  0  0  0  0  0
  188.7470  176.7040  142.6100 C   0  0  0  0  0  0  0  0  0  0  0  0
  187.4460  177.3070  145.0640 C   0  0  0  0  0  0  0  0  0  0  0  0
  190.8580  177.2370  139.8370 N   0  0  0  0  0  2  0  0  0  0  0  0
  190.7950  177.9250  138.5520 C   0  0  2  0  0  3  0  0  0  0  0  0
  187.0580  178.5740  136.9130 Cl  0  0  0  0  0  0  0  0  0  0  0  0
  189.3780  178.5090  138.3270 C   0  0  0  0  0  2  0  0  0  0  0  0
  191.3050  177.0440  137.3820 C   0  0  2  0  0  3  0  0  0  0  0  0
  190.2110  176.1920  136.8020 C   0  0  0  0  0  3  0  0  0  0  0  0
  188.7940  178.1950  136.9450 C   0  0  1  0  0  3  0  0  0  0  0  0
  189.0110  176.7470  136.5920 C   0  0  0  0  0  3  0  0  0  0  0  0
  193.8460  176.9850  138.3330 O   0  0  0  0  0  0  0  0  0  0  0  0
  192.3990  175.0460  138.8000 O   0  0  0  0  0  0  0  0  0  0  0  0
  192.7700  176.0840  137.7720 S   0  0  0  0  0  0  0  0  0  0  0  0
  193.3300  175.2910  136.3310 N   0  0  0  0  0  2  0  0  0  0  0  0
  193.9000  176.3050  135.4620 C   0  0  0  0  0  2  0  0  0  0  0  0
  196.0770  176.9810  134.7590 O   0  0  0  0  0  0  0  0  0  0  0  0
  195.3890  176.2370  135.5110 C   0  0  0  0  0  0  0  0  0  0  0  0
  196.0160  175.3390  136.3670 O   0  0  0  0  0  1  0  0  0  0  0  0
  186.6490  177.7920  146.1660 N   0  0  0  0  0  0  0  0  0  0  0  0
  184.6420  177.8170  144.7520 C   0  0  0  0  0  2  0  0  0  0  0  0
  185.3810  178.4890  145.8900 C   0  0  2  0  0  3  0  0  0  0  0  0
  185.5980  179.9540  145.5250 C   0  0  0  0  0  2  0  0  0  0  0  0
  184.3360  180.4630  144.3190 S   0  0  0  0  0  0  0  0  0  0  0  0
  183.5970  178.7950  144.2730 C   0  0  1  0  0  3  0  0  0  0  0  0
  183.8110  178.9390  141.8620 N   0  0  0  0  0  0  0  0  0  0  0  0
  183.1980  178.4340  142.8800 C   0  0  0  0  0  3  0  0  0  0  0  0
  184.2830  178.7660  139.4520 C   0  0  0  0  0  0  0  0  0  0  0  0
  183.4170  178.5790  140.5700 N   0  0  0  0  0  2  0  0  0  0  0  0
  185.4510  179.2150  139.6190 O   0  0  0  0  0  0  0  0  0  0  0  0
  183.7940  178.4470  138.0780 C   0  0  0  0  0  2  0  0  0  0  0  0
  182.4040  177.8360  138.1380 C   0  0  0  0  0  2  0  0  0  0  0  0
  181.7030  177.9650  136.7870 C   0  0  2  0  0  3  0  0  0  0  0  0
  181.0970  176.6830  136.2140 C   0  0  2  0  0  0  0  0  0  0  0  0
  182.4080  177.2210  135.6360 C   0  0  2  0  0  3  0  0  0  0  0  0
  178.9330  177.6710  136.0020 O   0  0  0  0  0  1  0  0  0  0  0  0
  179.9100  176.9630  135.3050 C   0  0  0  0  0  2  0  0  0  0  0  0
  183.5200  176.4970  136.0810 O   0  0  0  0  0  0  0  0  0  0  0  0
  184.8790  174.9890  134.8350 C   0  0  0  0  0  1  0  0  0  0  0  0
  184.3520  176.4040  134.9610 C   0  0  0  0  0  2  0  0  0  0  0  0
  181.0910  175.3070  136.9480 C   0  0  1  0  0  3  0  0  0  0  0  0
  179.2180  174.1860  140.0350 O   0  0  0  0  0  1  0  0  0  0  0  0
  180.0060  174.1690  138.9300 N   0  0  0  0  0  2  0  0  0  0  0  0
  179.6900  176.4400  138.5360 O   0  0  0  0  0  0  0  0  0  0  0  0
  180.2170  175.3550  138.1680 C   0  0  0  0  0  0  0  0  0  0  0  0
  180.7360  174.2180  136.1430 O   0  0  0  0  0  0  0  0  0  0  0  0
  181.9390  173.5610  135.8670 C   0  0  0  0  0  2  0  0  0  0  0  0
  183.1420  171.4840  136.1870 N   0  0  0  0  0  1  0  0  0  0  0  0
  181.9810  172.2380  136.6140 C   0  0  0  0  0  2  0  0  0  0  0  0
  186.7610  179.1030  148.1030 O   0  0  0  0  0  1  0  0  0  0  0  0
  187.2750  177.9660  147.4800 C   0  0  0  0  0  2  0  0  0  0  0  0
  189.4760  178.8440  145.6530 C   0  0  0  0  0  2  0  0  0  0  0  0
  190.1760  177.0210  147.1300 C   0  0  0  0  0  3  0  0  0  0  0  0
  190.5220  178.0470  146.3630 C   0  0  0  0  0  3  0  0  0  0  0  0
  191.2260  176.2410  147.8480 C   0  0  0  0  0  2  0  0  0  0  0  0
  192.3980  175.9520  146.9240 C   0  0  1  0  0  3  0  0  0  0  0  0
  193.1720  175.8410  148.9930 C   0  0  0  0  0  1  0  0  0  0  0  0
  193.4880  175.5100  147.6800 O   0  0  0  0  0  0  0  0  0  0  0  0
  192.0070  174.8730  145.9200 C   0  0  0  0  0  2  0  0  0  0  0  0
  191.6100  174.8600  143.7480 C   0  0  0  0  0  1  0  0  0  0  0  0
  192.6070  175.1320  144.6860 O   0  0  0  0  0  0  0  0  0  0  0  0
  1  3  2  0  0  0  0
  2  5  1  0  0  0  0
  3  7  2  0  0  0  0
  4  8  1  0  0  0  0
  4 57  1  0  0  0  0
  5  8  2  0  0  0  0
  6  4  2  0  0  0  0
  7  2  1  0  0  0  0
  7  6  1  0  0  0  0
  8 25  1  0  0  0  0
  9  1  1  0  0  0  0
 10  9  1  1  0  0  0
 12 10  1  0  0  0  0
 13 19  1  1  0  0  0
 13 10  1  0  0  0  0
 14 13  1  0  0  0  0
 15 11  1  1  0  0  0
 15 12  1  0  0  0  0
 16 14  2  0  0  0  0
 16 15  1  0  0  0  0
 19 17  2  0  0  0  0
 19 18  2  0  0  0  0
 20 19  1  0  0  0  0
 21 23  1  0  0  0  0
 21 20  1  0  0  0  0
 22 23  2  0  0  0  0
 23 24  1  0  0  0  0
 25 56  1  0  0  0  0
 26 27  1  0  0  0  0
 27 25  1  6  0  0  0
 28 27  1  0  0  0  0
 29 28  1  0  0  0  0
 30 32  1  6  0  0  0
 30 29  1  0  0  0  0
 30 26  1  0  0  0  0
 31 32  2  0  0  0  0
 33 35  2  0  0  0  0
 33 34  1  0  0  0  0
 34 31  1  0  0  0  0
 36 37  1  0  0  0  0
 36 33  1  0  0  0  0
 38 37  1  1  0  0  0
 39 42  1  6  0  0  0
 39 38  1  0  0  0  0
 39 46  1  0  0  0  0
 40 43  1  1  0  0  0
 40 39  1  0  0  0  0
 40 38  1  0  0  0  0
 42 41  1  0  0  0  0
 44 45  1  0  0  0  0
 45 43  1  0  0  0  0
 46 51  1  6  0  0  0
 46 50  1  0  0  0  0
 48 47  1  0  0  0  0
 50 49  2  0  0  0  0
 50 48  1  0  0  0  0
 52 51  1  0  0  0  0
 52 54  1  0  0  0  0
 53 54  1  0  0  0  0
 56 55  1  0  0  0  0
 57 59  1  0  0  0  0
 58 60  1  0  0  0  0
 59 58  2  0  0  0  0
 61 64  1  6  0  0  0
 61 63  1  0  0  0  0
 61 60  1  0  0  0  0
 63 62  1  0  0  0  0
 65 66  1  0  0  0  0
 66 64  1  0  0  0  0
M  END
>  <MODEL>
3

>  <REMARK>
 VINA RESULT:      -2.9      2.891      9.684
  Name = 
  29 active torsions:
  status: ('A' for Active; 'I' for Inactive)
    1  A    between atoms: C_1  and  C_18
    2  A    between atoms: C_1  and  C_55
    3  A    between atoms: C_6  and  C_26
    4  A    between atoms: C_6  and  C_47
    5  A    between atoms: C_7  and  N_17
    6  A    between atoms: C_10  and  N_17
    7  A    between atoms: O_12  and  C_53
    8  A    between atoms: O_12  and  C_66
    9  A    between atoms: N_13  and  N_21
   10  A    between atoms: O_14  and  C_15
   11  A    between atoms: O_14  and  C_62
   12  A    between atoms: C_15  and  C_60
   13  A    between atoms: N_16  and  C_33
   14  A    between atoms: N_16  and  C_50
   15  A    between atoms: N_16  and  C_56
   16  A    between atoms: C_19  and  C_26
   17  A    between atoms: C_23  and  C_65
   18  A    between atoms: C_28  and  C_39
   19  A    between atoms: C_29  and  S_31
   20  A    between atoms: S_31  and  N_43
   21  A    between atoms: C_34  and  C_41
   22  A    between atoms: O_37  and  C_58
   23  A    between atoms: C_39  and  C_58
   24  A    between atoms: C_41  and  N_43
   25  A    between atoms: C_46  and  O_51
   26  A    between atoms: C_46  and  C_58
   27  A    between atoms: C_49  and  C_61
   28  A    between atoms: C_49  and  C_62
   29  A    between atoms: C_62  and  C_64
                            x       y       z     vdW  Elec       q    Type
                         _______ _______ _______ _____ _____    ______ ____

>  <TORSDO>
F 29

$$$$
=
 OpenBabel11032420063D

 66 69  0  0  1  0  0  0  0  0999 V2000
  191.5860  177.5050  138.2380 C   0  0  0  0  0  3  0  0  0  0  0  0
  188.5180  178.3710  139.9100 C   0  0  0  0  0  2  0  0  0  0  0  0
  190.6760  177.5490  139.1650 C   0  0  0  0  0  0  0  0  0  0  0  0
  188.9700  176.6660  142.2170 C   0  0  0  0  0  0  0  0  0  0  0  0
  187.7760  178.5560  141.2100 C   0  0  0  0  0  3  0  0  0  0  0  0
  189.8330  176.5980  141.1980 C   0  0  0  0  0  3  0  0  0  0  0  0
  189.7730  177.5750  140.1060 C   0  0  0  0  0  0  0  0  0  0  0  0
  187.9560  177.7650  142.2830 C   0  0  0  0  0  0  0  0  0  0  0  0
  192.7320  176.6740  138.4150 N   0  0  0  0  0  2  0  0  0  0  0  0
  193.4670  176.0950  137.2950 C   0  0  2  0  0  3  0  0  0  0  0  0
  191.3390  173.8050  134.5940 Cl  0  0  0  0  0  0  0  0  0  0  0  0
  192.4900  175.7060  136.1580 C   0  0  0  0  0  2  0  0  0  0  0  0
  194.4090  174.9440  137.7370 C   0  0  2  0  0  3  0  0  0  0  0  0
  193.7040  173.6170  137.7570 C   0  0  0  0  0  3  0  0  0  0  0  0
  192.7130  174.2910  135.6110 C   0  0  1  0  0  3  0  0  0  0  0  0
  192.8940  173.3070  136.7360 C   0  0  0  0  0  3  0  0  0  0  0  0
  194.9420  176.6380  139.7890 O   0  0  0  0  0  0  0  0  0  0  0  0
  194.8710  174.2250  140.2800 O   0  0  0  0  0  0  0  0  0  0  0  0
  195.2880  175.2620  139.2680 S   0  0  0  0  0  0  0  0  0  0  0  0
  196.9960  175.1320  138.9820 N   0  0  0  0  0  2  0  0  0  0  0  0
  197.2160  175.2760  137.5540 C   0  0  0  0  0  2  0  0  0  0  0  0
  198.7330  173.4390  137.6830 O   0  0  0  0  0  1  0  0  0  0  0  0
  197.8520  174.0420  137.0110 C   0  0  0  0  0  0  0  0  0  0  0  0
  197.4900  173.5690  135.7540 O   0  0  0  0  0  0  0  0  0  0  0  0
  187.2140  178.0270  143.4940 N   0  0  0  0  0  0  0  0  0  0  0  0
  185.2310  177.5730  142.1200 C   0  0  0  0  0  2  0  0  0  0  0  0
  185.7450  178.1150  143.4370 C   0  0  2  0  0  3  0  0  0  0  0  0
  185.2470  179.5480  143.5940 C   0  0  0  0  0  2  0  0  0  0  0  0
  183.7420  179.7720  142.5990 S   0  0  0  0  0  0  0  0  0  0  0  0
  183.8090  178.0600  141.9730 C   0  0  1  0  0  3  0  0  0  0  0  0
  183.7140  178.9870  139.7350 N   0  0  0  0  0  0  0  0  0  0  0  0
  183.4280  178.0100  140.5300 C   0  0  0  0  0  3  0  0  0  0  0  0
  181.9870  179.0560  137.9820 C   0  0  0  0  0  0  0  0  0  0  0  0
  183.3470  178.9110  138.3880 N   0  0  0  0  0  2  0  0  0  0  0  0
  181.0910  179.3120  138.8330 O   0  0  0  0  0  0  0  0  0  0  0  0
  181.6250  178.8840  136.5430 C   0  0  0  0  0  2  0  0  0  0  0  0
  182.3290  177.6720  135.9580 C   0  0  0  0  0  2  0  0  0  0  0  0
  181.3170  176.7120  135.3360 C   0  0  2  0  0  3  0  0  0  0  0  0
  181.2360  175.3170  135.9590 C   0  0  2  0  0  0  0  0  0  0  0  0
  181.9510  175.5030  134.6190 C   0  0  2  0  0  3  0  0  0  0  0  0
  179.2590  175.1630  134.6280 O   0  0  0  0  0  1  0  0  0  0  0  0
  179.8590  174.6930  135.7940 C   0  0  0  0  0  2  0  0  0  0  0  0
  183.3440  175.4830  134.7550 O   0  0  0  0  0  0  0  0  0  0  0  0
  185.2020  173.9990  134.6200 C   0  0  0  0  0  1  0  0  0  0  0  0
  183.6940  174.1380  134.5950 C   0  0  0  0  0  2  0  0  0  0  0  0
  182.0530  174.8620  137.2070 C   0  0  1  0  0  3  0  0  0  0  0  0
  179.5620  176.4810  139.5450 O   0  0  0  0  0  1  0  0  0  0  0  0
  180.1680  176.0440  138.4120 N   0  0  0  0  0  2  0  0  0  0  0  0
  181.9260  175.0810  139.5940 O   0  0  0  0  0  0  0  0  0  0  0  0
  181.4020  175.3330  138.4760 C   0  0  0  0  0  0  0  0  0  0  0  0
  182.2960  173.4840  137.2730 O   0  0  0  0  0  0  0  0  0  0  0  0
  181.4430  172.9170  136.3210 C   0  0  0  0  0  2  0  0  0  0  0  0
  181.4220  170.6360  135.5110 N   0  0  0  0  0  1  0  0  0  0  0  0
  181.1780  171.4630  136.6750 C   0  0  0  0  0  2  0  0  0  0  0  0
  186.9910  178.8860  145.6610 O   0  0  0  0  0  1  0  0  0  0  0  0
  187.9080  178.6070  144.6480 C   0  0  0  0  0  2  0  0  0  0  0  0
  188.9820  175.5470  143.2090 C   0  0  0  0  0  2  0  0  0  0  0  0
  190.5300  177.0540  144.3610 C   0  0  0  0  0  3  0  0  0  0  0  0
  189.8230  175.9310  144.3830 C   0  0  0  0  0  3  0  0  0  0  0  0
  191.3800  177.4220  145.5310 C   0  0  0  0  0  2  0  0  0  0  0  0
  190.8100  176.8280  146.8090 C   0  0  1  0  0  3  0  0  0  0  0  0
  192.3380  175.4590  147.6340 C   0  0  0  0  0  1  0  0  0  0  0  0
  191.8190  176.7410  147.7720 O   0  0  0  0  0  0  0  0  0  0  0  0
  189.6850  177.7160  147.3320 C   0  0  0  0  0  2  0  0  0  0  0  0
  187.9300  177.9160  148.6570 C   0  0  0  0  0  1  0  0  0  0  0  0
  188.8840  176.9950  148.2210 O   0  0  0  0  0  0  0  0  0  0  0  0
  1  9  1  0  0  0  0
  1  3  2  0  0  0  0
  2  7  1  0  0  0  0
  2  5  1  0  0  0  0
  3  7  2  0  0  0  0
  4  8  1  0  0  0  0
  4 57  1  0  0  0  0
  5  8  2  0  0  0  0
  6  4  2  0  0  0  0
  7  6  1  0  0  0  0
  8 25  1  0  0  0  0
 10 13  1  0  0  0  0
 10  9  1  1  0  0  0
 12 10  1  0  0  0  0
 13 14  1  0  0  0  0
 13 19  1  1  0  0  0
 15 11  1  1  0  0  0
 15 12  1  0  0  0  0
 15 16  1  0  0  0  0
 16 14  2  0  0  0  0
 19 17  2  0  0  0  0
 19 18  2  0  0  0  0
 20 19  1  0  0  0  0
 21 20  1  0  0  0  0
 23 21  1  0  0  0  0
 23 22  1  0  0  0  0
 24 23  2  0  0  0  0
 25 56  1  0  0  0  0
 26 27  1  0  0  0  0
 27 25  1  6  0  0  0
 27 28  1  0  0  0  0
 29 28  1  0  0  0  0
 30 32  1  6  0  0  0
 30 26  1  0  0  0  0
 30 29  1  0  0  0  0
 31 32  2  0  0  0  0
 33 34  1  0  0  0  0
 33 35  2  0  0  0  0
 34 31  1  0  0  0  0
 36 33  1  0  0  0  0
 37 36  1  0  0  0  0
 38 37  1  1  0  0  0
 38 39  1  0  0  0  0
 39 42  1  6  0  0  0
 39 46  1  0  0  0  0
 40 43  1  1  0  0  0
 40 38  1  0  0  0  0
 40 39  1  0  0  0  0
 41 42  1  0  0  0  0
 45 44  1  0  0  0  0
 45 43  1  0  0  0  0
 46 51  1  1  0  0  0
 46 50  1  0  0  0  0
 48 50  1  0  0  0  0
 48 47  1  0  0  0  0
 50 49  2  0  0  0  0
 52 54  1  0  0  0  0
 52 51  1  0  0  0  0
 53 54  1  0  0  0  0
 56 55  1  0  0  0  0
 57 59  1  0  0  0  0
 58 59  2  0  0  0  0
 58 60  1  0  0  0  0
 61 60  1  6  0  0  0
 61 64  1  0  0  0  0
 61 63  1  0  0  0  0
 62 63  1  0  0  0  0
 64 66  1  0  0  0  0
 66 65  1  0  0  0  0
M  END
>  <MODEL>
4

>  <REMARK>
 VINA RESULT:      -1.7      3.280      9.865
  Name = 
  29 active torsions:
  status: ('A' for Active; 'I' for Inactive)
    1  A    between atoms: C_1  and  C_18
    2  A    between atoms: C_1  and  C_55
    3  A    between atoms: C_6  and  C_26
    4  A    between atoms: C_6  and  C_47
    5  A    between atoms: C_7  and  N_17
    6  A    between atoms: C_10  and  N_17
    7  A    between atoms: O_12  and  C_53
    8  A    between atoms: O_12  and  C_66
    9  A    between atoms: N_13  and  N_21
   10  A    between atoms: O_14  and  C_15
   11  A    between atoms: O_14  and  C_62
   12  A    between atoms: C_15  and  C_60
   13  A    between atoms: N_16  and  C_33
   14  A    between atoms: N_16  and  C_50
   15  A    between atoms: N_16  and  C_56
   16  A    between atoms: C_19  and  C_26
   17  A    between atoms: C_23  and  C_65
   18  A    between atoms: C_28  and  C_39
   19  A    between atoms: C_29  and  S_31
   20  A    between atoms: S_31  and  N_43
   21  A    between atoms: C_34  and  C_41
   22  A    between atoms: O_37  and  C_58
   23  A    between atoms: C_39  and  C_58
   24  A    between atoms: C_41  and  N_43
   25  A    between atoms: C_46  and  O_51
   26  A    between atoms: C_46  and  C_58
   27  A    between atoms: C_49  and  C_61
   28  A    between atoms: C_49  and  C_62
   29  A    between atoms: C_62  and  C_64
                            x       y       z     vdW  Elec       q    Type
                         _______ _______ _______ _____ _____    ______ ____

>  <TORSDO>
F 29

$$$$
