=
 OpenBabel11042412183D

 34 36  0  0  1  0  0  0  0  0999 V2000
  186.7870  178.2140  140.1310 C   0  0  2  0  0  3  0  0  0  0  0  0
  185.1960  178.5510  139.3220 S   0  0  0  0  0  0  0  0  0  0  0  0
  186.7120  178.6980  141.5670 C   0  0  1  0  0  3  0  0  0  0  0  0
  185.3040  178.4400  142.0710 C   0  0  1  0  0  3  0  0  0  0  0  0
  184.9530  179.4220  143.1720 C   0  0  0  0  0  1  0  0  0  0  0  0
  184.3180  178.5800  140.9180 C   0  0  2  0  0  3  0  0  0  0  0  0
  187.7430  178.0330  142.4340 C   0  0  0  0  0  0  0  0  0  0  0  0
  188.9970  178.4970  142.3600 C   0  0  0  0  0  3  0  0  0  0  0  0
  190.1660  178.0110  143.1160 C   0  0  0  0  0  0  0  0  0  0  0  0
  190.8250  178.9010  144.0080 N   0  0  0  0  0  1  0  0  0  0  0  0
  190.5940  176.8350  142.9890 O   0  0  0  0  0  0  0  0  0  0  0  0
  187.3510  176.9200  143.3700 C   0  0  0  0  0  2  0  0  0  0  0  0
  186.3980  178.0400  145.4070 C   0  0  0  0  0  3  0  0  0  0  0  0
  187.4480  177.3410  144.7990 C   0  0  0  0  0  0  0  0  0  0  0  0
  187.6250  178.0690  147.4950 C   0  0  0  0  0  0  0  0  0  0  0  0
  188.6740  177.3730  146.8890 C   0  0  0  0  0  3  0  0  0  0  0  0
  186.4880  178.4040  146.7530 C   0  0  0  0  0  3  0  0  0  0  0  0
  187.7100  178.4200  148.8010 F   0  0  0  0  0  0  0  0  0  0  0  0
  188.5860  177.0090  145.5420 C   0  0  0  0  0  3  0  0  0  0  0  0
  183.3000  177.4480  140.9460 C   0  0  0  0  0  2  0  0  0  0  0  0
  181.9910  177.8470  140.2760 C   0  0  0  0  0  2  0  0  0  0  0  0
  181.5470  179.2410  140.6970 C   0  0  0  0  0  2  0  0  0  0  0  0
  179.8270  177.8990  141.7820 N   0  0  0  0  0  2  0  0  0  0  0  0
  180.1410  179.2210  141.2830 C   0  0  1  0  0  3  0  0  0  0  0  0
  180.1530  179.7970  142.5950 C   0  0  0  0  0  2  0  0  0  0  0  0
  179.6010  177.9860  144.2960 O   0  0  0  0  0  0  0  0  0  0  0  0
  179.8110  178.4520  143.1480 C   0  0  0  0  0  0  0  0  0  0  0  0
  187.9030  178.8200  139.4030 N   0  0  0  0  0  2  0  0  0  0  0  0
  188.1920  178.0380  138.2720 N   0  0  0  0  0  2  0  0  0  0  0  0
  189.2080  177.0850  138.6750 C   0  0  0  0  0  2  0  0  0  0  0  0
  190.2930  177.7690  139.2260 O   0  0  0  0  0  0  0  0  0  0  0  0
  191.6200  176.1830  138.2670 O   0  0  0  0  0  1  0  0  0  0  0  0
  191.2490  176.7820  139.4700 C   0  0  1  0  0  3  0  0  0  0  0  0
  192.4690  177.4070  140.1180 C   0  0  0  0  0  1  0  0  0  0  0  0
  1 28  1  6  0  0  0
  1  3  1  0  0  0  0
  2  1  1  0  0  0  0
  2  6  1  0  0  0  0
  3  4  1  0  0  0  0
  3  7  1  1  0  0  0
  4  5  1  1  0  0  0
  6 20  1  6  0  0  0
  6  4  1  0  0  0  0
  7 12  1  0  0  0  0
  8  7  2  0  0  0  0
  8  9  1  0  0  0  0
  9 10  1  0  0  0  0
 11  9  2  0  0  0  0
 12 14  1  0  0  0  0
 13 17  1  0  0  0  0
 14 13  2  0  0  0  0
 14 19  1  0  0  0  0
 15 18  1  0  0  0  0
 16 15  1  0  0  0  0
 17 15  2  0  0  0  0
 19 16  2  0  0  0  0
 21 22  1  0  0  0  0
 21 20  1  0  0  0  0
 23 27  1  0  0  0  0
 24 22  1  1  0  0  0
 24 23  1  0  0  0  0
 24 25  1  0  0  0  0
 25 27  1  0  0  0  0
 27 26  2  0  0  0  0
 29 30  1  0  0  0  0
 29 28  1  0  0  0  0
 30 31  1  0  0  0  0
 31 33  1  0  0  0  0
 32 33  1  0  0  0  0
 33 34  1  6  0  0  0
M  END
>  <MODEL>
1

>  <REMARK>
 VINA RESULT:      -7.6      0.000      0.000
  Name = 
  13 active torsions:
  status: ('A' for Active; 'I' for Inactive)
    1  A    between atoms: C_2  and  C_21
    2  A    between atoms: C_2  and  C_34
    3  A    between atoms: C_3  and  C_19
    4  A    between atoms: C_3  and  C_30
    5  A    between atoms: C_4  and  C_30
    6  A    between atoms: C_5  and  C_28
    7  A    between atoms: C_6  and  N_9
    8  A    between atoms: N_9  and  N_29
    9  A    between atoms: C_12  and  C_18
   10  A    between atoms: C_15  and  O_25
   11  A    between atoms: C_18  and  C_21
   12  A    between atoms: O_25  and  C_26
   13  A    between atoms: C_26  and  N_29
                            x       y       z     vdW  Elec       q    Type
                         _______ _______ _______ _____ _____    ______ ____

>  <TORSDO>
F 13

$$$$
=
 OpenBabel11042412183D

 34 36  0  0  1  0  0  0  0  0999 V2000
  187.5400  178.2210  141.7050 C   0  0  2  0  0  3  0  0  0  0  0  0
  186.8820  178.3240  140.0160 S   0  0  0  0  0  0  0  0  0  0  0  0
  188.7510  177.3070  141.6980 C   0  0  1  0  0  3  0  0  0  0  0  0
  189.4900  177.5250  140.3910 C   0  0  1  0  0  3  0  0  0  0  0  0
  190.2670  176.2790  140.0140 C   0  0  0  0  0  1  0  0  0  0  0  0
  188.4900  177.8660  139.2920 C   0  0  2  0  0  3  0  0  0  0  0  0
  189.6390  177.5490  142.8860 C   0  0  0  0  0  0  0  0  0  0  0  0
  190.3050  178.7100  142.9270 C   0  0  0  0  0  3  0  0  0  0  0  0
  191.2200  179.1680  143.9880 C   0  0  0  0  0  0  0  0  0  0  0  0
  192.2810  178.3130  144.3960 N   0  0  0  0  0  1  0  0  0  0  0  0
  191.0830  180.2900  144.5410 O   0  0  0  0  0  0  0  0  0  0  0  0
  189.7280  176.5310  143.9910 C   0  0  0  0  0  2  0  0  0  0  0  0
  187.8060  177.4920  145.2920 C   0  0  0  0  0  3  0  0  0  0  0  0
  189.1320  177.0410  145.2610 C   0  0  0  0  0  0  0  0  0  0  0  0
  188.0120  177.9390  147.6640 C   0  0  0  0  0  0  0  0  0  0  0  0
  189.3350  177.4910  147.6330 C   0  0  0  0  0  3  0  0  0  0  0  0
  187.2480  177.9410  146.4920 C   0  0  0  0  0  3  0  0  0  0  0  0
  187.4700  178.3720  148.8270 F   0  0  0  0  0  0  0  0  0  0  0  0
  189.8950  177.0420  146.4330 C   0  0  0  0  0  3  0  0  0  0  0  0
  189.0020  179.0220  138.4440 C   0  0  0  0  0  2  0  0  0  0  0  0
  189.2040  178.6120  136.9920 C   0  0  0  0  0  2  0  0  0  0  0  0
  188.1710  177.5840  136.5490 C   0  0  0  0  0  2  0  0  0  0  0  0
  190.1310  176.1500  136.3520 N   0  0  0  0  0  2  0  0  0  0  0  0
  188.8240  176.4310  135.7980 C   0  0  1  0  0  3  0  0  0  0  0  0
  188.2800  175.1850  136.2530 C   0  0  0  0  0  2  0  0  0  0  0  0
  190.1070  173.8730  137.4460 O   0  0  0  0  0  0  0  0  0  0  0  0
  189.6190  174.8510  136.8220 C   0  0  0  0  0  0  0  0  0  0  0  0
  186.5200  177.7770  142.6570 N   0  0  0  0  0  2  0  0  0  0  0  0
  185.3300  178.4850  142.4190 N   0  0  0  0  0  2  0  0  0  0  0  0
  185.2270  179.4860  143.4630 C   0  0  0  0  0  2  0  0  0  0  0  0
  183.8890  179.8490  143.6260 O   0  0  0  0  0  0  0  0  0  0  0  0
  183.5410  179.0620  145.7370 O   0  0  0  0  0  1  0  0  0  0  0  0
  183.3300  178.8160  144.3810 C   0  0  1  0  0  3  0  0  0  0  0  0
  181.8410  178.7400  144.1100 C   0  0  0  0  0  1  0  0  0  0  0  0
  1 28  1  1  0  0  0
  2  1  1  0  0  0  0
  3  1  1  0  0  0  0
  3  7  1  1  0  0  0
  4  5  1  6  0  0  0
  4  3  1  0  0  0  0
  6 20  1  1  0  0  0
  6  2  1  0  0  0  0
  6  4  1  0  0  0  0
  7  8  2  0  0  0  0
  7 12  1  0  0  0  0
  8  9  1  0  0  0  0
  9 10  1  0  0  0  0
  9 11  2  0  0  0  0
 12 14  1  0  0  0  0
 13 17  1  0  0  0  0
 14 13  2  0  0  0  0
 14 19  1  0  0  0  0
 15 18  1  0  0  0  0
 16 15  1  0  0  0  0
 17 15  2  0  0  0  0
 19 16  2  0  0  0  0
 21 20  1  0  0  0  0
 22 21  1  0  0  0  0
 23 27  1  0  0  0  0
 24 25  1  0  0  0  0
 24 23  1  0  0  0  0
 24 22  1  1  0  0  0
 25 27  1  0  0  0  0
 27 26  2  0  0  0  0
 29 28  1  0  0  0  0
 29 30  1  0  0  0  0
 30 31  1  0  0  0  0
 31 33  1  0  0  0  0
 33 34  1  1  0  0  0
 33 32  1  0  0  0  0
M  END
>  <MODEL>
2

>  <REMARK>
 VINA RESULT:      -7.5      2.553      6.677
  Name = 
  13 active torsions:
  status: ('A' for Active; 'I' for Inactive)
    1  A    between atoms: C_2  and  C_21
    2  A    between atoms: C_2  and  C_34
    3  A    between atoms: C_3  and  C_19
    4  A    between atoms: C_3  and  C_30
    5  A    between atoms: C_4  and  C_30
    6  A    between atoms: C_5  and  C_28
    7  A    between atoms: C_6  and  N_9
    8  A    between atoms: N_9  and  N_29
    9  A    between atoms: C_12  and  C_18
   10  A    between atoms: C_15  and  O_25
   11  A    between atoms: C_18  and  C_21
   12  A    between atoms: O_25  and  C_26
   13  A    between atoms: C_26  and  N_29
                            x       y       z     vdW  Elec       q    Type
                         _______ _______ _______ _____ _____    ______ ____

>  <TORSDO>
F 13

$$$$
=
 OpenBabel11042412183D

 34 36  0  0  1  0  0  0  0  0999 V2000
  188.1090  177.7730  139.4710 C   0  0  2  0  0  3  0  0  0  0  0  0
  187.8410  178.3380  141.1760 S   0  0  0  0  0  0  0  0  0  0  0  0
  189.5980  177.5710  139.2560 C   0  0  1  0  0  3  0  0  0  0  0  0
  190.1850  177.0370  140.5490 C   0  0  1  0  0  3  0  0  0  0  0  0
  191.6510  177.4130  140.6540 C   0  0  0  0  0  1  0  0  0  0  0  0
  189.4160  177.6110  141.7330 C   0  0  2  0  0  3  0  0  0  0  0  0
  189.8750  176.6550  138.0990 C   0  0  0  0  0  0  0  0  0  0  0  0
  189.2770  175.4570  138.1080 C   0  0  0  0  0  3  0  0  0  0  0  0
  189.3920  174.4030  137.0840 C   0  0  0  0  0  0  0  0  0  0  0  0
  188.6380  174.5250  135.8840 N   0  0  0  0  0  1  0  0  0  0  0  0
  190.1330  173.3990  137.2470 O   0  0  0  0  0  0  0  0  0  0  0  0
  190.7600  177.1030  136.9660 C   0  0  0  0  0  2  0  0  0  0  0  0
  192.3410  175.7010  135.6070 C   0  0  0  0  0  3  0  0  0  0  0  0
  191.9770  176.2480  136.8440 C   0  0  0  0  0  0  0  0  0  0  0  0
  194.2960  174.6950  136.6240 C   0  0  0  0  0  0  0  0  0  0  0  0
  193.9320  175.2380  137.8600 C   0  0  0  0  0  3  0  0  0  0  0  0
  193.4990  174.9250  135.4980 C   0  0  0  0  0  3  0  0  0  0  0  0
  195.4180  173.9450  136.5180 F   0  0  0  0  0  0  0  0  0  0  0  0
  192.7740  176.0140  137.9700 C   0  0  0  0  0  3  0  0  0  0  0  0
  189.1270  176.5240  142.7590 C   0  0  0  0  0  2  0  0  0  0  0  0
  189.7060  176.8690  144.1260 C   0  0  0  0  0  2  0  0  0  0  0  0
  188.8610  177.9100  144.8470 C   0  0  0  0  0  2  0  0  0  0  0  0
  187.3710  177.7610  146.7690 N   0  0  0  0  0  2  0  0  0  0  0  0
  187.5900  177.2930  145.4170 C   0  0  1  0  0  3  0  0  0  0  0  0
  186.4430  177.9880  144.9090 C   0  0  0  0  0  2  0  0  0  0  0  0
  185.2950  179.1990  146.8320 O   0  0  0  0  0  0  0  0  0  0  0  0
  186.1730  178.4770  146.2950 C   0  0  0  0  0  0  0  0  0  0  0  0
  187.5330  178.7010  138.4970 N   0  0  0  0  0  2  0  0  0  0  0  0
  186.6570  177.9980  137.6540 N   0  0  0  0  0  2  0  0  0  0  0  0
  185.3280  178.1540  138.2140 C   0  0  0  0  0  2  0  0  0  0  0  0
  185.2090  179.4240  138.7800 O   0  0  0  0  0  0  0  0  0  0  0  0
  182.9830  178.9870  138.5640 O   0  0  0  0  0  1  0  0  0  0  0  0
  183.9810  179.4060  139.4430 C   0  0  1  0  0  3  0  0  0  0  0  0
  184.0530  178.4490  140.6160 C   0  0  0  0  0  1  0  0  0  0  0  0
  1 28  1  6  0  0  0
  1  2  1  0  0  0  0
  2  6  1  0  0  0  0
  3  7  1  6  0  0  0
  3  1  1  0  0  0  0
  3  4  1  0  0  0  0
  4  5  1  1  0  0  0
  4  6  1  0  0  0  0
  6 20  1  1  0  0  0
  7  8  2  0  0  0  0
  9 11  2  0  0  0  0
  9  8  1  0  0  0  0
 10  9  1  0  0  0  0
 12  7  1  0  0  0  0
 13 14  1  0  0  0  0
 14 12  1  0  0  0  0
 14 19  2  0  0  0  0
 15 16  2  0  0  0  0
 16 19  1  0  0  0  0
 17 13  2  0  0  0  0
 17 15  1  0  0  0  0
 18 15  1  0  0  0  0
 20 21  1  0  0  0  0
 21 22  1  0  0  0  0
 24 22  1  6  0  0  0
 24 23  1  0  0  0  0
 25 24  1  0  0  0  0
 25 27  1  0  0  0  0
 27 23  1  0  0  0  0
 27 26  2  0  0  0  0
 29 30  1  0  0  0  0
 29 28  1  0  0  0  0
 30 31  1  0  0  0  0
 31 33  1  0  0  0  0
 32 33  1  0  0  0  0
 33 34  1  1  0  0  0
M  END
>  <MODEL>
3

>  <REMARK>
 VINA RESULT:      -7.5      4.081      8.005
  Name = 
  13 active torsions:
  status: ('A' for Active; 'I' for Inactive)
    1  A    between atoms: C_2  and  C_21
    2  A    between atoms: C_2  and  C_34
    3  A    between atoms: C_3  and  C_19
    4  A    between atoms: C_3  and  C_30
    5  A    between atoms: C_4  and  C_30
    6  A    between atoms: C_5  and  C_28
    7  A    between atoms: C_6  and  N_9
    8  A    between atoms: N_9  and  N_29
    9  A    between atoms: C_12  and  C_18
   10  A    between atoms: C_15  and  O_25
   11  A    between atoms: C_18  and  C_21
   12  A    between atoms: O_25  and  C_26
   13  A    between atoms: C_26  and  N_29
                            x       y       z     vdW  Elec       q    Type
                         _______ _______ _______ _____ _____    ______ ____

>  <TORSDO>
F 13

$$$$
=
 OpenBabel11042412183D

 34 36  0  0  1  0  0  0  0  0999 V2000
  186.9370  178.2140  140.0740 C   0  0  2  0  0  3  0  0  0  0  0  0
  185.3610  178.6310  139.2740 S   0  0  0  0  0  0  0  0  0  0  0  0
  186.8920  178.6950  141.5120 C   0  0  1  0  0  3  0  0  0  0  0  0
  185.4760  178.5030  142.0210 C   0  0  1  0  0  3  0  0  0  0  0  0
  185.1770  179.4960  143.1280 C   0  0  0  0  0  1  0  0  0  0  0  0
  184.4920  178.6940  140.8730 C   0  0  2  0  0  3  0  0  0  0  0  0
  187.8940  177.9780  142.3720 C   0  0  0  0  0  0  0  0  0  0  0  0
  189.1670  178.3890  142.3020 C   0  0  0  0  0  3  0  0  0  0  0  0
  190.3140  177.8470  143.0520 C   0  0  0  0  0  0  0  0  0  0  0  0
  191.0030  178.6950  143.9620 N   0  0  0  0  0  1  0  0  0  0  0  0
  190.6990  176.6580  142.9040 O   0  0  0  0  0  0  0  0  0  0  0  0
  187.4550  176.8740  143.2960 C   0  0  0  0  0  2  0  0  0  0  0  0
  186.4480  177.9630  145.3230 C   0  0  0  0  0  3  0  0  0  0  0  0
  187.5230  177.2930  144.7270 C   0  0  0  0  0  0  0  0  0  0  0  0
  187.6450  178.0180  147.4280 C   0  0  0  0  0  0  0  0  0  0  0  0
  188.7200  177.3510  146.8340 C   0  0  0  0  0  3  0  0  0  0  0  0
  186.5100  178.3260  146.6720 C   0  0  0  0  0  3  0  0  0  0  0  0
  187.7040  178.3670  148.7350 F   0  0  0  0  0  0  0  0  0  0  0  0
  188.6590  176.9880  145.4850 C   0  0  0  0  0  3  0  0  0  0  0  0
  183.4220  177.6120  140.9020 C   0  0  0  0  0  2  0  0  0  0  0  0
  182.8740  177.3220  139.5100 C   0  0  0  0  0  2  0  0  0  0  0  0
  182.5480  175.8450  139.3320 C   0  0  0  0  0  2  0  0  0  0  0  0
  183.4410  176.4420  137.1460 N   0  0  0  0  0  2  0  0  0  0  0  0
  182.7770  175.3970  137.8940 C   0  0  1  0  0  3  0  0  0  0  0  0
  183.9130  174.5250  137.8320 C   0  0  0  0  0  2  0  0  0  0  0  0
  185.7620  175.6730  136.5110 O   0  0  0  0  0  0  0  0  0  0  0  0
  184.6260  175.5720  137.0410 C   0  0  0  0  0  0  0  0  0  0  0  0
  188.0780  178.7700  139.3430 N   0  0  0  0  0  2  0  0  0  0  0  0
  187.8970  178.5440  137.9690 N   0  0  0  0  0  2  0  0  0  0  0  0
  188.6860  177.3740  137.6320 C   0  0  0  0  0  2  0  0  0  0  0  0
  190.0270  177.6190  137.9280 O   0  0  0  0  0  0  0  0  0  0  0  0
  190.4530  176.1300  139.6000 O   0  0  0  0  0  1  0  0  0  0  0  0
  190.5610  176.3650  138.2300 C   0  0  1  0  0  3  0  0  0  0  0  0
  189.7980  175.2950  137.4740 C   0  0  0  0  0  1  0  0  0  0  0  0
  1 28  1  6  0  0  0
  1  3  1  0  0  0  0
  2  1  1  0  0  0  0
  2  6  1  0  0  0  0
  3  4  1  0  0  0  0
  3  7  1  1  0  0  0
  4  5  1  1  0  0  0
  6 20  1  6  0  0  0
  6  4  1  0  0  0  0
  7 12  1  0  0  0  0
  8  7  2  0  0  0  0
  8  9  1  0  0  0  0
  9 10  1  0  0  0  0
 11  9  2  0  0  0  0
 12 14  1  0  0  0  0
 13 17  1  0  0  0  0
 14 13  2  0  0  0  0
 14 19  1  0  0  0  0
 15 18  1  0  0  0  0
 16 15  1  0  0  0  0
 17 15  2  0  0  0  0
 19 16  2  0  0  0  0
 21 20  1  0  0  0  0
 22 21  1  0  0  0  0
 23 24  1  0  0  0  0
 24 22  1  1  0  0  0
 25 24  1  0  0  0  0
 26 27  2  0  0  0  0
 27 23  1  0  0  0  0
 27 25  1  0  0  0  0
 29 28  1  0  0  0  0
 30 31  1  0  0  0  0
 30 29  1  0  0  0  0
 31 33  1  0  0  0  0
 33 34  1  6  0  0  0
 33 32  1  0  0  0  0
M  END
>  <MODEL>
4

>  <REMARK>
 VINA RESULT:      -7.4      2.526      3.214
  Name = 
  13 active torsions:
  status: ('A' for Active; 'I' for Inactive)
    1  A    between atoms: C_2  and  C_21
    2  A    between atoms: C_2  and  C_34
    3  A    between atoms: C_3  and  C_19
    4  A    between atoms: C_3  and  C_30
    5  A    between atoms: C_4  and  C_30
    6  A    between atoms: C_5  and  C_28
    7  A    between atoms: C_6  and  N_9
    8  A    between atoms: N_9  and  N_29
    9  A    between atoms: C_12  and  C_18
   10  A    between atoms: C_15  and  O_25
   11  A    between atoms: C_18  and  C_21
   12  A    between atoms: O_25  and  C_26
   13  A    between atoms: C_26  and  N_29
                            x       y       z     vdW  Elec       q    Type
                         _______ _______ _______ _____ _____    ______ ____

>  <TORSDO>
F 13

$$$$
=
 OpenBabel11042412183D

 34 36  0  0  1  0  0  0  0  0999 V2000
  187.5910  178.4570  141.1360 C   0  0  2  0  0  3  0  0  0  0  0  0
  187.0820  178.5650  139.3970 S   0  0  0  0  0  0  0  0  0  0  0  0
  188.6380  177.3670  141.2670 C   0  0  1  0  0  3  0  0  0  0  0  0
  189.4950  177.3930  140.0140 C   0  0  1  0  0  3  0  0  0  0  0  0
  190.0890  176.0220  139.7570 C   0  0  0  0  0  1  0  0  0  0  0  0
  188.6440  177.8230  138.8260 C   0  0  2  0  0  3  0  0  0  0  0  0
  189.4650  177.5340  142.5100 C   0  0  0  0  0  0  0  0  0  0  0  0
  190.1960  178.6520  142.6140 C   0  0  0  0  0  3  0  0  0  0  0  0
  191.0710  179.0350  143.7370 C   0  0  0  0  0  0  0  0  0  0  0  0
  192.0980  178.1390  144.1450 N   0  0  0  0  0  1  0  0  0  0  0  0
  190.9300  180.1290  144.3420 O   0  0  0  0  0  0  0  0  0  0  0  0
  189.4260  176.4950  143.5980 C   0  0  0  0  0  2  0  0  0  0  0  0
  187.3730  177.3390  144.7750 C   0  0  0  0  0  3  0  0  0  0  0  0
  188.7310  177.0010  144.8190 C   0  0  0  0  0  0  0  0  0  0  0  0
  187.4320  177.8910  147.1330 C   0  0  0  0  0  0  0  0  0  0  0  0
  188.7880  177.5550  147.1770 C   0  0  0  0  0  3  0  0  0  0  0  0
  186.7250  177.7840  145.9310 C   0  0  0  0  0  3  0  0  0  0  0  0
  186.8040  178.3200  148.2530 F   0  0  0  0  0  0  0  0  0  0  0  0
  189.4370  177.1100  146.0220 C   0  0  0  0  0  3  0  0  0  0  0  0
  189.3940  178.8360  137.9710 C   0  0  0  0  0  2  0  0  0  0  0  0
  189.0630  178.6830  136.4920 C   0  0  0  0  0  2  0  0  0  0  0  0
  189.0650  177.2220  136.0640 C   0  0  0  0  0  2  0  0  0  0  0  0
  187.0420  175.8660  135.9850 N   0  0  0  0  0  2  0  0  0  0  0  0
  187.8060  176.8720  135.2800 C   0  0  1  0  0  3  0  0  0  0  0  0
  186.8100  177.8820  135.4850 C   0  0  0  0  0  2  0  0  0  0  0  0
  184.8570  176.8660  136.7640 O   0  0  0  0  0  0  0  0  0  0  0  0
  185.9830  176.8670  136.2040 C   0  0  0  0  0  0  0  0  0  0  0  0
  186.4470  178.2310  142.0210 N   0  0  0  0  0  2  0  0  0  0  0  0
  185.5520  179.3060  141.8980 N   0  0  0  0  0  2  0  0  0  0  0  0
  184.8600  179.4190  143.1680 C   0  0  0  0  0  2  0  0  0  0  0  0
  184.1200  178.2570  143.3970 O   0  0  0  0  0  0  0  0  0  0  0  0
  183.6270  179.7140  145.0780 O   0  0  0  0  0  1  0  0  0  0  0  0
  183.1610  178.6260  144.3410 C   0  0  1  0  0  3  0  0  0  0  0  0
  181.8760  179.0100  143.6350 C   0  0  0  0  0  1  0  0  0  0  0  0
  1  3  1  0  0  0  0
  1 28  1  1  0  0  0
  2  1  1  0  0  0  0
  3  7  1  1  0  0  0
  4  5  1  6  0  0  0
  4  3  1  0  0  0  0
  6 20  1  1  0  0  0
  6  2  1  0  0  0  0
  6  4  1  0  0  0  0
  7  8  2  0  0  0  0
  7 12  1  0  0  0  0
  8  9  1  0  0  0  0
  9 10  1  0  0  0  0
  9 11  2  0  0  0  0
 12 14  1  0  0  0  0
 13 14  2  0  0  0  0
 13 17  1  0  0  0  0
 14 19  1  0  0  0  0
 15 16  1  0  0  0  0
 15 18  1  0  0  0  0
 17 15  2  0  0  0  0
 19 16  2  0  0  0  0
 21 20  1  0  0  0  0
 22 21  1  0  0  0  0
 23 27  1  0  0  0  0
 24 25  1  0  0  0  0
 24 23  1  0  0  0  0
 24 22  1  1  0  0  0
 25 27  1  0  0  0  0
 27 26  2  0  0  0  0
 29 28  1  0  0  0  0
 29 30  1  0  0  0  0
 30 31  1  0  0  0  0
 31 33  1  0  0  0  0
 33 34  1  6  0  0  0
 33 32  1  0  0  0  0
M  END
>  <MODEL>
5

>  <REMARK>
 VINA RESULT:      -7.2      2.746      6.118
  Name = 
  13 active torsions:
  status: ('A' for Active; 'I' for Inactive)
    1  A    between atoms: C_2  and  C_21
    2  A    between atoms: C_2  and  C_34
    3  A    between atoms: C_3  and  C_19
    4  A    between atoms: C_3  and  C_30
    5  A    between atoms: C_4  and  C_30
    6  A    between atoms: C_5  and  C_28
    7  A    between atoms: C_6  and  N_9
    8  A    between atoms: N_9  and  N_29
    9  A    between atoms: C_12  and  C_18
   10  A    between atoms: C_15  and  O_25
   11  A    between atoms: C_18  and  C_21
   12  A    between atoms: O_25  and  C_26
   13  A    between atoms: C_26  and  N_29
                            x       y       z     vdW  Elec       q    Type
                         _______ _______ _______ _____ _____    ______ ____

>  <TORSDO>
F 13

$$$$
=
 OpenBabel11042412183D

 34 36  0  0  1  0  0  0  0  0999 V2000
  186.9040  178.2240  140.3570 C   0  0  2  0  0  3  0  0  0  0  0  0
  185.3070  178.6470  139.6030 S   0  0  0  0  0  0  0  0  0  0  0  0
  186.8710  178.6280  141.8190 C   0  0  1  0  0  3  0  0  0  0  0  0
  185.4670  178.3780  142.3380 C   0  0  1  0  0  3  0  0  0  0  0  0
  185.1660  179.3050  143.5000 C   0  0  0  0  0  1  0  0  0  0  0  0
  184.4620  178.6080  141.2160 C   0  0  2  0  0  3  0  0  0  0  0  0
  187.9010  177.8880  142.6250 C   0  0  0  0  0  0  0  0  0  0  0  0
  189.1800  178.2510  142.4640 C   0  0  0  0  0  3  0  0  0  0  0  0
  190.3540  177.6790  143.1480 C   0  0  0  0  0  0  0  0  0  0  0  0
  191.1590  178.5280  143.9570 N   0  0  0  0  0  1  0  0  0  0  0  0
  190.6620  176.4650  143.0310 O   0  0  0  0  0  0  0  0  0  0  0  0
  187.4850  176.8160  143.5960 C   0  0  0  0  0  2  0  0  0  0  0  0
  186.4930  177.8520  145.6590 C   0  0  0  0  0  3  0  0  0  0  0  0
  187.5950  177.2800  145.0110 C   0  0  0  0  0  0  0  0  0  0  0  0
  187.8030  178.0900  147.6820 C   0  0  0  0  0  0  0  0  0  0  0  0
  188.9040  177.5210  147.0350 C   0  0  0  0  0  3  0  0  0  0  0  0
  186.5980  178.2570  146.9920 C   0  0  0  0  0  3  0  0  0  0  0  0
  187.9050  178.4810  148.9740 F   0  0  0  0  0  0  0  0  0  0  0  0
  188.8000  177.1160  145.7010 C   0  0  0  0  0  3  0  0  0  0  0  0
  183.4150  177.5030  141.2030 C   0  0  0  0  0  2  0  0  0  0  0  0
  182.5480  177.5600  139.9510 C   0  0  0  0  0  2  0  0  0  0  0  0
  181.0730  177.7090  140.2960 C   0  0  0  0  0  2  0  0  0  0  0  0
  180.9300  175.3700  139.6300 N   0  0  0  0  0  2  0  0  0  0  0  0
  180.2330  176.6380  139.6110 C   0  0  1  0  0  3  0  0  0  0  0  0
  179.2110  176.1770  140.5050 C   0  0  0  0  0  2  0  0  0  0  0  0
  179.6730  173.7450  141.0990 O   0  0  0  0  0  0  0  0  0  0  0  0
  179.8910  174.8470  140.5350 C   0  0  0  0  0  0  0  0  0  0  0  0
  188.0210  178.8410  139.6390 N   0  0  0  0  0  2  0  0  0  0  0  0
  188.3660  178.0330  138.5440 N   0  0  0  0  0  2  0  0  0  0  0  0
  189.3980  177.1250  139.0060 C   0  0  0  0  0  2  0  0  0  0  0  0
  190.6310  177.5220  138.4860 O   0  0  0  0  0  0  0  0  0  0  0  0
  190.5450  175.2460  138.3960 O   0  0  0  0  0  1  0  0  0  0  0  0
  191.3920  176.3530  138.4440 C   0  0  1  0  0  3  0  0  0  0  0  0
  192.2730  176.3660  137.2110 C   0  0  0  0  0  1  0  0  0  0  0  0
  1 28  1  6  0  0  0
  1  3  1  0  0  0  0
  2  1  1  0  0  0  0
  2  6  1  0  0  0  0
  3  4  1  0  0  0  0
  3  7  1  1  0  0  0
  4  5  1  1  0  0  0
  6 20  1  6  0  0  0
  6  4  1  0  0  0  0
  7 12  1  0  0  0  0
  8  7  2  0  0  0  0
  8  9  1  0  0  0  0
  9 10  1  0  0  0  0
 11  9  2  0  0  0  0
 12 14  1  0  0  0  0
 13 17  1  0  0  0  0
 14 13  2  0  0  0  0
 14 19  1  0  0  0  0
 15 18  1  0  0  0  0
 16 15  1  0  0  0  0
 17 15  2  0  0  0  0
 19 16  2  0  0  0  0
 21 22  1  0  0  0  0
 21 20  1  0  0  0  0
 23 27  1  0  0  0  0
 24 23  1  0  0  0  0
 24 22  1  1  0  0  0
 24 25  1  0  0  0  0
 25 27  1  0  0  0  0
 27 26  2  0  0  0  0
 29 30  1  0  0  0  0
 29 28  1  0  0  0  0
 31 30  1  0  0  0  0
 32 33  1  0  0  0  0
 33 34  1  6  0  0  0
 33 31  1  0  0  0  0
M  END
>  <MODEL>
6

>  <REMARK>
 VINA RESULT:      -7.1      1.568      1.777
  Name = 
  13 active torsions:
  status: ('A' for Active; 'I' for Inactive)
    1  A    between atoms: C_2  and  C_21
    2  A    between atoms: C_2  and  C_34
    3  A    between atoms: C_3  and  C_19
    4  A    between atoms: C_3  and  C_30
    5  A    between atoms: C_4  and  C_30
    6  A    between atoms: C_5  and  C_28
    7  A    between atoms: C_6  and  N_9
    8  A    between atoms: N_9  and  N_29
    9  A    between atoms: C_12  and  C_18
   10  A    between atoms: C_15  and  O_25
   11  A    between atoms: C_18  and  C_21
   12  A    between atoms: O_25  and  C_26
   13  A    between atoms: C_26  and  N_29
                            x       y       z     vdW  Elec       q    Type
                         _______ _______ _______ _____ _____    ______ ____

>  <TORSDO>
F 13

$$$$
=
 OpenBabel11042412183D

 34 36  0  0  1  0  0  0  0  0999 V2000
  183.5130  178.7000  138.8000 C   0  0  2  0  0  3  0  0  0  0  0  0
  184.6310  177.6060  137.8800 S   0  0  0  0  0  0  0  0  0  0  0  0
  182.3000  178.9910  137.9360 C   0  0  1  0  0  3  0  0  0  0  0  0
  181.9810  177.7350  137.1460 C   0  0  1  0  0  3  0  0  0  0  0  0
  181.2690  178.0940  135.8560 C   0  0  0  0  0  1  0  0  0  0  0  0
  183.2720  176.9890  136.8350 C   0  0  2  0  0  3  0  0  0  0  0  0
  181.1260  179.4450  138.7570 C   0  0  0  0  0  0  0  0  0  0  0  0
  181.2080  179.2870  140.0840 C   0  0  0  0  0  3  0  0  0  0  0  0
  180.1930  179.6630  141.0840 C   0  0  0  0  0  0  0  0  0  0  0  0
  179.4170  178.6380  141.6930 N   0  0  0  0  0  1  0  0  0  0  0  0
  179.9940  180.8630  141.4070 O   0  0  0  0  0  0  0  0  0  0  0  0
  179.9350  180.0870  138.0950 C   0  0  0  0  0  2  0  0  0  0  0  0
  180.9250  182.3950  138.1630 C   0  0  0  0  0  3  0  0  0  0  0  0
  180.2990  181.3760  137.4350 C   0  0  0  0  0  0  0  0  0  0  0  0
  181.0260  183.7630  136.1670 C   0  0  0  0  0  0  0  0  0  0  0  0
  180.3980  182.7470  135.4400 C   0  0  0  0  0  3  0  0  0  0  0  0
  181.2870  183.5870  137.5300 C   0  0  0  0  0  3  0  0  0  0  0  0
  181.3780  184.9170  135.5530 F   0  0  0  0  0  0  0  0  0  0  0  0
  180.0360  181.5550  136.0730 C   0  0  0  0  0  3  0  0  0  0  0  0
  183.0970  175.4960  137.0780 C   0  0  0  0  0  2  0  0  0  0  0  0
  182.2350  175.2200  138.3030 C   0  0  0  0  0  2  0  0  0  0  0  0
  180.9880  174.4230  137.9440 C   0  0  0  0  0  2  0  0  0  0  0  0
  178.9450  174.0820  139.2260 N   0  0  0  0  0  2  0  0  0  0  0  0
  179.7330  175.0680  138.5190 C   0  0  1  0  0  3  0  0  0  0  0  0
  180.0600  175.7800  139.7190 C   0  0  0  0  0  2  0  0  0  0  0  0
  178.9310  174.6320  141.6920 O   0  0  0  0  0  0  0  0  0  0  0  0
  179.2390  174.7930  140.4830 C   0  0  0  0  0  0  0  0  0  0  0  0
  184.1880  179.9250  139.2320 N   0  0  0  0  0  2  0  0  0  0  0  0
  185.1740  179.5980  140.1770 N   0  0  0  0  0  2  0  0  0  0  0  0
  184.4980  178.9100  141.2610 C   0  0  0  0  0  2  0  0  0  0  0  0
  185.3660  178.7930  142.3480 O   0  0  0  0  0  0  0  0  0  0  0  0
  185.1240  178.7500  144.6130 O   0  0  0  0  0  1  0  0  0  0  0  0
  184.5610  178.3550  143.4000 C   0  0  1  0  0  3  0  0  0  0  0  0
  183.1780  178.9610  143.2670 C   0  0  0  0  0  1  0  0  0  0  0  0
  1 28  1  6  0  0  0
  2  1  1  0  0  0  0
  3  7  1  1  0  0  0
  3  1  1  0  0  0  0
  4  5  1  6  0  0  0
  4  3  1  0  0  0  0
  6 20  1  1  0  0  0
  6  4  1  0  0  0  0
  6  2  1  0  0  0  0
  7  8  2  0  0  0  0
  8  9  1  0  0  0  0
  9 11  2  0  0  0  0
  9 10  1  0  0  0  0
 12  7  1  0  0  0  0
 14 12  1  0  0  0  0
 14 13  2  0  0  0  0
 15 17  2  0  0  0  0
 16 19  2  0  0  0  0
 16 15  1  0  0  0  0
 17 13  1  0  0  0  0
 18 15  1  0  0  0  0
 19 14  1  0  0  0  0
 20 21  1  0  0  0  0
 22 21  1  0  0  0  0
 23 27  1  0  0  0  0
 24 22  1  1  0  0  0
 24 23  1  0  0  0  0
 24 25  1  0  0  0  0
 25 27  1  0  0  0  0
 27 26  2  0  0  0  0
 28 29  1  0  0  0  0
 29 30  1  0  0  0  0
 30 31  1  0  0  0  0
 31 33  1  0  0  0  0
 33 34  1  6  0  0  0
 33 32  1  0  0  0  0
M  END
>  <MODEL>
7

>  <REMARK>
 VINA RESULT:      -7.0      4.994      8.610
  Name = 
  13 active torsions:
  status: ('A' for Active; 'I' for Inactive)
    1  A    between atoms: C_2  and  C_21
    2  A    between atoms: C_2  and  C_34
    3  A    between atoms: C_3  and  C_19
    4  A    between atoms: C_3  and  C_30
    5  A    between atoms: C_4  and  C_30
    6  A    between atoms: C_5  and  C_28
    7  A    between atoms: C_6  and  N_9
    8  A    between atoms: N_9  and  N_29
    9  A    between atoms: C_12  and  C_18
   10  A    between atoms: C_15  and  O_25
   11  A    between atoms: C_18  and  C_21
   12  A    between atoms: O_25  and  C_26
   13  A    between atoms: C_26  and  N_29
                            x       y       z     vdW  Elec       q    Type
                         _______ _______ _______ _____ _____    ______ ____

>  <TORSDO>
F 13

$$$$
=
 OpenBabel11042412183D

 34 36  0  0  1  0  0  0  0  0999 V2000
  188.1210  177.7530  139.4240 C   0  0  2  0  0  3  0  0  0  0  0  0
  187.8570  178.3030  141.1350 S   0  0  0  0  0  0  0  0  0  0  0  0
  189.6120  177.6000  139.1900 C   0  0  1  0  0  3  0  0  0  0  0  0
  190.2330  177.0800  140.4730 C   0  0  1  0  0  3  0  0  0  0  0  0
  191.6870  177.5020  140.5600 C   0  0  0  0  0  1  0  0  0  0  0  0
  189.4610  177.6250  141.6680 C   0  0  2  0  0  3  0  0  0  0  0  0
  189.9030  176.6960  138.0250 C   0  0  0  0  0  0  0  0  0  0  0  0
  189.2840  175.5090  138.0000 C   0  0  0  0  0  3  0  0  0  0  0  0
  189.4060  174.4690  136.9630 C   0  0  0  0  0  0  0  0  0  0  0  0
  190.2830  173.3730  137.1890 N   0  0  0  0  0  1  0  0  0  0  0  0
  188.7590  174.5290  135.8860 O   0  0  0  0  0  0  0  0  0  0  0  0
  190.8250  177.1460  136.9230 C   0  0  0  0  0  2  0  0  0  0  0  0
  192.7960  176.0580  138.0370 C   0  0  0  0  0  3  0  0  0  0  0  0
  192.0670  176.3200  136.8700 C   0  0  0  0  0  0  0  0  0  0  0  0
  194.3600  174.7190  136.7620 C   0  0  0  0  0  0  0  0  0  0  0  0
  193.6340  174.9810  135.5970 C   0  0  0  0  0  3  0  0  0  0  0  0
  193.9420  175.2600  137.9820 C   0  0  0  0  0  3  0  0  0  0  0  0
  195.4690  173.9440  136.7090 F   0  0  0  0  0  0  0  0  0  0  0  0
  192.4880  175.7800  135.6510 C   0  0  0  0  0  3  0  0  0  0  0  0
  189.2210  176.5270  142.6950 C   0  0  0  0  0  2  0  0  0  0  0  0
  188.0300  176.8410  143.5910 C   0  0  0  0  0  2  0  0  0  0  0  0
  188.4240  177.7440  144.7520 C   0  0  0  0  0  2  0  0  0  0  0  0
  189.5860  177.0300  146.7710 N   0  0  0  0  0  2  0  0  0  0  0  0
  188.3120  177.0130  146.0850 C   0  0  1  0  0  3  0  0  0  0  0  0
  187.6920  177.8670  147.0550 C   0  0  0  0  0  2  0  0  0  0  0  0
  189.3920  178.4300  148.8640 O   0  0  0  0  0  0  0  0  0  0  0  0
  188.9850  177.8930  147.8020 C   0  0  0  0  0  0  0  0  0  0  0  0
  187.5020  178.6660  138.4610 N   0  0  0  0  0  2  0  0  0  0  0  0
  186.5350  177.9670  137.7210 N   0  0  0  0  0  2  0  0  0  0  0  0
  185.2480  178.5300  138.0820 C   0  0  0  0  0  2  0  0  0  0  0  0
  184.5800  177.6500  138.9350 O   0  0  0  0  0  0  0  0  0  0  0  0
  184.5800  179.7540  139.8120 O   0  0  0  0  0  1  0  0  0  0  0  0
  184.1060  178.4520  139.9740 C   0  0  1  0  0  3  0  0  0  0  0  0
  182.5910  178.4630  139.9550 C   0  0  0  0  0  1  0  0  0  0  0  0
  1 28  1  6  0  0  0
  1  2  1  0  0  0  0
  2  6  1  0  0  0  0
  3  7  1  6  0  0  0
  3  1  1  0  0  0  0
  3  4  1  0  0  0  0
  4  5  1  1  0  0  0
  4  6  1  0  0  0  0
  6 20  1  1  0  0  0
  8  7  2  0  0  0  0
  9 10  1  0  0  0  0
  9  8  1  0  0  0  0
 11  9  2  0  0  0  0
 12  7  1  0  0  0  0
 14 12  1  0  0  0  0
 14 13  2  0  0  0  0
 15 17  2  0  0  0  0
 16 19  2  0  0  0  0
 16 15  1  0  0  0  0
 17 13  1  0  0  0  0
 18 15  1  0  0  0  0
 19 14  1  0  0  0  0
 20 21  1  0  0  0  0
 21 22  1  0  0  0  0
 23 27  1  0  0  0  0
 24 22  1  6  0  0  0
 24 23  1  0  0  0  0
 24 25  1  0  0  0  0
 25 27  1  0  0  0  0
 27 26  2  0  0  0  0
 29 30  1  0  0  0  0
 29 28  1  0  0  0  0
 30 31  1  0  0  0  0
 31 33  1  0  0  0  0
 32 33  1  0  0  0  0
 33 34  1  6  0  0  0
M  END
>  <MODEL>
8

>  <REMARK>
 VINA RESULT:      -7.0      3.967      8.363
  Name = 
  13 active torsions:
  status: ('A' for Active; 'I' for Inactive)
    1  A    between atoms: C_2  and  C_21
    2  A    between atoms: C_2  and  C_34
    3  A    between atoms: C_3  and  C_19
    4  A    between atoms: C_3  and  C_30
    5  A    between atoms: C_4  and  C_30
    6  A    between atoms: C_5  and  C_28
    7  A    between atoms: C_6  and  N_9
    8  A    between atoms: N_9  and  N_29
    9  A    between atoms: C_12  and  C_18
   10  A    between atoms: C_15  and  O_25
   11  A    between atoms: C_18  and  C_21
   12  A    between atoms: O_25  and  C_26
   13  A    between atoms: C_26  and  N_29
                            x       y       z     vdW  Elec       q    Type
                         _______ _______ _______ _____ _____    ______ ____

>  <TORSDO>
F 13

$$$$
=
 OpenBabel11042412183D

 34 36  0  0  1  0  0  0  0  0999 V2000
  189.5990  176.4810  139.8530 C   0  0  2  0  0  3  0  0  0  0  0  0
  188.6890  177.3160  138.5220 S   0  0  0  0  0  0  0  0  0  0  0  0
  189.6790  177.4170  141.0450 C   0  0  1  0  0  3  0  0  0  0  0  0
  188.3780  178.1950  141.1120 C   0  0  1  0  0  3  0  0  0  0  0  0
  188.6000  179.5290  141.7980 C   0  0  0  0  0  1  0  0  0  0  0  0
  187.8470  178.4190  139.7020 C   0  0  2  0  0  3  0  0  0  0  0  0
  189.9470  176.6710  142.3220 C   0  0  0  0  0  0  0  0  0  0  0  0
  191.1700  176.7880  142.8550 C   0  0  0  0  0  3  0  0  0  0  0  0
  191.6570  176.1600  144.0960 C   0  0  0  0  0  0  0  0  0  0  0  0
  191.7210  176.9430  145.2830 N   0  0  0  0  0  1  0  0  0  0  0  0
  192.0210  174.9560  144.1310 O   0  0  0  0  0  0  0  0  0  0  0  0
  188.8570  175.8660  142.9790 C   0  0  0  0  0  2  0  0  0  0  0  0
  188.5460  177.1240  145.1310 C   0  0  0  0  0  3  0  0  0  0  0  0
  188.0310  176.7020  143.8990 C   0  0  0  0  0  0  0  0  0  0  0  0
  186.4890  178.3200  145.5850 C   0  0  0  0  0  0  0  0  0  0  0  0
  185.9730  177.8980  144.3560 C   0  0  0  0  0  3  0  0  0  0  0  0
  187.7750  177.9300  145.9730 C   0  0  0  0  0  3  0  0  0  0  0  0
  185.7430  179.1030  146.3990 F   0  0  0  0  0  0  0  0  0  0  0  0
  186.7440  177.0910  143.5130 C   0  0  0  0  0  3  0  0  0  0  0  0
  186.3480  178.1540  139.6480 C   0  0  0  0  0  2  0  0  0  0  0  0
  185.5950  178.9470  140.7080 C   0  0  0  0  0  2  0  0  0  0  0  0
  184.1260  179.1150  140.3450 C   0  0  0  0  0  2  0  0  0  0  0  0
  182.4290  178.7720  142.0590 N   0  0  0  0  0  2  0  0  0  0  0  0
  183.2550  178.1020  141.0770 C   0  0  1  0  0  3  0  0  0  0  0  0
  182.1310  177.7490  140.2610 C   0  0  0  0  0  2  0  0  0  0  0  0
  180.0040  178.5970  141.3740 O   0  0  0  0  0  0  0  0  0  0  0  0
  181.2430  178.4140  141.2610 C   0  0  0  0  0  0  0  0  0  0  0  0
  190.9230  176.0410  139.4100 N   0  0  0  0  0  2  0  0  0  0  0  0
  191.4020  176.9330  138.4360 N   0  0  0  0  0  2  0  0  0  0  0  0
  192.3000  176.1770  137.5850 C   0  0  0  0  0  2  0  0  0  0  0  0
  193.6020  176.2790  138.0790 O   0  0  0  0  0  0  0  0  0  0  0  0
  193.2040  174.0810  137.6280 O   0  0  0  0  0  1  0  0  0  0  0  0
  194.1940  175.0510  137.7800 C   0  0  1  0  0  3  0  0  0  0  0  0
  194.9830  175.1700  136.4920 C   0  0  0  0  0  1  0  0  0  0  0  0
  1 28  1  6  0  0  0
  1  3  1  0  0  0  0
  2  6  1  0  0  0  0
  2  1  1  0  0  0  0
  3  4  1  0  0  0  0
  3  7  1  1  0  0  0
  4  5  1  6  0  0  0
  6 20  1  1  0  0  0
  6  4  1  0  0  0  0
  7  8  2  0  0  0  0
  7 12  1  0  0  0  0
  8  9  1  0  0  0  0
  9 11  2  0  0  0  0
  9 10  1  0  0  0  0
 12 14  1  0  0  0  0
 13 17  1  0  0  0  0
 14 13  2  0  0  0  0
 15 17  2  0  0  0  0
 15 18  1  0  0  0  0
 16 15  1  0  0  0  0
 19 14  1  0  0  0  0
 19 16  2  0  0  0  0
 20 21  1  0  0  0  0
 22 21  1  0  0  0  0
 24 22  1  6  0  0  0
 24 23  1  0  0  0  0
 25 24  1  0  0  0  0
 25 27  1  0  0  0  0
 27 26  2  0  0  0  0
 27 23  1  0  0  0  0
 29 28  1  0  0  0  0
 30 31  1  0  0  0  0
 30 29  1  0  0  0  0
 32 33  1  0  0  0  0
 33 34  1  6  0  0  0
 33 31  1  0  0  0  0
M  END
>  <MODEL>
9

>  <REMARK>
 VINA RESULT:      -6.9      2.221      3.162
  Name = 
  13 active torsions:
  status: ('A' for Active; 'I' for Inactive)
    1  A    between atoms: C_2  and  C_21
    2  A    between atoms: C_2  and  C_34
    3  A    between atoms: C_3  and  C_19
    4  A    between atoms: C_3  and  C_30
    5  A    between atoms: C_4  and  C_30
    6  A    between atoms: C_5  and  C_28
    7  A    between atoms: C_6  and  N_9
    8  A    between atoms: N_9  and  N_29
    9  A    between atoms: C_12  and  C_18
   10  A    between atoms: C_15  and  O_25
   11  A    between atoms: C_18  and  C_21
   12  A    between atoms: O_25  and  C_26
   13  A    between atoms: C_26  and  N_29
                            x       y       z     vdW  Elec       q    Type
                         _______ _______ _______ _____ _____    ______ ____

>  <TORSDO>
F 13

$$$$
