=
 OpenBabel11032420153D

 28 33  0  0  1  0  0  0  0  0999 V2000
  189.1730  177.8730  147.9550 C   0  0  0  0  0  3  0  0  0  0  0  0
  190.7260  176.7450  145.4730 C   0  0  0  0  0  3  0  0  0  0  0  0
  188.3190  177.5030  140.8350 C   0  0  0  0  0  3  0  0  0  0  0  0
  188.3010  178.0230  146.9660 C   0  0  0  0  0  3  0  0  0  0  0  0
  183.0730  179.7380  143.4980 O   0  0  0  0  0  0  0  0  0  0  0  0
  184.2510  178.3210  146.4720 C   0  0  0  0  0  3  0  0  0  0  0  0
  185.5140  179.1120  142.4910 C   0  0  0  0  0  3  0  0  0  0  0  0
  188.0700  177.4910  143.3590 C   0  0  2  0  0  3  0  0  0  0  0  0
  187.5950  177.7650  142.1240 C   0  0  0  0  0  0  0  0  0  0  0  0
  189.5500  177.0860  144.9280 C   0  0  0  0  0  0  0  0  0  0  0  0
  186.6320  178.9810  140.4010 N   0  0  0  0  0  0  0  0  0  0  0  0
  185.1760  178.8310  143.8940 C   0  0  0  0  0  0  0  0  0  0  0  0
  187.4800  177.8660  144.5680 C   0  0  0  0  0  0  0  0  0  0  0  0
  183.8690  179.1830  144.3030 C   0  0  0  0  0  0  0  0  0  0  0  0
  187.7270  178.3520  139.7920 N   0  0  0  0  0  0  0  0  0  0  0  0
  188.4520  177.6440  145.5530 C   0  0  0  0  0  0  0  0  0  0  0  0
  186.0550  178.2440  144.8400 C   0  0  0  0  0  0  0  0  0  0  0  0
  190.5170  177.2950  147.9000 C   0  0  0  0  0  3  0  0  0  0  0  0
  185.5510  177.9800  146.1230 C   0  0  0  0  0  2  0  0  0  0  0  0
  189.2900  176.9280  143.6050 N   0  0  0  0  0  0  0  0  0  0  0  0
  191.2070  176.8120  146.8610 C   0  0  0  0  0  0  0  0  0  0  0  0
  186.5230  178.6590  141.7670 C   0  0  0  0  0  0  0  0  0  0  0  0
  183.4460  178.9180  145.5640 N   0  0  0  0  0  0  0  0  0  0  0  0
  191.2180  177.3560  142.0940 C   0  0  0  0  0  2  0  0  0  0  0  0
  190.2130  176.3350  142.6190 C   0  0  0  0  0  3  0  0  0  0  0  0
  191.6390  176.3800  143.1580 C   0  0  0  0  0  2  0  0  0  0  0  0
  192.8950  175.6580  148.2800 C   0  0  0  0  0  1  0  0  0  0  0  0
  192.4960  176.3020  147.0730 O   0  0  0  0  0  0  0  0  0  0  0  0
  2 21  1  0  0  0  0
  3  9  2  0  0  0  0
  4  1  2  0  0  0  0
  5 14  2  0  0  0  0
  7 12  1  0  0  0  0
  8  9  1  6  0  0  0
  8 20  1  0  0  0  0
  8 13  1  0  0  0  0
 10  2  2  0  0  0  0
 10 16  1  0  0  0  0
 11 22  1  0  0  0  0
 12 14  1  0  0  0  0
 12 17  2  0  0  0  0
 13 17  1  0  0  0  0
 13 16  2  0  0  0  0
 14 23  1  0  0  0  0
 15 11  2  0  0  0  0
 15  3  1  0  0  0  0
 16  4  1  0  0  0  0
 17 19  1  0  0  0  0
 18  1  1  0  0  0  0
 19  6  1  0  0  0  0
 20 10  1  0  0  0  0
 21 28  1  0  0  0  0
 21 18  2  0  0  0  0
 22  9  1  0  0  0  0
 22  7  2  0  0  0  0
 23  6  2  0  0  0  0
 24 25  1  0  0  0  0
 24 26  1  0  0  0  0
 25 26  1  0  0  0  0
 25 20  1  0  0  0  0
 28 27  1  0  0  0  0
M  END
>  <MODEL>
1

>  <REMARK>
 VINA RESULT:     -11.1      0.000      0.000
  Name = 
  2 active torsions:
  status: ('A' for Active; 'I' for Inactive)
    1  A    between atoms: C_15  and  N_24
    2  A    between atoms: C_25  and  O_26
                            x       y       z     vdW  Elec       q    Type
                         _______ _______ _______ _____ _____    ______ ____

>  <TORSDO>
F 2

$$$$
=
 OpenBabel11032420153D

 28 33  0  0  0  0  0  0  0  0999 V2000
  191.1880  176.0230  143.2180 C   0  0  0  0  0  3  0  0  0  0  0  0
  190.3180  176.9560  146.0850 C   0  0  0  0  0  3  0  0  0  0  0  0
  185.4120  178.8850  146.3800 C   0  0  0  0  0  3  0  0  0  0  0  0
  190.0220  176.6150  142.9960 C   0  0  0  0  0  3  0  0  0  0  0  0
  184.5830  178.7530  140.1430 O   0  0  0  0  0  0  0  0  0  0  0  0
  188.0620  178.4600  139.9150 C   0  0  0  0  0  3  0  0  0  0  0  0
  184.9480  178.4040  142.8090 C   0  0  0  0  0  3  0  0  0  0  0  0
  187.3370  178.2530  144.8540 C   0  0  0  0  0  0  0  0  0  0  0  0
  186.0530  178.6270  145.0470 C   0  0  0  0  0  0  0  0  0  0  0  0
  189.3040  177.4030  145.3310 C   0  0  0  0  0  0  0  0  0  0  0  0
  183.7440  178.6070  144.8440 N   0  0  0  0  0  0  0  0  0  0  0  0
  186.0850  178.3740  141.8760 C   0  0  0  0  0  0  0  0  0  0  0  0
  187.9060  177.8620  143.6410 C   0  0  0  0  0  0  0  0  0  0  0  0
  185.7770  178.5880  140.5120 C   0  0  0  0  0  0  0  0  0  0  0  0
  183.9550  178.7840  146.2190 N   0  0  0  0  0  0  0  0  0  0  0  0
  189.1400  177.2820  143.9660 C   0  0  0  0  0  0  0  0  0  0  0  0
  187.4350  178.1510  142.2470 C   0  0  0  0  0  0  0  0  0  0  0  0
  191.9030  175.8710  144.4880 C   0  0  0  0  0  3  0  0  0  0  0  0
  188.4090  178.2230  141.2380 C   0  0  0  0  0  3  0  0  0  0  0  0
  188.2390  178.0570  145.8620 N   0  0  0  0  0  0  0  0  0  0  0  0
  191.5570  176.2520  145.7230 C   0  0  0  0  0  0  0  0  0  0  0  0
  184.9510  178.5120  144.1260 C   0  0  0  0  0  0  0  0  0  0  0  0
  186.7620  178.6280  139.5810 N   0  0  0  0  0  0  0  0  0  0  0  0
  187.9300  177.1580  148.1600 C   0  0  0  0  0  2  0  0  0  0  0  0
  188.0720  178.4010  147.2870 C   0  0  0  0  0  3  0  0  0  0  0  0
  189.2560  177.8660  148.0860 C   0  0  0  0  0  2  0  0  0  0  0  0
  192.0520  175.2540  147.9480 C   0  0  0  0  0  1  0  0  0  0  0  0
  192.4300  175.9900  146.7890 O   0  0  0  0  0  0  0  0  0  0  0  0
  1 18  1  0  0  0  0
  4  1  2  0  0  0  0
  4 16  1  0  0  0  0
  5 14  2  0  0  0  0
  6 19  1  0  0  0  0
  7 22  1  0  0  0  0
  8  9  2  0  0  0  0
  8 20  1  0  0  0  0
  9  3  1  0  0  0  0
 10 20  1  0  0  0  0
 10  2  2  0  0  0  0
 11 15  1  0  0  0  0
 12 17  1  0  0  0  0
 12  7  2  0  0  0  0
 13 16  2  0  0  0  0
 13  8  1  0  0  0  0
 14 12  1  0  0  0  0
 15  3  2  0  0  0  0
 16 10  1  0  0  0  0
 17 13  1  0  0  0  0
 18 21  2  0  0  0  0
 19 17  2  0  0  0  0
 20 25  1  0  0  0  0
 21  2  1  0  0  0  0
 21 28  1  0  0  0  0
 22 11  2  0  0  0  0
 22  9  1  0  0  0  0
 23  6  2  0  0  0  0
 23 14  1  0  0  0  0
 25 26  1  0  0  0  0
 25 24  1  0  0  0  0
 26 24  1  0  0  0  0
 28 27  1  0  0  0  0
M  END
>  <MODEL>
2

>  <REMARK>
 VINA RESULT:     -10.4      1.221      4.327
  Name = 
  2 active torsions:
  status: ('A' for Active; 'I' for Inactive)
    1  A    between atoms: C_15  and  N_24
    2  A    between atoms: C_25  and  O_26
                            x       y       z     vdW  Elec       q    Type
                         _______ _______ _______ _____ _____    ______ ____

>  <TORSDO>
F 2

$$$$
=
 OpenBabel11032420153D

 28 33  0  0  0  0  0  0  0  0999 V2000
  189.7800  177.9070  140.1960 C   0  0  0  0  0  3  0  0  0  0  0  0
  186.7120  178.2340  140.7690 C   0  0  0  0  0  3  0  0  0  0  0  0
  185.4160  178.2690  145.8870 C   0  0  0  0  0  3  0  0  0  0  0  0
  189.7000  177.7080  141.5050 C   0  0  0  0  0  2  0  0  0  0  0  0
  191.2410  176.7900  147.7570 O   0  0  0  0  0  0  0  0  0  0  0  0
  191.8070  175.8020  144.4490 C   0  0  0  0  0  3  0  0  0  0  0  0
  188.8920  177.7800  146.8280 C   0  0  0  0  0  3  0  0  0  0  0  0
  187.2020  177.7200  144.1710 C   0  0  0  0  0  0  0  0  0  0  0  0
  186.8000  177.8800  145.4510 C   0  0  0  0  0  0  0  0  0  0  0  0
  187.1900  177.9530  141.9890 C   0  0  0  0  0  0  0  0  0  0  0  0
  186.8290  178.6210  147.6480 N   0  0  0  0  0  0  0  0  0  0  0  0
  189.8580  177.1400  145.9220 C   0  0  0  0  0  0  0  0  0  0  0  0
  188.5140  177.5100  143.7420 C   0  0  0  0  0  0  0  0  0  0  0  0
  191.0380  176.6440  146.5210 C   0  0  0  0  0  0  0  0  0  0  0  0
  185.4970  178.8060  147.2530 N   0  0  0  0  0  0  0  0  0  0  0  0
  188.4990  177.7060  142.3540 C   0  0  0  0  0  0  0  0  0  0  0  0
  189.6840  176.9920  144.5220 C   0  0  0  0  0  0  0  0  0  0  0  0
  188.6960  178.1820  139.2510 C   0  0  0  0  0  3  0  0  0  0  0  0
  190.6750  176.2930  143.8130 C   0  0  0  0  0  2  0  0  0  0  0  0
  186.3910  177.8920  143.0850 N   0  0  0  0  0  0  0  0  0  0  0  0
  187.3830  178.3320  139.4640 C   0  0  0  0  0  0  0  0  0  0  0  0
  187.6210  178.0800  146.6180 C   0  0  0  0  0  0  0  0  0  0  0  0
  191.9680  175.9930  145.7790 N   0  0  0  0  0  0  0  0  0  0  0  0
  184.5320  179.5300  143.2920 C   0  0  0  0  0  2  0  0  0  0  0  0
  184.9270  178.0710  143.0840 C   0  0  0  0  0  3  0  0  0  0  0  0
  184.5170  178.9470  141.9050 C   0  0  0  0  0  2  0  0  0  0  0  0
  185.1670  178.2070  138.3380 C   0  0  0  0  0  1  0  0  0  0  0  0
  186.5390  178.5900  138.3740 O   0  0  0  0  0  0  0  0  0  0  0  0
  1  4  1  0  0  0  0
  2 10  1  0  0  0  0
  3 15  1  0  0  0  0
  4 16  1  0  0  0  0
  6 23  2  0  0  0  0
  8  9  1  0  0  0  0
  9  3  2  0  0  0  0
  9 22  1  0  0  0  0
 10 16  2  0  0  0  0
 10 20  1  0  0  0  0
 12 14  1  0  0  0  0
 12  7  1  0  0  0  0
 13  8  2  0  0  0  0
 13 17  1  0  0  0  0
 14  5  2  0  0  0  0
 15 11  2  0  0  0  0
 16 13  1  0  0  0  0
 17 12  2  0  0  0  0
 18 21  1  0  0  0  0
 18  1  2  0  0  0  0
 19  6  1  0  0  0  0
 19 17  1  0  0  0  0
 20  8  1  0  0  0  0
 21  2  2  0  0  0  0
 22  7  2  0  0  0  0
 22 11  1  0  0  0  0
 23 14  1  0  0  0  0
 25 20  1  0  0  0  0
 25 24  1  0  0  0  0
 26 25  1  0  0  0  0
 26 24  1  0  0  0  0
 27 28  1  0  0  0  0
 28 21  1  0  0  0  0
M  END
>  <MODEL>
3

>  <REMARK>
 VINA RESULT:     -10.4      2.116      6.928
  Name = 
  2 active torsions:
  status: ('A' for Active; 'I' for Inactive)
    1  A    between atoms: C_15  and  N_24
    2  A    between atoms: C_25  and  O_26
                            x       y       z     vdW  Elec       q    Type
                         _______ _______ _______ _____ _____    ______ ____

>  <TORSDO>
F 2

$$$$
=
 OpenBabel11032420153D

 28 33  0  0  0  0  0  0  0  0999 V2000
  185.2270  178.9760  146.1000 C   0  0  0  0  0  3  0  0  0  0  0  0
  188.0330  177.5730  146.0680 C   0  0  0  0  0  3  0  0  0  0  0  0
  190.1570  177.0010  141.2680 C   0  0  0  0  0  3  0  0  0  0  0  0
  185.4520  178.7950  144.8050 C   0  0  0  0  0  3  0  0  0  0  0  0
  184.9710  179.0140  138.3230 O   0  0  0  0  0  0  0  0  0  0  0  0
  183.3040  178.4280  141.3430 C   0  0  0  0  0  3  0  0  0  0  0  0
  187.2380  178.5270  139.7340 C   0  0  0  0  0  3  0  0  0  0  0  0
  188.0500  177.4880  142.5930 C   0  0  0  0  0  0  0  0  0  0  0  0
  188.7260  177.4290  141.4250 C   0  0  0  0  0  0  0  0  0  0  0  0
  187.7390  177.6280  144.7610 C   0  0  0  0  0  0  0  0  0  0  0  0
  189.5460  178.1110  139.3670 N   0  0  0  0  0  0  0  0  0  0  0  0
  185.9190  178.5040  140.3830 C   0  0  0  0  0  0  0  0  0  0  0  0
  186.7740  178.0260  142.7780 C   0  0  0  0  0  0  0  0  0  0  0  0
  184.8080  178.7530  139.5460 C   0  0  0  0  0  0  0  0  0  0  0  0
  190.6560  177.5230  139.9880 N   0  0  0  0  0  0  0  0  0  0  0  0
  186.6090  178.1500  144.1640 C   0  0  0  0  0  0  0  0  0  0  0  0
  185.6970  178.2550  141.7620 C   0  0  0  0  0  0  0  0  0  0  0  0
  186.0700  178.5880  147.2320 C   0  0  0  0  0  3  0  0  0  0  0  0
  184.3660  178.2020  142.2090 C   0  0  0  0  0  3  0  0  0  0  0  0
  188.5840  177.1610  143.8080 N   0  0  0  0  0  0  0  0  0  0  0  0
  187.2690  177.9950  147.2520 C   0  0  0  0  0  0  0  0  0  0  0  0
  188.3970  178.0720  140.1790 C   0  0  0  0  0  0  0  0  0  0  0  0
  183.5460  178.7060  140.0410 N   0  0  0  0  0  0  0  0  0  0  0  0
  191.0170  177.5150  144.1800 C   0  0  0  0  0  2  0  0  0  0  0  0
  189.8800  176.5040  144.0630 C   0  0  0  0  0  3  0  0  0  0  0  0
  190.4120  176.9300  145.4270 C   0  0  0  0  0  2  0  0  0  0  0  0
  189.1790  178.1840  148.8370 C   0  0  0  0  0  1  0  0  0  0  0  0
  187.8780  177.7220  148.4860 O   0  0  0  0  0  0  0  0  0  0  0  0
  1 18  1  0  0  0  0
  2 21  1  0  0  0  0
  3  9  1  0  0  0  0
  4  1  2  0  0  0  0
  5 14  2  0  0  0  0
  6 19  1  0  0  0  0
  7 22  1  0  0  0  0
  7 12  2  0  0  0  0
  8 13  1  0  0  0  0
  8 20  1  0  0  0  0
  9  8  2  0  0  0  0
 10  2  2  0  0  0  0
 11 15  1  0  0  0  0
 11 22  2  0  0  0  0
 12 17  1  0  0  0  0
 13 16  2  0  0  0  0
 14 23  1  0  0  0  0
 14 12  1  0  0  0  0
 15  3  2  0  0  0  0
 16 10  1  0  0  0  0
 16  4  1  0  0  0  0
 17 19  2  0  0  0  0
 17 13  1  0  0  0  0
 18 21  2  0  0  0  0
 20 25  1  0  0  0  0
 20 10  1  0  0  0  0
 21 28  1  0  0  0  0
 22  9  1  0  0  0  0
 23  6  2  0  0  0  0
 24 26  1  0  0  0  0
 25 24  1  0  0  0  0
 25 26  1  0  0  0  0
 28 27  1  0  0  0  0
M  END
>  <MODEL>
4

>  <REMARK>
 VINA RESULT:     -10.2      2.269      3.529
  Name = 
  2 active torsions:
  status: ('A' for Active; 'I' for Inactive)
    1  A    between atoms: C_15  and  N_24
    2  A    between atoms: C_25  and  O_26
                            x       y       z     vdW  Elec       q    Type
                         _______ _______ _______ _____ _____    ______ ____

>  <TORSDO>
F 2

$$$$
=
 OpenBabel11032420153D

 28 33  0  0  0  0  0  0  0  0999 V2000
  185.1030  179.0410  141.0880 C   0  0  0  0  0  3  0  0  0  0  0  0
  184.9690  178.2270  144.1150 C   0  0  0  0  0  3  0  0  0  0  0  0
  189.6350  177.0590  146.2930 C   0  0  0  0  0  3  0  0  0  0  0  0
  186.3400  178.6340  141.3400 C   0  0  0  0  0  3  0  0  0  0  0  0
  192.6960  177.3670  140.8020 O   0  0  0  0  0  0  0  0  0  0  0  0
  189.5490  177.1330  139.2940 C   0  0  0  0  0  3  0  0  0  0  0  0
  191.3200  177.6350  143.1250 C   0  0  0  0  0  3  0  0  0  0  0  0
  188.3470  177.4060  144.1360 C   0  0  0  0  0  0  0  0  0  0  0  0
  189.5060  177.2290  144.8060 C   0  0  0  0  0  0  0  0  0  0  0  0
  186.2440  177.9440  143.8120 C   0  0  0  0  0  0  0  0  0  0  0  0
  191.6970  177.6000  145.4690 N   0  0  0  0  0  0  0  0  0  0  0  0
  190.6210  177.5000  141.8390 C   0  0  0  0  0  0  0  0  0  0  0  0
  188.2200  177.7170  142.7800 C   0  0  0  0  0  0  0  0  0  0  0  0
  191.4410  177.3470  140.6970 C   0  0  0  0  0  0  0  0  0  0  0  0
  191.0170  177.3810  146.6750 N   0  0  0  0  0  0  0  0  0  0  0  0
  186.8840  178.1010  142.5980 C   0  0  0  0  0  0  0  0  0  0  0  0
  189.2120  177.5130  141.6750 C   0  0  0  0  0  0  0  0  0  0  0  0
  183.9540  179.0730  141.9950 C   0  0  0  0  0  3  0  0  0  0  0  0
  188.7040  177.3040  140.3820 C   0  0  0  0  0  3  0  0  0  0  0  0
  187.1160  177.4550  144.7280 N   0  0  0  0  0  0  0  0  0  0  0  0
  183.8660  178.7380  143.2880 C   0  0  0  0  0  0  0  0  0  0  0  0
  190.8430  177.5170  144.3520 C   0  0  0  0  0  0  0  0  0  0  0  0
  190.8900  177.1670  139.4710 N   0  0  0  0  0  0  0  0  0  0  0  0
  187.0020  178.3200  147.0570 C   0  0  0  0  0  2  0  0  0  0  0  0
  186.7890  177.1280  146.1290 C   0  0  0  0  0  3  0  0  0  0  0  0
  185.6120  177.9790  146.5940 C   0  0  0  0  0  2  0  0  0  0  0  0
  181.3920  179.0030  143.2560 C   0  0  0  0  0  1  0  0  0  0  0  0
  182.6310  178.8560  143.9420 O   0  0  0  0  0  0  0  0  0  0  0  0
  1  4  2  0  0  0  0
  1 18  1  0  0  0  0
  3 15  2  0  0  0  0
  4 16  1  0  0  0  0
  6 23  2  0  0  0  0
  6 19  1  0  0  0  0
  7 22  1  0  0  0  0
  8 20  1  0  0  0  0
  8  9  2  0  0  0  0
  9  3  1  0  0  0  0
 10  2  2  0  0  0  0
 10 20  1  0  0  0  0
 11 15  1  0  0  0  0
 12  7  2  0  0  0  0
 13  8  1  0  0  0  0
 14  5  2  0  0  0  0
 14 12  1  0  0  0  0
 16 13  2  0  0  0  0
 16 10  1  0  0  0  0
 17 12  1  0  0  0  0
 17 13  1  0  0  0  0
 18 21  2  0  0  0  0
 19 17  2  0  0  0  0
 20 25  1  0  0  0  0
 21 28  1  0  0  0  0
 21  2  1  0  0  0  0
 22  9  1  0  0  0  0
 22 11  2  0  0  0  0
 23 14  1  0  0  0  0
 25 26  1  0  0  0  0
 25 24  1  0  0  0  0
 26 24  1  0  0  0  0
 27 28  1  0  0  0  0
M  END
>  <MODEL>
5

>  <REMARK>
 VINA RESULT:      -9.9      2.264      7.069
  Name = 
  2 active torsions:
  status: ('A' for Active; 'I' for Inactive)
    1  A    between atoms: C_15  and  N_24
    2  A    between atoms: C_25  and  O_26
                            x       y       z     vdW  Elec       q    Type
                         _______ _______ _______ _____ _____    ______ ____

>  <TORSDO>
F 2

$$$$
=
 OpenBabel11032420153D

 28 33  0  0  0  0  0  0  0  0999 V2000
  183.5060  178.4210  142.3520 C   0  0  0  0  0  3  0  0  0  0  0  0
  185.8100  178.6150  140.2310 C   0  0  0  0  0  3  0  0  0  0  0  0
  190.6180  177.4710  142.0880 C   0  0  0  0  0  3  0  0  0  0  0  0
  184.6000  178.2700  143.0880 C   0  0  0  0  0  2  0  0  0  0  0  0
  188.6380  177.1050  148.0510 O   0  0  0  0  0  0  0  0  0  0  0  0
  185.7810  178.8090  146.9670 C   0  0  0  0  0  3  0  0  0  0  0  0
  189.2650  176.9310  145.4170 C   0  0  0  0  0  3  0  0  0  0  0  0
  188.2240  178.0700  142.6720 C   0  0  0  0  0  0  0  0  0  0  0  0
  189.4610  177.6580  143.0260 C   0  0  0  0  0  0  0  0  0  0  0  0
  186.4980  178.4450  141.3690 C   0  0  0  0  0  0  0  0  0  0  0  0
  191.1020  176.3610  144.0250 N   0  0  0  0  0  0  0  0  0  0  0  0
  188.0180  177.5710  145.8600 C   0  0  0  0  0  0  0  0  0  0  0  0
  187.1000  178.1020  143.5000 C   0  0  0  0  0  0  0  0  0  0  0  0
  187.8060  177.6210  147.2570 C   0  0  0  0  0  0  0  0  0  0  0  0
  191.5940  176.5800  142.7310 N   0  0  0  0  0  0  0  0  0  0  0  0
  186.0030  178.2980  142.6490 C   0  0  0  0  0  0  0  0  0  0  0  0
  187.0380  178.1260  144.9970 C   0  0  0  0  0  0  0  0  0  0  0  0
  183.4060  178.6510  140.9100 C   0  0  0  0  0  3  0  0  0  0  0  0
  185.9340  178.7620  145.5880 C   0  0  0  0  0  2  0  0  0  0  0  0
  187.8540  178.3770  141.3930 N   0  0  0  0  0  0  0  0  0  0  0  0
  184.3660  178.7340  139.9810 C   0  0  0  0  0  0  0  0  0  0  0  0
  189.8550  176.9790  144.2340 C   0  0  0  0  0  0  0  0  0  0  0  0
  186.7090  178.2340  147.7670 N   0  0  0  0  0  0  0  0  0  0  0  0
  188.9950  177.1850  139.5330 C   0  0  0  0  0  2  0  0  0  0  0  0
  188.7370  178.5220  140.2200 C   0  0  0  0  0  3  0  0  0  0  0  0
  187.9790  178.1330  138.9550 C   0  0  0  0  0  2  0  0  0  0  0  0
  182.9890  178.2370  137.9680 C   0  0  0  0  0  1  0  0  0  0  0  0
  184.0070  178.9680  138.6450 O   0  0  0  0  0  0  0  0  0  0  0  0
  1  4  1  0  0  0  0
  2 10  1  0  0  0  0
  3 15  2  0  0  0  0
  3  9  1  0  0  0  0
  6 23  2  0  0  0  0
  7 12  2  0  0  0  0
  8  9  2  0  0  0  0
  8 13  1  0  0  0  0
  9 22  1  0  0  0  0
 10 20  1  0  0  0  0
 10 16  2  0  0  0  0
 11 22  2  0  0  0  0
 12 14  1  0  0  0  0
 13 17  2  0  0  0  0
 14 23  1  0  0  0  0
 14  5  2  0  0  0  0
 15 11  1  0  0  0  0
 16  4  1  0  0  0  0
 16 13  1  0  0  0  0
 17 19  1  0  0  0  0
 17 12  1  0  0  0  0
 18  1  2  0  0  0  0
 19  6  1  0  0  0  0
 20  8  1  0  0  0  0
 21  2  2  0  0  0  0
 21 18  1  0  0  0  0
 22  7  1  0  0  0  0
 24 25  1  0  0  0  0
 25 20  1  0  0  0  0
 26 24  1  0  0  0  0
 26 25  1  0  0  0  0
 27 28  1  0  0  0  0
 28 21  1  0  0  0  0
M  END
>  <MODEL>
6

>  <REMARK>
 VINA RESULT:      -9.7      2.226      6.157
  Name = 
  2 active torsions:
  status: ('A' for Active; 'I' for Inactive)
    1  A    between atoms: C_15  and  N_24
    2  A    between atoms: C_25  and  O_26
                            x       y       z     vdW  Elec       q    Type
                         _______ _______ _______ _____ _____    ______ ____

>  <TORSDO>
F 2

$$$$
=
 OpenBabel11032420153D

 28 33  0  0  0  0  0  0  0  0999 V2000
  181.5910  178.6220  144.1860 C   0  0  0  0  0  3  0  0  0  0  0  0
  182.5610  179.1420  141.2470 C   0  0  0  0  0  3  0  0  0  0  0  0
  187.6850  178.1790  140.4140 C   0  0  0  0  0  3  0  0  0  0  0  0
  182.9070  178.4860  144.2790 C   0  0  0  0  0  2  0  0  0  0  0  0
  188.8780  177.2000  146.5150 O   0  0  0  0  0  0  0  0  0  0  0  0
  185.8220  178.7890  147.1340 C   0  0  0  0  0  3  0  0  0  0  0  0
  188.1410  177.2820  143.9050 C   0  0  0  0  0  3  0  0  0  0  0  0
  185.8690  178.5660  142.1430 C   0  0  0  0  0  0  0  0  0  0  0  0
  187.1300  178.2110  141.8090 C   0  0  0  0  0  0  0  0  0  0  0  0
  183.7200  178.9280  141.8850 C   0  0  0  0  0  0  0  0  0  0  0  0
  189.0750  176.9510  141.7480 N   0  0  0  0  0  0  0  0  0  0  0  0
  187.2570  177.7980  144.9610 C   0  0  0  0  0  0  0  0  0  0  0  0
  185.2930  178.4550  143.4100 C   0  0  0  0  0  0  0  0  0  0  0  0
  187.7540  177.7210  146.2820 C   0  0  0  0  0  0  0  0  0  0  0  0
  188.8680  177.3070  140.4080 N   0  0  0  0  0  0  0  0  0  0  0  0
  183.9170  178.6450  143.2220 C   0  0  0  0  0  0  0  0  0  0  0  0
  185.9700  178.3540  144.7430 C   0  0  0  0  0  0  0  0  0  0  0  0
  180.7950  178.9610  143.0040 C   0  0  0  0  0  3  0  0  0  0  0  0
  185.2840  178.8640  145.8560 C   0  0  0  0  0  2  0  0  0  0  0  0
  184.9160  178.9490  141.2420 N   0  0  0  0  0  0  0  0  0  0  0  0
  181.1760  179.1830  141.7410 C   0  0  0  0  0  0  0  0  0  0  0  0
  188.0770  177.4650  142.5970 C   0  0  0  0  0  0  0  0  0  0  0  0
  187.0340  178.2150  147.3190 N   0  0  0  0  0  0  0  0  0  0  0  0
  184.6670  178.0900  138.9220 C   0  0  0  0  0  2  0  0  0  0  0  0
  185.1100  179.2480  139.8110 C   0  0  0  0  0  3  0  0  0  0  0  0
  183.7600  179.2760  139.1040 C   0  0  0  0  0  2  0  0  0  0  0  0
  179.7160  180.8200  140.5660 C   0  0  0  0  0  1  0  0  0  0  0  0
  180.2060  179.4990  140.7790 O   0  0  0  0  0  0  0  0  0  0  0  0
  1  4  1  0  0  0  0
  2 21  2  0  0  0  0
  2 10  1  0  0  0  0
  3  9  1  0  0  0  0
  6 23  2  0  0  0  0
  7 12  2  0  0  0  0
  8 13  1  0  0  0  0
  9  8  2  0  0  0  0
  9 22  1  0  0  0  0
 10 16  2  0  0  0  0
 11 22  2  0  0  0  0
 12 14  1  0  0  0  0
 13 17  2  0  0  0  0
 14  5  2  0  0  0  0
 14 23  1  0  0  0  0
 15  3  2  0  0  0  0
 15 11  1  0  0  0  0
 16 13  1  0  0  0  0
 16  4  1  0  0  0  0
 17 12  1  0  0  0  0
 17 19  1  0  0  0  0
 18  1  2  0  0  0  0
 19  6  1  0  0  0  0
 20 10  1  0  0  0  0
 20  8  1  0  0  0  0
 21 18  1  0  0  0  0
 22  7  1  0  0  0  0
 24 26  1  0  0  0  0
 24 25  1  0  0  0  0
 25 20  1  0  0  0  0
 26 25  1  0  0  0  0
 27 28  1  0  0  0  0
 28 21  1  0  0  0  0
M  END
>  <MODEL>
7

>  <REMARK>
 VINA RESULT:      -9.6      2.515      6.926
  Name = 
  2 active torsions:
  status: ('A' for Active; 'I' for Inactive)
    1  A    between atoms: C_15  and  N_24
    2  A    between atoms: C_25  and  O_26
                            x       y       z     vdW  Elec       q    Type
                         _______ _______ _______ _____ _____    ______ ____

>  <TORSDO>
F 2

$$$$
=
 OpenBabel11032420153D

 28 33  0  0  0  0  0  0  0  0999 V2000
  184.6000  178.1120  146.2360 C   0  0  0  0  0  3  0  0  0  0  0  0
  184.5390  178.9030  143.2000 C   0  0  0  0  0  3  0  0  0  0  0  0
  188.9260  177.6990  140.5200 C   0  0  0  0  0  3  0  0  0  0  0  0
  185.8450  177.8770  145.8440 C   0  0  0  0  0  2  0  0  0  0  0  0
  192.0510  175.9390  145.6920 O   0  0  0  0  0  0  0  0  0  0  0  0
  189.5830  177.6480  147.4890 C   0  0  0  0  0  3  0  0  0  0  0  0
  190.4680  176.3730  143.5310 C   0  0  0  0  0  3  0  0  0  0  0  0
  187.8730  178.0040  142.8080 C   0  0  0  0  0  0  0  0  0  0  0  0
  188.8950  177.6060  142.0190 C   0  0  0  0  0  0  0  0  0  0  0  0
  185.8180  178.5380  143.3630 C   0  0  0  0  0  0  0  0  0  0  0  0
  190.5560  176.2330  141.1630 N   0  0  0  0  0  0  0  0  0  0  0  0
  190.0640  176.8220  144.8720 C   0  0  0  0  0  0  0  0  0  0  0  0
  187.7640  177.7860  144.1830 C   0  0  0  0  0  0  0  0  0  0  0  0
  190.9770  176.5580  145.9190 C   0  0  0  0  0  0  0  0  0  0  0  0
  189.9350  176.7550  140.0200 N   0  0  0  0  0  0  0  0  0  0  0  0
  186.4360  178.0890  144.5140 C   0  0  0  0  0  0  0  0  0  0  0  0
  188.8470  177.4850  145.1740 C   0  0  0  0  0  0  0  0  0  0  0  0
  183.4830  178.6390  145.4490 C   0  0  0  0  0  3  0  0  0  0  0  0
  188.6460  177.9080  146.4980 C   0  0  0  0  0  2  0  0  0  0  0  0
  186.7120  178.5530  142.3420 N   0  0  0  0  0  0  0  0  0  0  0  0
  183.4240  178.9790  144.1560 C   0  0  0  0  0  0  0  0  0  0  0  0
  189.9730  176.7110  142.3530 C   0  0  0  0  0  0  0  0  0  0  0  0
  190.7170  176.9760  147.1820 N   0  0  0  0  0  0  0  0  0  0  0  0
  185.7670  177.9080  140.1340 C   0  0  0  0  0  2  0  0  0  0  0  0
  186.4280  179.0030  140.9660 C   0  0  0  0  0  3  0  0  0  0  0  0
  184.9220  179.0030  140.7260 C   0  0  0  0  0  2  0  0  0  0  0  0
  181.6250  178.9760  142.4370 C   0  0  0  0  0  1  0  0  0  0  0  0
  182.2190  179.4710  143.6330 O   0  0  0  0  0  0  0  0  0  0  0  0
  2 10  1  0  0  0  0
  2 21  2  0  0  0  0
  3  9  1  0  0  0  0
  4  1  1  0  0  0  0
  5 14  2  0  0  0  0
  7 12  2  0  0  0  0
  8 13  1  0  0  0  0
  9 22  1  0  0  0  0
  9  8  2  0  0  0  0
 10 16  2  0  0  0  0
 11 22  2  0  0  0  0
 12 17  1  0  0  0  0
 12 14  1  0  0  0  0
 13 16  1  0  0  0  0
 13 17  2  0  0  0  0
 14 23  1  0  0  0  0
 15  3  2  0  0  0  0
 15 11  1  0  0  0  0
 16  4  1  0  0  0  0
 17 19  1  0  0  0  0
 18  1  2  0  0  0  0
 19  6  1  0  0  0  0
 20  8  1  0  0  0  0
 20 10  1  0  0  0  0
 21 18  1  0  0  0  0
 22  7  1  0  0  0  0
 23  6  2  0  0  0  0
 24 26  1  0  0  0  0
 24 25  1  0  0  0  0
 25 20  1  0  0  0  0
 26 25  1  0  0  0  0
 27 28  1  0  0  0  0
 28 21  1  0  0  0  0
M  END
>  <MODEL>
8

>  <REMARK>
 VINA RESULT:      -9.6      1.548      6.091
  Name = 
  2 active torsions:
  status: ('A' for Active; 'I' for Inactive)
    1  A    between atoms: C_15  and  N_24
    2  A    between atoms: C_25  and  O_26
                            x       y       z     vdW  Elec       q    Type
                         _______ _______ _______ _____ _____    ______ ____

>  <TORSDO>
F 2

$$$$
=
 OpenBabel11032420153D

 28 33  0  0  0  0  0  0  0  0999 V2000
  191.0480  177.7560  141.2930 C   0  0  0  0  0  3  0  0  0  0  0  0
  188.0050  177.8800  140.5390 C   0  0  0  0  0  3  0  0  0  0  0  0
  184.7410  178.5070  144.6410 C   0  0  0  0  0  3  0  0  0  0  0  0
  190.4480  177.7350  142.4760 C   0  0  0  0  0  2  0  0  0  0  0  0
  189.3400  177.8370  148.8840 O   0  0  0  0  0  0  0  0  0  0  0  0
  191.2280  176.4550  146.2830 C   0  0  0  0  0  3  0  0  0  0  0  0
  187.5460  178.4710  146.9500 C   0  0  0  0  0  3  0  0  0  0  0  0
  187.0830  177.8890  143.8900 C   0  0  0  0  0  0  0  0  0  0  0  0
  186.1920  178.1890  144.8600 C   0  0  0  0  0  0  0  0  0  0  0  0
  187.9530  177.8150  141.8760 C   0  0  0  0  0  0  0  0  0  0  0  0
  185.3060  179.2270  146.7340 N   0  0  0  0  0  0  0  0  0  0  0  0
  188.8130  177.8020  146.6210 C   0  0  0  0  0  0  0  0  0  0  0  0
  188.4620  177.7420  144.0580 C   0  0  0  0  0  0  0  0  0  0  0  0
  189.6610  177.5030  147.7120 C   0  0  0  0  0  0  0  0  0  0  0  0
  184.2440  179.2330  145.8190 N   0  0  0  0  0  0  0  0  0  0  0  0
  189.0070  177.7410  142.7660 C   0  0  0  0  0  0  0  0  0  0  0  0
  189.2280  177.4460  145.3120 C   0  0  0  0  0  0  0  0  0  0  0  0
  190.4350  177.7980  139.9640 C   0  0  0  0  0  3  0  0  0  0  0  0
  190.4400  176.7490  145.1790 C   0  0  0  0  0  2  0  0  0  0  0  0
  186.7800  177.8340  142.5590 N   0  0  0  0  0  0  0  0  0  0  0  0
  189.1450  177.8560  139.6110 C   0  0  0  0  0  0  0  0  0  0  0  0
  186.4630  178.6220  146.2070 C   0  0  0  0  0  0  0  0  0  0  0  0
  190.8300  176.8430  147.5160 N   0  0  0  0  0  0  0  0  0  0  0  0
  184.9130  179.3050  141.8290 C   0  0  0  0  0  2  0  0  0  0  0  0
  185.4380  177.8780  141.9480 C   0  0  0  0  0  3  0  0  0  0  0  0
  185.5010  178.6280  140.6220 C   0  0  0  0  0  2  0  0  0  0  0  0
  189.0560  179.0020  137.4030 C   0  0  0  0  0  1  0  0  0  0  0  0
  188.8100  177.8820  138.2490 O   0  0  0  0  0  0  0  0  0  0  0  0
  1  4  1  0  0  0  0
  2 10  1  0  0  0  0
  3  9  2  0  0  0  0
  3 15  1  0  0  0  0
  4 16  1  0  0  0  0
  6 23  2  0  0  0  0
  8 13  2  0  0  0  0
  8  9  1  0  0  0  0
  9 22  1  0  0  0  0
 10 20  1  0  0  0  0
 10 16  2  0  0  0  0
 12  7  1  0  0  0  0
 12 14  1  0  0  0  0
 13 17  1  0  0  0  0
 14  5  2  0  0  0  0
 15 11  2  0  0  0  0
 16 13  1  0  0  0  0
 17 12  2  0  0  0  0
 18  1  2  0  0  0  0
 19 17  1  0  0  0  0
 19  6  1  0  0  0  0
 20  8  1  0  0  0  0
 21 18  1  0  0  0  0
 21  2  2  0  0  0  0
 22 11  1  0  0  0  0
 22  7  2  0  0  0  0
 23 14  1  0  0  0  0
 24 25  1  0  0  0  0
 25 20  1  0  0  0  0
 26 24  1  0  0  0  0
 26 25  1  0  0  0  0
 27 28  1  0  0  0  0
 28 21  1  0  0  0  0
M  END
>  <MODEL>
9

>  <REMARK>
 VINA RESULT:      -9.6      2.281      6.216
  Name = 
  2 active torsions:
  status: ('A' for Active; 'I' for Inactive)
    1  A    between atoms: C_15  and  N_24
    2  A    between atoms: C_25  and  O_26
                            x       y       z     vdW  Elec       q    Type
                         _______ _______ _______ _____ _____    ______ ____

>  <TORSDO>
F 2

$$$$
