=
 OpenBabel11042411203D

 25 28  0  0  1  0  0  0  0  0999 V2000
  183.6460  179.0940  145.8180 N   0  0  0  0  0  1  0  0  0  0  0  0
  186.5200  178.5160  141.8670 C   0  0  0  0  0  3  0  0  0  0  0  0
  184.1780  178.5910  142.7980 C   0  0  0  0  0  1  0  0  0  0  0  0
  186.7830  178.2750  147.2870 C   0  0  1  0  0  3  0  0  0  0  0  0
  187.9560  177.3050  145.3290 C   0  0  0  0  0  0  0  0  0  0  0  0
  185.6120  178.2170  142.9230 C   0  0  0  0  0  0  0  0  0  0  0  0
  188.3640  177.7130  143.2120 C   0  0  0  0  0  0  0  0  0  0  0  0
  184.9250  178.6030  146.2010 C   0  0  0  0  0  0  0  0  0  0  0  0
  187.8900  178.6980  148.0770 N   0  0  0  0  0  1  0  0  0  0  0  0
  189.5570  177.8670  143.9090 C   0  0  0  0  0  0  0  0  0  0  0  0
  187.4620  177.3180  144.1360 C   0  0  0  0  0  0  0  0  0  0  0  0
  185.5140  178.9430  147.3080 N   0  0  0  0  0  0  0  0  0  0  0  0
  186.8930  177.5540  146.1810 C   0  0  2  0  0  3  0  0  0  0  0  0
  185.7480  177.6810  145.4300 C   0  0  2  0  0  3  0  0  0  0  0  0
  189.2910  177.6920  145.2860 C   0  0  0  0  0  2  0  0  0  0  0  0
  186.1260  177.6170  144.0870 C   0  0  0  0  0  0  0  0  0  0  0  0
  187.9180  178.3060  142.0220 C   0  0  0  0  0  3  0  0  0  0  0  0
  190.8030  178.4810  143.3570 C   0  0  0  0  0  2  0  0  0  0  0  0
  191.6540  177.4400  142.6430 C   0  0  1  0  0  3  0  0  0  0  0  0
  191.7160  176.1690  143.4690 C   0  0  0  0  0  1  0  0  0  0  0  0
  191.8440  177.1240  140.1390 C   0  0  0  0  0  0  0  0  0  0  0  0
  191.0740  177.1360  141.3430 N   0  0  0  0  0  2  0  0  0  0  0  0
  193.0830  177.3620  140.1710 O   0  0  0  0  0  0  0  0  0  0  0  0
  191.9050  176.8220  137.7420 O   0  0  0  0  0  1  0  0  0  0  0  0
  191.2030  176.8400  138.8990 N   0  0  0  0  0  2  0  0  0  0  0  0
  1  8  1  0  0  0  0
  2 17  2  0  0  0  0
  2  6  1  0  0  0  0
  3  6  1  0  0  0  0
  4 12  1  0  0  0  0
  4  9  1  6  0  0  0
  6 16  2  0  0  0  0
  7 10  2  0  0  0  0
  7 11  1  0  0  0  0
  8 12  2  0  0  0  0
 10 15  1  0  0  0  0
 11  5  2  0  0  0  0
 13  5  1  6  0  0  0
 13  4  1  0  0  0  0
 14 16  1  6  0  0  0
 14 13  1  0  0  0  0
 14  8  1  0  0  0  0
 15  5  1  0  0  0  0
 16 11  1  0  0  0  0
 17  7  1  0  0  0  0
 18 10  1  0  0  0  0
 19 18  1  0  0  0  0
 19 20  1  1  0  0  0
 21 23  2  0  0  0  0
 21 22  1  0  0  0  0
 22 19  1  0  0  0  0
 24 25  1  0  0  0  0
 25 21  1  0  0  0  0
M  END
>  <MODEL>
1

>  <REMARK>
 VINA RESULT:     -10.2      0.000      0.000
  Name = 
  3 active torsions:
  status: ('A' for Active; 'I' for Inactive)
    1  A    between atoms: C_4  and  C_6
    2  A    between atoms: C_4  and  C_13
    3  A    between atoms: C_6  and  N_16
                            x       y       z     vdW  Elec       q    Type
                         _______ _______ _______ _____ _____    ______ ____

>  <TORSDO>
F 3

$$$$
=
 OpenBabel11042411203D

 25 28  0  0  1  0  0  0  0  0999 V2000
  191.6730  177.8450  145.6830 N   0  0  0  0  0  1  0  0  0  0  0  0
  187.2370  178.3730  147.7460 C   0  0  0  0  0  3  0  0  0  0  0  0
  189.6770  177.8200  148.0650 C   0  0  0  0  0  1  0  0  0  0  0  0
  189.5030  177.5820  142.8740 C   0  0  1  0  0  3  0  0  0  0  0  0
  187.3480  177.1260  144.0120 C   0  0  0  0  0  0  0  0  0  0  0  0
  188.4280  177.7620  147.2590 C   0  0  0  0  0  0  0  0  0  0  0  0
  186.1090  177.8510  145.6710 C   0  0  0  0  0  0  0  0  0  0  0  0
  190.6470  177.6110  144.7260 C   0  0  0  0  0  0  0  0  0  0  0  0
  189.0430  178.1480  141.6500 N   0  0  0  0  0  1  0  0  0  0  0  0
  185.4640  178.1860  144.4850 C   0  0  0  0  0  0  0  0  0  0  0  0
  187.2080  177.1640  145.2950 C   0  0  2  0  0  3  0  0  0  0  0  0
  190.7530  177.9450  143.4750 N   0  0  0  0  0  0  0  0  0  0  0  0
  188.7100  177.0340  143.7830 C   0  0  2  0  0  3  0  0  0  0  0  0
  189.3580  176.9880  144.9940 C   0  0  2  0  0  3  0  0  0  0  0  0
  186.2940  177.8020  143.4070 C   0  0  0  0  0  3  0  0  0  0  0  0
  188.3910  177.1630  145.9870 C   0  0  0  0  0  0  0  0  0  0  0  0
  186.0740  178.4620  146.9330 C   0  0  0  0  0  3  0  0  0  0  0  0
  184.3030  179.1200  144.3710 C   0  0  0  0  0  2  0  0  0  0  0  0
  183.4210  178.7520  143.1860 C   0  0  1  0  0  3  0  0  0  0  0  0
  181.9720  179.0750  143.5000 C   0  0  0  0  0  1  0  0  0  0  0  0
  184.1610  178.8760  140.7690 C   0  0  0  0  0  0  0  0  0  0  0  0
  183.8340  179.5040  142.0110 N   0  0  0  0  0  2  0  0  0  0  0  0
  184.0780  177.6230  140.6460 O   0  0  0  0  0  0  0  0  0  0  0  0
  184.8960  179.1120  138.4790 O   0  0  0  0  0  1  0  0  0  0  0  0
  184.5800  179.6770  139.6680 N   0  0  0  0  0  2  0  0  0  0  0  0
  4  9  1  1  0  0  0
  4 12  1  0  0  0  0
  4 13  1  0  0  0  0
  6  2  1  0  0  0  0
  6  3  1  0  0  0  0
  7 17  1  0  0  0  0
  8  1  1  0  0  0  0
 10  7  2  0  0  0  0
 11  5  1  6  0  0  0
 11  7  1  0  0  0  0
 11 16  1  0  0  0  0
 12  8  2  0  0  0  0
 13  5  1  1  0  0  0
 13 14  1  0  0  0  0
 14  8  1  6  0  0  0
 14 16  1  0  0  0  0
 15  5  2  0  0  0  0
 15 10  1  0  0  0  0
 16  6  2  0  0  0  0
 17  2  2  0  0  0  0
 18 10  1  0  0  0  0
 19 20  1  1  0  0  0
 19 18  1  0  0  0  0
 21 22  1  0  0  0  0
 22 19  1  0  0  0  0
 23 21  2  0  0  0  0
 24 25  1  0  0  0  0
 25 21  1  0  0  0  0
M  END
>  <MODEL>
2

>  <REMARK>
 VINA RESULT:     -10.1      3.192      6.218
  Name = 
  3 active torsions:
  status: ('A' for Active; 'I' for Inactive)
    1  A    between atoms: C_4  and  C_6
    2  A    between atoms: C_4  and  C_13
    3  A    between atoms: C_6  and  N_16
                            x       y       z     vdW  Elec       q    Type
                         _______ _______ _______ _____ _____    ______ ____

>  <TORSDO>
F 3

$$$$
=
 OpenBabel11042411203D

 25 28  0  0  1  0  0  0  0  0999 V2000
  187.8760  178.3580  148.4450 N   0  0  0  0  0  1  0  0  0  0  0  0
  185.3080  178.6950  144.2610 C   0  0  0  0  0  3  0  0  0  0  0  0
  185.2600  178.5440  146.7780 C   0  0  0  0  0  1  0  0  0  0  0  0
  190.2410  177.2560  146.0220 C   0  0  1  0  0  3  0  0  0  0  0  0
  188.7330  176.7560  144.1190 C   0  0  0  0  0  0  0  0  0  0  0  0
  185.8480  178.1620  145.4660 C   0  0  0  0  0  0  0  0  0  0  0  0
  187.0670  177.6270  142.9890 C   0  0  0  0  0  0  0  0  0  0  0  0
  188.6130  177.8040  147.3620 C   0  0  0  0  0  0  0  0  0  0  0  0
  191.4640  177.5010  145.3360 N   0  0  0  0  0  1  0  0  0  0  0  0
  188.1850  177.6310  142.1620 C   0  0  0  0  0  0  0  0  0  0  0  0
  187.4710  177.0300  144.1300 C   0  0  2  0  0  3  0  0  0  0  0  0
  189.9060  177.8930  147.2630 N   0  0  0  0  0  0  0  0  0  0  0  0
  189.1410  176.8000  145.4410 C   0  0  2  0  0  3  0  0  0  0  0  0
  188.0500  177.0830  146.2290 C   0  0  2  0  0  3  0  0  0  0  0  0
  189.2870  177.1520  142.9060 C   0  0  0  0  0  3  0  0  0  0  0  0
  186.9730  177.3220  145.3720 C   0  0  0  0  0  0  0  0  0  0  0  0
  185.9430  178.4660  143.0090 C   0  0  0  0  0  3  0  0  0  0  0  0
  188.2920  178.3620  140.8620 C   0  0  0  0  0  2  0  0  0  0  0  0
  188.7780  177.4370  139.7550 C   0  0  1  0  0  3  0  0  0  0  0  0
  187.9990  177.7030  138.4810 C   0  0  0  0  0  1  0  0  0  0  0  0
  191.0680  176.6450  139.0260 C   0  0  0  0  0  0  0  0  0  0  0  0
  190.1940  177.6680  139.5060 N   0  0  0  0  0  2  0  0  0  0  0  0
  190.6250  175.4900  138.7780 O   0  0  0  0  0  0  0  0  0  0  0  0
  193.3020  175.9910  138.3740 O   0  0  0  0  0  1  0  0  0  0  0  0
  192.4480  176.9390  138.8270 N   0  0  0  0  0  2  0  0  0  0  0  0
  2  6  1  0  0  0  0
  4  9  1  6  0  0  0
  4 12  1  0  0  0  0
  5 11  1  0  0  0  0
  6  3  1  0  0  0  0
  7 17  1  0  0  0  0
  8  1  1  0  0  0  0
 10 15  1  0  0  0  0
 10  7  2  0  0  0  0
 11  7  1  6  0  0  0
 11 16  1  0  0  0  0
 12  8  2  0  0  0  0
 13  5  1  6  0  0  0
 13  4  1  0  0  0  0
 13 14  1  0  0  0  0
 14 16  1  6  0  0  0
 14  8  1  0  0  0  0
 15  5  2  0  0  0  0
 16  6  2  0  0  0  0
 17  2  2  0  0  0  0
 18 10  1  0  0  0  0
 19 20  1  6  0  0  0
 19 18  1  0  0  0  0
 21 22  1  0  0  0  0
 22 19  1  0  0  0  0
 23 21  2  0  0  0  0
 24 25  1  0  0  0  0
 25 21  1  0  0  0  0
M  END
>  <MODEL>
3

>  <REMARK>
 VINA RESULT:      -9.9      1.814      3.201
  Name = 
  3 active torsions:
  status: ('A' for Active; 'I' for Inactive)
    1  A    between atoms: C_4  and  C_6
    2  A    between atoms: C_4  and  C_13
    3  A    between atoms: C_6  and  N_16
                            x       y       z     vdW  Elec       q    Type
                         _______ _______ _______ _____ _____    ______ ____

>  <TORSDO>
F 3

$$$$
=
 OpenBabel11042411203D

 25 28  0  0  1  0  0  0  0  0999 V2000
  190.8070  177.3060  147.0980 N   0  0  0  0  0  1  0  0  0  0  0  0
  186.1200  178.7970  147.2480 C   0  0  0  0  0  3  0  0  0  0  0  0
  188.1010  177.8840  148.5130 C   0  0  0  0  0  1  0  0  0  0  0  0
  189.8420  177.0940  143.6770 C   0  0  1  0  0  3  0  0  0  0  0  0
  187.3740  177.1360  143.9040 C   0  0  0  0  0  0  0  0  0  0  0  0
  187.2600  177.9450  147.2870 C   0  0  0  0  0  0  0  0  0  0  0  0
  185.7730  178.2410  144.9190 C   0  0  0  0  0  0  0  0  0  0  0  0
  190.1900  177.1400  145.8270 C   0  0  0  0  0  0  0  0  0  0  0  0
  189.9960  177.5870  142.3500 N   0  0  0  0  0  1  0  0  0  0  0  0
  185.7000  178.5430  143.5630 C   0  0  0  0  0  0  0  0  0  0  0  0
  186.7740  177.3410  145.0290 C   0  0  2  0  0  3  0  0  0  0  0  0
  190.8220  177.3080  144.7030 N   0  0  0  0  0  0  0  0  0  0  0  0
  188.6750  176.7920  144.2270 C   0  0  2  0  0  3  0  0  0  0  0  0
  188.7990  176.7760  145.5960 C   0  0  2  0  0  3  0  0  0  0  0  0
  186.7790  177.9060  142.9100 C   0  0  0  0  0  3  0  0  0  0  0  0
  187.5850  177.2210  146.1260 C   0  0  0  0  0  0  0  0  0  0  0  0
  185.3890  178.9870  146.0430 C   0  0  0  0  0  3  0  0  0  0  0  0
  184.8750  179.6380  142.9690 C   0  0  0  0  0  2  0  0  0  0  0  0
  183.6030  179.0850  142.3420 C   0  0  1  0  0  3  0  0  0  0  0  0
  183.9330  177.8780  141.4840 C   0  0  0  0  0  1  0  0  0  0  0  0
  181.2580  178.8650  143.2660 C   0  0  0  0  0  0  0  0  0  0  0  0
  182.6710  178.6880  143.3870 N   0  0  0  0  0  2  0  0  0  0  0  0
  180.7630  179.3620  142.2170 O   0  0  0  0  0  0  0  0  0  0  0  0
  179.0660  178.6270  144.2560 O   0  0  0  0  0  1  0  0  0  0  0  0
  180.4080  178.4720  144.3400 N   0  0  0  0  0  2  0  0  0  0  0  0
  2  6  1  0  0  0  0
  4  9  1  1  0  0  0
  4 13  1  0  0  0  0
  4 12  1  0  0  0  0
  6  3  1  0  0  0  0
  7 11  1  0  0  0  0
  7 17  1  0  0  0  0
  8  1  1  0  0  0  0
 10  7  2  0  0  0  0
 11  5  1  6  0  0  0
 11 16  1  0  0  0  0
 12  8  2  0  0  0  0
 13  5  1  1  0  0  0
 13 14  1  0  0  0  0
 14  8  1  6  0  0  0
 14 16  1  0  0  0  0
 15 10  1  0  0  0  0
 15  5  2  0  0  0  0
 16  6  2  0  0  0  0
 17  2  2  0  0  0  0
 18 10  1  0  0  0  0
 19 20  1  1  0  0  0
 19 18  1  0  0  0  0
 19 22  1  0  0  0  0
 21 22  1  0  0  0  0
 21 25  1  0  0  0  0
 23 21  2  0  0  0  0
 24 25  1  0  0  0  0
M  END
>  <MODEL>
4

>  <REMARK>
 VINA RESULT:      -9.7      4.168      7.119
  Name = 
  3 active torsions:
  status: ('A' for Active; 'I' for Inactive)
    1  A    between atoms: C_4  and  C_6
    2  A    between atoms: C_4  and  C_13
    3  A    between atoms: C_6  and  N_16
                            x       y       z     vdW  Elec       q    Type
                         _______ _______ _______ _____ _____    ______ ____

>  <TORSDO>
F 3

$$$$
=
 OpenBabel11042411203D

 25 28  0  0  1  0  0  0  0  0999 V2000
  191.2850  177.5070  146.8430 N   0  0  0  0  0  1  0  0  0  0  0  0
  186.4710  178.5060  146.6680 C   0  0  0  0  0  3  0  0  0  0  0  0
  188.4540  177.8470  148.0790 C   0  0  0  0  0  1  0  0  0  0  0  0
  190.5550  177.0800  143.3850 C   0  0  1  0  0  3  0  0  0  0  0  0
  188.0860  176.8720  143.4690 C   0  0  0  0  0  0  0  0  0  0  0  0
  187.6870  177.7790  146.8060 C   0  0  0  0  0  0  0  0  0  0  0  0
  186.3230  177.8380  144.3480 C   0  0  0  0  0  0  0  0  0  0  0  0
  190.7660  177.2350  145.5470 C   0  0  0  0  0  0  0  0  0  0  0  0
  190.7380  177.5410  142.0490 N   0  0  0  0  0  1  0  0  0  0  0  0
  186.3010  178.0850  142.9790 C   0  0  0  0  0  0  0  0  0  0  0  0
  187.4020  177.0520  144.5500 C   0  0  2  0  0  3  0  0  0  0  0  0
  191.4440  177.4290  144.4550 N   0  0  0  0  0  0  0  0  0  0  0  0
  189.3940  176.6770  143.8790 C   0  0  2  0  0  3  0  0  0  0  0  0
  189.4360  176.7200  145.2530 C   0  0  2  0  0  3  0  0  0  0  0  0
  187.4770  177.5420  142.4140 C   0  0  0  0  0  3  0  0  0  0  0  0
  188.1530  177.0540  145.6950 C   0  0  0  0  0  0  0  0  0  0  0  0
  185.7970  178.5780  145.4170 C   0  0  0  0  0  3  0  0  0  0  0  0
  185.4070  179.0680  142.2960 C   0  0  0  0  0  2  0  0  0  0  0  0
  184.8780  178.5050  140.9850 C   0  0  1  0  0  3  0  0  0  0  0  0
  183.4440  178.9530  140.7710 C   0  0  0  0  0  1  0  0  0  0  0  0
  185.7330  178.3230  138.6100 C   0  0  0  0  0  0  0  0  0  0  0  0
  185.6950  178.9810  139.8780 N   0  0  0  0  0  2  0  0  0  0  0  0
  185.0260  177.2990  138.4000 O   0  0  0  0  0  0  0  0  0  0  0  0
  186.6330  178.2320  136.3680 O   0  0  0  0  0  1  0  0  0  0  0  0
  186.5760  178.8330  137.5800 N   0  0  0  0  0  2  0  0  0  0  0  0
  2  6  1  0  0  0  0
  4  9  1  6  0  0  0
  4 13  1  0  0  0  0
  4 12  1  0  0  0  0
  6  3  1  0  0  0  0
  7 11  1  0  0  0  0
  7 17  1  0  0  0  0
  8  1  1  0  0  0  0
 10  7  2  0  0  0  0
 11  5  1  6  0  0  0
 11 16  1  0  0  0  0
 12  8  2  0  0  0  0
 13  5  1  6  0  0  0
 13 14  1  0  0  0  0
 14  8  1  6  0  0  0
 14 16  1  0  0  0  0
 15 10  1  0  0  0  0
 15  5  2  0  0  0  0
 16  6  2  0  0  0  0
 17  2  2  0  0  0  0
 18 10  1  0  0  0  0
 19 20  1  6  0  0  0
 19 18  1  0  0  0  0
 21 22  1  0  0  0  0
 22 19  1  0  0  0  0
 23 21  2  0  0  0  0
 24 25  1  0  0  0  0
 25 21  1  0  0  0  0
M  END
>  <MODEL>
5

>  <REMARK>
 VINA RESULT:      -9.3      2.969      5.509
  Name = 
  3 active torsions:
  status: ('A' for Active; 'I' for Inactive)
    1  A    between atoms: C_4  and  C_6
    2  A    between atoms: C_4  and  C_13
    3  A    between atoms: C_6  and  N_16
                            x       y       z     vdW  Elec       q    Type
                         _______ _______ _______ _____ _____    ______ ____

>  <TORSDO>
F 3

$$$$
=
 OpenBabel11042411203D

 25 28  0  0  1  0  0  0  0  0999 V2000
  185.3700  178.7930  147.2260 N   0  0  0  0  0  1  0  0  0  0  0  0
  184.8510  179.2290  142.3520 C   0  0  0  0  0  3  0  0  0  0  0  0
  183.7260  179.0760  144.6040 C   0  0  0  0  0  1  0  0  0  0  0  0
  188.5070  177.6110  146.0290 C   0  0  1  0  0  3  0  0  0  0  0  0
  187.9440  177.1680  143.6560 C   0  0  0  0  0  0  0  0  0  0  0  0
  184.8070  178.6750  143.6630 C   0  0  0  0  0  0  0  0  0  0  0  0
  186.9500  178.1000  141.9360 C   0  0  0  0  0  0  0  0  0  0  0  0
  186.4810  178.2150  146.5530 C   0  0  0  0  0  0  0  0  0  0  0  0
  189.9140  177.8130  145.9350 N   0  0  0  0  0  1  0  0  0  0  0  0
  188.3140  178.0650  141.6670 C   0  0  0  0  0  0  0  0  0  0  0  0
  186.8080  177.4870  143.1310 C   0  0  2  0  0  3  0  0  0  0  0  0
  187.6940  178.2580  147.0180 N   0  0  0  0  0  0  0  0  0  0  0  0
  187.7480  177.1960  145.0260 C   0  0  2  0  0  3  0  0  0  0  0  0
  186.4350  177.5160  145.2760 C   0  0  2  0  0  3  0  0  0  0  0  0
  188.9750  177.5460  142.8030 C   0  0  0  0  0  3  0  0  0  0  0  0
  185.8360  177.7950  144.0450 C   0  0  0  0  0  0  0  0  0  0  0  0
  185.9530  178.9790  141.4880 C   0  0  0  0  0  3  0  0  0  0  0  0
  188.9900  178.7940  140.5500 C   0  0  0  0  0  2  0  0  0  0  0  0
  189.4490  177.8270  139.4680 C   0  0  1  0  0  3  0  0  0  0  0  0
  190.4060  176.8070  140.0590 C   0  0  0  0  0  1  0  0  0  0  0  0
  187.4550  177.7220  137.9150 C   0  0  0  0  0  0  0  0  0  0  0  0
  188.3010  177.1330  138.9050 N   0  0  0  0  0  2  0  0  0  0  0  0
  187.6970  178.8790  137.4730 O   0  0  0  0  0  0  0  0  0  0  0  0
  185.5140  177.5200  136.4890 O   0  0  0  0  0  1  0  0  0  0  0  0
  186.3330  176.9900  137.4270 N   0  0  0  0  0  2  0  0  0  0  0  0
  2  6  1  0  0  0  0
  4  9  1  6  0  0  0
  4 12  1  0  0  0  0
  6 16  2  0  0  0  0
  6  3  1  0  0  0  0
  8 12  2  0  0  0  0
  8  1  1  0  0  0  0
 10  7  2  0  0  0  0
 10 15  1  0  0  0  0
 11  7  1  6  0  0  0
 11  5  1  0  0  0  0
 11 16  1  0  0  0  0
 13  5  1  6  0  0  0
 13 14  1  0  0  0  0
 13  4  1  0  0  0  0
 14 16  1  6  0  0  0
 14  8  1  0  0  0  0
 15  5  2  0  0  0  0
 17  7  1  0  0  0  0
 17  2  2  0  0  0  0
 18 10  1  0  0  0  0
 19 20  1  1  0  0  0
 19 18  1  0  0  0  0
 21 22  1  0  0  0  0
 22 19  1  0  0  0  0
 23 21  2  0  0  0  0
 24 25  1  0  0  0  0
 25 21  1  0  0  0  0
M  END
>  <MODEL>
6

>  <REMARK>
 VINA RESULT:      -9.2      2.464      3.164
  Name = 
  3 active torsions:
  status: ('A' for Active; 'I' for Inactive)
    1  A    between atoms: C_4  and  C_6
    2  A    between atoms: C_4  and  C_13
    3  A    between atoms: C_6  and  N_16
                            x       y       z     vdW  Elec       q    Type
                         _______ _______ _______ _____ _____    ______ ____

>  <TORSDO>
F 3

$$$$
=
 OpenBabel11042411203D

 25 28  0  0  1  0  0  0  0  0999 V2000
  183.1720  179.9760  143.1400 N   0  0  0  0  0  1  0  0  0  0  0  0
  187.5990  178.6410  141.4570 C   0  0  0  0  0  3  0  0  0  0  0  0
  185.2060  179.2230  140.9150 C   0  0  0  0  0  1  0  0  0  0  0  0
  184.7100  178.6330  146.0570 C   0  0  1  0  0  3  0  0  0  0  0  0
  186.5700  177.3530  145.0340 C   0  0  0  0  0  0  0  0  0  0  0  0
  186.2170  178.5820  141.7970 C   0  0  0  0  0  0  0  0  0  0  0  0
  188.1690  177.5620  143.5460 C   0  0  0  0  0  0  0  0  0  0  0  0
  183.8910  179.2650  144.1400 C   0  0  0  0  0  0  0  0  0  0  0  0
  185.2350  178.8710  147.3590 N   0  0  0  0  0  1  0  0  0  0  0  0
  188.7650  177.5140  144.8020 C   0  0  0  0  0  0  0  0  0  0  0  0
  186.8480  177.4000  143.7740 C   0  0  0  0  0  0  0  0  0  0  0  0
  183.8060  179.5380  145.4070 N   0  0  0  0  0  0  0  0  0  0  0  0
  185.2830  177.8490  145.1560 C   0  0  2  0  0  3  0  0  0  0  0  0
  184.8110  178.1600  143.9030 C   0  0  2  0  0  3  0  0  0  0  0  0
  187.7410  177.4670  145.7750 C   0  0  0  0  0  3  0  0  0  0  0  0
  185.8590  177.9530  143.0030 C   0  0  0  0  0  0  0  0  0  0  0  0
  188.5950  178.1680  142.3550 C   0  0  0  0  0  2  0  0  0  0  0  0
  190.1940  177.8420  145.0890 C   0  0  0  0  0  2  0  0  0  0  0  0
  191.0410  176.5780  145.1540 C   0  0  1  0  0  3  0  0  0  0  0  0
  191.6740  176.3100  143.8020 C   0  0  0  0  0  1  0  0  0  0  0  0
  192.0630  176.0700  147.4130 C   0  0  0  0  0  0  0  0  0  0  0  0
  192.0910  176.7380  146.1490 N   0  0  0  0  0  2  0  0  0  0  0  0
  191.1170  175.2870  147.7010 O   0  0  0  0  0  0  0  0  0  0  0  0
  193.1180  175.6770  149.5510 O   0  0  0  0  0  1  0  0  0  0  0  0
  193.1160  176.2950  148.3460 N   0  0  0  0  0  2  0  0  0  0  0  0
  1  8  1  0  0  0  0
  2  6  2  0  0  0  0
  2 17  1  0  0  0  0
  3  6  1  0  0  0  0
  4  9  1  6  0  0  0
  5 15  2  0  0  0  0
  6 16  1  0  0  0  0
  7 11  1  0  0  0  0
  7 10  2  0  0  0  0
  8 12  2  0  0  0  0
 10 18  1  0  0  0  0
 10 15  1  0  0  0  0
 11  5  1  0  0  0  0
 12  4  1  0  0  0  0
 13  5  1  6  0  0  0
 13  4  1  0  0  0  0
 14 16  1  6  0  0  0
 14  8  1  0  0  0  0
 14 13  1  0  0  0  0
 16 11  2  0  0  0  0
 17  7  1  0  0  0  0
 18 19  1  0  0  0  0
 19 20  1  6  0  0  0
 19 22  1  0  0  0  0
 21 23  2  0  0  0  0
 21 25  1  0  0  0  0
 22 21  1  0  0  0  0
 25 24  1  0  0  0  0
M  END
>  <MODEL>
7

>  <REMARK>
 VINA RESULT:      -9.0      3.375      4.236
  Name = 
  3 active torsions:
  status: ('A' for Active; 'I' for Inactive)
    1  A    between atoms: C_4  and  C_6
    2  A    between atoms: C_4  and  C_13
    3  A    between atoms: C_6  and  N_16
                            x       y       z     vdW  Elec       q    Type
                         _______ _______ _______ _____ _____    ______ ____

>  <TORSDO>
F 3

$$$$
=
 OpenBabel11042411203D

 25 28  0  0  1  0  0  0  0  0999 V2000
  186.9970  177.2830  137.1550 N   0  0  0  0  0  1  0  0  0  0  0  0
  184.2800  178.2350  141.1450 C   0  0  0  0  0  3  0  0  0  0  0  0
  184.4940  178.3760  138.6370 C   0  0  0  0  0  1  0  0  0  0  0  0
  189.4170  177.1390  139.7620 C   0  0  1  0  0  3  0  0  0  0  0  0
  188.1950  178.3090  141.5740 C   0  0  0  0  0  0  0  0  0  0  0  0
  185.0950  178.4390  139.9960 C   0  0  0  0  0  0  0  0  0  0  0  0
  186.2370  178.3440  142.5640 C   0  0  0  0  0  0  0  0  0  0  0  0
  187.8280  177.4250  138.3010 C   0  0  0  0  0  0  0  0  0  0  0  0
  190.3230  176.3450  140.5220 N   0  0  0  0  0  1  0  0  0  0  0  0
  187.1550  177.8130  143.4630 C   0  0  0  0  0  0  0  0  0  0  0  0
  186.9590  178.6700  141.4700 C   0  0  0  0  0  0  0  0  0  0  0  0
  188.9110  176.7310  138.4830 N   0  0  0  0  0  0  0  0  0  0  0  0
  188.6280  178.0680  140.2820 C   0  0  2  0  0  3  0  0  0  0  0  0
  187.5940  178.3340  139.4150 C   0  0  2  0  0  3  0  0  0  0  0  0
  188.4030  177.7040  142.8090 C   0  0  0  0  0  3  0  0  0  0  0  0
  186.4740  178.6420  140.1900 C   0  0  0  0  0  0  0  0  0  0  0  0
  184.8550  178.1410  142.4430 C   0  0  0  0  0  2  0  0  0  0  0  0
  186.8060  177.1270  144.7450 C   0  0  0  0  0  2  0  0  0  0  0  0
  187.2100  177.9740  145.9440 C   0  0  1  0  0  3  0  0  0  0  0  0
  185.9930  178.2680  146.8010 C   0  0  0  0  0  1  0  0  0  0  0  0
  189.6020  177.4000  146.5360 C   0  0  0  0  0  0  0  0  0  0  0  0
  188.1950  177.2600  146.7430 N   0  0  0  0  0  2  0  0  0  0  0  0
  190.0440  178.1810  145.6480 O   0  0  0  0  0  0  0  0  0  0  0  0
  191.8460  176.7620  147.1700 O   0  0  0  0  0  1  0  0  0  0  0  0
  190.5070  176.6510  147.3420 N   0  0  0  0  0  2  0  0  0  0  0  0
  1  8  1  0  0  0  0
  2 17  1  0  0  0  0
  3  6  1  0  0  0  0
  4 13  1  0  0  0  0
  4  9  1  1  0  0  0
  5 15  2  0  0  0  0
  6 16  1  0  0  0  0
  6  2  2  0  0  0  0
  7 10  2  0  0  0  0
  8 12  2  0  0  0  0
 10 18  1  0  0  0  0
 11  5  1  0  0  0  0
 11  7  1  0  0  0  0
 12  4  1  0  0  0  0
 13  5  1  1  0  0  0
 14  8  1  1  0  0  0
 14 16  1  0  0  0  0
 14 13  1  0  0  0  0
 15 10  1  0  0  0  0
 16 11  2  0  0  0  0
 17  7  1  0  0  0  0
 18 19  1  0  0  0  0
 19 22  1  0  0  0  0
 19 20  1  1  0  0  0
 21 22  1  0  0  0  0
 21 25  1  0  0  0  0
 23 21  2  0  0  0  0
 24 25  1  0  0  0  0
M  END
>  <MODEL>
8

>  <REMARK>
 VINA RESULT:      -8.8      2.857      6.168
  Name = 
  3 active torsions:
  status: ('A' for Active; 'I' for Inactive)
    1  A    between atoms: C_4  and  C_6
    2  A    between atoms: C_4  and  C_13
    3  A    between atoms: C_6  and  N_16
                            x       y       z     vdW  Elec       q    Type
                         _______ _______ _______ _____ _____    ______ ____

>  <TORSDO>
F 3

$$$$
=
 OpenBabel11042411203D

 25 28  0  0  1  0  0  0  0  0999 V2000
  185.3990  179.2470  140.2970 N   0  0  0  0  0  1  0  0  0  0  0  0
  189.6120  178.2080  142.6170 C   0  0  0  0  0  3  0  0  0  0  0  0
  188.3530  178.2910  140.4340 C   0  0  0  0  0  1  0  0  0  0  0  0
  184.3260  178.8730  143.6710 C   0  0  1  0  0  3  0  0  0  0  0  0
  186.2700  177.6700  144.6300 C   0  0  0  0  0  0  0  0  0  0  0  0
  188.3960  178.0310  141.8980 C   0  0  0  0  0  0  0  0  0  0  0  0
  188.4610  177.7500  144.6950 C   0  0  0  0  0  0  0  0  0  0  0  0
  185.1490  178.9050  141.6550 C   0  0  0  0  0  0  0  0  0  0  0  0
  183.7900  179.4870  144.8400 N   0  0  0  0  0  1  0  0  0  0  0  0
  187.9890  178.0890  145.9590 C   0  0  0  0  0  0  0  0  0  0  0  0
  187.3600  177.4570  143.9710 C   0  0  0  0  0  0  0  0  0  0  0  0
  184.2110  179.4560  142.3660 N   0  0  0  0  0  0  0  0  0  0  0  0
  185.3120  177.9890  143.6820 C   0  0  2  0  0  3  0  0  0  0  0  0
  185.8880  177.9210  142.4360 C   0  0  2  0  0  3  0  0  0  0  0  0
  186.5780  178.1260  145.9080 C   0  0  0  0  0  3  0  0  0  0  0  0
  187.2470  177.6620  142.6220 C   0  0  0  0  0  0  0  0  0  0  0  0
  189.6450  178.1120  144.0360 C   0  0  0  0  0  2  0  0  0  0  0  0
  188.8150  178.6790  147.0560 C   0  0  0  0  0  2  0  0  0  0  0  0
  189.1490  177.6330  148.1100 C   0  0  1  0  0  3  0  0  0  0  0  0
  187.8700  177.0380  148.6710 C   0  0  0  0  0  1  0  0  0  0  0  0
  191.3620  176.4760  147.7020 C   0  0  0  0  0  0  0  0  0  0  0  0
  189.9480  176.5710  147.5160 N   0  0  0  0  0  2  0  0  0  0  0  0
  191.9710  177.3170  148.4190 O   0  0  0  0  0  0  0  0  0  0  0  0
  193.4220  175.3050  147.2260 O   0  0  0  0  0  1  0  0  0  0  0  0
  192.0820  175.4220  147.0690 N   0  0  0  0  0  2  0  0  0  0  0  0
  1  8  1  0  0  0  0
  2 17  1  0  0  0  0
  3  6  1  0  0  0  0
  4 13  1  0  0  0  0
  4  9  1  1  0  0  0
  5 15  2  0  0  0  0
  6  2  2  0  0  0  0
  6 16  1  0  0  0  0
  7 10  2  0  0  0  0
  8 12  2  0  0  0  0
 10 18  1  0  0  0  0
 11  5  1  0  0  0  0
 11  7  1  0  0  0  0
 12  4  1  0  0  0  0
 13  5  1  1  0  0  0
 14  8  1  1  0  0  0
 14 16  1  0  0  0  0
 14 13  1  0  0  0  0
 15 10  1  0  0  0  0
 16 11  2  0  0  0  0
 17  7  1  0  0  0  0
 18 19  1  0  0  0  0
 19 20  1  6  0  0  0
 21 23  2  0  0  0  0
 22 21  1  0  0  0  0
 22 19  1  0  0  0  0
 25 24  1  0  0  0  0
 25 21  1  0  0  0  0
M  END
>  <MODEL>
9

>  <REMARK>
 VINA RESULT:      -8.8      3.387      5.086
  Name = 
  3 active torsions:
  status: ('A' for Active; 'I' for Inactive)
    1  A    between atoms: C_4  and  C_6
    2  A    between atoms: C_4  and  C_13
    3  A    between atoms: C_6  and  N_16
                            x       y       z     vdW  Elec       q    Type
                         _______ _______ _______ _____ _____    ______ ____

>  <TORSDO>
F 3

$$$$
