=
 OpenBabel11032420503D

 63 68  0  0  1  0  0  0  0  0999 V2000
  185.7640  173.4100  137.4360 C   0  0  0  0  0  2  0  0  0  0  0  0
  184.5020  172.8260  137.8330 N   0  0  0  0  0  2  0  0  0  0  0  0
  182.2170  172.6000  137.6260 O   0  0  0  0  0  0  0  0  0  0  0  0
  184.0140  174.9060  135.4280 C   0  0  0  0  0  0  0  0  0  0  0  0
  183.2410  173.2780  137.3420 C   0  0  0  0  0  0  0  0  0  0  0  0
  182.0650  175.3130  136.7350 N   0  0  0  0  0  0  0  0  0  0  0  0
  185.3210  174.3470  135.2300 N   0  0  0  0  0  2  0  0  0  0  0  0
  183.0870  174.5270  136.5360 C   0  0  0  0  0  0  0  0  0  0  0  0
  185.9130  173.2290  135.9430 C   0  0  1  0  0  3  0  0  0  0  0  0
  183.6400  175.8000  134.6220 O   0  0  0  0  0  0  0  0  0  0  0  0
  187.3550  173.0760  135.5730 C   0  0  0  0  0  0  0  0  0  0  0  0
  188.1120  174.0440  135.0700 C   0  0  0  0  0  0  0  0  0  0  0  0
  189.3640  172.0170  134.8510 C   0  0  0  0  0  3  0  0  0  0  0  0
  188.0560  171.7640  135.5910 C   0  0  0  0  0  3  0  0  0  0  0  0
  189.4270  173.5230  134.5950 C   0  0  2  0  0  3  0  0  0  0  0  0
  190.8790  175.6220  134.9280 C   0  0  0  0  0  2  0  0  0  0  0  0
  190.6370  174.1440  135.3130 C   0  0  2  0  0  3  0  0  0  0  0  0
  193.1640  173.0030  137.5830 O   0  0  0  0  0  1  0  0  0  0  0  0
  191.8850  173.2760  135.1740 C   0  0  0  0  0  2  0  0  0  0  0  0
  192.1820  176.2380  135.4740 C   0  0  0  0  0  2  0  0  0  0  0  0
  194.6620  173.8350  135.5940 O   0  0  0  0  0  0  0  0  0  0  0  0
  192.6830  175.5700  136.7490 C   0  0  0  0  0  2  0  0  0  0  0  0
  193.1430  173.8610  136.3380 P   0  0  2  0  0  0  0  0  0  0  0  0
  187.6390  176.3490  135.7820 C   0  0  0  0  0  0  0  0  0  0  0  0
  187.6090  177.2970  136.6820 C   0  0  0  0  0  0  0  0  0  0  0  0
  187.7080  175.4450  134.8400 C   0  0  0  0  0  3  0  0  0  0  0  0
  187.5070  179.7510  136.2790 O   0  0  0  0  0  0  0  0  0  0  0  0
  189.5220  178.6700  136.3180 O   0  0  0  0  0  1  0  0  0  0  0  0
  188.2670  178.5940  136.4140 C   0  0  0  0  0  0  0  0  0  0  0  0
  187.0270  177.0150  138.0280 C   0  0  0  0  0  2  0  0  0  0  0  0
  187.2490  178.1850  138.9640 C   0  0  0  0  0  2  0  0  0  0  0  0
  188.6750  178.1570  139.4720 C   0  0  0  0  0  2  0  0  0  0  0  0
  189.0300  176.7400  139.8970 C   0  0  0  0  0  2  0  0  0  0  0  0
  191.2020  177.4350  138.8810 C   0  0  0  0  0  1  0  0  0  0  0  0
  191.0250  176.8790  141.1810 O   0  0  0  0  0  1  0  0  0  0  0  0
  190.5390  176.5480  139.9200 C   0  0  1  0  0  3  0  0  0  0  0  0
  181.0760  175.1460  137.7940 C   0  0  0  0  0  2  0  0  0  0  0  0
  180.4860  176.4890  138.1740 C   0  0  2  0  0  3  0  0  0  0  0  0
  181.2080  177.5850  137.4010 C   0  0  0  0  0  2  0  0  0  0  0  0
  181.2120  178.4580  139.5390 C   0  0  0  0  0  0  0  0  0  0  0  0
  181.3750  178.7200  138.2900 N   0  0  0  0  0  0  0  0  0  0  0  0
  181.3360  179.4830  140.5240 N   0  0  0  0  0  2  0  0  0  0  0  0
  180.7560  176.7880  139.9520 S   0  0  0  0  0  0  0  0  0  0  0  0
  181.2400  179.1800  141.8890 N   0  0  0  0  0  2  0  0  0  0  0  0
  183.5910  179.2220  142.2040 N   0  0  0  0  0  0  0  0  0  0  0  0
  183.3290  179.2230  144.9390 N   0  0  0  0  0  0  0  0  0  0  0  0
  184.8030  179.0550  143.0120 C   0  0  1  0  0  3  0  0  0  0  0  0
  182.2530  178.6500  144.1490 C   0  0  0  0  0  2  0  0  0  0  0  0
  182.4010  179.0350  142.7030 C   0  0  0  0  0  0  0  0  0  0  0  0
  184.5090  179.4100  144.4510 C   0  0  0  0  0  3  0  0  0  0  0  0
  185.2900  177.6150  142.9130 C   0  0  0  0  0  2  0  0  0  0  0  0
  188.7050  178.8020  142.6520 C   0  0  0  0  0  2  0  0  0  0  0  0
  187.2040  178.9190  142.6040 C   0  0  0  0  0  2  0  0  0  0  0  0
  187.5660  176.5270  143.5350 S   0  0  0  0  0  0  0  0  0  0  0  0
  186.6630  177.5820  142.4370 N   0  0  0  0  0  0  0  0  0  0  0  0
  189.0200  177.6270  143.5530 C   0  0  2  0  0  3  0  0  0  0  0  0
  189.3150  178.1060  144.9810 C   0  0  2  0  0  3  0  0  0  0  0  0
  190.6990  178.5470  145.1090 N   0  0  0  0  0  2  0  0  0  0  0  0
  191.5390  177.4330  144.7040 C   0  0  0  0  0  1  0  0  0  0  0  0
  189.0050  177.0840  145.9880 N   0  0  0  0  0  2  0  0  0  0  0  0
  187.9420  177.5440  146.8790 C   0  0  0  0  0  2  0  0  0  0  0  0
  188.2960  177.2270  148.3210 C   0  0  0  0  0  2  0  0  0  0  0  0
  189.1440  178.3360  148.9150 C   0  0  0  0  0  1  0  0  0  0  0  0
  1  2  1  0  0  0  0
  4  8  1  0  0  0  0
  5  3  2  0  0  0  0
  5  2  1  0  0  0  0
  6 37  1  0  0  0  0
  7  4  1  0  0  0  0
  7  9  1  0  0  0  0
  8  6  2  0  0  0  0
  8  5  1  0  0  0  0
  9 11  1  1  0  0  0
  9  1  1  0  0  0  0
 10  4  2  0  0  0  0
 11 14  1  0  0  0  0
 12 11  2  0  0  0  0
 13 14  2  0  0  0  0
 15 13  1  1  0  0  0
 15 12  1  0  0  0  0
 15 17  1  0  0  0  0
 16 20  1  0  0  0  0
 17 16  1  6  0  0  0
 19 17  1  0  0  0  0
 19 23  1  0  0  0  0
 20 22  1  0  0  0  0
 23 21  2  6  0  0  0
 23 22  1  0  0  0  0
 23 18  1  0  0  0  0
 24 25  2  0  0  0  0
 25 30  1  0  0  0  0
 26 12  1  0  0  0  0
 26 24  2  0  0  0  0
 27 29  2  0  0  0  0
 28 29  1  0  0  0  0
 29 25  1  0  0  0  0
 30 31  1  0  0  0  0
 31 32  1  0  0  0  0
 32 33  1  0  0  0  0
 33 36  1  0  0  0  0
 36 34  1  6  0  0  0
 36 35  1  0  0  0  0
 38 37  1  6  0  0  0
 38 43  1  0  0  0  0
 39 38  1  0  0  0  0
 39 41  1  0  0  0  0
 40 43  1  0  0  0  0
 40 42  1  0  0  0  0
 41 40  2  0  0  0  0
 42 44  1  0  0  0  0
 44 49  1  0  0  0  0
 45 49  2  0  0  0  0
 45 47  1  0  0  0  0
 47 51  1  1  0  0  0
 47 50  1  0  0  0  0
 48 46  1  0  0  0  0
 49 48  1  0  0  0  0
 50 46  2  0  0  0  0
 52 56  1  0  0  0  0
 53 52  1  0  0  0  0
 54 56  1  0  0  0  0
 55 53  1  0  0  0  0
 55 51  1  0  0  0  0
 55 54  1  0  0  0  0
 56 57  1  1  0  0  0
 57 58  1  6  0  0  0
 57 60  1  0  0  0  0
 59 58  1  0  0  0  0
 60 61  1  0  0  0  0
 61 62  1  0  0  0  0
 62 63  1  0  0  0  0
M  END
>  <MODEL>
1

>  <REMARK>
 VINA RESULT:      -5.1      0.000      0.000
  Name = 
  19 active torsions:
  status: ('A' for Active; 'I' for Inactive)
    1  A    between atoms: C_3  and  C_5
    2  A    between atoms: C_3  and  N_59
    3  A    between atoms: C_7  and  C_53
    4  A    between atoms: C_8  and  C_16
    5  A    between atoms: C_8  and  C_55
    6  A    between atoms: C_9  and  C_19
    7  A    between atoms: C_10  and  N_40
    8  A    between atoms: C_10  and  C_46
    9  A    between atoms: C_14  and  C_48
   10  A    between atoms: C_16  and  C_25
   11  A    between atoms: N_17  and  C_47
   12  A    between atoms: C_18  and  C_44
   13  A    between atoms: C_18  and  C_56
   14  A    between atoms: C_25  and  C_56
   15  A    between atoms: C_28  and  C_33
   16  A    between atoms: N_31  and  N_54
   17  A    between atoms: C_33  and  N_39
   18  A    between atoms: C_47  and  N_59
   19  A    between atoms: C_47  and  C_63
                            x       y       z     vdW  Elec       q    Type
                         _______ _______ _______ _____ _____    ______ ____

>  <TORSDO>
F 19

$$$$
=
 OpenBabel11032420503D

 63 68  0  0  1  0  0  0  0  0999 V2000
  187.2550  178.2080  139.6450 C   0  0  0  0  0  2  0  0  0  0  0  0
  188.2680  178.8510  138.8360 N   0  0  0  0  0  2  0  0  0  0  0  0
  189.2140  179.3600  136.7970 O   0  0  0  0  0  0  0  0  0  0  0  0
  186.2070  177.2810  136.9290 C   0  0  0  0  0  0  0  0  0  0  0  0
  188.4060  178.6320  137.4340 C   0  0  0  0  0  0  0  0  0  0  0  0
  188.2460  176.8740  135.7680 N   0  0  0  0  0  0  0  0  0  0  0  0
  185.4590  177.7180  138.0730 N   0  0  0  0  0  2  0  0  0  0  0  0
  187.6560  177.5650  136.7040 C   0  0  0  0  0  0  0  0  0  0  0  0
  185.9020  178.6250  139.1170 C   0  0  1  0  0  3  0  0  0  0  0  0
  185.5990  176.5850  136.0720 O   0  0  0  0  0  0  0  0  0  0  0  0
  184.8990  178.6790  140.2250 C   0  0  0  0  0  0  0  0  0  0  0  0
  183.7630  179.3660  140.1830 C   0  0  0  0  0  0  0  0  0  0  0  0
  184.0350  178.6400  142.4460 C   0  0  0  0  0  3  0  0  0  0  0  0
  185.1440  178.0790  141.5640 C   0  0  0  0  0  3  0  0  0  0  0  0
  183.0930  179.4050  141.5160 C   0  0  2  0  0  3  0  0  0  0  0  0
  181.0970  178.6350  142.9460 C   0  0  0  0  0  2  0  0  0  0  0  0
  181.6920  178.7730  141.5260 C   0  0  2  0  0  3  0  0  0  0  0  0
  179.4610  177.3900  139.0850 O   0  0  0  0  0  0  0  0  0  0  0  0
  181.6530  177.4710  140.7300 C   0  0  0  0  0  2  0  0  0  0  0  0
  179.7770  177.8420  143.0320 C   0  0  0  0  0  2  0  0  0  0  0  0
  179.7640  175.3190  140.6710 O   0  0  0  0  0  1  0  0  0  0  0  0
  178.9690  177.8660  141.7400 C   0  0  0  0  0  2  0  0  0  0  0  0
  179.9270  176.9910  140.4690 P   0  0  2  0  0  0  0  0  0  0  0  0
  182.5660  179.6270  138.0520 C   0  0  0  0  0  0  0  0  0  0  0  0
  181.8340  179.1620  137.0730 C   0  0  0  0  0  0  0  0  0  0  0  0
  183.2500  180.1450  139.0380 C   0  0  0  0  0  3  0  0  0  0  0  0
  180.4200  181.2060  136.9520 O   0  0  0  0  0  1  0  0  0  0  0  0
  179.6520  179.2190  136.1190 O   0  0  0  0  0  0  0  0  0  0  0  0
  180.5820  179.8490  136.6930 C   0  0  0  0  0  0  0  0  0  0  0  0
  182.1990  177.8610  136.4360 C   0  0  0  0  0  2  0  0  0  0  0  0
  182.3220  176.7700  137.4800 C   0  0  0  0  0  2  0  0  0  0  0  0
  182.2410  175.4180  136.8030 C   0  0  0  0  0  2  0  0  0  0  0  0
  181.0270  174.6640  137.3250 C   0  0  0  0  0  2  0  0  0  0  0  0
  180.0250  172.4140  137.7310 C   0  0  0  0  0  1  0  0  0  0  0  0
  181.3380  172.8630  135.8050 O   0  0  0  0  0  1  0  0  0  0  0  0
  181.2150  173.1640  137.1590 C   0  0  1  0  0  3  0  0  0  0  0  0
  189.6620  176.9640  135.4280 C   0  0  0  0  0  2  0  0  0  0  0  0
  190.0760  175.7700  134.5940 C   0  0  2  0  0  3  0  0  0  0  0  0
  189.2160  174.5730  134.9780 C   0  0  0  0  0  2  0  0  0  0  0  0
  191.3270  173.6370  134.9920 C   0  0  0  0  0  0  0  0  0  0  0  0
  190.0640  173.3950  134.9740 N   0  0  0  0  0  0  0  0  0  0  0  0
  192.2760  172.5730  134.9800 N   0  0  0  0  0  2  0  0  0  0  0  0
  191.8120  175.3490  134.9590 S   0  0  0  0  0  0  0  0  0  0  0  0
  193.6500  172.8360  135.0840 N   0  0  0  0  0  2  0  0  0  0  0  0
  193.4340  173.8410  137.2220 N   0  0  0  0  0  0  0  0  0  0  0  0
  196.1500  173.7920  137.6340 N   0  0  0  0  0  0  0  0  0  0  0  0
  193.9660  174.5440  138.3940 C   0  0  1  0  0  3  0  0  0  0  0  0
  195.6650  173.8130  136.2650 C   0  0  0  0  0  2  0  0  0  0  0  0
  194.1960  173.4970  136.2230 C   0  0  0  0  0  0  0  0  0  0  0  0
  195.4000  174.1310  138.6280 C   0  0  0  0  0  3  0  0  0  0  0  0
  193.8790  176.0480  138.1710 C   0  0  0  0  0  2  0  0  0  0  0  0
  190.4360  175.9940  139.3040 C   0  0  0  0  0  2  0  0  0  0  0  0
  191.7170  175.4020  138.7790 C   0  0  0  0  0  2  0  0  0  0  0  0
  192.3860  177.8510  139.2980 S   0  0  0  0  0  0  0  0  0  0  0  0
  192.4910  176.4770  138.1870 N   0  0  0  0  0  0  0  0  0  0  0  0
  190.8100  177.2770  140.0150 C   0  0  2  0  0  3  0  0  0  0  0  0
  190.9610  177.0350  141.5220 C   0  0  2  0  0  3  0  0  0  0  0  0
  190.2770  175.8120  141.9270 N   0  0  0  0  0  2  0  0  0  0  0  0
  190.9230  175.3470  143.1420 C   0  0  0  0  0  1  0  0  0  0  0  0
  190.4920  178.1750  142.3210 N   0  0  0  0  0  2  0  0  0  0  0  0
  191.3510  178.3760  143.4860 C   0  0  0  0  0  2  0  0  0  0  0  0
  190.5040  178.5390  144.7360 C   0  0  0  0  0  2  0  0  0  0  0  0
  189.0890  178.0540  144.4840 C   0  0  0  0  0  1  0  0  0  0  0  0
  2  1  1  0  0  0  0
  3  5  2  0  0  0  0
  4  7  1  0  0  0  0
  5  2  1  0  0  0  0
  6  8  2  0  0  0  0
  7  9  1  0  0  0  0
  8  4  1  0  0  0  0
  8  5  1  0  0  0  0
  9  1  1  0  0  0  0
  9 11  1  1  0  0  0
 10  4  2  0  0  0  0
 11 14  1  0  0  0  0
 12 11  2  0  0  0  0
 12 15  1  0  0  0  0
 14 13  2  0  0  0  0
 15 17  1  0  0  0  0
 15 13  1  1  0  0  0
 16 20  1  0  0  0  0
 17 19  1  1  0  0  0
 17 16  1  0  0  0  0
 22 20  1  0  0  0  0
 23 18  2  6  0  0  0
 23 21  1  0  0  0  0
 23 19  1  0  0  0  0
 23 22  1  0  0  0  0
 24 26  2  0  0  0  0
 25 24  2  0  0  0  0
 26 12  1  0  0  0  0
 28 29  2  0  0  0  0
 29 27  1  0  0  0  0
 29 25  1  0  0  0  0
 30 25  1  0  0  0  0
 30 31  1  0  0  0  0
 32 33  1  0  0  0  0
 32 31  1  0  0  0  0
 35 36  1  0  0  0  0
 36 33  1  0  0  0  0
 36 34  1  6  0  0  0
 37  6  1  0  0  0  0
 38 43  1  0  0  0  0
 38 39  1  0  0  0  0
 38 37  1  1  0  0  0
 41 39  1  0  0  0  0
 41 40  2  0  0  0  0
 42 40  1  0  0  0  0
 42 44  1  0  0  0  0
 43 40  1  0  0  0  0
 44 49  1  0  0  0  0
 45 47  1  0  0  0  0
 46 50  2  0  0  0  0
 47 51  1  6  0  0  0
 47 50  1  0  0  0  0
 48 46  1  0  0  0  0
 49 48  1  0  0  0  0
 49 45  2  0  0  0  0
 51 55  1  0  0  0  0
 52 56  1  0  0  0  0
 53 52  1  0  0  0  0
 54 56  1  0  0  0  0
 55 53  1  0  0  0  0
 55 54  1  0  0  0  0
 56 57  1  1  0  0  0
 57 58  1  1  0  0  0
 57 60  1  0  0  0  0
 58 59  1  0  0  0  0
 60 61  1  0  0  0  0
 61 62  1  0  0  0  0
 63 62  1  0  0  0  0
M  END
>  <MODEL>
2

>  <REMARK>
 VINA RESULT:      -4.7      4.159      9.788
  Name = 
  19 active torsions:
  status: ('A' for Active; 'I' for Inactive)
    1  A    between atoms: C_3  and  C_5
    2  A    between atoms: C_3  and  N_59
    3  A    between atoms: C_7  and  C_53
    4  A    between atoms: C_8  and  C_16
    5  A    between atoms: C_8  and  C_55
    6  A    between atoms: C_9  and  C_19
    7  A    between atoms: C_10  and  N_40
    8  A    between atoms: C_10  and  C_46
    9  A    between atoms: C_14  and  C_48
   10  A    between atoms: C_16  and  C_25
   11  A    between atoms: N_17  and  C_47
   12  A    between atoms: C_18  and  C_44
   13  A    between atoms: C_18  and  C_56
   14  A    between atoms: C_25  and  C_56
   15  A    between atoms: C_28  and  C_33
   16  A    between atoms: N_31  and  N_54
   17  A    between atoms: C_33  and  N_39
   18  A    between atoms: C_47  and  N_59
   19  A    between atoms: C_47  and  C_63
                            x       y       z     vdW  Elec       q    Type
                         _______ _______ _______ _____ _____    ______ ____

>  <TORSDO>
F 19

$$$$
=
 OpenBabel11032420503D

 63 68  0  0  1  0  0  0  0  0999 V2000
  180.9480  177.7560  141.2420 C   0  0  0  0  0  2  0  0  0  0  0  0
  180.9650  178.8620  142.1750 N   0  0  0  0  0  2  0  0  0  0  0  0
  182.0810  180.3930  143.4870 O   0  0  0  0  0  0  0  0  0  0  0  0
  183.9840  177.9830  141.4980 C   0  0  0  0  0  0  0  0  0  0  0  0
  182.1500  179.3260  142.8190 C   0  0  0  0  0  0  0  0  0  0  0  0
  184.2090  178.5090  143.8100 N   0  0  0  0  0  0  0  0  0  0  0  0
  183.2050  177.7190  140.3220 N   0  0  0  0  0  2  0  0  0  0  0  0
  183.4480  178.5890  142.7540 C   0  0  0  0  0  0  0  0  0  0  0  0
  181.8320  178.1210  140.0720 C   0  0  1  0  0  3  0  0  0  0  0  0
  185.2010  177.6540  141.4710 O   0  0  0  0  0  0  0  0  0  0  0  0
  181.3240  177.4920  138.8120 C   0  0  0  0  0  0  0  0  0  0  0  0
  182.0930  176.9530  137.8740 C   0  0  0  0  0  0  0  0  0  0  0  0
  179.8880  177.0820  136.9550 C   0  0  0  0  0  3  0  0  0  0  0  0
  179.8930  177.5400  138.4090 C   0  0  0  0  0  3  0  0  0  0  0  0
  181.3120  176.6190  136.6470 C   0  0  2  0  0  3  0  0  0  0  0  0
  180.3780  174.7680  135.1220 C   0  0  0  0  0  2  0  0  0  0  0  0
  181.3300  175.1240  136.2870 C   0  0  2  0  0  3  0  0  0  0  0  0
  182.9290  172.1780  137.5540 O   0  0  0  0  0  0  0  0  0  0  0  0
  181.1270  174.2440  137.5180 C   0  0  0  0  0  2  0  0  0  0  0  0
  180.2170  173.2610  134.8420 C   0  0  0  0  0  2  0  0  0  0  0  0
  180.4080  171.4870  137.8010 O   0  0  0  0  0  1  0  0  0  0  0  0
  181.4170  172.4290  135.2800 C   0  0  0  0  0  2  0  0  0  0  0  0
  181.5330  172.5320  137.0910 P   0  0  2  0  0  0  0  0  0  0  0  0
  184.3150  176.7140  136.8500 C   0  0  0  0  0  0  0  0  0  0  0  0
  185.1100  176.6630  135.8130 C   0  0  0  0  0  0  0  0  0  0  0  0
  183.5630  176.8170  137.9140 C   0  0  0  0  0  3  0  0  0  0  0  0
  186.3470  178.7090  136.5070 O   0  0  0  0  0  1  0  0  0  0  0  0
  187.2670  177.2590  134.9950 O   0  0  0  0  0  0  0  0  0  0  0  0
  186.2920  177.5490  135.7400 C   0  0  0  0  0  0  0  0  0  0  0  0
  184.7420  175.8070  134.6460 C   0  0  0  0  0  2  0  0  0  0  0  0
  184.3910  174.4050  135.1010 C   0  0  0  0  0  2  0  0  0  0  0  0
  185.5840  173.4970  134.8920 C   0  0  0  0  0  2  0  0  0  0  0  0
  186.1750  173.1240  136.2440 C   0  0  0  0  0  2  0  0  0  0  0  0
  188.5280  172.6880  136.9570 C   0  0  0  0  0  1  0  0  0  0  0  0
  188.0220  174.1620  135.1670 O   0  0  0  0  0  1  0  0  0  0  0  0
  187.5640  173.7240  136.4060 C   0  0  1  0  0  3  0  0  0  0  0  0
  183.8490  178.9910  145.1390 C   0  0  0  0  0  2  0  0  0  0  0  0
  184.6350  178.2440  146.1960 C   0  0  2  0  0  3  0  0  0  0  0  0
  185.2130  179.2460  147.1870 C   0  0  0  0  0  2  0  0  0  0  0  0
  187.0550  177.9220  146.7550 C   0  0  0  0  0  0  0  0  0  0  0  0
  186.5450  178.8000  147.5470 N   0  0  0  0  0  0  0  0  0  0  0  0
  188.3550  177.3880  146.9950 N   0  0  0  0  0  2  0  0  0  0  0  0
  186.0290  177.3700  145.4100 S   0  0  0  0  0  0  0  0  0  0  0  0
  188.9420  176.4950  146.0880 N   0  0  0  0  0  2  0  0  0  0  0  0
  190.2230  178.1920  145.0360 N   0  0  0  0  0  0  0  0  0  0  0  0
  191.7640  176.3480  143.7050 N   0  0  0  0  0  0  0  0  0  0  0  0
  191.1520  178.6810  144.0130 C   0  0  1  0  0  3  0  0  0  0  0  0
  190.4240  175.9580  144.1060 C   0  0  0  0  0  2  0  0  0  0  0  0
  189.8660  176.9400  145.0980 C   0  0  0  0  0  0  0  0  0  0  0  0
  192.1240  177.5860  143.6410 C   0  0  0  0  0  3  0  0  0  0  0  0
  190.3710  179.1320  142.7850 C   0  0  0  0  0  2  0  0  0  0  0  0
  188.3140  177.4730  140.3030 C   0  0  0  0  0  2  0  0  0  0  0  0
  188.6100  178.4580  141.4040 C   0  0  0  0  0  2  0  0  0  0  0  0
  190.9420  177.4510  140.8890 S   0  0  0  0  0  0  0  0  0  0  0  0
  189.7830  177.9840  142.1160 N   0  0  0  0  0  0  0  0  0  0  0  0
  189.6390  177.1380  139.6520 C   0  0  2  0  0  3  0  0  0  0  0  0
  189.8620  178.0040  138.4050 C   0  0  2  0  0  3  0  0  0  0  0  0
  188.7930  178.9830  138.2500 N   0  0  0  0  0  2  0  0  0  0  0  0
  189.0680  179.7230  137.0300 C   0  0  0  0  0  1  0  0  0  0  0  0
  190.0030  177.1990  137.1850 N   0  0  0  0  0  2  0  0  0  0  0  0
  190.6900  175.9420  137.4730 C   0  0  0  0  0  2  0  0  0  0  0  0
  192.0670  175.9400  136.8330 C   0  0  0  0  0  2  0  0  0  0  0  0
  193.1440  175.8060  137.8940 C   0  0  0  0  0  1  0  0  0  0  0  0
  1  2  1  0  0  0  0
  2  5  1  0  0  0  0
  4  8  1  0  0  0  0
  5  3  2  0  0  0  0
  6 37  1  0  0  0  0
  7  4  1  0  0  0  0
  8  5  1  0  0  0  0
  8  6  2  0  0  0  0
  9 11  1  6  0  0  0
  9  7  1  0  0  0  0
  9  1  1  0  0  0  0
 10  4  2  0  0  0  0
 12 26  1  0  0  0  0
 12 11  2  0  0  0  0
 13 14  2  0  0  0  0
 14 11  1  0  0  0  0
 15 13  1  1  0  0  0
 15 12  1  0  0  0  0
 17 16  1  6  0  0  0
 17 15  1  0  0  0  0
 17 19  1  0  0  0  0
 20 16  1  0  0  0  0
 20 22  1  0  0  0  0
 22 23  1  0  0  0  0
 23 19  1  0  0  0  0
 23 18  2  1  0  0  0
 23 21  1  0  0  0  0
 24 26  2  0  0  0  0
 25 24  2  0  0  0  0
 28 29  2  0  0  0  0
 29 25  1  0  0  0  0
 29 27  1  0  0  0  0
 30 31  1  0  0  0  0
 30 25  1  0  0  0  0
 32 31  1  0  0  0  0
 32 33  1  0  0  0  0
 33 36  1  0  0  0  0
 35 36  1  0  0  0  0
 36 34  1  6  0  0  0
 38 37  1  6  0  0  0
 38 39  1  0  0  0  0
 39 41  1  0  0  0  0
 40 42  1  0  0  0  0
 40 41  2  0  0  0  0
 43 38  1  0  0  0  0
 43 40  1  0  0  0  0
 44 42  1  0  0  0  0
 45 49  2  0  0  0  0
 46 48  1  0  0  0  0
 47 51  1  6  0  0  0
 47 45  1  0  0  0  0
 48 49  1  0  0  0  0
 49 44  1  0  0  0  0
 50 46  2  0  0  0  0
 50 47  1  0  0  0  0
 52 53  1  0  0  0  0
 53 55  1  0  0  0  0
 54 55  1  0  0  0  0
 55 51  1  0  0  0  0
 56 57  1  6  0  0  0
 56 52  1  0  0  0  0
 56 54  1  0  0  0  0
 57 60  1  6  0  0  0
 58 57  1  0  0  0  0
 59 58  1  0  0  0  0
 60 61  1  0  0  0  0
 62 61  1  0  0  0  0
 62 63  1  0  0  0  0
M  END
>  <MODEL>
3

>  <REMARK>
 VINA RESULT:      -4.4      3.032      8.195
  Name = 
  19 active torsions:
  status: ('A' for Active; 'I' for Inactive)
    1  A    between atoms: C_3  and  C_5
    2  A    between atoms: C_3  and  N_59
    3  A    between atoms: C_7  and  C_53
    4  A    between atoms: C_8  and  C_16
    5  A    between atoms: C_8  and  C_55
    6  A    between atoms: C_9  and  C_19
    7  A    between atoms: C_10  and  N_40
    8  A    between atoms: C_10  and  C_46
    9  A    between atoms: C_14  and  C_48
   10  A    between atoms: C_16  and  C_25
   11  A    between atoms: N_17  and  C_47
   12  A    between atoms: C_18  and  C_44
   13  A    between atoms: C_18  and  C_56
   14  A    between atoms: C_25  and  C_56
   15  A    between atoms: C_28  and  C_33
   16  A    between atoms: N_31  and  N_54
   17  A    between atoms: C_33  and  N_39
   18  A    between atoms: C_47  and  N_59
   19  A    between atoms: C_47  and  C_63
                            x       y       z     vdW  Elec       q    Type
                         _______ _______ _______ _____ _____    ______ ____

>  <TORSDO>
F 19

$$$$
=
 OpenBabel11032420503D

 63 68  0  0  1  0  0  0  0  0999 V2000
  191.5040  177.3020  140.5370 C   0  0  0  0  0  2  0  0  0  0  0  0
  191.0100  176.8140  141.8060 N   0  0  0  0  0  2  0  0  0  0  0  0
  189.2900  176.2190  143.2210 O   0  0  0  0  0  0  0  0  0  0  0  0
  188.5290  177.4320  139.8550 C   0  0  0  0  0  0  0  0  0  0  0  0
  189.6280  176.8120  142.1610 C   0  0  0  0  0  0  0  0  0  0  0  0
  187.6140  178.1470  141.9340 N   0  0  0  0  0  0  0  0  0  0  0  0
  189.6200  177.0230  139.0170 N   0  0  0  0  0  2  0  0  0  0  0  0
  188.5830  177.5010  141.3460 C   0  0  0  0  0  0  0  0  0  0  0  0
  190.8890  176.4600  139.4430 C   0  0  1  0  0  3  0  0  0  0  0  0
  187.4620  177.7830  139.2830 O   0  0  0  0  0  0  0  0  0  0  0  0
  191.8260  176.3410  138.2820 C   0  0  0  0  0  0  0  0  0  0  0  0
  193.1060  176.0020  138.3760 C   0  0  0  0  0  0  0  0  0  0  0  0
  192.7670  176.7610  136.1330 C   0  0  0  0  0  3  0  0  0  0  0  0
  191.4500  176.7410  136.8990 C   0  0  0  0  0  3  0  0  0  0  0  0
  193.8230  176.1930  137.0810 C   0  0  2  0  0  3  0  0  0  0  0  0
  195.3860  175.1500  135.3230 C   0  0  0  0  0  2  0  0  0  0  0  0
  194.4260  174.9000  136.5080 C   0  0  2  0  0  3  0  0  0  0  0  0
  194.0770  171.3880  137.1290 O   0  0  0  0  0  1  0  0  0  0  0  0
  193.3490  173.8620  136.2000 C   0  0  0  0  0  2  0  0  0  0  0  0
  195.8750  173.8820  134.5940 C   0  0  0  0  0  2  0  0  0  0  0  0
  193.3830  171.4880  134.5990 O   0  0  0  0  0  0  0  0  0  0  0  0
  195.8700  172.6360  135.4710 C   0  0  0  0  0  2  0  0  0  0  0  0
  194.1430  172.2630  135.8970 P   0  0  2  0  0  0  0  0  0  0  0  0
  195.0940  175.3080  139.6450 C   0  0  0  0  0  0  0  0  0  0  0  0
  196.3700  175.0360  139.7360 C   0  0  0  0  0  0  0  0  0  0  0  0
  193.8260  175.6250  139.6090 C   0  0  0  0  0  3  0  0  0  0  0  0
  198.1150  174.9690  141.5090 O   0  0  0  0  0  1  0  0  0  0  0  0
  197.0920  176.9420  140.9700 O   0  0  0  0  0  0  0  0  0  0  0  0
  197.1980  175.7020  140.7640 C   0  0  0  0  0  0  0  0  0  0  0  0
  197.0090  174.1580  138.7120 C   0  0  0  0  0  2  0  0  0  0  0  0
  198.4530  174.5610  138.4870 C   0  0  0  0  0  2  0  0  0  0  0  0
  199.1790  173.4430  137.7690 C   0  0  0  0  0  2  0  0  0  0  0  0
  198.1960  172.3260  137.4530 C   0  0  0  0  0  2  0  0  0  0  0  0
  199.1530  170.0780  137.9680 C   0  0  0  0  0  1  0  0  0  0  0  0
  198.1560  170.5550  135.8680 O   0  0  0  0  0  1  0  0  0  0  0  0
  198.9230  171.1160  136.8850 C   0  0  1  0  0  3  0  0  0  0  0  0
  187.5110  178.3710  143.3720 C   0  0  0  0  0  2  0  0  0  0  0  0
  186.1850  179.0250  143.7040 C   0  0  2  0  0  3  0  0  0  0  0  0
  185.3810  178.0910  144.5990 C   0  0  0  0  0  2  0  0  0  0  0  0
  183.7940  178.7010  143.0350 C   0  0  0  0  0  0  0  0  0  0  0  0
  183.9900  178.1750  144.1930 N   0  0  0  0  0  0  0  0  0  0  0  0
  182.4750  178.8540  142.5150 N   0  0  0  0  0  2  0  0  0  0  0  0
  185.2360  179.2840  142.1700 S   0  0  0  0  0  0  0  0  0  0  0  0
  182.2690  179.3520  141.2210 N   0  0  0  0  0  2  0  0  0  0  0  0
  181.3170  177.3210  140.4460 N   0  0  0  0  0  0  0  0  0  0  0  0
  180.4010  178.5090  138.1440 N   0  0  0  0  0  0  0  0  0  0  0  0
  180.7520  176.4590  139.4040 C   0  0  1  0  0  3  0  0  0  0  0  0
  181.5520  179.0960  138.8050 C   0  0  0  0  0  2  0  0  0  0  0  0
  181.7000  178.5420  140.1950 C   0  0  0  0  0  0  0  0  0  0  0  0
  180.0160  177.3010  138.3880 C   0  0  0  0  0  3  0  0  0  0  0  0
  181.8690  175.6730  138.7280 C   0  0  0  0  0  2  0  0  0  0  0  0
  182.3050  174.7930  135.2390 C   0  0  0  0  0  2  0  0  0  0  0  0
  182.4010  175.6790  136.4530 C   0  0  0  0  0  2  0  0  0  0  0  0
  181.5550  173.4380  137.4420 S   0  0  0  0  0  0  0  0  0  0  0  0
  181.4330  175.2040  137.4240 N   0  0  0  0  0  0  0  0  0  0  0  0
  182.2240  173.3690  135.7470 C   0  0  2  0  0  3  0  0  0  0  0  0
  183.6110  172.7130  135.7410 C   0  0  2  0  0  3  0  0  0  0  0  0
  183.6160  171.5070  134.9210 N   0  0  0  0  0  2  0  0  0  0  0  0
  183.8710  170.3890  135.8130 C   0  0  0  0  0  1  0  0  0  0  0  0
  184.0940  172.4170  137.0960 N   0  0  0  0  0  2  0  0  0  0  0  0
  185.5050  172.7710  137.2280 C   0  0  0  0  0  2  0  0  0  0  0  0
  185.8710  173.8450  136.2190 C   0  0  0  0  0  2  0  0  0  0  0  0
  186.2910  175.1190  136.9290 C   0  0  0  0  0  1  0  0  0  0  0  0
  1  2  1  0  0  0  0
  2  5  1  0  0  0  0
  4  8  1  0  0  0  0
  5  3  2  0  0  0  0
  6 37  1  0  0  0  0
  7  9  1  0  0  0  0
  7  4  1  0  0  0  0
  8  6  2  0  0  0  0
  8  5  1  0  0  0  0
  9 11  1  6  0  0  0
  9  1  1  0  0  0  0
 10  4  2  0  0  0  0
 11 12  2  0  0  0  0
 12 26  1  0  0  0  0
 13 14  2  0  0  0  0
 14 11  1  0  0  0  0
 15 13  1  6  0  0  0
 15 12  1  0  0  0  0
 17 16  1  6  0  0  0
 17 15  1  0  0  0  0
 19 17  1  0  0  0  0
 20 16  1  0  0  0  0
 20 22  1  0  0  0  0
 22 23  1  0  0  0  0
 23 21  2  6  0  0  0
 23 19  1  0  0  0  0
 23 18  1  0  0  0  0
 24 25  2  0  0  0  0
 25 29  1  0  0  0  0
 26 24  2  0  0  0  0
 29 28  2  0  0  0  0
 29 27  1  0  0  0  0
 30 25  1  0  0  0  0
 31 30  1  0  0  0  0
 32 31  1  0  0  0  0
 33 32  1  0  0  0  0
 35 36  1  0  0  0  0
 36 33  1  0  0  0  0
 36 34  1  1  0  0  0
 38 37  1  6  0  0  0
 38 39  1  0  0  0  0
 40 41  2  0  0  0  0
 41 39  1  0  0  0  0
 42 40  1  0  0  0  0
 43 40  1  0  0  0  0
 43 38  1  0  0  0  0
 44 42  1  0  0  0  0
 46 50  2  0  0  0  0
 46 48  1  0  0  0  0
 47 51  1  6  0  0  0
 47 45  1  0  0  0  0
 48 49  1  0  0  0  0
 49 45  2  0  0  0  0
 49 44  1  0  0  0  0
 50 47  1  0  0  0  0
 52 56  1  0  0  0  0
 52 53  1  0  0  0  0
 53 55  1  0  0  0  0
 55 54  1  0  0  0  0
 55 51  1  0  0  0  0
 56 57  1  1  0  0  0
 56 54  1  0  0  0  0
 57 58  1  6  0  0  0
 57 60  1  0  0  0  0
 58 59  1  0  0  0  0
 60 61  1  0  0  0  0
 62 63  1  0  0  0  0
 62 61  1  0  0  0  0
M  END
>  <MODEL>
4

>  <REMARK>
 VINA RESULT:      -4.3      3.338      8.370
  Name = 
  19 active torsions:
  status: ('A' for Active; 'I' for Inactive)
    1  A    between atoms: C_3  and  C_5
    2  A    between atoms: C_3  and  N_59
    3  A    between atoms: C_7  and  C_53
    4  A    between atoms: C_8  and  C_16
    5  A    between atoms: C_8  and  C_55
    6  A    between atoms: C_9  and  C_19
    7  A    between atoms: C_10  and  N_40
    8  A    between atoms: C_10  and  C_46
    9  A    between atoms: C_14  and  C_48
   10  A    between atoms: C_16  and  C_25
   11  A    between atoms: N_17  and  C_47
   12  A    between atoms: C_18  and  C_44
   13  A    between atoms: C_18  and  C_56
   14  A    between atoms: C_25  and  C_56
   15  A    between atoms: C_28  and  C_33
   16  A    between atoms: N_31  and  N_54
   17  A    between atoms: C_33  and  N_39
   18  A    between atoms: C_47  and  N_59
   19  A    between atoms: C_47  and  C_63
                            x       y       z     vdW  Elec       q    Type
                         _______ _______ _______ _____ _____    ______ ____

>  <TORSDO>
F 19

$$$$
=
 OpenBabel11032420503D

 63 68  0  0  1  0  0  0  0  0999 V2000
  187.2700  178.0000  136.7740 C   0  0  0  0  0  2  0  0  0  0  0  0
  186.3520  177.9700  137.8910 N   0  0  0  0  0  2  0  0  0  0  0  0
  184.4660  177.1710  138.9470 O   0  0  0  0  0  0  0  0  0  0  0  0
  185.3680  175.8950  135.6390 C   0  0  0  0  0  0  0  0  0  0  0  0
  185.1130  177.2640  137.8700 C   0  0  0  0  0  0  0  0  0  0  0  0
  183.2670  176.7280  136.3890 N   0  0  0  0  0  0  0  0  0  0  0  0
  186.8000  175.9380  135.5620 N   0  0  0  0  0  2  0  0  0  0  0  0
  184.5480  176.6610  136.6250 C   0  0  0  0  0  0  0  0  0  0  0  0
  187.7100  176.5810  136.4940 C   0  0  1  0  0  3  0  0  0  0  0  0
  184.7650  175.1800  134.7950 O   0  0  0  0  0  0  0  0  0  0  0  0
  189.1080  176.5590  135.9610 C   0  0  0  0  0  0  0  0  0  0  0  0
  190.1840  176.2520  136.6770 C   0  0  0  0  0  0  0  0  0  0  0  0
  190.9770  177.1320  134.5990 C   0  0  0  0  0  3  0  0  0  0  0  0
  189.4570  177.0280  134.5940 C   0  0  0  0  0  3  0  0  0  0  0  0
  191.4430  176.5410  135.9290 C   0  0  2  0  0  3  0  0  0  0  0  0
  191.5500  173.9720  135.8430 C   0  0  0  0  0  2  0  0  0  0  0  0
  192.3230  175.3020  135.6930 C   0  0  2  0  0  3  0  0  0  0  0  0
  195.7840  174.6800  135.0030 O   0  0  0  0  0  0  0  0  0  0  0  0
  193.6020  175.3500  136.5230 C   0  0  0  0  0  2  0  0  0  0  0  0
  192.4190  172.6980  135.7990 C   0  0  0  0  0  2  0  0  0  0  0  0
  195.4980  173.3250  137.2350 O   0  0  0  0  0  1  0  0  0  0  0  0
  193.7180  172.8760  135.0230 C   0  0  0  0  0  2  0  0  0  0  0  0
  194.7420  174.0780  135.9220 P   0  0  2  0  0  0  0  0  0  0  0  0
  190.8730  176.4440  139.0290 C   0  0  0  0  0  0  0  0  0  0  0  0
  191.4800  177.0620  140.0080 C   0  0  0  0  0  0  0  0  0  0  0  0
  190.2060  175.8250  138.0900 C   0  0  0  0  0  3  0  0  0  0  0  0
  191.4410  177.5470  142.4490 O   0  0  0  0  0  1  0  0  0  0  0  0
  189.4940  177.4950  141.2500 O   0  0  0  0  0  0  0  0  0  0  0  0
  190.7490  177.3720  141.2550 C   0  0  0  0  0  0  0  0  0  0  0  0
  192.8700  177.5710  139.8070 C   0  0  0  0  0  2  0  0  0  0  0  0
  193.7960  176.4480  139.3840 C   0  0  0  0  0  2  0  0  0  0  0  0
  194.6200  176.0040  140.5740 C   0  0  0  0  0  2  0  0  0  0  0  0
  195.8860  175.3190  140.0810 C   0  0  0  0  0  2  0  0  0  0  0  0
  198.3710  175.2510  140.3160 C   0  0  0  0  0  1  0  0  0  0  0  0
  197.0860  177.0450  141.1900 O   0  0  0  0  0  1  0  0  0  0  0  0
  197.0680  175.6710  140.9730 C   0  0  1  0  0  3  0  0  0  0  0  0
  182.3050  177.4670  137.1990 C   0  0  0  0  0  2  0  0  0  0  0  0
  182.1560  176.8150  138.5580 C   0  0  2  0  0  3  0  0  0  0  0  0
  181.5280  175.4390  138.3820 C   0  0  0  0  0  2  0  0  0  0  0  0
  180.2630  176.2970  140.1130 C   0  0  0  0  0  0  0  0  0  0  0  0
  180.5980  175.2300  139.4770 N   0  0  0  0  0  0  0  0  0  0  0  0
  179.3640  176.2370  141.2180 N   0  0  0  0  0  2  0  0  0  0  0  0
  181.0310  177.8140  139.5890 S   0  0  0  0  0  0  0  0  0  0  0  0
  178.9350  177.4090  141.8580 N   0  0  0  0  0  2  0  0  0  0  0  0
  181.1440  178.0790  142.4070 N   0  0  0  0  0  0  0  0  0  0  0  0
  180.3150  180.6040  143.1030 N   0  0  0  0  0  0  0  0  0  0  0  0
  182.1160  178.9720  143.0450 C   0  0  1  0  0  3  0  0  0  0  0  0
  179.3530  179.5200  143.1920 C   0  0  0  0  0  2  0  0  0  0  0  0
  179.8610  178.3060  142.4650 C   0  0  0  0  0  0  0  0  0  0  0  0
  181.5860  180.3860  143.0450 C   0  0  0  0  0  3  0  0  0  0  0  0
  182.3800  178.5070  144.4710 C   0  0  0  0  0  2  0  0  0  0  0  0
  185.2860  179.1020  146.5550 C   0  0  0  0  0  2  0  0  0  0  0  0
  183.9020  178.5960  146.2420 C   0  0  0  0  0  2  0  0  0  0  0  0
  184.7650  179.3810  143.9270 S   0  0  0  0  0  0  0  0  0  0  0  0
  183.4210  179.3180  145.0780 N   0  0  0  0  0  0  0  0  0  0  0  0
  186.0220  179.1950  145.2350 C   0  0  2  0  0  3  0  0  0  0  0  0
  186.8650  177.9350  144.9960 C   0  0  2  0  0  3  0  0  0  0  0  0
  186.4240  177.2300  143.7980 N   0  0  0  0  0  2  0  0  0  0  0  0
  187.5570  176.4570  143.3200 C   0  0  0  0  0  1  0  0  0  0  0  0
  186.8610  177.0330  146.1550 N   0  0  0  0  0  2  0  0  0  0  0  0
  188.0160  177.2900  147.0120 C   0  0  0  0  0  2  0  0  0  0  0  0
  189.1560  177.8690  146.1920 C   0  0  0  0  0  2  0  0  0  0  0  0
  190.3000  176.8770  146.1010 C   0  0  0  0  0  1  0  0  0  0  0  0
  1  2  1  0  0  0  0
  4  8  1  0  0  0  0
  5  2  1  0  0  0  0
  5  3  2  0  0  0  0
  6  8  2  0  0  0  0
  6 37  1  0  0  0  0
  7  4  1  0  0  0  0
  7  9  1  0  0  0  0
  8  5  1  0  0  0  0
  9 11  1  6  0  0  0
  9  1  1  0  0  0  0
 10  4  2  0  0  0  0
 11 12  2  0  0  0  0
 12 26  1  0  0  0  0
 14 13  2  0  0  0  0
 14 11  1  0  0  0  0
 15 13  1  6  0  0  0
 15 12  1  0  0  0  0
 17 16  1  1  0  0  0
 17 15  1  0  0  0  0
 17 19  1  0  0  0  0
 20 16  1  0  0  0  0
 22 20  1  0  0  0  0
 22 23  1  0  0  0  0
 23 18  2  6  0  0  0
 23 19  1  0  0  0  0
 23 21  1  0  0  0  0
 24 25  2  0  0  0  0
 25 29  1  0  0  0  0
 26 24  2  0  0  0  0
 28 29  2  0  0  0  0
 29 27  1  0  0  0  0
 30 25  1  0  0  0  0
 31 30  1  0  0  0  0
 31 32  1  0  0  0  0
 33 32  1  0  0  0  0
 33 36  1  0  0  0  0
 36 34  1  6  0  0  0
 36 35  1  0  0  0  0
 38 37  1  6  0  0  0
 38 43  1  0  0  0  0
 39 38  1  0  0  0  0
 39 41  1  0  0  0  0
 40 42  1  0  0  0  0
 41 40  2  0  0  0  0
 42 44  1  0  0  0  0
 43 40  1  0  0  0  0
 44 49  1  0  0  0  0
 45 49  2  0  0  0  0
 45 47  1  0  0  0  0
 46 48  1  0  0  0  0
 47 50  1  0  0  0  0
 47 51  1  1  0  0  0
 49 48  1  0  0  0  0
 50 46  2  0  0  0  0
 51 55  1  0  0  0  0
 53 52  1  0  0  0  0
 54 55  1  0  0  0  0
 54 56  1  0  0  0  0
 55 53  1  0  0  0  0
 56 57  1  6  0  0  0
 56 52  1  0  0  0  0
 57 58  1  6  0  0  0
 57 60  1  0  0  0  0
 59 58  1  0  0  0  0
 60 61  1  0  0  0  0
 62 61  1  0  0  0  0
 63 62  1  0  0  0  0
M  END
>  <MODEL>
5

>  <REMARK>
 VINA RESULT:      -3.5      2.494      4.167
  Name = 
  19 active torsions:
  status: ('A' for Active; 'I' for Inactive)
    1  A    between atoms: C_3  and  C_5
    2  A    between atoms: C_3  and  N_59
    3  A    between atoms: C_7  and  C_53
    4  A    between atoms: C_8  and  C_16
    5  A    between atoms: C_8  and  C_55
    6  A    between atoms: C_9  and  C_19
    7  A    between atoms: C_10  and  N_40
    8  A    between atoms: C_10  and  C_46
    9  A    between atoms: C_14  and  C_48
   10  A    between atoms: C_16  and  C_25
   11  A    between atoms: N_17  and  C_47
   12  A    between atoms: C_18  and  C_44
   13  A    between atoms: C_18  and  C_56
   14  A    between atoms: C_25  and  C_56
   15  A    between atoms: C_28  and  C_33
   16  A    between atoms: N_31  and  N_54
   17  A    between atoms: C_33  and  N_39
   18  A    between atoms: C_47  and  N_59
   19  A    between atoms: C_47  and  C_63
                            x       y       z     vdW  Elec       q    Type
                         _______ _______ _______ _____ _____    ______ ____

>  <TORSDO>
F 19

$$$$
=
 OpenBabel11032420503D

 63 68  0  0  1  0  0  0  0  0999 V2000
  191.5080  177.6530  141.2370 C   0  0  0  0  0  2  0  0  0  0  0  0
  191.3110  177.2180  142.6030 N   0  0  0  0  0  2  0  0  0  0  0  0
  189.9590  176.5240  144.3360 O   0  0  0  0  0  0  0  0  0  0  0  0
  188.4760  177.3130  141.0870 C   0  0  0  0  0  0  0  0  0  0  0  0
  190.0240  177.0590  143.1970 C   0  0  0  0  0  0  0  0  0  0  0  0
  187.8230  178.0800  143.2440 N   0  0  0  0  0  0  0  0  0  0  0  0
  189.4610  176.9830  140.0970 N   0  0  0  0  0  2  0  0  0  0  0  0
  188.7660  177.5220  142.5370 C   0  0  0  0  0  0  0  0  0  0  0  0
  190.8540  176.6400  140.3270 C   0  0  1  0  0  3  0  0  0  0  0  0
  187.2880  177.4620  140.6920 O   0  0  0  0  0  0  0  0  0  0  0  0
  191.5910  176.5470  139.0280 C   0  0  0  0  0  0  0  0  0  0  0  0
  192.8780  176.2380  138.9100 C   0  0  0  0  0  0  0  0  0  0  0  0
  192.1600  176.9940  136.7570 C   0  0  0  0  0  3  0  0  0  0  0  0
  190.9860  176.9410  137.7270 C   0  0  0  0  0  3  0  0  0  0  0  0
  193.3700  176.4490  137.5170 C   0  0  2  0  0  3  0  0  0  0  0  0
  194.3130  175.3880  135.3720 C   0  0  0  0  0  2  0  0  0  0  0  0
  193.9010  175.1720  136.8460 C   0  0  2  0  0  3  0  0  0  0  0  0
  194.3160  171.7380  137.7830 O   0  0  0  0  0  1  0  0  0  0  0  0
  192.9480  173.9950  137.0370 C   0  0  0  0  0  2  0  0  0  0  0  0
  194.6790  174.1050  134.5970 C   0  0  0  0  0  2  0  0  0  0  0  0
  192.7360  171.4700  135.7020 O   0  0  0  0  0  0  0  0  0  0  0  0
  195.1750  172.9750  135.4920 C   0  0  0  0  0  2  0  0  0  0  0  0
  193.7980  172.4670  136.5620 P   0  0  2  0  0  0  0  0  0  0  0  0
  195.0170  175.4430  139.8230 C   0  0  0  0  0  0  0  0  0  0  0  0
  196.2600  175.0590  139.6880 C   0  0  0  0  0  0  0  0  0  0  0  0
  193.7970  175.8750  140.0070 C   0  0  0  0  0  3  0  0  0  0  0  0
  197.0650  176.8820  141.1810 O   0  0  0  0  0  1  0  0  0  0  0  0
  198.4810  175.2040  140.5370 O   0  0  0  0  0  0  0  0  0  0  0  0
  197.3270  175.7090  140.4790 C   0  0  0  0  0  0  0  0  0  0  0  0
  196.6100  174.0610  138.6350 C   0  0  0  0  0  2  0  0  0  0  0  0
  197.4460  174.7020  137.5450 C   0  0  0  0  0  2  0  0  0  0  0  0
  198.3900  173.6690  136.9650 C   0  0  0  0  0  2  0  0  0  0  0  0
  198.0960  172.3130  137.5870 C   0  0  0  0  0  2  0  0  0  0  0  0
  198.9190  171.5560  135.3540 C   0  0  0  0  0  1  0  0  0  0  0  0
  198.3360  170.0080  137.0570 O   0  0  0  0  0  1  0  0  0  0  0  0
  197.9890  171.2410  136.5120 C   0  0  1  0  0  3  0  0  0  0  0  0
  187.9270  178.4160  144.6600 C   0  0  0  0  0  2  0  0  0  0  0  0
  186.5650  178.7860  145.2110 C   0  0  2  0  0  3  0  0  0  0  0  0
  185.9200  177.5450  145.8160 C   0  0  0  0  0  2  0  0  0  0  0  0
  184.1820  178.3880  144.5500 C   0  0  0  0  0  0  0  0  0  0  0  0
  184.5050  177.5770  145.4950 N   0  0  0  0  0  0  0  0  0  0  0  0
  182.8240  178.5290  144.1390 N   0  0  0  0  0  2  0  0  0  0  0  0
  185.4980  179.3620  143.8500 S   0  0  0  0  0  0  0  0  0  0  0  0
  182.4850  179.3500  143.0540 N   0  0  0  0  0  2  0  0  0  0  0  0
  181.2060  177.6560  141.9950 N   0  0  0  0  0  0  0  0  0  0  0  0
  180.0980  179.4490  140.2340 N   0  0  0  0  0  0  0  0  0  0  0  0
  180.3990  177.1280  140.8910 C   0  0  1  0  0  3  0  0  0  0  0  0
  181.3940  179.7660  140.8070 C   0  0  0  0  0  2  0  0  0  0  0  0
  181.6820  178.8690  141.9790 C   0  0  0  0  0  0  0  0  0  0  0  0
  179.6200  178.2490  140.2460 C   0  0  0  0  0  3  0  0  0  0  0  0
  181.3080  176.4590  139.8670 C   0  0  0  0  0  2  0  0  0  0  0  0
  184.2030  177.8670  138.2000 C   0  0  0  0  0  2  0  0  0  0  0  0
  183.4450  177.2470  139.3450 C   0  0  0  0  0  2  0  0  0  0  0  0
  181.7440  177.1230  137.3930 S   0  0  0  0  0  0  0  0  0  0  0  0
  182.0300  177.4650  139.1060 N   0  0  0  0  0  0  0  0  0  0  0  0
  183.4730  177.4750  136.9330 C   0  0  2  0  0  3  0  0  0  0  0  0
  184.1220  176.2390  136.2960 C   0  0  2  0  0  3  0  0  0  0  0  0
  184.2810  176.4150  134.8570 N   0  0  0  0  0  2  0  0  0  0  0  0
  185.7080  176.5080  134.5960 C   0  0  0  0  0  1  0  0  0  0  0  0
  183.3790  175.0060  136.5850 N   0  0  0  0  0  2  0  0  0  0  0  0
  184.0780  173.8440  136.0410 C   0  0  0  0  0  2  0  0  0  0  0  0
  184.3290  172.8240  137.1380 C   0  0  0  0  0  2  0  0  0  0  0  0
  183.1700  171.8490  137.2300 C   0  0  0  0  0  1  0  0  0  0  0  0
  1  2  1  0  0  0  0
  2  5  1  0  0  0  0
  4  8  1  0  0  0  0
  5  3  2  0  0  0  0
  6 37  1  0  0  0  0
  7  9  1  0  0  0  0
  7  4  1  0  0  0  0
  8  5  1  0  0  0  0
  8  6  2  0  0  0  0
  9 11  1  6  0  0  0
  9  1  1  0  0  0  0
 10  4  2  0  0  0  0
 12 11  2  0  0  0  0
 12 26  1  0  0  0  0
 13 14  2  0  0  0  0
 14 11  1  0  0  0  0
 15 13  1  6  0  0  0
 15 12  1  0  0  0  0
 17 16  1  6  0  0  0
 17 19  1  0  0  0  0
 17 15  1  0  0  0  0
 20 16  1  0  0  0  0
 20 22  1  0  0  0  0
 22 23  1  0  0  0  0
 23 21  2  6  0  0  0
 23 19  1  0  0  0  0
 23 18  1  0  0  0  0
 24 26  2  0  0  0  0
 25 24  2  0  0  0  0
 25 29  1  0  0  0  0
 29 28  2  0  0  0  0
 29 27  1  0  0  0  0
 30 25  1  0  0  0  0
 31 30  1  0  0  0  0
 32 31  1  0  0  0  0
 32 33  1  0  0  0  0
 36 34  1  6  0  0  0
 36 35  1  0  0  0  0
 36 33  1  0  0  0  0
 38 37  1  6  0  0  0
 38 39  1  0  0  0  0
 40 41  2  0  0  0  0
 41 39  1  0  0  0  0
 42 40  1  0  0  0  0
 43 40  1  0  0  0  0
 43 38  1  0  0  0  0
 44 42  1  0  0  0  0
 46 50  2  0  0  0  0
 46 48  1  0  0  0  0
 47 51  1  6  0  0  0
 47 45  1  0  0  0  0
 48 49  1  0  0  0  0
 49 45  2  0  0  0  0
 49 44  1  0  0  0  0
 50 47  1  0  0  0  0
 52 53  1  0  0  0  0
 54 55  1  0  0  0  0
 55 53  1  0  0  0  0
 55 51  1  0  0  0  0
 56 57  1  1  0  0  0
 56 54  1  0  0  0  0
 56 52  1  0  0  0  0
 57 58  1  6  0  0  0
 57 60  1  0  0  0  0
 59 58  1  0  0  0  0
 61 60  1  0  0  0  0
 61 62  1  0  0  0  0
 62 63  1  0  0  0  0
M  END
>  <MODEL>
6

>  <REMARK>
 VINA RESULT:      -2.6      3.142      8.192
  Name = 
  19 active torsions:
  status: ('A' for Active; 'I' for Inactive)
    1  A    between atoms: C_3  and  C_5
    2  A    between atoms: C_3  and  N_59
    3  A    between atoms: C_7  and  C_53
    4  A    between atoms: C_8  and  C_16
    5  A    between atoms: C_8  and  C_55
    6  A    between atoms: C_9  and  C_19
    7  A    between atoms: C_10  and  N_40
    8  A    between atoms: C_10  and  C_46
    9  A    between atoms: C_14  and  C_48
   10  A    between atoms: C_16  and  C_25
   11  A    between atoms: N_17  and  C_47
   12  A    between atoms: C_18  and  C_44
   13  A    between atoms: C_18  and  C_56
   14  A    between atoms: C_25  and  C_56
   15  A    between atoms: C_28  and  C_33
   16  A    between atoms: N_31  and  N_54
   17  A    between atoms: C_33  and  N_39
   18  A    between atoms: C_47  and  N_59
   19  A    between atoms: C_47  and  C_63
                            x       y       z     vdW  Elec       q    Type
                         _______ _______ _______ _____ _____    ______ ____

>  <TORSDO>
F 19

$$$$
=
 OpenBabel11032420503D

 63 68  0  0  1  0  0  0  0  0999 V2000
  189.9380  176.3670  140.6910 C   0  0  0  0  0  2  0  0  0  0  0  0
  190.2660  176.2960  139.2840 N   0  0  0  0  0  2  0  0  0  0  0  0
  189.9450  176.9290  137.0910 O   0  0  0  0  0  0  0  0  0  0  0  0
  187.8510  178.3750  139.7190 C   0  0  0  0  0  0  0  0  0  0  0  0
  189.4850  176.9170  138.2650 C   0  0  0  0  0  0  0  0  0  0  0  0
  187.1790  177.3760  137.6640 N   0  0  0  0  0  0  0  0  0  0  0  0
  188.6610  178.4330  140.9020 N   0  0  0  0  0  2  0  0  0  0  0  0
  188.1450  177.5220  138.5290 C   0  0  0  0  0  0  0  0  0  0  0  0
  189.9630  177.8210  141.1030 C   0  0  1  0  0  3  0  0  0  0  0  0
  186.8030  179.0770  139.7020 O   0  0  0  0  0  0  0  0  0  0  0  0
  190.3900  177.9570  142.5310 C   0  0  0  0  0  0  0  0  0  0  0  0
  189.6480  177.6130  143.5770 C   0  0  0  0  0  0  0  0  0  0  0  0
  191.5200  178.8270  144.4400 C   0  0  0  0  0  3  0  0  0  0  0  0
  191.6500  178.6380  142.9340 C   0  0  0  0  0  3  0  0  0  0  0  0
  190.2550  178.0780  144.8590 C   0  0  2  0  0  3  0  0  0  0  0  0
  189.6330  176.8610  147.0390 C   0  0  0  0  0  2  0  0  0  0  0  0
  190.5970  176.9380  145.8330 C   0  0  2  0  0  3  0  0  0  0  0  0
  193.1680  174.4580  146.1110 O   0  0  0  0  0  0  0  0  0  0  0  0
  192.0670  176.9660  146.2410 C   0  0  0  0  0  2  0  0  0  0  0  0
  190.0360  175.8580  148.1390 C   0  0  0  0  0  2  0  0  0  0  0  0
  193.4780  175.7150  148.3960 O   0  0  0  0  0  1  0  0  0  0  0  0
  190.8980  174.7090  147.6280 C   0  0  0  0  0  2  0  0  0  0  0  0
  192.4790  175.4070  147.0670 P   0  0  2  0  0  0  0  0  0  0  0  0
  187.2040  177.6150  143.8400 C   0  0  0  0  0  0  0  0  0  0  0  0
  186.0690  178.2160  144.0810 C   0  0  0  0  0  0  0  0  0  0  0  0
  188.3110  176.9880  143.5370 C   0  0  0  0  0  3  0  0  0  0  0  0
  185.1820  177.6750  141.8180 O   0  0  0  0  0  0  0  0  0  0  0  0
  183.7670  178.3560  143.4820 O   0  0  0  0  0  1  0  0  0  0  0  0
  184.9480  178.0940  143.1240 C   0  0  0  0  0  0  0  0  0  0  0  0
  185.9570  179.1340  145.2530 C   0  0  0  0  0  2  0  0  0  0  0  0
  185.2860  178.4360  146.4180 C   0  0  0  0  0  2  0  0  0  0  0  0
  185.8050  179.0170  147.7170 C   0  0  0  0  0  2  0  0  0  0  0  0
  187.3100  178.8120  147.7950 C   0  0  0  0  0  2  0  0  0  0  0  0
  187.7890  176.5930  148.8360 C   0  0  0  0  0  1  0  0  0  0  0  0
  188.9140  178.5650  149.5320 O   0  0  0  0  0  1  0  0  0  0  0  0
  187.6860  178.0890  149.0800 C   0  0  1  0  0  3  0  0  0  0  0  0
  187.2470  176.5470  136.4660 C   0  0  0  0  0  2  0  0  0  0  0  0
  185.8530  176.1600  136.0180 C   0  0  2  0  0  3  0  0  0  0  0  0
  185.5940  176.7470  134.6370 C   0  0  0  0  0  2  0  0  0  0  0  0
  183.6550  177.3300  135.7470 C   0  0  0  0  0  0  0  0  0  0  0  0
  184.2170  177.2020  134.5970 N   0  0  0  0  0  0  0  0  0  0  0  0
  182.3000  177.7600  135.8550 N   0  0  0  0  0  2  0  0  0  0  0  0
  184.6290  176.8740  137.1660 S   0  0  0  0  0  0  0  0  0  0  0  0
  181.7160  177.9780  137.1110 N   0  0  0  0  0  2  0  0  0  0  0  0
  181.1630  175.6890  137.4020 N   0  0  0  0  0  0  0  0  0  0  0  0
  180.5830  176.0600  140.0620 N   0  0  0  0  0  0  0  0  0  0  0  0
  180.5490  174.5780  138.1350 C   0  0  1  0  0  3  0  0  0  0  0  0
  180.4630  177.2000  139.1700 C   0  0  0  0  0  2  0  0  0  0  0  0
  181.1330  176.9110  137.8550 C   0  0  0  0  0  0  0  0  0  0  0  0
  180.6140  174.8480  139.6200 C   0  0  0  0  0  3  0  0  0  0  0  0
  179.1010  174.4100  137.6920 C   0  0  0  0  0  2  0  0  0  0  0  0
  179.5600  172.0590  134.9720 C   0  0  0  0  0  2  0  0  0  0  0  0
  179.1900  173.3780  135.5980 C   0  0  0  0  0  2  0  0  0  0  0  0
  180.2120  172.0640  137.5850 S   0  0  0  0  0  0  0  0  0  0  0  0
  178.9310  173.1410  137.0060 N   0  0  0  0  0  0  0  0  0  0  0  0
  180.5250  171.3830  135.9220 C   0  0  2  0  0  3  0  0  0  0  0  0
  181.9760  171.6470  135.4970 C   0  0  2  0  0  3  0  0  0  0  0  0
  182.4900  170.5500  134.6850 N   0  0  0  0  0  2  0  0  0  0  0  0
  183.6410  170.0070  135.3860 C   0  0  0  0  0  1  0  0  0  0  0  0
  182.8580  171.8950  136.6450 N   0  0  0  0  0  2  0  0  0  0  0  0
  184.0500  172.6300  136.2280 C   0  0  0  0  0  2  0  0  0  0  0  0
  184.9470  172.8910  137.4250 C   0  0  0  0  0  2  0  0  0  0  0  0
  184.3540  173.9760  138.3050 C   0  0  0  0  0  1  0  0  0  0  0  0
  1  9  1  0  0  0  0
  2  1  1  0  0  0  0
  3  5  2  0  0  0  0
  4  7  1  0  0  0  0
  5  8  1  0  0  0  0
  5  2  1  0  0  0  0
  6  8  2  0  0  0  0
  7  9  1  0  0  0  0
  8  4  1  0  0  0  0
  9 11  1  1  0  0  0
 10  4  2  0  0  0  0
 11 14  1  0  0  0  0
 11 12  2  0  0  0  0
 12 15  1  0  0  0  0
 14 13  2  0  0  0  0
 15 13  1  6  0  0  0
 15 17  1  0  0  0  0
 16 20  1  0  0  0  0
 17 19  1  1  0  0  0
 17 16  1  0  0  0  0
 19 23  1  0  0  0  0
 22 20  1  0  0  0  0
 23 18  2  6  0  0  0
 23 22  1  0  0  0  0
 23 21  1  0  0  0  0
 24 25  2  0  0  0  0
 25 30  1  0  0  0  0
 26 12  1  0  0  0  0
 26 24  2  0  0  0  0
 27 29  2  0  0  0  0
 29 28  1  0  0  0  0
 29 25  1  0  0  0  0
 30 31  1  0  0  0  0
 31 32  1  0  0  0  0
 32 33  1  0  0  0  0
 33 36  1  0  0  0  0
 36 34  1  6  0  0  0
 36 35  1  0  0  0  0
 37  6  1  0  0  0  0
 38 37  1  1  0  0  0
 38 43  1  0  0  0  0
 39 38  1  0  0  0  0
 40 42  1  0  0  0  0
 40 43  1  0  0  0  0
 41 39  1  0  0  0  0
 41 40  2  0  0  0  0
 42 44  1  0  0  0  0
 44 49  1  0  0  0  0
 45 49  2  0  0  0  0
 45 47  1  0  0  0  0
 47 51  1  6  0  0  0
 47 50  1  0  0  0  0
 48 46  1  0  0  0  0
 49 48  1  0  0  0  0
 50 46  2  0  0  0  0
 52 53  1  0  0  0  0
 52 56  1  0  0  0  0
 53 55  1  0  0  0  0
 55 54  1  0  0  0  0
 55 51  1  0  0  0  0
 56 57  1  6  0  0  0
 56 54  1  0  0  0  0
 57 58  1  1  0  0  0
 57 60  1  0  0  0  0
 58 59  1  0  0  0  0
 61 60  1  0  0  0  0
 61 62  1  0  0  0  0
 62 63  1  0  0  0  0
M  END
>  <MODEL>
7

>  <REMARK>
 VINA RESULT:      -2.5      3.550      9.393
  Name = 
  19 active torsions:
  status: ('A' for Active; 'I' for Inactive)
    1  A    between atoms: C_3  and  C_5
    2  A    between atoms: C_3  and  N_59
    3  A    between atoms: C_7  and  C_53
    4  A    between atoms: C_8  and  C_16
    5  A    between atoms: C_8  and  C_55
    6  A    between atoms: C_9  and  C_19
    7  A    between atoms: C_10  and  N_40
    8  A    between atoms: C_10  and  C_46
    9  A    between atoms: C_14  and  C_48
   10  A    between atoms: C_16  and  C_25
   11  A    between atoms: N_17  and  C_47
   12  A    between atoms: C_18  and  C_44
   13  A    between atoms: C_18  and  C_56
   14  A    between atoms: C_25  and  C_56
   15  A    between atoms: C_28  and  C_33
   16  A    between atoms: N_31  and  N_54
   17  A    between atoms: C_33  and  N_39
   18  A    between atoms: C_47  and  N_59
   19  A    between atoms: C_47  and  C_63
                            x       y       z     vdW  Elec       q    Type
                         _______ _______ _______ _____ _____    ______ ____

>  <TORSDO>
F 19

$$$$
=
 OpenBabel11032420503D

 63 68  0  0  1  0  0  0  0  0999 V2000
  188.1710  176.1870  135.1720 C   0  0  0  0  0  2  0  0  0  0  0  0
  186.8360  176.4890  135.6420 N   0  0  0  0  0  2  0  0  0  0  0  0
  184.7650  175.8430  136.4210 O   0  0  0  0  0  0  0  0  0  0  0  0
  187.2710  173.3020  135.6180 C   0  0  0  0  0  0  0  0  0  0  0  0
  185.8380  175.4930  135.8600 C   0  0  0  0  0  0  0  0  0  0  0  0
  184.9970  173.4200  134.9200 N   0  0  0  0  0  0  0  0  0  0  0  0
  188.5510  173.8900  135.8920 N   0  0  0  0  0  2  0  0  0  0  0  0
  186.0050  174.0720  135.4290 C   0  0  0  0  0  0  0  0  0  0  0  0
  188.8290  175.2840  136.1890 C   0  0  1  0  0  3  0  0  0  0  0  0
  187.2240  172.0470  135.5040 O   0  0  0  0  0  0  0  0  0  0  0  0
  190.3060  175.5260  136.2300 C   0  0  0  0  0  0  0  0  0  0  0  0
  191.0400  175.5330  137.3360 C   0  0  0  0  0  0  0  0  0  0  0  0
  192.4370  176.3760  135.5870 C   0  0  0  0  0  3  0  0  0  0  0  0
  191.0880  175.9360  135.0320 C   0  0  0  0  0  3  0  0  0  0  0  0
  192.4240  176.0260  137.0750 C   0  0  2  0  0  3  0  0  0  0  0  0
  194.1970  175.2430  138.7680 C   0  0  0  0  0  2  0  0  0  0  0  0
  193.5210  174.9980  137.4000 C   0  0  2  0  0  3  0  0  0  0  0  0
  195.0340  172.2140  135.7250 O   0  0  0  0  0  0  0  0  0  0  0  0
  194.5190  174.8550  136.2540 C   0  0  0  0  0  2  0  0  0  0  0  0
  195.4240  174.3570  139.0620 C   0  0  0  0  0  2  0  0  0  0  0  0
  197.1460  173.7200  136.1350 O   0  0  0  0  0  1  0  0  0  0  0  0
  195.4080  173.0280  138.3170 C   0  0  0  0  0  2  0  0  0  0  0  0
  195.5380  173.3850  136.5400 P   0  0  2  0  0  0  0  0  0  0  0  0
  190.4800  176.1520  139.6480 C   0  0  0  0  0  0  0  0  0  0  0  0
  190.3270  177.0310  140.6040 C   0  0  0  0  0  0  0  0  0  0  0  0
  190.5660  175.2500  138.7060 C   0  0  0  0  0  3  0  0  0  0  0  0
  187.9640  177.7800  140.8290 O   0  0  0  0  0  0  0  0  0  0  0  0
  188.9390  176.5210  142.4720 O   0  0  0  0  0  1  0  0  0  0  0  0
  189.0550  177.0960  141.3550 C   0  0  0  0  0  0  0  0  0  0  0  0
  191.3880  178.0550  140.8380 C   0  0  0  0  0  2  0  0  0  0  0  0
  192.3560  177.5890  141.9060 C   0  0  0  0  0  2  0  0  0  0  0  0
  191.6080  176.7740  142.9400 C   0  0  0  0  0  2  0  0  0  0  0  0
  191.3840  177.6220  144.1830 C   0  0  0  0  0  2  0  0  0  0  0  0
  191.8180  175.3550  145.1340 C   0  0  0  0  0  1  0  0  0  0  0  0
  192.0020  177.3160  146.4570 O   0  0  0  0  0  1  0  0  0  0  0  0
  191.2730  176.7430  145.4200 C   0  0  1  0  0  3  0  0  0  0  0  0
  183.6960  174.0010  134.6100 C   0  0  0  0  0  2  0  0  0  0  0  0
  182.8660  174.1270  135.8710 C   0  0  2  0  0  3  0  0  0  0  0  0
  181.9910  172.8880  136.0150 C   0  0  0  0  0  2  0  0  0  0  0  0
  180.4620  174.5720  136.4120 C   0  0  0  0  0  0  0  0  0  0  0  0
  180.6980  173.3120  136.5200 N   0  0  0  0  0  0  0  0  0  0  0  0
  179.2330  175.1280  136.8770 N   0  0  0  0  0  2  0  0  0  0  0  0
  181.7660  175.5740  135.7300 S   0  0  0  0  0  0  0  0  0  0  0  0
  178.9440  176.4870  136.6850 N   0  0  0  0  0  2  0  0  0  0  0  0
  181.1200  177.1810  137.3250 N   0  0  0  0  0  0  0  0  0  0  0  0
  180.6990  179.7250  136.3760 N   0  0  0  0  0  0  0  0  0  0  0  0
  182.1300  178.2020  137.6190 C   0  0  1  0  0  3  0  0  0  0  0  0
  179.5420  178.9450  136.7790 C   0  0  0  0  0  2  0  0  0  0  0  0
  179.9150  177.4980  136.9400 C   0  0  0  0  0  0  0  0  0  0  0  0
  181.8950  179.4170  136.7530 C   0  0  0  0  0  3  0  0  0  0  0  0
  182.0600  178.5830  139.0930 C   0  0  0  0  0  2  0  0  0  0  0  0
  184.8160  179.0090  141.4080 C   0  0  0  0  0  2  0  0  0  0  0  0
  183.8990  179.4010  140.2790 C   0  0  0  0  0  2  0  0  0  0  0  0
  182.8090  177.2290  141.1790 S   0  0  0  0  0  0  0  0  0  0  0  0
  183.2840  178.1890  139.7700 N   0  0  0  0  0  0  0  0  0  0  0  0
  184.0590  178.0070  142.2540 C   0  0  2  0  0  3  0  0  0  0  0  0
  183.3870  178.7040  143.4450 C   0  0  2  0  0  3  0  0  0  0  0  0
  182.4530  179.7290  142.9910 N   0  0  0  0  0  2  0  0  0  0  0  0
  181.1320  179.1250  142.9850 C   0  0  0  0  0  1  0  0  0  0  0  0
  184.3630  179.2750  144.3810 N   0  0  0  0  0  2  0  0  0  0  0  0
  184.2540  178.6380  145.6920 C   0  0  0  0  0  2  0  0  0  0  0  0
  185.6340  178.4480  146.2960 C   0  0  0  0  0  2  0  0  0  0  0  0
  186.5690  177.8020  145.2900 C   0  0  0  0  0  1  0  0  0  0  0  0
  1  2  1  0  0  0  0
  1  9  1  0  0  0  0
  2  5  1  0  0  0  0
  4  7  1  0  0  0  0
  5  3  2  0  0  0  0
  6  8  2  0  0  0  0
  7  9  1  0  0  0  0
  8  4  1  0  0  0  0
  8  5  1  0  0  0  0
  9 11  1  6  0  0  0
 10  4  2  0  0  0  0
 11 12  2  0  0  0  0
 12 26  1  0  0  0  0
 14 13  2  0  0  0  0
 14 11  1  0  0  0  0
 15 13  1  6  0  0  0
 15 12  1  0  0  0  0
 15 17  1  0  0  0  0
 16 20  1  0  0  0  0
 17 19  1  6  0  0  0
 17 16  1  0  0  0  0
 19 23  1  0  0  0  0
 21 23  1  0  0  0  0
 22 20  1  0  0  0  0
 23 18  2  6  0  0  0
 23 22  1  0  0  0  0
 24 25  2  0  0  0  0
 25 30  1  0  0  0  0
 25 29  1  0  0  0  0
 26 24  2  0  0  0  0
 27 29  2  0  0  0  0
 29 28  1  0  0  0  0
 30 31  1  0  0  0  0
 31 32  1  0  0  0  0
 32 33  1  0  0  0  0
 33 36  1  0  0  0  0
 36 34  1  6  0  0  0
 36 35  1  0  0  0  0
 37  6  1  0  0  0  0
 38 37  1  6  0  0  0
 38 39  1  0  0  0  0
 39 41  1  0  0  0  0
 40 41  2  0  0  0  0
 40 42  1  0  0  0  0
 43 38  1  0  0  0  0
 43 40  1  0  0  0  0
 44 42  1  0  0  0  0
 44 49  1  0  0  0  0
 45 47  1  0  0  0  0
 46 50  2  0  0  0  0
 46 48  1  0  0  0  0
 47 51  1  1  0  0  0
 48 49  1  0  0  0  0
 49 45  2  0  0  0  0
 50 47  1  0  0  0  0
 51 55  1  0  0  0  0
 52 56  1  0  0  0  0
 53 52  1  0  0  0  0
 54 56  1  0  0  0  0
 55 53  1  0  0  0  0
 55 54  1  0  0  0  0
 56 57  1  1  0  0  0
 57 58  1  6  0  0  0
 57 60  1  0  0  0  0
 59 58  1  0  0  0  0
 60 61  1  0  0  0  0
 61 62  1  0  0  0  0
 63 62  1  0  0  0  0
M  END
>  <MODEL>
8

>  <REMARK>
 VINA RESULT:      -2.5      2.507      5.250
  Name = 
  19 active torsions:
  status: ('A' for Active; 'I' for Inactive)
    1  A    between atoms: C_3  and  C_5
    2  A    between atoms: C_3  and  N_59
    3  A    between atoms: C_7  and  C_53
    4  A    between atoms: C_8  and  C_16
    5  A    between atoms: C_8  and  C_55
    6  A    between atoms: C_9  and  C_19
    7  A    between atoms: C_10  and  N_40
    8  A    between atoms: C_10  and  C_46
    9  A    between atoms: C_14  and  C_48
   10  A    between atoms: C_16  and  C_25
   11  A    between atoms: N_17  and  C_47
   12  A    between atoms: C_18  and  C_44
   13  A    between atoms: C_18  and  C_56
   14  A    between atoms: C_25  and  C_56
   15  A    between atoms: C_28  and  C_33
   16  A    between atoms: N_31  and  N_54
   17  A    between atoms: C_33  and  N_39
   18  A    between atoms: C_47  and  N_59
   19  A    between atoms: C_47  and  C_63
                            x       y       z     vdW  Elec       q    Type
                         _______ _______ _______ _____ _____    ______ ____

>  <TORSDO>
F 19

$$$$
=
 OpenBabel11032420503D

 63 68  0  0  1  0  0  0  0  0999 V2000
  187.2100  173.1250  137.5530 C   0  0  0  0  0  2  0  0  0  0  0  0
  185.9100  172.7010  138.0230 N   0  0  0  0  0  2  0  0  0  0  0  0
  183.6090  172.6820  137.8840 O   0  0  0  0  0  0  0  0  0  0  0  0
  185.5540  174.6180  135.4640 C   0  0  0  0  0  0  0  0  0  0  0  0
  184.6840  173.2320  137.5230 C   0  0  0  0  0  0  0  0  0  0  0  0
  183.6920  175.3170  136.7730 N   0  0  0  0  0  0  0  0  0  0  0  0
  186.7950  173.9190  135.2870 N   0  0  0  0  0  2  0  0  0  0  0  0
  184.6270  174.4210  136.6190 C   0  0  0  0  0  0  0  0  0  0  0  0
  187.2980  172.8100  136.0770 C   0  0  1  0  0  3  0  0  0  0  0  0
  185.2440  175.4750  134.5940 O   0  0  0  0  0  0  0  0  0  0  0  0
  188.7070  172.4870  135.6910 C   0  0  0  0  0  0  0  0  0  0  0  0
  189.5130  173.3050  135.0240 C   0  0  0  0  0  0  0  0  0  0  0  0
  190.6000  171.1750  135.0800 C   0  0  0  0  0  3  0  0  0  0  0  0
  189.3090  171.1410  135.8890 C   0  0  0  0  0  3  0  0  0  0  0  0
  190.7650  172.6140  134.5940 C   0  0  2  0  0  3  0  0  0  0  0  0
  192.2010  174.7360  134.8270 C   0  0  0  0  0  2  0  0  0  0  0  0
  192.0470  173.2370  135.1710 C   0  0  2  0  0  3  0  0  0  0  0  0
  194.8820  172.0690  137.0250 O   0  0  0  0  0  1  0  0  0  0  0  0
  193.2820  172.4110  134.8240 C   0  0  0  0  0  2  0  0  0  0  0  0
  193.5530  175.3650  135.2220 C   0  0  0  0  0  2  0  0  0  0  0  0
  196.0780  173.0300  134.8930 O   0  0  0  0  0  0  0  0  0  0  0  0
  194.2370  174.6560  136.3850 C   0  0  0  0  0  2  0  0  0  0  0  0
  194.6740  172.9800  135.8350 P   0  0  2  0  0  0  0  0  0  0  0  0
  188.9470  175.6640  135.4180 C   0  0  0  0  0  0  0  0  0  0  0  0
  188.7370  176.6860  136.2070 C   0  0  0  0  0  0  0  0  0  0  0  0
  189.2050  174.6840  134.5940 C   0  0  0  0  0  3  0  0  0  0  0  0
  189.3310  179.0040  136.8920 O   0  0  0  0  0  1  0  0  0  0  0  0
  190.2360  178.0900  135.0000 O   0  0  0  0  0  0  0  0  0  0  0  0
  189.4690  177.9520  135.9920 C   0  0  0  0  0  0  0  0  0  0  0  0
  187.8590  176.5210  137.4040 C   0  0  0  0  0  2  0  0  0  0  0  0
  188.6410  176.7620  138.6790 C   0  0  0  0  0  2  0  0  0  0  0  0
  190.0900  177.0340  138.3350 C   0  0  0  0  0  2  0  0  0  0  0  0
  190.8880  177.2080  139.6180 C   0  0  0  0  0  2  0  0  0  0  0  0
  193.1700  177.4550  140.6010 C   0  0  0  0  0  1  0  0  0  0  0  0
  192.7830  176.1300  138.6710 O   0  0  0  0  0  1  0  0  0  0  0  0
  192.3770  177.2940  139.3160 C   0  0  1  0  0  3  0  0  0  0  0  0
  182.7220  175.3330  137.8630 C   0  0  0  0  0  2  0  0  0  0  0  0
  182.5030  176.7530  138.3460 C   0  0  2  0  0  3  0  0  0  0  0  0
  183.6450  177.6290  137.8470 C   0  0  0  0  0  2  0  0  0  0  0  0
  183.5310  178.2520  140.0680 C   0  0  0  0  0  0  0  0  0  0  0  0
  183.9840  178.5630  138.9040 N   0  0  0  0  0  0  0  0  0  0  0  0
  183.7810  179.0870  141.1970 N   0  0  0  0  0  2  0  0  0  0  0  0
  182.5310  176.7830  140.1680 S   0  0  0  0  0  0  0  0  0  0  0  0
  183.3580  178.7040  142.4780 N   0  0  0  0  0  2  0  0  0  0  0  0
  185.5040  179.0370  143.4330 N   0  0  0  0  0  0  0  0  0  0  0  0
  184.5080  178.8640  145.9870 N   0  0  0  0  0  0  0  0  0  0  0  0
  186.4600  178.9880  144.5430 C   0  0  1  0  0  3  0  0  0  0  0  0
  183.7800  178.1970  144.9230 C   0  0  0  0  0  2  0  0  0  0  0  0
  184.2610  178.6710  143.5800 C   0  0  0  0  0  0  0  0  0  0  0  0
  185.7390  179.2280  145.8490 C   0  0  0  0  0  3  0  0  0  0  0  0
  187.1520  177.6310  144.5650 C   0  0  0  0  0  2  0  0  0  0  0  0
  190.5930  178.3470  143.6770 C   0  0  0  0  0  2  0  0  0  0  0  0
  189.2120  178.6670  144.1870 C   0  0  0  0  0  2  0  0  0  0  0  0
  189.1350  176.0940  143.8930 S   0  0  0  0  0  0  0  0  0  0  0  0
  188.3100  177.6460  143.6870 N   0  0  0  0  0  0  0  0  0  0  0  0
  190.7910  176.8580  143.8650 C   0  0  2  0  0  3  0  0  0  0  0  0
  191.5370  176.5730  145.1750 C   0  0  2  0  0  3  0  0  0  0  0  0
  191.7000  175.1390  145.3830 N   0  0  0  0  0  2  0  0  0  0  0  0
  192.4000  174.6190  144.2200 C   0  0  0  0  0  1  0  0  0  0  0  0
  190.8830  177.1900  146.3360 N   0  0  0  0  0  2  0  0  0  0  0  0
  190.0340  176.2200  147.0250 C   0  0  0  0  0  2  0  0  0  0  0  0
  188.9050  176.9350  147.7470 C   0  0  0  0  0  2  0  0  0  0  0  0
  189.3860  178.2670  148.2930 C   0  0  0  0  0  1  0  0  0  0  0  0
  1  2  1  0  0  0  0
  4  8  1  0  0  0  0
  5  3  2  0  0  0  0
  5  2  1  0  0  0  0
  6 37  1  0  0  0  0
  7  4  1  0  0  0  0
  7  9  1  0  0  0  0
  8  6  2  0  0  0  0
  8  5  1  0  0  0  0
  9 11  1  6  0  0  0
  9  1  1  0  0  0  0
 10  4  2  0  0  0  0
 11 14  1  0  0  0  0
 12 11  2  0  0  0  0
 13 14  2  0  0  0  0
 15 12  1  0  0  0  0
 15 13  1  1  0  0  0
 15 17  1  0  0  0  0
 16 17  1  0  0  0  0
 16 20  1  0  0  0  0
 17 19  1  6  0  0  0
 19 23  1  0  0  0  0
 20 22  1  0  0  0  0
 23 21  2  6  0  0  0
 23 22  1  0  0  0  0
 23 18  1  0  0  0  0
 24 25  2  0  0  0  0
 25 30  1  0  0  0  0
 26 12  1  0  0  0  0
 26 24  2  0  0  0  0
 28 29  2  0  0  0  0
 29 25  1  0  0  0  0
 29 27  1  0  0  0  0
 30 31  1  0  0  0  0
 32 31  1  0  0  0  0
 32 33  1  0  0  0  0
 35 36  1  0  0  0  0
 36 33  1  0  0  0  0
 36 34  1  1  0  0  0
 38 37  1  1  0  0  0
 38 43  1  0  0  0  0
 39 38  1  0  0  0  0
 39 41  1  0  0  0  0
 40 43  1  0  0  0  0
 40 42  1  0  0  0  0
 41 40  2  0  0  0  0
 42 44  1  0  0  0  0
 44 49  1  0  0  0  0
 45 49  2  0  0  0  0
 45 47  1  0  0  0  0
 47 51  1  1  0  0  0
 47 50  1  0  0  0  0
 48 46  1  0  0  0  0
 49 48  1  0  0  0  0
 50 46  2  0  0  0  0
 52 56  1  0  0  0  0
 52 53  1  0  0  0  0
 55 54  1  0  0  0  0
 55 53  1  0  0  0  0
 55 51  1  0  0  0  0
 56 54  1  0  0  0  0
 56 57  1  1  0  0  0
 57 58  1  1  0  0  0
 57 60  1  0  0  0  0
 59 58  1  0  0  0  0
 60 61  1  0  0  0  0
 61 62  1  0  0  0  0
 62 63  1  0  0  0  0
M  END
>  <MODEL>
9

>  <REMARK>
 VINA RESULT:      -2.5      1.681      1.966
  Name = 
  19 active torsions:
  status: ('A' for Active; 'I' for Inactive)
    1  A    between atoms: C_3  and  C_5
    2  A    between atoms: C_3  and  N_59
    3  A    between atoms: C_7  and  C_53
    4  A    between atoms: C_8  and  C_16
    5  A    between atoms: C_8  and  C_55
    6  A    between atoms: C_9  and  C_19
    7  A    between atoms: C_10  and  N_40
    8  A    between atoms: C_10  and  C_46
    9  A    between atoms: C_14  and  C_48
   10  A    between atoms: C_16  and  C_25
   11  A    between atoms: N_17  and  C_47
   12  A    between atoms: C_18  and  C_44
   13  A    between atoms: C_18  and  C_56
   14  A    between atoms: C_25  and  C_56
   15  A    between atoms: C_28  and  C_33
   16  A    between atoms: N_31  and  N_54
   17  A    between atoms: C_33  and  N_39
   18  A    between atoms: C_47  and  N_59
   19  A    between atoms: C_47  and  C_63
                            x       y       z     vdW  Elec       q    Type
                         _______ _______ _______ _____ _____    ______ ____

>  <TORSDO>
F 19

$$$$
