=
 OpenBabel11042410433D

 38 40  0  0  1  0  0  0  0  0999 V2000
  186.0260  178.0770  145.4820 C   0  0  0  0  0  0  0  0  0  0  0  0
  185.0840  178.1040  146.3670 N   0  0  0  0  0  2  0  0  0  0  0  0
  189.1650  177.6150  141.9390 C   0  0  1  0  0  3  0  0  0  0  0  0
  187.8280  176.6640  143.7460 O   0  0  0  0  0  0  0  0  0  0  0  0
  187.4090  177.7490  145.8830 C   0  0  0  0  0  0  0  0  0  0  0  0
  186.1310  178.8630  140.3020 C   0  0  0  0  0  2  0  0  0  0  0  0
  184.7990  178.0260  143.3890 N   0  0  0  0  0  0  0  0  0  0  0  0
  189.1980  177.9120  147.5040 C   0  0  0  0  0  0  0  0  0  0  0  0
  188.3010  177.1330  144.9840 C   0  0  0  0  0  0  0  0  0  0  0  0
  190.0540  177.3540  146.6050 N   0  0  0  0  0  0  0  0  0  0  0  0
  184.5140  178.3220  142.1560 C   0  0  0  0  0  0  0  0  0  0  0  0
  188.1640  178.5430  141.5580 O   0  0  0  0  0  0  0  0  0  0  0  0
  182.8760  177.8800  140.2370 C   0  0  0  0  0  0  0  0  0  0  0  0
  187.8650  178.1230  147.1540 C   0  0  0  0  0  3  0  0  0  0  0  0
  185.2720  179.4120  141.4390 C   0  0  0  0  0  2  0  0  0  0  0  0
  189.6820  175.4750  142.9760 O   0  0  0  0  0  1  0  0  0  0  0  0
  183.4960  177.5610  141.4910 N   0  0  0  0  0  2  0  0  0  0  0  0
  187.1870  177.8840  140.7910 C   0  0  0  0  0  2  0  0  0  0  0  0
  189.6540  178.3020  148.7990 N   0  0  0  0  0  2  0  0  0  0  0  0
  183.0730  178.9960  139.6860 O   0  0  0  0  0  0  0  0  0  0  0  0
  185.8020  178.7410  144.1650 C   0  0  0  0  0  2  0  0  0  0  0  0
  189.6380  176.9640  145.3710 C   0  0  0  0  0  3  0  0  0  0  0  0
  191.0320  178.1160  149.2230 C   0  0  0  0  0  1  0  0  0  0  0  0
  188.6410  176.3370  142.6180 C   0  0  2  0  0  3  0  0  0  0  0  0
  180.6710  176.8520  139.8070 C   0  0  0  0  0  3  0  0  0  0  0  0
  182.4270  175.9240  138.6840 N   0  0  0  0  0  0  0  0  0  0  0  0
  181.3830  175.2500  138.3350 C   0  0  0  0  0  0  0  0  0  0  0  0
  181.9780  176.9110  139.5980 C   0  0  2  0  0  3  0  0  0  0  0  0
  180.1290  175.7360  138.9770 C   0  0  0  0  0  3  0  0  0  0  0  0
  182.8750  173.7360  137.0830 C   0  0  0  0  0  1  0  0  0  0  0  0
  181.4350  174.1300  137.3550 C   0  0  0  0  0  2  0  0  0  0  0  0
  190.2450  177.4000  140.8680 C   0  0  0  0  0  2  0  0  0  0  0  0
  189.8120  177.1830  138.4980 N   0  0  0  0  0  0  0  0  0  0  0  0
  189.8800  177.9560  139.5300 C   0  0  0  0  0  3  0  0  0  0  0  0
  189.4750  177.7120  137.2480 N   0  0  0  0  0  2  0  0  0  0  0  0
  189.0080  179.0830  137.1320 C   0  0  0  0  0  2  0  0  0  0  0  0
  187.2400  178.0200  136.0280 C   0  0  0  0  0  1  0  0  0  0  0  0
  187.5680  179.1030  136.9400 N   0  0  0  0  0  2  0  0  0  0  0  0
  1  5  1  0  0  0  0
  1  2  2  0  0  0  0
  3 32  1  6  0  0  0
  3 24  1  0  0  0  0
  4  9  1  0  0  0  0
  5 14  2  0  0  0  0
  6 18  1  0  0  0  0
  6 15  1  0  0  0  0
  7 21  1  0  0  0  0
  8 19  1  0  0  0  0
  9 22  2  0  0  0  0
  9  5  1  0  0  0  0
 10  8  2  0  0  0  0
 11  7  2  0  0  0  0
 12  3  1  0  0  0  0
 13 17  1  0  0  0  0
 14  8  1  0  0  0  0
 15 11  1  0  0  0  0
 17 11  1  0  0  0  0
 18 12  1  0  0  0  0
 19 23  1  0  0  0  0
 20 13  2  0  0  0  0
 21  1  1  0  0  0  0
 22 10  1  0  0  0  0
 24 16  1  1  0  0  0
 24  4  1  0  0  0  0
 26 28  1  0  0  0  0
 27 26  2  0  0  0  0
 27 29  1  0  0  0  0
 28 25  1  0  0  0  0
 28 13  1  1  0  0  0
 29 25  2  0  0  0  0
 30 31  1  0  0  0  0
 31 27  1  0  0  0  0
 33 34  2  0  0  0  0
 34 32  1  0  0  0  0
 35 33  1  0  0  0  0
 36 35  1  0  0  0  0
 37 38  1  0  0  0  0
 38 36  1  0  0  0  0
M  END
>  <MODEL>
1

>  <REMARK>
 VINA RESULT:      -7.1      0.000      0.000
  Name = 
  7 active torsions:
  status: ('A' for Active; 'I' for Inactive)
    1  A    between atoms: C_5  and  C_10
    2  A    between atoms: C_6  and  C_19
    3  A    between atoms: C_10  and  C_32
    4  A    between atoms: N_12  and  N_14
    5  A    between atoms: N_12  and  C_31
    6  A    between atoms: C_13  and  C_24
    7  A    between atoms: C_31  and  N_37
                            x       y       z     vdW  Elec       q    Type
                         _______ _______ _______ _____ _____    ______ ____

>  <TORSDO>
F 7

$$$$
=
 OpenBabel11042410433D

 38 40  0  0  1  0  0  0  0  0999 V2000
  185.9230  178.0080  145.2360 C   0  0  0  0  0  0  0  0  0  0  0  0
  184.9550  177.9830  146.0930 N   0  0  0  0  0  2  0  0  0  0  0  0
  189.1740  177.7330  141.7760 C   0  0  1  0  0  3  0  0  0  0  0  0
  187.8260  176.6980  143.5280 O   0  0  0  0  0  0  0  0  0  0  0  0
  187.3050  177.7250  145.6700 C   0  0  0  0  0  0  0  0  0  0  0  0
  186.1410  178.8930  140.0750 C   0  0  0  0  0  2  0  0  0  0  0  0
  184.7570  177.9490  143.1070 N   0  0  0  0  0  0  0  0  0  0  0  0
  189.0400  177.9270  147.3440 C   0  0  0  0  0  0  0  0  0  0  0  0
  188.2450  177.1610  144.7860 C   0  0  0  0  0  0  0  0  0  0  0  0
  189.9420  177.4190  146.4600 N   0  0  0  0  0  0  0  0  0  0  0  0
  184.4950  178.2570  141.8720 C   0  0  0  0  0  0  0  0  0  0  0  0
  188.1490  178.6280  141.3830 O   0  0  0  0  0  0  0  0  0  0  0  0
  182.9300  177.7880  139.9000 C   0  0  0  0  0  0  0  0  0  0  0  0
  187.7100  178.0940  146.9590 C   0  0  0  0  0  3  0  0  0  0  0  0
  185.2300  179.3870  141.1960 C   0  0  0  0  0  2  0  0  0  0  0  0
  189.7450  175.5950  142.7890 O   0  0  0  0  0  1  0  0  0  0  0  0
  183.5270  177.4700  141.1650 N   0  0  0  0  0  2  0  0  0  0  0  0
  187.2200  177.9460  140.5770 C   0  0  0  0  0  2  0  0  0  0  0  0
  189.4450  178.3100  148.6580 N   0  0  0  0  0  2  0  0  0  0  0  0
  183.0980  178.9200  139.3740 O   0  0  0  0  0  0  0  0  0  0  0  0
  185.7100  178.6880  143.9240 C   0  0  0  0  0  2  0  0  0  0  0  0
  189.5760  177.0370  145.2080 C   0  0  0  0  0  3  0  0  0  0  0  0
  190.8170  178.1690  149.1180 C   0  0  0  0  0  1  0  0  0  0  0  0
  188.6820  176.4220  142.4170 C   0  0  2  0  0  3  0  0  0  0  0  0
  182.0150  176.6560  137.9030 C   0  0  0  0  0  3  0  0  0  0  0  0
  181.2540  175.8820  139.9100 N   0  0  0  0  0  0  0  0  0  0  0  0
  180.6600  175.1780  139.0070 C   0  0  0  0  0  0  0  0  0  0  0  0
  182.0880  176.7970  139.2190 C   0  0  2  0  0  3  0  0  0  0  0  0
  181.0540  175.5490  137.6190 C   0  0  0  0  0  3  0  0  0  0  0  0
  179.3280  174.1340  140.8020 C   0  0  0  0  0  1  0  0  0  0  0  0
  179.7100  174.0780  139.3350 C   0  0  0  0  0  2  0  0  0  0  0  0
  190.2910  177.5790  140.7330 C   0  0  0  0  0  2  0  0  0  0  0  0
  190.9510  175.9350  139.0850 N   0  0  0  0  0  0  0  0  0  0  0  0
  189.9920  176.5610  139.6800 C   0  0  0  0  0  3  0  0  0  0  0  0
  190.6630  174.9880  138.0980 N   0  0  0  0  0  2  0  0  0  0  0  0
  191.7320  174.4010  137.3090 C   0  0  0  0  0  2  0  0  0  0  0  0
  194.0010  173.9510  137.6610 C   0  0  0  0  0  1  0  0  0  0  0  0
  193.0040  175.0080  137.6660 N   0  0  0  0  0  2  0  0  0  0  0  0
  1  5  1  0  0  0  0
  1  2  2  0  0  0  0
  3 32  1  6  0  0  0
  3 24  1  0  0  0  0
  4  9  1  0  0  0  0
  5 14  2  0  0  0  0
  6 18  1  0  0  0  0
  6 15  1  0  0  0  0
  7 21  1  0  0  0  0
  8 19  1  0  0  0  0
  9 22  2  0  0  0  0
  9  5  1  0  0  0  0
 10  8  2  0  0  0  0
 11  7  2  0  0  0  0
 12  3  1  0  0  0  0
 13 17  1  0  0  0  0
 14  8  1  0  0  0  0
 15 11  1  0  0  0  0
 17 11  1  0  0  0  0
 18 12  1  0  0  0  0
 19 23  1  0  0  0  0
 20 13  2  0  0  0  0
 21  1  1  0  0  0  0
 22 10  1  0  0  0  0
 24 16  1  1  0  0  0
 24  4  1  0  0  0  0
 25 28  1  0  0  0  0
 27 31  1  0  0  0  0
 27 26  2  0  0  0  0
 28 13  1  6  0  0  0
 28 26  1  0  0  0  0
 29 25  2  0  0  0  0
 29 27  1  0  0  0  0
 31 30  1  0  0  0  0
 33 34  2  0  0  0  0
 34 32  1  0  0  0  0
 35 33  1  0  0  0  0
 36 38  1  0  0  0  0
 36 35  1  0  0  0  0
 37 38  1  0  0  0  0
M  END
>  <MODEL>
2

>  <REMARK>
 VINA RESULT:      -7.0      1.638      2.313
  Name = 
  7 active torsions:
  status: ('A' for Active; 'I' for Inactive)
    1  A    between atoms: C_5  and  C_10
    2  A    between atoms: C_6  and  C_19
    3  A    between atoms: C_10  and  C_32
    4  A    between atoms: N_12  and  N_14
    5  A    between atoms: N_12  and  C_31
    6  A    between atoms: C_13  and  C_24
    7  A    between atoms: C_31  and  N_37
                            x       y       z     vdW  Elec       q    Type
                         _______ _______ _______ _____ _____    ______ ____

>  <TORSDO>
F 7

$$$$
=
 OpenBabel11042410433D

 38 40  0  0  1  0  0  0  0  0999 V2000
  190.8460  176.9250  138.8740 C   0  0  0  0  0  0  0  0  0  0  0  0
  191.5490  177.5000  139.7940 N   0  0  0  0  0  2  0  0  0  0  0  0
  187.8550  174.7530  135.8820 C   0  0  1  0  0  3  0  0  0  0  0  0
  189.1940  174.7760  137.9230 O   0  0  0  0  0  0  0  0  0  0  0  0
  191.4000  175.7790  138.1260 C   0  0  0  0  0  0  0  0  0  0  0  0
  186.0100  177.7120  137.0140 C   0  0  0  0  0  2  0  0  0  0  0  0
  188.6080  177.7600  139.3050 N   0  0  0  0  0  0  0  0  0  0  0  0
  193.2970  174.6990  137.0820 C   0  0  0  0  0  0  0  0  0  0  0  0
  190.5600  174.7820  137.5950 C   0  0  0  0  0  0  0  0  0  0  0  0
  192.4620  173.7680  136.5440 N   0  0  0  0  0  0  0  0  0  0  0  0
  187.4270  178.2270  139.0310 C   0  0  0  0  0  0  0  0  0  0  0  0
  187.5010  176.1210  135.9840 O   0  0  0  0  0  0  0  0  0  0  0  0
  185.2130  179.0110  140.0540 C   0  0  0  0  0  0  0  0  0  0  0  0
  192.7770  175.7210  137.8760 C   0  0  0  0  0  3  0  0  0  0  0  0
  187.0720  178.6250  137.6200 C   0  0  0  0  0  2  0  0  0  0  0  0
  188.5260  172.7210  137.0410 O   0  0  0  0  0  1  0  0  0  0  0  0
  186.4660  178.3130  140.0930 N   0  0  0  0  0  2  0  0  0  0  0  0
  186.4680  176.2640  136.9280 C   0  0  0  0  0  2  0  0  0  0  0  0
  194.7010  174.6510  136.8290 N   0  0  0  0  0  2  0  0  0  0  0  0
  184.9310  179.7760  139.0930 O   0  0  0  0  0  0  0  0  0  0  0  0
  189.6650  177.6430  138.3100 C   0  0  0  0  0  2  0  0  0  0  0  0
  191.1240  173.7880  136.7820 C   0  0  0  0  0  3  0  0  0  0  0  0
  195.3040  173.6170  136.0040 C   0  0  0  0  0  1  0  0  0  0  0  0
  188.1750  174.0620  137.2200 C   0  0  2  0  0  3  0  0  0  0  0  0
  182.9820  178.5320  141.0010 C   0  0  0  0  0  3  0  0  0  0  0  0
  184.6060  179.0510  142.5180 N   0  0  0  0  0  0  0  0  0  0  0  0
  183.5310  178.8480  143.2010 C   0  0  0  0  0  0  0  0  0  0  0  0
  184.2570  178.8580  141.1560 C   0  0  0  0  0  0  0  0  0  0  0  0
  182.3580  178.4830  142.3560 C   0  0  0  0  0  2  0  0  0  0  0  0
  184.8880  178.7790  145.2600 C   0  0  0  0  0  1  0  0  0  0  0  0
  183.4900  178.9290  144.6880 C   0  0  0  0  0  2  0  0  0  0  0  0
  186.9580  173.9550  134.9240 C   0  0  0  0  0  2  0  0  0  0  0  0
  184.6090  173.6600  135.4230 N   0  0  0  0  0  0  0  0  0  0  0  0
  185.8240  173.2600  135.6040 C   0  0  0  0  0  3  0  0  0  0  0  0
  183.5530  173.0090  136.0670 N   0  0  0  0  0  2  0  0  0  0  0  0
  182.7550  173.7070  137.0600 C   0  0  0  0  0  2  0  0  0  0  0  0
  183.0370  175.6270  138.3680 C   0  0  0  0  0  1  0  0  0  0  0  0
  183.0260  175.1340  137.0010 N   0  0  0  0  0  2  0  0  0  0  0  0
  1  2  2  0  0  0  0
  3 32  1  1  0  0  0
  3 12  1  0  0  0  0
  3 24  1  0  0  0  0
  5  1  1  0  0  0  0
  6 15  1  0  0  0  0
  8 14  1  0  0  0  0
  9  4  1  0  0  0  0
  9  5  1  0  0  0  0
 10 22  1  0  0  0  0
 10  8  2  0  0  0  0
 11  7  2  0  0  0  0
 11 17  1  0  0  0  0
 12 18  1  0  0  0  0
 13 17  1  0  0  0  0
 13 28  1  0  0  0  0
 14  5  2  0  0  0  0
 15 11  1  0  0  0  0
 18  6  1  0  0  0  0
 19  8  1  0  0  0  0
 20 13  2  0  0  0  0
 21  1  1  0  0  0  0
 21  7  1  0  0  0  0
 22  9  2  0  0  0  0
 23 19  1  0  0  0  0
 24 16  1  6  0  0  0
 24  4  1  0  0  0  0
 25 28  2  0  0  0  0
 25 29  1  0  0  0  0
 26 27  2  0  0  0  0
 27 31  1  0  0  0  0
 28 26  1  0  0  0  0
 29 27  1  0  0  0  0
 31 30  1  0  0  0  0
 32 34  1  0  0  0  0
 33 34  2  0  0  0  0
 33 35  1  0  0  0  0
 35 36  1  0  0  0  0
 38 36  1  0  0  0  0
 38 37  1  0  0  0  0
M  END
>  <MODEL>
3

>  <REMARK>
 VINA RESULT:      -6.8      3.554      7.557
  Name = 
  7 active torsions:
  status: ('A' for Active; 'I' for Inactive)
    1  A    between atoms: C_5  and  C_10
    2  A    between atoms: C_6  and  C_19
    3  A    between atoms: C_10  and  C_32
    4  A    between atoms: N_12  and  N_14
    5  A    between atoms: N_12  and  C_31
    6  A    between atoms: C_13  and  C_24
    7  A    between atoms: C_31  and  N_37
                            x       y       z     vdW  Elec       q    Type
                         _______ _______ _______ _____ _____    ______ ____

>  <TORSDO>
F 7

$$$$
=
 OpenBabel11042410433D

 38 40  0  0  1  0  0  0  0  0999 V2000
  185.8790  177.5160  137.1170 C   0  0  0  0  0  0  0  0  0  0  0  0
  185.7650  177.5270  135.8290 N   0  0  0  0  0  2  0  0  0  0  0  0
  186.0620  177.9900  141.8460 C   0  0  1  0  0  3  0  0  0  0  0  0
  186.6680  178.7290  139.5990 O   0  0  0  0  0  0  0  0  0  0  0  0
  187.1880  177.2460  137.7420 C   0  0  0  0  0  0  0  0  0  0  0  0
  182.5020  178.3380  141.0400 C   0  0  0  0  0  2  0  0  0  0  0  0
  183.8260  178.5860  137.8480 N   0  0  0  0  0  0  0  0  0  0  0  0
  189.2840  176.0370  137.7390 C   0  0  0  0  0  0  0  0  0  0  0  0
  187.5180  177.7840  139.0020 C   0  0  0  0  0  0  0  0  0  0  0  0
  189.5650  176.5340  138.9750 N   0  0  0  0  0  0  0  0  0  0  0  0
  182.7670  178.7830  138.5760 C   0  0  0  0  0  0  0  0  0  0  0  0
  184.7560  177.5930  141.4670 O   0  0  0  0  0  0  0  0  0  0  0  0
  180.7180  180.2840  138.8990 C   0  0  0  0  0  0  0  0  0  0  0  0
  188.0890  176.3810  137.1090 C   0  0  0  0  0  3  0  0  0  0  0  0
  182.3660  177.7780  139.6260 C   0  0  0  0  0  2  0  0  0  0  0  0
  187.9710  179.4330  141.4020 O   0  0  0  0  0  1  0  0  0  0  0  0
  182.0230  179.9930  138.3800 N   0  0  0  0  0  2  0  0  0  0  0  0
  183.9330  178.7300  141.3750 C   0  0  0  0  0  2  0  0  0  0  0  0
  190.1930  175.1500  137.0870 N   0  0  0  0  0  2  0  0  0  0  0  0
  180.0280  179.3850  139.4500 O   0  0  0  0  0  0  0  0  0  0  0  0
  184.6480  177.3880  137.9510 C   0  0  0  0  0  2  0  0  0  0  0  0
  188.7190  177.3890  139.6090 C   0  0  0  0  0  3  0  0  0  0  0  0
  191.4510  174.7470  137.6940 C   0  0  0  0  0  1  0  0  0  0  0  0
  186.6810  179.1020  140.9790 C   0  0  2  0  0  3  0  0  0  0  0  0
  179.2260  182.1420  139.5540 C   0  0  0  0  0  3  0  0  0  0  0  0
  180.5690  182.5440  137.7520 N   0  0  0  0  0  0  0  0  0  0  0  0
  179.8720  183.6150  137.9250 C   0  0  0  0  0  0  0  0  0  0  0  0
  180.1610  181.6350  138.7620 C   0  0  0  0  0  0  0  0  0  0  0  0
  178.9370  183.5290  139.0820 C   0  0  0  0  0  2  0  0  0  0  0  0
  181.1740  184.6370  136.0950 C   0  0  0  0  0  1  0  0  0  0  0  0
  180.0290  184.8270  137.0730 C   0  0  0  0  0  2  0  0  0  0  0  0
  186.2390  178.1590  143.3620 C   0  0  0  0  0  2  0  0  0  0  0  0
  188.2310  177.7680  144.6770 N   0  0  0  0  0  0  0  0  0  0  0  0
  187.2900  177.2720  143.9450 C   0  0  0  0  0  3  0  0  0  0  0  0
  189.2140  176.9310  145.2150 N   0  0  0  0  0  2  0  0  0  0  0  0
  190.5710  177.4170  145.4000 C   0  0  0  0  0  2  0  0  0  0  0  0
  191.3420  176.7070  143.3090 C   0  0  0  0  0  1  0  0  0  0  0  0
  191.1100  177.8810  144.1320 N   0  0  0  0  0  2  0  0  0  0  0  0
  1  5  1  0  0  0  0
  1 21  1  0  0  0  0
  2  1  2  0  0  0  0
  3 32  1  1  0  0  0
  4 24  1  0  0  0  0
  5  9  1  0  0  0  0
  6 18  1  0  0  0  0
  7 21  1  0  0  0  0
  7 11  2  0  0  0  0
  8 10  2  0  0  0  0
  9  4  1  0  0  0  0
  9 22  2  0  0  0  0
 10 22  1  0  0  0  0
 11 15  1  0  0  0  0
 12  3  1  0  0  0  0
 13 20  2  0  0  0  0
 14  8  1  0  0  0  0
 14  5  2  0  0  0  0
 15  6  1  0  0  0  0
 17 11  1  0  0  0  0
 17 13  1  0  0  0  0
 18 12  1  0  0  0  0
 19 23  1  0  0  0  0
 19  8  1  0  0  0  0
 24 16  1  1  0  0  0
 24  3  1  0  0  0  0
 26 27  2  0  0  0  0
 26 28  1  0  0  0  0
 27 29  1  0  0  0  0
 28 13  1  0  0  0  0
 28 25  2  0  0  0  0
 29 25  1  0  0  0  0
 30 31  1  0  0  0  0
 31 27  1  0  0  0  0
 32 34  1  0  0  0  0
 33 35  1  0  0  0  0
 34 33  2  0  0  0  0
 35 36  1  0  0  0  0
 37 38  1  0  0  0  0
 38 36  1  0  0  0  0
M  END
>  <MODEL>
4

>  <REMARK>
 VINA RESULT:      -6.8      3.601      7.195
  Name = 
  7 active torsions:
  status: ('A' for Active; 'I' for Inactive)
    1  A    between atoms: C_5  and  C_10
    2  A    between atoms: C_6  and  C_19
    3  A    between atoms: C_10  and  C_32
    4  A    between atoms: N_12  and  N_14
    5  A    between atoms: N_12  and  C_31
    6  A    between atoms: C_13  and  C_24
    7  A    between atoms: C_31  and  N_37
                            x       y       z     vdW  Elec       q    Type
                         _______ _______ _______ _____ _____    ______ ____

>  <TORSDO>
F 7

$$$$
=
 OpenBabel11042410433D

 38 40  0  0  1  0  0  0  0  0999 V2000
  192.8970  176.3650  138.8440 C   0  0  0  0  0  0  0  0  0  0  0  0
  193.8100  176.7310  139.6830 N   0  0  0  0  0  2  0  0  0  0  0  0
  189.2160  174.9070  136.2090 C   0  0  1  0  0  3  0  0  0  0  0  0
  190.9250  174.4990  137.9030 O   0  0  0  0  0  0  0  0  0  0  0  0
  193.2020  175.3530  137.8140 C   0  0  0  0  0  0  0  0  0  0  0  0
  187.8680  177.6850  138.1860 C   0  0  0  0  0  2  0  0  0  0  0  0
  190.8600  177.2020  139.8650 N   0  0  0  0  0  0  0  0  0  0  0  0
  194.7660  174.4010  136.2320 C   0  0  0  0  0  0  0  0  0  0  0  0
  192.1970  174.5060  137.3050 C   0  0  0  0  0  0  0  0  0  0  0  0
  193.7700  173.6220  135.7260 N   0  0  0  0  0  0  0  0  0  0  0  0
  189.6880  177.7610  139.9250 C   0  0  0  0  0  0  0  0  0  0  0  0
  188.9980  176.2480  136.6140 O   0  0  0  0  0  0  0  0  0  0  0  0
  187.7870  178.4380  141.5010 C   0  0  0  0  0  0  0  0  0  0  0  0
  194.4940  175.2820  137.2780 C   0  0  0  0  0  3  0  0  0  0  0  0
  189.0970  178.4260  138.7060 C   0  0  0  0  0  2  0  0  0  0  0  0
  189.9380  172.6710  136.8410 O   0  0  0  0  0  1  0  0  0  0  0  0
  188.9640  177.6920  141.1600 N   0  0  0  0  0  2  0  0  0  0  0  0
  188.1850  176.2590  137.7610 C   0  0  0  0  0  2  0  0  0  0  0  0
  196.0850  174.3410  135.6890 N   0  0  0  0  0  2  0  0  0  0  0  0
  187.3830  179.3780  140.7650 O   0  0  0  0  0  0  0  0  0  0  0  0
  191.6890  177.2240  138.6680 C   0  0  0  0  0  2  0  0  0  0  0  0
  192.5110  173.6550  136.2360 C   0  0  0  0  0  3  0  0  0  0  0  0
  196.4310  173.4500  134.5940 C   0  0  0  0  0  1  0  0  0  0  0  0
  189.7360  173.9700  137.3140 C   0  0  2  0  0  3  0  0  0  0  0  0
  187.4460  177.2310  143.6300 C   0  0  0  0  0  3  0  0  0  0  0  0
  185.8390  178.7610  143.0970 N   0  0  0  0  0  0  0  0  0  0  0  0
  185.4790  178.2420  144.2200 C   0  0  0  0  0  0  0  0  0  0  0  0
  187.0560  178.1270  142.7350 C   0  0  0  0  0  0  0  0  0  0  0  0
  186.4340  177.2160  144.7270 C   0  0  0  0  0  2  0  0  0  0  0  0
  183.0910  178.8150  143.9840 C   0  0  0  0  0  1  0  0  0  0  0  0
  184.2520  178.6660  144.9510 C   0  0  0  0  0  2  0  0  0  0  0  0
  188.0890  174.3370  135.3350 C   0  0  0  0  0  2  0  0  0  0  0  0
  186.5500  173.1000  136.7330 N   0  0  0  0  0  0  0  0  0  0  0  0
  186.7920  174.1750  136.0600 C   0  0  0  0  0  3  0  0  0  0  0  0
  185.3320  172.9530  137.4050 N   0  0  0  0  0  2  0  0  0  0  0  0
  184.4000  174.0640  137.4860 C   0  0  0  0  0  2  0  0  0  0  0  0
  182.8690  172.4310  136.8060 C   0  0  0  0  0  1  0  0  0  0  0  0
  183.2570  173.8190  136.6220 N   0  0  0  0  0  2  0  0  0  0  0  0
  1  2  2  0  0  0  0
  3 32  1  1  0  0  0
  3 12  1  0  0  0  0
  3 24  1  0  0  0  0
  5  1  1  0  0  0  0
  6 15  1  0  0  0  0
  7 11  2  0  0  0  0
  8 14  1  0  0  0  0
  9  5  1  0  0  0  0
  9  4  1  0  0  0  0
 10  8  2  0  0  0  0
 10 22  1  0  0  0  0
 11 17  1  0  0  0  0
 12 18  1  0  0  0  0
 13 28  1  0  0  0  0
 14  5  2  0  0  0  0
 15 11  1  0  0  0  0
 17 13  1  0  0  0  0
 18  6  1  0  0  0  0
 19  8  1  0  0  0  0
 20 13  2  0  0  0  0
 21  1  1  0  0  0  0
 21  7  1  0  0  0  0
 22  9  2  0  0  0  0
 23 19  1  0  0  0  0
 24 16  1  6  0  0  0
 24  4  1  0  0  0  0
 25 29  1  0  0  0  0
 26 27  2  0  0  0  0
 27 29  1  0  0  0  0
 27 31  1  0  0  0  0
 28 26  1  0  0  0  0
 28 25  2  0  0  0  0
 30 31  1  0  0  0  0
 32 34  1  0  0  0  0
 33 35  1  0  0  0  0
 34 33  2  0  0  0  0
 35 36  1  0  0  0  0
 38 37  1  0  0  0  0
 38 36  1  0  0  0  0
M  END
>  <MODEL>
5

>  <REMARK>
 VINA RESULT:      -6.8      4.133      8.368
  Name = 
  7 active torsions:
  status: ('A' for Active; 'I' for Inactive)
    1  A    between atoms: C_5  and  C_10
    2  A    between atoms: C_6  and  C_19
    3  A    between atoms: C_10  and  C_32
    4  A    between atoms: N_12  and  N_14
    5  A    between atoms: N_12  and  C_31
    6  A    between atoms: C_13  and  C_24
    7  A    between atoms: C_31  and  N_37
                            x       y       z     vdW  Elec       q    Type
                         _______ _______ _______ _____ _____    ______ ____

>  <TORSDO>
F 7

$$$$
=
 OpenBabel11042410433D

 38 40  0  0  1  0  0  0  0  0999 V2000
  189.9640  177.2630  140.7460 C   0  0  0  0  0  0  0  0  0  0  0  0
  190.7310  177.4190  141.7750 N   0  0  0  0  0  2  0  0  0  0  0  0
  187.5760  176.8870  136.6500 C   0  0  1  0  0  3  0  0  0  0  0  0
  188.7580  178.2190  138.3190 O   0  0  0  0  0  0  0  0  0  0  0  0
  188.6210  177.8750  140.7240 C   0  0  0  0  0  0  0  0  0  0  0  0
  190.5490  174.7990  136.1580 C   0  0  0  0  0  2  0  0  0  0  0  0
  191.5000  176.4550  139.0480 N   0  0  0  0  0  0  0  0  0  0  0  0
  186.5960  178.4880  141.8980 C   0  0  0  0  0  0  0  0  0  0  0  0
  188.0140  178.2560  139.5110 C   0  0  0  0  0  0  0  0  0  0  0  0
  186.0130  178.8120  140.7100 N   0  0  0  0  0  0  0  0  0  0  0  0
  191.9180  175.7280  138.0550 C   0  0  0  0  0  0  0  0  0  0  0  0
  188.4350  175.7690  136.7930 O   0  0  0  0  0  0  0  0  0  0  0  0
  193.8960  175.2940  136.4880 C   0  0  0  0  0  0  0  0  0  0  0  0
  187.9050  178.0080  141.9200 C   0  0  0  0  0  3  0  0  0  0  0  0
  191.0970  174.5630  137.5630 C   0  0  0  0  0  2  0  0  0  0  0  0
  187.3050  179.2980  136.8460 O   0  0  0  0  0  1  0  0  0  0  0  0
  193.1530  176.0900  137.4220 N   0  0  0  0  0  2  0  0  0  0  0  0
  189.6280  176.0070  136.0880 C   0  0  0  0  0  2  0  0  0  0  0  0
  185.8730  178.6160  143.1220 N   0  0  0  0  0  2  0  0  0  0  0  0
  193.5880  174.0910  136.2760 O   0  0  0  0  0  0  0  0  0  0  0  0
  190.2700  176.1720  139.7750 C   0  0  0  0  0  2  0  0  0  0  0  0
  186.6870  178.7080  139.5340 C   0  0  0  0  0  3  0  0  0  0  0  0
  184.5040  179.1020  143.1650 C   0  0  0  0  0  1  0  0  0  0  0  0
  188.2120  178.2450  136.9990 C   0  0  2  0  0  3  0  0  0  0  0  0
  195.0660  177.0830  135.2490 C   0  0  0  0  0  3  0  0  0  0  0  0
  196.2770  175.1840  135.6140 N   0  0  0  0  0  0  0  0  0  0  0  0
  197.0500  175.9790  134.9550 C   0  0  0  0  0  0  0  0  0  0  0  0
  195.0490  175.8730  135.7890 C   0  0  2  0  0  3  0  0  0  0  0  0
  196.4130  177.2890  134.6380 C   0  0  0  0  0  3  0  0  0  0  0  0
  199.0690  174.7560  135.6710 C   0  0  0  0  0  1  0  0  0  0  0  0
  198.4520  175.6280  134.5940 C   0  0  0  0  0  2  0  0  0  0  0  0
  186.7410  176.8600  135.3610 C   0  0  0  0  0  2  0  0  0  0  0  0
  184.9440  175.9520  136.7020 N   0  0  0  0  0  0  0  0  0  0  0  0
  185.3160  176.4690  135.5790 C   0  0  0  0  0  3  0  0  0  0  0  0
  183.6090  175.5850  136.8960 N   0  0  0  0  0  2  0  0  0  0  0  0
  183.2800  174.3120  137.5140 C   0  0  0  0  0  2  0  0  0  0  0  0
  183.9370  172.0900  137.1900 C   0  0  0  0  0  1  0  0  0  0  0  0
  184.4320  173.4260  137.4720 N   0  0  0  0  0  2  0  0  0  0  0  0
  1  2  2  0  0  0  0
  3 32  1  6  0  0  0
  3 12  1  0  0  0  0
  3 24  1  0  0  0  0
  4  9  1  0  0  0  0
  5  1  1  0  0  0  0
  5 14  2  0  0  0  0
  6 15  1  0  0  0  0
  7 21  1  0  0  0  0
  8 14  1  0  0  0  0
  8 19  1  0  0  0  0
  9 22  2  0  0  0  0
  9  5  1  0  0  0  0
 10  8  2  0  0  0  0
 11  7  2  0  0  0  0
 13 17  1  0  0  0  0
 15 11  1  0  0  0  0
 17 11  1  0  0  0  0
 18  6  1  0  0  0  0
 18 12  1  0  0  0  0
 19 23  1  0  0  0  0
 20 13  2  0  0  0  0
 21  1  1  0  0  0  0
 22 10  1  0  0  0  0
 24 16  1  1  0  0  0
 24  4  1  0  0  0  0
 25 28  1  0  0  0  0
 26 28  1  0  0  0  0
 27 26  2  0  0  0  0
 28 13  1  6  0  0  0
 29 27  1  0  0  0  0
 29 25  2  0  0  0  0
 31 27  1  0  0  0  0
 31 30  1  0  0  0  0
 32 34  1  0  0  0  0
 33 35  1  0  0  0  0
 34 33  2  0  0  0  0
 35 36  1  0  0  0  0
 37 38  1  0  0  0  0
 38 36  1  0  0  0  0
M  END
>  <MODEL>
6

>  <REMARK>
 VINA RESULT:      -6.7      4.618      9.457
  Name = 
  7 active torsions:
  status: ('A' for Active; 'I' for Inactive)
    1  A    between atoms: C_5  and  C_10
    2  A    between atoms: C_6  and  C_19
    3  A    between atoms: C_10  and  C_32
    4  A    between atoms: N_12  and  N_14
    5  A    between atoms: N_12  and  C_31
    6  A    between atoms: C_13  and  C_24
    7  A    between atoms: C_31  and  N_37
                            x       y       z     vdW  Elec       q    Type
                         _______ _______ _______ _____ _____    ______ ____

>  <TORSDO>
F 7

$$$$
=
 OpenBabel11042410433D

 38 40  0  0  1  0  0  0  0  0999 V2000
  186.6010  178.4250  139.3400 C   0  0  0  0  0  0  0  0  0  0  0  0
  187.2260  178.5160  138.2120 N   0  0  0  0  0  2  0  0  0  0  0  0
  184.0320  178.5690  143.3400 C   0  0  1  0  0  3  0  0  0  0  0  0
  185.6620  179.5510  141.8110 O   0  0  0  0  0  0  0  0  0  0  0  0
  187.3610  178.2990  140.6000 C   0  0  0  0  0  0  0  0  0  0  0  0
  181.5300  178.4630  140.6620 C   0  0  0  0  0  2  0  0  0  0  0  0
  184.3510  179.1340  138.7670 N   0  0  0  0  0  0  0  0  0  0  0  0
  189.2610  177.4050  141.8010 C   0  0  0  0  0  0  0  0  0  0  0  0
  186.8390  178.7840  141.8150 C   0  0  0  0  0  0  0  0  0  0  0  0
  188.7190  177.8440  142.9710 N   0  0  0  0  0  0  0  0  0  0  0  0
  183.0520  179.1240  138.7680 C   0  0  0  0  0  0  0  0  0  0  0  0
  183.2440  178.0180  142.2990 O   0  0  0  0  0  0  0  0  0  0  0  0
  180.9640  180.2880  137.8500 C   0  0  0  0  0  0  0  0  0  0  0  0
  188.5860  177.6210  140.6000 C   0  0  0  0  0  3  0  0  0  0  0  0
  182.2980  177.9960  139.4280 C   0  0  0  0  0  2  0  0  0  0  0  0
  185.6030  180.2980  144.0210 O   0  0  0  0  0  1  0  0  0  0  0  0
  182.3620  180.2260  138.1630 N   0  0  0  0  0  2  0  0  0  0  0  0
  182.4450  179.0300  141.7370 C   0  0  0  0  0  2  0  0  0  0  0  0
  190.5060  176.7080  141.7920 N   0  0  0  0  0  2  0  0  0  0  0  0
  180.2370  179.2620  137.9340 O   0  0  0  0  0  0  0  0  0  0  0  0
  185.1530  178.0610  139.3380 C   0  0  0  0  0  2  0  0  0  0  0  0
  187.5410  178.5200  143.0010 C   0  0  0  0  0  3  0  0  0  0  0  0
  191.2550  176.4450  143.0100 C   0  0  0  0  0  1  0  0  0  0  0  0
  184.8430  179.8180  142.9510 C   0  0  2  0  0  3  0  0  0  0  0  0
  179.2280  181.6470  136.7320 C   0  0  0  0  0  3  0  0  0  0  0  0
  180.9720  182.8170  137.6250 N   0  0  0  0  0  0  0  0  0  0  0  0
  180.1930  183.6920  137.0880 C   0  0  0  0  0  0  0  0  0  0  0  0
  180.3710  181.5520  137.3970 C   0  0  2  0  0  3  0  0  0  0  0  0
  178.9810  183.0940  136.4590 C   0  0  0  0  0  3  0  0  0  0  0  0
  179.2250  185.9050  137.5900 C   0  0  0  0  0  1  0  0  0  0  0  0
  180.4650  185.1560  137.1380 C   0  0  0  0  0  2  0  0  0  0  0  0
  183.3010  178.6480  144.6880 C   0  0  0  0  0  2  0  0  0  0  0  0
  185.3450  177.9890  145.8030 N   0  0  0  0  0  0  0  0  0  0  0  0
  184.2170  178.6130  145.8690 C   0  0  0  0  0  3  0  0  0  0  0  0
  186.1940  177.9570  146.9130 N   0  0  0  0  0  2  0  0  0  0  0  0
  187.6020  177.6370  146.7520 C   0  0  0  0  0  2  0  0  0  0  0  0
  189.1490  178.1740  148.4230 C   0  0  0  0  0  1  0  0  0  0  0  0
  188.1590  177.1910  148.0180 N   0  0  0  0  0  2  0  0  0  0  0  0
  1  5  1  0  0  0  0
  2  1  2  0  0  0  0
  3 32  1  1  0  0  0
  4  9  1  0  0  0  0
  4 24  1  0  0  0  0
  5  9  1  0  0  0  0
  6 18  1  0  0  0  0
  7 11  2  0  0  0  0
  7 21  1  0  0  0  0
  8 10  2  0  0  0  0
  9 22  2  0  0  0  0
 10 22  1  0  0  0  0
 11 15  1  0  0  0  0
 12  3  1  0  0  0  0
 13 20  2  0  0  0  0
 13 17  1  0  0  0  0
 14  5  2  0  0  0  0
 14  8  1  0  0  0  0
 15  6  1  0  0  0  0
 17 11  1  0  0  0  0
 18 12  1  0  0  0  0
 19  8  1  0  0  0  0
 19 23  1  0  0  0  0
 21  1  1  0  0  0  0
 24  3  1  0  0  0  0
 24 16  1  1  0  0  0
 25 28  1  0  0  0  0
 27 31  1  0  0  0  0
 27 26  2  0  0  0  0
 28 26  1  0  0  0  0
 28 13  1  6  0  0  0
 29 25  2  0  0  0  0
 29 27  1  0  0  0  0
 31 30  1  0  0  0  0
 32 34  1  0  0  0  0
 33 34  2  0  0  0  0
 33 35  1  0  0  0  0
 36 35  1  0  0  0  0
 36 38  1  0  0  0  0
 38 37  1  0  0  0  0
M  END
>  <MODEL>
7

>  <REMARK>
 VINA RESULT:      -6.6      3.755      7.048
  Name = 
  7 active torsions:
  status: ('A' for Active; 'I' for Inactive)
    1  A    between atoms: C_5  and  C_10
    2  A    between atoms: C_6  and  C_19
    3  A    between atoms: C_10  and  C_32
    4  A    between atoms: N_12  and  N_14
    5  A    between atoms: N_12  and  C_31
    6  A    between atoms: C_13  and  C_24
    7  A    between atoms: C_31  and  N_37
                            x       y       z     vdW  Elec       q    Type
                         _______ _______ _______ _____ _____    ______ ____

>  <TORSDO>
F 7

$$$$
=
 OpenBabel11042410433D

 38 40  0  0  1  0  0  0  0  0999 V2000
  185.3870  176.1850  136.5690 C   0  0  0  0  0  0  0  0  0  0  0  0
  184.7580  175.7940  135.5090 N   0  0  0  0  0  2  0  0  0  0  0  0
  187.4830  178.1370  140.3660 C   0  0  1  0  0  3  0  0  0  0  0  0
  187.1240  178.0060  137.9550 O   0  0  0  0  0  0  0  0  0  0  0  0
  186.8360  175.9410  136.7030 C   0  0  0  0  0  0  0  0  0  0  0  0
  183.9050  178.7310  140.9040 C   0  0  0  0  0  2  0  0  0  0  0  0
  183.8150  177.7280  137.5890 N   0  0  0  0  0  0  0  0  0  0  0  0
  188.7440  174.4980  136.3370 C   0  0  0  0  0  0  0  0  0  0  0  0
  187.6530  176.8030  137.4600 C   0  0  0  0  0  0  0  0  0  0  0  0
  189.5060  175.3220  137.1080 N   0  0  0  0  0  0  0  0  0  0  0  0
  183.1450  178.3060  138.5410 C   0  0  0  0  0  0  0  0  0  0  0  0
  186.1340  177.8380  140.6800 O   0  0  0  0  0  0  0  0  0  0  0  0
  181.4100  180.1180  139.0570 C   0  0  0  0  0  0  0  0  0  0  0  0
  187.3970  174.7920  136.1300 C   0  0  0  0  0  3  0  0  0  0  0  0
  183.2020  177.7690  139.9490 C   0  0  0  0  0  2  0  0  0  0  0  0
  189.0510  179.0560  138.7480 O   0  0  0  0  0  1  0  0  0  0  0  0
  182.3910  179.4840  138.2240 N   0  0  0  0  0  2  0  0  0  0  0  0
  185.3500  178.9920  140.5070 C   0  0  0  0  0  2  0  0  0  0  0  0
  189.3050  173.3220  135.7530 N   0  0  0  0  0  2  0  0  0  0  0  0
  181.0020  179.5610  140.1110 O   0  0  0  0  0  0  0  0  0  0  0  0
  184.6020  176.5200  137.7940 C   0  0  0  0  0  2  0  0  0  0  0  0
  188.9950  176.4520  137.6640 C   0  0  0  0  0  3  0  0  0  0  0  0
  190.6990  172.9560  135.9380 C   0  0  0  0  0  1  0  0  0  0  0  0
  187.6990  178.8010  138.9940 C   0  0  2  0  0  3  0  0  0  0  0  0
  179.6440  181.8460  139.0100 C   0  0  0  0  0  3  0  0  0  0  0  0
  181.5560  182.3600  137.8760 N   0  0  0  0  0  0  0  0  0  0  0  0
  180.7680  183.3700  137.7240 C   0  0  0  0  0  0  0  0  0  0  0  0
  180.8520  181.4190  138.6690 C   0  0  2  0  0  3  0  0  0  0  0  0
  179.4600  183.2040  138.4190 C   0  0  0  0  0  3  0  0  0  0  0  0
  180.8530  184.4130  135.4900 C   0  0  0  0  0  1  0  0  0  0  0  0
  181.1570  184.5920  136.9660 C   0  0  0  0  0  2  0  0  0  0  0  0
  188.2630  178.7610  141.5320 C   0  0  0  0  0  2  0  0  0  0  0  0
  190.0050  178.0310  143.0440 N   0  0  0  0  0  0  0  0  0  0  0  0
  188.9020  177.7540  142.4320 C   0  0  0  0  0  3  0  0  0  0  0  0
  190.6000  177.0820  143.8800 N   0  0  0  0  0  2  0  0  0  0  0  0
  191.4090  177.5030  145.0110 C   0  0  0  0  0  2  0  0  0  0  0  0
  191.3470  176.6460  147.1870 C   0  0  0  0  0  1  0  0  0  0  0  0
  191.7620  176.3530  145.8260 N   0  0  0  0  0  2  0  0  0  0  0  0
  1  5  1  0  0  0  0
  1 21  1  0  0  0  0
  2  1  2  0  0  0  0
  3 12  1  0  0  0  0
  3 32  1  1  0  0  0
  4 24  1  0  0  0  0
  5  9  1  0  0  0  0
  7 21  1  0  0  0  0
  7 11  2  0  0  0  0
  8 10  2  0  0  0  0
  9 22  2  0  0  0  0
  9  4  1  0  0  0  0
 10 22  1  0  0  0  0
 11 15  1  0  0  0  0
 13 20  2  0  0  0  0
 14  8  1  0  0  0  0
 14  5  2  0  0  0  0
 15  6  1  0  0  0  0
 17 11  1  0  0  0  0
 17 13  1  0  0  0  0
 18 12  1  0  0  0  0
 18  6  1  0  0  0  0
 19 23  1  0  0  0  0
 19  8  1  0  0  0  0
 24 16  1  6  0  0  0
 24  3  1  0  0  0  0
 26 28  1  0  0  0  0
 27 26  2  0  0  0  0
 27 29  1  0  0  0  0
 28 25  1  0  0  0  0
 28 13  1  6  0  0  0
 29 25  2  0  0  0  0
 30 31  1  0  0  0  0
 31 27  1  0  0  0  0
 32 34  1  0  0  0  0
 33 35  1  0  0  0  0
 34 33  2  0  0  0  0
 35 36  1  0  0  0  0
 36 38  1  0  0  0  0
 38 37  1  0  0  0  0
M  END
>  <MODEL>
8

>  <REMARK>
 VINA RESULT:      -6.5      3.789      7.717
  Name = 
  7 active torsions:
  status: ('A' for Active; 'I' for Inactive)
    1  A    between atoms: C_5  and  C_10
    2  A    between atoms: C_6  and  C_19
    3  A    between atoms: C_10  and  C_32
    4  A    between atoms: N_12  and  N_14
    5  A    between atoms: N_12  and  C_31
    6  A    between atoms: C_13  and  C_24
    7  A    between atoms: C_31  and  N_37
                            x       y       z     vdW  Elec       q    Type
                         _______ _______ _______ _____ _____    ______ ____

>  <TORSDO>
F 7

$$$$
=
 OpenBabel11042410433D

 38 40  0  0  1  0  0  0  0  0999 V2000
  184.1850  174.3790  136.3120 C   0  0  0  0  0  0  0  0  0  0  0  0
  183.1340  173.7220  135.9430 N   0  0  0  0  0  2  0  0  0  0  0  0
  187.7990  177.2530  137.4520 C   0  0  1  0  0  3  0  0  0  0  0  0
  186.3330  176.2160  135.7980 O   0  0  0  0  0  0  0  0  0  0  0  0
  185.5270  173.9230  135.8980 C   0  0  0  0  0  0  0  0  0  0  0  0
  184.9030  178.7250  139.1510 C   0  0  0  0  0  2  0  0  0  0  0  0
  183.2590  176.4880  137.0790 N   0  0  0  0  0  0  0  0  0  0  0  0
  187.0580  172.1050  135.4480 C   0  0  0  0  0  0  0  0  0  0  0  0
  186.5870  174.8360  135.7360 C   0  0  0  0  0  0  0  0  0  0  0  0
  188.0780  173.0010  135.3370 N   0  0  0  0  0  0  0  0  0  0  0  0
  183.1140  177.5290  137.8430 C   0  0  0  0  0  0  0  0  0  0  0  0
  186.7720  177.3890  138.4190 O   0  0  0  0  0  0  0  0  0  0  0  0
  181.7990  179.7020  138.1660 C   0  0  0  0  0  0  0  0  0  0  0  0
  185.7700  172.5540  135.7370 C   0  0  0  0  0  3  0  0  0  0  0  0
  183.8500  177.6200  139.1570 C   0  0  0  0  0  2  0  0  0  0  0  0
  188.3810  177.0860  135.0950 O   0  0  0  0  0  1  0  0  0  0  0  0
  182.2740  178.5970  137.3850 N   0  0  0  0  0  2  0  0  0  0  0  0
  185.9750  178.5020  138.0960 C   0  0  0  0  0  2  0  0  0  0  0  0
  187.2970  170.7070  135.2900 N   0  0  0  0  0  2  0  0  0  0  0  0
  181.9560  179.7240  139.4160 O   0  0  0  0  0  0  0  0  0  0  0  0
  184.0750  175.3400  137.4490 C   0  0  0  0  0  2  0  0  0  0  0  0
  187.8710  174.3370  135.4720 C   0  0  0  0  0  3  0  0  0  0  0  0
  188.6170  170.1750  134.9960 C   0  0  0  0  0  1  0  0  0  0  0  0
  187.3180  177.2340  135.9900 C   0  0  2  0  0  3  0  0  0  0  0  0
  180.2830  180.6720  136.4730 C   0  0  0  0  0  3  0  0  0  0  0  0
  181.2150  182.1620  137.9300 N   0  0  0  0  0  0  0  0  0  0  0  0
  180.4760  182.8560  137.1330 C   0  0  0  0  0  0  0  0  0  0  0  0
  181.0940  180.8110  137.5120 C   0  0  2  0  0  3  0  0  0  0  0  0
  179.7740  182.0280  136.1110 C   0  0  0  0  0  3  0  0  0  0  0  0
  180.8080  185.0250  136.0060 C   0  0  0  0  0  1  0  0  0  0  0  0
  180.3130  184.3310  137.2610 C   0  0  0  0  0  2  0  0  0  0  0  0
  189.0280  178.1300  137.7320 C   0  0  0  0  0  2  0  0  0  0  0  0
  190.0760  176.6550  139.3380 N   0  0  0  0  0  0  0  0  0  0  0  0
  189.6770  177.8480  139.0480 C   0  0  0  0  0  3  0  0  0  0  0  0
  190.6790  176.3990  140.5740 N   0  0  0  0  0  2  0  0  0  0  0  0
  190.0040  176.7590  141.8090 C   0  0  0  0  0  2  0  0  0  0  0  0
  191.3010  176.0600  143.6260 C   0  0  0  0  0  1  0  0  0  0  0  0
  190.1670  175.7010  142.7920 N   0  0  0  0  0  2  0  0  0  0  0  0
  1 21  1  0  0  0  0
  2  1  2  0  0  0  0
  3 32  1  6  0  0  0
  3 12  1  0  0  0  0
  4 24  1  0  0  0  0
  5  1  1  0  0  0  0
  6 15  1  0  0  0  0
  7 21  1  0  0  0  0
  7 11  2  0  0  0  0
  8 14  1  0  0  0  0
  9  4  1  0  0  0  0
  9  5  1  0  0  0  0
 10  8  2  0  0  0  0
 10 22  1  0  0  0  0
 11 15  1  0  0  0  0
 13 20  2  0  0  0  0
 14  5  2  0  0  0  0
 17 11  1  0  0  0  0
 17 13  1  0  0  0  0
 18 12  1  0  0  0  0
 18  6  1  0  0  0  0
 19  8  1  0  0  0  0
 22  9  2  0  0  0  0
 23 19  1  0  0  0  0
 24 16  1  6  0  0  0
 24  3  1  0  0  0  0
 25 28  1  0  0  0  0
 27 31  1  0  0  0  0
 27 26  2  0  0  0  0
 28 26  1  0  0  0  0
 28 13  1  6  0  0  0
 29 25  2  0  0  0  0
 29 27  1  0  0  0  0
 30 31  1  0  0  0  0
 32 34  1  0  0  0  0
 33 35  1  0  0  0  0
 34 33  2  0  0  0  0
 35 36  1  0  0  0  0
 36 38  1  0  0  0  0
 38 37  1  0  0  0  0
M  END
>  <MODEL>
9

>  <REMARK>
 VINA RESULT:      -6.4      4.244      8.240
  Name = 
  7 active torsions:
  status: ('A' for Active; 'I' for Inactive)
    1  A    between atoms: C_5  and  C_10
    2  A    between atoms: C_6  and  C_19
    3  A    between atoms: C_10  and  C_32
    4  A    between atoms: N_12  and  N_14
    5  A    between atoms: N_12  and  C_31
    6  A    between atoms: C_13  and  C_24
    7  A    between atoms: C_31  and  N_37
                            x       y       z     vdW  Elec       q    Type
                         _______ _______ _______ _____ _____    ______ ____

>  <TORSDO>
F 7

$$$$
