=
 OpenBabel11042410103D

 62 71  0  0  1  0  0  0  0  0999 V2000
  182.9990  177.2580  135.9850 C   0  0  0  0  0  2  0  0  0  0  0  0
  182.5140  179.4620  138.7160 C   0  0  2  0  0  0  0  0  0  0  0  0
  184.9310  179.3740  138.3860 O   0  0  0  0  0  0  0  0  0  0  0  0
  180.1390  180.9500  139.3180 C   0  0  2  0  0  3  0  0  0  0  0  0
  178.9310  181.6060  139.0850 O   0  0  0  0  0  1  0  0  0  0  0  0
  181.1510  181.3570  138.2700 C   0  0  0  0  0  2  0  0  0  0  0  0
  182.2950  177.2630  137.3430 C   0  0  1  0  0  3  0  0  0  0  0  0
  185.8380  178.3420  138.0620 C   0  0  0  0  0  2  0  0  0  0  0  0
  184.3410  177.9700  136.0420 C   0  0  0  0  0  2  0  0  0  0  0  0
  185.2350  177.3170  137.1030 C   0  0  1  0  0  3  0  0  0  0  0  0
  181.7320  178.6470  137.6750 C   0  0  1  0  0  3  0  0  0  0  0  0
  179.9390  179.4530  139.1930 C   0  0  0  0  0  2  0  0  0  0  0  0
  182.4260  180.8870  138.6380 O   0  0  0  0  0  0  0  0  0  0  0  0
  183.8760  178.9710  139.2540 C   0  0  2  0  0  3  0  0  0  0  0  0
  181.2620  178.6740  139.1410 C   0  0  2  0  0  3  0  0  0  0  0  0
  186.2980  176.3420  136.5840 C   0  0  1  0  0  3  0  0  0  0  0  0
  187.4660  176.2600  137.5350 C   0  0  1  0  0  3  0  0  0  0  0  0
  187.1970  174.9170  137.8550 O   0  0  0  0  0  0  0  0  0  0  0  0
  186.0720  174.9130  137.0120 C   0  0  0  0  0  2  0  0  0  0  0  0
  188.7220  176.6430  135.3530 C   0  0  0  0  0  1  0  0  0  0  0  0
  189.5290  177.6730  137.4310 C   0  0  0  0  0  1  0  0  0  0  0  0
  188.8470  176.4350  136.8600 C   0  0  0  0  0  0  0  0  0  0  0  0
  194.2900  175.9940  137.2580 O   0  0  0  0  0  0  0  0  0  0  0  0
  193.4010  173.7420  137.3520 C   0  0  0  0  0  2  0  0  0  0  0  0
  192.4110  174.4210  136.4020 C   0  0  1  0  0  3  0  0  0  0  0  0
  191.2380  173.4870  136.1050 C   0  0  0  0  0  2  0  0  0  0  0  0
  190.9570  175.5490  137.8210 O   0  0  0  0  0  0  0  0  0  0  0  0
  189.9650  174.2980  135.9110 C   0  0  0  0  0  2  0  0  0  0  0  0
  194.3870  174.7640  137.9290 C   0  0  0  0  0  2  0  0  0  0  0  0
  193.0160  176.4970  137.5730 C   0  0  0  0  0  2  0  0  0  0  0  0
  191.9460  175.7410  136.9000 N   0  0  1  0  0  0  0  0  0  0  0  0
  189.7570  175.2190  137.1310 C   0  0  2  0  0  3  0  0  0  0  0  0
  180.4930  174.0810  137.8770 N   0  0  0  0  0  2  0  0  0  0  0  0
  181.2450  176.2500  137.3640 N   0  0  0  0  0  2  0  0  0  0  0  0
  181.4610  174.9330  137.8660 C   0  0  0  0  0  3  0  0  0  0  0  0
  183.9200  177.5730  139.8960 C   0  0  0  0  0  2  0  0  0  0  0  0
  183.6140  177.6740  141.3750 C   0  0  1  0  0  3  0  0  0  0  0  0
  184.6780  178.5250  142.0480 C   0  0  1  0  0  3  0  0  0  0  0  0
  183.3200  179.1170  141.7250 C   0  0  0  0  0  2  0  0  0  0  0  0
  183.8410  179.0310  144.2160 C   0  0  0  0  0  1  0  0  0  0  0  0
  184.7440  178.1620  143.4680 N   0  0  0  0  0  0  0  0  0  0  0  0
  186.0990  178.2090  144.0790 C   0  0  2  0  0  3  0  0  0  0  0  0
  186.6110  176.8170  144.4640 C   0  0  2  0  0  3  0  0  0  0  0  0
  186.1570  177.7990  145.5520 C   0  0  1  0  0  3  0  0  0  0  0  0
  188.1350  176.7030  144.3100 C   0  0  0  0  0  2  0  0  0  0  0  0
  188.5560  176.0000  143.0230 C   0  0  0  0  0  2  0  0  0  0  0  0
  189.9080  175.3260  143.1740 C   0  0  0  0  0  2  0  0  0  0  0  0
  190.8440  176.3340  147.2780 C   0  0  0  0  0  1  0  0  0  0  0  0
  190.4480  176.7820  145.9480 N   0  0  0  0  0  0  0  0  0  0  0  0
  190.4250  177.7610  143.2620 C   0  0  2  0  0  3  0  0  0  0  0  0
  192.0850  179.3970  143.9410 O   0  0  0  0  0  1  0  0  0  0  0  0
  191.0130  178.6210  144.3930 C   0  0  2  0  0  3  0  0  0  0  0  0
  192.4290  175.4500  145.3380 O   0  0  0  0  0  1  0  0  0  0  0  0
  191.4180  176.3290  144.9240 C   0  0  2  0  0  0  0  0  0  0  0  0
  191.5320  177.6700  145.4690 C   0  0  2  0  0  3  0  0  0  0  0  0
  190.9800  176.3690  143.4700 C   0  0  1  0  0  3  0  0  0  0  0  0
  191.8160  177.4140  141.2200 C   0  0  0  0  0  1  0  0  0  0  0  0
  190.7350  178.2640  141.8570 C   0  0  0  0  0  2  0  0  0  0  0  0
  187.2790  178.5660  146.2460 C   0  0  0  0  0  2  0  0  0  0  0  0
  186.0330  179.7470  148.0920 N   0  0  0  0  0  1  0  0  0  0  0  0
  186.9670  178.7510  147.6930 C   0  0  0  0  0  0  0  0  0  0  0  0
  187.5480  178.0540  148.5640 O   0  0  0  0  0  0  0  0  0  0  0  0
  1  9  1  0  0  0  0
  1  7  1  0  0  0  0
  2 13  1  6  0  0  0
  2 15  1  0  0  0  0
  2 14  1  0  0  0  0
  3 14  1  0  0  0  0
  4  5  1  6  0  0  0
  6 13  1  0  0  0  0
  6  4  1  0  0  0  0
  7 34  1  6  0  0  0
  7 11  1  0  0  0  0
  8  3  1  0  0  0  0
 10  9  1  6  0  0  0
 10  8  1  0  0  0  0
 11  2  1  0  0  0  0
 11 15  1  0  0  0  0
 12  4  1  0  0  0  0
 14 36  1  0  0  0  0
 15 12  1  0  0  0  0
 16 19  1  0  0  0  0
 16 10  1  0  0  0  0
 16 17  1  0  0  0  0
 17 18  1  0  0  0  0
 19 18  1  0  0  0  0
 20 22  1  0  0  0  0
 22 32  1  0  0  0  0
 22 21  1  0  0  0  0
 22 17  1  0  0  0  0
 23 30  1  0  0  0  0
 23 29  1  0  0  0  0
 24 29  1  0  0  0  0
 25 31  1  0  0  0  0
 25 24  1  0  0  0  0
 26 25  1  0  0  0  0
 28 26  1  0  0  0  0
 28 32  1  0  0  0  0
 31 30  1  0  0  0  0
 31 27  1  0  0  0  0
 32 27  1  0  0  0  0
 34 35  1  0  0  0  0
 35 33  2  0  0  0  0
 36 37  1  0  0  0  0
 37 39  1  0  0  0  0
 37 38  1  0  0  0  0
 38 41  1  0  0  0  0
 39 38  1  0  0  0  0
 41 42  1  0  0  0  0
 41 40  1  0  0  0  0
 42 43  1  0  0  0  0
 42 44  1  0  0  0  0
 43 44  1  0  0  0  0
 44 59  1  0  0  0  0
 45 43  1  0  0  0  0
 46 47  1  0  0  0  0
 46 45  1  0  0  0  0
 47 56  1  0  0  0  0
 49 48  1  0  0  0  0
 50 56  1  0  0  0  0
 50 52  1  0  0  0  0
 51 52  1  0  0  0  0
 52 55  1  0  0  0  0
 54 53  1  0  0  0  0
 54 55  1  0  0  0  0
 54 49  1  0  0  0  0
 55 49  1  0  0  0  0
 56 54  1  0  0  0  0
 57 58  1  0  0  0  0
 58 50  1  0  0  0  0
 59 61  1  0  0  0  0
 61 60  1  0  0  0  0
 61 62  2  0  0  0  0
M  END
>  <MODEL>
1

>  <REMARK>
 VINA RESULT:      -7.6      0.000      0.000
  Name = 
  15 active torsions:
  status: ('A' for Active; 'I' for Inactive)
    1  A    between atoms: C_4  and  C_33
    2  A    between atoms: C_7  and  C_37
    3  A    between atoms: C_8  and  N_27
    4  A    between atoms: C_13  and  N_27
    5  A    between atoms: C_18  and  C_22
    6  A    between atoms: C_22  and  C_26
    7  A    between atoms: C_25  and  C_55
    8  A    between atoms: C_26  and  C_60
    9  A    between atoms: C_28  and  C_37
   10  A    between atoms: C_30  and  N_41
   11  A    between atoms: C_33  and  C_49
   12  A    between atoms: C_34  and  C_45
   13  A    between atoms: C_47  and  C_51
   14  A    between atoms: C_51  and  C_59
   15  A    between atoms: C_60  and  C_62
                            x       y       z     vdW  Elec       q    Type
                         _______ _______ _______ _____ _____    ______ ____

>  <TORSDO>
F 15

$$$$
=
 OpenBabel11042410103D

 62 71  0  0  1  0  0  0  0  0999 V2000
  182.2830  177.3640  135.4190 C   0  0  0  0  0  2  0  0  0  0  0  0
  182.1690  179.4370  138.2900 C   0  0  2  0  0  0  0  0  0  0  0  0
  184.5180  178.8300  138.0320 O   0  0  0  0  0  0  0  0  0  0  0  0
  180.1570  181.3780  138.9240 C   0  0  2  0  0  3  0  0  0  0  0  0
  179.1370  182.3030  138.7030 O   0  0  0  0  0  1  0  0  0  0  0  0
  181.2830  181.6150  137.9430 C   0  0  0  0  0  2  0  0  0  0  0  0
  181.5330  177.4380  136.7510 C   0  0  1  0  0  3  0  0  0  0  0  0
  185.1880  177.6440  137.6610 C   0  0  0  0  0  2  0  0  0  0  0  0
  183.7450  177.7510  135.5720 C   0  0  0  0  0  2  0  0  0  0  0  0
  184.4210  176.8450  136.6110 C   0  0  1  0  0  3  0  0  0  0  0  0
  181.2760  178.8880  137.1670 C   0  0  1  0  0  3  0  0  0  0  0  0
  179.6350  179.9750  138.6820 C   0  0  0  0  0  2  0  0  0  0  0  0
  182.4030  180.8470  138.3160 O   0  0  0  0  0  0  0  0  0  0  0  0
  183.3600  178.6190  138.8340 C   0  0  2  0  0  3  0  0  0  0  0  0
  180.7540  178.9240  138.6150 C   0  0  2  0  0  3  0  0  0  0  0  0
  185.2640  175.6920  136.0550 C   0  0  1  0  0  3  0  0  0  0  0  0
  186.6080  175.6290  136.7370 C   0  0  1  0  0  3  0  0  0  0  0  0
  186.3200  174.3870  137.3330 O   0  0  0  0  0  0  0  0  0  0  0  0
  185.0360  174.3790  136.7600 C   0  0  0  0  0  2  0  0  0  0  0  0
  187.6380  174.4280  134.7420 C   0  0  0  0  0  1  0  0  0  0  0  0
  187.9160  176.8550  134.9920 C   0  0  0  0  0  1  0  0  0  0  0  0
  187.8100  175.5470  135.7670 C   0  0  0  0  0  0  0  0  0  0  0  0
  189.9820  178.1850  140.0450 O   0  0  0  0  0  0  0  0  0  0  0  0
  191.6520  176.6030  139.2820 C   0  0  0  0  0  2  0  0  0  0  0  0
  190.9780  176.9950  137.9640 C   0  0  1  0  0  3  0  0  0  0  0  0
  191.4890  176.1100  136.8270 C   0  0  0  0  0  2  0  0  0  0  0  0
  189.0530  175.6950  137.9100 O   0  0  0  0  0  0  0  0  0  0  0  0
  190.3790  175.8800  135.8110 C   0  0  0  0  0  2  0  0  0  0  0  0
  190.9160  177.2280  140.4730 C   0  0  0  0  0  2  0  0  0  0  0  0
  188.9990  177.4660  139.3440 C   0  0  0  0  0  2  0  0  0  0  0  0
  189.4950  176.9790  138.0450 N   0  0  1  0  0  0  0  0  0  0  0  0
  189.1310  175.3350  136.5340 C   0  0  2  0  0  3  0  0  0  0  0  0
  178.9310  175.0680  135.6240 N   0  0  0  0  0  2  0  0  0  0  0  0
  180.2850  176.6880  136.6620 N   0  0  0  0  0  2  0  0  0  0  0  0
  180.0460  175.7160  135.6460 C   0  0  0  0  0  3  0  0  0  0  0  0
  183.0620  177.2070  139.3710 C   0  0  0  0  0  2  0  0  0  0  0  0
  182.7750  177.2690  140.8560 C   0  0  1  0  0  3  0  0  0  0  0  0
  183.5170  178.4510  141.4580 C   0  0  1  0  0  3  0  0  0  0  0  0
  182.0330  178.5520  141.1650 C   0  0  0  0  0  2  0  0  0  0  0  0
  182.6330  178.7890  143.6400 C   0  0  0  0  0  1  0  0  0  0  0  0
  183.7330  178.1960  142.8860 N   0  0  0  0  0  0  0  0  0  0  0  0
  185.0290  178.6760  143.4350 C   0  0  2  0  0  3  0  0  0  0  0  0
  186.1620  177.6690  143.2150 C   0  0  2  0  0  3  0  0  0  0  0  0
  185.5690  177.8670  144.6160 C   0  0  1  0  0  3  0  0  0  0  0  0
  187.5140  178.3650  142.9960 C   0  0  0  0  0  2  0  0  0  0  0  0
  188.6800  177.6270  143.6450 C   0  0  0  0  0  2  0  0  0  0  0  0
  188.5330  177.5710  145.1550 C   0  0  0  0  0  2  0  0  0  0  0  0
  191.9030  175.2150  143.8040 C   0  0  0  0  0  1  0  0  0  0  0  0
  191.0530  175.6490  144.9060 N   0  0  0  0  0  0  0  0  0  0  0  0
  189.9300  177.0290  147.1450 C   0  0  2  0  0  3  0  0  0  0  0  0
  192.1710  177.1590  148.0710 O   0  0  0  0  0  1  0  0  0  0  0  0
  191.3320  176.4030  147.2460 C   0  0  2  0  0  3  0  0  0  0  0  0
  191.6240  177.8510  143.9640 O   0  0  0  0  0  1  0  0  0  0  0  0
  191.0090  177.1260  144.9930 C   0  0  2  0  0  0  0  0  0  0  0  0
  191.9300  176.3900  145.8410 C   0  0  2  0  0  3  0  0  0  0  0  0
  189.8950  177.7510  145.8170 C   0  0  1  0  0  3  0  0  0  0  0  0
  188.1860  177.6640  148.8110 C   0  0  0  0  0  1  0  0  0  0  0  0
  189.5740  177.9720  148.2860 C   0  0  0  0  0  2  0  0  0  0  0  0
  186.3650  178.7870  145.5370 C   0  0  0  0  0  2  0  0  0  0  0  0
  185.9470  180.2330  147.5580 N   0  0  0  0  0  1  0  0  0  0  0  0
  185.5720  179.1220  146.7540 C   0  0  0  0  0  0  0  0  0  0  0  0
  184.5920  178.4090  147.0910 O   0  0  0  0  0  0  0  0  0  0  0  0
  1  9  1  0  0  0  0
  1  7  1  0  0  0  0
  2 13  1  1  0  0  0
  2 15  1  0  0  0  0
  2 14  1  0  0  0  0
  3 14  1  0  0  0  0
  4  5  1  6  0  0  0
  6 13  1  0  0  0  0
  6  4  1  0  0  0  0
  7 34  1  6  0  0  0
  7 11  1  0  0  0  0
  8  3  1  0  0  0  0
 10  9  1  6  0  0  0
 10  8  1  0  0  0  0
 11  2  1  0  0  0  0
 11 15  1  0  0  0  0
 12  4  1  0  0  0  0
 14 36  1  0  0  0  0
 15 12  1  0  0  0  0
 16 10  1  0  0  0  0
 16 17  1  0  0  0  0
 16 19  1  0  0  0  0
 17 18  1  0  0  0  0
 19 18  1  0  0  0  0
 20 22  1  0  0  0  0
 21 22  1  0  0  0  0
 22 32  1  0  0  0  0
 22 17  1  0  0  0  0
 23 29  1  0  0  0  0
 24 29  1  0  0  0  0
 25 31  1  0  0  0  0
 25 24  1  0  0  0  0
 26 25  1  0  0  0  0
 27 31  1  0  0  0  0
 28 32  1  0  0  0  0
 28 26  1  0  0  0  0
 30 23  1  0  0  0  0
 31 30  1  0  0  0  0
 32 27  1  0  0  0  0
 33 35  2  0  0  0  0
 35 34  1  0  0  0  0
 36 37  1  0  0  0  0
 37 39  1  0  0  0  0
 37 38  1  0  0  0  0
 38 41  1  0  0  0  0
 39 38  1  0  0  0  0
 41 42  1  0  0  0  0
 41 40  1  0  0  0  0
 42 44  1  0  0  0  0
 43 42  1  0  0  0  0
 43 44  1  0  0  0  0
 44 59  1  0  0  0  0
 45 43  1  0  0  0  0
 45 46  1  0  0  0  0
 46 47  1  0  0  0  0
 47 56  1  0  0  0  0
 48 49  1  0  0  0  0
 49 54  1  0  0  0  0
 49 55  1  0  0  0  0
 50 52  1  0  0  0  0
 50 58  1  0  0  0  0
 52 51  1  0  0  0  0
 53 54  1  0  0  0  0
 54 56  1  0  0  0  0
 54 55  1  0  0  0  0
 55 52  1  0  0  0  0
 56 50  1  0  0  0  0
 58 57  1  0  0  0  0
 59 61  1  0  0  0  0
 61 62  2  0  0  0  0
 61 60  1  0  0  0  0
M  END
>  <MODEL>
2

>  <REMARK>
 VINA RESULT:      -7.6      1.692      2.629
  Name = 
  15 active torsions:
  status: ('A' for Active; 'I' for Inactive)
    1  A    between atoms: C_4  and  C_33
    2  A    between atoms: C_7  and  C_37
    3  A    between atoms: C_8  and  N_27
    4  A    between atoms: C_13  and  N_27
    5  A    between atoms: C_18  and  C_22
    6  A    between atoms: C_22  and  C_26
    7  A    between atoms: C_25  and  C_55
    8  A    between atoms: C_26  and  C_60
    9  A    between atoms: C_28  and  C_37
   10  A    between atoms: C_30  and  N_41
   11  A    between atoms: C_33  and  C_49
   12  A    between atoms: C_34  and  C_45
   13  A    between atoms: C_47  and  C_51
   14  A    between atoms: C_51  and  C_59
   15  A    between atoms: C_60  and  C_62
                            x       y       z     vdW  Elec       q    Type
                         _______ _______ _______ _____ _____    ______ ____

>  <TORSDO>
F 15

$$$$
=
 OpenBabel11042410103D

 62 71  0  0  1  0  0  0  0  0999 V2000
  181.0370  175.1470  136.9440 C   0  0  0  0  0  2  0  0  0  0  0  0
  181.9120  178.5620  137.2920 C   0  0  2  0  0  0  0  0  0  0  0  0
  183.7170  177.5690  135.9830 O   0  0  0  0  0  0  0  0  0  0  0  0
  180.1280  180.7440  137.8140 C   0  0  2  0  0  3  0  0  0  0  0  0
  178.9310  181.4580  137.8370 O   0  0  0  0  0  1  0  0  0  0  0  0
  180.3220  180.1150  136.4520 C   0  0  0  0  0  2  0  0  0  0  0  0
  181.2220  176.1750  138.0610 C   0  0  1  0  0  3  0  0  0  0  0  0
  184.4010  176.3350  136.0360 C   0  0  0  0  0  2  0  0  0  0  0  0
  182.0850  175.3040  135.8530 C   0  0  0  0  0  2  0  0  0  0  0  0
  183.4910  175.1830  136.4560 C   0  0  1  0  0  3  0  0  0  0  0  0
  180.7840  177.5710  137.6140 C   0  0  1  0  0  3  0  0  0  0  0  0
  180.0710  179.6190  138.8270 C   0  0  0  0  0  2  0  0  0  0  0  0
  181.6290  179.6010  136.3520 O   0  0  0  0  0  0  0  0  0  0  0  0
  183.3880  178.1080  137.2600 C   0  0  2  0  0  3  0  0  0  0  0  0
  181.2180  178.6090  138.6660 C   0  0  2  0  0  3  0  0  0  0  0  0
  184.1850  173.8270  136.2830 C   0  0  1  0  0  3  0  0  0  0  0  0
  185.5240  173.8150  136.9780 C   0  0  1  0  0  3  0  0  0  0  0  0
  185.1040  172.8480  137.9100 O   0  0  0  0  0  0  0  0  0  0  0  0
  183.8180  172.8180  137.3420 C   0  0  0  0  0  2  0  0  0  0  0  0
  187.4550  172.1680  136.7650 C   0  0  0  0  0  1  0  0  0  0  0  0
  186.1310  172.7710  134.7860 C   0  0  0  0  0  1  0  0  0  0  0  0
  186.6910  173.3090  136.0970 C   0  0  0  0  0  0  0  0  0  0  0  0
  192.1490  173.3900  135.6700 O   0  0  0  0  0  0  0  0  0  0  0  0
  191.4020  175.6860  135.4670 C   0  0  0  0  0  2  0  0  0  0  0  0
  190.3760  175.1170  136.4500 C   0  0  1  0  0  3  0  0  0  0  0  0
  189.2640  176.1360  136.7030 C   0  0  0  0  0  2  0  0  0  0  0  0
  188.8480  174.0130  135.0910 O   0  0  0  0  0  0  0  0  0  0  0  0
  187.9440  175.4160  136.9380 C   0  0  0  0  0  2  0  0  0  0  0  0
  192.3200  174.5770  134.9400 C   0  0  0  0  0  2  0  0  0  0  0  0
  190.8450  172.9530  135.3830 C   0  0  0  0  0  2  0  0  0  0  0  0
  189.8260  173.8060  136.0190 N   0  0  1  0  0  0  0  0  0  0  0  0
  187.6730  174.4520  135.7660 C   0  0  2  0  0  3  0  0  0  0  0  0
  179.3690  174.1000  140.4940 N   0  0  0  0  0  2  0  0  0  0  0  0
  180.4930  175.7510  139.2520 N   0  0  0  0  0  2  0  0  0  0  0  0
  179.9910  174.4270  139.4130 C   0  0  0  0  0  3  0  0  0  0  0  0
  183.9500  177.4390  138.5280 C   0  0  0  0  0  2  0  0  0  0  0  0
  183.7770  178.3600  139.7170 C   0  0  1  0  0  3  0  0  0  0  0  0
  184.6060  177.8360  140.8780 C   0  0  1  0  0  3  0  0  0  0  0  0
  185.1090  179.0000  140.0470 C   0  0  0  0  0  2  0  0  0  0  0  0
  183.0500  179.3670  141.8220 C   0  0  0  0  0  1  0  0  0  0  0  0
  184.0240  178.3260  142.1330 N   0  0  0  0  0  0  0  0  0  0  0  0
  184.9970  178.8370  143.1350 C   0  0  2  0  0  3  0  0  0  0  0  0
  185.8460  177.7160  143.7440 C   0  0  2  0  0  3  0  0  0  0  0  0
  184.7400  178.3830  144.5730 C   0  0  1  0  0  3  0  0  0  0  0  0
  187.2660  178.1930  144.0840 C   0  0  0  0  0  2  0  0  0  0  0  0
  188.2460  177.0450  144.3040 C   0  0  0  0  0  2  0  0  0  0  0  0
  188.2790  176.1040  143.1120 C   0  0  0  0  0  2  0  0  0  0  0  0
  191.7610  177.1670  145.4520 C   0  0  0  0  0  1  0  0  0  0  0  0
  190.9270  177.4160  144.2820 N   0  0  0  0  0  0  0  0  0  0  0  0
  189.7970  177.4370  141.6550 C   0  0  2  0  0  3  0  0  0  0  0  0
  192.0590  177.5850  140.7830 O   0  0  0  0  0  1  0  0  0  0  0  0
  191.2470  177.9020  141.8770 C   0  0  2  0  0  3  0  0  0  0  0  0
  191.2840  174.9960  143.9990 O   0  0  0  0  0  1  0  0  0  0  0  0
  190.7720  176.1880  143.4690 C   0  0  2  0  0  0  0  0  0  0  0  0
  191.7830  177.1620  143.1000 C   0  0  2  0  0  3  0  0  0  0  0  0
  189.6490  176.1560  142.4460 C   0  0  1  0  0  3  0  0  0  0  0  0
  188.7390  178.4570  139.6400 C   0  0  0  0  0  1  0  0  0  0  0  0
  189.4180  177.2210  140.1960 C   0  0  0  0  0  2  0  0  0  0  0  0
  185.2130  179.4680  145.5370 C   0  0  0  0  0  2  0  0  0  0  0  0
  186.2330  179.5460  147.8400 N   0  0  0  0  0  1  0  0  0  0  0  0
  185.3580  178.9150  146.9140 C   0  0  0  0  0  0  0  0  0  0  0  0
  184.7360  177.8740  147.2510 O   0  0  0  0  0  0  0  0  0  0  0  0
  1  7  1  0  0  0  0
  2 13  1  6  0  0  0
  2 11  1  0  0  0  0
  2 15  1  0  0  0  0
  3  8  1  0  0  0  0
  3 14  1  0  0  0  0
  4  5  1  6  0  0  0
  4 12  1  0  0  0  0
  6  4  1  0  0  0  0
  7 34  1  1  0  0  0
  8 10  1  0  0  0  0
  9  1  1  0  0  0  0
 10  9  1  6  0  0  0
 11  7  1  0  0  0  0
 11 15  1  0  0  0  0
 13  6  1  0  0  0  0
 14  2  1  0  0  0  0
 14 36  1  0  0  0  0
 15 12  1  0  0  0  0
 16 10  1  0  0  0  0
 16 17  1  0  0  0  0
 16 19  1  0  0  0  0
 17 18  1  0  0  0  0
 19 18  1  0  0  0  0
 21 22  1  0  0  0  0
 22 20  1  0  0  0  0
 22 17  1  0  0  0  0
 24 25  1  0  0  0  0
 25 26  1  0  0  0  0
 26 28  1  0  0  0  0
 27 32  1  0  0  0  0
 27 31  1  0  0  0  0
 29 24  1  0  0  0  0
 29 23  1  0  0  0  0
 30 23  1  0  0  0  0
 30 31  1  0  0  0  0
 31 25  1  0  0  0  0
 32 22  1  0  0  0  0
 32 28  1  0  0  0  0
 34 35  1  0  0  0  0
 35 33  2  0  0  0  0
 36 37  1  0  0  0  0
 37 39  1  0  0  0  0
 37 38  1  0  0  0  0
 38 41  1  0  0  0  0
 39 38  1  0  0  0  0
 40 41  1  0  0  0  0
 41 42  1  0  0  0  0
 42 43  1  0  0  0  0
 42 44  1  0  0  0  0
 43 45  1  0  0  0  0
 43 44  1  0  0  0  0
 44 59  1  0  0  0  0
 45 46  1  0  0  0  0
 47 46  1  0  0  0  0
 49 48  1  0  0  0  0
 50 52  1  0  0  0  0
 50 56  1  0  0  0  0
 51 52  1  0  0  0  0
 52 55  1  0  0  0  0
 54 53  1  0  0  0  0
 54 49  1  0  0  0  0
 55 54  1  0  0  0  0
 55 49  1  0  0  0  0
 56 47  1  0  0  0  0
 56 54  1  0  0  0  0
 57 58  1  0  0  0  0
 58 50  1  0  0  0  0
 59 61  1  0  0  0  0
 61 62  2  0  0  0  0
 61 60  1  0  0  0  0
M  END
>  <MODEL>
3

>  <REMARK>
 VINA RESULT:      -7.2      1.893      2.704
  Name = 
  15 active torsions:
  status: ('A' for Active; 'I' for Inactive)
    1  A    between atoms: C_4  and  C_33
    2  A    between atoms: C_7  and  C_37
    3  A    between atoms: C_8  and  N_27
    4  A    between atoms: C_13  and  N_27
    5  A    between atoms: C_18  and  C_22
    6  A    between atoms: C_22  and  C_26
    7  A    between atoms: C_25  and  C_55
    8  A    between atoms: C_26  and  C_60
    9  A    between atoms: C_28  and  C_37
   10  A    between atoms: C_30  and  N_41
   11  A    between atoms: C_33  and  C_49
   12  A    between atoms: C_34  and  C_45
   13  A    between atoms: C_47  and  C_51
   14  A    between atoms: C_51  and  C_59
   15  A    between atoms: C_60  and  C_62
                            x       y       z     vdW  Elec       q    Type
                         _______ _______ _______ _____ _____    ______ ____

>  <TORSDO>
F 15

$$$$
=
 OpenBabel11042410103D

 62 71  0  0  1  0  0  0  0  0999 V2000
  189.9880  173.5090  134.9270 C   0  0  0  0  0  2  0  0  0  0  0  0
  188.6520  176.5740  136.0980 C   0  0  2  0  0  0  0  0  0  0  0  0
  191.0750  176.8650  136.1650 O   0  0  0  0  0  0  0  0  0  0  0  0
  186.0360  177.6190  135.5670 C   0  0  2  0  0  3  0  0  0  0  0  0
  184.8350  177.8120  134.8860 O   0  0  0  0  0  1  0  0  0  0  0  0
  187.1920  177.6940  134.5940 C   0  0  0  0  0  2  0  0  0  0  0  0
  189.0120  174.0000  135.9980 C   0  0  1  0  0  3  0  0  0  0  0  0
  192.1520  176.0240  136.5200 C   0  0  0  0  0  2  0  0  0  0  0  0
  191.1860  174.4350  134.7880 C   0  0  0  0  0  2  0  0  0  0  0  0
  191.9040  174.5670  136.1380 C   0  0  1  0  0  3  0  0  0  0  0  0
  188.2220  175.2190  135.5170 C   0  0  1  0  0  3  0  0  0  0  0  0
  186.0560  176.2360  136.1860 C   0  0  0  0  0  2  0  0  0  0  0  0
  188.4060  177.7390  135.3070 O   0  0  0  0  0  0  0  0  0  0  0  0
  189.9160  176.7000  136.9770 C   0  0  2  0  0  3  0  0  0  0  0  0
  187.4460  175.8290  136.6990 C   0  0  2  0  0  3  0  0  0  0  0  0
  193.1680  173.7170  136.3170 C   0  0  1  0  0  3  0  0  0  0  0  0
  194.2810  174.5280  136.9330 C   0  0  1  0  0  3  0  0  0  0  0  0
  194.2760  173.7600  138.1120 O   0  0  0  0  0  0  0  0  0  0  0  0
  193.2170  172.9720  137.6270 C   0  0  0  0  0  2  0  0  0  0  0  0
  195.5590  173.4470  135.0140 C   0  0  0  0  0  1  0  0  0  0  0  0
  195.9700  175.7980  135.5930 C   0  0  0  0  0  1  0  0  0  0  0  0
  195.6280  174.4330  136.1780 C   0  0  0  0  0  0  0  0  0  0  0  0
  197.1710  176.3770  141.0580 O   0  0  0  0  0  0  0  0  0  0  0  0
  198.8340  174.7400  140.4040 C   0  0  0  0  0  2  0  0  0  0  0  0
  198.4410  175.3350  139.0490 C   0  0  1  0  0  3  0  0  0  0  0  0
  199.0840  174.5360  137.9150 C   0  0  0  0  0  2  0  0  0  0  0  0
  196.4700  174.2310  138.5040 O   0  0  0  0  0  0  0  0  0  0  0  0
  198.1640  174.5210  136.7030 C   0  0  0  0  0  2  0  0  0  0  0  0
  197.9410  175.2970  141.5190 C   0  0  0  0  0  2  0  0  0  0  0  0
  196.2830  175.8330  140.1150 C   0  0  0  0  0  2  0  0  0  0  0  0
  196.9700  175.4460  138.8710 N   0  0  1  0  0  0  0  0  0  0  0  0
  196.7700  174.0180  137.1290 C   0  0  2  0  0  3  0  0  0  0  0  0
  186.1450  171.6700  136.0920 N   0  0  0  0  0  2  0  0  0  0  0  0
  188.1180  172.9160  136.3900 N   0  0  0  0  0  2  0  0  0  0  0  0
  186.8900  172.6530  135.7150 C   0  0  0  0  0  3  0  0  0  0  0  0
  189.9950  175.8140  138.2340 C   0  0  0  0  0  2  0  0  0  0  0  0
  189.6190  176.6200  139.4580 C   0  0  1  0  0  3  0  0  0  0  0  0
  190.8540  177.3290  139.9880 C   0  0  1  0  0  3  0  0  0  0  0  0
  189.8300  178.0900  139.1700 C   0  0  0  0  0  2  0  0  0  0  0  0
  191.7430  176.9640  142.1630 C   0  0  0  0  0  1  0  0  0  0  0  0
  190.6660  177.6050  141.4160 N   0  0  0  0  0  0  0  0  0  0  0  0
  189.3540  177.1940  141.9810 C   0  0  2  0  0  3  0  0  0  0  0  0
  188.4000  178.3800  142.1590 C   0  0  2  0  0  3  0  0  0  0  0  0
  189.0590  177.7300  143.3830 C   0  0  1  0  0  3  0  0  0  0  0  0
  186.9340  177.9760  141.9400 C   0  0  0  0  0  2  0  0  0  0  0  0
  186.0090  179.1700  141.7270 C   0  0  0  0  0  2  0  0  0  0  0  0
  184.8960  178.8450  140.7470 C   0  0  0  0  0  2  0  0  0  0  0  0
  180.9240  179.0320  139.0380 C   0  0  0  0  0  1  0  0  0  0  0  0
  181.8000  179.2840  140.1760 N   0  0  0  0  0  0  0  0  0  0  0  0
  183.2720  179.0880  142.6190 C   0  0  2  0  0  3  0  0  0  0  0  0
  181.2820  178.1370  143.6350 O   0  0  0  0  0  1  0  0  0  0  0  0
  181.7370  179.0010  142.6330 C   0  0  2  0  0  3  0  0  0  0  0  0
  182.3680  176.9240  139.7630 O   0  0  0  0  0  1  0  0  0  0  0  0
  182.5100  178.0500  140.5840 C   0  0  2  0  0  0  0  0  0  0  0  0
  181.2980  178.4380  141.2830 C   0  0  2  0  0  3  0  0  0  0  0  0
  183.7270  178.2010  141.4830 C   0  0  1  0  0  3  0  0  0  0  0  0
  184.5940  179.8830  144.5800 C   0  0  0  0  0  1  0  0  0  0  0  0
  183.9410  178.6810  143.9260 C   0  0  0  0  0  2  0  0  0  0  0  0
  188.1890  176.7270  144.1350 C   0  0  0  0  0  2  0  0  0  0  0  0
  189.1010  177.2040  146.4360 N   0  0  0  0  0  1  0  0  0  0  0  0
  187.9910  177.1640  145.5480 C   0  0  0  0  0  0  0  0  0  0  0  0
  186.8430  177.4640  145.9660 O   0  0  0  0  0  0  0  0  0  0  0  0
  1  7  1  0  0  0  0
  2 13  1  6  0  0  0
  2 15  1  0  0  0  0
  2 14  1  0  0  0  0
  3  8  1  0  0  0  0
  3 14  1  0  0  0  0
  4  5  1  6  0  0  0
  4 12  1  0  0  0  0
  6 13  1  0  0  0  0
  6  4  1  0  0  0  0
  7 34  1  6  0  0  0
  9  1  1  0  0  0  0
 10  9  1  6  0  0  0
 10 16  1  0  0  0  0
 10  8  1  0  0  0  0
 11  7  1  0  0  0  0
 11  2  1  0  0  0  0
 11 15  1  0  0  0  0
 12 15  1  0  0  0  0
 14 36  1  0  0  0  0
 16 17  1  0  0  0  0
 16 19  1  0  0  0  0
 17 18  1  0  0  0  0
 19 18  1  0  0  0  0
 20 22  1  0  0  0  0
 21 22  1  0  0  0  0
 22 17  1  0  0  0  0
 22 32  1  0  0  0  0
 23 29  1  0  0  0  0
 24 29  1  0  0  0  0
 25 24  1  0  0  0  0
 26 25  1  0  0  0  0
 27 31  1  0  0  0  0
 28 32  1  0  0  0  0
 28 26  1  0  0  0  0
 30 23  1  0  0  0  0
 31 25  1  0  0  0  0
 31 30  1  0  0  0  0
 32 27  1  0  0  0  0
 35 33  2  0  0  0  0
 35 34  1  0  0  0  0
 36 37  1  0  0  0  0
 37 38  1  0  0  0  0
 38 41  1  0  0  0  0
 39 37  1  0  0  0  0
 39 38  1  0  0  0  0
 41 42  1  0  0  0  0
 41 40  1  0  0  0  0
 42 43  1  0  0  0  0
 42 44  1  0  0  0  0
 43 44  1  0  0  0  0
 44 59  1  0  0  0  0
 45 43  1  0  0  0  0
 46 45  1  0  0  0  0
 47 56  1  0  0  0  0
 47 46  1  0  0  0  0
 48 49  1  0  0  0  0
 49 54  1  0  0  0  0
 49 55  1  0  0  0  0
 50 52  1  0  0  0  0
 50 58  1  0  0  0  0
 52 51  1  0  0  0  0
 53 54  1  0  0  0  0
 54 55  1  0  0  0  0
 54 56  1  0  0  0  0
 55 52  1  0  0  0  0
 56 50  1  0  0  0  0
 58 57  1  0  0  0  0
 59 61  1  0  0  0  0
 61 62  2  0  0  0  0
 61 60  1  0  0  0  0
M  END
>  <MODEL>
4

>  <REMARK>
 VINA RESULT:      -6.4      2.809      7.271
  Name = 
  15 active torsions:
  status: ('A' for Active; 'I' for Inactive)
    1  A    between atoms: C_4  and  C_33
    2  A    between atoms: C_7  and  C_37
    3  A    between atoms: C_8  and  N_27
    4  A    between atoms: C_13  and  N_27
    5  A    between atoms: C_18  and  C_22
    6  A    between atoms: C_22  and  C_26
    7  A    between atoms: C_25  and  C_55
    8  A    between atoms: C_26  and  C_60
    9  A    between atoms: C_28  and  C_37
   10  A    between atoms: C_30  and  N_41
   11  A    between atoms: C_33  and  C_49
   12  A    between atoms: C_34  and  C_45
   13  A    between atoms: C_47  and  C_51
   14  A    between atoms: C_51  and  C_59
   15  A    between atoms: C_60  and  C_62
                            x       y       z     vdW  Elec       q    Type
                         _______ _______ _______ _____ _____    ______ ____

>  <TORSDO>
F 15

$$$$
=
 OpenBabel11042410103D

 62 71  0  0  1  0  0  0  0  0999 V2000
  182.5560  177.3490  135.6610 C   0  0  0  0  0  2  0  0  0  0  0  0
  182.3790  179.5540  138.4280 C   0  0  2  0  0  0  0  0  0  0  0  0
  184.7360  178.9510  138.2400 O   0  0  0  0  0  0  0  0  0  0  0  0
  180.3440  181.5080  138.9350 C   0  0  2  0  0  3  0  0  0  0  0  0
  179.3230  182.4150  138.6520 O   0  0  0  0  0  1  0  0  0  0  0  0
  181.4870  181.7070  137.9630 C   0  0  0  0  0  2  0  0  0  0  0  0
  181.7830  177.4810  136.9740 C   0  0  1  0  0  3  0  0  0  0  0  0
  185.4200  177.7530  137.9380 C   0  0  0  0  0  2  0  0  0  0  0  0
  184.0130  177.7520  135.8210 C   0  0  0  0  0  2  0  0  0  0  0  0
  184.6750  176.9010  136.9130 C   0  0  1  0  0  3  0  0  0  0  0  0
  181.5090  178.9470  137.3170 C   0  0  1  0  0  3  0  0  0  0  0  0
  179.8360  180.0930  138.7500 C   0  0  0  0  0  2  0  0  0  0  0  0
  182.6040  180.9650  138.3920 O   0  0  0  0  0  0  0  0  0  0  0  0
  183.5650  178.7700  139.0310 C   0  0  2  0  0  3  0  0  0  0  0  0
  180.9610  179.0470  138.7520 C   0  0  2  0  0  3  0  0  0  0  0  0
  185.5360  175.7290  136.4260 C   0  0  1  0  0  3  0  0  0  0  0  0
  186.8880  175.7390  137.0940 C   0  0  1  0  0  3  0  0  0  0  0  0
  186.6320  174.5360  137.7780 O   0  0  0  0  0  0  0  0  0  0  0  0
  185.3420  174.4630  137.2230 C   0  0  0  0  0  2  0  0  0  0  0  0
  187.8100  174.5870  135.0190 C   0  0  0  0  0  1  0  0  0  0  0  0
  188.3070  176.9560  135.4310 C   0  0  0  0  0  1  0  0  0  0  0  0
  188.0800  175.6130  136.1160 C   0  0  0  0  0  0  0  0  0  0  0  0
  193.3390  175.8460  134.6100 O   0  0  0  0  0  0  0  0  0  0  0  0
  193.2800  174.7310  136.7600 C   0  0  0  0  0  2  0  0  0  0  0  0
  191.9680  174.2530  136.1330 C   0  0  1  0  0  3  0  0  0  0  0  0
  191.1380  173.4860  137.1630 C   0  0  0  0  0  2  0  0  0  0  0  0
  190.5000  176.0190  136.4900 O   0  0  0  0  0  0  0  0  0  0  0  0
  189.6550  173.7150  136.9090 C   0  0  0  0  0  2  0  0  0  0  0  0
  193.9570  175.7780  135.8690 C   0  0  0  0  0  2  0  0  0  0  0  0
  192.0480  176.3480  134.8480 C   0  0  0  0  0  2  0  0  0  0  0  0
  191.1870  175.3550  135.5150 N   0  0  1  0  0  0  0  0  0  0  0  0
  189.3740  175.2300  136.8630 C   0  0  2  0  0  3  0  0  0  0  0  0
  179.1780  174.9360  137.6060 N   0  0  0  0  0  2  0  0  0  0  0  0
  180.5410  176.7180  136.8990 N   0  0  0  0  0  2  0  0  0  0  0  0
  180.3010  175.5630  137.7000 C   0  0  0  0  0  3  0  0  0  0  0  0
  183.2660  177.3830  139.6280 C   0  0  0  0  0  2  0  0  0  0  0  0
  182.9030  177.5190  141.0910 C   0  0  1  0  0  3  0  0  0  0  0  0
  183.7920  178.5740  141.7300 C   0  0  1  0  0  3  0  0  0  0  0  0
  182.3650  178.9110  141.3430 C   0  0  0  0  0  2  0  0  0  0  0  0
  182.9010  179.1560  143.8570 C   0  0  0  0  0  1  0  0  0  0  0  0
  183.8750  178.3130  143.1710 N   0  0  0  0  0  0  0  0  0  0  0  0
  185.2170  178.5040  143.7820 C   0  0  2  0  0  3  0  0  0  0  0  0
  185.6840  177.2680  144.5570 C   0  0  2  0  0  3  0  0  0  0  0  0
  185.2330  178.5250  145.3110 C   0  0  1  0  0  3  0  0  0  0  0  0
  187.2080  177.0860  144.4830 C   0  0  0  0  0  2  0  0  0  0  0  0
  187.6300  175.9270  143.5860 C   0  0  0  0  0  2  0  0  0  0  0  0
  189.1420  175.8230  143.4840 C   0  0  0  0  0  2  0  0  0  0  0  0
  191.6520  177.1690  140.2260 C   0  0  0  0  0  1  0  0  0  0  0  0
  191.4910  176.9380  141.6560 N   0  0  0  0  0  0  0  0  0  0  0  0
  190.9640  177.2180  144.4520 C   0  0  2  0  0  3  0  0  0  0  0  0
  192.0500  179.3870  144.3460 O   0  0  0  0  0  1  0  0  0  0  0  0
  192.0130  178.1140  143.7700 C   0  0  2  0  0  3  0  0  0  0  0  0
  189.4540  178.2580  141.2430 O   0  0  0  0  0  1  0  0  0  0  0  0
  190.2970  177.6420  142.1770 C   0  0  2  0  0  0  0  0  0  0  0  0
  191.6030  178.2640  142.3070 C   0  0  2  0  0  3  0  0  0  0  0  0
  189.7630  177.2150  143.5340 C   0  0  1  0  0  3  0  0  0  0  0  0
  190.1970  176.4580  146.7010 C   0  0  0  0  0  1  0  0  0  0  0  0
  190.5730  177.6600  145.8570 C   0  0  0  0  0  2  0  0  0  0  0  0
  186.3600  179.4350  145.7920 C   0  0  0  0  0  2  0  0  0  0  0  0
  186.0350  180.2680  148.1480 N   0  0  0  0  0  1  0  0  0  0  0  0
  186.5590  179.2870  147.2630 C   0  0  0  0  0  0  0  0  0  0  0  0
  187.2150  178.3160  147.7210 O   0  0  0  0  0  0  0  0  0  0  0  0
  1  9  1  0  0  0  0
  1  7  1  0  0  0  0
  2 13  1  6  0  0  0
  2 15  1  0  0  0  0
  2 14  1  0  0  0  0
  3 14  1  0  0  0  0
  4  5  1  6  0  0  0
  6 13  1  0  0  0  0
  6  4  1  0  0  0  0
  7 34  1  6  0  0  0
  7 11  1  0  0  0  0
  8  3  1  0  0  0  0
 10  9  1  6  0  0  0
 10  8  1  0  0  0  0
 11  2  1  0  0  0  0
 11 15  1  0  0  0  0
 12 15  1  0  0  0  0
 12  4  1  0  0  0  0
 14 36  1  0  0  0  0
 16 10  1  0  0  0  0
 16 17  1  0  0  0  0
 16 19  1  0  0  0  0
 17 18  1  0  0  0  0
 19 18  1  0  0  0  0
 20 22  1  0  0  0  0
 21 22  1  0  0  0  0
 22 32  1  0  0  0  0
 22 17  1  0  0  0  0
 23 30  1  0  0  0  0
 23 29  1  0  0  0  0
 25 24  1  0  0  0  0
 25 26  1  0  0  0  0
 27 32  1  0  0  0  0
 28 26  1  0  0  0  0
 29 24  1  0  0  0  0
 30 31  1  0  0  0  0
 31 25  1  0  0  0  0
 31 27  1  0  0  0  0
 32 28  1  0  0  0  0
 33 35  2  0  0  0  0
 34 35  1  0  0  0  0
 36 37  1  0  0  0  0
 37 39  1  0  0  0  0
 37 38  1  0  0  0  0
 38 41  1  0  0  0  0
 39 38  1  0  0  0  0
 41 42  1  0  0  0  0
 41 40  1  0  0  0  0
 42 43  1  0  0  0  0
 42 44  1  0  0  0  0
 43 44  1  0  0  0  0
 44 59  1  0  0  0  0
 45 43  1  0  0  0  0
 46 45  1  0  0  0  0
 47 56  1  0  0  0  0
 47 46  1  0  0  0  0
 48 49  1  0  0  0  0
 49 54  1  0  0  0  0
 49 55  1  0  0  0  0
 50 58  1  0  0  0  0
 52 51  1  0  0  0  0
 52 50  1  0  0  0  0
 53 54  1  0  0  0  0
 54 55  1  0  0  0  0
 54 56  1  0  0  0  0
 55 52  1  0  0  0  0
 56 50  1  0  0  0  0
 58 57  1  0  0  0  0
 59 61  1  0  0  0  0
 61 62  2  0  0  0  0
 61 60  1  0  0  0  0
M  END
>  <MODEL>
5

>  <REMARK>
 VINA RESULT:      -6.3      1.308      2.025
  Name = 
  15 active torsions:
  status: ('A' for Active; 'I' for Inactive)
    1  A    between atoms: C_4  and  C_33
    2  A    between atoms: C_7  and  C_37
    3  A    between atoms: C_8  and  N_27
    4  A    between atoms: C_13  and  N_27
    5  A    between atoms: C_18  and  C_22
    6  A    between atoms: C_22  and  C_26
    7  A    between atoms: C_25  and  C_55
    8  A    between atoms: C_26  and  C_60
    9  A    between atoms: C_28  and  C_37
   10  A    between atoms: C_30  and  N_41
   11  A    between atoms: C_33  and  C_49
   12  A    between atoms: C_34  and  C_45
   13  A    between atoms: C_47  and  C_51
   14  A    between atoms: C_51  and  C_59
   15  A    between atoms: C_60  and  C_62
                            x       y       z     vdW  Elec       q    Type
                         _______ _______ _______ _____ _____    ______ ____

>  <TORSDO>
F 15

$$$$
=
 OpenBabel11042410103D

 62 71  0  0  1  0  0  0  0  0999 V2000
  189.6050  173.4870  134.9690 C   0  0  0  0  0  2  0  0  0  0  0  0
  188.7010  176.5360  136.5280 C   0  0  2  0  0  0  0  0  0  0  0  0
  191.0850  176.7450  136.0500 O   0  0  0  0  0  0  0  0  0  0  0  0
  186.0790  177.6890  136.6490 C   0  0  2  0  0  3  0  0  0  0  0  0
  184.7630  177.9510  136.2690 O   0  0  0  0  0  1  0  0  0  0  0  0
  186.9860  177.7710  135.4410 C   0  0  0  0  0  2  0  0  0  0  0  0
  188.9200  173.9590  136.2520 C   0  0  1  0  0  3  0  0  0  0  0  0
  192.1790  175.8540  136.1170 C   0  0  0  0  0  2  0  0  0  0  0  0
  190.7790  174.3780  134.5940 C   0  0  0  0  0  2  0  0  0  0  0  0
  191.7900  174.4250  135.7480 C   0  0  1  0  0  3  0  0  0  0  0  0
  188.0930  175.2240  136.0110 C   0  0  1  0  0  3  0  0  0  0  0  0
  186.1810  176.2790  137.1950 C   0  0  0  0  0  2  0  0  0  0  0  0
  188.3310  177.7430  135.8580 O   0  0  0  0  0  0  0  0  0  0  0  0
  190.1360  176.5810  137.0990 C   0  0  2  0  0  3  0  0  0  0  0  0
  187.6330  175.8040  137.3610 C   0  0  2  0  0  3  0  0  0  0  0  0
  193.0240  173.5270  135.6010 C   0  0  1  0  0  3  0  0  0  0  0  0
  194.0840  173.8980  136.6080 C   0  0  1  0  0  3  0  0  0  0  0  0
  193.9660  172.6700  137.2840 O   0  0  0  0  0  0  0  0  0  0  0  0
  192.9480  172.2540  136.4070 C   0  0  0  0  0  2  0  0  0  0  0  0
  195.6830  173.2870  134.7230 C   0  0  0  0  0  1  0  0  0  0  0  0
  195.6740  175.5670  135.6350 C   0  0  0  0  0  1  0  0  0  0  0  0
  195.4930  174.0990  136.0020 C   0  0  0  0  0  0  0  0  0  0  0  0
  196.9510  176.3270  140.7860 O   0  0  0  0  0  0  0  0  0  0  0  0
  198.5820  174.6040  140.2960 C   0  0  0  0  0  2  0  0  0  0  0  0
  198.2460  175.1150  138.8920 C   0  0  1  0  0  3  0  0  0  0  0  0
  198.8980  174.2220  137.8350 C   0  0  0  0  0  2  0  0  0  0  0  0
  196.2600  174.0320  138.3610 O   0  0  0  0  0  0  0  0  0  0  0  0
  198.0140  174.1510  136.5990 C   0  0  0  0  0  2  0  0  0  0  0  0
  197.6740  175.2600  141.3420 C   0  0  0  0  0  2  0  0  0  0  0  0
  196.0740  175.7450  139.8540 C   0  0  0  0  0  2  0  0  0  0  0  0
  196.7860  175.2550  138.6610 N   0  0  1  0  0  0  0  0  0  0  0  0
  196.5930  173.7170  137.0130 C   0  0  2  0  0  3  0  0  0  0  0  0
  186.0610  171.7070  136.8970 N   0  0  0  0  0  2  0  0  0  0  0  0
  188.0940  172.8880  136.7990 N   0  0  0  0  0  2  0  0  0  0  0  0
  186.7420  172.6810  136.3950 C   0  0  0  0  0  3  0  0  0  0  0  0
  190.4610  175.6360  138.2700 C   0  0  0  0  0  2  0  0  0  0  0  0
  190.3580  176.3850  139.5810 C   0  0  1  0  0  3  0  0  0  0  0  0
  191.4990  177.3850  139.6750 C   0  0  1  0  0  3  0  0  0  0  0  0
  190.1060  177.8500  139.2990 C   0  0  0  0  0  2  0  0  0  0  0  0
  193.1910  177.9060  141.2630 C   0  0  0  0  0  1  0  0  0  0  0  0
  191.7610  177.6710  141.0890 N   0  0  0  0  0  0  0  0  0  0  0  0
  191.3070  176.6310  142.0500 C   0  0  2  0  0  3  0  0  0  0  0  0
  189.9630  176.9830  142.6950 C   0  0  2  0  0  3  0  0  0  0  0  0
  191.2580  177.0800  143.5120 C   0  0  1  0  0  3  0  0  0  0  0  0
  189.1220  175.7310  142.9880 C   0  0  0  0  0  2  0  0  0  0  0  0
  187.6480  176.0420  143.2260 C   0  0  0  0  0  2  0  0  0  0  0  0
  187.4500  177.4710  143.7000 C   0  0  0  0  0  2  0  0  0  0  0  0
  184.3270  180.4570  143.9510 C   0  0  0  0  0  1  0  0  0  0  0  0
  185.4850  179.8170  144.5620 N   0  0  0  0  0  0  0  0  0  0  0  0
  187.2170  178.1320  146.0900 C   0  0  2  0  0  3  0  0  0  0  0  0
  185.6480  178.3420  147.9310 O   0  0  0  0  0  1  0  0  0  0  0  0
  186.1500  178.9860  146.7960 C   0  0  2  0  0  3  0  0  0  0  0  0
  184.1600  177.8080  144.0390 O   0  0  0  0  0  1  0  0  0  0  0  0
  185.2920  178.3520  144.6600 C   0  0  2  0  0  0  0  0  0  0  0  0
  185.0000  179.1860  145.8120 C   0  0  2  0  0  3  0  0  0  0  0  0
  186.5210  177.4940  144.9100 C   0  0  1  0  0  3  0  0  0  0  0  0
  188.6490  177.7320  148.0940 C   0  0  0  0  0  1  0  0  0  0  0  0
  187.8670  177.0750  146.9740 C   0  0  0  0  0  2  0  0  0  0  0  0
  191.5480  175.8860  144.4170 C   0  0  0  0  0  2  0  0  0  0  0  0
  191.7040  177.7080  146.1520 N   0  0  0  0  0  1  0  0  0  0  0  0
  191.6430  176.3220  145.8400 C   0  0  0  0  0  0  0  0  0  0  0  0
  191.7020  175.4700  146.7640 O   0  0  0  0  0  0  0  0  0  0  0  0
  1  7  1  0  0  0  0
  2 13  1  6  0  0  0
  2 14  1  0  0  0  0
  2 15  1  0  0  0  0
  3  8  1  0  0  0  0
  3 14  1  0  0  0  0
  4  5  1  6  0  0  0
  4 12  1  0  0  0  0
  6 13  1  0  0  0  0
  6  4  1  0  0  0  0
  7 34  1  6  0  0  0
  9  1  1  0  0  0  0
 10  9  1  6  0  0  0
 10  8  1  0  0  0  0
 11  7  1  0  0  0  0
 11  2  1  0  0  0  0
 11 15  1  0  0  0  0
 12 15  1  0  0  0  0
 14 36  1  0  0  0  0
 16 10  1  0  0  0  0
 16 19  1  0  0  0  0
 16 17  1  0  0  0  0
 17 18  1  0  0  0  0
 19 18  1  0  0  0  0
 20 22  1  0  0  0  0
 21 22  1  0  0  0  0
 22 17  1  0  0  0  0
 22 32  1  0  0  0  0
 23 29  1  0  0  0  0
 24 29  1  0  0  0  0
 25 24  1  0  0  0  0
 26 25  1  0  0  0  0
 27 31  1  0  0  0  0
 28 32  1  0  0  0  0
 28 26  1  0  0  0  0
 30 23  1  0  0  0  0
 31 25  1  0  0  0  0
 31 30  1  0  0  0  0
 32 27  1  0  0  0  0
 35 34  1  0  0  0  0
 35 33  2  0  0  0  0
 36 37  1  0  0  0  0
 37 38  1  0  0  0  0
 38 41  1  0  0  0  0
 39 37  1  0  0  0  0
 39 38  1  0  0  0  0
 41 40  1  0  0  0  0
 41 42  1  0  0  0  0
 42 43  1  0  0  0  0
 42 44  1  0  0  0  0
 43 45  1  0  0  0  0
 43 44  1  0  0  0  0
 44 59  1  0  0  0  0
 45 46  1  0  0  0  0
 46 47  1  0  0  0  0
 47 56  1  0  0  0  0
 48 49  1  0  0  0  0
 49 54  1  0  0  0  0
 49 55  1  0  0  0  0
 50 52  1  0  0  0  0
 50 58  1  0  0  0  0
 52 51  1  0  0  0  0
 53 54  1  0  0  0  0
 54 56  1  0  0  0  0
 54 55  1  0  0  0  0
 55 52  1  0  0  0  0
 56 50  1  0  0  0  0
 58 57  1  0  0  0  0
 59 61  1  0  0  0  0
 61 60  1  0  0  0  0
 61 62  2  0  0  0  0
M  END
>  <MODEL>
6

>  <REMARK>
 VINA RESULT:      -5.7      3.136      6.648
  Name = 
  15 active torsions:
  status: ('A' for Active; 'I' for Inactive)
    1  A    between atoms: C_4  and  C_33
    2  A    between atoms: C_7  and  C_37
    3  A    between atoms: C_8  and  N_27
    4  A    between atoms: C_13  and  N_27
    5  A    between atoms: C_18  and  C_22
    6  A    between atoms: C_22  and  C_26
    7  A    between atoms: C_25  and  C_55
    8  A    between atoms: C_26  and  C_60
    9  A    between atoms: C_28  and  C_37
   10  A    between atoms: C_30  and  N_41
   11  A    between atoms: C_33  and  C_49
   12  A    between atoms: C_34  and  C_45
   13  A    between atoms: C_47  and  C_51
   14  A    between atoms: C_51  and  C_59
   15  A    between atoms: C_60  and  C_62
                            x       y       z     vdW  Elec       q    Type
                         _______ _______ _______ _____ _____    ______ ____

>  <TORSDO>
F 15

$$$$
=
 OpenBabel11042410103D

 62 71  0  0  1  0  0  0  0  0999 V2000
  188.4850  174.8150  134.7290 C   0  0  0  0  0  2  0  0  0  0  0  0
  187.1090  177.1670  136.9920 C   0  0  2  0  0  0  0  0  0  0  0  0
  189.4000  177.9140  136.6080 O   0  0  0  0  0  0  0  0  0  0  0  0
  184.3290  177.7600  137.3690 C   0  0  2  0  0  3  0  0  0  0  0  0
  182.9760  177.8670  137.0520 O   0  0  0  0  0  1  0  0  0  0  0  0
  185.1650  178.3020  136.2300 C   0  0  0  0  0  2  0  0  0  0  0  0
  187.7720  174.8220  136.0820 C   0  0  1  0  0  3  0  0  0  0  0  0
  190.6360  177.2480  136.4630 C   0  0  0  0  0  2  0  0  0  0  0  0
  189.4680  175.9680  134.6030 C   0  0  0  0  0  2  0  0  0  0  0  0
  190.4940  175.9090  135.7430 C   0  0  1  0  0  3  0  0  0  0  0  0
  186.7260  175.9370  136.1570 C   0  0  1  0  0  3  0  0  0  0  0  0
  184.6990  176.3010  137.5450 C   0  0  0  0  0  2  0  0  0  0  0  0
  186.5070  178.4150  136.6420 O   0  0  0  0  0  0  0  0  0  0  0  0
  188.5310  177.3270  137.5720 C   0  0  2  0  0  3  0  0  0  0  0  0
  186.2170  176.0700  137.6030 C   0  0  2  0  0  3  0  0  0  0  0  0
  191.8620  175.3140  135.3890 C   0  0  1  0  0  3  0  0  0  0  0  0
  192.3820  174.4530  136.5130 C   0  0  1  0  0  3  0  0  0  0  0  0
  192.3000  173.2790  135.7400 O   0  0  0  0  0  0  0  0  0  0  0  0
  191.7800  174.0010  134.6510 C   0  0  0  0  0  2  0  0  0  0  0  0
  194.0260  176.2550  137.2430 C   0  0  0  0  0  1  0  0  0  0  0  0
  194.1640  174.0030  138.2110 C   0  0  0  0  0  1  0  0  0  0  0  0
  193.8350  174.7720  136.9370 C   0  0  0  0  0  0  0  0  0  0  0  0
  197.5410  170.7430  136.7950 O   0  0  0  0  0  0  0  0  0  0  0  0
  197.8670  172.0590  134.7870 C   0  0  0  0  0  2  0  0  0  0  0  0
  197.4360  173.1330  135.7900 C   0  0  1  0  0  3  0  0  0  0  0  0
  197.2130  174.4660  135.0730 C   0  0  0  0  0  2  0  0  0  0  0  0
  195.1210  172.9490  135.8470 O   0  0  0  0  0  0  0  0  0  0  0  0
  196.0930  175.2390  135.7530 C   0  0  0  0  0  2  0  0  0  0  0  0
  197.7620  170.6630  135.4110 C   0  0  0  0  0  2  0  0  0  0  0  0
  196.2620  171.3070  136.9420 C   0  0  0  0  0  2  0  0  0  0  0  0
  196.2470  172.7370  136.5870 N   0  0  1  0  0  0  0  0  0  0  0  0
  194.8400  174.3450  135.8470 C   0  0  2  0  0  3  0  0  0  0  0  0
  185.5780  171.8580  135.8300 N   0  0  0  0  0  2  0  0  0  0  0  0
  187.1680  173.5180  136.3330 N   0  0  0  0  0  2  0  0  0  0  0  0
  186.0630  173.0270  135.5780 C   0  0  0  0  0  3  0  0  0  0  0  0
  189.0590  176.1950  138.4730 C   0  0  0  0  0  2  0  0  0  0  0  0
  189.4770  176.7560  139.8150 C   0  0  1  0  0  3  0  0  0  0  0  0
  190.7050  177.6320  139.6290 C   0  0  1  0  0  3  0  0  0  0  0  0
  189.3360  178.2620  139.7900 C   0  0  0  0  0  2  0  0  0  0  0  0
  192.8600  177.4960  140.6260 C   0  0  0  0  0  1  0  0  0  0  0  0
  191.4390  177.6910  140.8970 N   0  0  0  0  0  0  0  0  0  0  0  0
  190.9960  176.7310  141.9420 C   0  0  2  0  0  3  0  0  0  0  0  0
  189.6300  177.1000  142.5290 C   0  0  2  0  0  3  0  0  0  0  0  0
  190.9050  177.3100  143.3550 C   0  0  1  0  0  3  0  0  0  0  0  0
  188.8180  175.8560  142.9220 C   0  0  0  0  0  2  0  0  0  0  0  0
  187.6610  176.1690  143.8650 C   0  0  0  0  0  2  0  0  0  0  0  0
  187.3180  177.6490  143.8530 C   0  0  0  0  0  2  0  0  0  0  0  0
  184.9210  179.3930  140.7000 C   0  0  0  0  0  1  0  0  0  0  0  0
  185.3500  179.4180  142.0930 N   0  0  0  0  0  0  0  0  0  0  0  0
  185.5590  179.0510  144.9210 C   0  0  2  0  0  3  0  0  0  0  0  0
  183.1660  179.4420  145.0570 O   0  0  0  0  0  1  0  0  0  0  0  0
  184.3190  179.7350  144.3200 C   0  0  2  0  0  3  0  0  0  0  0  0
  184.6650  177.0580  141.9400 O   0  0  0  0  0  1  0  0  0  0  0  0
  185.1010  178.1150  142.7500 C   0  0  2  0  0  0  0  0  0  0  0  0
  184.1340  179.1870  142.9070 C   0  0  2  0  0  3  0  0  0  0  0  0
  185.8190  177.8360  144.0600 C   0  0  1  0  0  3  0  0  0  0  0  0
  186.4100  179.4260  147.2360 C   0  0  0  0  0  1  0  0  0  0  0  0
  185.4170  178.6580  146.3860 C   0  0  0  0  0  2  0  0  0  0  0  0
  191.2110  176.2140  144.3710 C   0  0  0  0  0  2  0  0  0  0  0  0
  192.1010  176.4960  146.7120 N   0  0  0  0  0  1  0  0  0  0  0  0
  191.0720  176.7370  145.7610 C   0  0  0  0  0  0  0  0  0  0  0  0
  190.0350  177.3610  146.1050 O   0  0  0  0  0  0  0  0  0  0  0  0
  1  7  1  0  0  0  0
  2 13  1  6  0  0  0
  2 14  1  0  0  0  0
  2 15  1  0  0  0  0
  3 14  1  0  0  0  0
  4  5  1  6  0  0  0
  4 12  1  0  0  0  0
  6 13  1  0  0  0  0
  6  4  1  0  0  0  0
  7 11  1  0  0  0  0
  7 34  1  6  0  0  0
  8  3  1  0  0  0  0
  9  1  1  0  0  0  0
 10  9  1  6  0  0  0
 10  8  1  0  0  0  0
 11  2  1  0  0  0  0
 11 15  1  0  0  0  0
 12 15  1  0  0  0  0
 14 36  1  0  0  0  0
 16 10  1  0  0  0  0
 16 17  1  0  0  0  0
 17 22  1  0  0  0  0
 18 17  1  0  0  0  0
 19 16  1  0  0  0  0
 19 18  1  0  0  0  0
 22 20  1  0  0  0  0
 22 21  1  0  0  0  0
 23 30  1  0  0  0  0
 24 29  1  0  0  0  0
 24 25  1  0  0  0  0
 25 31  1  0  0  0  0
 26 28  1  0  0  0  0
 26 25  1  0  0  0  0
 27 31  1  0  0  0  0
 28 32  1  0  0  0  0
 29 23  1  0  0  0  0
 31 30  1  0  0  0  0
 32 27  1  0  0  0  0
 32 22  1  0  0  0  0
 35 33  2  0  0  0  0
 35 34  1  0  0  0  0
 36 37  1  0  0  0  0
 38 39  1  0  0  0  0
 38 37  1  0  0  0  0
 38 41  1  0  0  0  0
 39 37  1  0  0  0  0
 40 41  1  0  0  0  0
 41 42  1  0  0  0  0
 42 43  1  0  0  0  0
 42 44  1  0  0  0  0
 43 45  1  0  0  0  0
 43 44  1  0  0  0  0
 44 59  1  0  0  0  0
 45 46  1  0  0  0  0
 47 46  1  0  0  0  0
 47 56  1  0  0  0  0
 48 49  1  0  0  0  0
 49 54  1  0  0  0  0
 49 55  1  0  0  0  0
 50 58  1  0  0  0  0
 52 50  1  0  0  0  0
 52 51  1  0  0  0  0
 53 54  1  0  0  0  0
 54 55  1  0  0  0  0
 54 56  1  0  0  0  0
 55 52  1  0  0  0  0
 56 50  1  0  0  0  0
 58 57  1  0  0  0  0
 59 61  1  0  0  0  0
 61 62  2  0  0  0  0
 61 60  1  0  0  0  0
M  END
>  <MODEL>
7

>  <REMARK>
 VINA RESULT:      -5.4      2.723      6.040
  Name = 
  15 active torsions:
  status: ('A' for Active; 'I' for Inactive)
    1  A    between atoms: C_4  and  C_33
    2  A    between atoms: C_7  and  C_37
    3  A    between atoms: C_8  and  N_27
    4  A    between atoms: C_13  and  N_27
    5  A    between atoms: C_18  and  C_22
    6  A    between atoms: C_22  and  C_26
    7  A    between atoms: C_25  and  C_55
    8  A    between atoms: C_26  and  C_60
    9  A    between atoms: C_28  and  C_37
   10  A    between atoms: C_30  and  N_41
   11  A    between atoms: C_33  and  C_49
   12  A    between atoms: C_34  and  C_45
   13  A    between atoms: C_47  and  C_51
   14  A    between atoms: C_51  and  C_59
   15  A    between atoms: C_60  and  C_62
                            x       y       z     vdW  Elec       q    Type
                         _______ _______ _______ _____ _____    ______ ____

>  <TORSDO>
F 15

$$$$
=
 OpenBabel11042410103D

 62 71  0  0  1  0  0  0  0  0999 V2000
  191.6120  175.4820  134.5970 C   0  0  0  0  0  2  0  0  0  0  0  0
  192.8180  174.0650  137.6120 C   0  0  2  0  0  0  0  0  0  0  0  0
  190.3920  173.8210  137.7160 O   0  0  0  0  0  0  0  0  0  0  0  0
  195.4450  173.0200  138.0850 C   0  0  2  0  0  3  0  0  0  0  0  0
  196.6850  172.4550  137.7870 O   0  0  0  0  0  1  0  0  0  0  0  0
  194.3530  172.2690  137.3550 C   0  0  0  0  0  2  0  0  0  0  0  0
  192.5090  175.8780  135.7720 C   0  0  1  0  0  3  0  0  0  0  0  0
  189.3080  174.6460  137.3430 C   0  0  0  0  0  2  0  0  0  0  0  0
  190.4100  174.6700  135.0530 C   0  0  0  0  0  2  0  0  0  0  0  0
  189.6040  175.4650  136.0890 C   0  0  1  0  0  3  0  0  0  0  0  0
  193.3080  174.6810  136.2930 C   0  0  1  0  0  3  0  0  0  0  0  0
  195.4080  174.4550  137.5990 C   0  0  0  0  0  2  0  0  0  0  0  0
  193.0950  172.6810  137.8360 O   0  0  0  0  0  0  0  0  0  0  0  0
  191.4980  174.5290  138.2680 C   0  0  2  0  0  3  0  0  0  0  0  0
  193.9950  175.0580  137.6180 C   0  0  2  0  0  3  0  0  0  0  0  0
  188.3460  176.1710  135.5700 C   0  0  1  0  0  3  0  0  0  0  0  0
  187.1610  175.8830  136.4570 C   0  0  1  0  0  3  0  0  0  0  0  0
  187.0610  177.2250  136.8710 O   0  0  0  0  0  0  0  0  0  0  0  0
  188.1790  177.5760  136.0930 C   0  0  0  0  0  2  0  0  0  0  0  0
  185.2010  176.5640  134.9810 C   0  0  0  0  0  1  0  0  0  0  0  0
  186.3070  174.3990  134.6320 C   0  0  0  0  0  1  0  0  0  0  0  0
  185.8990  175.4100  135.6970 C   0  0  0  0  0  0  0  0  0  0  0  0
  183.7480  170.3750  135.6890 O   0  0  0  0  0  0  0  0  0  0  0  0
  182.6340  171.6050  137.4560 C   0  0  0  0  0  2  0  0  0  0  0  0
  182.8760  172.7080  136.4220 C   0  0  1  0  0  3  0  0  0  0  0  0
  182.5140  174.0720  137.0100 C   0  0  0  0  0  2  0  0  0  0  0  0
  185.0920  173.3190  136.7620 O   0  0  0  0  0  0  0  0  0  0  0  0
  183.4300  175.1440  136.4380 C   0  0  0  0  0  2  0  0  0  0  0  0
  183.3050  170.2970  137.0190 C   0  0  0  0  0  2  0  0  0  0  0  0
  184.7770  171.3320  135.6890 C   0  0  0  0  0  2  0  0  0  0  0  0
  184.2590  172.6980  135.8780 N   0  0  1  0  0  0  0  0  0  0  0  0
  184.8990  174.7250  136.6510 C   0  0  2  0  0  3  0  0  0  0  0  0
  195.5210  177.7740  134.7780 N   0  0  0  0  0  2  0  0  0  0  0  0
  193.3940  176.9690  135.3770 N   0  0  0  0  0  2  0  0  0  0  0  0
  194.7870  176.7780  135.1430 C   0  0  0  0  0  3  0  0  0  0  0  0
  191.3540  176.0290  138.5820 C   0  0  0  0  0  2  0  0  0  0  0  0
  190.8160  176.2120  139.9850 C   0  0  1  0  0  3  0  0  0  0  0  0
  190.5280  177.6850  140.2210 C   0  0  1  0  0  3  0  0  0  0  0  0
  189.3950  176.7280  139.9100 C   0  0  0  0  0  2  0  0  0  0  0  0
  191.9420  177.7200  142.1330 C   0  0  0  0  0  1  0  0  0  0  0  0
  190.5800  177.9530  141.6620 N   0  0  0  0  0  0  0  0  0  0  0  0
  189.6260  177.1730  142.4950 C   0  0  2  0  0  3  0  0  0  0  0  0
  188.4130  178.0060  142.9220 C   0  0  2  0  0  3  0  0  0  0  0  0
  189.4990  177.6460  143.9440 C   0  0  1  0  0  3  0  0  0  0  0  0
  187.1390  177.1530  143.0250 C   0  0  0  0  0  2  0  0  0  0  0  0
  185.8590  177.9810  142.9800 C   0  0  0  0  0  2  0  0  0  0  0  0
  185.3140  178.0880  141.5670 C   0  0  0  0  0  2  0  0  0  0  0  0
  182.9660  179.2580  138.1250 C   0  0  0  0  0  1  0  0  0  0  0  0
  183.1930  179.3470  139.5620 N   0  0  0  0  0  0  0  0  0  0  0  0
  183.1290  178.9530  142.3930 C   0  0  2  0  0  3  0  0  0  0  0  0
  180.7200  178.7080  142.2130 O   0  0  0  0  0  1  0  0  0  0  0  0
  181.8410  179.3130  141.6340 C   0  0  2  0  0  3  0  0  0  0  0  0
  183.1710  176.8960  139.3220 O   0  0  0  0  0  1  0  0  0  0  0  0
  183.2100  178.0030  140.1820 C   0  0  2  0  0  0  0  0  0  0  0  0
  181.9860  178.7830  140.2090 C   0  0  2  0  0  3  0  0  0  0  0  0
  183.8040  177.8760  141.5750 C   0  0  1  0  0  3  0  0  0  0  0  0
  183.3930  179.5430  144.8020 C   0  0  0  0  0  1  0  0  0  0  0  0
  182.9100  178.4880  143.8270 C   0  0  0  0  0  2  0  0  0  0  0  0
  189.1810  176.4510  144.8390 C   0  0  0  0  0  2  0  0  0  0  0  0
  191.2620  176.8660  146.1990 N   0  0  0  0  0  1  0  0  0  0  0  0
  189.8680  176.5880  146.1560 C   0  0  0  0  0  0  0  0  0  0  0  0
  189.2280  176.4270  147.2270 O   0  0  0  0  0  0  0  0  0  0  0  0
  1  9  1  0  0  0  0
  1  7  1  0  0  0  0
  2 15  1  0  0  0  0
  2 13  1  1  0  0  0
  2 14  1  0  0  0  0
  3 14  1  0  0  0  0
  4  5  1  6  0  0  0
  6 13  1  0  0  0  0
  6  4  1  0  0  0  0
  7 34  1  6  0  0  0
  7 11  1  0  0  0  0
  8  3  1  0  0  0  0
 10  9  1  6  0  0  0
 10  8  1  0  0  0  0
 11  2  1  0  0  0  0
 11 15  1  0  0  0  0
 12 15  1  0  0  0  0
 12  4  1  0  0  0  0
 14 36  1  0  0  0  0
 16 10  1  0  0  0  0
 16 19  1  0  0  0  0
 16 17  1  0  0  0  0
 17 18  1  0  0  0  0
 19 18  1  0  0  0  0
 20 22  1  0  0  0  0
 21 22  1  0  0  0  0
 22 17  1  0  0  0  0
 22 32  1  0  0  0  0
 23 29  1  0  0  0  0
 25 26  1  0  0  0  0
 25 24  1  0  0  0  0
 28 32  1  0  0  0  0
 28 26  1  0  0  0  0
 29 24  1  0  0  0  0
 30 23  1  0  0  0  0
 30 31  1  0  0  0  0
 31 25  1  0  0  0  0
 31 27  1  0  0  0  0
 32 27  1  0  0  0  0
 33 35  2  0  0  0  0
 35 34  1  0  0  0  0
 36 37  1  0  0  0  0
 37 38  1  0  0  0  0
 38 41  1  0  0  0  0
 39 37  1  0  0  0  0
 39 38  1  0  0  0  0
 41 40  1  0  0  0  0
 41 42  1  0  0  0  0
 42 43  1  0  0  0  0
 42 44  1  0  0  0  0
 43 45  1  0  0  0  0
 43 44  1  0  0  0  0
 44 59  1  0  0  0  0
 46 45  1  0  0  0  0
 47 56  1  0  0  0  0
 47 46  1  0  0  0  0
 48 49  1  0  0  0  0
 49 54  1  0  0  0  0
 49 55  1  0  0  0  0
 50 58  1  0  0  0  0
 52 51  1  0  0  0  0
 52 50  1  0  0  0  0
 53 54  1  0  0  0  0
 54 55  1  0  0  0  0
 54 56  1  0  0  0  0
 55 52  1  0  0  0  0
 56 50  1  0  0  0  0
 58 57  1  0  0  0  0
 59 61  1  0  0  0  0
 61 60  1  0  0  0  0
 61 62  2  0  0  0  0
M  END
>  <MODEL>
8

>  <REMARK>
 VINA RESULT:      -5.1      2.453      9.303
  Name = 
  15 active torsions:
  status: ('A' for Active; 'I' for Inactive)
    1  A    between atoms: C_4  and  C_33
    2  A    between atoms: C_7  and  C_37
    3  A    between atoms: C_8  and  N_27
    4  A    between atoms: C_13  and  N_27
    5  A    between atoms: C_18  and  C_22
    6  A    between atoms: C_22  and  C_26
    7  A    between atoms: C_25  and  C_55
    8  A    between atoms: C_26  and  C_60
    9  A    between atoms: C_28  and  C_37
   10  A    between atoms: C_30  and  N_41
   11  A    between atoms: C_33  and  C_49
   12  A    between atoms: C_34  and  C_45
   13  A    between atoms: C_47  and  C_51
   14  A    between atoms: C_51  and  C_59
   15  A    between atoms: C_60  and  C_62
                            x       y       z     vdW  Elec       q    Type
                         _______ _______ _______ _____ _____    ______ ____

>  <TORSDO>
F 15

$$$$
=
 OpenBabel11042410103D

 62 71  0  0  1  0  0  0  0  0999 V2000
  191.5540  176.1160  134.5960 C   0  0  0  0  0  2  0  0  0  0  0  0
  193.0160  174.2260  137.2120 C   0  0  2  0  0  0  0  0  0  0  0  0
  190.6230  174.2410  137.6930 O   0  0  0  0  0  0  0  0  0  0  0  0
  195.5290  172.8490  137.1340 C   0  0  2  0  0  3  0  0  0  0  0  0
  196.6250  172.1900  136.5790 O   0  0  0  0  0  1  0  0  0  0  0  0
  194.2510  172.3150  136.5250 C   0  0  0  0  0  2  0  0  0  0  0  0
  192.6630  176.2670  135.6390 C   0  0  1  0  0  3  0  0  0  0  0  0
  189.6100  175.2180  137.5900 C   0  0  0  0  0  2  0  0  0  0  0  0
  190.3420  175.3930  135.1620 C   0  0  0  0  0  2  0  0  0  0  0  0
  189.8130  176.1430  136.3920 C   0  0  1  0  0  3  0  0  0  0  0  0
  193.3730  174.9370  135.8970 C   0  0  1  0  0  3  0  0  0  0  0  0
  195.6020  174.3270  136.8060 C   0  0  0  0  0  2  0  0  0  0  0  0
  193.1450  172.8030  137.2470 O   0  0  0  0  0  0  0  0  0  0  0  0
  191.8830  174.7510  138.1200 C   0  0  2  0  0  3  0  0  0  0  0  0
  194.2980  175.0750  137.1200 C   0  0  2  0  0  3  0  0  0  0  0  0
  188.5910  177.0400  136.1620 C   0  0  1  0  0  3  0  0  0  0  0  0
  187.5170  176.7610  137.1840 C   0  0  1  0  0  3  0  0  0  0  0  0
  187.6430  178.0380  137.7630 O   0  0  0  0  0  0  0  0  0  0  0  0
  188.6750  178.3710  136.8670 C   0  0  0  0  0  2  0  0  0  0  0  0
  185.9040  177.3310  135.2980 C   0  0  0  0  0  1  0  0  0  0  0  0
  185.9590  175.0560  136.2220 C   0  0  0  0  0  1  0  0  0  0  0  0
  186.1110  176.5300  136.5810 C   0  0  0  0  0  0  0  0  0  0  0  0
  181.0640  174.5350  137.3090 O   0  0  0  0  0  0  0  0  0  0  0  0
  181.2860  176.4310  138.8030 C   0  0  0  0  0  2  0  0  0  0  0  0
  182.1390  176.8780  137.6130 C   0  0  1  0  0  3  0  0  0  0  0  0
  182.8860  178.1680  137.9540 C   0  0  0  0  0  2  0  0  0  0  0  0
  184.1690  175.7960  137.9400 O   0  0  0  0  0  0  0  0  0  0  0  0
  184.2360  178.1870  137.2530 C   0  0  0  0  0  2  0  0  0  0  0  0
  180.8100  174.9860  138.6150 C   0  0  0  0  0  2  0  0  0  0  0  0
  182.4640  174.4780  137.1950 C   0  0  0  0  0  2  0  0  0  0  0  0
  183.0670  175.8210  137.1360 N   0  0  1  0  0  0  0  0  0  0  0  0
  185.0050  176.8940  137.5920 C   0  0  2  0  0  3  0  0  0  0  0  0
  195.6890  178.3770  135.4020 N   0  0  0  0  0  2  0  0  0  0  0  0
  193.6090  177.2930  135.2130 N   0  0  0  0  0  2  0  0  0  0  0  0
  194.8830  177.4650  135.8300 C   0  0  0  0  0  3  0  0  0  0  0  0
  191.9810  176.2100  138.6030 C   0  0  0  0  0  2  0  0  0  0  0  0
  191.8060  176.2690  140.1050 C   0  0  1  0  0  3  0  0  0  0  0  0
  191.2760  177.6390  140.4920 C   0  0  1  0  0  3  0  0  0  0  0  0
  190.3390  176.4490  140.4290 C   0  0  0  0  0  2  0  0  0  0  0  0
  193.0330  177.5040  142.0890 C   0  0  0  0  0  1  0  0  0  0  0  0
  191.6470  177.9150  141.8840 N   0  0  0  0  0  0  0  0  0  0  0  0
  190.7830  177.2830  142.9160 C   0  0  2  0  0  3  0  0  0  0  0  0
  190.0860  178.3190  143.8040 C   0  0  2  0  0  3  0  0  0  0  0  0
  191.2480  177.4860  144.3590 C   0  0  1  0  0  3  0  0  0  0  0  0
  188.6950  177.8470  144.2540 C   0  0  0  0  0  2  0  0  0  0  0  0
  187.8630  177.2660  143.1160 C   0  0  0  0  0  2  0  0  0  0  0  0
  186.4440  176.9600  143.5630 C   0  0  0  0  0  2  0  0  0  0  0  0
  184.7300  178.1060  147.3690 C   0  0  0  0  0  1  0  0  0  0  0  0
  184.5340  177.8340  145.9500 N   0  0  0  0  0  0  0  0  0  0  0  0
  184.2530  178.0550  143.1130 C   0  0  2  0  0  3  0  0  0  0  0  0
  182.9400  180.0630  143.4920 O   0  0  0  0  0  1  0  0  0  0  0  0
  183.3090  178.8320  144.0470 C   0  0  2  0  0  3  0  0  0  0  0  0
  186.4020  179.4310  145.7870 O   0  0  0  0  0  1  0  0  0  0  0  0
  185.4350  178.6660  145.1200 C   0  0  2  0  0  0  0  0  0  0  0  0
  184.0680  179.1020  145.3430 C   0  0  2  0  0  3  0  0  0  0  0  0
  185.6430  178.2530  143.6720 C   0  0  1  0  0  3  0  0  0  0  0  0
  185.5190  179.0640  141.2150 C   0  0  0  0  0  1  0  0  0  0  0  0
  184.1890  178.4800  141.6520 C   0  0  0  0  0  2  0  0  0  0  0  0
  190.8400  176.2770  145.1960 C   0  0  0  0  0  2  0  0  0  0  0  0
  192.0300  176.6320  147.3890 N   0  0  0  0  0  1  0  0  0  0  0  0
  191.9200  175.9220  146.1620 C   0  0  0  0  0  0  0  0  0  0  0  0
  192.7530  175.0220  145.8830 O   0  0  0  0  0  0  0  0  0  0  0  0
  1  9  1  0  0  0  0
  1  7  1  0  0  0  0
  2 13  1  1  0  0  0
  2 14  1  0  0  0  0
  3 14  1  0  0  0  0
  4  5  1  6  0  0  0
  6  4  1  0  0  0  0
  6 13  1  0  0  0  0
  7 34  1  6  0  0  0
  7 11  1  0  0  0  0
  8  3  1  0  0  0  0
 10  9  1  6  0  0  0
 10  8  1  0  0  0  0
 11 15  1  0  0  0  0
 11  2  1  0  0  0  0
 12 15  1  0  0  0  0
 12  4  1  0  0  0  0
 14 36  1  0  0  0  0
 15  2  1  0  0  0  0
 16 10  1  0  0  0  0
 16 19  1  0  0  0  0
 16 17  1  0  0  0  0
 17 18  1  0  0  0  0
 19 18  1  0  0  0  0
 20 22  1  0  0  0  0
 21 22  1  0  0  0  0
 22 17  1  0  0  0  0
 22 32  1  0  0  0  0
 23 29  1  0  0  0  0
 25 26  1  0  0  0  0
 25 24  1  0  0  0  0
 28 32  1  0  0  0  0
 28 26  1  0  0  0  0
 29 24  1  0  0  0  0
 30 23  1  0  0  0  0
 31 30  1  0  0  0  0
 31 25  1  0  0  0  0
 31 27  1  0  0  0  0
 32 27  1  0  0  0  0
 33 35  2  0  0  0  0
 34 35  1  0  0  0  0
 36 37  1  0  0  0  0
 37 39  1  0  0  0  0
 37 38  1  0  0  0  0
 38 41  1  0  0  0  0
 39 38  1  0  0  0  0
 41 40  1  0  0  0  0
 41 42  1  0  0  0  0
 42 43  1  0  0  0  0
 42 44  1  0  0  0  0
 43 45  1  0  0  0  0
 43 44  1  0  0  0  0
 44 59  1  0  0  0  0
 46 47  1  0  0  0  0
 46 45  1  0  0  0  0
 47 56  1  0  0  0  0
 49 48  1  0  0  0  0
 50 56  1  0  0  0  0
 50 52  1  0  0  0  0
 51 52  1  0  0  0  0
 52 55  1  0  0  0  0
 54 55  1  0  0  0  0
 54 53  1  0  0  0  0
 54 49  1  0  0  0  0
 55 49  1  0  0  0  0
 56 54  1  0  0  0  0
 57 58  1  0  0  0  0
 58 50  1  0  0  0  0
 59 61  1  0  0  0  0
 61 60  1  0  0  0  0
 62 61  2  0  0  0  0
M  END
>  <MODEL>
9

>  <REMARK>
 VINA RESULT:      -5.1      2.165      9.151
  Name = 
  15 active torsions:
  status: ('A' for Active; 'I' for Inactive)
    1  A    between atoms: C_4  and  C_33
    2  A    between atoms: C_7  and  C_37
    3  A    between atoms: C_8  and  N_27
    4  A    between atoms: C_13  and  N_27
    5  A    between atoms: C_18  and  C_22
    6  A    between atoms: C_22  and  C_26
    7  A    between atoms: C_25  and  C_55
    8  A    between atoms: C_26  and  C_60
    9  A    between atoms: C_28  and  C_37
   10  A    between atoms: C_30  and  N_41
   11  A    between atoms: C_33  and  C_49
   12  A    between atoms: C_34  and  C_45
   13  A    between atoms: C_47  and  C_51
   14  A    between atoms: C_51  and  C_59
   15  A    between atoms: C_60  and  C_62
                            x       y       z     vdW  Elec       q    Type
                         _______ _______ _______ _____ _____    ______ ____

>  <TORSDO>
F 15

$$$$
