=
 OpenBabel11032420513D

 44 48  0  0  1  0  0  0  0  0999 V2000
  190.5150  177.0860  140.4010 N   0  0  0  0  0  0  0  0  0  0  0  0
  189.0800  177.3710  138.8460 C   0  0  0  0  0  0  0  0  0  0  0  0
  189.5480  177.8980  139.9940 N   0  0  0  0  0  0  0  0  0  0  0  0
  189.6720  175.3560  137.4710 N   0  0  0  0  0  2  0  0  0  0  0  0
  190.7120  176.0670  139.5790 N   0  0  0  0  0  0  0  0  0  0  0  0
  189.8130  176.2300  138.5930 C   0  0  0  0  0  0  0  0  0  0  0  0
  187.9950  177.9560  138.0420 C   0  0  0  0  0  0  0  0  0  0  0  0
  188.2160  179.2180  137.3910 N   0  0  0  0  0  2  0  0  0  0  0  0
  186.8700  177.3070  137.9520 N   0  0  0  0  0  0  0  0  0  0  0  0
  187.2950  179.8420  136.6200 O   0  0  0  0  0  1  0  0  0  0  0  0
  185.6950  177.7380  137.2090 C   0  0  0  0  0  2  0  0  0  0  0  0
  182.5180  177.1240  139.1530 C   0  0  0  0  0  0  0  0  0  0  0  0
  181.0310  178.2660  140.7940 S   0  0  0  0  0  0  0  0  0  0  0  0
  183.3370  179.3430  139.7170 C   0  0  0  0  0  3  0  0  0  0  0  0
  184.5510  177.9280  138.1400 C   0  0  0  0  0  0  0  0  0  0  0  0
  180.5520  176.7090  140.3290 C   0  0  0  0  0  3  0  0  0  0  0  0
  182.4070  178.3150  139.8470 C   0  0  0  0  0  0  0  0  0  0  0  0
  183.5900  176.9120  138.2870 C   0  0  0  0  0  3  0  0  0  0  0  0
  181.4880  176.2170  139.4130 C   0  0  0  0  0  3  0  0  0  0  0  0
  184.4200  179.1400  138.8490 C   0  0  0  0  0  3  0  0  0  0  0  0
  190.5310  174.1970  137.2800 C   0  0  0  0  0  2  0  0  0  0  0  0
  191.8260  174.6170  136.6120 C   0  0  0  0  0  2  0  0  0  0  0  0
  193.0010  174.1740  137.4630 C   0  0  0  0  0  2  0  0  0  0  0  0
  193.3510  176.6130  137.1190 C   0  0  0  0  0  1  0  0  0  0  0  0
  193.8760  175.3680  137.8100 C   0  0  2  0  0  3  0  0  0  0  0  0
  195.2390  175.1150  137.3710 N   0  0  0  0  0  2  0  0  0  0  0  0
  195.6840  175.2210  140.0090 O   0  0  0  0  0  1  0  0  0  0  0  0
  197.7860  174.8000  138.5130 O   0  0  0  0  0  0  0  0  0  0  0  0
  195.8800  172.8470  138.9200 O   0  0  0  0  0  1  0  0  0  0  0  0
  196.1380  174.5110  138.7530 P   0  0  0  0  0  0  0  0  0  0  0  0
  191.3230  177.3320  141.5820 C   0  0  0  0  0  2  0  0  0  0  0  0
  190.4820  177.1310  142.8260 C   0  0  0  0  0  2  0  0  0  0  0  0
  190.5620  178.3640  143.7000 C   0  0  0  0  0  2  0  0  0  0  0  0
  189.8270  178.1050  144.9970 C   0  0  0  0  0  2  0  0  0  0  0  0
  188.6990  177.1220  144.7540 C   0  0  0  0  0  2  0  0  0  0  0  0
  183.8860  178.7870  143.6430 C   0  0  0  0  0  3  0  0  0  0  0  0
  186.3470  177.9730  144.6140 C   0  0  0  0  0  0  0  0  0  0  0  0
  187.2290  177.9700  146.5910 C   0  0  0  0  0  3  0  0  0  0  0  0
  185.9410  178.4970  146.7420 C   0  0  0  0  0  3  0  0  0  0  0  0
  185.4100  178.4850  145.4670 C   0  0  0  0  0  0  0  0  0  0  0  0
  186.1090  177.8430  143.2460 C   0  0  0  0  0  3  0  0  0  0  0  0
  184.1600  178.9060  145.0180 C   0  0  0  0  0  3  0  0  0  0  0  0
  187.4550  177.6510  145.2960 N   0  0  0  0  0  0  0  0  0  0  0  0
  184.8560  178.2590  142.7630 C   0  0  0  0  0  3  0  0  0  0  0  0
  1 31  1  0  0  0  0
  2  3  2  0  0  0  0
  3  1  1  0  0  0  0
  4  6  1  0  0  0  0
  5  1  1  0  0  0  0
  6  2  1  0  0  0  0
  6  5  2  0  0  0  0
  7  2  1  0  0  0  0
  8  7  1  0  0  0  0
  9  7  2  0  0  0  0
 10  8  1  0  0  0  0
 11  9  1  0  0  0  0
 11 15  1  0  0  0  0
 12 19  1  0  0  0  0
 12 17  1  0  0  0  0
 14 17  2  0  0  0  0
 15 18  1  0  0  0  0
 15 20  2  0  0  0  0
 16 13  1  0  0  0  0
 17 13  1  0  0  0  0
 18 12  2  0  0  0  0
 19 16  2  0  0  0  0
 20 14  1  0  0  0  0
 21  4  1  0  0  0  0
 22 21  1  0  0  0  0
 22 23  1  0  0  0  0
 23 25  1  0  0  0  0
 25 24  1  6  0  0  0
 26 25  1  0  0  0  0
 26 30  1  0  0  0  0
 28 30  2  0  0  0  0
 30 29  1  0  0  0  0
 30 27  1  0  0  0  0
 31 32  1  0  0  0  0
 32 33  1  0  0  0  0
 33 34  1  0  0  0  0
 35 34  1  0  0  0  0
 35 43  1  0  0  0  0
 36 42  1  0  0  0  0
 37 43  1  0  0  0  0
 37 40  1  0  0  0  0
 38 39  2  0  0  0  0
 40 39  1  0  0  0  0
 41 37  2  0  0  0  0
 42 40  2  0  0  0  0
 43 38  1  0  0  0  0
 44 41  1  0  0  0  0
 44 36  2  0  0  0  0
M  END
>  <MODEL>
1

>  <REMARK>
 VINA RESULT:      -8.7      0.000      0.000
  Name = 
  15 active torsions:
  status: ('A' for Active; 'I' for Inactive)
    1  A    between atoms: C_3  and  C_16
    2  A    between atoms: C_8  and  C_12
    3  A    between atoms: C_8  and  C_24
    4  A    between atoms: N_9  and  C_24
    5  A    between atoms: C_10  and  C_21
    6  A    between atoms: C_10  and  N_23
    7  A    between atoms: C_11  and  C_25
    8  A    between atoms: C_11  and  N_38
    9  A    between atoms: C_12  and  C_22
   10  A    between atoms: N_13  and  P_39
   11  A    between atoms: N_13  and  C_42
   12  A    between atoms: C_21  and  C_33
   13  A    between atoms: C_22  and  C_36
   14  A    between atoms: C_33  and  C_42
   15  A    between atoms: C_36  and  N_40
                            x       y       z     vdW  Elec       q    Type
                         _______ _______ _______ _____ _____    ______ ____

>  <TORSDO>
F 15

$$$$
=
 OpenBabel11032420513D

 44 48  0  0  1  0  0  0  0  0999 V2000
  187.8400  177.4630  137.9510 N   0  0  0  0  0  0  0  0  0  0  0  0
  189.4130  176.9420  139.2980 C   0  0  0  0  0  0  0  0  0  0  0  0
  188.3470  177.7510  139.1430 N   0  0  0  0  0  0  0  0  0  0  0  0
  190.4750  175.1510  137.8950 N   0  0  0  0  0  2  0  0  0  0  0  0
  188.5060  176.5030  137.3270 N   0  0  0  0  0  0  0  0  0  0  0  0
  189.5030  176.1650  138.1620 C   0  0  0  0  0  0  0  0  0  0  0  0
  190.2760  176.9200  140.4900 C   0  0  0  0  0  0  0  0  0  0  0  0
  191.6260  177.3990  140.3790 N   0  0  0  0  0  2  0  0  0  0  0  0
  189.7810  176.4640  141.6050 N   0  0  0  0  0  0  0  0  0  0  0  0
  192.5020  177.4360  141.4110 O   0  0  0  0  0  1  0  0  0  0  0  0
  190.4900  176.3650  142.8730 C   0  0  0  0  0  2  0  0  0  0  0  0
  189.2650  177.4060  146.2880 C   0  0  0  0  0  0  0  0  0  0  0  0
  187.1430  177.9680  147.4670 S   0  0  0  0  0  0  0  0  0  0  0  0
  187.3430  177.2560  144.8050 C   0  0  0  0  0  3  0  0  0  0  0  0
  189.5940  176.7800  143.9850 C   0  0  0  0  0  0  0  0  0  0  0  0
  188.5490  178.0410  148.4100 C   0  0  0  0  0  3  0  0  0  0  0  0
  187.9060  177.5110  146.0530 C   0  0  0  0  0  0  0  0  0  0  0  0
  190.1310  177.0370  145.2590 C   0  0  0  0  0  3  0  0  0  0  0  0
  189.6380  177.6990  147.6010 C   0  0  0  0  0  3  0  0  0  0  0  0
  188.2060  176.8840  143.7620 C   0  0  0  0  0  3  0  0  0  0  0  0
  190.4520  174.3580  136.6760 C   0  0  0  0  0  2  0  0  0  0  0  0
  191.6790  173.4700  136.6110 C   0  0  0  0  0  2  0  0  0  0  0  0
  192.7940  174.2000  135.8870 C   0  0  0  0  0  2  0  0  0  0  0  0
  194.0980  172.1570  135.3290 C   0  0  0  0  0  1  0  0  0  0  0  0
  194.1130  173.4720  136.0860 C   0  0  2  0  0  3  0  0  0  0  0  0
  194.3150  173.2080  137.5020 N   0  0  0  0  0  2  0  0  0  0  0  0
  194.2740  175.6420  138.6150 O   0  0  0  0  0  1  0  0  0  0  0  0
  196.2600  175.1670  136.9840 O   0  0  0  0  0  0  0  0  0  0  0  0
  196.1380  174.0250  139.4920 O   0  0  0  0  0  1  0  0  0  0  0  0
  195.2240  174.5530  138.1700 P   0  0  0  0  0  0  0  0  0  0  0  0
  186.6360  178.0800  137.4220 C   0  0  0  0  0  2  0  0  0  0  0  0
  185.6210  177.0060  137.0870 C   0  0  0  0  0  2  0  0  0  0  0  0
  184.2320  177.4880  137.4510 C   0  0  0  0  0  2  0  0  0  0  0  0
  184.3460  178.6800  138.3750 C   0  0  0  0  0  2  0  0  0  0  0  0
  183.4180  178.4960  139.5600 C   0  0  0  0  0  2  0  0  0  0  0  0
  183.0350  179.0890  144.7230 C   0  0  0  0  0  3  0  0  0  0  0  0
  183.6320  178.8110  142.0350 C   0  0  0  0  0  0  0  0  0  0  0  0
  185.4750  178.9490  140.9080 C   0  0  0  0  0  3  0  0  0  0  0  0
  185.8210  179.1760  142.2440 C   0  0  0  0  0  3  0  0  0  0  0  0
  184.6270  179.0810  142.9330 C   0  0  0  0  0  0  0  0  0  0  0  0
  182.3010  178.6690  142.4270 C   0  0  0  0  0  3  0  0  0  0  0  0
  184.3680  179.2290  144.2930 C   0  0  0  0  0  3  0  0  0  0  0  0
  184.1450  178.7230  140.8000 N   0  0  0  0  0  0  0  0  0  0  0  0
  182.0090  178.8120  143.7950 C   0  0  0  0  0  3  0  0  0  0  0  0
  1  3  1  0  0  0  0
  2  7  1  0  0  0  0
  3  2  2  0  0  0  0
  4  6  1  0  0  0  0
  5  1  1  0  0  0  0
  5  6  2  0  0  0  0
  6  2  1  0  0  0  0
  7  9  2  0  0  0  0
  8  7  1  0  0  0  0
  8 10  1  0  0  0  0
  9 11  1  0  0  0  0
 11 15  1  0  0  0  0
 12 19  1  0  0  0  0
 13 16  1  0  0  0  0
 14 17  2  0  0  0  0
 15 18  1  0  0  0  0
 17 12  1  0  0  0  0
 17 13  1  0  0  0  0
 18 12  2  0  0  0  0
 19 16  2  0  0  0  0
 20 15  2  0  0  0  0
 20 14  1  0  0  0  0
 21  4  1  0  0  0  0
 22 21  1  0  0  0  0
 23 25  1  0  0  0  0
 23 22  1  0  0  0  0
 25 24  1  6  0  0  0
 25 26  1  0  0  0  0
 26 30  1  0  0  0  0
 28 30  2  0  0  0  0
 30 27  1  0  0  0  0
 30 29  1  0  0  0  0
 31  1  1  0  0  0  0
 32 31  1  0  0  0  0
 32 33  1  0  0  0  0
 33 34  1  0  0  0  0
 34 35  1  0  0  0  0
 35 43  1  0  0  0  0
 37 41  2  0  0  0  0
 37 40  1  0  0  0  0
 38 39  2  0  0  0  0
 39 40  1  0  0  0  0
 40 42  2  0  0  0  0
 41 44  1  0  0  0  0
 42 36  1  0  0  0  0
 43 38  1  0  0  0  0
 43 37  1  0  0  0  0
 44 36  2  0  0  0  0
M  END
>  <MODEL>
2

>  <REMARK>
 VINA RESULT:      -8.6      2.424      5.747
  Name = 
  15 active torsions:
  status: ('A' for Active; 'I' for Inactive)
    1  A    between atoms: C_3  and  C_16
    2  A    between atoms: C_8  and  C_12
    3  A    between atoms: C_8  and  C_24
    4  A    between atoms: N_9  and  C_24
    5  A    between atoms: C_10  and  C_21
    6  A    between atoms: C_10  and  N_23
    7  A    between atoms: C_11  and  C_25
    8  A    between atoms: C_11  and  N_38
    9  A    between atoms: C_12  and  C_22
   10  A    between atoms: N_13  and  P_39
   11  A    between atoms: N_13  and  C_42
   12  A    between atoms: C_21  and  C_33
   13  A    between atoms: C_22  and  C_36
   14  A    between atoms: C_33  and  C_42
   15  A    between atoms: C_36  and  N_40
                            x       y       z     vdW  Elec       q    Type
                         _______ _______ _______ _____ _____    ______ ____

>  <TORSDO>
F 15

$$$$
=
 OpenBabel11032420513D

 44 48  0  0  1  0  0  0  0  0999 V2000
  190.1870  177.3040  141.2710 N   0  0  0  0  0  0  0  0  0  0  0  0
  188.9340  177.6850  139.5850 C   0  0  0  0  0  0  0  0  0  0  0  0
  189.1620  178.0410  140.8640 N   0  0  0  0  0  0  0  0  0  0  0  0
  190.0150  176.0710  137.9930 N   0  0  0  0  0  2  0  0  0  0  0  0
  190.6500  176.4990  140.3270 N   0  0  0  0  0  0  0  0  0  0  0  0
  189.8690  176.7240  139.2570 C   0  0  0  0  0  0  0  0  0  0  0  0
  187.8800  178.2610  138.7340 C   0  0  0  0  0  0  0  0  0  0  0  0
  188.2590  178.9810  137.5490 N   0  0  0  0  0  2  0  0  0  0  0  0
  186.6380  178.0990  139.0910 N   0  0  0  0  0  0  0  0  0  0  0  0
  187.3750  179.5410  136.6910 O   0  0  0  0  0  1  0  0  0  0  0  0
  185.4750  178.6030  138.3760 C   0  0  0  0  0  2  0  0  0  0  0  0
  183.4280  178.7850  141.5430 C   0  0  0  0  0  0  0  0  0  0  0  0
  181.0510  178.9350  142.2760 S   0  0  0  0  0  0  0  0  0  0  0  0
  181.9040  178.8420  139.6490 C   0  0  0  0  0  3  0  0  0  0  0  0
  184.3180  178.7040  139.3060 C   0  0  0  0  0  0  0  0  0  0  0  0
  182.2020  178.8880  143.5190 C   0  0  0  0  0  3  0  0  0  0  0  0
  182.1490  178.8510  141.0190 C   0  0  0  0  0  0  0  0  0  0  0  0
  184.5330  178.7080  140.6950 C   0  0  0  0  0  3  0  0  0  0  0  0
  183.4720  178.8040  142.9390 C   0  0  0  0  0  3  0  0  0  0  0  0
  183.0080  178.7660  138.7870 C   0  0  0  0  0  3  0  0  0  0  0  0
  191.0680  175.0990  137.7430 C   0  0  0  0  0  2  0  0  0  0  0  0
  192.3090  175.8010  137.2270 C   0  0  0  0  0  2  0  0  0  0  0  0
  193.1860  174.8040  136.4950 C   0  0  0  0  0  2  0  0  0  0  0  0
  194.9490  176.0060  135.2170 C   0  0  0  0  0  1  0  0  0  0  0  0
  194.6330  175.2710  136.5070 C   0  0  2  0  0  3  0  0  0  0  0  0
  195.5150  174.1220  136.6320 N   0  0  0  0  0  2  0  0  0  0  0  0
  195.3550  172.7430  138.9210 O   0  0  0  0  0  1  0  0  0  0  0  0
  195.4200  175.3450  139.1590 O   0  0  0  0  0  1  0  0  0  0  0  0
  197.6590  173.8970  138.4510 O   0  0  0  0  0  0  0  0  0  0  0  0
  195.9740  173.9860  138.3210 P   0  0  0  0  0  0  0  0  0  0  0  0
  190.7880  177.4260  142.5870 C   0  0  0  0  0  2  0  0  0  0  0  0
  190.8940  176.0560  143.2270 C   0  0  0  0  0  2  0  0  0  0  0  0
  191.6350  176.1660  144.5420 C   0  0  0  0  0  2  0  0  0  0  0  0
  191.0260  177.2790  145.3660 C   0  0  0  0  0  2  0  0  0  0  0  0
  190.6600  176.7530  146.7400 C   0  0  0  0  0  2  0  0  0  0  0  0
  185.8030  178.0990  145.4120 C   0  0  0  0  0  3  0  0  0  0  0  0
  188.2930  177.5270  146.4790 C   0  0  0  0  0  0  0  0  0  0  0  0
  189.2050  177.9280  148.4000 C   0  0  0  0  0  3  0  0  0  0  0  0
  187.9120  178.4570  148.4680 C   0  0  0  0  0  3  0  0  0  0  0  0
  187.3600  178.1860  147.2310 C   0  0  0  0  0  0  0  0  0  0  0  0
  188.0350  177.1250  145.1680 C   0  0  0  0  0  3  0  0  0  0  0  0
  186.0970  178.4930  146.7310 C   0  0  0  0  0  3  0  0  0  0  0  0
  189.4170  177.3620  147.1900 N   0  0  0  0  0  0  0  0  0  0  0  0
  186.7670  177.4210  144.6360 C   0  0  0  0  0  3  0  0  0  0  0  0
  1 31  1  0  0  0  0
  2  3  2  0  0  0  0
  3  1  1  0  0  0  0
  4  6  1  0  0  0  0
  5  1  1  0  0  0  0
  6  2  1  0  0  0  0
  6  5  2  0  0  0  0
  7  9  2  0  0  0  0
  7  2  1  0  0  0  0
  8  7  1  0  0  0  0
 10  8  1  0  0  0  0
 11  9  1  0  0  0  0
 11 15  1  0  0  0  0
 12 19  1  0  0  0  0
 13 16  1  0  0  0  0
 14 17  2  0  0  0  0
 15 18  1  0  0  0  0
 17 12  1  0  0  0  0
 17 13  1  0  0  0  0
 18 12  2  0  0  0  0
 19 16  2  0  0  0  0
 20 15  2  0  0  0  0
 20 14  1  0  0  0  0
 21  4  1  0  0  0  0
 22 21  1  0  0  0  0
 23 25  1  0  0  0  0
 23 22  1  0  0  0  0
 25 24  1  6  0  0  0
 25 26  1  0  0  0  0
 26 30  1  0  0  0  0
 30 29  2  0  0  0  0
 30 27  1  0  0  0  0
 30 28  1  0  0  0  0
 31 32  1  0  0  0  0
 32 33  1  0  0  0  0
 33 34  1  0  0  0  0
 34 35  1  0  0  0  0
 35 43  1  0  0  0  0
 36 42  1  0  0  0  0
 37 43  1  0  0  0  0
 37 40  1  0  0  0  0
 38 39  2  0  0  0  0
 40 39  1  0  0  0  0
 41 37  2  0  0  0  0
 42 40  2  0  0  0  0
 43 38  1  0  0  0  0
 44 41  1  0  0  0  0
 44 36  2  0  0  0  0
M  END
>  <MODEL>
3

>  <REMARK>
 VINA RESULT:      -8.5      1.343      2.132
  Name = 
  15 active torsions:
  status: ('A' for Active; 'I' for Inactive)
    1  A    between atoms: C_3  and  C_16
    2  A    between atoms: C_8  and  C_12
    3  A    between atoms: C_8  and  C_24
    4  A    between atoms: N_9  and  C_24
    5  A    between atoms: C_10  and  C_21
    6  A    between atoms: C_10  and  N_23
    7  A    between atoms: C_11  and  C_25
    8  A    between atoms: C_11  and  N_38
    9  A    between atoms: C_12  and  C_22
   10  A    between atoms: N_13  and  P_39
   11  A    between atoms: N_13  and  C_42
   12  A    between atoms: C_21  and  C_33
   13  A    between atoms: C_22  and  C_36
   14  A    between atoms: C_33  and  C_42
   15  A    between atoms: C_36  and  N_40
                            x       y       z     vdW  Elec       q    Type
                         _______ _______ _______ _____ _____    ______ ____

>  <TORSDO>
F 15

$$$$
=
 OpenBabel11032420513D

 44 48  0  0  1  0  0  0  0  0999 V2000
  188.4050  178.3120  137.9990 N   0  0  0  0  0  0  0  0  0  0  0  0
  189.3270  177.8010  139.8560 C   0  0  0  0  0  0  0  0  0  0  0  0
  189.5320  177.8500  138.5250 N   0  0  0  0  0  0  0  0  0  0  0  0
  187.4070  178.3980  141.3580 N   0  0  0  0  0  2  0  0  0  0  0  0
  187.4830  178.5800  138.9100 N   0  0  0  0  0  0  0  0  0  0  0  0
  188.0470  178.2600  140.0880 C   0  0  0  0  0  0  0  0  0  0  0  0
  190.3270  177.3500  140.8360 C   0  0  0  0  0  0  0  0  0  0  0  0
  191.7210  177.5490  140.5500 N   0  0  0  0  0  2  0  0  0  0  0  0
  189.9090  176.7820  141.9310 N   0  0  0  0  0  0  0  0  0  0  0  0
  192.7240  177.1840  141.3830 O   0  0  0  0  0  1  0  0  0  0  0  0
  190.7540  176.2720  143.0020 C   0  0  0  0  0  2  0  0  0  0  0  0
  188.3390  177.4210  145.6660 C   0  0  0  0  0  0  0  0  0  0  0  0
  188.2860  177.9340  148.1040 S   0  0  0  0  0  0  0  0  0  0  0  0
  190.5110  177.0810  146.7050 C   0  0  0  0  0  3  0  0  0  0  0  0
  190.1890  176.6660  144.3200 C   0  0  0  0  0  0  0  0  0  0  0  0
  186.8210  178.1390  147.2780 C   0  0  0  0  0  3  0  0  0  0  0  0
  189.1670  177.4370  146.7740 C   0  0  0  0  0  0  0  0  0  0  0  0
  188.8370  177.0390  144.4210 C   0  0  0  0  0  3  0  0  0  0  0  0
  187.0250  177.8120  145.9330 C   0  0  0  0  0  3  0  0  0  0  0  0
  191.0220  176.6930  145.4570 C   0  0  0  0  0  3  0  0  0  0  0  0
  186.0610  178.9360  141.4920 C   0  0  0  0  0  2  0  0  0  0  0  0
  185.3450  178.2610  142.6460 C   0  0  0  0  0  2  0  0  0  0  0  0
  183.8500  178.2770  142.3910 C   0  0  0  0  0  2  0  0  0  0  0  0
  184.1110  179.5030  144.5400 C   0  0  0  0  0  1  0  0  0  0  0  0
  183.1560  179.1660  143.4100 C   0  0  2  0  0  3  0  0  0  0  0  0
  181.9990  178.4720  143.9530 N   0  0  0  0  0  2  0  0  0  0  0  0
  180.5320  180.5330  143.0760 O   0  0  0  0  0  1  0  0  0  0  0  0
  179.1940  178.4090  143.8040 O   0  0  0  0  0  1  0  0  0  0  0  0
  180.6620  178.4690  141.4690 O   0  0  0  0  0  0  0  0  0  0  0  0
  180.5860  179.0210  143.0670 P   0  0  0  0  0  0  0  0  0  0  0  0
  188.2310  178.5710  136.5810 C   0  0  0  0  0  2  0  0  0  0  0  0
  187.7180  177.3210  135.8940 C   0  0  0  0  0  2  0  0  0  0  0  0
  186.2110  177.3870  135.7760 C   0  0  0  0  0  2  0  0  0  0  0  0
  185.6350  176.0010  135.9650 C   0  0  0  0  0  2  0  0  0  0  0  0
  184.7230  175.9900  137.1760 C   0  0  0  0  0  2  0  0  0  0  0  0
  182.0280  180.2250  138.5760 C   0  0  0  0  0  3  0  0  0  0  0  0
  183.1790  177.9260  137.5520 C   0  0  0  0  0  0  0  0  0  0  0  0
  182.5710  176.5240  136.0200 C   0  0  0  0  0  3  0  0  0  0  0  0
  181.5670  177.4970  136.0750 C   0  0  0  0  0  3  0  0  0  0  0  0
  181.9850  178.3720  137.0590 C   0  0  0  0  0  0  0  0  0  0  0  0
  183.8540  178.5960  138.5730 C   0  0  0  0  0  3  0  0  0  0  0  0
  181.3730  179.5230  137.5470 C   0  0  0  0  0  3  0  0  0  0  0  0
  183.5440  176.8030  136.9170 N   0  0  0  0  0  0  0  0  0  0  0  0
  183.2600  179.7630  139.0860 C   0  0  0  0  0  3  0  0  0  0  0  0
  1  3  1  0  0  0  0
  1  5  1  0  0  0  0
  2  6  1  0  0  0  0
  2  7  1  0  0  0  0
  3  2  2  0  0  0  0
  4 21  1  0  0  0  0
  5  6  2  0  0  0  0
  6  4  1  0  0  0  0
  7  9  2  0  0  0  0
  8  7  1  0  0  0  0
  8 10  1  0  0  0  0
  9 11  1  0  0  0  0
 11 15  1  0  0  0  0
 12 19  1  0  0  0  0
 12 17  1  0  0  0  0
 14 17  2  0  0  0  0
 15 18  1  0  0  0  0
 15 20  2  0  0  0  0
 16 13  1  0  0  0  0
 17 13  1  0  0  0  0
 18 12  2  0  0  0  0
 19 16  2  0  0  0  0
 20 14  1  0  0  0  0
 21 22  1  0  0  0  0
 23 22  1  0  0  0  0
 23 25  1  0  0  0  0
 25 26  1  0  0  0  0
 25 24  1  1  0  0  0
 29 30  2  0  0  0  0
 30 27  1  0  0  0  0
 30 28  1  0  0  0  0
 30 26  1  0  0  0  0
 31  1  1  0  0  0  0
 32 31  1  0  0  0  0
 33 32  1  0  0  0  0
 33 34  1  0  0  0  0
 34 35  1  0  0  0  0
 36 44  1  0  0  0  0
 37 41  1  0  0  0  0
 38 39  2  0  0  0  0
 38 43  1  0  0  0  0
 39 40  1  0  0  0  0
 40 42  1  0  0  0  0
 40 37  2  0  0  0  0
 41 44  2  0  0  0  0
 42 36  2  0  0  0  0
 43 35  1  0  0  0  0
 43 37  1  0  0  0  0
M  END
>  <MODEL>
4

>  <REMARK>
 VINA RESULT:      -8.4      4.330      9.589
  Name = 
  15 active torsions:
  status: ('A' for Active; 'I' for Inactive)
    1  A    between atoms: C_3  and  C_16
    2  A    between atoms: C_8  and  C_12
    3  A    between atoms: C_8  and  C_24
    4  A    between atoms: N_9  and  C_24
    5  A    between atoms: C_10  and  C_21
    6  A    between atoms: C_10  and  N_23
    7  A    between atoms: C_11  and  C_25
    8  A    between atoms: C_11  and  N_38
    9  A    between atoms: C_12  and  C_22
   10  A    between atoms: N_13  and  P_39
   11  A    between atoms: N_13  and  C_42
   12  A    between atoms: C_21  and  C_33
   13  A    between atoms: C_22  and  C_36
   14  A    between atoms: C_33  and  C_42
   15  A    between atoms: C_36  and  N_40
                            x       y       z     vdW  Elec       q    Type
                         _______ _______ _______ _____ _____    ______ ____

>  <TORSDO>
F 15

$$$$
=
 OpenBabel11032420513D

 44 48  0  0  1  0  0  0  0  0999 V2000
  190.0970  177.6270  140.9290 N   0  0  0  0  0  0  0  0  0  0  0  0
  188.6620  177.6720  139.3500 C   0  0  0  0  0  0  0  0  0  0  0  0
  189.9270  177.3200  139.6500 N   0  0  0  0  0  0  0  0  0  0  0  0
  186.7610  178.6680  140.6520 N   0  0  0  0  0  2  0  0  0  0  0  0
  189.0120  178.1460  141.4840 N   0  0  0  0  0  0  0  0  0  0  0  0
  188.0980  178.1840  140.5000 C   0  0  0  0  0  0  0  0  0  0  0  0
  188.0430  177.5020  138.0260 C   0  0  0  0  0  0  0  0  0  0  0  0
  187.7300  178.6700  137.2490 N   0  0  0  0  0  2  0  0  0  0  0  0
  187.7980  176.2930  137.6060 N   0  0  0  0  0  0  0  0  0  0  0  0
  187.1710  178.6310  136.0170 O   0  0  0  0  0  1  0  0  0  0  0  0
  187.1880  175.9420  136.3330 C   0  0  0  0  0  2  0  0  0  0  0  0
  183.4680  175.3020  136.4080 C   0  0  0  0  0  0  0  0  0  0  0  0
  181.8390  173.5910  137.2010 S   0  0  0  0  0  0  0  0  0  0  0  0
  184.5840  173.4230  137.4750 C   0  0  0  0  0  3  0  0  0  0  0  0
  185.8720  175.2890  136.5680 C   0  0  0  0  0  0  0  0  0  0  0  0
  181.1670  174.9480  136.4410 C   0  0  0  0  0  3  0  0  0  0  0  0
  183.4310  174.0770  137.0510 C   0  0  0  0  0  0  0  0  0  0  0  0
  184.6890  175.9290  136.1590 C   0  0  0  0  0  3  0  0  0  0  0  0
  182.2100  175.8000  136.0620 C   0  0  0  0  0  3  0  0  0  0  0  0
  185.8180  174.0440  137.2280 C   0  0  0  0  0  3  0  0  0  0  0  0
  186.2530  179.1490  141.9280 C   0  0  0  0  0  2  0  0  0  0  0  0
  184.7430  179.0190  141.9670 C   0  0  0  0  0  2  0  0  0  0  0  0
  184.2510  178.4430  140.6540 C   0  0  0  0  0  2  0  0  0  0  0  0
  182.6040  176.7780  139.8160 C   0  0  0  0  0  1  0  0  0  0  0  0
  182.8440  177.8930  140.8170 C   0  0  2  0  0  3  0  0  0  0  0  0
  181.8770  178.9550  140.5930 N   0  0  0  0  0  2  0  0  0  0  0  0
  179.7120  177.9350  141.7940 O   0  0  0  0  0  0  0  0  0  0  0  0
  180.0690  180.5090  142.0800 O   0  0  0  0  0  1  0  0  0  0  0  0
  181.6540  178.6700  143.3900 O   0  0  0  0  0  1  0  0  0  0  0  0
  180.7890  178.9830  141.9700 P   0  0  0  0  0  0  0  0  0  0  0  0
  191.3190  177.3500  141.6650 C   0  0  0  0  0  2  0  0  0  0  0  0
  191.2420  177.9870  143.0370 C   0  0  0  0  0  2  0  0  0  0  0  0
  191.4570  176.9310  144.1010 C   0  0  0  0  0  2  0  0  0  0  0  0
  191.3070  177.5630  145.4670 C   0  0  0  0  0  2  0  0  0  0  0  0
  190.5720  176.6120  146.3900 C   0  0  0  0  0  2  0  0  0  0  0  0
  185.6630  178.2270  145.7180 C   0  0  0  0  0  3  0  0  0  0  0  0
  188.2380  177.5170  146.4450 C   0  0  0  0  0  0  0  0  0  0  0  0
  189.4210  177.8650  148.2230 C   0  0  0  0  0  3  0  0  0  0  0  0
  188.1800  178.4650  148.4600 C   0  0  0  0  0  3  0  0  0  0  0  0
  187.4530  178.2260  147.3100 C   0  0  0  0  0  0  0  0  0  0  0  0
  187.7840  177.1310  145.1830 C   0  0  0  0  0  3  0  0  0  0  0  0
  186.1520  178.6030  146.9830 C   0  0  0  0  0  3  0  0  0  0  0  0
  189.4360  177.2890  146.9990 N   0  0  0  0  0  0  0  0  0  0  0  0
  186.4750  177.4970  144.8240 C   0  0  0  0  0  3  0  0  0  0  0  0
  1  5  1  0  0  0  0
  1 31  1  0  0  0  0
  2  3  2  0  0  0  0
  2  6  1  0  0  0  0
  3  1  1  0  0  0  0
  4 21  1  0  0  0  0
  6  4  1  0  0  0  0
  6  5  2  0  0  0  0
  7  2  1  0  0  0  0
  8  7  1  0  0  0  0
  9  7  2  0  0  0  0
 10  8  1  0  0  0  0
 11 15  1  0  0  0  0
 11  9  1  0  0  0  0
 12 17  1  0  0  0  0
 15 20  2  0  0  0  0
 16 13  1  0  0  0  0
 17 13  1  0  0  0  0
 17 14  2  0  0  0  0
 18 12  2  0  0  0  0
 18 15  1  0  0  0  0
 19 12  1  0  0  0  0
 19 16  2  0  0  0  0
 20 14  1  0  0  0  0
 21 22  1  0  0  0  0
 23 25  1  0  0  0  0
 23 22  1  0  0  0  0
 25 24  1  6  0  0  0
 26 25  1  0  0  0  0
 26 30  1  0  0  0  0
 27 30  2  0  0  0  0
 30 28  1  0  0  0  0
 30 29  1  0  0  0  0
 31 32  1  0  0  0  0
 32 33  1  0  0  0  0
 33 34  1  0  0  0  0
 34 35  1  0  0  0  0
 35 43  1  0  0  0  0
 36 42  1  0  0  0  0
 37 43  1  0  0  0  0
 37 40  1  0  0  0  0
 38 39  2  0  0  0  0
 40 39  1  0  0  0  0
 41 37  2  0  0  0  0
 42 40  2  0  0  0  0
 43 38  1  0  0  0  0
 44 41  1  0  0  0  0
 44 36  2  0  0  0  0
M  END
>  <MODEL>
5

>  <REMARK>
 VINA RESULT:      -8.4      4.479      7.099
  Name = 
  15 active torsions:
  status: ('A' for Active; 'I' for Inactive)
    1  A    between atoms: C_3  and  C_16
    2  A    between atoms: C_8  and  C_12
    3  A    between atoms: C_8  and  C_24
    4  A    between atoms: N_9  and  C_24
    5  A    between atoms: C_10  and  C_21
    6  A    between atoms: C_10  and  N_23
    7  A    between atoms: C_11  and  C_25
    8  A    between atoms: C_11  and  N_38
    9  A    between atoms: C_12  and  C_22
   10  A    between atoms: N_13  and  P_39
   11  A    between atoms: N_13  and  C_42
   12  A    between atoms: C_21  and  C_33
   13  A    between atoms: C_22  and  C_36
   14  A    between atoms: C_33  and  C_42
   15  A    between atoms: C_36  and  N_40
                            x       y       z     vdW  Elec       q    Type
                         _______ _______ _______ _____ _____    ______ ____

>  <TORSDO>
F 15

$$$$
=
 OpenBabel11032420513D

 44 48  0  0  1  0  0  0  0  0999 V2000
  188.7320  178.2230  138.6440 N   0  0  0  0  0  0  0  0  0  0  0  0
  189.2600  177.6220  140.6230 C   0  0  0  0  0  0  0  0  0  0  0  0
  189.6840  177.6220  139.3450 N   0  0  0  0  0  0  0  0  0  0  0  0
  187.2200  178.4980  141.7950 N   0  0  0  0  0  2  0  0  0  0  0  0
  187.7180  178.6280  139.3930 N   0  0  0  0  0  0  0  0  0  0  0  0
  188.0340  178.2540  140.6450 C   0  0  0  0  0  0  0  0  0  0  0  0
  190.0160  177.0550  141.7520 C   0  0  0  0  0  0  0  0  0  0  0  0
  189.9700  175.6360  141.9760 N   0  0  0  0  0  2  0  0  0  0  0  0
  190.6990  177.8640  142.5090 N   0  0  0  0  0  0  0  0  0  0  0  0
  190.6330  175.0070  142.9740 O   0  0  0  0  0  1  0  0  0  0  0  0
  191.4950  177.4790  143.6660 C   0  0  0  0  0  2  0  0  0  0  0  0
  188.5270  177.8810  145.9640 C   0  0  0  0  0  0  0  0  0  0  0  0
  187.9190  177.6100  148.3650 S   0  0  0  0  0  0  0  0  0  0  0  0
  190.4140  177.1060  147.2880 C   0  0  0  0  0  3  0  0  0  0  0  0
  190.6430  177.4750  144.8850 C   0  0  0  0  0  0  0  0  0  0  0  0
  186.6750  178.1480  147.3490 C   0  0  0  0  0  3  0  0  0  0  0  0
  189.0840  177.5010  147.1720 C   0  0  0  0  0  0  0  0  0  0  0  0
  189.2980  177.8770  144.8010 C   0  0  0  0  0  3  0  0  0  0  0  0
  187.1820  178.2450  146.0480 C   0  0  0  0  0  3  0  0  0  0  0  0
  191.1980  177.0970  146.1240 C   0  0  0  0  0  3  0  0  0  0  0  0
  185.9570  179.2160  141.7100 C   0  0  0  0  0  2  0  0  0  0  0  0
  184.8390  178.3670  142.2850 C   0  0  0  0  0  2  0  0  0  0  0  0
  184.0300  177.7630  141.1530 C   0  0  0  0  0  2  0  0  0  0  0  0
  182.4510  179.3080  140.0100 C   0  0  0  0  0  1  0  0  0  0  0  0
  182.6190  178.3290  141.1580 C   0  0  2  0  0  3  0  0  0  0  0  0
  182.3750  179.0180  142.4150 N   0  0  0  0  0  2  0  0  0  0  0  0
  179.9690  178.0740  141.7160 O   0  0  0  0  0  0  0  0  0  0  0  0
  180.0350  180.5710  142.4880 O   0  0  0  0  0  1  0  0  0  0  0  0
  180.3240  178.4910  144.2770 O   0  0  0  0  0  1  0  0  0  0  0  0
  180.6420  179.0070  142.6980 P   0  0  0  0  0  0  0  0  0  0  0  0
  188.8280  178.4810  137.2180 C   0  0  0  0  0  2  0  0  0  0  0  0
  189.4050  177.2660  136.5190 C   0  0  0  0  0  2  0  0  0  0  0  0
  188.5930  176.9610  135.2780 C   0  0  0  0  0  2  0  0  0  0  0  0
  188.1500  175.5150  135.3160 C   0  0  0  0  0  2  0  0  0  0  0  0
  188.0760  175.0440  136.7550 C   0  0  0  0  0  2  0  0  0  0  0  0
  183.1110  176.2690  137.7620 C   0  0  0  0  0  3  0  0  0  0  0  0
  185.6280  175.2380  137.2490 C   0  0  0  0  0  0  0  0  0  0  0  0
  186.4210  173.2240  137.2080 C   0  0  0  0  0  3  0  0  0  0  0  0
  185.0630  173.0990  137.5190 C   0  0  0  0  0  3  0  0  0  0  0  0
  184.5900  174.3970  137.5370 C   0  0  0  0  0  0  0  0  0  0  0  0
  185.4670  176.6230  137.2030 C   0  0  0  0  0  3  0  0  0  0  0  0
  183.3080  174.8760  137.8020 C   0  0  0  0  0  3  0  0  0  0  0  0
  186.7450  174.5270  137.0410 N   0  0  0  0  0  0  0  0  0  0  0  0
  184.1840  177.1360  137.4650 C   0  0  0  0  0  3  0  0  0  0  0  0
  1  3  1  0  0  0  0
  1  5  1  0  0  0  0
  2  6  1  0  0  0  0
  2  7  1  0  0  0  0
  3  2  2  0  0  0  0
  5  6  2  0  0  0  0
  6  4  1  0  0  0  0
  7  8  1  0  0  0  0
  7  9  2  0  0  0  0
  8 10  1  0  0  0  0
  9 11  1  0  0  0  0
 11 15  1  0  0  0  0
 12 19  1  0  0  0  0
 12 17  1  0  0  0  0
 15 20  2  0  0  0  0
 16 13  1  0  0  0  0
 17 14  2  0  0  0  0
 17 13  1  0  0  0  0
 18 15  1  0  0  0  0
 18 12  2  0  0  0  0
 19 16  2  0  0  0  0
 20 14  1  0  0  0  0
 21  4  1  0  0  0  0
 21 22  1  0  0  0  0
 23 25  1  0  0  0  0
 23 22  1  0  0  0  0
 25 24  1  6  0  0  0
 25 26  1  0  0  0  0
 26 30  1  0  0  0  0
 27 30  2  0  0  0  0
 28 30  1  0  0  0  0
 30 29  1  0  0  0  0
 31  1  1  0  0  0  0
 32 31  1  0  0  0  0
 33 34  1  0  0  0  0
 33 32  1  0  0  0  0
 34 35  1  0  0  0  0
 35 43  1  0  0  0  0
 36 42  1  0  0  0  0
 37 40  1  0  0  0  0
 38 39  2  0  0  0  0
 39 40  1  0  0  0  0
 40 42  2  0  0  0  0
 41 37  2  0  0  0  0
 41 44  1  0  0  0  0
 43 38  1  0  0  0  0
 43 37  1  0  0  0  0
 44 36  2  0  0  0  0
M  END
>  <MODEL>
6

>  <REMARK>
 VINA RESULT:      -8.0      4.516      9.586
  Name = 
  15 active torsions:
  status: ('A' for Active; 'I' for Inactive)
    1  A    between atoms: C_3  and  C_16
    2  A    between atoms: C_8  and  C_12
    3  A    between atoms: C_8  and  C_24
    4  A    between atoms: N_9  and  C_24
    5  A    between atoms: C_10  and  C_21
    6  A    between atoms: C_10  and  N_23
    7  A    between atoms: C_11  and  C_25
    8  A    between atoms: C_11  and  N_38
    9  A    between atoms: C_12  and  C_22
   10  A    between atoms: N_13  and  P_39
   11  A    between atoms: N_13  and  C_42
   12  A    between atoms: C_21  and  C_33
   13  A    between atoms: C_22  and  C_36
   14  A    between atoms: C_33  and  C_42
   15  A    between atoms: C_36  and  N_40
                            x       y       z     vdW  Elec       q    Type
                         _______ _______ _______ _____ _____    ______ ____

>  <TORSDO>
F 15

$$$$
=
 OpenBabel11032420513D

 44 48  0  0  1  0  0  0  0  0999 V2000
  184.3980  178.7370  143.5680 N   0  0  0  0  0  0  0  0  0  0  0  0
  183.9730  178.5080  141.4890 C   0  0  0  0  0  0  0  0  0  0  0  0
  183.4040  178.5530  142.7090 N   0  0  0  0  0  0  0  0  0  0  0  0
  186.3260  178.7240  140.6400 N   0  0  0  0  0  2  0  0  0  0  0  0
  185.5800  178.8290  142.9780 N   0  0  0  0  0  0  0  0  0  0  0  0
  185.3300  178.6840  141.6650 C   0  0  0  0  0  0  0  0  0  0  0  0
  183.2320  178.3220  140.2310 C   0  0  0  0  0  0  0  0  0  0  0  0
  182.5830  179.4560  139.6320 N   0  0  0  0  0  2  0  0  0  0  0  0
  183.1910  177.1300  139.7060 N   0  0  0  0  0  0  0  0  0  0  0  0
  181.8860  179.4020  138.4730 O   0  0  0  0  0  1  0  0  0  0  0  0
  182.5030  176.7660  138.4760 C   0  0  0  0  0  2  0  0  0  0  0  0
  183.9040  173.6160  136.9390 C   0  0  0  0  0  0  0  0  0  0  0  0
  185.7580  172.8790  135.4460 S   0  0  0  0  0  0  0  0  0  0  0  0
  185.2700  175.4900  136.2080 C   0  0  0  0  0  3  0  0  0  0  0  0
  183.3520  175.8410  137.6790 C   0  0  0  0  0  0  0  0  0  0  0  0
  184.7420  171.6490  136.0160 C   0  0  0  0  0  3  0  0  0  0  0  0
  184.9700  174.1310  136.2230 C   0  0  0  0  0  0  0  0  0  0  0  0
  183.0800  174.4620  137.6810 C   0  0  0  0  0  3  0  0  0  0  0  0
  183.7650  172.2300  136.8330 C   0  0  0  0  0  3  0  0  0  0  0  0
  184.4460  176.3500  136.9500 C   0  0  0  0  0  3  0  0  0  0  0  0
  187.7310  178.9590  140.9360 C   0  0  0  0  0  2  0  0  0  0  0  0
  188.5990  178.3230  139.8670 C   0  0  0  0  0  2  0  0  0  0  0  0
  187.7390  177.9440  138.6770 C   0  0  0  0  0  2  0  0  0  0  0  0
  188.1060  177.9990  136.2180 C   0  0  0  0  0  1  0  0  0  0  0  0
  188.6120  177.4460  137.5370 C   0  0  2  0  0  3  0  0  0  0  0  0
  188.5730  175.9930  137.4940 N   0  0  0  0  0  2  0  0  0  0  0  0
  191.0500  176.0200  136.4770 O   0  0  0  0  0  0  0  0  0  0  0  0
  190.2380  173.7300  137.4430 O   0  0  0  0  0  1  0  0  0  0  0  0
  190.8970  175.8470  139.0850 O   0  0  0  0  0  1  0  0  0  0  0  0
  190.2280  175.4140  137.5930 P   0  0  0  0  0  0  0  0  0  0  0  0
  184.2010  178.9010  144.9980 C   0  0  0  0  0  2  0  0  0  0  0  0
  185.5130  179.2840  145.6510 C   0  0  0  0  0  2  0  0  0  0  0  0
  185.6520  178.5610  146.9740 C   0  0  0  0  0  2  0  0  0  0  0  0
  187.0920  178.6370  147.4340 C   0  0  0  0  0  2  0  0  0  0  0  0
  187.6690  177.2390  147.5310 C   0  0  0  0  0  2  0  0  0  0  0  0
  189.7190  176.3900  142.8150 C   0  0  0  0  0  3  0  0  0  0  0  0
  189.0060  176.8990  145.4410 C   0  0  0  0  0  0  0  0  0  0  0  0
  190.1530  177.2560  147.2410 C   0  0  0  0  0  3  0  0  0  0  0  0
  191.0880  177.0750  146.2160 C   0  0  0  0  0  3  0  0  0  0  0  0
  190.3250  176.8500  145.0860 C   0  0  0  0  0  0  0  0  0  0  0  0
  187.9840  176.6970  144.5130 C   0  0  0  0  0  3  0  0  0  0  0  0
  190.7260  176.5960  143.7770 C   0  0  0  0  0  3  0  0  0  0  0  0
  188.8960  177.1530  146.7520 N   0  0  0  0  0  0  0  0  0  0  0  0
  188.3570  176.4390  143.1820 C   0  0  0  0  0  3  0  0  0  0  0  0
  1 31  1  0  0  0  0
  2  6  1  0  0  0  0
  2  3  2  0  0  0  0
  3  1  1  0  0  0  0
  4 21  1  0  0  0  0
  4  6  1  0  0  0  0
  5  1  1  0  0  0  0
  6  5  2  0  0  0  0
  7  2  1  0  0  0  0
  8  7  1  0  0  0  0
  9  7  2  0  0  0  0
 10  8  1  0  0  0  0
 11  9  1  0  0  0  0
 12 18  1  0  0  0  0
 13 16  1  0  0  0  0
 13 17  1  0  0  0  0
 14 17  1  0  0  0  0
 14 20  2  0  0  0  0
 15 18  2  0  0  0  0
 15 11  1  0  0  0  0
 16 19  2  0  0  0  0
 17 12  2  0  0  0  0
 19 12  1  0  0  0  0
 20 15  1  0  0  0  0
 22 21  1  0  0  0  0
 23 22  1  0  0  0  0
 25 24  1  6  0  0  0
 25 23  1  0  0  0  0
 26 25  1  0  0  0  0
 26 30  1  0  0  0  0
 27 30  2  0  0  0  0
 28 30  1  0  0  0  0
 30 29  1  0  0  0  0
 31 32  1  0  0  0  0
 32 33  1  0  0  0  0
 33 34  1  0  0  0  0
 34 35  1  0  0  0  0
 36 44  2  0  0  0  0
 36 42  1  0  0  0  0
 37 43  1  0  0  0  0
 39 38  2  0  0  0  0
 40 37  1  0  0  0  0
 40 39  1  0  0  0  0
 41 37  2  0  0  0  0
 42 40  2  0  0  0  0
 43 38  1  0  0  0  0
 43 35  1  0  0  0  0
 44 41  1  0  0  0  0
M  END
>  <MODEL>
7

>  <REMARK>
 VINA RESULT:      -7.9      3.462      5.633
  Name = 
  15 active torsions:
  status: ('A' for Active; 'I' for Inactive)
    1  A    between atoms: C_3  and  C_16
    2  A    between atoms: C_8  and  C_12
    3  A    between atoms: C_8  and  C_24
    4  A    between atoms: N_9  and  C_24
    5  A    between atoms: C_10  and  C_21
    6  A    between atoms: C_10  and  N_23
    7  A    between atoms: C_11  and  C_25
    8  A    between atoms: C_11  and  N_38
    9  A    between atoms: C_12  and  C_22
   10  A    between atoms: N_13  and  P_39
   11  A    between atoms: N_13  and  C_42
   12  A    between atoms: C_21  and  C_33
   13  A    between atoms: C_22  and  C_36
   14  A    between atoms: C_33  and  C_42
   15  A    between atoms: C_36  and  N_40
                            x       y       z     vdW  Elec       q    Type
                         _______ _______ _______ _____ _____    ______ ____

>  <TORSDO>
F 15

$$$$
=
 OpenBabel11032420513D

 44 48  0  0  1  0  0  0  0  0999 V2000
  187.8650  177.9950  139.6080 N   0  0  0  0  0  0  0  0  0  0  0  0
  189.4950  177.3370  140.8190 C   0  0  0  0  0  0  0  0  0  0  0  0
  188.2510  177.8510  140.8680 N   0  0  0  0  0  0  0  0  0  0  0  0
  191.0350  176.6440  138.9610 N   0  0  0  0  0  2  0  0  0  0  0  0
  188.7800  177.5920  138.7390 N   0  0  0  0  0  0  0  0  0  0  0  0
  189.8160  177.1760  139.4870 C   0  0  0  0  0  0  0  0  0  0  0  0
  190.3090  177.0090  142.0010 C   0  0  0  0  0  0  0  0  0  0  0  0
  190.5130  175.6280  142.3430 N   0  0  0  0  0  2  0  0  0  0  0  0
  190.8130  177.9880  142.6960 N   0  0  0  0  0  0  0  0  0  0  0  0
  191.2510  175.2130  143.3990 O   0  0  0  0  0  1  0  0  0  0  0  0
  191.6320  177.8480  143.8920 C   0  0  0  0  0  2  0  0  0  0  0  0
  188.6550  177.8740  146.2120 C   0  0  0  0  0  0  0  0  0  0  0  0
  187.9950  177.0900  148.4830 S   0  0  0  0  0  0  0  0  0  0  0  0
  190.4760  176.7090  147.3260 C   0  0  0  0  0  3  0  0  0  0  0  0
  190.7620  177.6100  145.0740 C   0  0  0  0  0  0  0  0  0  0  0  0
  186.7980  177.9170  147.6160 C   0  0  0  0  0  3  0  0  0  0  0  0
  189.1710  177.1940  147.3000 C   0  0  0  0  0  0  0  0  0  0  0  0
  189.4430  178.0950  145.0820 C   0  0  0  0  0  3  0  0  0  0  0  0
  187.3300  178.2840  146.3740 C   0  0  0  0  0  3  0  0  0  0  0  0
  191.2770  176.9260  146.1940 C   0  0  0  0  0  3  0  0  0  0  0  0
  191.2530  176.4780  137.5320 C   0  0  0  0  0  2  0  0  0  0  0  0
  191.2270  175.0050  137.1710 C   0  0  0  0  0  2  0  0  0  0  0  0
  192.2270  174.7390  136.0620 C   0  0  0  0  0  2  0  0  0  0  0  0
  194.2800  175.9650  135.3790 C   0  0  0  0  0  1  0  0  0  0  0  0
  193.6170  175.1780  136.4940 C   0  0  2  0  0  3  0  0  0  0  0  0
  194.4240  174.0070  136.8000 N   0  0  0  0  0  2  0  0  0  0  0  0
  195.5050  173.1590  139.0970 O   0  0  0  0  0  1  0  0  0  0  0  0
  194.6440  175.6270  139.0840 O   0  0  0  0  0  1  0  0  0  0  0  0
  196.9340  174.8830  137.7390 O   0  0  0  0  0  0  0  0  0  0  0  0
  195.3900  174.3840  138.2160 P   0  0  0  0  0  0  0  0  0  0  0  0
  186.5480  178.4700  139.2220 C   0  0  0  0  0  2  0  0  0  0  0  0
  186.1030  177.7650  137.9570 C   0  0  0  0  0  2  0  0  0  0  0  0
  184.5950  177.8330  137.8400 C   0  0  0  0  0  2  0  0  0  0  0  0
  184.0350  178.5580  139.0440 C   0  0  0  0  0  2  0  0  0  0  0  0
  182.9450  177.7180  139.6810 C   0  0  0  0  0  2  0  0  0  0  0  0
  184.4840  178.9560  144.5050 C   0  0  0  0  0  3  0  0  0  0  0  0
  183.3150  178.4580  142.0450 C   0  0  0  0  0  0  0  0  0  0  0  0
  181.3100  178.7300  141.2790 C   0  0  0  0  0  3  0  0  0  0  0  0
  181.2830  179.1830  142.6030 C   0  0  0  0  0  3  0  0  0  0  0  0
  182.5740  178.9960  143.0600 C   0  0  0  0  0  0  0  0  0  0  0  0
  184.6650  178.1420  142.2040 C   0  0  0  0  0  3  0  0  0  0  0  0
  183.1240  179.2610  144.3110 C   0  0  0  0  0  3  0  0  0  0  0  0
  182.5510  178.3010  140.9560 N   0  0  0  0  0  0  0  0  0  0  0  0
  185.2490  178.3990  143.4570 C   0  0  0  0  0  3  0  0  0  0  0  0
  1  3  1  0  0  0  0
  2  3  2  0  0  0  0
  2  7  1  0  0  0  0
  4  6  1  0  0  0  0
  5  6  2  0  0  0  0
  5  1  1  0  0  0  0
  6  2  1  0  0  0  0
  7  8  1  0  0  0  0
  7  9  2  0  0  0  0
  8 10  1  0  0  0  0
  9 11  1  0  0  0  0
 11 15  1  0  0  0  0
 12 19  1  0  0  0  0
 12 17  1  0  0  0  0
 15 18  1  0  0  0  0
 15 20  2  0  0  0  0
 16 13  1  0  0  0  0
 17 14  2  0  0  0  0
 17 13  1  0  0  0  0
 18 12  2  0  0  0  0
 19 16  2  0  0  0  0
 20 14  1  0  0  0  0
 21  4  1  0  0  0  0
 22 21  1  0  0  0  0
 23 25  1  0  0  0  0
 23 22  1  0  0  0  0
 25 24  1  6  0  0  0
 25 26  1  0  0  0  0
 26 30  1  0  0  0  0
 29 30  2  0  0  0  0
 30 28  1  0  0  0  0
 30 27  1  0  0  0  0
 31  1  1  0  0  0  0
 32 31  1  0  0  0  0
 33 32  1  0  0  0  0
 33 34  1  0  0  0  0
 34 35  1  0  0  0  0
 35 43  1  0  0  0  0
 37 41  2  0  0  0  0
 37 40  1  0  0  0  0
 38 39  2  0  0  0  0
 39 40  1  0  0  0  0
 40 42  2  0  0  0  0
 41 44  1  0  0  0  0
 42 36  1  0  0  0  0
 43 38  1  0  0  0  0
 43 37  1  0  0  0  0
 44 36  2  0  0  0  0
M  END
>  <MODEL>
8

>  <REMARK>
 VINA RESULT:      -7.9      2.514      6.146
  Name = 
  15 active torsions:
  status: ('A' for Active; 'I' for Inactive)
    1  A    between atoms: C_3  and  C_16
    2  A    between atoms: C_8  and  C_12
    3  A    between atoms: C_8  and  C_24
    4  A    between atoms: N_9  and  C_24
    5  A    between atoms: C_10  and  C_21
    6  A    between atoms: C_10  and  N_23
    7  A    between atoms: C_11  and  C_25
    8  A    between atoms: C_11  and  N_38
    9  A    between atoms: C_12  and  C_22
   10  A    between atoms: N_13  and  P_39
   11  A    between atoms: N_13  and  C_42
   12  A    between atoms: C_21  and  C_33
   13  A    between atoms: C_22  and  C_36
   14  A    between atoms: C_33  and  C_42
   15  A    between atoms: C_36  and  N_40
                            x       y       z     vdW  Elec       q    Type
                         _______ _______ _______ _____ _____    ______ ____

>  <TORSDO>
F 15

$$$$
=
 OpenBabel11032420513D

 44 48  0  0  1  0  0  0  0  0999 V2000
  187.8620  177.6230  138.1620 N   0  0  0  0  0  0  0  0  0  0  0  0
  189.2940  177.0800  139.6490 C   0  0  0  0  0  0  0  0  0  0  0  0
  188.2590  177.9040  139.3970 N   0  0  0  0  0  0  0  0  0  0  0  0
  190.4580  175.2750  138.3490 N   0  0  0  0  0  2  0  0  0  0  0  0
  188.5690  176.6540  137.6010 N   0  0  0  0  0  0  0  0  0  0  0  0
  189.4790  176.3020  138.5250 C   0  0  0  0  0  0  0  0  0  0  0  0
  190.0410  177.0460  140.9170 C   0  0  0  0  0  0  0  0  0  0  0  0
  191.4080  177.4900  140.9300 N   0  0  0  0  0  2  0  0  0  0  0  0
  189.4340  176.6100  141.9830 N   0  0  0  0  0  0  0  0  0  0  0  0
  192.1840  177.5140  142.0390 O   0  0  0  0  0  1  0  0  0  0  0  0
  190.0190  176.5020  143.3120 C   0  0  0  0  0  2  0  0  0  0  0  0
  186.8800  177.8580  144.9110 C   0  0  0  0  0  0  0  0  0  0  0  0
  186.0260  178.5730  147.1400 S   0  0  0  0  0  0  0  0  0  0  0  0
  188.5710  177.6170  146.6410 C   0  0  0  0  0  3  0  0  0  0  0  0
  189.0550  177.0020  144.3280 C   0  0  0  0  0  0  0  0  0  0  0  0
  184.9270  178.7010  145.8570 C   0  0  0  0  0  3  0  0  0  0  0  0
  187.2900  177.9700  146.2270 C   0  0  0  0  0  0  0  0  0  0  0  0
  187.7570  177.3750  143.9390 C   0  0  0  0  0  3  0  0  0  0  0  0
  185.5620  178.2640  144.6900 C   0  0  0  0  0  3  0  0  0  0  0  0
  189.4600  177.1280  145.6730 C   0  0  0  0  0  3  0  0  0  0  0  0
  190.5380  174.4830  137.1310 C   0  0  0  0  0  2  0  0  0  0  0  0
  191.7030  174.9530  136.2830 C   0  0  0  0  0  2  0  0  0  0  0  0
  192.9460  174.1680  136.6520 C   0  0  0  0  0  2  0  0  0  0  0  0
  193.6060  176.5130  137.1530 C   0  0  0  0  0  1  0  0  0  0  0  0
  193.9150  175.0520  137.4210 C   0  0  2  0  0  3  0  0  0  0  0  0
  195.2760  174.7650  136.9990 N   0  0  0  0  0  2  0  0  0  0  0  0
  197.6490  174.2870  138.1430 O   0  0  0  0  0  0  0  0  0  0  0  0
  195.7410  172.5970  138.7250 O   0  0  0  0  0  1  0  0  0  0  0  0
  195.7720  175.1590  139.7470 O   0  0  0  0  0  1  0  0  0  0  0  0
  196.1620  174.2030  138.4070 P   0  0  0  0  0  0  0  0  0  0  0  0
  186.7210  178.2570  137.5240 C   0  0  0  0  0  2  0  0  0  0  0  0
  185.6130  177.2400  137.3380 C   0  0  0  0  0  2  0  0  0  0  0  0
  184.3740  177.6970  138.0780 C   0  0  0  0  0  2  0  0  0  0  0  0
  184.6930  178.9560  138.8530 C   0  0  0  0  0  2  0  0  0  0  0  0
  184.2950  178.7750  140.3050 C   0  0  0  0  0  2  0  0  0  0  0  0
  180.2870  178.8480  143.6360 C   0  0  0  0  0  3  0  0  0  0  0  0
  182.1490  178.9100  141.5880 C   0  0  0  0  0  0  0  0  0  0  0  0
  181.9860  179.2200  139.4520 C   0  0  0  0  0  3  0  0  0  0  0  0
  180.6850  179.3160  139.9570 C   0  0  0  0  0  3  0  0  0  0  0  0
  180.8240  179.1140  141.3170 C   0  0  0  0  0  0  0  0  0  0  0  0
  182.6080  178.6660  142.8820 C   0  0  0  0  0  3  0  0  0  0  0  0
  179.8570  179.0900  142.3180 C   0  0  0  0  0  3  0  0  0  0  0  0
  182.8620  178.9810  140.4560 N   0  0  0  0  0  0  0  0  0  0  0  0
  181.6540  178.6360  143.9150 C   0  0  0  0  0  3  0  0  0  0  0  0
  1  3  1  0  0  0  0
  2  7  1  0  0  0  0
  3  2  2  0  0  0  0
  4  6  1  0  0  0  0
  5  1  1  0  0  0  0
  5  6  2  0  0  0  0
  6  2  1  0  0  0  0
  7  8  1  0  0  0  0
  7  9  2  0  0  0  0
  8 10  1  0  0  0  0
  9 11  1  0  0  0  0
 11 15  1  0  0  0  0
 12 17  1  0  0  0  0
 15 20  2  0  0  0  0
 16 13  1  0  0  0  0
 17 14  2  0  0  0  0
 17 13  1  0  0  0  0
 18 15  1  0  0  0  0
 18 12  2  0  0  0  0
 19 12  1  0  0  0  0
 19 16  2  0  0  0  0
 20 14  1  0  0  0  0
 21  4  1  0  0  0  0
 22 23  1  0  0  0  0
 22 21  1  0  0  0  0
 23 25  1  0  0  0  0
 25 24  1  6  0  0  0
 26 25  1  0  0  0  0
 26 30  1  0  0  0  0
 27 30  2  0  0  0  0
 30 28  1  0  0  0  0
 30 29  1  0  0  0  0
 31  1  1  0  0  0  0
 32 31  1  0  0  0  0
 32 33  1  0  0  0  0
 33 34  1  0  0  0  0
 34 35  1  0  0  0  0
 35 43  1  0  0  0  0
 36 44  1  0  0  0  0
 37 41  1  0  0  0  0
 38 39  2  0  0  0  0
 38 43  1  0  0  0  0
 39 40  1  0  0  0  0
 40 37  2  0  0  0  0
 40 42  1  0  0  0  0
 41 44  2  0  0  0  0
 42 36  2  0  0  0  0
 43 37  1  0  0  0  0
M  END
>  <MODEL>
9

>  <REMARK>
 VINA RESULT:      -7.9      2.152      5.595
  Name = 
  15 active torsions:
  status: ('A' for Active; 'I' for Inactive)
    1  A    between atoms: C_3  and  C_16
    2  A    between atoms: C_8  and  C_12
    3  A    between atoms: C_8  and  C_24
    4  A    between atoms: N_9  and  C_24
    5  A    between atoms: C_10  and  C_21
    6  A    between atoms: C_10  and  N_23
    7  A    between atoms: C_11  and  C_25
    8  A    between atoms: C_11  and  N_38
    9  A    between atoms: C_12  and  C_22
   10  A    between atoms: N_13  and  P_39
   11  A    between atoms: N_13  and  C_42
   12  A    between atoms: C_21  and  C_33
   13  A    between atoms: C_22  and  C_36
   14  A    between atoms: C_33  and  C_42
   15  A    between atoms: C_36  and  N_40
                            x       y       z     vdW  Elec       q    Type
                         _______ _______ _______ _____ _____    ______ ____

>  <TORSDO>
F 15

$$$$
