=
 OpenBabel11042413273D

 56 67  0  0  1  0  0  0  0  0999 V2000
  188.9120  177.0930  138.4620 C   0  0  0  0  0  0  0  0  0  0  0  0
  187.6260  176.9110  137.9990 C   0  0  0  0  0  3  0  0  0  0  0  0
  187.6230  175.9350  137.0620 N   0  0  0  0  0  0  0  0  0  0  0  0
  189.7420  176.1880  137.8250 C   0  0  0  0  0  3  0  0  0  0  0  0
  188.9100  175.5100  136.9420 C   0  0  0  0  0  0  0  0  0  0  0  0
  191.6590  174.7100  137.2060 C   0  0  0  0  0  3  0  0  0  0  0  0
  195.1700  173.2160  139.1520 O   0  0  0  0  0  0  0  0  0  0  0  0
  193.8350  173.5460  136.8670 N   0  0  0  0  0  0  0  0  0  0  0  0
  193.6420  172.6160  135.7380 C   0  0  1  0  0  3  0  0  0  0  0  0
  192.5190  172.9160  134.7770 C   0  0  0  0  0  3  0  0  0  0  0  0
  196.2040  171.9600  136.9930 C   0  0  2  0  0  3  0  0  0  0  0  0
  195.8780  169.6280  136.6280 N   0  0  0  0  0  2  0  0  0  0  0  0
  195.9360  171.7530  135.5010 C   0  0  2  0  0  3  0  0  0  0  0  0
  189.6750  173.0850  137.0200 C   0  0  0  0  0  2  0  0  0  0  0  0
  195.7290  170.6750  137.6380 C   0  0  0  0  0  2  0  0  0  0  0  0
  194.8700  172.5990  134.9330 N   0  0  0  0  0  2  0  0  0  0  0  0
  195.6060  170.2730  135.3470 C   0  0  0  0  0  2  0  0  0  0  0  0
  195.3630  173.3910  137.6680 S   0  0  0  0  0  0  0  0  0  0  0  0
  196.1920  174.6200  137.4080 O   0  0  0  0  0  0  0  0  0  0  0  0
  191.3030  173.3860  135.0300 C   0  0  0  0  0  3  0  0  0  0  0  0
  190.7960  173.8400  136.3500 C   0  0  2  0  0  0  0  0  0  0  0  0
  189.3490  174.2980  136.1460 C   0  0  2  0  0  3  0  0  0  0  0  0
  192.9640  174.5520  137.4180 C   0  0  0  0  0  3  0  0  0  0  0  0
  186.0380  178.5150  142.8350 C   0  0  0  0  0  3  0  0  0  0  0  0
  188.2330  178.0390  140.6830 C   0  0  0  0  0  0  0  0  0  0  0  0
  186.7860  177.2690  144.7640 N   0  0  0  0  0  0  0  0  0  0  0  0
  190.3400  177.7910  141.7050 N   0  0  0  0  0  0  0  0  0  0  0  0
  189.2440  178.0210  139.5870 C   0  0  1  0  0  3  0  0  0  0  0  0
  187.7740  177.1480  146.9600 C   0  0  0  0  0  1  0  0  0  0  0  0
  189.3920  177.6440  144.6510 S   0  0  0  0  0  0  0  0  0  0  0  0
  186.9680  177.4620  143.3500 C   0  0  2  0  0  3  0  0  0  0  0  0
  190.5820  177.7140  140.2680 C   0  0  0  0  0  2  0  0  0  0  0  0
  187.0000  178.5330  140.5010 C   0  0  0  0  0  3  0  0  0  0  0  0
  187.8590  177.2540  145.4780 C   0  0  0  0  0  0  0  0  0  0  0  0
  188.4020  177.8120  143.1640 C   0  0  2  0  0  3  0  0  0  0  0  0
  186.0340  178.9270  141.5600 C   0  0  0  0  0  3  0  0  0  0  0  0
  188.9500  177.8900  141.9420 C   0  0  0  0  0  0  0  0  0  0  0  0
  184.7400  174.2310  137.8430 N   0  0  0  0  0  2  0  0  0  0  0  0
  185.8490  175.7980  135.3540 C   0  0  0  0  0  0  0  0  0  0  0  0
  185.8990  174.1560  137.0630 N   0  0  0  0  0  2  0  0  0  0  0  0
  182.4250  174.0440  134.7680 N   0  0  2  0  0  0  0  0  0  0  0  0
  182.4300  175.1140  137.4440 C   0  0  0  0  0  2  0  0  0  0  0  0
  186.4340  175.3320  136.4790 C   0  0  0  0  0  0  0  0  0  0  0  0
  183.7570  174.1050  135.4230 C   0  0  1  0  0  3  0  0  0  0  0  0
  184.5960  175.2110  134.7360 C   0  0  0  0  0  2  0  0  0  0  0  0
  182.0210  176.0510  136.3120 C   0  0  0  0  0  2  0  0  0  0  0  0
  181.6060  175.2580  135.0590 C   0  0  0  0  0  2  0  0  0  0  0  0
  183.5690  174.2230  136.9650 C   0  0  1  0  0  3  0  0  0  0  0  0
  186.3940  176.8830  134.6740 O   0  0  0  0  0  1  0  0  0  0  0  0
  182.4300  171.5630  134.5940 C   0  0  2  0  0  3  0  0  0  0  0  0
  182.9940  170.7020  135.7130 C   0  0  0  0  0  2  0  0  0  0  0  0
  180.5140  170.4590  135.8740 C   0  0  0  0  0  2  0  0  0  0  0  0
  181.7290  172.8030  135.1800 C   0  0  2  0  0  3  0  0  0  0  0  0
  180.2350  172.7570  134.7830 C   0  0  0  0  0  2  0  0  0  0  0  0
  181.7430  170.2440  134.9860 C   0  0  1  0  0  3  0  0  0  0  0  0
  179.5430  171.4610  135.2470 C   0  0  0  0  0  2  0  0  0  0  0  0
  2  1  2  0  0  0  0
  3  2  1  0  0  0  0
  4  1  1  0  0  0  0
  5  3  1  0  0  0  0
  5  4  2  0  0  0  0
  6 23  2  0  0  0  0
  8 23  1  0  0  0  0
  8 18  1  0  0  0  0
  9 10  1  6  0  0  0
  9  8  1  0  0  0  0
 10 20  2  0  0  0  0
 11 15  1  1  0  0  0
 11 18  1  0  0  0  0
 12 15  1  0  0  0  0
 13 17  1  1  0  0  0
 13 11  1  0  0  0  0
 16 13  1  0  0  0  0
 16  9  1  0  0  0  0
 17 12  1  0  0  0  0
 18  7  2  0  0  0  0
 19 18  2  0  0  0  0
 21 20  1  6  0  0  0
 21 14  1  0  0  0  0
 21  6  1  0  0  0  0
 22 21  1  0  0  0  0
 22  5  1  1  0  0  0
 22 14  1  0  0  0  0
 25 37  1  0  0  0  0
 26 34  2  0  0  0  0
 27 37  2  0  0  0  0
 28  1  1  6  0  0  0
 28 32  1  0  0  0  0
 28 25  1  0  0  0  0
 30 34  1  0  0  0  0
 31 24  1  1  0  0  0
 31 26  1  0  0  0  0
 32 27  1  0  0  0  0
 33 25  2  0  0  0  0
 33 36  1  0  0  0  0
 34 29  1  0  0  0  0
 35 37  1  6  0  0  0
 35 31  1  0  0  0  0
 35 30  1  0  0  0  0
 36 24  2  0  0  0  0
 39 43  2  0  0  0  0
 40 38  1  0  0  0  0
 41 47  1  1  0  0  0
 41 53  1  0  0  0  0
 41 44  1  0  0  0  0
 43  3  1  0  0  0  0
 43 40  1  0  0  0  0
 44 45  1  6  0  0  0
 44 48  1  0  0  0  0
 45 39  1  0  0  0  0
 46 42  1  0  0  0  0
 47 46  1  0  0  0  0
 48 42  1  6  0  0  0
 48 38  1  0  0  0  0
 49 39  1  0  0  0  0
 50 55  1  0  0  0  0
 50 53  1  0  0  0  0
 50 51  1  1  0  0  0
 53 54  1  6  0  0  0
 54 56  1  0  0  0  0
 55 51  1  1  0  0  0
 55 52  1  0  0  0  0
 56 52  1  0  0  0  0
M  END
>  <MODEL>
1

>  <REMARK>
 VINA RESULT:      -9.6      0.000      0.000
  Name = 
  4 active torsions:
  status: ('A' for Active; 'I' for Inactive)
    1  A    between atoms: C_9  and  C_17
    2  A    between atoms: N_23  and  C_36
    3  A    between atoms: N_27  and  C_34
    4  A    between atoms: C_33  and  C_54
                            x       y       z     vdW  Elec       q    Type
                         _______ _______ _______ _____ _____    ______ ____

>  <TORSDO>
F 4

$$$$
=
 OpenBabel11042413273D

 56 67  0  0  1  0  0  0  0  0999 V2000
  191.7650  175.8160  136.9260 C   0  0  0  0  0  0  0  0  0  0  0  0
  191.9880  175.9330  138.2820 C   0  0  0  0  0  3  0  0  0  0  0  0
  191.1190  176.8310  138.8020 N   0  0  0  0  0  0  0  0  0  0  0  0
  190.7090  176.6400  136.5810 C   0  0  0  0  0  3  0  0  0  0  0  0
  190.3570  177.2750  137.7660 C   0  0  0  0  0  0  0  0  0  0  0  0
  187.8100  176.0240  137.3000 C   0  0  0  0  0  3  0  0  0  0  0  0
  184.5280  173.3620  138.0020 O   0  0  0  0  0  0  0  0  0  0  0  0
  185.3680  175.6670  136.9560 N   0  0  0  0  0  0  0  0  0  0  0  0
  184.7430  177.0020  136.9770 C   0  0  1  0  0  3  0  0  0  0  0  0
  185.6230  178.1860  136.6670 C   0  0  0  0  0  3  0  0  0  0  0  0
  182.5940  175.0170  137.0970 C   0  0  2  0  0  3  0  0  0  0  0  0
  181.3130  176.3740  138.5800 N   0  0  0  0  0  2  0  0  0  0  0  0
  182.4180  176.3900  136.4430 C   0  0  2  0  0  3  0  0  0  0  0  0
  188.2640  177.7840  139.1190 C   0  0  0  0  0  2  0  0  0  0  0  0
  182.2540  175.2540  138.5540 C   0  0  0  0  0  2  0  0  0  0  0  0
  183.6640  177.0270  135.9800 N   0  0  0  0  0  2  0  0  0  0  0  0
  181.7120  177.2510  137.4830 C   0  0  0  0  0  2  0  0  0  0  0  0
  184.2440  174.3500  136.9000 S   0  0  0  0  0  0  0  0  0  0  0  0
  184.3440  173.6620  135.5660 O   0  0  0  0  0  0  0  0  0  0  0  0
  186.8850  178.4070  137.0180 C   0  0  0  0  0  3  0  0  0  0  0  0
  187.7750  177.4550  137.7300 C   0  0  2  0  0  0  0  0  0  0  0  0
  189.1290  178.1500  137.9100 C   0  0  2  0  0  3  0  0  0  0  0  0
  186.7550  175.2760  136.9840 C   0  0  0  0  0  3  0  0  0  0  0  0
  197.0260  175.3500  135.6960 C   0  0  0  0  0  3  0  0  0  0  0  0
  193.9670  174.9510  136.0940 C   0  0  0  0  0  0  0  0  0  0  0  0
  198.0520  173.6460  137.0650 N   0  0  0  0  0  0  0  0  0  0  0  0
  193.4770  172.6740  136.4440 N   0  0  0  0  0  0  0  0  0  0  0  0
  192.4820  174.8200  136.0710 C   0  0  1  0  0  3  0  0  0  0  0  0
  199.1800  171.5310  137.3310 C   0  0  0  0  0  1  0  0  0  0  0  0
  196.3810  171.6350  136.7390 S   0  0  0  0  0  0  0  0  0  0  0  0
  196.8300  174.3550  136.7950 C   0  0  2  0  0  3  0  0  0  0  0  0
  192.1910  173.3630  136.4440 C   0  0  0  0  0  2  0  0  0  0  0  0
  194.5920  176.0120  135.5640 C   0  0  0  0  0  3  0  0  0  0  0  0
  197.9600  172.3630  137.1430 C   0  0  0  0  0  0  0  0  0  0  0  0
  195.8160  173.3160  136.4650 C   0  0  2  0  0  3  0  0  0  0  0  0
  196.0340  176.1100  135.2120 C   0  0  0  0  0  3  0  0  0  0  0  0
  194.5190  173.6240  136.3300 C   0  0  0  0  0  0  0  0  0  0  0  0
  189.4610  175.6930  141.5910 N   0  0  0  0  0  2  0  0  0  0  0  0
  191.8700  177.6280  141.0110 C   0  0  0  0  0  0  0  0  0  0  0  0
  189.6490  176.8290  140.7950 N   0  0  0  0  0  2  0  0  0  0  0  0
  190.8020  177.4480  144.7490 N   0  0  2  0  0  0  0  0  0  0  0  0
  190.5960  174.7970  143.6360 C   0  0  0  0  0  2  0  0  0  0  0  0
  190.9200  177.0850  140.2200 C   0  0  0  0  0  0  0  0  0  0  0  0
  190.4750  177.3930  143.3010 C   0  0  1  0  0  3  0  0  0  0  0  0
  191.7050  177.8800  142.4960 C   0  0  0  0  0  2  0  0  0  0  0  0
  191.9600  175.2360  144.1600 C   0  0  0  0  0  2  0  0  0  0  0  0
  191.8250  176.4270  145.1260 C   0  0  0  0  0  2  0  0  0  0  0  0
  189.9220  175.9790  142.9510 C   0  0  1  0  0  3  0  0  0  0  0  0
  193.1000  178.0030  140.4790 O   0  0  0  0  0  1  0  0  0  0  0  0
  188.4640  178.2490  145.0260 C   0  0  2  0  0  3  0  0  0  0  0  0
  187.2940  177.4500  144.4760 C   0  0  0  0  0  2  0  0  0  0  0  0
  187.2290  177.1050  146.9490 C   0  0  0  0  0  2  0  0  0  0  0  0
  189.5610  177.2970  145.5420 C   0  0  2  0  0  3  0  0  0  0  0  0
  189.7480  177.5390  147.0580 C   0  0  0  0  0  2  0  0  0  0  0  0
  187.1520  178.1380  145.8200 C   0  0  1  0  0  3  0  0  0  0  0  0
  188.4390  177.3540  147.8490 C   0  0  0  0  0  2  0  0  0  0  0  0
  1  2  2  0  0  0  0
  2  3  1  0  0  0  0
  3 43  1  0  0  0  0
  4  1  1  0  0  0  0
  4  5  2  0  0  0  0
  5  3  1  0  0  0  0
  6 21  1  0  0  0  0
  8  9  1  0  0  0  0
  8 23  1  0  0  0  0
  9 10  1  6  0  0  0
 10 20  2  0  0  0  0
 11 15  1  1  0  0  0
 13 11  1  0  0  0  0
 13 17  1  1  0  0  0
 15 12  1  0  0  0  0
 16 13  1  0  0  0  0
 16  9  1  0  0  0  0
 17 12  1  0  0  0  0
 18  8  1  0  0  0  0
 18 11  1  0  0  0  0
 18  7  2  0  0  0  0
 19 18  2  0  0  0  0
 21 20  1  6  0  0  0
 21 22  1  0  0  0  0
 21 14  1  0  0  0  0
 22  5  1  1  0  0  0
 22 14  1  0  0  0  0
 23  6  2  0  0  0  0
 25 37  1  0  0  0  0
 26 34  2  0  0  0  0
 28 25  1  0  0  0  0
 28 32  1  0  0  0  0
 28  1  1  1  0  0  0
 30 34  1  0  0  0  0
 31 24  1  6  0  0  0
 31 26  1  0  0  0  0
 32 27  1  0  0  0  0
 33 25  2  0  0  0  0
 34 29  1  0  0  0  0
 35 37  1  1  0  0  0
 35 30  1  0  0  0  0
 35 31  1  0  0  0  0
 36 33  1  0  0  0  0
 36 24  2  0  0  0  0
 37 27  2  0  0  0  0
 38 48  1  0  0  0  0
 39 45  1  0  0  0  0
 40 38  1  0  0  0  0
 41 47  1  1  0  0  0
 41 53  1  0  0  0  0
 42 46  1  0  0  0  0
 43 40  1  0  0  0  0
 43 39  2  0  0  0  0
 44 45  1  6  0  0  0
 44 41  1  0  0  0  0
 46 47  1  0  0  0  0
 48 44  1  0  0  0  0
 48 42  1  6  0  0  0
 49 39  1  0  0  0  0
 50 51  1  6  0  0  0
 50 53  1  0  0  0  0
 50 55  1  0  0  0  0
 52 56  1  0  0  0  0
 53 54  1  1  0  0  0
 54 56  1  0  0  0  0
 55 51  1  6  0  0  0
 55 52  1  0  0  0  0
M  END
>  <MODEL>
2

>  <REMARK>
 VINA RESULT:      -9.3      2.985     10.856
  Name = 
  4 active torsions:
  status: ('A' for Active; 'I' for Inactive)
    1  A    between atoms: C_9  and  C_17
    2  A    between atoms: N_23  and  C_36
    3  A    between atoms: N_27  and  C_34
    4  A    between atoms: C_33  and  C_54
                            x       y       z     vdW  Elec       q    Type
                         _______ _______ _______ _____ _____    ______ ____

>  <TORSDO>
F 4

$$$$
=
 OpenBabel11042413273D

 56 67  0  0  1  0  0  0  0  0999 V2000
  188.1930  176.1410  136.5070 C   0  0  0  0  0  0  0  0  0  0  0  0
  187.8620  176.3570  137.8270 C   0  0  0  0  0  3  0  0  0  0  0  0
  188.9930  176.5380  138.5480 N   0  0  0  0  0  0  0  0  0  0  0  0
  189.5690  176.2160  136.3790 C   0  0  0  0  0  3  0  0  0  0  0  0
  190.0300  176.4330  137.6730 C   0  0  0  0  0  0  0  0  0  0  0  0
  191.9750  174.3970  137.0910 C   0  0  0  0  0  3  0  0  0  0  0  0
  194.3530  171.7800  134.6730 O   0  0  0  0  0  0  0  0  0  0  0  0
  194.1120  173.1220  136.9650 N   0  0  0  0  0  0  0  0  0  0  0  0
  195.1110  173.9050  137.7160 C   0  0  1  0  0  3  0  0  0  0  0  0
  194.5980  174.8790  138.7470 C   0  0  0  0  0  3  0  0  0  0  0  0
  196.5450  171.8130  136.2540 C   0  0  2  0  0  3  0  0  0  0  0  0
  198.3820  173.2650  135.8150 N   0  0  0  0  0  2  0  0  0  0  0  0
  197.0320  172.3690  137.5940 C   0  0  2  0  0  3  0  0  0  0  0  0
  192.3540  176.9190  136.7600 C   0  0  0  0  0  2  0  0  0  0  0  0
  197.1520  172.7410  135.2230 C   0  0  0  0  0  2  0  0  0  0  0  0
  195.9860  172.9720  138.4390 N   0  0  0  0  0  2  0  0  0  0  0  0
  198.1130  173.3860  137.2450 C   0  0  0  0  0  2  0  0  0  0  0  0
  194.7590  171.7530  136.1240 S   0  0  0  0  0  0  0  0  0  0  0  0
  194.2580  170.4880  136.7660 O   0  0  0  0  0  0  0  0  0  0  0  0
  193.5310  175.6670  138.6970 C   0  0  0  0  0  3  0  0  0  0  0  0
  192.5080  175.6890  137.6210 C   0  0  2  0  0  0  0  0  0  0  0  0
  191.4730  176.7530  138.0010 C   0  0  2  0  0  3  0  0  0  0  0  0
  192.6920  173.3120  136.8070 C   0  0  0  0  0  3  0  0  0  0  0  0
  184.4010  172.3620  135.6460 C   0  0  0  0  0  3  0  0  0  0  0  0
  186.2080  174.8940  135.6190 C   0  0  0  0  0  0  0  0  0  0  0  0
  182.2540  173.1450  136.4250 N   0  0  0  0  0  0  0  0  0  0  0  0
  184.9280  176.8060  135.1170 N   0  0  0  0  0  0  0  0  0  0  0  0
  187.1680  176.0170  135.4240 C   0  0  1  0  0  3  0  0  0  0  0  0
  179.9620  173.7880  136.0400 C   0  0  0  0  0  1  0  0  0  0  0  0
  182.1160  175.5160  135.2820 S   0  0  0  0  0  0  0  0  0  0  0  0
  183.6510  173.4710  136.3130 C   0  0  2  0  0  3  0  0  0  0  0  0
  186.3050  177.2700  135.2450 C   0  0  0  0  0  2  0  0  0  0  0  0
  186.5930  173.6120  135.5430 C   0  0  0  0  0  3  0  0  0  0  0  0
  181.4260  174.0580  136.0460 C   0  0  0  0  0  0  0  0  0  0  0  0
  183.7160  174.7520  135.5590 C   0  0  2  0  0  3  0  0  0  0  0  0
  185.7110  172.4270  135.3710 C   0  0  0  0  0  3  0  0  0  0  0  0
  184.8660  175.4280  135.4280 C   0  0  0  0  0  0  0  0  0  0  0  0
  190.1500  175.6560  141.6630 N   0  0  0  0  0  2  0  0  0  0  0  0
  189.0750  178.2750  140.2970 C   0  0  0  0  0  0  0  0  0  0  0  0
  188.9870  176.0030  140.9660 N   0  0  0  0  0  2  0  0  0  0  0  0
  189.8020  178.6180  144.1040 N   0  0  2  0  0  0  0  0  0  0  0  0
  191.8580  176.9590  142.9520 C   0  0  0  0  0  2  0  0  0  0  0  0
  189.0460  176.9740  139.9340 C   0  0  0  0  0  0  0  0  0  0  0  0
  189.3800  177.8110  142.9310 C   0  0  1  0  0  3  0  0  0  0  0  0
  189.1590  178.7620  141.7290 C   0  0  0  0  0  2  0  0  0  0  0  0
  192.0550  178.4700  142.8890 C   0  0  0  0  0  2  0  0  0  0  0  0
  191.1700  179.1880  143.9240 C   0  0  0  0  0  2  0  0  0  0  0  0
  190.3860  176.6400  142.7220 C   0  0  1  0  0  3  0  0  0  0  0  0
  189.0230  179.2770  139.3320 O   0  0  0  0  0  1  0  0  0  0  0  0
  188.6640  178.3680  146.3020 C   0  0  2  0  0  3  0  0  0  0  0  0
  187.5180  177.3860  146.4820 C   0  0  0  0  0  2  0  0  0  0  0  0
  189.4740  176.3420  147.6320 C   0  0  0  0  0  2  0  0  0  0  0  0
  189.7110  177.7910  145.3300 C   0  0  2  0  0  3  0  0  0  0  0  0
  191.0510  177.6350  146.0860 C   0  0  0  0  0  2  0  0  0  0  0  0
  188.5330  177.5510  147.5970 C   0  0  1  0  0  3  0  0  0  0  0  0
  190.9180  176.7540  147.3420 C   0  0  0  0  0  2  0  0  0  0  0  0
  1  2  2  0  0  0  0
  2  3  1  0  0  0  0
  3 43  1  0  0  0  0
  4  1  1  0  0  0  0
  4  5  2  0  0  0  0
  5  3  1  0  0  0  0
  6 21  1  0  0  0  0
  7 18  2  0  0  0  0
  8  9  1  0  0  0  0
  9 16  1  0  0  0  0
  9 10  1  1  0  0  0
 11 15  1  6  0  0  0
 11 13  1  0  0  0  0
 12 17  1  0  0  0  0
 13 17  1  6  0  0  0
 13 16  1  0  0  0  0
 14 22  1  0  0  0  0
 15 12  1  0  0  0  0
 18 11  1  0  0  0  0
 18 19  2  0  0  0  0
 18  8  1  0  0  0  0
 20 10  2  0  0  0  0
 21 14  1  6  0  0  0
 21 22  1  0  0  0  0
 21 20  1  0  0  0  0
 22  5  1  6  0  0  0
 23  8  1  0  0  0  0
 23  6  2  0  0  0  0
 27 32  1  0  0  0  0
 27 37  2  0  0  0  0
 28 25  1  0  0  0  0
 28  1  1  1  0  0  0
 29 34  1  0  0  0  0
 30 34  1  0  0  0  0
 31 24  1  6  0  0  0
 31 26  1  0  0  0  0
 32 28  1  0  0  0  0
 33 25  2  0  0  0  0
 34 26  2  0  0  0  0
 35 30  1  1  0  0  0
 35 31  1  0  0  0  0
 36 33  1  0  0  0  0
 36 24  2  0  0  0  0
 37 35  1  0  0  0  0
 37 25  1  0  0  0  0
 38 48  1  0  0  0  0
 39 45  1  0  0  0  0
 40 38  1  0  0  0  0
 41 47  1  6  0  0  0
 41 53  1  0  0  0  0
 43 39  2  0  0  0  0
 43 40  1  0  0  0  0
 44 45  1  6  0  0  0
 44 41  1  0  0  0  0
 46 42  1  0  0  0  0
 46 47  1  0  0  0  0
 48 44  1  0  0  0  0
 48 42  1  6  0  0  0
 49 39  1  0  0  0  0
 50 51  1  6  0  0  0
 50 55  1  0  0  0  0
 53 54  1  1  0  0  0
 53 50  1  0  0  0  0
 54 56  1  0  0  0  0
 55 51  1  6  0  0  0
 55 52  1  0  0  0  0
 56 52  1  0  0  0  0
M  END
>  <MODEL>
3

>  <REMARK>
 VINA RESULT:      -8.6      2.713      8.658
  Name = 
  4 active torsions:
  status: ('A' for Active; 'I' for Inactive)
    1  A    between atoms: C_9  and  C_17
    2  A    between atoms: N_23  and  C_36
    3  A    between atoms: N_27  and  C_34
    4  A    between atoms: C_33  and  C_54
                            x       y       z     vdW  Elec       q    Type
                         _______ _______ _______ _____ _____    ______ ____

>  <TORSDO>
F 4

$$$$
