=
 OpenBabel11032421273D

 34 38  0  0  1  0  0  0  0  0999 V2000
  182.0460  178.7130  141.6620 N   0  0  0  0  0  0  0  0  0  0  0  0
  185.5820  178.3940  142.2050 C   0  0  0  0  0  3  0  0  0  0  0  0
  184.0760  178.7350  139.9810 S   0  0  0  0  0  0  0  0  0  0  0  0
  185.3260  178.3860  144.7710 C   0  0  0  0  0  0  0  0  0  0  0  0
  182.3310  178.7090  140.4030 C   0  0  0  0  0  0  0  0  0  0  0  0
  185.9630  178.1570  146.0260 C   0  0  0  0  0  0  0  0  0  0  0  0
  186.0690  178.1630  143.5790 C   0  0  0  0  0  0  0  0  0  0  0  0
  187.2990  177.7060  146.0920 C   0  0  0  0  0  0  0  0  0  0  0  0
  189.2410  177.0870  144.7440 N   0  0  0  0  0  0  0  0  0  0  0  0
  187.3570  177.7330  143.7100 N   0  0  0  0  0  0  0  0  0  0  0  0
  188.2540  177.4570  142.7440 C   0  0  0  0  0  3  0  0  0  0  0  0
  183.1640  178.6850  142.4960 N   0  0  0  0  0  0  0  0  0  0  0  0
  184.3650  178.6500  141.7420 C   0  0  0  0  0  0  0  0  0  0  0  0
  185.2120  178.3900  147.3070 C   0  0  0  0  0  1  0  0  0  0  0  0
  183.9330  178.8760  144.8230 C   0  0  0  0  0  3  0  0  0  0  0  0
  189.4080  177.0610  143.4030 C   0  0  0  0  0  0  0  0  0  0  0  0
  183.0100  178.9970  143.8770 C   0  0  0  0  0  3  0  0  0  0  0  0
  187.9660  177.5050  144.8830 C   0  0  0  0  0  0  0  0  0  0  0  0
  181.2660  178.7330  139.3670 C   0  0  0  0  0  1  0  0  0  0  0  0
  190.6310  176.6720  142.7640 N   0  0  0  0  0  0  0  0  0  0  0  0
  191.5220  175.7190  143.4030 C   0  0  0  0  0  1  0  0  0  0  0  0
  191.0530  177.2910  141.5170 C   0  0  0  0  0  2  0  0  0  0  0  0
  189.0870  177.3980  137.0260 C   0  0  2  0  0  3  0  0  0  0  0  0
  190.6810  176.4410  140.3970 N   0  0  0  0  0  2  0  0  0  0  0  0
  189.4810  175.8670  137.9300 S   0  0  0  0  0  0  0  0  0  0  0  0
  188.7250  178.4730  138.0580 C   0  0  1  0  0  3  0  0  0  0  0  0
  189.8730  176.9130  139.3190 C   0  0  0  0  0  0  0  0  0  0  0  0
  187.3600  178.4540  138.3560 O   0  0  0  0  0  1  0  0  0  0  0  0
  189.4720  178.1390  139.2560 N   0  0  0  0  0  0  0  0  0  0  0  0
  187.3180  175.9270  135.8610 C   0  0  0  0  0  1  0  0  0  0  0  0
  188.0890  177.2000  135.9170 C   0  0  0  0  0  0  0  0  0  0  0  0
  187.8020  178.1690  135.0470 C   0  0  0  0  0  2  0  0  0  0  0  0
  187.9490  177.4660  147.3990 C   0  0  0  0  0  3  0  0  0  0  0  0
  188.8840  178.1930  147.8290 O   0  0  0  0  0  0  0  0  0  0  0  0
  1 12  1  0  0  0  0
  2  7  1  0  0  0  0
  3  5  1  0  0  0  0
  3 13  1  0  0  0  0
  4 15  1  0  0  0  0
  4  6  1  0  0  0  0
  5  1  2  0  0  0  0
  6  8  2  0  0  0  0
  6 14  1  0  0  0  0
  7 10  1  0  0  0  0
  7  4  2  0  0  0  0
  8 33  1  0  0  0  0
  9 18  2  0  0  0  0
 10 18  1  0  0  0  0
 11 16  2  0  0  0  0
 11 10  1  0  0  0  0
 12 17  1  0  0  0  0
 13  2  2  0  0  0  0
 13 12  1  0  0  0  0
 16  9  1  0  0  0  0
 17 15  2  0  0  0  0
 18  8  1  0  0  0  0
 19  5  1  0  0  0  0
 20 16  1  0  0  0  0
 20 21  1  0  0  0  0
 22 20  1  0  0  0  0
 23 31  1  6  0  0  0
 23 25  1  0  0  0  0
 23 26  1  0  0  0  0
 24 22  1  0  0  0  0
 25 27  1  0  0  0  0
 26 28  1  1  0  0  0
 26 29  1  0  0  0  0
 27 24  1  0  0  0  0
 29 27  2  0  0  0  0
 30 31  1  0  0  0  0
 32 31  2  0  0  0  0
 33 34  2  0  0  0  0
M  END
>  <MODEL>
1

>  <REMARK>
 VINA RESULT:      -9.8      0.000      0.000
  Name = 
  5 active torsions:
  status: ('A' for Active; 'I' for Inactive)
    1  A    between atoms: N_2  and  C_5
    2  A    between atoms: N_2  and  C_28
    3  A    between atoms: C_5  and  N_8
    4  A    between atoms: C_7  and  C_14
    5  A    between atoms: C_13  and  C_15
                            x       y       z     vdW  Elec       q    Type
                         _______ _______ _______ _____ _____    ______ ____

>  <TORSDO>
F 5

$$$$
=
 OpenBabel11032421273D

 34 38  0  0  1  0  0  0  0  0999 V2000
  192.1170  177.3390  141.9310 N   0  0  0  0  0  0  0  0  0  0  0  0
  188.5310  177.4400  141.7750 C   0  0  0  0  0  3  0  0  0  0  0  0
  190.4560  177.1750  139.8910 S   0  0  0  0  0  0  0  0  0  0  0  0
  188.2830  177.4860  144.3410 C   0  0  0  0  0  0  0  0  0  0  0  0
  192.0820  177.3140  140.6410 C   0  0  0  0  0  0  0  0  0  0  0  0
  187.4030  177.6860  145.4450 C   0  0  0  0  0  0  0  0  0  0  0  0
  187.7740  177.6520  143.0240 C   0  0  0  0  0  0  0  0  0  0  0  0
  186.0550  178.0520  145.2440 C   0  0  0  0  0  0  0  0  0  0  0  0
  184.3770  178.5370  143.5340 N   0  0  0  0  0  0  0  0  0  0  0  0
  186.4620  178.0010  142.8960 N   0  0  0  0  0  0  0  0  0  0  0  0
  185.7530  178.2120  141.7700 C   0  0  0  0  0  3  0  0  0  0  0  0
  190.8590  177.3030  142.5330 N   0  0  0  0  0  0  0  0  0  0  0  0
  189.8270  177.2570  141.5600 C   0  0  0  0  0  0  0  0  0  0  0  0
  187.9050  177.5110  146.8510 C   0  0  0  0  0  1  0  0  0  0  0  0
  189.6670  177.0850  144.6710 C   0  0  0  0  0  3  0  0  0  0  0  0
  184.4720  178.5410  142.1850 C   0  0  0  0  0  0  0  0  0  0  0  0
  190.7620  177.0140  143.9240 C   0  0  0  0  0  3  0  0  0  0  0  0
  185.6240  178.2010  143.9250 C   0  0  0  0  0  0  0  0  0  0  0  0
  193.3270  177.3480  139.8300 C   0  0  0  0  0  1  0  0  0  0  0  0
  183.3750  178.8470  141.3150 N   0  0  0  0  0  0  0  0  0  0  0  0
  182.0150  178.5160  141.7050 C   0  0  0  0  0  1  0  0  0  0  0  0
  183.6030  179.4030  139.9900 C   0  0  0  0  0  2  0  0  0  0  0  0
  186.8010  176.8280  137.3100 C   0  0  2  0  0  3  0  0  0  0  0  0
  183.6930  178.3270  139.0150 N   0  0  0  0  0  2  0  0  0  0  0  0
  184.9920  176.6920  137.1450 S   0  0  0  0  0  0  0  0  0  0  0  0
  187.1280  178.2620  137.7420 C   0  0  1  0  0  3  0  0  0  0  0  0
  184.8930  178.0540  138.2920 C   0  0  0  0  0  0  0  0  0  0  0  0
  187.2980  179.1010  136.6380 O   0  0  0  0  0  1  0  0  0  0  0  0
  185.9810  178.7160  138.5060 N   0  0  0  0  0  0  0  0  0  0  0  0
  189.0110  176.0540  136.2270 C   0  0  0  0  0  1  0  0  0  0  0  0
  187.5520  176.3250  136.1050 C   0  0  0  0  0  0  0  0  0  0  0  0
  186.9280  176.0180  134.9670 C   0  0  0  0  0  2  0  0  0  0  0  0
  185.1510  178.2630  146.3960 C   0  0  0  0  0  3  0  0  0  0  0  0
  185.2130  179.2920  147.1190 O   0  0  0  0  0  0  0  0  0  0  0  0
  1 12  1  0  0  0  0
  2  7  1  0  0  0  0
  3  5  1  0  0  0  0
  3 13  1  0  0  0  0
  4 15  1  0  0  0  0
  4  6  1  0  0  0  0
  5  1  2  0  0  0  0
  6 14  1  0  0  0  0
  7  4  2  0  0  0  0
  8  6  2  0  0  0  0
  8 33  1  0  0  0  0
  9 18  2  0  0  0  0
 10  7  1  0  0  0  0
 10 18  1  0  0  0  0
 11 16  2  0  0  0  0
 11 10  1  0  0  0  0
 12 17  1  0  0  0  0
 13  2  2  0  0  0  0
 13 12  1  0  0  0  0
 16  9  1  0  0  0  0
 17 15  2  0  0  0  0
 18  8  1  0  0  0  0
 19  5  1  0  0  0  0
 20 21  1  0  0  0  0
 20 16  1  0  0  0  0
 22 20  1  0  0  0  0
 23 31  1  6  0  0  0
 23 26  1  0  0  0  0
 24 22  1  0  0  0  0
 25 23  1  0  0  0  0
 25 27  1  0  0  0  0
 26 28  1  6  0  0  0
 26 29  1  0  0  0  0
 27 29  2  0  0  0  0
 27 24  1  0  0  0  0
 31 30  1  0  0  0  0
 32 31  2  0  0  0  0
 33 34  2  0  0  0  0
M  END
>  <MODEL>
2

>  <REMARK>
 VINA RESULT:      -9.5      1.841      5.627
  Name = 
  5 active torsions:
  status: ('A' for Active; 'I' for Inactive)
    1  A    between atoms: N_2  and  C_5
    2  A    between atoms: N_2  and  C_28
    3  A    between atoms: C_5  and  N_8
    4  A    between atoms: C_7  and  C_14
    5  A    between atoms: C_13  and  C_15
                            x       y       z     vdW  Elec       q    Type
                         _______ _______ _______ _____ _____    ______ ____

>  <TORSDO>
F 5

$$$$
=
 OpenBabel11032421273D

 34 38  0  0  1  0  0  0  0  0999 V2000
  186.7690  178.4690  147.5900 N   0  0  0  0  0  0  0  0  0  0  0  0
  187.5650  177.8660  144.1410 C   0  0  0  0  0  3  0  0  0  0  0  0
  188.9290  177.4830  146.4470 S   0  0  0  0  0  0  0  0  0  0  0  0
  185.2060  178.5260  143.3370 C   0  0  0  0  0  0  0  0  0  0  0  0
  187.9820  178.1060  147.8390 C   0  0  0  0  0  0  0  0  0  0  0  0
  184.3760  178.8380  142.2200 C   0  0  0  0  0  0  0  0  0  0  0  0
  186.5820  178.2500  143.1090 C   0  0  0  0  0  0  0  0  0  0  0  0
  184.9060  178.8860  140.9120 C   0  0  0  0  0  0  0  0  0  0  0  0
  186.9460  178.5960  139.5980 N   0  0  0  0  0  0  0  0  0  0  0  0
  187.0310  178.3070  141.8230 N   0  0  0  0  0  0  0  0  0  0  0  0
  188.2740  178.0860  141.3550 C   0  0  0  0  0  3  0  0  0  0  0  0
  186.4100  178.3590  146.2460 N   0  0  0  0  0  0  0  0  0  0  0  0
  187.4900  177.8750  145.4650 C   0  0  0  0  0  0  0  0  0  0  0  0
  182.9150  179.1270  142.4230 C   0  0  0  0  0  1  0  0  0  0  0  0
  184.5390  178.4850  144.6560 C   0  0  0  0  0  3  0  0  0  0  0  0
  188.2000  178.2700  139.9830 C   0  0  0  0  0  0  0  0  0  0  0  0
  185.0330  178.4260  145.8870 C   0  0  0  0  0  3  0  0  0  0  0  0
  186.2640  178.6070  140.7630 C   0  0  0  0  0  0  0  0  0  0  0  0
  188.5400  178.1580  149.2160 C   0  0  0  0  0  1  0  0  0  0  0  0
  189.2980  178.1340  139.0710 N   0  0  0  0  0  0  0  0  0  0  0  0
  189.2010  178.6630  137.7220 C   0  0  0  0  0  1  0  0  0  0  0  0
  190.4880  177.3830  139.4400 C   0  0  0  0  0  2  0  0  0  0  0  0
  193.6250  174.1660  137.4770 C   0  0  2  0  0  3  0  0  0  0  0  0
  190.5500  176.1510  138.6700 N   0  0  0  0  0  2  0  0  0  0  0  0
  191.8240  174.1300  137.2050 S   0  0  0  0  0  0  0  0  0  0  0  0
  194.0390  175.6280  137.6840 C   0  0  1  0  0  3  0  0  0  0  0  0
  191.7650  175.6730  138.0940 C   0  0  0  0  0  0  0  0  0  0  0  0
  194.3440  176.2480  136.4700 O   0  0  0  0  0  1  0  0  0  0  0  0
  192.8890  176.2860  138.2730 N   0  0  0  0  0  0  0  0  0  0  0  0
  195.7660  172.9130  136.7720 C   0  0  0  0  0  1  0  0  0  0  0  0
  194.4040  173.4110  136.4340 C   0  0  0  0  0  0  0  0  0  0  0  0
  193.8700  173.0860  135.2560 C   0  0  0  0  0  2  0  0  0  0  0  0
  184.0380  179.2170  139.7610 C   0  0  0  0  0  3  0  0  0  0  0  0
  184.1790  180.2780  139.0970 O   0  0  0  0  0  0  0  0  0  0  0  0
  1  5  2  0  0  0  0
  2 13  2  0  0  0  0
  3  5  1  0  0  0  0
  4 15  1  0  0  0  0
  5 19  1  0  0  0  0
  6 14  1  0  0  0  0
  6  4  1  0  0  0  0
  7  4  2  0  0  0  0
  7  2  1  0  0  0  0
  8  6  2  0  0  0  0
  9 16  1  0  0  0  0
  9 18  2  0  0  0  0
 10  7  1  0  0  0  0
 11 10  1  0  0  0  0
 12  1  1  0  0  0  0
 13 12  1  0  0  0  0
 13  3  1  0  0  0  0
 15 17  2  0  0  0  0
 16 11  2  0  0  0  0
 17 12  1  0  0  0  0
 18  8  1  0  0  0  0
 18 10  1  0  0  0  0
 20 22  1  0  0  0  0
 20 16  1  0  0  0  0
 21 20  1  0  0  0  0
 23 31  1  6  0  0  0
 23 26  1  0  0  0  0
 24 22  1  0  0  0  0
 25 23  1  0  0  0  0
 25 27  1  0  0  0  0
 26 28  1  6  0  0  0
 26 29  1  0  0  0  0
 27 29  2  0  0  0  0
 27 24  1  0  0  0  0
 31 30  1  0  0  0  0
 32 31  2  0  0  0  0
 33  8  1  0  0  0  0
 34 33  2  0  0  0  0
M  END
>  <MODEL>
3

>  <REMARK>
 VINA RESULT:      -9.3      3.499      5.926
  Name = 
  5 active torsions:
  status: ('A' for Active; 'I' for Inactive)
    1  A    between atoms: N_2  and  C_5
    2  A    between atoms: N_2  and  C_28
    3  A    between atoms: C_5  and  N_8
    4  A    between atoms: C_7  and  C_14
    5  A    between atoms: C_13  and  C_15
                            x       y       z     vdW  Elec       q    Type
                         _______ _______ _______ _____ _____    ______ ____

>  <TORSDO>
F 5

$$$$
=
 OpenBabel11032421273D

 34 38  0  0  1  0  0  0  0  0999 V2000
  190.4980  176.8360  147.7040 N   0  0  0  0  0  0  0  0  0  0  0  0
  189.2370  176.9300  144.3430 C   0  0  0  0  0  3  0  0  0  0  0  0
  191.5440  176.0200  145.4270 S   0  0  0  0  0  0  0  0  0  0  0  0
  186.9400  177.8400  145.0830 C   0  0  0  0  0  0  0  0  0  0  0  0
  191.5880  176.3800  147.1860 C   0  0  0  0  0  0  0  0  0  0  0  0
  185.7010  178.4110  144.6700 C   0  0  0  0  0  0  0  0  0  0  0  0
  187.9250  177.5600  144.0970 C   0  0  0  0  0  0  0  0  0  0  0  0
  185.4530  178.7070  143.3120 C   0  0  0  0  0  0  0  0  0  0  0  0
  186.4120  178.6130  141.0660 N   0  0  0  0  0  0  0  0  0  0  0  0
  187.6230  177.8640  142.8020 N   0  0  0  0  0  0  0  0  0  0  0  0
  188.3780  177.6940  141.6990 C   0  0  0  0  0  3  0  0  0  0  0  0
  189.4670  177.0230  146.7830 N   0  0  0  0  0  0  0  0  0  0  0  0
  189.8800  176.6670  145.4730 C   0  0  0  0  0  0  0  0  0  0  0  0
  184.6330  178.7120  145.6850 C   0  0  0  0  0  1  0  0  0  0  0  0
  187.0800  177.5530  146.5260 C   0  0  0  0  0  3  0  0  0  0  0  0
  187.6140  178.1620  140.6420 C   0  0  0  0  0  0  0  0  0  0  0  0
  188.1380  177.2200  147.2560 C   0  0  0  0  0  3  0  0  0  0  0  0
  186.4650  178.4100  142.3990 C   0  0  0  0  0  0  0  0  0  0  0  0
  192.7930  176.1210  148.0160 C   0  0  0  0  0  1  0  0  0  0  0  0
  188.0230  178.1720  139.2680 N   0  0  0  0  0  0  0  0  0  0  0  0
  187.0310  178.1620  138.2070 C   0  0  0  0  0  1  0  0  0  0  0  0
  189.4300  178.0970  138.9060 C   0  0  0  0  0  2  0  0  0  0  0  0
  192.6970  174.7080  137.5340 C   0  0  2  0  0  3  0  0  0  0  0  0
  189.6380  177.0030  137.9700 N   0  0  0  0  0  2  0  0  0  0  0  0
  191.1360  175.0330  136.6550 S   0  0  0  0  0  0  0  0  0  0  0  0
  193.1630  176.0250  138.1660 C   0  0  1  0  0  3  0  0  0  0  0  0
  190.9200  176.4100  137.7650 C   0  0  0  0  0  0  0  0  0  0  0  0
  193.9650  176.7580  137.2870 O   0  0  0  0  0  1  0  0  0  0  0  0
  191.9560  176.7800  138.4430 N   0  0  0  0  0  0  0  0  0  0  0  0
  194.9190  173.4090  137.3580 C   0  0  0  0  0  1  0  0  0  0  0  0
  193.7210  173.9930  136.6930 C   0  0  0  0  0  0  0  0  0  0  0  0
  193.5340  173.7770  135.3910 C   0  0  0  0  0  2  0  0  0  0  0  0
  184.1660  179.3050  142.8950 C   0  0  0  0  0  3  0  0  0  0  0  0
  183.2060  178.6070  142.4750 O   0  0  0  0  0  0  0  0  0  0  0  0
  2 13  2  0  0  0  0
  3 13  1  0  0  0  0
  3  5  1  0  0  0  0
  4 15  1  0  0  0  0
  5  1  2  0  0  0  0
  5 19  1  0  0  0  0
  6  4  1  0  0  0  0
  6 14  1  0  0  0  0
  7  2  1  0  0  0  0
  7  4  2  0  0  0  0
  8  6  2  0  0  0  0
  9 18  2  0  0  0  0
 10  7  1  0  0  0  0
 11 10  1  0  0  0  0
 12 17  1  0  0  0  0
 12  1  1  0  0  0  0
 13 12  1  0  0  0  0
 15 17  2  0  0  0  0
 16  9  1  0  0  0  0
 16 11  2  0  0  0  0
 18 10  1  0  0  0  0
 18  8  1  0  0  0  0
 20 16  1  0  0  0  0
 21 20  1  0  0  0  0
 22 20  1  0  0  0  0
 23 31  1  6  0  0  0
 23 26  1  0  0  0  0
 24 22  1  0  0  0  0
 25 23  1  0  0  0  0
 25 27  1  0  0  0  0
 26 28  1  6  0  0  0
 26 29  1  0  0  0  0
 27 24  1  0  0  0  0
 27 29  2  0  0  0  0
 31 30  1  0  0  0  0
 32 31  2  0  0  0  0
 33  8  1  0  0  0  0
 34 33  2  0  0  0  0
M  END
>  <MODEL>
4

>  <REMARK>
 VINA RESULT:      -9.3      3.357      6.125
  Name = 
  5 active torsions:
  status: ('A' for Active; 'I' for Inactive)
    1  A    between atoms: N_2  and  C_5
    2  A    between atoms: N_2  and  C_28
    3  A    between atoms: C_5  and  N_8
    4  A    between atoms: C_7  and  C_14
    5  A    between atoms: C_13  and  C_15
                            x       y       z     vdW  Elec       q    Type
                         _______ _______ _______ _____ _____    ______ ____

>  <TORSDO>
F 5

$$$$
=
 OpenBabel11032421273D

 34 38  0  0  1  0  0  0  0  0999 V2000
  183.6010  178.4180  144.7430 N   0  0  0  0  0  0  0  0  0  0  0  0
  186.4330  178.2840  142.5390 C   0  0  0  0  0  3  0  0  0  0  0  0
  183.8490  179.0090  142.1870 S   0  0  0  0  0  0  0  0  0  0  0  0
  188.0560  177.6500  144.4400 C   0  0  0  0  0  0  0  0  0  0  0  0
  182.9160  178.7360  143.6960 C   0  0  0  0  0  0  0  0  0  0  0  0
  189.3610  177.1870  144.7810 C   0  0  0  0  0  0  0  0  0  0  0  0
  187.7160  177.7790  143.0650 C   0  0  0  0  0  0  0  0  0  0  0  0
  190.2980  176.8490  143.7800 C   0  0  0  0  0  0  0  0  0  0  0  0
  190.6480  176.7340  141.3640 N   0  0  0  0  0  0  0  0  0  0  0  0
  188.6660  177.4420  142.1470 N   0  0  0  0  0  0  0  0  0  0  0  0
  188.5880  177.4790  140.8030 C   0  0  0  0  0  3  0  0  0  0  0  0
  184.9700  178.2910  144.5070 N   0  0  0  0  0  0  0  0  0  0  0  0
  185.2800  178.5370  143.1450 C   0  0  0  0  0  0  0  0  0  0  0  0
  189.7580  177.0460  146.2240 C   0  0  0  0  0  1  0  0  0  0  0  0
  187.1670  177.9920  145.5690 C   0  0  0  0  0  3  0  0  0  0  0  0
  189.8190  177.0390  140.3410 C   0  0  0  0  0  0  0  0  0  0  0  0
  185.8660  178.2530  145.6140 C   0  0  0  0  0  3  0  0  0  0  0  0
  189.8950  176.9970  142.4530 C   0  0  0  0  0  0  0  0  0  0  0  0
  181.4420  178.9120  143.7580 C   0  0  0  0  0  1  0  0  0  0  0  0
  190.1880  176.9180  138.9610 N   0  0  0  0  0  0  0  0  0  0  0  0
  189.5840  177.7820  137.9610 C   0  0  0  0  0  1  0  0  0  0  0  0
  191.0970  175.8720  138.5180 C   0  0  0  0  0  2  0  0  0  0  0  0
  195.1800  174.9010  135.9830 C   0  0  2  0  0  3  0  0  0  0  0  0
  191.9350  176.3730  137.4410 N   0  0  0  0  0  2  0  0  0  0  0  0
  194.2210  176.4410  135.8190 S   0  0  0  0  0  0  0  0  0  0  0  0
  195.0230  174.4010  137.4230 C   0  0  1  0  0  3  0  0  0  0  0  0
  193.2380  175.8480  137.1830 C   0  0  0  0  0  0  0  0  0  0  0  0
  196.0010  174.9420  138.2610 O   0  0  0  0  0  1  0  0  0  0  0  0
  193.7190  174.8610  137.8620 N   0  0  0  0  0  0  0  0  0  0  0  0
  197.3650  173.7810  135.1930 C   0  0  0  0  0  1  0  0  0  0  0  0
  196.5960  175.0220  135.4870 C   0  0  0  0  0  0  0  0  0  0  0  0
  197.1440  176.2050  135.2060 C   0  0  0  0  0  2  0  0  0  0  0  0
  191.6470  176.3640  144.1440 C   0  0  0  0  0  3  0  0  0  0  0  0
  191.9600  175.1460  144.0890 O   0  0  0  0  0  0  0  0  0  0  0  0
  2  7  1  0  0  0  0
  2 13  2  0  0  0  0
  3 13  1  0  0  0  0
  3  5  1  0  0  0  0
  4  6  1  0  0  0  0
  4 15  1  0  0  0  0
  5 19  1  0  0  0  0
  5  1  2  0  0  0  0
  6 14  1  0  0  0  0
  7  4  2  0  0  0  0
  8 33  1  0  0  0  0
  8  6  2  0  0  0  0
  9 18  2  0  0  0  0
 10 18  1  0  0  0  0
 10  7  1  0  0  0  0
 11 10  1  0  0  0  0
 12  1  1  0  0  0  0
 12 17  1  0  0  0  0
 13 12  1  0  0  0  0
 15 17  2  0  0  0  0
 16 11  2  0  0  0  0
 16  9  1  0  0  0  0
 18  8  1  0  0  0  0
 20 16  1  0  0  0  0
 21 20  1  0  0  0  0
 22 20  1  0  0  0  0
 23 31  1  1  0  0  0
 23 26  1  0  0  0  0
 24 22  1  0  0  0  0
 25 23  1  0  0  0  0
 25 27  1  0  0  0  0
 26 29  1  0  0  0  0
 26 28  1  1  0  0  0
 27 24  1  0  0  0  0
 27 29  2  0  0  0  0
 30 31  1  0  0  0  0
 32 31  2  0  0  0  0
 34 33  2  0  0  0  0
M  END
>  <MODEL>
5

>  <REMARK>
 VINA RESULT:      -9.1      3.976      5.019
  Name = 
  5 active torsions:
  status: ('A' for Active; 'I' for Inactive)
    1  A    between atoms: N_2  and  C_5
    2  A    between atoms: N_2  and  C_28
    3  A    between atoms: C_5  and  N_8
    4  A    between atoms: C_7  and  C_14
    5  A    between atoms: C_13  and  C_15
                            x       y       z     vdW  Elec       q    Type
                         _______ _______ _______ _____ _____    ______ ____

>  <TORSDO>
F 5

$$$$
=
 OpenBabel11032421273D

 34 38  0  0  1  0  0  0  0  0999 V2000
  183.5730  178.3630  144.9730 N   0  0  0  0  0  0  0  0  0  0  0  0
  186.4410  178.3160  142.8130 C   0  0  0  0  0  3  0  0  0  0  0  0
  183.8480  178.9880  142.4280 S   0  0  0  0  0  0  0  0  0  0  0  0
  188.0480  177.6970  144.7330 C   0  0  0  0  0  0  0  0  0  0  0  0
  182.8970  178.6770  143.9190 C   0  0  0  0  0  0  0  0  0  0  0  0
  189.3580  177.2590  145.0900 C   0  0  0  0  0  0  0  0  0  0  0  0
  187.7270  177.8330  143.3540 C   0  0  0  0  0  0  0  0  0  0  0  0
  190.3170  176.9530  144.1000 C   0  0  0  0  0  0  0  0  0  0  0  0
  190.7080  176.8730  141.6890 N   0  0  0  0  0  0  0  0  0  0  0  0
  188.6990  177.5280  142.4480 N   0  0  0  0  0  0  0  0  0  0  0  0
  188.6420  177.5790  141.1030 C   0  0  0  0  0  3  0  0  0  0  0  0
  184.9480  178.2680  144.7580 N   0  0  0  0  0  0  0  0  0  0  0  0
  185.2740  178.5370  143.4040 C   0  0  0  0  0  0  0  0  0  0  0  0
  189.7350  177.1110  146.5370 C   0  0  0  0  0  1  0  0  0  0  0  0
  187.1340  178.0070  145.8510 C   0  0  0  0  0  3  0  0  0  0  0  0
  189.8890  177.1710  140.6560 C   0  0  0  0  0  0  0  0  0  0  0  0
  185.8270  178.2380  145.8780 C   0  0  0  0  0  3  0  0  0  0  0  0
  189.9320  177.1070  142.7680 C   0  0  0  0  0  0  0  0  0  0  0  0
  181.4190  178.8200  143.9590 C   0  0  0  0  0  1  0  0  0  0  0  0
  190.2820  177.0740  139.2810 N   0  0  0  0  0  0  0  0  0  0  0  0
  191.4800  176.3400  138.9100 C   0  0  0  0  0  1  0  0  0  0  0  0
  189.5510  177.7830  138.2420 C   0  0  0  0  0  2  0  0  0  0  0  0
  184.8990  177.3720  136.7460 C   0  0  2  0  0  3  0  0  0  0  0  0
  188.6230  176.8750  137.5870 N   0  0  0  0  0  2  0  0  0  0  0  0
  186.1050  176.0080  136.7110 S   0  0  0  0  0  0  0  0  0  0  0  0
  185.2590  178.2870  137.9240 C   0  0  1  0  0  3  0  0  0  0  0  0
  187.2140  177.1070  137.5710 C   0  0  0  0  0  0  0  0  0  0  0  0
  184.6280  177.8750  139.1000 O   0  0  0  0  0  1  0  0  0  0  0  0
  186.6940  178.1680  138.0930 N   0  0  0  0  0  0  0  0  0  0  0  0
  182.4110  177.8760  136.2920 C   0  0  0  0  0  1  0  0  0  0  0  0
  183.4680  176.9090  136.6970 C   0  0  0  0  0  0  0  0  0  0  0  0
  183.1350  175.6340  136.9040 C   0  0  0  0  0  2  0  0  0  0  0  0
  191.6710  176.4940  144.4810 C   0  0  0  0  0  3  0  0  0  0  0  0
  192.0470  175.3030  144.3190 O   0  0  0  0  0  0  0  0  0  0  0  0
  2  7  1  0  0  0  0
  2 13  2  0  0  0  0
  3 13  1  0  0  0  0
  3  5  1  0  0  0  0
  4  6  1  0  0  0  0
  4 15  1  0  0  0  0
  5 19  1  0  0  0  0
  5  1  2  0  0  0  0
  6 14  1  0  0  0  0
  7  4  2  0  0  0  0
  8 33  1  0  0  0  0
  8  6  2  0  0  0  0
  9 18  2  0  0  0  0
 10 18  1  0  0  0  0
 10  7  1  0  0  0  0
 11 10  1  0  0  0  0
 12  1  1  0  0  0  0
 12 17  1  0  0  0  0
 13 12  1  0  0  0  0
 15 17  2  0  0  0  0
 16 11  2  0  0  0  0
 16  9  1  0  0  0  0
 18  8  1  0  0  0  0
 20 16  1  0  0  0  0
 21 20  1  0  0  0  0
 22 20  1  0  0  0  0
 23 31  1  1  0  0  0
 23 26  1  0  0  0  0
 24 22  1  0  0  0  0
 25 23  1  0  0  0  0
 25 27  1  0  0  0  0
 26 29  1  0  0  0  0
 26 28  1  1  0  0  0
 27 24  1  0  0  0  0
 27 29  2  0  0  0  0
 30 31  1  0  0  0  0
 31 32  2  0  0  0  0
 34 33  2  0  0  0  0
M  END
>  <MODEL>
6

>  <REMARK>
 VINA RESULT:      -9.1      2.340      3.638
  Name = 
  5 active torsions:
  status: ('A' for Active; 'I' for Inactive)
    1  A    between atoms: N_2  and  C_5
    2  A    between atoms: N_2  and  C_28
    3  A    between atoms: C_5  and  N_8
    4  A    between atoms: C_7  and  C_14
    5  A    between atoms: C_13  and  C_15
                            x       y       z     vdW  Elec       q    Type
                         _______ _______ _______ _____ _____    ______ ____

>  <TORSDO>
F 5

$$$$
=
 OpenBabel11032421273D

 34 38  0  0  1  0  0  0  0  0999 V2000
  190.0660  176.9670  147.1600 N   0  0  0  0  0  0  0  0  0  0  0  0
  189.4810  176.9580  143.6170 C   0  0  0  0  0  3  0  0  0  0  0  0
  191.5630  176.1560  145.1480 S   0  0  0  0  0  0  0  0  0  0  0  0
  187.0540  177.7900  143.8760 C   0  0  0  0  0  0  0  0  0  0  0  0
  191.2520  176.5450  146.8730 C   0  0  0  0  0  0  0  0  0  0  0  0
  185.8990  178.3060  143.2180 C   0  0  0  0  0  0  0  0  0  0  0  0
  188.2210  177.5320  143.1060 C   0  0  0  0  0  0  0  0  0  0  0  0
  185.9100  178.5700  141.8310 C   0  0  0  0  0  0  0  0  0  0  0  0
  187.2900  178.4770  139.8160 N   0  0  0  0  0  0  0  0  0  0  0  0
  188.1660  177.8040  141.7710 N   0  0  0  0  0  0  0  0  0  0  0  0
  189.1270  177.6450  140.8400 C   0  0  0  0  0  3  0  0  0  0  0  0
  189.2280  177.0990  146.0520 N   0  0  0  0  0  0  0  0  0  0  0  0
  189.9000  176.7380  144.8560 C   0  0  0  0  0  0  0  0  0  0  0  0
  184.6450  178.5810  143.9990 C   0  0  0  0  0  1  0  0  0  0  0  0
  186.9200  177.5320  145.3260 C   0  0  0  0  0  3  0  0  0  0  0  0
  188.5660  178.0660  139.6430 C   0  0  0  0  0  0  0  0  0  0  0  0
  187.8270  177.2520  146.2540 C   0  0  0  0  0  3  0  0  0  0  0  0
  187.0900  178.2980  141.1380 C   0  0  0  0  0  0  0  0  0  0  0  0
  192.2800  176.3470  147.9270 C   0  0  0  0  0  1  0  0  0  0  0  0
  189.2350  178.0700  138.3750 N   0  0  0  0  0  0  0  0  0  0  0  0
  188.5020  178.3840  137.1600 C   0  0  0  0  0  1  0  0  0  0  0  0
  190.6290  177.6700  138.2630 C   0  0  0  0  0  2  0  0  0  0  0  0
  193.5900  173.8150  137.6200 C   0  0  2  0  0  3  0  0  0  0  0  0
  190.7170  176.3770  137.6030 N   0  0  0  0  0  2  0  0  0  0  0  0
  192.0130  174.0470  136.7390 S   0  0  0  0  0  0  0  0  0  0  0  0
  194.1740  175.2030  137.9110 C   0  0  1  0  0  3  0  0  0  0  0  0
  191.9450  175.6560  137.5020 C   0  0  0  0  0  0  0  0  0  0  0  0
  194.9790  175.6480  136.8600 O   0  0  0  0  0  1  0  0  0  0  0  0
  193.0350  176.0920  138.0410 N   0  0  0  0  0  0  0  0  0  0  0  0
  194.2120  172.4090  135.5490 C   0  0  0  0  0  1  0  0  0  0  0  0
  194.5210  172.8480  136.9380 C   0  0  0  0  0  0  0  0  0  0  0  0
  195.6640  172.4570  137.5030 C   0  0  0  0  0  2  0  0  0  0  0  0
  184.7090  179.1110  141.1580 C   0  0  0  0  0  3  0  0  0  0  0  0
  184.7780  179.7630  140.0820 O   0  0  0  0  0  0  0  0  0  0  0  0
  2 13  2  0  0  0  0
  3  5  1  0  0  0  0
  4 15  1  0  0  0  0
  5  1  2  0  0  0  0
  5 19  1  0  0  0  0
  6  4  1  0  0  0  0
  6 14  1  0  0  0  0
  7  2  1  0  0  0  0
  7  4  2  0  0  0  0
  8  6  2  0  0  0  0
  9 18  2  0  0  0  0
 10  7  1  0  0  0  0
 11 10  1  0  0  0  0
 12 17  1  0  0  0  0
 12  1  1  0  0  0  0
 13  3  1  0  0  0  0
 13 12  1  0  0  0  0
 15 17  2  0  0  0  0
 16  9  1  0  0  0  0
 16 11  2  0  0  0  0
 18 10  1  0  0  0  0
 18  8  1  0  0  0  0
 20 16  1  0  0  0  0
 21 20  1  0  0  0  0
 22 20  1  0  0  0  0
 23 31  1  6  0  0  0
 23 26  1  0  0  0  0
 24 22  1  0  0  0  0
 25 27  1  0  0  0  0
 25 23  1  0  0  0  0
 26 28  1  6  0  0  0
 26 29  1  0  0  0  0
 27 24  1  0  0  0  0
 27 29  2  0  0  0  0
 30 31  1  0  0  0  0
 31 32  2  0  0  0  0
 33  8  1  0  0  0  0
 34 33  2  0  0  0  0
M  END
>  <MODEL>
7

>  <REMARK>
 VINA RESULT:      -9.0      3.636      6.467
  Name = 
  5 active torsions:
  status: ('A' for Active; 'I' for Inactive)
    1  A    between atoms: N_2  and  C_5
    2  A    between atoms: N_2  and  C_28
    3  A    between atoms: C_5  and  N_8
    4  A    between atoms: C_7  and  C_14
    5  A    between atoms: C_13  and  C_15
                            x       y       z     vdW  Elec       q    Type
                         _______ _______ _______ _____ _____    ______ ____

>  <TORSDO>
F 5

$$$$
=
 OpenBabel11032421273D

 34 38  0  0  1  0  0  0  0  0999 V2000
  182.9660  178.6280  144.7580 N   0  0  0  0  0  0  0  0  0  0  0  0
  186.2960  178.4520  143.4240 C   0  0  0  0  0  3  0  0  0  0  0  0
  183.9090  179.1460  142.3520 S   0  0  0  0  0  0  0  0  0  0  0  0
  187.3320  177.8850  145.7170 C   0  0  0  0  0  0  0  0  0  0  0  0
  182.5960  178.9090  143.5540 C   0  0  0  0  0  0  0  0  0  0  0  0
  188.4920  177.4420  146.4180 C   0  0  0  0  0  0  0  0  0  0  0  0
  187.3840  177.9710  144.2980 C   0  0  0  0  0  0  0  0  0  0  0  0
  189.6680  177.0830  145.7240 C   0  0  0  0  0  0  0  0  0  0  0  0
  190.6700  176.9000  143.5030 N   0  0  0  0  0  0  0  0  0  0  0  0
  188.5500  177.6150  143.6880 N   0  0  0  0  0  0  0  0  0  0  0  0
  188.8460  177.6130  142.3730 C   0  0  0  0  0  3  0  0  0  0  0  0
  184.3480  178.5040  144.9130 N   0  0  0  0  0  0  0  0  0  0  0  0
  185.0210  178.7130  143.6820 C   0  0  0  0  0  0  0  0  0  0  0  0
  188.4770  177.3470  147.9180 C   0  0  0  0  0  1  0  0  0  0  0  0
  186.1660  178.2530  146.5470 C   0  0  0  0  0  3  0  0  0  0  0  0
  190.1560  177.1690  142.2820 C   0  0  0  0  0  0  0  0  0  0  0  0
  184.9040  178.5060  146.2230 C   0  0  0  0  0  3  0  0  0  0  0  0
  189.6470  177.1890  144.3330 C   0  0  0  0  0  0  0  0  0  0  0  0
  181.1620  179.0760  143.2030 C   0  0  0  0  0  1  0  0  0  0  0  0
  190.8900  177.0110  141.0610 N   0  0  0  0  0  0  0  0  0  0  0  0
  192.2170  177.5870  140.9220 C   0  0  0  0  0  1  0  0  0  0  0  0
  190.2920  176.3580  139.9070 C   0  0  0  0  0  2  0  0  0  0  0  0
  186.6460  176.7170  136.6480 C   0  0  2  0  0  3  0  0  0  0  0  0
  189.5080  177.3210  139.1490 N   0  0  0  0  0  2  0  0  0  0  0  0
  187.6580  178.1250  137.2040 S   0  0  0  0  0  0  0  0  0  0  0  0
  187.5220  175.4600  136.6970 C   0  0  1  0  0  3  0  0  0  0  0  0
  188.6510  176.9300  138.0770 C   0  0  0  0  0  0  0  0  0  0  0  0
  188.2090  175.2690  135.4950 O   0  0  0  0  0  1  0  0  0  0  0  0
  188.4840  175.6890  137.7580 N   0  0  0  0  0  0  0  0  0  0  0  0
  184.8450  176.0430  134.9290 C   0  0  0  0  0  1  0  0  0  0  0  0
  185.9380  176.9650  135.3420 C   0  0  0  0  0  0  0  0  0  0  0  0
  186.1930  178.0430  134.5990 C   0  0  0  0  0  2  0  0  0  0  0  0
  190.8650  176.6190  146.4600 C   0  0  0  0  0  3  0  0  0  0  0  0
  191.9580  177.2440  146.4270 O   0  0  0  0  0  0  0  0  0  0  0  0
  1 12  1  0  0  0  0
  2 13  2  0  0  0  0
  2  7  1  0  0  0  0
  3  5  1  0  0  0  0
  3 13  1  0  0  0  0
  4  6  1  0  0  0  0
  4 15  1  0  0  0  0
  5  1  2  0  0  0  0
  6 14  1  0  0  0  0
  7  4  2  0  0  0  0
  8  6  2  0  0  0  0
  8 33  1  0  0  0  0
  9 18  2  0  0  0  0
 10  7  1  0  0  0  0
 10 18  1  0  0  0  0
 11 10  1  0  0  0  0
 12 17  1  0  0  0  0
 13 12  1  0  0  0  0
 16 11  2  0  0  0  0
 16  9  1  0  0  0  0
 17 15  2  0  0  0  0
 18  8  1  0  0  0  0
 19  5  1  0  0  0  0
 20 16  1  0  0  0  0
 21 20  1  0  0  0  0
 22 20  1  0  0  0  0
 23 31  1  6  0  0  0
 23 26  1  0  0  0  0
 23 25  1  0  0  0  0
 24 22  1  0  0  0  0
 25 27  1  0  0  0  0
 26 28  1  6  0  0  0
 26 29  1  0  0  0  0
 27 24  1  0  0  0  0
 29 27  2  0  0  0  0
 30 31  1  0  0  0  0
 32 31  2  0  0  0  0
 34 33  2  0  0  0  0
M  END
>  <MODEL>
8

>  <REMARK>
 VINA RESULT:      -8.7      1.914      2.618
  Name = 
  5 active torsions:
  status: ('A' for Active; 'I' for Inactive)
    1  A    between atoms: N_2  and  C_5
    2  A    between atoms: N_2  and  C_28
    3  A    between atoms: C_5  and  N_8
    4  A    between atoms: C_7  and  C_14
    5  A    between atoms: C_13  and  C_15
                            x       y       z     vdW  Elec       q    Type
                         _______ _______ _______ _____ _____    ______ ____

>  <TORSDO>
F 5

$$$$
=
 OpenBabel11032421273D

 34 38  0  0  1  0  0  0  0  0999 V2000
  185.5560  178.8090  146.9430 N   0  0  0  0  0  0  0  0  0  0  0  0
  186.6380  178.1000  143.5930 C   0  0  0  0  0  3  0  0  0  0  0  0
  187.8310  177.8590  146.0100 S   0  0  0  0  0  0  0  0  0  0  0  0
  184.3260  178.6400  142.5850 C   0  0  0  0  0  0  0  0  0  0  0  0
  186.7580  178.5020  147.2990 C   0  0  0  0  0  0  0  0  0  0  0  0
  183.5760  178.8770  141.3960 C   0  0  0  0  0  0  0  0  0  0  0  0
  185.7240  178.4060  142.4740 C   0  0  0  0  0  0  0  0  0  0  0  0
  184.2030  178.8930  140.1310 C   0  0  0  0  0  0  0  0  0  0  0  0
  186.3470  178.6270  138.9900 N   0  0  0  0  0  0  0  0  0  0  0  0
  186.2700  178.4290  141.2250 N   0  0  0  0  0  0  0  0  0  0  0  0
  187.5530  178.2370  140.8620 C   0  0  0  0  0  3  0  0  0  0  0  0
  185.3060  178.6340  145.5810 N   0  0  0  0  0  0  0  0  0  0  0  0
  186.4600  178.1590  144.9060 C   0  0  0  0  0  0  0  0  0  0  0  0
  182.0940  179.1200  141.4740 C   0  0  0  0  0  1  0  0  0  0  0  0
  183.5620  178.6270  143.8500 C   0  0  0  0  0  3  0  0  0  0  0  0
  187.5790  178.3630  139.4820 C   0  0  0  0  0  0  0  0  0  0  0  0
  183.9600  178.6350  145.1160 C   0  0  0  0  0  3  0  0  0  0  0  0
  185.5780  178.6590  140.0980 C   0  0  0  0  0  0  0  0  0  0  0  0
  187.2050  178.6290  148.7110 C   0  0  0  0  0  1  0  0  0  0  0  0
  188.7480  178.2320  138.6630 N   0  0  0  0  0  0  0  0  0  0  0  0
  188.8580  178.9720  137.4170 C   0  0  0  0  0  1  0  0  0  0  0  0
  189.8000  177.2880  139.0070 C   0  0  0  0  0  2  0  0  0  0  0  0
  191.4940  176.2560  143.4910 C   0  0  2  0  0  3  0  0  0  0  0  0
  190.6070  177.8270  140.0910 N   0  0  0  0  0  2  0  0  0  0  0  0
  191.6810  177.8760  142.6800 S   0  0  0  0  0  0  0  0  0  0  0  0
  190.1880  175.6270  142.9910 C   0  0  1  0  0  3  0  0  0  0  0  0
  190.6380  177.2290  141.3870 C   0  0  0  0  0  0  0  0  0  0  0  0
  189.1030  176.0020  143.7860 O   0  0  0  0  0  1  0  0  0  0  0  0
  189.9900  176.1430  141.6500 N   0  0  0  0  0  0  0  0  0  0  0  0
  192.0660  175.0800  145.7150 C   0  0  0  0  0  1  0  0  0  0  0  0
  191.6560  176.3130  144.9870 C   0  0  0  0  0  0  0  0  0  0  0  0
  191.5450  177.4570  145.6630 C   0  0  0  0  0  2  0  0  0  0  0  0
  183.4170  179.1450  138.9040 C   0  0  0  0  0  3  0  0  0  0  0  0
  183.0930  178.2210  138.1120 O   0  0  0  0  0  0  0  0  0  0  0  0
  1  5  2  0  0  0  0
  2 13  2  0  0  0  0
  3  5  1  0  0  0  0
  4 15  1  0  0  0  0
  5 19  1  0  0  0  0
  6 14  1  0  0  0  0
  6  4  1  0  0  0  0
  7  4  2  0  0  0  0
  7  2  1  0  0  0  0
  8  6  2  0  0  0  0
  9 16  1  0  0  0  0
  9 18  2  0  0  0  0
 10  7  1  0  0  0  0
 11 10  1  0  0  0  0
 12  1  1  0  0  0  0
 13 12  1  0  0  0  0
 13  3  1  0  0  0  0
 15 17  2  0  0  0  0
 16 11  2  0  0  0  0
 17 12  1  0  0  0  0
 18  8  1  0  0  0  0
 18 10  1  0  0  0  0
 20 22  1  0  0  0  0
 20 16  1  0  0  0  0
 21 20  1  0  0  0  0
 22 24  1  0  0  0  0
 23 31  1  1  0  0  0
 24 27  1  0  0  0  0
 25 23  1  0  0  0  0
 26 23  1  0  0  0  0
 26 28  1  1  0  0  0
 27 29  2  0  0  0  0
 27 25  1  0  0  0  0
 29 26  1  0  0  0  0
 31 32  2  0  0  0  0
 31 30  1  0  0  0  0
 33  8  1  0  0  0  0
 34 33  2  0  0  0  0
M  END
>  <MODEL>
9

>  <REMARK>
 VINA RESULT:      -8.4      2.625      6.349
  Name = 
  5 active torsions:
  status: ('A' for Active; 'I' for Inactive)
    1  A    between atoms: N_2  and  C_5
    2  A    between atoms: N_2  and  C_28
    3  A    between atoms: C_5  and  N_8
    4  A    between atoms: C_7  and  C_14
    5  A    between atoms: C_13  and  C_15
                            x       y       z     vdW  Elec       q    Type
                         _______ _______ _______ _____ _____    ______ ____

>  <TORSDO>
F 5

$$$$
