=
 OpenBabel11042410563D

 26 28  0  0  1  0  0  0  0  0999 V2000
  183.9350  179.1310  145.4450 N   0  0  0  0  0  2  0  0  0  0  0  0
  187.6550  178.3670  148.3360 O   0  0  0  0  0  1  0  0  0  0  0  0
  185.1830  178.6340  145.6380 C   0  0  0  0  0  0  0  0  0  0  0  0
  187.0760  178.2290  147.0780 C   0  0  0  0  0  0  0  0  0  0  0  0
  185.2340  177.9240  143.3630 N   0  0  0  0  0  0  0  0  0  0  0  0
  183.3500  178.3000  141.8260 C   0  0  0  0  0  1  0  0  0  0  0  0
  189.3560  176.3670  147.2810 O   0  0  0  0  0  0  0  0  0  0  0  0
  190.2880  177.6220  145.5720 N   0  0  0  0  0  2  0  0  0  0  0  0
  187.1470  177.4830  144.7460 C   0  0  0  0  0  0  0  0  0  0  0  0
  182.1610  179.5150  144.0900 O   0  0  0  0  0  0  0  0  0  0  0  0
  185.8570  178.0130  144.5700 C   0  0  0  0  0  0  0  0  0  0  0  0
  189.9740  177.1530  143.2190 C   0  0  1  0  0  3  0  0  0  0  0  0
  190.1700  178.2420  144.2640 C   0  0  0  0  0  2  0  0  0  0  0  0
  187.7800  177.6080  146.0210 C   0  0  0  0  0  0  0  0  0  0  0  0
  183.9850  178.4230  143.1690 C   0  0  0  0  0  0  0  0  0  0  0  0
  183.3190  179.0420  144.2370 C   0  0  0  0  0  0  0  0  0  0  0  0
  188.9380  176.2010  143.6260 N   0  0  0  0  0  2  0  0  0  0  0  0
  185.7920  178.7330  146.8820 C   0  0  0  0  0  3  0  0  0  0  0  0
  187.7120  176.8360  143.6300 O   0  0  0  0  0  0  0  0  0  0  0  0
  189.1580  177.1380  146.3050 C   0  0  0  0  0  0  0  0  0  0  0  0
  189.7200  177.7130  141.8530 C   0  0  0  0  0  0  0  0  0  0  0  0
  190.1630  177.4920  139.3600 C   0  0  0  0  0  0  0  0  0  0  0  0
  188.9600  178.7100  141.7060 O   0  0  0  0  0  0  0  0  0  0  0  0
  189.4470  178.4840  139.0610 O   0  0  0  0  0  0  0  0  0  0  0  0
  190.3250  177.0800  140.7210 N   0  0  0  0  0  2  0  0  0  0  0  0
  190.8540  176.7370  138.2820 C   0  0  0  0  0  1  0  0  0  0  0  0
  1  3  1  0  0  0  0
  3 18  1  0  0  0  0
  4  2  1  0  0  0  0
  5 11  1  0  0  0  0
  6 15  1  0  0  0  0
  8 20  1  0  0  0  0
  9 14  2  0  0  0  0
 10 16  2  0  0  0  0
 11  9  1  0  0  0  0
 11  3  2  0  0  0  0
 12 21  1  6  0  0  0
 12 17  1  0  0  0  0
 12 13  1  0  0  0  0
 13  8  1  0  0  0  0
 14 20  1  0  0  0  0
 14  4  1  0  0  0  0
 15  5  2  0  0  0  0
 15 16  1  0  0  0  0
 16  1  1  0  0  0  0
 17 19  1  0  0  0  0
 18  4  2  0  0  0  0
 19  9  1  0  0  0  0
 20  7  2  0  0  0  0
 22 25  1  0  0  0  0
 23 21  2  0  0  0  0
 24 22  2  0  0  0  0
 25 21  1  0  0  0  0
 26 22  1  0  0  0  0
M  END
>  <MODEL>
1

>  <REMARK>
 VINA RESULT:     -10.2      0.000      0.000
  Name = 
  1 active torsions:
  status: ('A' for Active; 'I' for Inactive)
    1  A    between atoms: C_4  and  C_18
                            x       y       z     vdW  Elec       q    Type
                         _______ _______ _______ _____ _____    ______ ____

>  <TORSDO>
F 1

$$$$
=
 OpenBabel11042410563D

 26 28  0  0  1  0  0  0  0  0999 V2000
  185.2100  178.9100  146.4320 N   0  0  0  0  0  2  0  0  0  0  0  0
  189.3610  178.0360  148.6190 O   0  0  0  0  0  1  0  0  0  0  0  0
  186.4680  178.4010  146.3930 C   0  0  0  0  0  0  0  0  0  0  0  0
  188.5750  177.9420  147.4750 C   0  0  0  0  0  0  0  0  0  0  0  0
  186.1230  177.7650  144.1220 N   0  0  0  0  0  0  0  0  0  0  0  0
  184.0070  178.1990  142.9420 C   0  0  0  0  0  1  0  0  0  0  0  0
  190.8370  176.0650  147.2280 O   0  0  0  0  0  0  0  0  0  0  0  0
  191.4770  177.3700  145.4250 N   0  0  0  0  0  2  0  0  0  0  0  0
  188.2400  177.2710  145.1430 C   0  0  0  0  0  0  0  0  0  0  0  0
  183.2340  179.3450  145.4120 O   0  0  0  0  0  0  0  0  0  0  0  0
  186.9430  177.8130  145.2060 C   0  0  0  0  0  0  0  0  0  0  0  0
  190.7600  176.9790  143.1460 C   0  0  1  0  0  3  0  0  0  0  0  0
  191.1430  178.0330  144.1760 C   0  0  0  0  0  2  0  0  0  0  0  0
  189.0820  177.3530  146.2940 C   0  0  0  0  0  0  0  0  0  0  0  0
  184.8640  178.2750  144.1600 C   0  0  0  0  0  0  0  0  0  0  0  0
  184.3960  178.8630  145.3450 C   0  0  0  0  0  0  0  0  0  0  0  0
  189.8000  176.0190  143.6950 N   0  0  0  0  0  2  0  0  0  0  0  0
  187.2810  178.4580  147.5170 C   0  0  0  0  0  3  0  0  0  0  0  0
  188.5990  176.6590  143.9280 O   0  0  0  0  0  0  0  0  0  0  0  0
  190.4830  176.8680  146.3240 C   0  0  0  0  0  0  0  0  0  0  0  0
  190.2830  177.5850  141.8620 C   0  0  0  0  0  0  0  0  0  0  0  0
  190.2850  177.4380  139.3250 C   0  0  0  0  0  0  0  0  0  0  0  0
  189.5240  178.5930  141.8780 O   0  0  0  0  0  0  0  0  0  0  0  0
  189.5430  178.4450  139.1830 O   0  0  0  0  0  0  0  0  0  0  0  0
  190.6740  176.9810  140.6250 N   0  0  0  0  0  2  0  0  0  0  0  0
  190.7670  176.7100  138.1220 C   0  0  0  0  0  1  0  0  0  0  0  0
  3  1  1  0  0  0  0
  3 18  1  0  0  0  0
  4 18  2  0  0  0  0
  4  2  1  0  0  0  0
  5 15  2  0  0  0  0
  5 11  1  0  0  0  0
  6 15  1  0  0  0  0
  8 20  1  0  0  0  0
  9 11  1  0  0  0  0
  9 14  2  0  0  0  0
 11  3  2  0  0  0  0
 12 21  1  6  0  0  0
 12 17  1  0  0  0  0
 12 13  1  0  0  0  0
 13  8  1  0  0  0  0
 14 20  1  0  0  0  0
 14  4  1  0  0  0  0
 15 16  1  0  0  0  0
 16 10  2  0  0  0  0
 16  1  1  0  0  0  0
 17 19  1  0  0  0  0
 19  9  1  0  0  0  0
 20  7  2  0  0  0  0
 21 23  2  0  0  0  0
 22 25  1  0  0  0  0
 24 22  2  0  0  0  0
 25 21  1  0  0  0  0
 26 22  1  0  0  0  0
M  END
>  <MODEL>
2

>  <REMARK>
 VINA RESULT:     -10.2      1.019      1.211
  Name = 
  1 active torsions:
  status: ('A' for Active; 'I' for Inactive)
    1  A    between atoms: C_4  and  C_18
                            x       y       z     vdW  Elec       q    Type
                         _______ _______ _______ _____ _____    ______ ____

>  <TORSDO>
F 1

$$$$
=
 OpenBabel11042410563D

 26 28  0  0  1  0  0  0  0  0999 V2000
  186.7800  178.4080  146.6860 N   0  0  0  0  0  2  0  0  0  0  0  0
  191.3500  177.0640  146.9820 O   0  0  0  0  0  1  0  0  0  0  0  0
  187.8810  177.8710  146.1010 C   0  0  0  0  0  0  0  0  0  0  0  0
  190.1890  177.1770  146.2240 C   0  0  0  0  0  0  0  0  0  0  0  0
  186.6580  177.6130  144.0720 N   0  0  0  0  0  0  0  0  0  0  0  0
  184.3040  178.2980  143.8590 C   0  0  0  0  0  1  0  0  0  0  0  0
  192.0160  175.2900  144.8830 O   0  0  0  0  0  0  0  0  0  0  0  0
  192.0530  176.8420  143.1640 N   0  0  0  0  0  2  0  0  0  0  0  0
  188.9500  176.8950  144.1310 C   0  0  0  0  0  0  0  0  0  0  0  0
  184.6140  179.0630  146.5670 O   0  0  0  0  0  0  0  0  0  0  0  0
  187.8250  177.4620  144.7560 C   0  0  0  0  0  0  0  0  0  0  0  0
  190.5070  176.8400  141.3020 C   0  0  1  0  0  3  0  0  0  0  0  0
  191.3390  177.7040  142.2390 C   0  0  0  0  0  2  0  0  0  0  0  0
  190.1640  176.7660  144.8720 C   0  0  0  0  0  0  0  0  0  0  0  0
  185.5560  178.1520  144.6560 C   0  0  0  0  0  0  0  0  0  0  0  0
  185.6190  178.5600  145.9970 C   0  0  0  0  0  0  0  0  0  0  0  0
  189.7370  175.8360  142.0420 N   0  0  0  0  0  2  0  0  0  0  0  0
  189.0570  177.7220  146.8260 C   0  0  0  0  0  3  0  0  0  0  0  0
  188.7730  176.4710  142.8000 O   0  0  0  0  0  0  0  0  0  0  0  0
  191.4250  176.2370  144.2990 C   0  0  0  0  0  0  0  0  0  0  0  0
  189.6410  177.6560  140.3910 C   0  0  0  0  0  0  0  0  0  0  0  0
  188.9850  178.1600  137.9890 C   0  0  0  0  0  0  0  0  0  0  0  0
  188.8100  178.4750  140.8700 O   0  0  0  0  0  0  0  0  0  0  0  0
  188.1260  179.0210  138.3170 O   0  0  0  0  0  0  0  0  0  0  0  0
  189.7520  177.4650  138.9770 N   0  0  0  0  0  2  0  0  0  0  0  0
  189.2050  177.8590  136.5500 C   0  0  0  0  0  1  0  0  0  0  0  0
  3  1  1  0  0  0  0
  3 18  1  0  0  0  0
  4 18  2  0  0  0  0
  4  2  1  0  0  0  0
  5 15  2  0  0  0  0
  5 11  1  0  0  0  0
  6 15  1  0  0  0  0
  8 20  1  0  0  0  0
  9 11  1  0  0  0  0
  9 14  2  0  0  0  0
 11  3  2  0  0  0  0
 12 21  1  1  0  0  0
 12 17  1  0  0  0  0
 12 13  1  0  0  0  0
 13  8  1  0  0  0  0
 14  4  1  0  0  0  0
 15 16  1  0  0  0  0
 16 10  2  0  0  0  0
 16  1  1  0  0  0  0
 17 19  1  0  0  0  0
 19  9  1  0  0  0  0
 20 14  1  0  0  0  0
 20  7  2  0  0  0  0
 21 23  2  0  0  0  0
 22 24  2  0  0  0  0
 22 25  1  0  0  0  0
 25 21  1  0  0  0  0
 26 22  1  0  0  0  0
M  END
>  <MODEL>
3

>  <REMARK>
 VINA RESULT:      -9.8      1.893      2.603
  Name = 
  1 active torsions:
  status: ('A' for Active; 'I' for Inactive)
    1  A    between atoms: C_4  and  C_18
                            x       y       z     vdW  Elec       q    Type
                         _______ _______ _______ _____ _____    ______ ____

>  <TORSDO>
F 1

$$$$
=
 OpenBabel11042410563D

 26 28  0  0  1  0  0  0  0  0999 V2000
  189.7470  177.8410  140.8630 N   0  0  0  0  0  2  0  0  0  0  0  0
  185.2530  179.4280  140.6060 O   0  0  0  0  0  1  0  0  0  0  0  0
  188.5250  177.9930  141.4370 C   0  0  0  0  0  0  0  0  0  0  0  0
  186.2470  178.7790  141.3320 C   0  0  0  0  0  0  0  0  0  0  0  0
  189.3260  176.8950  143.3950 N   0  0  0  0  0  0  0  0  0  0  0  0
  191.6350  176.0660  143.5860 C   0  0  0  0  0  1  0  0  0  0  0  0
  183.6340  178.1900  142.5680 O   0  0  0  0  0  0  0  0  0  0  0  0
  184.4660  179.3160  144.4130 N   0  0  0  0  0  2  0  0  0  0  0  0
  187.0450  177.6460  143.3510 C   0  0  0  0  0  0  0  0  0  0  0  0
  191.8870  177.1060  140.9660 O   0  0  0  0  0  0  0  0  0  0  0  0
  188.3040  177.5090  142.7390 C   0  0  0  0  0  0  0  0  0  0  0  0
  185.6820  178.2530  146.2150 C   0  0  1  0  0  3  0  0  0  0  0  0
  185.5260  179.5190  145.3840 C   0  0  0  0  0  2  0  0  0  0  0  0
  185.9980  178.3110  142.6420 C   0  0  0  0  0  0  0  0  0  0  0  0
  190.5490  176.7440  142.8220 C   0  0  0  0  0  0  0  0  0  0  0  0
  190.7650  177.2300  141.5240 C   0  0  0  0  0  0  0  0  0  0  0  0
  185.7430  177.0600  145.3670 N   0  0  0  0  0  2  0  0  0  0  0  0
  187.4980  178.6180  140.7410 C   0  0  0  0  0  3  0  0  0  0  0  0
  186.9130  177.0820  144.6350 O   0  0  0  0  0  0  0  0  0  0  0  0
  184.6510  178.5630  143.2100 C   0  0  0  0  0  0  0  0  0  0  0  0
  186.8390  178.3310  147.1630 C   0  0  0  0  0  0  0  0  0  0  0  0
  189.2090  177.5700  147.6750 C   0  0  0  0  0  0  0  0  0  0  0  0
  186.7760  179.0710  148.1840 O   0  0  0  0  0  0  0  0  0  0  0  0
  189.2860  178.2470  148.7340 O   0  0  0  0  0  0  0  0  0  0  0  0
  188.0240  177.5820  146.8720 N   0  0  0  0  0  2  0  0  0  0  0  0
  190.3690  176.7430  147.2490 C   0  0  0  0  0  1  0  0  0  0  0  0
  1  3  1  0  0  0  0
  1 16  1  0  0  0  0
  2  4  1  0  0  0  0
  3 11  1  0  0  0  0
  4 14  2  0  0  0  0
  7 20  2  0  0  0  0
  8 13  1  0  0  0  0
  9 19  1  0  0  0  0
 10 16  2  0  0  0  0
 11  9  2  0  0  0  0
 11  5  1  0  0  0  0
 12 21  1  6  0  0  0
 13 12  1  0  0  0  0
 14 20  1  0  0  0  0
 14  9  1  0  0  0  0
 15  5  2  0  0  0  0
 15  6  1  0  0  0  0
 16 15  1  0  0  0  0
 17 12  1  0  0  0  0
 18  4  1  0  0  0  0
 18  3  2  0  0  0  0
 19 17  1  0  0  0  0
 20  8  1  0  0  0  0
 21 23  2  0  0  0  0
 22 24  2  0  0  0  0
 25 21  1  0  0  0  0
 25 22  1  0  0  0  0
 26 22  1  0  0  0  0
M  END
>  <MODEL>
4

>  <REMARK>
 VINA RESULT:      -8.7      1.889      6.619
  Name = 
  1 active torsions:
  status: ('A' for Active; 'I' for Inactive)
    1  A    between atoms: C_4  and  C_18
                            x       y       z     vdW  Elec       q    Type
                         _______ _______ _______ _____ _____    ______ ____

>  <TORSDO>
F 1

$$$$
=
 OpenBabel11042410563D

 26 28  0  0  1  0  0  0  0  0999 V2000
  189.3860  176.6220  143.9070 N   0  0  0  0  0  2  0  0  0  0  0  0
  185.1350  177.8830  145.6730 O   0  0  0  0  0  1  0  0  0  0  0  0
  188.1810  177.2220  143.7370 C   0  0  0  0  0  0  0  0  0  0  0  0
  186.0270  177.8780  144.6050 C   0  0  0  0  0  0  0  0  0  0  0  0
  188.7790  177.7500  141.4910 N   0  0  0  0  0  0  0  0  0  0  0  0
  190.9520  177.1150  140.5250 C   0  0  0  0  0  1  0  0  0  0  0  0
  183.9510  179.9100  144.0950 O   0  0  0  0  0  0  0  0  0  0  0  0
  183.3760  178.5940  142.2780 N   0  0  0  0  0  2  0  0  0  0  0  0
  186.6230  178.4380  142.2960 C   0  0  0  0  0  0  0  0  0  0  0  0
  191.4060  176.0030  143.0890 O   0  0  0  0  0  0  0  0  0  0  0  0
  187.8620  177.8030  142.4950 C   0  0  0  0  0  0  0  0  0  0  0  0
  184.3250  178.8490  140.0660 C   0  0  1  0  0  3  0  0  0  0  0  0
  183.7690  177.8640  141.0850 C   0  0  0  0  0  2  0  0  0  0  0  0
  185.6770  178.4610  143.3660 C   0  0  0  0  0  0  0  0  0  0  0  0
  189.9850  177.1470  141.6600 C   0  0  0  0  0  0  0  0  0  0  0  0
  190.2960  176.5680  142.9000 C   0  0  0  0  0  0  0  0  0  0  0  0
  185.3040  179.7530  140.6740 N   0  0  0  0  0  2  0  0  0  0  0  0
  187.2670  177.2680  144.7820 C   0  0  0  0  0  3  0  0  0  0  0  0
  186.4240  179.0320  141.0360 O   0  0  0  0  0  0  0  0  0  0  0  0
  184.3210  179.0520  143.2510 C   0  0  0  0  0  0  0  0  0  0  0  0
  184.8680  178.1640  138.8490 C   0  0  0  0  0  0  0  0  0  0  0  0
  186.7520  178.0540  137.1480 C   0  0  0  0  0  0  0  0  0  0  0  0
  184.2530  177.1840  138.3430 O   0  0  0  0  0  0  0  0  0  0  0  0
  186.2470  177.0810  136.5280 O   0  0  0  0  0  0  0  0  0  0  0  0
  186.1070  178.6170  138.2950 N   0  0  0  0  0  2  0  0  0  0  0  0
  188.0420  178.6280  136.6820 C   0  0  0  0  0  1  0  0  0  0  0  0
  3  1  1  0  0  0  0
  3 18  1  0  0  0  0
  4 18  2  0  0  0  0
  4  2  1  0  0  0  0
  5 15  2  0  0  0  0
  5 11  1  0  0  0  0
  6 15  1  0  0  0  0
  8 20  1  0  0  0  0
  9 11  1  0  0  0  0
  9 14  2  0  0  0  0
 11  3  2  0  0  0  0
 12 21  1  6  0  0  0
 12 17  1  0  0  0  0
 12 13  1  0  0  0  0
 13  8  1  0  0  0  0
 14  4  1  0  0  0  0
 15 16  1  0  0  0  0
 16 10  2  0  0  0  0
 16  1  1  0  0  0  0
 17 19  1  0  0  0  0
 19  9  1  0  0  0  0
 20 14  1  0  0  0  0
 20  7  2  0  0  0  0
 22 25  1  0  0  0  0
 23 21  2  0  0  0  0
 24 22  2  0  0  0  0
 25 21  1  0  0  0  0
 26 22  1  0  0  0  0
M  END
>  <MODEL>
5

>  <REMARK>
 VINA RESULT:      -8.6      2.731      5.611
  Name = 
  1 active torsions:
  status: ('A' for Active; 'I' for Inactive)
    1  A    between atoms: C_4  and  C_18
                            x       y       z     vdW  Elec       q    Type
                         _______ _______ _______ _____ _____    ______ ____

>  <TORSDO>
F 1

$$$$
=
 OpenBabel11042410563D

 26 28  0  0  1  0  0  0  0  0999 V2000
  187.1900  178.8030  140.6790 N   0  0  0  0  0  2  0  0  0  0  0  0
  183.7100  180.2080  143.6280 O   0  0  0  0  0  1  0  0  0  0  0  0
  186.6050  178.7580  141.9040 C   0  0  0  0  0  0  0  0  0  0  0  0
  184.8550  179.4460  143.4140 C   0  0  0  0  0  0  0  0  0  0  0  0
  188.3010  177.2540  142.6400 N   0  0  0  0  0  0  0  0  0  0  0  0
  190.1240  176.5050  141.1670 C   0  0  0  0  0  1  0  0  0  0  0  0
  183.5020  178.4620  145.8440 O   0  0  0  0  0  0  0  0  0  0  0  0
  185.4160  179.1420  146.9560 N   0  0  0  0  0  2  0  0  0  0  0  0
  186.5820  177.8940  144.1900 C   0  0  0  0  0  0  0  0  0  0  0  0
  188.8380  178.1590  139.2640 O   0  0  0  0  0  0  0  0  0  0  0  0
  187.1740  177.9640  142.9170 C   0  0  0  0  0  0  0  0  0  0  0  0
  187.3450  177.7270  147.3240 C   0  0  1  0  0  3  0  0  0  0  0  0
  186.8640  179.1490  147.0690 C   0  0  0  0  0  2  0  0  0  0  0  0
  185.4080  178.6650  144.4530 C   0  0  0  0  0  0  0  0  0  0  0  0
  188.8880  177.3000  141.4150 C   0  0  0  0  0  0  0  0  0  0  0  0
  188.3180  178.0950  140.4100 C   0  0  0  0  0  0  0  0  0  0  0  0
  186.7310  176.7800  146.3900 N   0  0  0  0  0  2  0  0  0  0  0  0
  185.4510  179.4880  142.1560 C   0  0  0  0  0  3  0  0  0  0  0  0
  187.1980  177.0300  145.1160 O   0  0  0  0  0  0  0  0  0  0  0  0
  184.7340  178.7120  145.7730 C   0  0  0  0  0  0  0  0  0  0  0  0
  188.8390  177.6240  147.3330 C   0  0  0  0  0  0  0  0  0  0  0  0
  190.9230  176.9940  146.0220 C   0  0  0  0  0  0  0  0  0  0  0  0
  189.4960  177.9920  148.3460 O   0  0  0  0  0  0  0  0  0  0  0  0
  191.7060  177.3060  146.9580 O   0  0  0  0  0  0  0  0  0  0  0  0
  189.5060  177.1340  146.1650 N   0  0  0  0  0  2  0  0  0  0  0  0
  191.4790  176.4700  144.7470 C   0  0  0  0  0  1  0  0  0  0  0  0
  1  3  1  0  0  0  0
  3 18  2  0  0  0  0
  3 11  1  0  0  0  0
  4  2  1  0  0  0  0
  4 14  2  0  0  0  0
  5 11  1  0  0  0  0
  6 15  1  0  0  0  0
  8 13  1  0  0  0  0
  9 14  1  0  0  0  0
  9 19  1  0  0  0  0
 10 16  2  0  0  0  0
 11  9  2  0  0  0  0
 12 21  1  6  0  0  0
 13 12  1  0  0  0  0
 14 20  1  0  0  0  0
 15  5  2  0  0  0  0
 16  1  1  0  0  0  0
 16 15  1  0  0  0  0
 17 12  1  0  0  0  0
 18  4  1  0  0  0  0
 19 17  1  0  0  0  0
 20  7  2  0  0  0  0
 20  8  1  0  0  0  0
 21 23  2  0  0  0  0
 22 25  1  0  0  0  0
 22 24  2  0  0  0  0
 25 21  1  0  0  0  0
 26 22  1  0  0  0  0
M  END
>  <MODEL>
6

>  <REMARK>
 VINA RESULT:      -8.4      1.888      5.402
  Name = 
  1 active torsions:
  status: ('A' for Active; 'I' for Inactive)
    1  A    between atoms: C_4  and  C_18
                            x       y       z     vdW  Elec       q    Type
                         _______ _______ _______ _____ _____    ______ ____

>  <TORSDO>
F 1

$$$$
=
 OpenBabel11042410563D

 26 28  0  0  1  0  0  0  0  0999 V2000
  186.7960  177.6300  137.8540 N   0  0  0  0  0  2  0  0  0  0  0  0
  191.3740  176.3640  138.3280 O   0  0  0  0  0  1  0  0  0  0  0  0
  187.9170  177.5580  138.6170 C   0  0  0  0  0  0  0  0  0  0  0  0
  190.2320  176.9340  138.8840 C   0  0  0  0  0  0  0  0  0  0  0  0
  186.7350  178.5760  140.4200 N   0  0  0  0  0  0  0  0  0  0  0  0
  184.3720  179.2390  140.2340 C   0  0  0  0  0  1  0  0  0  0  0  0
  192.5630  177.6900  140.5260 O   0  0  0  0  0  0  0  0  0  0  0  0
  191.5250  176.4880  142.2120 N   0  0  0  0  0  2  0  0  0  0  0  0
  189.0400  177.9850  140.7470 C   0  0  0  0  0  0  0  0  0  0  0  0
  184.6210  178.2130  137.6080 O   0  0  0  0  0  0  0  0  0  0  0  0
  187.8900  178.0420  139.9390 C   0  0  0  0  0  0  0  0  0  0  0  0
  189.9620  177.4440  143.7940 C   0  0  1  0  0  3  0  0  0  0  0  0
  190.3390  176.2010  142.9990 C   0  0  0  0  0  2  0  0  0  0  0  0
  190.2320  177.4030  140.2170 C   0  0  0  0  0  0  0  0  0  0  0  0
  185.6120  178.6470  139.6560 C   0  0  0  0  0  0  0  0  0  0  0  0
  185.6440  178.1610  138.3410 C   0  0  0  0  0  0  0  0  0  0  0  0
  189.9550  178.6390  142.9460 N   0  0  0  0  0  2  0  0  0  0  0  0
  189.0840  177.0140  138.0980 C   0  0  0  0  0  3  0  0  0  0  0  0
  188.9230  178.5430  142.0340 O   0  0  0  0  0  0  0  0  0  0  0  0
  191.4840  177.2400  140.9950 C   0  0  0  0  0  0  0  0  0  0  0  0
  188.6750  177.2740  144.5410 C   0  0  0  0  0  0  0  0  0  0  0  0
  187.4000  177.7410  146.6890 C   0  0  0  0  0  0  0  0  0  0  0  0
  187.6970  176.6890  143.9990 O   0  0  0  0  0  0  0  0  0  0  0  0
  186.3500  177.1720  146.2880 O   0  0  0  0  0  0  0  0  0  0  0  0
  188.5660  177.8140  145.8620 N   0  0  0  0  0  2  0  0  0  0  0  0
  187.4280  178.3490  148.0450 C   0  0  0  0  0  1  0  0  0  0  0  0
  1 16  1  0  0  0  0
  1  3  1  0  0  0  0
  2  4  1  0  0  0  0
  3 11  1  0  0  0  0
  4 14  2  0  0  0  0
  7 20  2  0  0  0  0
  8 13  1  0  0  0  0
  9 19  1  0  0  0  0
 10 16  2  0  0  0  0
 11  5  1  0  0  0  0
 11  9  2  0  0  0  0
 12 21  1  6  0  0  0
 13 12  1  0  0  0  0
 14  9  1  0  0  0  0
 14 20  1  0  0  0  0
 15  6  1  0  0  0  0
 15  5  2  0  0  0  0
 16 15  1  0  0  0  0
 17 12  1  0  0  0  0
 18  3  2  0  0  0  0
 18  4  1  0  0  0  0
 19 17  1  0  0  0  0
 20  8  1  0  0  0  0
 21 25  1  0  0  0  0
 22 26  1  0  0  0  0
 23 21  2  0  0  0  0
 24 22  2  0  0  0  0
 25 22  1  0  0  0  0
M  END
>  <MODEL>
7

>  <REMARK>
 VINA RESULT:      -8.2      2.510      6.295
  Name = 
  1 active torsions:
  status: ('A' for Active; 'I' for Inactive)
    1  A    between atoms: C_4  and  C_18
                            x       y       z     vdW  Elec       q    Type
                         _______ _______ _______ _____ _____    ______ ____

>  <TORSDO>
F 1

$$$$
=
 OpenBabel11042410563D

 26 28  0  0  1  0  0  0  0  0999 V2000
  186.9800  177.5990  144.4090 N   0  0  0  0  0  2  0  0  0  0  0  0
  183.5030  178.9980  141.4550 O   0  0  0  0  0  1  0  0  0  0  0  0
  186.5790  177.9610  143.1640 C   0  0  0  0  0  0  0  0  0  0  0  0
  184.8420  178.6740  141.6490 C   0  0  0  0  0  0  0  0  0  0  0  0
  188.8040  177.6430  142.3720 N   0  0  0  0  0  0  0  0  0  0  0  0
  190.6340  176.9130  143.8470 C   0  0  0  0  0  1  0  0  0  0  0  0
  184.5800  180.1290  139.0960 O   0  0  0  0  0  0  0  0  0  0  0  0
  185.3180  178.1640  138.1180 N   0  0  0  0  0  2  0  0  0  0  0  0
  187.1240  178.3620  140.8140 C   0  0  0  0  0  0  0  0  0  0  0  0
  188.6120  176.9250  145.8290 O   0  0  0  0  0  0  0  0  0  0  0  0
  187.5130  177.9830  142.1110 C   0  0  0  0  0  0  0  0  0  0  0  0
  187.6470  177.6450  137.7090 C   0  0  1  0  0  3  0  0  0  0  0  0
  186.2790  177.0770  138.0610 C   0  0  0  0  0  2  0  0  0  0  0  0
  185.7560  178.6970  140.5710 C   0  0  0  0  0  0  0  0  0  0  0  0
  189.2070  177.2790  143.6180 C   0  0  0  0  0  0  0  0  0  0  0  0
  188.2710  177.2570  144.6630 C   0  0  0  0  0  0  0  0  0  0  0  0
  187.9720  178.8090  138.5380 N   0  0  0  0  0  2  0  0  0  0  0  0
  185.2560  178.3100  142.9280 C   0  0  0  0  0  3  0  0  0  0  0  0
  188.1440  178.4030  139.8450 O   0  0  0  0  0  0  0  0  0  0  0  0
  185.2230  179.0550  139.2340 C   0  0  0  0  0  0  0  0  0  0  0  0
  188.7240  176.6050  137.7500 C   0  0  0  0  0  0  0  0  0  0  0  0
  191.1950  176.1330  138.1050 C   0  0  0  0  0  0  0  0  0  0  0  0
  188.4390  175.3880  137.5750 O   0  0  0  0  0  0  0  0  0  0  0  0
  191.0680  174.8910  137.9360 O   0  0  0  0  0  0  0  0  0  0  0  0
  190.0690  177.0120  138.0220 N   0  0  0  0  0  2  0  0  0  0  0  0
  192.5400  176.6960  138.3970 C   0  0  0  0  0  1  0  0  0  0  0  0
  1 16  1  0  0  0  0
  2  4  1  0  0  0  0
  3  1  1  0  0  0  0
  4 18  2  0  0  0  0
  5 15  2  0  0  0  0
  7 20  2  0  0  0  0
  8 20  1  0  0  0  0
  9 11  1  0  0  0  0
 11  5  1  0  0  0  0
 11  3  2  0  0  0  0
 12 21  1  1  0  0  0
 12 13  1  0  0  0  0
 12 17  1  0  0  0  0
 13  8  1  0  0  0  0
 14  9  2  0  0  0  0
 14  4  1  0  0  0  0
 15  6  1  0  0  0  0
 15 16  1  0  0  0  0
 16 10  2  0  0  0  0
 17 19  1  0  0  0  0
 18  3  1  0  0  0  0
 19  9  1  0  0  0  0
 20 14  1  0  0  0  0
 21 25  1  0  0  0  0
 22 26  1  0  0  0  0
 23 21  2  0  0  0  0
 24 22  2  0  0  0  0
 25 22  1  0  0  0  0
M  END
>  <MODEL>
8

>  <REMARK>
 VINA RESULT:      -8.1      2.786      5.725
  Name = 
  1 active torsions:
  status: ('A' for Active; 'I' for Inactive)
    1  A    between atoms: C_4  and  C_18
                            x       y       z     vdW  Elec       q    Type
                         _______ _______ _______ _____ _____    ______ ____

>  <TORSDO>
F 1

$$$$
=
 OpenBabel11042410563D

 26 28  0  0  1  0  0  0  0  0999 V2000
  187.5130  177.4430  144.3230 N   0  0  0  0  0  2  0  0  0  0  0  0
  183.7500  178.7090  141.6750 O   0  0  0  0  0  1  0  0  0  0  0  0
  187.0030  177.8310  143.1260 C   0  0  0  0  0  0  0  0  0  0  0  0
  185.1190  178.4800  141.7650 C   0  0  0  0  0  0  0  0  0  0  0  0
  189.1870  177.7240  142.1780 N   0  0  0  0  0  0  0  0  0  0  0  0
  191.1610  177.0680  143.4930 C   0  0  0  0  0  1  0  0  0  0  0  0
  184.5780  180.0300  139.3150 O   0  0  0  0  0  0  0  0  0  0  0  0
  185.3910  178.1760  138.1900 N   0  0  0  0  0  2  0  0  0  0  0  0
  187.3560  178.3840  140.7710 C   0  0  0  0  0  0  0  0  0  0  0  0
  189.2830  176.8300  145.5980 O   0  0  0  0  0  0  0  0  0  0  0  0
  187.8590  177.9760  142.0190 C   0  0  0  0  0  0  0  0  0  0  0  0
  187.7180  177.8580  137.6060 C   0  0  1  0  0  3  0  0  0  0  0  0
  186.4230  177.1700  138.0140 C   0  0  0  0  0  2  0  0  0  0  0  0
  185.9540  178.6240  140.6340 C   0  0  0  0  0  0  0  0  0  0  0  0
  189.6980  177.3340  143.3750 C   0  0  0  0  0  0  0  0  0  0  0  0
  188.8400  177.1890  144.4750 C   0  0  0  0  0  0  0  0  0  0  0  0
  188.0110  179.0030  138.4710 N   0  0  0  0  0  2  0  0  0  0  0  0
  185.6440  178.0890  142.9950 C   0  0  0  0  0  3  0  0  0  0  0  0
  188.3020  178.5490  139.7420 O   0  0  0  0  0  0  0  0  0  0  0  0
  185.3060  179.0030  139.3540 C   0  0  0  0  0  0  0  0  0  0  0  0
  188.8690  176.9030  137.5220 C   0  0  0  0  0  0  0  0  0  0  0  0
  189.5990  174.5000  137.1330 C   0  0  0  0  0  0  0  0  0  0  0  0
  190.0520  177.3200  137.6580 O   0  0  0  0  0  0  0  0  0  0  0  0
  190.8240  174.7650  137.2620 O   0  0  0  0  0  0  0  0  0  0  0  0
  188.6040  175.5220  137.2540 N   0  0  0  0  0  2  0  0  0  0  0  0
  189.1790  173.1030  136.8510 C   0  0  0  0  0  1  0  0  0  0  0  0
  1 16  1  0  0  0  0
  2  4  1  0  0  0  0
  3  1  1  0  0  0  0
  4 18  2  0  0  0  0
  5 15  2  0  0  0  0
  7 20  2  0  0  0  0
  8 20  1  0  0  0  0
  9 11  1  0  0  0  0
 11  5  1  0  0  0  0
 11  3  2  0  0  0  0
 12 21  1  1  0  0  0
 12 13  1  0  0  0  0
 12 17  1  0  0  0  0
 13  8  1  0  0  0  0
 14  9  2  0  0  0  0
 14  4  1  0  0  0  0
 15  6  1  0  0  0  0
 15 16  1  0  0  0  0
 16 10  2  0  0  0  0
 17 19  1  0  0  0  0
 18  3  1  0  0  0  0
 19  9  1  0  0  0  0
 20 14  1  0  0  0  0
 21 23  2  0  0  0  0
 22 25  1  0  0  0  0
 22 24  2  0  0  0  0
 25 21  1  0  0  0  0
 26 22  1  0  0  0  0
M  END
>  <MODEL>
9

>  <REMARK>
 VINA RESULT:      -7.9      2.955      5.897
  Name = 
  1 active torsions:
  status: ('A' for Active; 'I' for Inactive)
    1  A    between atoms: C_4  and  C_18
                            x       y       z     vdW  Elec       q    Type
                         _______ _______ _______ _____ _____    ______ ____

>  <TORSDO>
F 1

$$$$
