=
 OpenBabel11032419243D

 51 58  0  0  1  0  0  0  0  0999 V2000
  188.9050  176.6490  138.3160 S   0  0  0  0  0  0  0  0  0  0  0  0
  188.0850  178.6340  136.6390 C   0  0  0  0  0  1  0  0  0  0  0  0
  187.6900  177.9420  137.9310 C   0  0  1  0  0  3  0  0  0  0  0  0
  186.3220  177.3050  137.7840 C   0  0  0  0  0  2  0  0  0  0  0  0
  186.3140  176.3250  136.6250 C   0  0  0  0  0  2  0  0  0  0  0  0
  180.4290  174.5840  138.6990 C   0  0  0  0  0  3  0  0  0  0  0  0
  179.7450  173.9800  139.7580 C   0  0  0  0  0  3  0  0  0  0  0  0
  184.8110  174.7190  137.4170 C   0  0  0  0  0  2  0  0  0  0  0  0
  184.0300  176.8390  136.8330 C   0  0  1  0  0  3  0  0  0  0  0  0
  184.9740  175.7920  136.4470 N   0  0  0  0  0  0  0  0  0  0  0  0
  180.1710  176.7460  139.7530 C   0  0  0  0  0  0  0  0  0  0  0  0
  183.3090  177.3600  135.5860 C   0  0  0  0  0  2  0  0  0  0  0  0
  179.5540  178.6990  138.4500 C   0  0  1  0  0  3  0  0  0  0  0  0
  179.2820  174.7550  140.8200 C   0  0  0  0  0  3  0  0  0  0  0  0
  183.0660  176.2640  137.8900 C   0  0  1  0  0  3  0  0  0  0  0  0
  180.1720  178.1660  139.6530 N   0  0  0  0  0  0  0  0  0  0  0  0
  182.2720  178.2530  135.9720 O   0  0  0  0  0  0  0  0  0  0  0  0
  179.4850  176.1350  140.8130 C   0  0  0  0  0  3  0  0  0  0  0  0
  181.5680  176.5150  137.5990 C   0  0  2  0  0  3  0  0  0  0  0  0
  178.9750  179.9450  138.6980 O   0  0  0  0  0  1  0  0  0  0  0  0
  181.3850  177.9060  136.9930 C   0  0  0  0  0  0  0  0  0  0  0  0
  180.5370  178.8120  137.3880 N   0  0  0  0  0  0  0  0  0  0  0  0
  183.3990  174.7950  137.9400 C   0  0  0  0  0  2  0  0  0  0  0  0
  180.6540  175.9680  138.6820 C   0  0  0  0  0  0  0  0  0  0  0  0
  181.9930  178.6830  141.1660 C   0  0  0  0  0  2  0  0  0  0  0  0
  180.8460  179.0230  140.5910 C   0  0  0  0  0  3  0  0  0  0  0  0
  189.6330  177.6040  139.6880 C   0  0  1  0  0  3  0  0  0  0  0  0
  189.1350  177.3400  146.1660 C   0  0  0  0  0  3  0  0  0  0  0  0
  188.4300  177.4660  143.8450 C   0  0  0  0  0  0  0  0  0  0  0  0
  187.3560  177.6490  142.8040 C   0  0  0  0  0  2  0  0  0  0  0  0
  190.4340  177.0260  145.7600 C   0  0  0  0  0  3  0  0  0  0  0  0
  186.7530  177.8720  145.6960 C   0  0  0  0  0  1  0  0  0  0  0  0
  190.0710  177.0620  142.0540 N   0  0  0  0  0  2  0  0  0  0  0  0
  188.1300  177.5540  145.2180 C   0  0  0  0  0  0  0  0  0  0  0  0
  190.7380  176.9240  144.4010 C   0  0  0  0  0  3  0  0  0  0  0  0
  189.7420  177.1330  143.4450 C   0  0  0  0  0  0  0  0  0  0  0  0
  187.9350  178.1220  141.4720 C   0  0  0  0  0  2  0  0  0  0  0  0
  189.0370  177.1630  141.0240 C   0  0  1  0  0  3  0  0  0  0  0  0
  191.0800  177.4380  139.6890 N   0  0  0  0  0  2  0  0  0  0  0  0
  191.4020  176.3980  138.7250 C   0  0  0  0  0  2  0  0  0  0  0  0
  193.3950  175.2600  137.6710 C   0  0  2  0  0  0  0  0  0  0  0  0
  192.9240  176.3620  136.7500 C   0  0  0  0  0  2  0  0  0  0  0  0
  192.5870  174.1180  137.7140 O   0  0  0  0  0  1  0  0  0  0  0  0
  192.8470  176.5460  138.2650 C   0  0  1  0  0  3  0  0  0  0  0  0
  194.2270  173.7480  134.8570 O   0  0  0  0  0  1  0  0  0  0  0  0
  194.8470  175.0910  137.7740 N   0  0  1  0  0  0  0  0  0  0  0  0
  195.1600  173.9470  138.6530 C   0  0  0  0  0  2  0  0  0  0  0  0
  195.9110  172.8090  137.9610 C   0  0  0  0  0  2  0  0  0  0  0  0
  195.3330  173.7140  135.7040 C   0  0  2  0  0  3  0  0  0  0  0  0
  195.2400  172.5080  136.6350 C   0  0  0  0  0  2  0  0  0  0  0  0
  195.4820  175.0550  136.4420 C   0  0  0  0  0  2  0  0  0  0  0  0
  3  2  1  6  0  0  0
  3  1  1  0  0  0  0
  4  3  1  0  0  0  0
  5  4  1  0  0  0  0
  6  7  1  0  0  0  0
  7 14  2  0  0  0  0
  8 23  1  0  0  0  0
  9 12  1  6  0  0  0
  9 15  1  0  0  0  0
 10  5  1  0  0  0  0
 10  9  1  0  0  0  0
 10  8  1  0  0  0  0
 11 18  2  0  0  0  0
 12 17  1  0  0  0  0
 13 20  1  1  0  0  0
 13 16  1  0  0  0  0
 15 23  1  6  0  0  0
 16 11  1  0  0  0  0
 16 26  1  0  0  0  0
 17 21  1  0  0  0  0
 18 14  1  0  0  0  0
 19 21  1  1  0  0  0
 19 15  1  0  0  0  0
 19 24  1  0  0  0  0
 21 22  2  0  0  0  0
 22 13  1  0  0  0  0
 24  6  2  0  0  0  0
 24 11  1  0  0  0  0
 26 25  2  0  0  0  0
 27  1  1  6  0  0  0
 27 39  1  0  0  0  0
 29 34  1  0  0  0  0
 30 29  1  0  0  0  0
 31 28  1  0  0  0  0
 33 36  1  0  0  0  0
 34 32  1  0  0  0  0
 34 28  2  0  0  0  0
 35 31  2  0  0  0  0
 36 29  2  0  0  0  0
 36 35  1  0  0  0  0
 37 30  1  0  0  0  0
 38 27  1  6  0  0  0
 38 37  1  0  0  0  0
 38 33  1  0  0  0  0
 40 39  1  0  0  0  0
 41 43  1  1  0  0  0
 41 46  1  0  0  0  0
 41 44  1  0  0  0  0
 42 41  1  0  0  0  0
 42 44  1  0  0  0  0
 44 40  1  1  0  0  0
 46 51  1  6  0  0  0
 46 47  1  0  0  0  0
 48 47  1  0  0  0  0
 49 45  1  1  0  0  0
 49 51  1  0  0  0  0
 49 50  1  0  0  0  0
 50 48  1  0  0  0  0
M  END
>  <MODEL>
1

>  <REMARK>
 VINA RESULT:      -8.5      0.000      0.000
  Name = 
  11 active torsions:
  status: ('A' for Active; 'I' for Inactive)
    1  A    between atoms: C_2  and  N_16
    2  A    between atoms: C_3  and  N_11
    3  A    between atoms: C_3  and  S_45
    4  A    between atoms: C_3  and  C_49
    5  A    between atoms: N_10  and  C_27
    6  A    between atoms: N_11  and  C_42
    7  A    between atoms: C_23  and  C_42
    8  A    between atoms: C_24  and  N_33
    9  A    between atoms: C_27  and  C_43
   10  A    between atoms: C_35  and  C_43
   11  A    between atoms: C_35  and  S_45
                            x       y       z     vdW  Elec       q    Type
                         _______ _______ _______ _____ _____    ______ ____

>  <TORSDO>
F 11

$$$$
=
 OpenBabel11032419243D

 51 58  0  0  1  0  0  0  0  0999 V2000
  188.7470  176.5980  138.4660 S   0  0  0  0  0  0  0  0  0  0  0  0
  189.0270  177.6530  135.9690 C   0  0  0  0  0  1  0  0  0  0  0  0
  188.2120  177.8230  137.2380 C   0  0  1  0  0  3  0  0  0  0  0  0
  186.7390  177.6150  136.9430 C   0  0  0  0  0  2  0  0  0  0  0  0
  186.5610  176.7010  135.7440 C   0  0  0  0  0  2  0  0  0  0  0  0
  180.9090  175.3030  138.5840 C   0  0  0  0  0  3  0  0  0  0  0  0
  180.3120  175.0160  139.8140 C   0  0  0  0  0  3  0  0  0  0  0  0
  185.2210  175.3260  137.0780 C   0  0  0  0  0  2  0  0  0  0  0  0
  184.2510  177.1000  135.9110 C   0  0  1  0  0  3  0  0  0  0  0  0
  185.2640  176.0510  135.8150 N   0  0  0  0  0  0  0  0  0  0  0  0
  180.5100  177.6650  138.9310 C   0  0  0  0  0  0  0  0  0  0  0  0
  183.4500  177.1550  134.6070 C   0  0  0  0  0  2  0  0  0  0  0  0
  179.6940  179.0660  137.1240 C   0  0  1  0  0  3  0  0  0  0  0  0
  179.8220  176.0510  140.6090 C   0  0  0  0  0  3  0  0  0  0  0  0
  183.3730  176.8200  137.1470 C   0  0  1  0  0  3  0  0  0  0  0  0
  180.3920  178.9790  138.3970 N   0  0  0  0  0  0  0  0  0  0  0  0
  182.3560  178.0530  134.7570 O   0  0  0  0  0  0  0  0  0  0  0  0
  179.9110  177.3700  140.1640 C   0  0  0  0  0  3  0  0  0  0  0  0
  181.8500  176.8660  136.8780 C   0  0  2  0  0  3  0  0  0  0  0  0
  179.0230  180.2850  137.0080 O   0  0  0  0  0  1  0  0  0  0  0  0
  181.5340  177.9830  135.8830 C   0  0  0  0  0  0  0  0  0  0  0  0
  180.6290  178.9080  136.0250 N   0  0  0  0  0  0  0  0  0  0  0  0
  183.8260  175.4660  137.6300 C   0  0  0  0  0  2  0  0  0  0  0  0
  181.0190  176.6250  138.1270 C   0  0  0  0  0  0  0  0  0  0  0  0
  182.2680  180.4850  138.6870 C   0  0  0  0  0  2  0  0  0  0  0  0
  181.0240  180.1290  138.9840 C   0  0  0  0  0  3  0  0  0  0  0  0
  189.7810  177.8020  139.3610 C   0  0  1  0  0  3  0  0  0  0  0  0
  184.8830  178.4230  143.5940 C   0  0  0  0  0  3  0  0  0  0  0  0
  187.1310  177.9910  142.7810 C   0  0  0  0  0  0  0  0  0  0  0  0
  188.5450  177.5210  143.0080 C   0  0  0  0  0  2  0  0  0  0  0  0
  184.5330  178.9640  142.3550 C   0  0  0  0  0  3  0  0  0  0  0  0
  186.5140  177.3880  145.1590 C   0  0  0  0  0  1  0  0  0  0  0  0
  187.7200  178.5900  140.4660 N   0  0  0  0  0  2  0  0  0  0  0  0
  186.1780  177.9430  143.8160 C   0  0  0  0  0  0  0  0  0  0  0  0
  185.4750  179.0270  141.3270 C   0  0  0  0  0  3  0  0  0  0  0  0
  186.7720  178.5530  141.5370 C   0  0  0  0  0  0  0  0  0  0  0  0
  189.2090  177.0810  141.7040 C   0  0  0  0  0  2  0  0  0  0  0  0
  189.1160  178.2080  140.6770 C   0  0  1  0  0  3  0  0  0  0  0  0
  191.1000  177.2340  139.6060 N   0  0  0  0  0  2  0  0  0  0  0  0
  191.4100  176.3530  138.4910 C   0  0  0  0  0  2  0  0  0  0  0  0
  193.4790  175.2270  137.5830 C   0  0  2  0  0  0  0  0  0  0  0  0
  193.0150  176.2620  136.5850 C   0  0  0  0  0  2  0  0  0  0  0  0
  192.7050  174.0630  137.6550 O   0  0  0  0  0  1  0  0  0  0  0  0
  192.8670  176.5230  138.0840 C   0  0  1  0  0  3  0  0  0  0  0  0
  194.4760  173.5850  134.8980 O   0  0  0  0  0  1  0  0  0  0  0  0
  194.9300  175.1100  137.7550 N   0  0  1  0  0  0  0  0  0  0  0  0
  195.2390  174.0280  138.7110 C   0  0  0  0  0  2  0  0  0  0  0  0
  196.0530  172.8780  138.1170 C   0  0  0  0  0  2  0  0  0  0  0  0
  195.5450  173.6340  135.7900 C   0  0  2  0  0  3  0  0  0  0  0  0
  195.4480  172.4820  136.7850 C   0  0  0  0  0  2  0  0  0  0  0  0
  195.6220  175.0200  136.4550 C   0  0  0  0  0  2  0  0  0  0  0  0
  3  2  1  6  0  0  0
  3  1  1  0  0  0  0
  4  3  1  0  0  0  0
  5 10  1  0  0  0  0
  5  4  1  0  0  0  0
  6  7  1  0  0  0  0
  7 14  2  0  0  0  0
  8 23  1  0  0  0  0
  9 12  1  6  0  0  0
  9 15  1  0  0  0  0
 10  9  1  0  0  0  0
 10  8  1  0  0  0  0
 11 18  2  0  0  0  0
 12 17  1  0  0  0  0
 13 20  1  6  0  0  0
 13 16  1  0  0  0  0
 15 23  1  6  0  0  0
 16 11  1  0  0  0  0
 16 26  1  0  0  0  0
 17 21  1  0  0  0  0
 18 14  1  0  0  0  0
 19 21  1  1  0  0  0
 19 15  1  0  0  0  0
 19 24  1  0  0  0  0
 21 22  2  0  0  0  0
 22 13  1  0  0  0  0
 24  6  2  0  0  0  0
 24 11  1  0  0  0  0
 25 26  2  0  0  0  0
 27  1  1  1  0  0  0
 27 39  1  0  0  0  0
 28 34  1  0  0  0  0
 29 30  1  0  0  0  0
 29 34  2  0  0  0  0
 31 28  2  0  0  0  0
 33 38  1  0  0  0  0
 33 36  1  0  0  0  0
 34 32  1  0  0  0  0
 35 36  2  0  0  0  0
 35 31  1  0  0  0  0
 36 29  1  0  0  0  0
 37 30  1  0  0  0  0
 38 27  1  6  0  0  0
 38 37  1  0  0  0  0
 40 39  1  0  0  0  0
 41 43  1  1  0  0  0
 41 46  1  0  0  0  0
 41 44  1  0  0  0  0
 42 41  1  0  0  0  0
 42 44  1  0  0  0  0
 44 40  1  6  0  0  0
 46 51  1  6  0  0  0
 46 47  1  0  0  0  0
 48 47  1  0  0  0  0
 49 45  1  6  0  0  0
 49 51  1  0  0  0  0
 49 50  1  0  0  0  0
 50 48  1  0  0  0  0
M  END
>  <MODEL>
2

>  <REMARK>
 VINA RESULT:      -8.4      1.239      1.994
  Name = 
  11 active torsions:
  status: ('A' for Active; 'I' for Inactive)
    1  A    between atoms: C_2  and  N_16
    2  A    between atoms: C_3  and  N_11
    3  A    between atoms: C_3  and  S_45
    4  A    between atoms: C_3  and  C_49
    5  A    between atoms: N_10  and  C_27
    6  A    between atoms: N_11  and  C_42
    7  A    between atoms: C_23  and  C_42
    8  A    between atoms: C_24  and  N_33
    9  A    between atoms: C_27  and  C_43
   10  A    between atoms: C_35  and  C_43
   11  A    between atoms: C_35  and  S_45
                            x       y       z     vdW  Elec       q    Type
                         _______ _______ _______ _____ _____    ______ ____

>  <TORSDO>
F 11

$$$$
=
 OpenBabel11032419243D

 51 58  0  0  1  0  0  0  0  0999 V2000
  188.5400  178.6300  140.9510 S   0  0  0  0  0  0  0  0  0  0  0  0
  187.8560  178.0470  138.3780 C   0  0  0  0  0  1  0  0  0  0  0  0
  188.5010  177.4180  139.6000 C   0  0  1  0  0  3  0  0  0  0  0  0
  189.9200  176.9900  139.2800 C   0  0  0  0  0  2  0  0  0  0  0  0
  189.9150  175.8340  138.2960 C   0  0  0  0  0  2  0  0  0  0  0  0
  196.0030  175.0280  136.2320 C   0  0  0  0  0  3  0  0  0  0  0  0
  197.3360  175.0080  136.6500 C   0  0  0  0  0  3  0  0  0  0  0  0
  192.1220  176.5760  138.0780 C   0  0  0  0  0  2  0  0  0  0  0  0
  191.4290  174.6650  136.9300 C   0  0  1  0  0  3  0  0  0  0  0  0
  191.0020  175.9990  137.3460 N   0  0  0  0  0  0  0  0  0  0  0  0
  195.8230  172.6530  136.6600 C   0  0  0  0  0  0  0  0  0  0  0  0
  191.0260  174.4330  135.4700 C   0  0  0  0  0  2  0  0  0  0  0  0
  194.6910  171.1900  135.0890 C   0  0  1  0  0  3  0  0  0  0  0  0
  197.9120  173.8150  137.0820 C   0  0  0  0  0  3  0  0  0  0  0  0
  192.9480  174.5420  137.1630 C   0  0  1  0  0  3  0  0  0  0  0  0
  195.1480  171.4180  136.4510 N   0  0  0  0  0  0  0  0  0  0  0  0
  191.5870  173.2100  135.0090 O   0  0  0  0  0  0  0  0  0  0  0  0
  197.1620  172.6390  137.0770 C   0  0  0  0  0  3  0  0  0  0  0  0
  193.7430  174.0020  135.9510 C   0  0  2  0  0  3  0  0  0  0  0  0
  194.6960  169.8270  134.7850 O   0  0  0  0  0  1  0  0  0  0  0  0
  192.9320  172.9170  135.2420 C   0  0  0  0  0  0  0  0  0  0  0  0
  193.3570  171.7330  134.9080 N   0  0  0  0  0  0  0  0  0  0  0  0
  193.3810  175.9320  137.5550 C   0  0  0  0  0  2  0  0  0  0  0  0
  195.2290  173.8580  136.2330 C   0  0  0  0  0  0  0  0  0  0  0  0
  195.6770  169.6280  137.9950 C   0  0  0  0  0  2  0  0  0  0  0  0
  194.8120  170.5120  137.5150 C   0  0  0  0  0  3  0  0  0  0  0  0
  186.9970  178.0040  141.6910 C   0  0  1  0  0  3  0  0  0  0  0  0
  190.2470  177.0470  147.2410 C   0  0  0  0  0  3  0  0  0  0  0  0
  188.3530  177.3290  145.7480 C   0  0  0  0  0  0  0  0  0  0  0  0
  186.8740  177.5030  145.5160 C   0  0  0  0  0  2  0  0  0  0  0  0
  191.1000  176.9110  146.1430 C   0  0  0  0  0  3  0  0  0  0  0  0
  188.0000  177.3740  148.2530 C   0  0  0  0  0  1  0  0  0  0  0  0
  188.7090  177.2780  143.3120 N   0  0  0  0  0  2  0  0  0  0  0  0
  188.8770  177.2490  147.0520 C   0  0  0  0  0  0  0  0  0  0  0  0
  190.5870  176.9780  144.8470 C   0  0  0  0  0  3  0  0  0  0  0  0
  189.2200  177.1760  144.6450 C   0  0  0  0  0  0  0  0  0  0  0  0
  186.5870  178.1630  144.1690 C   0  0  0  0  0  2  0  0  0  0  0  0
  187.2730  177.3730  143.0550 C   0  0  1  0  0  3  0  0  0  0  0  0
  186.0330  179.0890  141.8110 N   0  0  0  0  0  2  0  0  0  0  0  0
  185.0640  178.9340  140.7370 C   0  0  0  0  0  2  0  0  0  0  0  0
  182.5800  178.5460  140.5060 C   0  0  2  0  0  0  0  0  0  0  0  0
  183.3050  177.2800  140.1140 C   0  0  0  0  0  2  0  0  0  0  0  0
  182.6460  179.5950  139.5800 O   0  0  0  0  0  1  0  0  0  0  0  0
  183.8530  178.1590  141.2380 C   0  0  1  0  0  3  0  0  0  0  0  0
  180.4160  177.4710  138.2550 O   0  0  0  0  0  1  0  0  0  0  0  0
  181.3390  178.3630  141.2640 N   0  0  1  0  0  0  0  0  0  0  0  0
  180.6850  179.6680  141.4830 C   0  0  0  0  0  2  0  0  0  0  0  0
  179.3000  179.7920  140.8470 C   0  0  0  0  0  2  0  0  0  0  0  0
  179.7080  177.7870  139.4130 C   0  0  2  0  0  3  0  0  0  0  0  0
  179.3620  179.2730  139.4240 C   0  0  0  0  0  2  0  0  0  0  0  0
  180.4850  177.3230  140.6580 C   0  0  0  0  0  2  0  0  0  0  0  0
  3  2  1  6  0  0  0
  3  1  1  0  0  0  0
  4  3  1  0  0  0  0
  5  4  1  0  0  0  0
  6 24  2  0  0  0  0
  6  7  1  0  0  0  0
  7 14  2  0  0  0  0
  9 12  1  6  0  0  0
  9 15  1  0  0  0  0
  9 10  1  0  0  0  0
 10  8  1  0  0  0  0
 10  5  1  0  0  0  0
 11 18  2  0  0  0  0
 13 20  1  1  0  0  0
 13 16  1  0  0  0  0
 15 23  1  6  0  0  0
 16 11  1  0  0  0  0
 16 26  1  0  0  0  0
 17 21  1  0  0  0  0
 17 12  1  0  0  0  0
 18 14  1  0  0  0  0
 19 21  1  1  0  0  0
 19 24  1  0  0  0  0
 19 15  1  0  0  0  0
 22 13  1  0  0  0  0
 22 21  2  0  0  0  0
 23  8  1  0  0  0  0
 24 11  1  0  0  0  0
 26 25  2  0  0  0  0
 27  1  1  1  0  0  0
 27 39  1  0  0  0  0
 29 34  2  0  0  0  0
 30 29  1  0  0  0  0
 31 28  2  0  0  0  0
 33 36  1  0  0  0  0
 34 28  1  0  0  0  0
 34 32  1  0  0  0  0
 35 31  1  0  0  0  0
 36 35  2  0  0  0  0
 36 29  1  0  0  0  0
 37 30  1  0  0  0  0
 38 27  1  6  0  0  0
 38 33  1  0  0  0  0
 38 37  1  0  0  0  0
 40 39  1  0  0  0  0
 41 43  1  6  0  0  0
 41 44  1  0  0  0  0
 41 46  1  0  0  0  0
 42 41  1  0  0  0  0
 42 44  1  0  0  0  0
 44 40  1  6  0  0  0
 46 51  1  6  0  0  0
 46 47  1  0  0  0  0
 48 47  1  0  0  0  0
 49 45  1  6  0  0  0
 49 50  1  0  0  0  0
 49 51  1  0  0  0  0
 50 48  1  0  0  0  0
M  END
>  <MODEL>
3

>  <REMARK>
 VINA RESULT:      -8.4      2.387     11.571
  Name = 
  11 active torsions:
  status: ('A' for Active; 'I' for Inactive)
    1  A    between atoms: C_2  and  N_16
    2  A    between atoms: C_3  and  N_11
    3  A    between atoms: C_3  and  S_45
    4  A    between atoms: C_3  and  C_49
    5  A    between atoms: N_10  and  C_27
    6  A    between atoms: N_11  and  C_42
    7  A    between atoms: C_23  and  C_42
    8  A    between atoms: C_24  and  N_33
    9  A    between atoms: C_27  and  C_43
   10  A    between atoms: C_35  and  C_43
   11  A    between atoms: C_35  and  S_45
                            x       y       z     vdW  Elec       q    Type
                         _______ _______ _______ _____ _____    ______ ____

>  <TORSDO>
F 11

$$$$
=
 OpenBabel11032419243D

 51 58  0  0  1  0  0  0  0  0999 V2000
  188.4800  175.4300  136.4180 S   0  0  0  0  0  0  0  0  0  0  0  0
  189.7060  177.0680  134.6180 C   0  0  0  0  0  1  0  0  0  0  0  0
  188.9470  177.1150  135.9320 C   0  0  1  0  0  3  0  0  0  0  0  0
  187.6900  177.9510  135.7780 C   0  0  0  0  0  2  0  0  0  0  0  0
  187.4790  178.8220  137.0040 C   0  0  0  0  0  2  0  0  0  0  0  0
  183.8710  177.8960  142.3040 C   0  0  0  0  0  3  0  0  0  0  0  0
  183.4810  178.4790  143.5120 C   0  0  0  0  0  3  0  0  0  0  0  0
  187.2380  178.7110  139.3270 C   0  0  0  0  0  2  0  0  0  0  0  0
  185.4760  178.0410  137.9510 C   0  0  1  0  0  3  0  0  0  0  0  0
  186.9300  178.0180  138.0830 N   0  0  0  0  0  0  0  0  0  0  0  0
  181.9850  178.9220  141.1870 C   0  0  0  0  0  0  0  0  0  0  0  0
  184.9820  176.6580  137.5150 C   0  0  0  0  0  2  0  0  0  0  0  0
  180.6520  177.6670  139.5940 C   0  0  1  0  0  3  0  0  0  0  0  0
  182.3490  179.2920  143.5590 C   0  0  0  0  0  3  0  0  0  0  0  0
  184.8690  178.5010  139.2920 C   0  0  1  0  0  3  0  0  0  0  0  0
  181.0920  178.9650  140.0800 N   0  0  0  0  0  0  0  0  0  0  0  0
  183.5610  176.6250  137.5510 O   0  0  0  0  0  0  0  0  0  0  0  0
  181.5980  179.5040  142.4030 C   0  0  0  0  0  3  0  0  0  0  0  0
  183.7320  177.6000  139.8280 C   0  0  2  0  0  3  0  0  0  0  0  0
  179.3630  177.7470  139.0620 O   0  0  0  0  0  1  0  0  0  0  0  0
  182.8710  177.1080  138.6640 C   0  0  0  0  0  0  0  0  0  0  0  0
  181.5720  177.1680  138.5890 N   0  0  0  0  0  0  0  0  0  0  0  0
  186.0450  178.5580  140.2350 C   0  0  0  0  0  2  0  0  0  0  0  0
  183.1350  178.1090  141.1290 C   0  0  0  0  0  0  0  0  0  0  0  0
  181.6040  180.8260  138.6150 C   0  0  0  0  0  2  0  0  0  0  0  0
  180.7450  180.1790  139.3930 C   0  0  0  0  0  3  0  0  0  0  0  0
  189.8950  175.2600  137.5540 C   0  0  1  0  0  3  0  0  0  0  0  0
  195.7310  172.4610  136.9300 C   0  0  0  0  0  3  0  0  0  0  0  0
  193.4290  173.0330  136.4110 C   0  0  0  0  0  0  0  0  0  0  0  0
  192.1780  172.8430  135.5920 C   0  0  0  0  0  2  0  0  0  0  0  0
  195.7740  173.4770  137.8890 C   0  0  0  0  0  3  0  0  0  0  0  0
  194.5730  171.1530  135.1620 C   0  0  0  0  0  1  0  0  0  0  0  0
  192.3300  174.8690  137.6300 N   0  0  0  0  0  2  0  0  0  0  0  0
  194.5690  172.2380  136.1860 C   0  0  0  0  0  0  0  0  0  0  0  0
  194.6510  174.2770  138.1100 C   0  0  0  0  0  3  0  0  0  0  0  0
  193.4850  174.0660  137.3710 C   0  0  0  0  0  0  0  0  0  0  0  0
  190.9340  173.3120  136.3450 C   0  0  0  0  0  2  0  0  0  0  0  0
  191.1280  174.7560  136.8040 C   0  0  1  0  0  3  0  0  0  0  0  0
  190.1690  176.5390  138.1940 N   0  0  0  0  0  2  0  0  0  0  0  0
  190.6610  176.2610  139.5350 C   0  0  0  0  0  2  0  0  0  0  0  0
  190.2700  177.1710  141.8570 C   0  0  2  0  0  0  0  0  0  0  0  0
  191.6730  177.5310  141.4270 C   0  0  0  0  0  2  0  0  0  0  0  0
  190.0640  175.8280  142.1950 O   0  0  0  0  0  1  0  0  0  0  0  0
  190.5400  177.5080  140.4010 C   0  0  1  0  0  3  0  0  0  0  0  0
  191.6760  177.0940  144.8430 O   0  0  0  0  0  1  0  0  0  0  0  0
  189.5510  178.1990  142.6140 N   0  0  1  0  0  0  0  0  0  0  0  0
  188.2420  177.6770  143.0560 C   0  0  0  0  0  2  0  0  0  0  0  0
  188.0690  177.6160  144.5740 C   0  0  0  0  0  2  0  0  0  0  0  0
  190.5280  177.8800  144.9300 C   0  0  2  0  0  3  0  0  0  0  0  0
  189.3100  176.9990  145.1880 C   0  0  0  0  0  2  0  0  0  0  0  0
  190.3940  178.7710  143.6820 C   0  0  0  0  0  2  0  0  0  0  0  0
  3  2  1  6  0  0  0
  3  1  1  0  0  0  0
  4  3  1  0  0  0  0
  4  5  1  0  0  0  0
  5 10  1  0  0  0  0
  6  7  1  0  0  0  0
  7 14  2  0  0  0  0
  8 23  1  0  0  0  0
  9 12  1  1  0  0  0
  9 10  1  0  0  0  0
  9 15  1  0  0  0  0
 10  8  1  0  0  0  0
 11 18  2  0  0  0  0
 12 17  1  0  0  0  0
 13 20  1  6  0  0  0
 13 16  1  0  0  0  0
 15 19  1  0  0  0  0
 15 23  1  1  0  0  0
 16 11  1  0  0  0  0
 17 21  1  0  0  0  0
 18 14  1  0  0  0  0
 19 21  1  6  0  0  0
 19 24  1  0  0  0  0
 22 21  2  0  0  0  0
 22 13  1  0  0  0  0
 24 11  1  0  0  0  0
 24  6  2  0  0  0  0
 25 26  2  0  0  0  0
 26 16  1  0  0  0  0
 27  1  1  6  0  0  0
 27 39  1  0  0  0  0
 28 31  1  0  0  0  0
 29 36  2  0  0  0  0
 30 37  1  0  0  0  0
 30 29  1  0  0  0  0
 31 35  2  0  0  0  0
 32 34  1  0  0  0  0
 34 29  1  0  0  0  0
 34 28  2  0  0  0  0
 36 33  1  0  0  0  0
 36 35  1  0  0  0  0
 37 38  1  0  0  0  0
 38 27  1  1  0  0  0
 38 33  1  0  0  0  0
 39 40  1  0  0  0  0
 41 43  1  1  0  0  0
 41 46  1  0  0  0  0
 42 41  1  0  0  0  0
 44 40  1  6  0  0  0
 44 42  1  0  0  0  0
 44 41  1  0  0  0  0
 46 47  1  1  0  0  0
 46 51  1  0  0  0  0
 47 48  1  0  0  0  0
 48 50  1  0  0  0  0
 49 45  1  6  0  0  0
 49 50  1  0  0  0  0
 51 49  1  0  0  0  0
M  END
>  <MODEL>
4

>  <REMARK>
 VINA RESULT:      -7.8      2.346      6.636
  Name = 
  11 active torsions:
  status: ('A' for Active; 'I' for Inactive)
    1  A    between atoms: C_2  and  N_16
    2  A    between atoms: C_3  and  N_11
    3  A    between atoms: C_3  and  S_45
    4  A    between atoms: C_3  and  C_49
    5  A    between atoms: N_10  and  C_27
    6  A    between atoms: N_11  and  C_42
    7  A    between atoms: C_23  and  C_42
    8  A    between atoms: C_24  and  N_33
    9  A    between atoms: C_27  and  C_43
   10  A    between atoms: C_35  and  C_43
   11  A    between atoms: C_35  and  S_45
                            x       y       z     vdW  Elec       q    Type
                         _______ _______ _______ _____ _____    ______ ____

>  <TORSDO>
F 11

$$$$
=
 OpenBabel11032419243D

 51 58  0  0  1  0  0  0  0  0999 V2000
  188.0580  177.4800  140.7240 S   0  0  0  0  0  0  0  0  0  0  0  0
  189.1200  179.0360  138.7550 C   0  0  0  0  0  1  0  0  0  0  0  0
  187.9910  178.0510  139.0020 C   0  0  1  0  0  3  0  0  0  0  0  0
  188.1310  176.8560  138.0800 C   0  0  0  0  0  2  0  0  0  0  0  0
  188.2950  177.3120  136.6410 C   0  0  0  0  0  2  0  0  0  0  0  0
  184.5110  172.2230  135.3170 C   0  0  0  0  0  3  0  0  0  0  0  0
  184.1300  170.9590  135.7740 C   0  0  0  0  0  3  0  0  0  0  0  0
  187.9920  175.0240  136.2670 C   0  0  0  0  0  2  0  0  0  0  0  0
  186.2250  176.4990  135.8830 C   0  0  1  0  0  3  0  0  0  0  0  0
  187.6720  176.3480  135.7510 N   0  0  0  0  0  0  0  0  0  0  0  0
  182.7200  173.2360  136.5900 C   0  0  0  0  0  0  0  0  0  0  0  0
  185.6560  177.1090  134.5980 C   0  0  0  0  0  2  0  0  0  0  0  0
  181.3490  174.9910  135.6260 C   0  0  1  0  0  3  0  0  0  0  0  0
  183.0500  170.8310  136.6470 C   0  0  0  0  0  3  0  0  0  0  0  0
  185.6170  175.1220  136.2170 C   0  0  1  0  0  3  0  0  0  0  0  0
  181.8580  174.3430  136.8250 N   0  0  0  0  0  0  0  0  0  0  0  0
  184.2350  177.1000  134.6530 O   0  0  0  0  0  0  0  0  0  0  0  0
  182.3410  171.9640  137.0450 C   0  0  0  0  0  3  0  0  0  0  0  0
  184.4130  174.7190  135.3330 C   0  0  2  0  0  3  0  0  0  0  0  0
  180.0810  175.5300  135.8530 O   0  0  0  0  0  1  0  0  0  0  0  0
  183.5510  175.9470  135.0420 C   0  0  0  0  0  0  0  0  0  0  0  0
  182.2600  176.0350  135.1940 N   0  0  0  0  0  0  0  0  0  0  0  0
  186.7700  174.1610  136.0820 C   0  0  0  0  0  2  0  0  0  0  0  0
  183.8180  173.3750  135.7180 C   0  0  0  0  0  0  0  0  0  0  0  0
  182.5420  175.4950  138.8440 C   0  0  0  0  0  2  0  0  0  0  0  0
  181.6030  174.8820  138.1330 C   0  0  0  0  0  3  0  0  0  0  0  0
  189.8720  177.6340  140.8090 C   0  0  1  0  0  3  0  0  0  0  0  0
  189.4820  176.9990  147.2690 C   0  0  0  0  0  3  0  0  0  0  0  0
  190.4820  177.0520  145.0560 C   0  0  0  0  0  0  0  0  0  0  0  0
  191.6550  176.8280  144.1360 C   0  0  0  0  0  2  0  0  0  0  0  0
  188.3120  177.5690  146.7600 C   0  0  0  0  0  3  0  0  0  0  0  0
  191.8040  176.1480  147.0150 C   0  0  0  0  0  1  0  0  0  0  0  0
  189.1870  177.9390  143.1600 N   0  0  0  0  0  2  0  0  0  0  0  0
  190.5690  176.7440  146.4280 C   0  0  0  0  0  0  0  0  0  0  0  0
  188.2220  177.8880  145.4040 C   0  0  0  0  0  3  0  0  0  0  0  0
  189.3020  177.6410  144.5540 C   0  0  0  0  0  0  0  0  0  0  0  0
  191.2070  176.6270  142.6900 C   0  0  0  0  0  2  0  0  0  0  0  0
  190.3300  177.8010  142.2580 C   0  0  1  0  0  3  0  0  0  0  0  0
  190.4940  176.4650  140.2040 N   0  0  0  0  0  2  0  0  0  0  0  0
  191.6780  176.9190  139.4900 C   0  0  0  0  0  2  0  0  0  0  0  0
  192.9350  175.8610  137.5730 C   0  0  2  0  0  0  0  0  0  0  0  0
  191.8060  174.9420  137.9760 C   0  0  0  0  0  2  0  0  0  0  0  0
  194.0250  175.9050  138.4500 O   0  0  0  0  0  1  0  0  0  0  0  0
  191.6190  176.4580  138.0400 C   0  0  1  0  0  3  0  0  0  0  0  0
  194.2490  172.9360  136.7880 O   0  0  0  0  0  1  0  0  0  0  0  0
  193.1940  175.9630  136.1350 N   0  0  1  0  0  0  0  0  0  0  0  0
  194.4240  176.7440  135.8970 C   0  0  0  0  0  2  0  0  0  0  0  0
  195.5390  175.9640  135.2000 C   0  0  0  0  0  2  0  0  0  0  0  0
  194.4170  173.7870  135.6970 C   0  0  2  0  0  3  0  0  0  0  0  0
  195.6890  174.6120  135.8690 C   0  0  0  0  0  2  0  0  0  0  0  0
  193.1530  174.6380  135.4840 C   0  0  0  0  0  2  0  0  0  0  0  0
  1 27  1  0  0  0  0
  3  2  1  6  0  0  0
  3  1  1  0  0  0  0
  4  3  1  0  0  0  0
  5  4  1  0  0  0  0
  6 24  2  0  0  0  0
  6  7  1  0  0  0  0
  7 14  2  0  0  0  0
  9 12  1  6  0  0  0
  9 15  1  0  0  0  0
 10  9  1  0  0  0  0
 10  8  1  0  0  0  0
 10  5  1  0  0  0  0
 11 16  1  0  0  0  0
 11 18  2  0  0  0  0
 12 17  1  0  0  0  0
 13 20  1  1  0  0  0
 13 16  1  0  0  0  0
 14 18  1  0  0  0  0
 15 23  1  6  0  0  0
 16 26  1  0  0  0  0
 17 21  1  0  0  0  0
 19 21  1  1  0  0  0
 19 24  1  0  0  0  0
 19 15  1  0  0  0  0
 21 22  2  0  0  0  0
 22 13  1  0  0  0  0
 23  8  1  0  0  0  0
 24 11  1  0  0  0  0
 26 25  2  0  0  0  0
 27 39  1  1  0  0  0
 29 34  1  0  0  0  0
 30 29  1  0  0  0  0
 31 28  1  0  0  0  0
 33 36  1  0  0  0  0
 34 32  1  0  0  0  0
 34 28  2  0  0  0  0
 35 31  2  0  0  0  0
 36 29  2  0  0  0  0
 36 35  1  0  0  0  0
 37 30  1  0  0  0  0
 38 27  1  6  0  0  0
 38 37  1  0  0  0  0
 38 33  1  0  0  0  0
 40 39  1  0  0  0  0
 41 42  1  0  0  0  0
 41 44  1  0  0  0  0
 41 43  1  1  0  0  0
 42 44  1  0  0  0  0
 44 40  1  1  0  0  0
 46 51  1  1  0  0  0
 46 41  1  0  0  0  0
 47 46  1  0  0  0  0
 48 50  1  0  0  0  0
 48 47  1  0  0  0  0
 49 50  1  0  0  0  0
 49 45  1  1  0  0  0
 51 49  1  0  0  0  0
M  END
>  <MODEL>
5

>  <REMARK>
 VINA RESULT:      -7.6      2.376      3.559
  Name = 
  11 active torsions:
  status: ('A' for Active; 'I' for Inactive)
    1  A    between atoms: C_2  and  N_16
    2  A    between atoms: C_3  and  N_11
    3  A    between atoms: C_3  and  S_45
    4  A    between atoms: C_3  and  C_49
    5  A    between atoms: N_10  and  C_27
    6  A    between atoms: N_11  and  C_42
    7  A    between atoms: C_23  and  C_42
    8  A    between atoms: C_24  and  N_33
    9  A    between atoms: C_27  and  C_43
   10  A    between atoms: C_35  and  C_43
   11  A    between atoms: C_35  and  S_45
                            x       y       z     vdW  Elec       q    Type
                         _______ _______ _______ _____ _____    ______ ____

>  <TORSDO>
F 11

$$$$
=
 OpenBabel11032419243D

 51 58  0  0  1  0  0  0  0  0999 V2000
  190.5420  175.8570  135.4230 S   0  0  0  0  0  0  0  0  0  0  0  0
  189.8700  173.7200  136.9750 C   0  0  0  0  0  1  0  0  0  0  0  0
  189.8360  174.1880  135.5310 C   0  0  1  0  0  3  0  0  0  0  0  0
  188.4060  174.2220  135.0270 C   0  0  0  0  0  2  0  0  0  0  0  0
  187.8950  175.6510  134.9800 C   0  0  0  0  0  2  0  0  0  0  0  0
  183.7850  178.8240  138.8550 C   0  0  0  0  0  3  0  0  0  0  0  0
  183.1480  180.0520  139.0490 C   0  0  0  0  0  3  0  0  0  0  0  0
  187.3580  177.4650  136.3550 C   0  0  0  0  0  2  0  0  0  0  0  0
  185.9270  175.6230  136.2650 C   0  0  1  0  0  3  0  0  0  0  0  0
  187.3360  176.0110  136.2720 N   0  0  0  0  0  0  0  0  0  0  0  0
  181.9330  178.0650  137.4950 C   0  0  0  0  0  0  0  0  0  0  0  0
  185.7200  174.4360  137.2100 C   0  0  0  0  0  2  0  0  0  0  0  0
  181.0420  175.8220  137.7490 C   0  0  1  0  0  3  0  0  0  0  0  0
  181.9070  180.2930  138.4590 C   0  0  0  0  0  3  0  0  0  0  0  0
  185.0790  176.8530  136.6460 C   0  0  1  0  0  3  0  0  0  0  0  0
  181.2030  176.9950  136.9050 N   0  0  0  0  0  0  0  0  0  0  0  0
  184.3300  174.1650  137.3390 O   0  0  0  0  0  0  0  0  0  0  0  0
  181.2970  179.2990  137.6940 C   0  0  0  0  0  3  0  0  0  0  0  0
  184.0340  176.5940  137.7570 C   0  0  2  0  0  3  0  0  0  0  0  0
  179.8420  175.1670  137.4650 O   0  0  0  0  0  1  0  0  0  0  0  0
  183.4270  175.2020  137.5820 C   0  0  0  0  0  0  0  0  0  0  0  0
  182.1580  174.9120  137.5650 N   0  0  0  0  0  0  0  0  0  0  0  0
  186.0910  177.8960  137.0470 C   0  0  0  0  0  2  0  0  0  0  0  0
  183.1920  177.8180  138.0770 C   0  0  0  0  0  0  0  0  0  0  0  0
  181.3010  177.8000  134.6220 C   0  0  0  0  0  2  0  0  0  0  0  0
  180.7690  176.9970  135.5350 C   0  0  0  0  0  3  0  0  0  0  0  0
  191.2030  175.7950  137.1200 C   0  0  1  0  0  3  0  0  0  0  0  0
  197.4200  173.8900  137.2430 C   0  0  0  0  0  3  0  0  0  0  0  0
  195.4550  175.1620  136.5950 C   0  0  0  0  0  0  0  0  0  0  0  0
  194.7760  176.1770  135.7110 C   0  0  0  0  0  2  0  0  0  0  0  0
  196.7160  173.3400  138.3170 C   0  0  0  0  0  3  0  0  0  0  0  0
  197.5930  175.3780  135.2590 C   0  0  0  0  0  1  0  0  0  0  0  0
  193.3820  174.9480  137.9080 N   0  0  0  0  0  2  0  0  0  0  0  0
  196.8000  174.8040  136.3850 C   0  0  0  0  0  0  0  0  0  0  0  0
  195.3860  173.6990  138.5400 C   0  0  0  0  0  3  0  0  0  0  0  0
  194.7560  174.6130  137.6910 C   0  0  0  0  0  0  0  0  0  0  0  0
  193.2620  175.9800  135.6840 C   0  0  0  0  0  2  0  0  0  0  0  0
  192.7200  175.9810  137.1120 C   0  0  1  0  0  3  0  0  0  0  0  0
  190.5630  176.8180  137.9350 N   0  0  0  0  0  2  0  0  0  0  0  0
  190.6410  176.3840  139.3220 C   0  0  0  0  0  2  0  0  0  0  0  0
  190.3320  177.1970  141.6920 C   0  0  2  0  0  0  0  0  0  0  0  0
  191.7370  177.5290  141.2460 C   0  0  0  0  0  2  0  0  0  0  0  0
  190.0870  175.8470  141.9730 O   0  0  0  0  0  1  0  0  0  0  0  0
  190.5820  177.5920  140.2470 C   0  0  1  0  0  3  0  0  0  0  0  0
  191.7210  176.8570  144.6680 O   0  0  0  0  0  1  0  0  0  0  0  0
  189.6660  178.2110  142.5130 N   0  0  1  0  0  0  0  0  0  0  0  0
  188.3300  177.7320  142.9200 C   0  0  0  0  0  2  0  0  0  0  0  0
  188.1480  177.5850  144.4310 C   0  0  0  0  0  2  0  0  0  0  0  0
  190.6170  177.6950  144.8050 C   0  0  2  0  0  3  0  0  0  0  0  0
  189.3520  176.8650  145.0060 C   0  0  0  0  0  2  0  0  0  0  0  0
  190.5340  178.6690  143.6160 C   0  0  0  0  0  2  0  0  0  0  0  0
  1  3  1  0  0  0  0
  3  2  1  1  0  0  0
  4  3  1  0  0  0  0
  5  4  1  0  0  0  0
  5 10  1  0  0  0  0
  6  7  1  0  0  0  0
  8 23  1  0  0  0  0
  9 10  1  0  0  0  0
  9 15  1  0  0  0  0
  9 12  1  1  0  0  0
 10  8  1  0  0  0  0
 11 18  2  0  0  0  0
 11 24  1  0  0  0  0
 12 17  1  0  0  0  0
 13 20  1  6  0  0  0
 14  7  2  0  0  0  0
 15 23  1  1  0  0  0
 15 19  1  0  0  0  0
 16 11  1  0  0  0  0
 16 13  1  0  0  0  0
 17 21  1  0  0  0  0
 18 14  1  0  0  0  0
 19 21  1  6  0  0  0
 19 24  1  0  0  0  0
 22 21  2  0  0  0  0
 22 13  1  0  0  0  0
 24  6  2  0  0  0  0
 25 26  2  0  0  0  0
 26 16  1  0  0  0  0
 27  1  1  6  0  0  0
 27 39  1  0  0  0  0
 28 31  1  0  0  0  0
 29 36  2  0  0  0  0
 30 29  1  0  0  0  0
 31 35  2  0  0  0  0
 32 34  1  0  0  0  0
 34 29  1  0  0  0  0
 34 28  2  0  0  0  0
 36 33  1  0  0  0  0
 36 35  1  0  0  0  0
 37 30  1  0  0  0  0
 37 38  1  0  0  0  0
 38 27  1  6  0  0  0
 38 33  1  0  0  0  0
 39 40  1  0  0  0  0
 41 43  1  1  0  0  0
 41 46  1  0  0  0  0
 42 41  1  0  0  0  0
 44 40  1  6  0  0  0
 44 42  1  0  0  0  0
 44 41  1  0  0  0  0
 46 47  1  1  0  0  0
 46 51  1  0  0  0  0
 47 48  1  0  0  0  0
 48 50  1  0  0  0  0
 49 45  1  6  0  0  0
 49 50  1  0  0  0  0
 51 49  1  0  0  0  0
M  END
>  <MODEL>
6

>  <REMARK>
 VINA RESULT:      -7.6      2.396      6.936
  Name = 
  11 active torsions:
  status: ('A' for Active; 'I' for Inactive)
    1  A    between atoms: C_2  and  N_16
    2  A    between atoms: C_3  and  N_11
    3  A    between atoms: C_3  and  S_45
    4  A    between atoms: C_3  and  C_49
    5  A    between atoms: N_10  and  C_27
    6  A    between atoms: N_11  and  C_42
    7  A    between atoms: C_23  and  C_42
    8  A    between atoms: C_24  and  N_33
    9  A    between atoms: C_27  and  C_43
   10  A    between atoms: C_35  and  C_43
   11  A    between atoms: C_35  and  S_45
                            x       y       z     vdW  Elec       q    Type
                         _______ _______ _______ _____ _____    ______ ____

>  <TORSDO>
F 11

$$$$
=
 OpenBabel11032419243D

 51 58  0  0  1  0  0  0  0  0999 V2000
  188.5090  178.7980  140.9920 S   0  0  0  0  0  0  0  0  0  0  0  0
  188.2030  177.8040  138.4730 C   0  0  0  0  0  1  0  0  0  0  0  0
  188.8060  177.4450  139.8190 C   0  0  1  0  0  3  0  0  0  0  0  0
  190.3000  177.2310  139.6800 C   0  0  0  0  0  2  0  0  0  0  0  0
  190.5870  175.8740  139.0620 C   0  0  0  0  0  2  0  0  0  0  0  0
  195.9060  175.6780  135.3690 C   0  0  0  0  0  3  0  0  0  0  0  0
  197.2820  175.9230  135.3690 C   0  0  0  0  0  3  0  0  0  0  0  0
  192.4670  176.8950  138.1180 C   0  0  0  0  0  2  0  0  0  0  0  0
  191.8560  174.7480  137.4360 C   0  0  1  0  0  3  0  0  0  0  0  0
  191.3180  176.0510  137.8180 N   0  0  0  0  0  0  0  0  0  0  0  0
  196.3020  173.3980  136.0770 C   0  0  0  0  0  0  0  0  0  0  0  0
  191.1170  174.2350  136.1960 C   0  0  0  0  0  2  0  0  0  0  0  0
  195.0760  171.5560  135.0780 C   0  0  1  0  0  3  0  0  0  0  0  0
  198.1690  174.9100  135.7320 C   0  0  0  0  0  3  0  0  0  0  0  0
  193.3750  174.8910  137.2160 C   0  0  1  0  0  3  0  0  0  0  0  0
  195.8390  172.0580  136.2090 N   0  0  0  0  0  0  0  0  0  0  0  0
  191.7480  173.0530  135.7190 O   0  0  0  0  0  0  0  0  0  0  0  0
  197.6810  173.6490  136.0740 C   0  0  0  0  0  3  0  0  0  0  0  0
  193.8920  174.2940  135.8860 C   0  0  2  0  0  3  0  0  0  0  0  0
  195.2520  170.1790  134.9310 O   0  0  0  0  0  1  0  0  0  0  0  0
  193.1350  173.0040  135.5690 C   0  0  0  0  0  0  0  0  0  0  0  0
  193.6660  171.8590  135.2490 N   0  0  0  0  0  0  0  0  0  0  0  0
  193.6300  176.3730  137.3130 C   0  0  0  0  0  2  0  0  0  0  0  0
  195.3970  174.4190  135.7240 C   0  0  0  0  0  0  0  0  0  0  0  0
  195.0570  171.2640  138.3610 C   0  0  0  0  0  2  0  0  0  0  0  0
  195.9870  171.2880  137.4150 C   0  0  0  0  0  3  0  0  0  0  0  0
  186.9530  178.0650  141.5950 C   0  0  1  0  0  3  0  0  0  0  0  0
  189.8990  177.2000  147.3280 C   0  0  0  0  0  3  0  0  0  0  0  0
  188.0890  177.4800  145.7330 C   0  0  0  0  0  0  0  0  0  0  0  0
  186.6270  177.6780  145.4220 C   0  0  0  0  0  2  0  0  0  0  0  0
  190.8020  177.0140  146.2790 C   0  0  0  0  0  3  0  0  0  0  0  0
  187.6120  177.6040  148.2150 C   0  0  0  0  0  1  0  0  0  0  0  0
  188.5650  177.3490  143.3210 N   0  0  0  0  0  2  0  0  0  0  0  0
  188.5450  177.4260  147.0640 C   0  0  0  0  0  0  0  0  0  0  0  0
  190.3560  177.0530  144.9560 C   0  0  0  0  0  3  0  0  0  0  0  0
  189.0060  177.2760  144.6800 C   0  0  0  0  0  0  0  0  0  0  0  0
  186.4230  178.3050  144.0450 C   0  0  0  0  0  2  0  0  0  0  0  0
  187.1460  177.4690  142.9890 C   0  0  1  0  0  3  0  0  0  0  0  0
  185.9050  179.0770  141.6090 N   0  0  0  0  0  2  0  0  0  0  0  0
  184.7130  178.4800  141.0270 C   0  0  0  0  0  2  0  0  0  0  0  0
  183.4070  178.2890  138.8750 C   0  0  2  0  0  0  0  0  0  0  0  0
  183.7710  179.7390  139.0920 C   0  0  0  0  0  2  0  0  0  0  0  0
  182.3930  177.7880  139.7000 O   0  0  0  0  0  1  0  0  0  0  0  0
  184.7410  178.6350  139.5120 C   0  0  1  0  0  3  0  0  0  0  0  0
  181.6570  175.4890  138.9000 O   0  0  0  0  0  1  0  0  0  0  0  0
  183.4780  177.8130  137.4910 N   0  0  1  0  0  0  0  0  0  0  0  0
  184.7830  177.1680  137.2460 C   0  0  0  0  0  2  0  0  0  0  0  0
  184.6920  175.6870  136.8750 C   0  0  0  0  0  2  0  0  0  0  0  0
  182.3310  175.5630  137.6820 C   0  0  2  0  0  3  0  0  0  0  0  0
  183.7390  174.9960  137.8300 C   0  0  0  0  0  2  0  0  0  0  0  0
  182.2970  177.0010  137.1380 C   0  0  0  0  0  2  0  0  0  0  0  0
  3  2  1  6  0  0  0
  3  1  1  0  0  0  0
  4  3  1  0  0  0  0
  5  4  1  0  0  0  0
  6  7  2  0  0  0  0
  6 24  1  0  0  0  0
  7 14  1  0  0  0  0
  9 12  1  6  0  0  0
  9 10  1  0  0  0  0
 10  8  1  0  0  0  0
 10  5  1  0  0  0  0
 11 16  1  0  0  0  0
 13 20  1  1  0  0  0
 13 22  1  0  0  0  0
 13 16  1  0  0  0  0
 14 18  2  0  0  0  0
 15 23  1  6  0  0  0
 15  9  1  0  0  0  0
 16 26  1  0  0  0  0
 17 12  1  0  0  0  0
 18 11  1  0  0  0  0
 19 21  1  1  0  0  0
 19 15  1  0  0  0  0
 21 17  1  0  0  0  0
 22 21  2  0  0  0  0
 23  8  1  0  0  0  0
 24 19  1  0  0  0  0
 24 11  2  0  0  0  0
 26 25  2  0  0  0  0
 27  1  1  1  0  0  0
 27 39  1  0  0  0  0
 29 34  2  0  0  0  0
 30 29  1  0  0  0  0
 31 28  2  0  0  0  0
 33 36  1  0  0  0  0
 34 28  1  0  0  0  0
 34 32  1  0  0  0  0
 35 31  1  0  0  0  0
 36 35  2  0  0  0  0
 36 29  1  0  0  0  0
 37 30  1  0  0  0  0
 38 27  1  6  0  0  0
 38 33  1  0  0  0  0
 38 37  1  0  0  0  0
 40 39  1  0  0  0  0
 41 42  1  0  0  0  0
 41 44  1  0  0  0  0
 41 43  1  1  0  0  0
 42 44  1  0  0  0  0
 44 40  1  1  0  0  0
 46 51  1  1  0  0  0
 46 41  1  0  0  0  0
 47 46  1  0  0  0  0
 48 47  1  0  0  0  0
 48 50  1  0  0  0  0
 49 50  1  0  0  0  0
 49 45  1  1  0  0  0
 51 49  1  0  0  0  0
M  END
>  <MODEL>
7

>  <REMARK>
 VINA RESULT:      -7.6      2.241     10.979
  Name = 
  11 active torsions:
  status: ('A' for Active; 'I' for Inactive)
    1  A    between atoms: C_2  and  N_16
    2  A    between atoms: C_3  and  N_11
    3  A    between atoms: C_3  and  S_45
    4  A    between atoms: C_3  and  C_49
    5  A    between atoms: N_10  and  C_27
    6  A    between atoms: N_11  and  C_42
    7  A    between atoms: C_23  and  C_42
    8  A    between atoms: C_24  and  N_33
    9  A    between atoms: C_27  and  C_43
   10  A    between atoms: C_35  and  C_43
   11  A    between atoms: C_35  and  S_45
                            x       y       z     vdW  Elec       q    Type
                         _______ _______ _______ _____ _____    ______ ____

>  <TORSDO>
F 11

$$$$
=
 OpenBabel11032419243D

 51 58  0  0  1  0  0  0  0  0999 V2000
  182.6510  177.5410  140.4770 S   0  0  0  0  0  0  0  0  0  0  0  0
  180.9960  179.1400  141.9360 C   0  0  0  0  0  1  0  0  0  0  0  0
  182.4470  179.0200  141.5090 C   0  0  1  0  0  3  0  0  0  0  0  0
  183.3410  178.8990  142.7280 C   0  0  0  0  0  2  0  0  0  0  0  0
  184.7450  179.3770  142.4060 C   0  0  0  0  0  2  0  0  0  0  0  0
  190.2130  176.6290  140.2800 C   0  0  0  0  0  3  0  0  0  0  0  0
  191.3290  176.8350  139.4650 C   0  0  0  0  0  3  0  0  0  0  0  0
  186.1500  178.6790  140.6720 C   0  0  0  0  0  2  0  0  0  0  0  0
  186.6430  178.0710  142.8710 C   0  0  1  0  0  3  0  0  0  0  0  0
  185.5430  178.2600  141.9290 N   0  0  0  0  0  0  0  0  0  0  0  0
  191.4050  177.5630  142.1670 C   0  0  0  0  0  0  0  0  0  0  0  0
  186.4280  176.7700  143.6500 C   0  0  0  0  0  2  0  0  0  0  0  0
  191.2790  176.5200  144.3550 C   0  0  1  0  0  3  0  0  0  0  0  0
  192.4810  177.4140  139.9970 C   0  0  0  0  0  3  0  0  0  0  0  0
  187.9700  178.0920  142.0860 C   0  0  1  0  0  3  0  0  0  0  0  0
  191.5400  177.7190  143.5760 N   0  0  0  0  0  0  0  0  0  0  0  0
  187.5760  176.4930  144.4430 O   0  0  0  0  0  0  0  0  0  0  0  0
  192.5230  177.7660  141.3450 C   0  0  0  0  0  3  0  0  0  0  0  0
  188.9210  176.9130  142.3980 C   0  0  2  0  0  3  0  0  0  0  0  0
  192.0480  176.5080  145.5210 O   0  0  0  0  0  1  0  0  0  0  0  0
  188.8550  176.5760  143.8880 C   0  0  0  0  0  0  0  0  0  0  0  0
  189.8700  176.4340  144.6910 N   0  0  0  0  0  0  0  0  0  0  0  0
  187.5480  178.1170  140.6390 C   0  0  0  0  0  2  0  0  0  0  0  0
  190.2320  176.9900  141.6350 C   0  0  0  0  0  0  0  0  0  0  0  0
  191.0310  180.0550  143.9690 C   0  0  0  0  0  2  0  0  0  0  0  0
  191.7810  178.9870  144.2090 C   0  0  0  0  0  3  0  0  0  0  0  0
  182.8360  178.5140  138.9470 C   0  0  1  0  0  3  0  0  0  0  0  0
  187.5420  175.0230  136.1260 C   0  0  0  0  0  3  0  0  0  0  0  0
  185.3040  175.6610  136.8190 C   0  0  0  0  0  0  0  0  0  0  0  0
  183.8300  175.3690  136.9410 C   0  0  0  0  0  2  0  0  0  0  0  0
  188.0260  176.2730  136.5180 C   0  0  0  0  0  3  0  0  0  0  0  0
  185.7090  173.3720  135.8210 C   0  0  0  0  0  1  0  0  0  0  0  0
  184.9220  177.8950  137.7820 N   0  0  0  0  0  2  0  0  0  0  0  0
  186.1860  174.7130  136.2670 C   0  0  0  0  0  0  0  0  0  0  0  0
  187.1560  177.2240  137.0550 C   0  0  0  0  0  3  0  0  0  0  0  0
  185.7990  176.9270  137.1980 C   0  0  0  0  0  0  0  0  0  0  0  0
  183.1840  176.1840  138.0600 C   0  0  0  0  0  2  0  0  0  0  0  0
  183.4780  177.6680  137.8480 C   0  0  1  0  0  3  0  0  0  0  0  0
  181.5360  179.0120  138.5200 N   0  0  0  0  0  2  0  0  0  0  0  0
  181.6440  179.3670  137.1130 C   0  0  0  0  0  2  0  0  0  0  0  0
  180.4610  181.5860  136.8880 C   0  0  2  0  0  0  0  0  0  0  0  0
  180.7130  181.0300  135.5060 C   0  0  0  0  0  2  0  0  0  0  0  0
  181.5850  182.0910  137.5530 O   0  0  0  0  0  1  0  0  0  0  0  0
  180.3800  180.0860  136.6610 C   0  0  1  0  0  3  0  0  0  0  0  0
  180.9000  184.5530  135.5080 O   0  0  0  0  0  1  0  0  0  0  0  0
  179.1750  182.2610  137.0800 N   0  0  1  0  0  0  0  0  0  0  0  0
  179.0700  182.7590  138.4660 C   0  0  0  0  0  2  0  0  0  0  0  0
  178.9420  184.2780  138.5800 C   0  0  0  0  0  2  0  0  0  0  0  0
  179.7030  184.5850  136.2200 C   0  0  2  0  0  3  0  0  0  0  0  0
  179.9740  184.9300  137.6810 C   0  0  0  0  0  2  0  0  0  0  0  0
  178.9310  183.2670  136.0290 C   0  0  0  0  0  2  0  0  0  0  0  0
  1  3  1  0  0  0  0
  3  2  1  1  0  0  0
  3  4  1  0  0  0  0
  5  4  1  0  0  0  0
  6 24  1  0  0  0  0
  7 14  1  0  0  0  0
  7  6  2  0  0  0  0
  8 10  1  0  0  0  0
  9 12  1  6  0  0  0
 10  5  1  0  0  0  0
 10  9  1  0  0  0  0
 11 16  1  0  0  0  0
 12 17  1  0  0  0  0
 13 22  1  0  0  0  0
 13 20  1  1  0  0  0
 14 18  2  0  0  0  0
 15 23  1  6  0  0  0
 15 19  1  0  0  0  0
 15  9  1  0  0  0  0
 16 26  1  0  0  0  0
 16 13  1  0  0  0  0
 18 11  1  0  0  0  0
 19 24  1  1  0  0  0
 19 21  1  0  0  0  0
 21 17  1  0  0  0  0
 21 22  2  0  0  0  0
 23  8  1  0  0  0  0
 24 11  2  0  0  0  0
 25 26  2  0  0  0  0
 27 39  1  6  0  0  0
 27  1  1  0  0  0  0
 28 34  2  0  0  0  0
 28 31  1  0  0  0  0
 29 30  1  0  0  0  0
 29 36  2  0  0  0  0
 30 37  1  0  0  0  0
 31 35  2  0  0  0  0
 32 34  1  0  0  0  0
 33 38  1  0  0  0  0
 34 29  1  0  0  0  0
 35 36  1  0  0  0  0
 36 33  1  0  0  0  0
 38 37  1  0  0  0  0
 38 27  1  1  0  0  0
 40 39  1  0  0  0  0
 41 46  1  0  0  0  0
 41 43  1  1  0  0  0
 42 44  1  0  0  0  0
 42 41  1  0  0  0  0
 44 41  1  0  0  0  0
 44 40  1  1  0  0  0
 46 51  1  6  0  0  0
 46 47  1  0  0  0  0
 47 48  1  0  0  0  0
 49 45  1  6  0  0  0
 49 50  1  0  0  0  0
 50 48  1  0  0  0  0
 51 49  1  0  0  0  0
M  END
>  <MODEL>
8

>  <REMARK>
 VINA RESULT:      -7.5      3.659     11.504
  Name = 
  11 active torsions:
  status: ('A' for Active; 'I' for Inactive)
    1  A    between atoms: C_2  and  N_16
    2  A    between atoms: C_3  and  N_11
    3  A    between atoms: C_3  and  S_45
    4  A    between atoms: C_3  and  C_49
    5  A    between atoms: N_10  and  C_27
    6  A    between atoms: N_11  and  C_42
    7  A    between atoms: C_23  and  C_42
    8  A    between atoms: C_24  and  N_33
    9  A    between atoms: C_27  and  C_43
   10  A    between atoms: C_35  and  C_43
   11  A    between atoms: C_35  and  S_45
                            x       y       z     vdW  Elec       q    Type
                         _______ _______ _______ _____ _____    ______ ____

>  <TORSDO>
F 11

$$$$
=
 OpenBabel11032419243D

 51 58  0  0  1  0  0  0  0  0999 V2000
  189.9360  176.1010  141.4650 S   0  0  0  0  0  0  0  0  0  0  0  0
  191.9350  177.7370  142.3320 C   0  0  0  0  0  1  0  0  0  0  0  0
  190.9010  177.6200  141.2270 C   0  0  1  0  0  3  0  0  0  0  0  0
  191.5850  177.5630  139.8750 C   0  0  0  0  0  2  0  0  0  0  0  0
  191.2240  176.2790  139.1510 C   0  0  0  0  0  2  0  0  0  0  0  0
  195.9520  174.8430  134.9600 C   0  0  0  0  0  3  0  0  0  0  0  0
  197.3390  174.7710  134.8160 C   0  0  0  0  0  3  0  0  0  0  0  0
  193.1760  176.8370  137.9900 C   0  0  0  0  0  2  0  0  0  0  0  0
  192.0340  174.8750  137.4490 C   0  0  1  0  0  3  0  0  0  0  0  0
  191.8430  176.2710  137.8360 N   0  0  0  0  0  0  0  0  0  0  0  0
  195.9000  172.5410  135.7060 C   0  0  0  0  0  0  0  0  0  0  0  0
  191.0740  174.5270  136.3070 C   0  0  0  0  0  2  0  0  0  0  0  0
  194.1970  171.0120  134.8990 C   0  0  1  0  0  3  0  0  0  0  0  0
  198.0110  173.5890  135.1250 C   0  0  0  0  0  3  0  0  0  0  0  0
  193.5150  174.6690  137.0750 C   0  0  1  0  0  3  0  0  0  0  0  0
  195.1670  171.3420  135.9310 N   0  0  0  0  0  0  0  0  0  0  0  0
  191.3720  173.2280  135.8120 O   0  0  0  0  0  0  0  0  0  0  0  0
  197.2930  172.4750  135.5580 C   0  0  0  0  0  3  0  0  0  0  0  0
  193.7440  173.9550  135.7220 C   0  0  2  0  0  3  0  0  0  0  0  0
  194.0450  169.6280  134.7840 O   0  0  0  0  0  1  0  0  0  0  0  0
  192.6900  172.8660  135.5270 C   0  0  0  0  0  0  0  0  0  0  0  0
  192.9160  171.6260  135.1970 N   0  0  0  0  0  0  0  0  0  0  0  0
  194.1030  176.0570  137.0940 C   0  0  0  0  0  2  0  0  0  0  0  0
  195.2140  173.7360  135.4080 C   0  0  0  0  0  0  0  0  0  0  0  0
  196.4130  170.0710  137.5750 C   0  0  0  0  0  2  0  0  0  0  0  0
  195.2630  170.5730  137.1420 C   0  0  0  0  0  3  0  0  0  0  0  0
  188.3520  177.0000  141.5330 C   0  0  1  0  0  3  0  0  0  0  0  0
  187.9610  178.0640  147.9370 C   0  0  0  0  0  3  0  0  0  0  0  0
  187.2270  177.8160  145.6350 C   0  0  0  0  0  0  0  0  0  0  0  0
  186.1600  177.9170  144.5750 C   0  0  0  0  0  2  0  0  0  0  0  0
  189.2070  177.5280  147.6030 C   0  0  0  0  0  3  0  0  0  0  0  0
  185.6460  178.7680  147.3650 C   0  0  0  0  0  1  0  0  0  0  0  0
  188.7740  176.8830  143.9610 N   0  0  0  0  0  2  0  0  0  0  0  0
  186.9670  178.2050  146.9630 C   0  0  0  0  0  0  0  0  0  0  0  0
  189.4680  177.1290  146.2910 C   0  0  0  0  0  3  0  0  0  0  0  0
  188.4830  177.2620  145.3100 C   0  0  0  0  0  0  0  0  0  0  0  0
  186.7620  178.0510  143.1780 C   0  0  0  0  0  2  0  0  0  0  0  0
  187.7380  176.9010  142.9290 C   0  0  1  0  0  3  0  0  0  0  0  0
  188.5600  178.3930  141.1600 N   0  0  0  0  0  2  0  0  0  0  0  0
  187.7330  178.6620  139.9940 C   0  0  0  0  0  2  0  0  0  0  0  0
  186.9270  177.6600  137.8210 C   0  0  2  0  0  0  0  0  0  0  0  0
  188.3170  178.2150  137.6110 C   0  0  0  0  0  2  0  0  0  0  0  0
  185.9040  178.6090  137.9270 O   0  0  0  0  0  1  0  0  0  0  0  0
  187.9430  177.5750  138.9480 C   0  0  1  0  0  3  0  0  0  0  0  0
  187.1440  178.4030  134.6110 O   0  0  0  0  0  1  0  0  0  0  0  0
  186.6360  176.3940  137.1430 N   0  0  1  0  0  0  0  0  0  0  0  0
  185.1800  176.1480  137.1380 C   0  0  0  0  0  2  0  0  0  0  0  0
  184.5590  176.0810  135.7430 C   0  0  0  0  0  2  0  0  0  0  0  0
  186.5820  177.1320  134.7200 C   0  0  2  0  0  3  0  0  0  0  0  0
  185.0730  177.2430  134.9170 C   0  0  0  0  0  2  0  0  0  0  0  0
  187.2910  176.3260  135.8220 C   0  0  0  0  0  2  0  0  0  0  0  0
  1 27  1  0  0  0  0
  3  1  1  0  0  0  0
  3  2  1  1  0  0  0
  4  3  1  0  0  0  0
  5  4  1  0  0  0  0
  6 24  1  0  0  0  0
  7  6  2  0  0  0  0
  7 14  1  0  0  0  0
  9 12  1  6  0  0  0
  9 10  1  0  0  0  0
 10  8  1  0  0  0  0
 10  5  1  0  0  0  0
 11 16  1  0  0  0  0
 13 20  1  1  0  0  0
 13 22  1  0  0  0  0
 13 16  1  0  0  0  0
 14 18  2  0  0  0  0
 15 23  1  6  0  0  0
 15  9  1  0  0  0  0
 16 26  1  0  0  0  0
 17 12  1  0  0  0  0
 18 11  1  0  0  0  0
 19 24  1  1  0  0  0
 19 15  1  0  0  0  0
 21 19  1  0  0  0  0
 21 17  1  0  0  0  0
 22 21  2  0  0  0  0
 23  8  1  0  0  0  0
 24 11  2  0  0  0  0
 26 25  2  0  0  0  0
 27 39  1  1  0  0  0
 29 34  1  0  0  0  0
 30 29  1  0  0  0  0
 31 28  1  0  0  0  0
 33 36  1  0  0  0  0
 34 32  1  0  0  0  0
 34 28  2  0  0  0  0
 35 31  2  0  0  0  0
 36 29  2  0  0  0  0
 36 35  1  0  0  0  0
 37 30  1  0  0  0  0
 38 27  1  6  0  0  0
 38 37  1  0  0  0  0
 38 33  1  0  0  0  0
 40 39  1  0  0  0  0
 41 43  1  1  0  0  0
 41 44  1  0  0  0  0
 42 41  1  0  0  0  0
 42 44  1  0  0  0  0
 44 40  1  1  0  0  0
 46 51  1  6  0  0  0
 46 41  1  0  0  0  0
 47 46  1  0  0  0  0
 48 47  1  0  0  0  0
 49 45  1  1  0  0  0
 49 50  1  0  0  0  0
 49 51  1  0  0  0  0
 50 48  1  0  0  0  0
M  END
>  <MODEL>
9

>  <REMARK>
 VINA RESULT:      -7.5      3.499     10.428
  Name = 
  11 active torsions:
  status: ('A' for Active; 'I' for Inactive)
    1  A    between atoms: C_2  and  N_16
    2  A    between atoms: C_3  and  N_11
    3  A    between atoms: C_3  and  S_45
    4  A    between atoms: C_3  and  C_49
    5  A    between atoms: N_10  and  C_27
    6  A    between atoms: N_11  and  C_42
    7  A    between atoms: C_23  and  C_42
    8  A    between atoms: C_24  and  N_33
    9  A    between atoms: C_27  and  C_43
   10  A    between atoms: C_35  and  C_43
   11  A    between atoms: C_35  and  S_45
                            x       y       z     vdW  Elec       q    Type
                         _______ _______ _______ _____ _____    ______ ____

>  <TORSDO>
F 11

$$$$
