=
 OpenBabel11042412263D

 26 28  0  0  1  0  0  0  0  0999 V2000
  190.4490  177.6560  145.9730 O   0  0  0  0  0  0  0  0  0  0  0  0
  187.3880  177.2660  146.1420 C   0  0  1  0  0  3  0  0  0  0  0  0
  190.4150  176.8560  143.7090 C   0  0  0  0  0  2  0  0  0  0  0  0
  188.2920  177.2690  142.4880 C   0  0  0  0  0  3  0  0  0  0  0  0
  187.5840  177.2790  143.6210 C   0  0  0  0  0  3  0  0  0  0  0  0
  189.9670  175.7550  147.2520 F   0  0  0  0  0  0  0  0  0  0  0  0
  188.2490  177.6520  144.9270 C   0  0  2  0  0  3  0  0  0  0  0  0
  189.6420  176.9850  145.0380 C   0  0  2  0  0  3  0  0  0  0  0  0
  189.7530  177.6030  142.5460 C   0  0  2  0  0  3  0  0  0  0  0  0
  190.2420  177.1190  147.2650 C   0  0  0  0  0  0  0  0  0  0  0  0
  191.4080  177.2990  147.9890 F   0  0  0  0  0  0  0  0  0  0  0  0
  189.1210  177.8570  147.9430 C   0  0  0  0  0  0  0  0  0  0  0  0
  189.3190  178.4010  149.0620 O   0  0  0  0  0  0  0  0  0  0  0  0
  187.8290  177.9730  147.3400 N   0  0  0  0  0  2  0  0  0  0  0  0
  190.2950  176.6060  138.9420 C   0  0  0  0  0  0  0  0  0  0  0  0
  190.4320  177.3030  141.2480 C   0  0  0  0  0  0  0  0  0  0  0  0
  192.4130  177.1380  139.8750 C   0  0  0  0  0  0  0  0  0  0  0  0
  189.6650  176.8870  140.1580 C   0  0  0  0  0  3  0  0  0  0  0  0
  191.8220  177.4290  141.1060 C   0  0  0  0  0  3  0  0  0  0  0  0
  189.5230  176.1830  137.8250 N   0  0  0  0  0  1  0  0  0  0  0  0
  191.6430  176.7350  138.8270 N   0  0  0  0  0  0  0  0  0  0  0  0
  193.8210  177.2620  139.7170 N   0  0  0  0  0  1  0  0  0  0  0  0
  185.9070  177.5760  145.9220 C   0  0  0  0  0  2  0  0  0  0  0  0
  185.6480  179.0740  145.9580 C   0  0  0  0  0  2  0  0  0  0  0  0
  183.3550  179.1600  145.3370 O   0  0  0  0  0  1  0  0  0  0  0  0
  184.6410  179.4620  144.8920 C   0  0  0  0  0  2  0  0  0  0  0  0
  1 10  1  0  0  0  0
  2 23  1  6  0  0  0
  2 14  1  0  0  0  0
  4  9  1  0  0  0  0
  4  5  2  0  0  0  0
  6 10  1  0  0  0  0
  7  5  1  6  0  0  0
  7  8  1  0  0  0  0
  7  2  1  0  0  0  0
  8  3  1  6  0  0  0
  8  1  1  0  0  0  0
  9 16  1  6  0  0  0
  9  3  1  0  0  0  0
 10 12  1  0  0  0  0
 10 11  1  0  0  0  0
 12 13  2  0  0  0  0
 14 12  1  0  0  0  0
 15 18  1  0  0  0  0
 17 19  2  0  0  0  0
 18 16  2  0  0  0  0
 19 16  1  0  0  0  0
 20 15  1  0  0  0  0
 21 15  2  0  0  0  0
 21 17  1  0  0  0  0
 22 17  1  0  0  0  0
 23 24  1  0  0  0  0
 26 25  1  0  0  0  0
 26 24  1  0  0  0  0
M  END
>  <MODEL>
1

>  <REMARK>
 VINA RESULT:      -8.9      0.000      0.000
  Name = 
  4 active torsions:
  status: ('A' for Active; 'I' for Inactive)
    1  A    between atoms: C_3  and  C_17
    2  A    between atoms: C_3  and  C_26
    3  A    between atoms: C_5  and  C_16
    4  A    between atoms: C_6  and  C_17
                            x       y       z     vdW  Elec       q    Type
                         _______ _______ _______ _____ _____    ______ ____

>  <TORSDO>
F 4

$$$$
=
 OpenBabel11042412263D

 26 28  0  0  1  0  0  0  0  0999 V2000
  188.7490  178.1550  142.6280 O   0  0  0  0  0  0  0  0  0  0  0  0
  189.1070  177.0830  145.5050 C   0  0  1  0  0  3  0  0  0  0  0  0
  186.3820  177.7850  142.7960 C   0  0  0  0  0  2  0  0  0  0  0  0
  185.4630  177.9370  145.0980 C   0  0  0  0  0  3  0  0  0  0  0  0
  186.6330  177.5890  145.6420 C   0  0  0  0  0  3  0  0  0  0  0  0
  189.6550  175.9970  142.5570 F   0  0  0  0  0  0  0  0  0  0  0  0
  187.9230  177.8580  144.9000 C   0  0  2  0  0  3  0  0  0  0  0  0
  187.7730  177.5020  143.4010 C   0  0  2  0  0  3  0  0  0  0  0  0
  185.4580  178.5660  143.7360 C   0  0  2  0  0  3  0  0  0  0  0  0
  189.9190  177.3630  142.5570 C   0  0  0  0  0  0  0  0  0  0  0  0
  190.5580  177.6600  141.3660 F   0  0  0  0  0  0  0  0  0  0  0  0
  190.8290  177.7060  143.7030 C   0  0  0  0  0  0  0  0  0  0  0  0
  192.0130  178.0700  143.4740 O   0  0  0  0  0  0  0  0  0  0  0  0
  190.3790  177.6430  145.0600 N   0  0  0  0  0  2  0  0  0  0  0  0
  182.5910  178.7220  141.2800 C   0  0  0  0  0  0  0  0  0  0  0  0
  184.0710  178.6580  143.1850 C   0  0  0  0  0  0  0  0  0  0  0  0
  181.6800  178.8510  143.4690 C   0  0  0  0  0  0  0  0  0  0  0  0
  183.8850  178.6360  141.8010 C   0  0  0  0  0  3  0  0  0  0  0  0
  182.9560  178.7670  144.0280 C   0  0  0  0  0  3  0  0  0  0  0  0
  182.3900  178.7000  139.8720 N   0  0  0  0  0  1  0  0  0  0  0  0
  181.5250  178.8270  142.1170 N   0  0  0  0  0  0  0  0  0  0  0  0
  180.5410  178.9620  144.3130 N   0  0  0  0  0  1  0  0  0  0  0  0
  189.0860  177.0960  147.0330 C   0  0  0  0  0  2  0  0  0  0  0  0
  190.4880  177.2570  147.6000 C   0  0  0  0  0  2  0  0  0  0  0  0
  192.5890  176.1710  147.8400 O   0  0  0  0  0  1  0  0  0  0  0  0
  191.2620  175.9600  147.4690 C   0  0  0  0  0  2  0  0  0  0  0  0
  1  8  1  0  0  0  0
  2 23  1  1  0  0  0
  3  9  1  0  0  0  0
  4  5  2  0  0  0  0
  6 10  1  0  0  0  0
  7  2  1  0  0  0  0
  7  5  1  1  0  0  0
  8  3  1  6  0  0  0
  8  7  1  0  0  0  0
  9 16  1  6  0  0  0
  9  4  1  0  0  0  0
 10  1  1  0  0  0  0
 10 12  1  0  0  0  0
 11 10  1  0  0  0  0
 12 14  1  0  0  0  0
 13 12  2  0  0  0  0
 14  2  1  0  0  0  0
 15 18  2  0  0  0  0
 15 21  1  0  0  0  0
 16 19  2  0  0  0  0
 17 19  1  0  0  0  0
 17 22  1  0  0  0  0
 18 16  1  0  0  0  0
 20 15  1  0  0  0  0
 21 17  2  0  0  0  0
 23 24  1  0  0  0  0
 26 24  1  0  0  0  0
 26 25  1  0  0  0  0
M  END
>  <MODEL>
2

>  <REMARK>
 VINA RESULT:      -8.8      3.715      6.799
  Name = 
  4 active torsions:
  status: ('A' for Active; 'I' for Inactive)
    1  A    between atoms: C_3  and  C_17
    2  A    between atoms: C_3  and  C_26
    3  A    between atoms: C_5  and  C_16
    4  A    between atoms: C_6  and  C_17
                            x       y       z     vdW  Elec       q    Type
                         _______ _______ _______ _____ _____    ______ ____

>  <TORSDO>
F 4

$$$$
=
 OpenBabel11042412263D

 26 28  0  0  1  0  0  0  0  0999 V2000
  188.6780  178.1920  142.5050 O   0  0  0  0  0  0  0  0  0  0  0  0
  189.0370  177.1070  145.3760 C   0  0  1  0  0  3  0  0  0  0  0  0
  186.3130  177.8070  142.6670 C   0  0  0  0  0  2  0  0  0  0  0  0
  185.3900  177.9410  144.9690 C   0  0  0  0  0  3  0  0  0  0  0  0
  186.5600  177.5980  145.5120 C   0  0  0  0  0  3  0  0  0  0  0  0
  189.5970  176.0400  142.4240 F   0  0  0  0  0  0  0  0  0  0  0  0
  187.8500  177.8780  144.7740 C   0  0  2  0  0  3  0  0  0  0  0  0
  187.7050  177.5290  143.2730 C   0  0  2  0  0  3  0  0  0  0  0  0
  185.3820  178.5770  143.6100 C   0  0  2  0  0  3  0  0  0  0  0  0
  189.8520  177.4080  142.4310 C   0  0  0  0  0  0  0  0  0  0  0  0
  190.4920  177.7140  141.2430 F   0  0  0  0  0  0  0  0  0  0  0  0
  190.7590  177.7500  143.5810 C   0  0  0  0  0  0  0  0  0  0  0  0
  191.9410  178.1230  143.3550 O   0  0  0  0  0  0  0  0  0  0  0  0
  190.3070  177.6770  144.9360 N   0  0  0  0  0  2  0  0  0  0  0  0
  181.6190  178.8540  143.4240 C   0  0  0  0  0  0  0  0  0  0  0  0
  183.9960  178.6640  143.0560 C   0  0  0  0  0  0  0  0  0  0  0  0
  182.4470  178.7200  141.2030 C   0  0  0  0  0  0  0  0  0  0  0  0
  182.9170  178.7720  143.9360 C   0  0  0  0  0  3  0  0  0  0  0  0
  183.7590  178.6370  141.6740 C   0  0  0  0  0  3  0  0  0  0  0  0
  180.5130  178.9660  144.3110 N   0  0  0  0  0  1  0  0  0  0  0  0
  181.4130  178.8260  142.0810 N   0  0  0  0  0  0  0  0  0  0  0  0
  182.1930  178.6940  139.8040 N   0  0  0  0  0  1  0  0  0  0  0  0
  189.0140  177.1130  146.9050 C   0  0  0  0  0  2  0  0  0  0  0  0
  190.3980  177.3850  147.4740 C   0  0  0  0  0  2  0  0  0  0  0  0
  192.4670  176.3730  148.0590 O   0  0  0  0  0  1  0  0  0  0  0  0
  191.2240  176.1140  147.4860 C   0  0  0  0  0  2  0  0  0  0  0  0
  1  8  1  0  0  0  0
  2 23  1  1  0  0  0
  3  9  1  0  0  0  0
  4  5  2  0  0  0  0
  6 10  1  0  0  0  0
  7  2  1  0  0  0  0
  7  5  1  1  0  0  0
  8  3  1  6  0  0  0
  8  7  1  0  0  0  0
  9 16  1  6  0  0  0
  9  4  1  0  0  0  0
 10  1  1  0  0  0  0
 10 12  1  0  0  0  0
 11 10  1  0  0  0  0
 12 14  1  0  0  0  0
 13 12  2  0  0  0  0
 14  2  1  0  0  0  0
 15 18  1  0  0  0  0
 15 20  1  0  0  0  0
 16 18  2  0  0  0  0
 17 19  2  0  0  0  0
 17 21  1  0  0  0  0
 19 16  1  0  0  0  0
 21 15  2  0  0  0  0
 22 17  1  0  0  0  0
 23 24  1  0  0  0  0
 24 26  1  0  0  0  0
 26 25  1  0  0  0  0
M  END
>  <MODEL>
3

>  <REMARK>
 VINA RESULT:      -8.7      3.785      6.848
  Name = 
  4 active torsions:
  status: ('A' for Active; 'I' for Inactive)
    1  A    between atoms: C_3  and  C_17
    2  A    between atoms: C_3  and  C_26
    3  A    between atoms: C_5  and  C_16
    4  A    between atoms: C_6  and  C_17
                            x       y       z     vdW  Elec       q    Type
                         _______ _______ _______ _____ _____    ______ ____

>  <TORSDO>
F 4

$$$$
=
 OpenBabel11042412263D

 26 28  0  0  1  0  0  0  0  0999 V2000
  187.1360  178.1290  142.6020 O   0  0  0  0  0  0  0  0  0  0  0  0
  187.5200  177.8290  145.6540 C   0  0  1  0  0  3  0  0  0  0  0  0
  184.7650  177.8790  142.8860 C   0  0  0  0  0  2  0  0  0  0  0  0
  183.8900  178.6460  145.0810 C   0  0  0  0  0  3  0  0  0  0  0  0
  185.0610  178.4200  145.6830 C   0  0  0  0  0  3  0  0  0  0  0  0
  187.9900  176.0030  143.0820 F   0  0  0  0  0  0  0  0  0  0  0  0
  186.3440  178.4520  144.8830 C   0  0  2  0  0  3  0  0  0  0  0  0
  186.1590  177.7250  143.5290 C   0  0  2  0  0  3  0  0  0  0  0  0
  183.8750  178.9010  143.6020 C   0  0  2  0  0  3  0  0  0  0  0  0
  188.2860  177.3150  142.7250 C   0  0  0  0  0  0  0  0  0  0  0  0
  188.9110  177.2760  141.4910 F   0  0  0  0  0  0  0  0  0  0  0  0
  189.2240  177.9180  143.7340 C   0  0  0  0  0  0  0  0  0  0  0  0
  190.4110  178.1790  143.4040 O   0  0  0  0  0  0  0  0  0  0  0  0
  188.7970  178.2200  145.0650 N   0  0  0  0  0  2  0  0  0  0  0  0
  180.1030  178.7500  143.4460 C   0  0  0  0  0  0  0  0  0  0  0  0
  182.4810  178.8840  143.0610 C   0  0  0  0  0  0  0  0  0  0  0  0
  180.9140  178.9650  141.2250 C   0  0  0  0  0  0  0  0  0  0  0  0
  181.4080  178.7660  143.9460 C   0  0  0  0  0  3  0  0  0  0  0  0
  182.2320  178.9840  141.6850 C   0  0  0  0  0  3  0  0  0  0  0  0
  179.0030  178.6310  144.3390 N   0  0  0  0  0  1  0  0  0  0  0  0
  179.8850  178.8480  142.1080 N   0  0  0  0  0  0  0  0  0  0  0  0
  180.6470  179.0650  139.8310 N   0  0  0  0  0  1  0  0  0  0  0  0
  187.5260  178.2380  147.1270 C   0  0  0  0  0  2  0  0  0  0  0  0
  188.3210  177.2520  147.9680 C   0  0  0  0  0  2  0  0  0  0  0  0
  190.6820  177.1330  147.7160 O   0  0  0  0  0  1  0  0  0  0  0  0
  189.6640  177.8450  148.3480 C   0  0  0  0  0  2  0  0  0  0  0  0
  1 10  1  0  0  0  0
  1  8  1  0  0  0  0
  2 23  1  1  0  0  0
  3  9  1  0  0  0  0
  4  5  2  0  0  0  0
  7  2  1  0  0  0  0
  7  5  1  1  0  0  0
  8  3  1  6  0  0  0
  8  7  1  0  0  0  0
  9 16  1  6  0  0  0
  9  4  1  0  0  0  0
 10  6  1  0  0  0  0
 10 12  1  0  0  0  0
 11 10  1  0  0  0  0
 12 14  1  0  0  0  0
 13 12  2  0  0  0  0
 14  2  1  0  0  0  0
 15 18  1  0  0  0  0
 15 20  1  0  0  0  0
 16 18  2  0  0  0  0
 17 19  2  0  0  0  0
 17 21  1  0  0  0  0
 19 16  1  0  0  0  0
 21 15  2  0  0  0  0
 22 17  1  0  0  0  0
 23 24  1  0  0  0  0
 24 26  1  0  0  0  0
 25 26  1  0  0  0  0
M  END
>  <MODEL>
4

>  <REMARK>
 VINA RESULT:      -8.6      4.275      7.422
  Name = 
  4 active torsions:
  status: ('A' for Active; 'I' for Inactive)
    1  A    between atoms: C_3  and  C_17
    2  A    between atoms: C_3  and  C_26
    3  A    between atoms: C_5  and  C_16
    4  A    between atoms: C_6  and  C_17
                            x       y       z     vdW  Elec       q    Type
                         _______ _______ _______ _____ _____    ______ ____

>  <TORSDO>
F 4

$$$$
=
 OpenBabel11042412263D

 26 28  0  0  1  0  0  0  0  0999 V2000
  185.4730  178.9730  142.3660 O   0  0  0  0  0  0  0  0  0  0  0  0
  186.9440  177.8700  139.8820 C   0  0  1  0  0  3  0  0  0  0  0  0
  186.9840  177.7620  143.7860 C   0  0  0  0  0  2  0  0  0  0  0  0
  189.2420  177.3830  142.8230 C   0  0  0  0  0  3  0  0  0  0  0  0
  188.7740  177.4370  141.5730 C   0  0  0  0  0  3  0  0  0  0  0  0
  184.1780  177.3010  141.3630 F   0  0  0  0  0  0  0  0  0  0  0  0
  187.5110  178.2130  141.2710 C   0  0  2  0  0  3  0  0  0  0  0  0
  186.4380  177.9510  142.3550 C   0  0  2  0  0  3  0  0  0  0  0  0
  188.4790  178.0770  143.9130 C   0  0  2  0  0  3  0  0  0  0  0  0
  184.4320  178.6650  141.4590 C   0  0  0  0  0  0  0  0  0  0  0  0
  183.2760  179.2690  141.9210 F   0  0  0  0  0  0  0  0  0  0  0  0
  184.7680  179.2180  140.1020 C   0  0  0  0  0  0  0  0  0  0  0  0
  183.9650  180.0020  139.5310 O   0  0  0  0  0  0  0  0  0  0  0  0
  185.9930  178.8860  139.4420 N   0  0  0  0  0  2  0  0  0  0  0  0
  190.7930  176.8600  146.6400 C   0  0  0  0  0  0  0  0  0  0  0  0
  189.0010  177.7080  145.2640 C   0  0  0  0  0  0  0  0  0  0  0  0
  188.7430  177.4950  147.6570 C   0  0  0  0  0  0  0  0  0  0  0  0
  190.2990  177.2070  145.3790 C   0  0  0  0  0  3  0  0  0  0  0  0
  188.2130  177.8530  146.4150 C   0  0  0  0  0  3  0  0  0  0  0  0
  192.1140  176.3500  146.7690 N   0  0  0  0  0  1  0  0  0  0  0  0
  190.0110  177.0100  147.7420 N   0  0  0  0  0  0  0  0  0  0  0  0
  187.9550  177.6380  148.8320 N   0  0  0  0  0  1  0  0  0  0  0  0
  188.0400  177.7510  138.8240 C   0  0  0  0  0  2  0  0  0  0  0  0
  187.4670  177.8780  137.4220 C   0  0  0  0  0  2  0  0  0  0  0  0
  188.9620  179.7260  137.4370 O   0  0  0  0  0  1  0  0  0  0  0  0
  188.3050  178.8330  136.5930 C   0  0  0  0  0  2  0  0  0  0  0  0
  2 23  1  6  0  0  0
  2  7  1  0  0  0  0
  3  9  1  0  0  0  0
  4  9  1  0  0  0  0
  5  4  2  0  0  0  0
  6 10  1  0  0  0  0
  7  5  1  1  0  0  0
  7  8  1  0  0  0  0
  8  1  1  0  0  0  0
  8  3  1  1  0  0  0
  9 16  1  1  0  0  0
 10 11  1  0  0  0  0
 10  1  1  0  0  0  0
 12 10  1  0  0  0  0
 13 12  2  0  0  0  0
 14  2  1  0  0  0  0
 14 12  1  0  0  0  0
 15 20  1  0  0  0  0
 15 21  1  0  0  0  0
 16 18  1  0  0  0  0
 16 19  2  0  0  0  0
 17 21  2  0  0  0  0
 17 22  1  0  0  0  0
 18 15  2  0  0  0  0
 19 17  1  0  0  0  0
 24 23  1  0  0  0  0
 26 24  1  0  0  0  0
 26 25  1  0  0  0  0
M  END
>  <MODEL>
5

>  <REMARK>
 VINA RESULT:      -8.4      4.226      7.520
  Name = 
  4 active torsions:
  status: ('A' for Active; 'I' for Inactive)
    1  A    between atoms: C_3  and  C_17
    2  A    between atoms: C_3  and  C_26
    3  A    between atoms: C_5  and  C_16
    4  A    between atoms: C_6  and  C_17
                            x       y       z     vdW  Elec       q    Type
                         _______ _______ _______ _____ _____    ______ ____

>  <TORSDO>
F 4

$$$$
=
 OpenBabel11042412263D

 26 28  0  0  1  0  0  0  0  0999 V2000
  185.5360  179.0400  142.4070 O   0  0  0  0  0  0  0  0  0  0  0  0
  186.9760  177.9420  139.9030 C   0  0  1  0  0  3  0  0  0  0  0  0
  187.0340  177.7880  143.8050 C   0  0  0  0  0  2  0  0  0  0  0  0
  189.2810  177.3840  142.8260 C   0  0  0  0  0  3  0  0  0  0  0  0
  188.8070  177.4600  141.5800 C   0  0  0  0  0  3  0  0  0  0  0  0
  184.2090  177.4010  141.3910 F   0  0  0  0  0  0  0  0  0  0  0  0
  187.5560  178.2590  141.2920 C   0  0  2  0  0  3  0  0  0  0  0  0
  186.4840  178.0030  142.3790 C   0  0  2  0  0  3  0  0  0  0  0  0
  188.5340  178.0770  143.9270 C   0  0  2  0  0  3  0  0  0  0  0  0
  184.4860  178.7600  141.5020 C   0  0  0  0  0  0  0  0  0  0  0  0
  183.3420  179.3770  141.9770 F   0  0  0  0  0  0  0  0  0  0  0  0
  184.8240  179.3220  140.1490 C   0  0  0  0  0  0  0  0  0  0  0  0
  184.0310  180.1260  139.5910 O   0  0  0  0  0  0  0  0  0  0  0  0
  186.0400  178.9780  139.4790 N   0  0  0  0  0  2  0  0  0  0  0  0
  188.7390  177.5120  147.6570 C   0  0  0  0  0  0  0  0  0  0  0  0
  189.0580  177.6840  145.2720 C   0  0  0  0  0  0  0  0  0  0  0  0
  190.7820  176.7760  146.6980 C   0  0  0  0  0  0  0  0  0  0  0  0
  188.2550  177.8780  146.3980 C   0  0  0  0  0  3  0  0  0  0  0  0
  190.3360  177.1280  145.4230 C   0  0  0  0  0  3  0  0  0  0  0  0
  187.9300  177.7040  148.8110 N   0  0  0  0  0  1  0  0  0  0  0  0
  189.9810  176.9740  147.7800 N   0  0  0  0  0  0  0  0  0  0  0  0
  192.0770  176.2100  146.8650 N   0  0  0  0  0  1  0  0  0  0  0  0
  188.0650  177.8160  138.8380 C   0  0  0  0  0  2  0  0  0  0  0  0
  187.4620  177.6360  137.4530 C   0  0  0  0  0  2  0  0  0  0  0  0
  188.7130  179.6440  137.2180 O   0  0  0  0  0  1  0  0  0  0  0  0
  188.0120  178.6790  136.4990 C   0  0  0  0  0  2  0  0  0  0  0  0
  2 23  1  6  0  0  0
  2  7  1  0  0  0  0
  3  9  1  0  0  0  0
  4  9  1  0  0  0  0
  5  4  2  0  0  0  0
  6 10  1  0  0  0  0
  7  5  1  1  0  0  0
  7  8  1  0  0  0  0
  8  1  1  0  0  0  0
  8  3  1  1  0  0  0
  9 16  1  1  0  0  0
 10 11  1  0  0  0  0
 10  1  1  0  0  0  0
 12 10  1  0  0  0  0
 13 12  2  0  0  0  0
 14  2  1  0  0  0  0
 14 12  1  0  0  0  0
 15 21  1  0  0  0  0
 15 20  1  0  0  0  0
 16 19  2  0  0  0  0
 16 18  1  0  0  0  0
 17 22  1  0  0  0  0
 17 21  2  0  0  0  0
 18 15  2  0  0  0  0
 19 17  1  0  0  0  0
 24 23  1  0  0  0  0
 26 25  1  0  0  0  0
 26 24  1  0  0  0  0
M  END
>  <MODEL>
6

>  <REMARK>
 VINA RESULT:      -8.3      4.221      7.414
  Name = 
  4 active torsions:
  status: ('A' for Active; 'I' for Inactive)
    1  A    between atoms: C_3  and  C_17
    2  A    between atoms: C_3  and  C_26
    3  A    between atoms: C_5  and  C_16
    4  A    between atoms: C_6  and  C_17
                            x       y       z     vdW  Elec       q    Type
                         _______ _______ _______ _____ _____    ______ ____

>  <TORSDO>
F 4

$$$$
=
 OpenBabel11042412263D

 26 28  0  0  1  0  0  0  0  0999 V2000
  184.7460  177.7120  141.4180 O   0  0  0  0  0  0  0  0  0  0  0  0
  182.4870  179.3270  142.7750 C   0  0  1  0  0  3  0  0  0  0  0  0
  186.2160  178.2630  143.2360 C   0  0  0  0  0  2  0  0  0  0  0  0
  185.0840  178.6480  145.4130 C   0  0  0  0  0  3  0  0  0  0  0  0
  183.9500  179.0230  144.8140 C   0  0  0  0  0  3  0  0  0  0  0  0
  184.4490  179.7460  140.2960 F   0  0  0  0  0  0  0  0  0  0  0  0
  183.6270  178.5240  143.4240 C   0  0  2  0  0  3  0  0  0  0  0  0
  184.8840  178.5730  142.5220 C   0  0  2  0  0  3  0  0  0  0  0  0
  186.0330  177.7540  144.6700 C   0  0  2  0  0  3  0  0  0  0  0  0
  184.1220  178.3940  140.3490 C   0  0  0  0  0  0  0  0  0  0  0  0
  184.5570  177.8180  139.1680 F   0  0  0  0  0  0  0  0  0  0  0  0
  182.6300  178.2360  140.4530 C   0  0  0  0  0  0  0  0  0  0  0  0
  181.9830  177.7550  139.4850 O   0  0  0  0  0  0  0  0  0  0  0  0
  181.9200  178.6050  141.6390 N   0  0  0  0  0  2  0  0  0  0  0  0
  189.7070  177.1580  145.3180 C   0  0  0  0  0  0  0  0  0  0  0  0
  187.3440  177.6420  145.3800 C   0  0  0  0  0  0  0  0  0  0  0  0
  188.7000  177.7870  147.3740 C   0  0  0  0  0  0  0  0  0  0  0  0
  188.4790  177.2650  144.6590 C   0  0  0  0  0  3  0  0  0  0  0  0
  187.4550  177.9050  146.7530 C   0  0  0  0  0  3  0  0  0  0  0  0
  190.8700  176.7770  144.5940 N   0  0  0  0  0  1  0  0  0  0  0  0
  189.7910  177.4180  146.6500 N   0  0  0  0  0  0  0  0  0  0  0  0
  188.8260  178.0500  148.7660 N   0  0  0  0  0  1  0  0  0  0  0  0
  181.3580  179.6290  143.7610 C   0  0  0  0  0  2  0  0  0  0  0  0
  180.0460  179.8780  143.0340 C   0  0  0  0  0  2  0  0  0  0  0  0
  179.4710  177.9520  144.3030 O   0  0  0  0  0  1  0  0  0  0  0  0
  178.9310  179.0680  143.6660 C   0  0  0  0  0  2  0  0  0  0  0  0
  1  8  1  0  0  0  0
  2  7  1  0  0  0  0
  2 23  1  1  0  0  0
  3  9  1  0  0  0  0
  5  4  2  0  0  0  0
  6 10  1  0  0  0  0
  7  5  1  1  0  0  0
  8  3  1  1  0  0  0
  8  7  1  0  0  0  0
  9 16  1  1  0  0  0
  9  4  1  0  0  0  0
 10 12  1  0  0  0  0
 10  1  1  0  0  0  0
 11 10  1  0  0  0  0
 12 14  1  0  0  0  0
 13 12  2  0  0  0  0
 14  2  1  0  0  0  0
 15 21  1  0  0  0  0
 16 19  2  0  0  0  0
 17 22  1  0  0  0  0
 18 15  2  0  0  0  0
 18 16  1  0  0  0  0
 19 17  1  0  0  0  0
 20 15  1  0  0  0  0
 21 17  2  0  0  0  0
 24 26  1  0  0  0  0
 24 23  1  0  0  0  0
 26 25  1  0  0  0  0
M  END
>  <MODEL>
7

>  <REMARK>
 VINA RESULT:      -8.2      4.935      7.333
  Name = 
  4 active torsions:
  status: ('A' for Active; 'I' for Inactive)
    1  A    between atoms: C_3  and  C_17
    2  A    between atoms: C_3  and  C_26
    3  A    between atoms: C_5  and  C_16
    4  A    between atoms: C_6  and  C_17
                            x       y       z     vdW  Elec       q    Type
                         _______ _______ _______ _____ _____    ______ ____

>  <TORSDO>
F 4

$$$$
=
 OpenBabel11042412263D

 26 28  0  0  1  0  0  0  0  0999 V2000
  190.8510  175.6490  139.2610 O   0  0  0  0  0  0  0  0  0  0  0  0
  189.5580  178.0050  137.7340 C   0  0  1  0  0  3  0  0  0  0  0  0
  190.5230  176.8240  141.3300 C   0  0  0  0  0  2  0  0  0  0  0  0
  188.5850  178.3770  141.3510 C   0  0  0  0  0  3  0  0  0  0  0  0
  188.6480  178.5540  140.0290 C   0  0  0  0  0  3  0  0  0  0  0  0
  192.5120  176.8850  138.1670 F   0  0  0  0  0  0  0  0  0  0  0  0
  189.2510  177.4830  139.1490 C   0  0  2  0  0  3  0  0  0  0  0  0
  190.5410  176.9150  139.7890 C   0  0  2  0  0  3  0  0  0  0  0  0
  189.1480  177.1170  141.9400 C   0  0  2  0  0  3  0  0  0  0  0  0
  191.6540  175.7910  138.1050 C   0  0  0  0  0  0  0  0  0  0  0  0
  192.4380  174.6570  137.9930 F   0  0  0  0  0  0  0  0  0  0  0  0
  190.7730  175.9040  136.8920 C   0  0  0  0  0  0  0  0  0  0  0  0
  190.9230  175.0990  135.9350 O   0  0  0  0  0  0  0  0  0  0  0  0
  189.7500  176.8990  136.8000 N   0  0  0  0  0  2  0  0  0  0  0  0
  188.1100  177.5030  145.5520 C   0  0  0  0  0  0  0  0  0  0  0  0
  189.2190  177.1970  143.4310 C   0  0  0  0  0  0  0  0  0  0  0  0
  190.4540  177.1280  145.5060 C   0  0  0  0  0  0  0  0  0  0  0  0
  188.0490  177.4280  144.1580 C   0  0  0  0  0  3  0  0  0  0  0  0
  190.4360  177.0460  144.1130 C   0  0  0  0  0  3  0  0  0  0  0  0
  186.9240  177.7370  146.3020 N   0  0  0  0  0  1  0  0  0  0  0  0
  189.3000  177.3540  146.1910 N   0  0  0  0  0  0  0  0  0  0  0  0
  191.6810  176.9770  146.2100 N   0  0  0  0  0  1  0  0  0  0  0  0
  188.4420  178.8990  137.1940 C   0  0  0  0  0  2  0  0  0  0  0  0
  187.4310  178.0930  136.3930 C   0  0  0  0  0  2  0  0  0  0  0  0
  185.9270  178.9960  137.9970 O   0  0  0  0  0  1  0  0  0  0  0  0
  186.1680  177.8760  137.2030 C   0  0  0  0  0  2  0  0  0  0  0  0
  1  8  1  0  0  0  0
  2 23  1  6  0  0  0
  2  7  1  0  0  0  0
  3  9  1  0  0  0  0
  4  9  1  0  0  0  0
  5  4  2  0  0  0  0
  7  8  1  0  0  0  0
  7  5  1  1  0  0  0
  8  3  1  1  0  0  0
  9 16  1  1  0  0  0
 10  6  1  0  0  0  0
 10  1  1  0  0  0  0
 11 10  1  0  0  0  0
 12 10  1  0  0  0  0
 13 12  2  0  0  0  0
 14 12  1  0  0  0  0
 14  2  1  0  0  0  0
 15 21  1  0  0  0  0
 15 20  1  0  0  0  0
 16 19  2  0  0  0  0
 16 18  1  0  0  0  0
 17 21  2  0  0  0  0
 17 22  1  0  0  0  0
 18 15  2  0  0  0  0
 19 17  1  0  0  0  0
 24 23  1  0  0  0  0
 24 26  1  0  0  0  0
 26 25  1  0  0  0  0
M  END
>  <MODEL>
8

>  <REMARK>
 VINA RESULT:      -8.2      4.389      7.703
  Name = 
  4 active torsions:
  status: ('A' for Active; 'I' for Inactive)
    1  A    between atoms: C_3  and  C_17
    2  A    between atoms: C_3  and  C_26
    3  A    between atoms: C_5  and  C_16
    4  A    between atoms: C_6  and  C_17
                            x       y       z     vdW  Elec       q    Type
                         _______ _______ _______ _____ _____    ______ ____

>  <TORSDO>
F 4

$$$$
=
 OpenBabel11042412263D

 26 28  0  0  1  0  0  0  0  0999 V2000
  188.7610  177.4050  140.3260 O   0  0  0  0  0  0  0  0  0  0  0  0
  186.0440  178.8660  140.1530 C   0  0  1  0  0  3  0  0  0  0  0  0
  188.8930  177.9490  142.6620 C   0  0  0  0  0  2  0  0  0  0  0  0
  186.7000  178.2010  143.8000 C   0  0  0  0  0  3  0  0  0  0  0  0
  186.0920  178.5480  142.6610 C   0  0  0  0  0  3  0  0  0  0  0  0
  189.0430  179.4640  139.2490 F   0  0  0  0  0  0  0  0  0  0  0  0
  186.6510  178.0890  141.3340 C   0  0  2  0  0  3  0  0  0  0  0  0
  188.1930  178.2270  141.3150 C   0  0  2  0  0  3  0  0  0  0  0  0
  187.9530  177.3790  143.7290 C   0  0  2  0  0  3  0  0  0  0  0  0
  188.8220  178.0990  139.0960 C   0  0  0  0  0  0  0  0  0  0  0  0
  189.8870  177.5870  138.3740 F   0  0  0  0  0  0  0  0  0  0  0  0
  187.5510  177.8710  138.3260 C   0  0  0  0  0  0  0  0  0  0  0  0
  187.6030  177.4000  137.1590 O   0  0  0  0  0  0  0  0  0  0  0  0
  186.2710  178.1640  138.8940 N   0  0  0  0  0  2  0  0  0  0  0  0
  190.6180  176.8970  146.3630 C   0  0  0  0  0  0  0  0  0  0  0  0
  188.6260  177.2970  145.0620 C   0  0  0  0  0  0  0  0  0  0  0  0
  188.5920  177.4460  147.4720 C   0  0  0  0  0  0  0  0  0  0  0  0
  189.9840  176.9750  145.1200 C   0  0  0  0  0  3  0  0  0  0  0  0
  187.9210  177.5340  146.2510 C   0  0  0  0  0  3  0  0  0  0  0  0
  192.0000  176.5710  146.4350 N   0  0  0  0  0  1  0  0  0  0  0  0
  189.9150  177.1310  147.5030 N   0  0  0  0  0  0  0  0  0  0  0  0
  187.8890  177.6850  148.6860 N   0  0  0  0  0  1  0  0  0  0  0  0
  184.5390  179.0800  140.3160 C   0  0  0  0  0  2  0  0  0  0  0  0
  183.9360  179.7130  139.0720 C   0  0  0  0  0  2  0  0  0  0  0  0
  181.7080  179.3780  139.8320 O   0  0  0  0  0  1  0  0  0  0  0  0
  182.5780  179.1070  138.7770 C   0  0  0  0  0  2  0  0  0  0  0  0
  1  8  1  0  0  0  0
  2 23  1  1  0  0  0
  2  7  1  0  0  0  0
  3  9  1  0  0  0  0
  5  4  2  0  0  0  0
  7  5  1  1  0  0  0
  8  7  1  0  0  0  0
  8  3  1  1  0  0  0
  9  4  1  0  0  0  0
  9 16  1  1  0  0  0
 10  6  1  0  0  0  0
 10  1  1  0  0  0  0
 11 10  1  0  0  0  0
 12 14  1  0  0  0  0
 12 10  1  0  0  0  0
 13 12  2  0  0  0  0
 14  2  1  0  0  0  0
 15 20  1  0  0  0  0
 15 21  1  0  0  0  0
 16 18  1  0  0  0  0
 16 19  2  0  0  0  0
 17 21  2  0  0  0  0
 17 22  1  0  0  0  0
 18 15  2  0  0  0  0
 19 17  1  0  0  0  0
 24 23  1  0  0  0  0
 26 24  1  0  0  0  0
 26 25  1  0  0  0  0
M  END
>  <MODEL>
9

>  <REMARK>
 VINA RESULT:      -8.1      4.371      7.159
  Name = 
  4 active torsions:
  status: ('A' for Active; 'I' for Inactive)
    1  A    between atoms: C_3  and  C_17
    2  A    between atoms: C_3  and  C_26
    3  A    between atoms: C_5  and  C_16
    4  A    between atoms: C_6  and  C_17
                            x       y       z     vdW  Elec       q    Type
                         _______ _______ _______ _____ _____    ______ ____

>  <TORSDO>
F 4

$$$$
