=
 OpenBabel11042412573D

 42 45  0  0  1  0  0  0  0  0999 V2000
  185.4660  178.7030  141.3370 C   0  0  1  0  0  3  0  0  0  0  0  0
  187.8250  178.4080  140.6660 C   0  0  0  0  0  3  0  0  0  0  0  0
  186.1390  178.5340  138.9600 N   0  0  0  0  0  0  0  0  0  0  0  0
  186.9140  178.4160  141.6400 C   0  0  0  0  0  3  0  0  0  0  0  0
  185.1060  178.1820  139.9380 C   0  0  2  0  0  3  0  0  0  0  0  0
  187.4040  178.6000  139.2670 C   0  0  0  0  0  0  0  0  0  0  0  0
  181.2590  179.6780  138.5630 C   0  0  0  0  0  0  0  0  0  0  0  0
  183.6340  180.0260  139.0720 C   0  0  0  0  0  3  0  0  0  0  0  0
  181.4270  178.3500  138.9850 C   0  0  0  0  0  0  0  0  0  0  0  0
  182.3910  180.5150  138.6190 C   0  0  0  0  0  3  0  0  0  0  0  0
  180.5110  177.3690  139.0190 N   0  0  0  0  0  0  0  0  0  0  0  0
  183.7700  178.6880  139.4800 C   0  0  0  0  0  0  0  0  0  0  0  0
  180.6150  174.9760  139.7160 C   0  0  0  0  0  1  0  0  0  0  0  0
  182.6310  177.8760  139.4230 C   0  0  0  0  0  0  0  0  0  0  0  0
  181.2200  176.3150  139.4960 C   0  0  0  0  0  0  0  0  0  0  0  0
  182.5260  176.5790  139.7580 N   0  0  0  0  0  2  0  0  0  0  0  0
  179.2500  180.9360  138.8070 O   0  0  0  0  0  1  0  0  0  0  0  0
  179.5430  179.9120  136.7850 O   0  0  0  0  0  0  0  0  0  0  0  0
  179.9720  180.2080  138.0730 C   0  0  0  0  0  0  0  0  0  0  0  0
  189.3770  178.1100  137.8810 C   0  0  0  0  0  3  0  0  0  0  0  0
  188.4060  178.8810  138.2780 N   0  0  0  0  0  0  0  0  0  0  0  0
  191.3800  175.2800  137.7280 C   0  0  0  0  0  2  0  0  0  0  0  0
  189.6540  176.7430  138.4260 C   0  0  1  0  0  3  0  0  0  0  0  0
  190.0420  175.8340  137.3020 C   0  0  0  0  0  2  0  0  0  0  0  0
  190.6220  176.1090  140.4980 F   0  0  0  0  0  0  0  0  0  0  0  0
  190.8800  176.7810  139.3160 C   0  0  1  0  0  3  0  0  0  0  0  0
  191.9560  176.1690  138.6500 O   0  0  0  0  0  0  0  0  0  0  0  0
  184.5640  178.0730  142.3930 C   0  0  0  0  0  2  0  0  0  0  0  0
  184.5010  180.1470  143.8950 C   0  0  0  0  0  1  0  0  0  0  0  0
  185.1960  177.9370  144.7140 N   0  0  0  0  0  0  0  0  0  0  0  0
  184.7850  178.6890  143.7340 C   0  0  0  0  0  0  0  0  0  0  0  0
  185.4550  178.3280  146.0730 C   0  0  0  0  0  0  0  0  0  0  0  0
  184.5370  178.3770  146.9340 O   0  0  0  0  0  0  0  0  0  0  0  0
  186.8460  178.6820  146.4690 C   0  0  0  0  0  2  0  0  0  0  0  0
  187.7720  177.4830  146.2760 C   0  0  2  0  0  3  0  0  0  0  0  0
  188.3770  178.2170  148.4810 O   0  0  0  0  0  1  0  0  0  0  0  0
  189.9550  176.8640  147.3410 C   0  0  0  0  0  1  0  0  0  0  0  0
  188.4810  177.1480  147.5880 C   0  0  2  0  0  3  0  0  0  0  0  0
  188.7930  177.7900  145.1820 C   0  0  0  0  0  2  0  0  0  0  0  0
  188.8280  176.7030  144.1200 C   0  0  0  0  0  2  0  0  0  0  0  0
  190.1850  176.5170  143.6360 N   0  0  0  0  0  2  0  0  0  0  0  0
  190.8170  177.8230  143.6630 C   0  0  0  0  0  1  0  0  0  0  0  0
  1  4  1  0  0  0  0
  1 28  1  1  0  0  0
  2  4  2  0  0  0  0
  3  6  2  0  0  0  0
  3  5  1  0  0  0  0
  5 12  1  6  0  0  0
  5  1  1  0  0  0  0
  6  2  1  0  0  0  0
  7 10  2  0  0  0  0
  7  9  1  0  0  0  0
  8 12  2  0  0  0  0
  9 11  1  0  0  0  0
  9 14  2  0  0  0  0
 10  8  1  0  0  0  0
 11 15  2  0  0  0  0
 14 12  1  0  0  0  0
 14 16  1  0  0  0  0
 15 13  1  0  0  0  0
 15 16  1  0  0  0  0
 18 19  2  0  0  0  0
 19  7  1  0  0  0  0
 19 17  1  0  0  0  0
 20 21  2  0  0  0  0
 21  6  1  0  0  0  0
 22 27  1  0  0  0  0
 23 20  1  6  0  0  0
 23 26  1  0  0  0  0
 24 22  1  0  0  0  0
 24 23  1  0  0  0  0
 26 25  1  1  0  0  0
 27 26  1  0  0  0  0
 28 31  1  0  0  0  0
 30 32  1  0  0  0  0
 31 29  1  0  0  0  0
 31 30  2  0  0  0  0
 32 34  1  0  0  0  0
 32 33  2  0  0  0  0
 35 39  1  6  0  0  0
 35 34  1  0  0  0  0
 35 38  1  0  0  0  0
 38 37  1  6  0  0  0
 38 36  1  0  0  0  0
 40 39  1  0  0  0  0
 41 42  1  0  0  0  0
 41 40  1  0  0  0  0
M  END
>  <MODEL>
1

>  <REMARK>
 VINA RESULT:      -7.7      0.000      0.000
  Name = 
  13 active torsions:
  status: ('A' for Active; 'I' for Inactive)
    1  A    between atoms: C_1  and  C_27
    2  A    between atoms: C_3  and  C_22
    3  A    between atoms: N_6  and  C_21
    4  A    between atoms: C_7  and  C_9
    5  A    between atoms: C_15  and  C_25
    6  A    between atoms: C_15  and  C_36
    7  A    between atoms: C_16  and  C_21
    8  A    between atoms: C_16  and  C_25
    9  A    between atoms: C_18  and  C_32
   10  A    between atoms: N_20  and  C_26
   11  A    between atoms: C_22  and  C_34
   12  A    between atoms: C_25  and  C_35
   13  A    between atoms: N_30  and  C_36
                            x       y       z     vdW  Elec       q    Type
                         _______ _______ _______ _____ _____    ______ ____

>  <TORSDO>
F 13

$$$$
=
 OpenBabel11042412573D

 42 45  0  0  1  0  0  0  0  0999 V2000
  185.3150  178.8490  141.1790 C   0  0  1  0  0  3  0  0  0  0  0  0
  187.6430  178.4460  140.4600 C   0  0  0  0  0  3  0  0  0  0  0  0
  185.9040  178.4660  138.8050 N   0  0  0  0  0  0  0  0  0  0  0  0
  186.7670  178.5560  141.4590 C   0  0  0  0  0  3  0  0  0  0  0  0
  184.8970  178.2210  139.8420 C   0  0  2  0  0  3  0  0  0  0  0  0
  187.1790  178.5290  139.0640 C   0  0  0  0  0  0  0  0  0  0  0  0
  181.0370  179.6870  138.4720 C   0  0  0  0  0  0  0  0  0  0  0  0
  183.4230  180.0380  138.9240 C   0  0  0  0  0  3  0  0  0  0  0  0
  181.2030  178.3770  138.9470 C   0  0  0  0  0  0  0  0  0  0  0  0
  182.1760  180.5160  138.4710 C   0  0  0  0  0  3  0  0  0  0  0  0
  180.2810  177.4060  139.0400 N   0  0  0  0  0  0  0  0  0  0  0  0
  183.5570  178.7170  139.3860 C   0  0  0  0  0  0  0  0  0  0  0  0
  180.3810  175.0430  139.8370 C   0  0  0  0  0  1  0  0  0  0  0  0
  182.4110  177.9130  139.3840 C   0  0  0  0  0  0  0  0  0  0  0  0
  180.9920  176.3670  139.5490 C   0  0  0  0  0  0  0  0  0  0  0  0
  182.3030  176.6330  139.7760 N   0  0  0  0  0  2  0  0  0  0  0  0
  179.0720  181.0200  138.6700 O   0  0  0  0  0  1  0  0  0  0  0  0
  179.2580  179.8010  136.7450 O   0  0  0  0  0  0  0  0  0  0  0  0
  179.7460  180.2060  137.9820 C   0  0  0  0  0  0  0  0  0  0  0  0
  189.1280  177.9060  137.6990 C   0  0  0  0  0  3  0  0  0  0  0  0
  188.1530  178.7030  138.0230 N   0  0  0  0  0  0  0  0  0  0  0  0
  191.0340  175.0050  137.7120 C   0  0  0  0  0  2  0  0  0  0  0  0
  189.4440  176.6200  138.3990 C   0  0  1  0  0  3  0  0  0  0  0  0
  189.6640  175.5460  137.3800 C   0  0  0  0  0  2  0  0  0  0  0  0
  190.6560  176.2480  140.4040 F   0  0  0  0  0  0  0  0  0  0  0  0
  190.7750  176.7350  139.1140 C   0  0  1  0  0  3  0  0  0  0  0  0
  191.7420  175.9920  138.4170 O   0  0  0  0  0  0  0  0  0  0  0  0
  184.4370  178.3300  142.3130 C   0  0  0  0  0  2  0  0  0  0  0  0
  184.7370  179.7920  144.3970 C   0  0  0  0  0  1  0  0  0  0  0  0
  185.8990  177.6470  144.1030 N   0  0  0  0  0  0  0  0  0  0  0  0
  185.0810  178.5490  143.6430 C   0  0  0  0  0  0  0  0  0  0  0  0
  186.6060  177.6590  145.3540 C   0  0  0  0  0  0  0  0  0  0  0  0
  186.1500  178.2540  146.3670 O   0  0  0  0  0  0  0  0  0  0  0  0
  187.9100  176.9460  145.4520 C   0  0  0  0  0  2  0  0  0  0  0  0
  189.0530  177.8820  145.0660 C   0  0  2  0  0  3  0  0  0  0  0  0
  190.1050  178.2690  142.9420 O   0  0  0  0  0  1  0  0  0  0  0  0
  189.0740  176.1560  143.2480 C   0  0  0  0  0  1  0  0  0  0  0  0
  189.8490  177.2890  143.9040 C   0  0  2  0  0  3  0  0  0  0  0  0
  189.9630  178.1090  146.2730 C   0  0  0  0  0  2  0  0  0  0  0  0
  190.2350  176.8170  147.0260 C   0  0  0  0  0  2  0  0  0  0  0  0
  191.6030  176.8000  147.5140 N   0  0  0  0  0  2  0  0  0  0  0  0
  192.2280  175.6160  146.9550 C   0  0  0  0  0  1  0  0  0  0  0  0
  1  4  1  0  0  0  0
  1 28  1  1  0  0  0
  2  4  2  0  0  0  0
  3  6  2  0  0  0  0
  3  5  1  0  0  0  0
  5 12  1  6  0  0  0
  5  1  1  0  0  0  0
  6  2  1  0  0  0  0
  7  9  1  0  0  0  0
  8 12  2  0  0  0  0
  9 11  1  0  0  0  0
  9 14  2  0  0  0  0
 10  7  2  0  0  0  0
 10  8  1  0  0  0  0
 11 15  2  0  0  0  0
 14 12  1  0  0  0  0
 14 16  1  0  0  0  0
 15 16  1  0  0  0  0
 15 13  1  0  0  0  0
 18 19  2  0  0  0  0
 19  7  1  0  0  0  0
 19 17  1  0  0  0  0
 20 21  2  0  0  0  0
 21  6  1  0  0  0  0
 22 27  1  0  0  0  0
 23 20  1  6  0  0  0
 23 26  1  0  0  0  0
 24 22  1  0  0  0  0
 24 23  1  0  0  0  0
 26 25  1  1  0  0  0
 27 26  1  0  0  0  0
 28 31  1  0  0  0  0
 30 32  1  0  0  0  0
 31 30  2  0  0  0  0
 31 29  1  0  0  0  0
 32 34  1  0  0  0  0
 32 33  2  0  0  0  0
 35 34  1  1  0  0  0
 35 39  1  0  0  0  0
 36 38  1  0  0  0  0
 38 37  1  6  0  0  0
 38 35  1  0  0  0  0
 39 40  1  0  0  0  0
 40 41  1  0  0  0  0
 42 41  1  0  0  0  0
M  END
>  <MODEL>
2

>  <REMARK>
 VINA RESULT:      -7.2      1.250      1.777
  Name = 
  13 active torsions:
  status: ('A' for Active; 'I' for Inactive)
    1  A    between atoms: C_1  and  C_27
    2  A    between atoms: C_3  and  C_22
    3  A    between atoms: N_6  and  C_21
    4  A    between atoms: C_7  and  C_9
    5  A    between atoms: C_15  and  C_25
    6  A    between atoms: C_15  and  C_36
    7  A    between atoms: C_16  and  C_21
    8  A    between atoms: C_16  and  C_25
    9  A    between atoms: C_18  and  C_32
   10  A    between atoms: N_20  and  C_26
   11  A    between atoms: C_22  and  C_34
   12  A    between atoms: C_25  and  C_35
   13  A    between atoms: N_30  and  C_36
                            x       y       z     vdW  Elec       q    Type
                         _______ _______ _______ _____ _____    ______ ____

>  <TORSDO>
F 13

$$$$
=
 OpenBabel11042412573D

 42 45  0  0  1  0  0  0  0  0999 V2000
  189.5590  177.1980  139.8910 C   0  0  1  0  0  3  0  0  0  0  0  0
  187.5980  178.4300  139.0320 C   0  0  0  0  0  3  0  0  0  0  0  0
  189.2170  177.5900  137.4690 N   0  0  0  0  0  0  0  0  0  0  0  0
  188.3380  178.0630  140.0770 C   0  0  0  0  0  3  0  0  0  0  0  0
  190.2180  177.5000  138.5370 C   0  0  2  0  0  3  0  0  0  0  0  0
  188.0170  178.0580  137.6690 C   0  0  0  0  0  0  0  0  0  0  0  0
  193.2610  174.5490  137.5600 C   0  0  0  0  0  0  0  0  0  0  0  0
  192.6100  176.7310  138.4730 C   0  0  0  0  0  3  0  0  0  0  0  0
  191.9050  174.3330  137.2740 C   0  0  0  0  0  0  0  0  0  0  0  0
  193.6000  175.7760  138.1660 C   0  0  0  0  0  3  0  0  0  0  0  0
  191.3380  173.2540  136.7120 N   0  0  0  0  0  0  0  0  0  0  0  0
  191.2580  176.4800  138.1810 C   0  0  0  0  0  0  0  0  0  0  0  0
  188.9780  172.6830  136.1380 C   0  0  0  0  0  1  0  0  0  0  0  0
  190.9460  175.2580  137.5730 C   0  0  0  0  0  0  0  0  0  0  0  0
  190.0220  173.5850  136.6900 C   0  0  0  0  0  0  0  0  0  0  0  0
  189.7340  174.8060  137.2080 N   0  0  0  0  0  2  0  0  0  0  0  0
  194.6600  173.3230  136.0700 O   0  0  0  0  0  0  0  0  0  0  0  0
  194.9390  172.8740  138.2940 O   0  0  0  0  0  1  0  0  0  0  0  0
  194.3130  173.5590  137.2600 C   0  0  0  0  0  0  0  0  0  0  0  0
  185.9910  177.5110  136.3850 C   0  0  0  0  0  3  0  0  0  0  0  0
  187.0750  178.2000  136.5950 N   0  0  0  0  0  0  0  0  0  0  0  0
  183.6960  174.9410  136.8000 C   0  0  0  0  0  2  0  0  0  0  0  0
  185.5230  176.3790  137.2480 C   0  0  1  0  0  3  0  0  0  0  0  0
  184.0270  176.3440  137.2450 C   0  0  0  0  0  2  0  0  0  0  0  0
  186.4930  174.2410  137.5930 F   0  0  0  0  0  0  0  0  0  0  0  0
  185.9280  175.0570  136.6280 C   0  0  1  0  0  3  0  0  0  0  0  0
  184.7930  174.4310  136.0860 O   0  0  0  0  0  0  0  0  0  0  0  0
  190.5480  177.4170  141.0300 C   0  0  0  0  0  2  0  0  0  0  0  0
  190.1060  175.6260  142.8080 C   0  0  0  0  0  1  0  0  0  0  0  0
  189.3450  177.9500  143.0490 N   0  0  0  0  0  0  0  0  0  0  0  0
  189.9540  177.0380  142.3460 C   0  0  0  0  0  0  0  0  0  0  0  0
  188.7220  177.7970  144.3350 C   0  0  0  0  0  0  0  0  0  0  0  0
  189.3230  178.0970  145.4010 O   0  0  0  0  0  0  0  0  0  0  0  0
  187.3310  177.2720  144.4040 C   0  0  0  0  0  2  0  0  0  0  0  0
  186.3840  178.3500  144.9260 C   0  0  2  0  0  3  0  0  0  0  0  0
  184.6110  178.5810  146.5300 O   0  0  0  0  0  1  0  0  0  0  0  0
  186.8060  178.3540  147.3970 C   0  0  0  0  0  1  0  0  0  0  0  0
  185.8360  177.9520  146.2970 C   0  0  2  0  0  3  0  0  0  0  0  0
  185.2400  178.5560  143.9350 C   0  0  0  0  0  2  0  0  0  0  0  0
  185.6790  178.2950  142.5030 C   0  0  0  0  0  2  0  0  0  0  0  0
  185.3520  179.4340  141.6630 N   0  0  0  0  0  2  0  0  0  0  0  0
  184.3700  178.9710  140.7010 C   0  0  0  0  0  1  0  0  0  0  0  0
  1  4  1  0  0  0  0
  1 28  1  1  0  0  0
  2  4  2  0  0  0  0
  3  6  2  0  0  0  0
  3  5  1  0  0  0  0
  5 12  1  6  0  0  0
  5  1  1  0  0  0  0
  6  2  1  0  0  0  0
  7 10  1  0  0  0  0
  9  7  2  0  0  0  0
  9 14  1  0  0  0  0
 10  8  2  0  0  0  0
 11  9  1  0  0  0  0
 12  8  1  0  0  0  0
 13 15  1  0  0  0  0
 14 12  2  0  0  0  0
 15 11  2  0  0  0  0
 15 16  1  0  0  0  0
 16 14  1  0  0  0  0
 17 19  2  0  0  0  0
 19  7  1  0  0  0  0
 19 18  1  0  0  0  0
 20 21  2  0  0  0  0
 21  6  1  0  0  0  0
 22 24  1  0  0  0  0
 23 20  1  6  0  0  0
 24 23  1  0  0  0  0
 26 23  1  0  0  0  0
 26 25  1  1  0  0  0
 27 26  1  0  0  0  0
 27 22  1  0  0  0  0
 28 31  1  0  0  0  0
 30 32  1  0  0  0  0
 31 29  1  0  0  0  0
 31 30  2  0  0  0  0
 32 34  1  0  0  0  0
 32 33  2  0  0  0  0
 34 35  1  0  0  0  0
 35 39  1  6  0  0  0
 35 38  1  0  0  0  0
 38 36  1  0  0  0  0
 38 37  1  1  0  0  0
 40 39  1  0  0  0  0
 41 40  1  0  0  0  0
 42 41  1  0  0  0  0
M  END
>  <MODEL>
3

>  <REMARK>
 VINA RESULT:      -7.2      3.186      7.849
  Name = 
  13 active torsions:
  status: ('A' for Active; 'I' for Inactive)
    1  A    between atoms: C_1  and  C_27
    2  A    between atoms: C_3  and  C_22
    3  A    between atoms: N_6  and  C_21
    4  A    between atoms: C_7  and  C_9
    5  A    between atoms: C_15  and  C_25
    6  A    between atoms: C_15  and  C_36
    7  A    between atoms: C_16  and  C_21
    8  A    between atoms: C_16  and  C_25
    9  A    between atoms: C_18  and  C_32
   10  A    between atoms: N_20  and  C_26
   11  A    between atoms: C_22  and  C_34
   12  A    between atoms: C_25  and  C_35
   13  A    between atoms: N_30  and  C_36
                            x       y       z     vdW  Elec       q    Type
                         _______ _______ _______ _____ _____    ______ ____

>  <TORSDO>
F 13

$$$$
=
 OpenBabel11042412573D

 42 45  0  0  1  0  0  0  0  0999 V2000
  189.5840  177.1140  139.8290 C   0  0  1  0  0  3  0  0  0  0  0  0
  187.6540  178.3720  138.9380 C   0  0  0  0  0  3  0  0  0  0  0  0
  189.3180  177.5620  137.4080 N   0  0  0  0  0  0  0  0  0  0  0  0
  188.3610  177.9790  139.9980 C   0  0  0  0  0  3  0  0  0  0  0  0
  190.2850  177.4440  138.5030 C   0  0  2  0  0  3  0  0  0  0  0  0
  188.1140  178.0290  137.5810 C   0  0  0  0  0  0  0  0  0  0  0  0
  193.3490  174.5050  137.5550 C   0  0  0  0  0  0  0  0  0  0  0  0
  192.6760  176.6690  138.4940 C   0  0  0  0  0  3  0  0  0  0  0  0
  192.0010  174.2980  137.2250 C   0  0  0  0  0  0  0  0  0  0  0  0
  193.6730  175.7170  138.1960 C   0  0  0  0  0  3  0  0  0  0  0  0
  191.4480  173.2330  136.6240 N   0  0  0  0  0  0  0  0  0  0  0  0
  191.3330  176.4280  138.1580 C   0  0  0  0  0  0  0  0  0  0  0  0
  189.1040  172.6820  135.9690 C   0  0  0  0  0  1  0  0  0  0  0  0
  191.0350  175.2200  137.5150 C   0  0  0  0  0  0  0  0  0  0  0  0
  190.1340  173.5690  136.5700 C   0  0  0  0  0  0  0  0  0  0  0  0
  189.8340  174.7800  137.1040 N   0  0  0  0  0  2  0  0  0  0  0  0
  194.9190  172.8270  138.1880 O   0  0  0  0  0  1  0  0  0  0  0  0
  194.8500  173.3360  135.9610 O   0  0  0  0  0  0  0  0  0  0  0  0
  194.4070  173.5170  137.2650 C   0  0  0  0  0  0  0  0  0  0  0  0
  186.1190  177.5280  136.2320 C   0  0  0  0  0  3  0  0  0  0  0  0
  187.2060  178.1990  136.4820 N   0  0  0  0  0  0  0  0  0  0  0  0
  183.8840  174.8840  136.4710 C   0  0  0  0  0  2  0  0  0  0  0  0
  185.6100  176.3920  137.0650 C   0  0  1  0  0  3  0  0  0  0  0  0
  184.1230  176.3040  136.9220 C   0  0  0  0  0  2  0  0  0  0  0  0
  186.6150  174.2940  137.5370 F   0  0  0  0  0  0  0  0  0  0  0  0
  186.1170  175.0770  136.5090 C   0  0  1  0  0  3  0  0  0  0  0  0
  185.0600  174.4040  135.8730 O   0  0  0  0  0  0  0  0  0  0  0  0
  190.5390  177.3040  141.0030 C   0  0  0  0  0  2  0  0  0  0  0  0
  190.3350  175.5480  142.8580 C   0  0  0  0  0  1  0  0  0  0  0  0
  189.0510  177.6430  142.8690 N   0  0  0  0  0  0  0  0  0  0  0  0
  189.9160  176.8630  142.2870 C   0  0  0  0  0  0  0  0  0  0  0  0
  188.3540  177.4140  144.1040 C   0  0  0  0  0  0  0  0  0  0  0  0
  187.3340  176.6760  144.1620 O   0  0  0  0  0  0  0  0  0  0  0  0
  188.8530  178.0670  145.3460 C   0  0  0  0  0  2  0  0  0  0  0  0
  188.8890  177.0610  146.4940 C   0  0  2  0  0  3  0  0  0  0  0  0
  186.9230  178.3340  147.0260 O   0  0  0  0  0  1  0  0  0  0  0  0
  188.5230  178.0760  148.7560 C   0  0  0  0  0  1  0  0  0  0  0  0
  187.8510  177.4330  147.5530 C   0  0  2  0  0  3  0  0  0  0  0  0
  190.2880  177.0300  147.1080 C   0  0  0  0  0  2  0  0  0  0  0  0
  191.3640  176.8290  146.0540 C   0  0  0  0  0  2  0  0  0  0  0  0
  192.2330  175.7260  146.4280 N   0  0  0  0  0  2  0  0  0  0  0  0
  192.3610  175.7710  147.8720 C   0  0  0  0  0  1  0  0  0  0  0  0
  1  4  1  0  0  0  0
  1 28  1  1  0  0  0
  2  4  2  0  0  0  0
  3  6  2  0  0  0  0
  3  5  1  0  0  0  0
  5 12  1  6  0  0  0
  5  1  1  0  0  0  0
  6  2  1  0  0  0  0
  7 10  1  0  0  0  0
  9 14  1  0  0  0  0
  9  7  2  0  0  0  0
 10  8  2  0  0  0  0
 11  9  1  0  0  0  0
 12  8  1  0  0  0  0
 13 15  1  0  0  0  0
 14 12  2  0  0  0  0
 15 11  2  0  0  0  0
 15 16  1  0  0  0  0
 16 14  1  0  0  0  0
 18 19  2  0  0  0  0
 19  7  1  0  0  0  0
 19 17  1  0  0  0  0
 20 21  2  0  0  0  0
 21  6  1  0  0  0  0
 22 24  1  0  0  0  0
 23 20  1  6  0  0  0
 24 23  1  0  0  0  0
 26 23  1  0  0  0  0
 26 25  1  1  0  0  0
 27 22  1  0  0  0  0
 27 26  1  0  0  0  0
 28 31  1  0  0  0  0
 30 32  1  0  0  0  0
 31 29  1  0  0  0  0
 31 30  2  0  0  0  0
 32 33  2  0  0  0  0
 32 34  1  0  0  0  0
 35 34  1  6  0  0  0
 35 39  1  0  0  0  0
 35 38  1  0  0  0  0
 36 38  1  0  0  0  0
 38 37  1  1  0  0  0
 40 41  1  0  0  0  0
 40 39  1  0  0  0  0
 41 42  1  0  0  0  0
M  END
>  <MODEL>
4

>  <REMARK>
 VINA RESULT:      -7.2      3.785      7.723
  Name = 
  13 active torsions:
  status: ('A' for Active; 'I' for Inactive)
    1  A    between atoms: C_1  and  C_27
    2  A    between atoms: C_3  and  C_22
    3  A    between atoms: N_6  and  C_21
    4  A    between atoms: C_7  and  C_9
    5  A    between atoms: C_15  and  C_25
    6  A    between atoms: C_15  and  C_36
    7  A    between atoms: C_16  and  C_21
    8  A    between atoms: C_16  and  C_25
    9  A    between atoms: C_18  and  C_32
   10  A    between atoms: N_20  and  C_26
   11  A    between atoms: C_22  and  C_34
   12  A    between atoms: C_25  and  C_35
   13  A    between atoms: N_30  and  C_36
                            x       y       z     vdW  Elec       q    Type
                         _______ _______ _______ _____ _____    ______ ____

>  <TORSDO>
F 13

$$$$
=
 OpenBabel11042412573D

 42 45  0  0  1  0  0  0  0  0999 V2000
  187.5680  178.1150  141.3270 C   0  0  1  0  0  3  0  0  0  0  0  0
  185.3720  179.2400  141.4350 C   0  0  0  0  0  3  0  0  0  0  0  0
  186.2560  178.6220  139.2890 N   0  0  0  0  0  0  0  0  0  0  0  0
  186.4900  178.8700  142.0600 C   0  0  0  0  0  3  0  0  0  0  0  0
  187.6060  178.5460  139.8530 C   0  0  2  0  0  3  0  0  0  0  0  0
  185.2200  178.9830  139.9920 C   0  0  0  0  0  0  0  0  0  0  0  0
  190.0850  175.8570  137.4980 C   0  0  0  0  0  0  0  0  0  0  0  0
  189.6000  177.0380  139.5930 C   0  0  0  0  0  3  0  0  0  0  0  0
  188.9450  176.4730  136.9590 C   0  0  0  0  0  0  0  0  0  0  0  0
  190.4030  176.1590  138.8370 C   0  0  0  0  0  3  0  0  0  0  0  0
  188.4380  176.3400  135.7230 N   0  0  0  0  0  0  0  0  0  0  0  0
  188.4600  177.6320  139.0250 C   0  0  0  0  0  0  0  0  0  0  0  0
  186.4450  177.3290  134.5940 C   0  0  0  0  0  1  0  0  0  0  0  0
  188.1670  177.3230  137.6920 C   0  0  0  0  0  0  0  0  0  0  0  0
  187.3450  177.1440  135.7620 C   0  0  0  0  0  0  0  0  0  0  0  0
  187.1390  177.7680  136.9500 N   0  0  0  0  0  2  0  0  0  0  0  0
  191.9190  175.3440  136.0660 O   0  0  0  0  0  0  0  0  0  0  0  0
  190.6520  173.5640  136.7360 O   0  0  0  0  0  1  0  0  0  0  0  0
  190.9330  174.9240  136.7310 C   0  0  0  0  0  0  0  0  0  0  0  0
  183.1470  178.1700  138.9440 C   0  0  0  0  0  3  0  0  0  0  0  0
  183.9170  179.1150  139.4020 N   0  0  0  0  0  0  0  0  0  0  0  0
  182.1190  174.9430  138.1880 C   0  0  0  0  0  2  0  0  0  0  0  0
  183.5050  176.7160  138.9240 C   0  0  1  0  0  3  0  0  0  0  0  0
  182.3120  175.9100  139.3310 C   0  0  0  0  0  2  0  0  0  0  0  0
  184.9580  175.5370  137.4640 F   0  0  0  0  0  0  0  0  0  0  0  0
  183.7870  176.2740  137.5020 C   0  0  1  0  0  3  0  0  0  0  0  0
  182.7190  175.4860  137.0410 O   0  0  0  0  0  0  0  0  0  0  0  0
  188.9240  178.3410  141.9880 C   0  0  0  0  0  2  0  0  0  0  0  0
  188.5670  176.0650  143.1100 C   0  0  0  0  0  1  0  0  0  0  0  0
  189.7300  177.9230  144.2200 N   0  0  0  0  0  0  0  0  0  0  0  0
  189.1020  177.4580  143.1780 C   0  0  0  0  0  0  0  0  0  0  0  0
  190.0160  177.2390  145.4510 C   0  0  0  0  0  0  0  0  0  0  0  0
  191.1980  177.0130  145.8230 O   0  0  0  0  0  0  0  0  0  0  0  0
  188.8830  176.7890  146.3060 C   0  0  0  0  0  2  0  0  0  0  0  0
  187.9470  177.9580  146.6020 C   0  0  2  0  0  3  0  0  0  0  0  0
  189.3870  178.6430  148.3980 O   0  0  0  0  0  1  0  0  0  0  0  0
  187.5630  177.2420  148.9730 C   0  0  0  0  0  1  0  0  0  0  0  0
  188.0580  178.3630  148.0720 C   0  0  2  0  0  3  0  0  0  0  0  0
  186.5090  177.5660  146.2660 C   0  0  0  0  0  2  0  0  0  0  0  0
  185.7810  178.6730  145.5210 C   0  0  0  0  0  2  0  0  0  0  0  0
  184.4130  178.7820  145.9980 N   0  0  0  0  0  2  0  0  0  0  0  0
  183.6010  179.1400  144.8500 C   0  0  0  0  0  1  0  0  0  0  0  0
  1 28  1  1  0  0  0
  1  4  1  0  0  0  0
  2  4  2  0  0  0  0
  3  5  1  0  0  0  0
  3  6  2  0  0  0  0
  5 12  1  6  0  0  0
  5  1  1  0  0  0  0
  6  2  1  0  0  0  0
  7 10  1  0  0  0  0
  9  7  2  0  0  0  0
  9 14  1  0  0  0  0
 10  8  2  0  0  0  0
 11 15  2  0  0  0  0
 11  9  1  0  0  0  0
 12  8  1  0  0  0  0
 13 15  1  0  0  0  0
 14 12  2  0  0  0  0
 15 16  1  0  0  0  0
 16 14  1  0  0  0  0
 17 19  2  0  0  0  0
 19 18  1  0  0  0  0
 19  7  1  0  0  0  0
 20 21  2  0  0  0  0
 21  6  1  0  0  0  0
 22 24  1  0  0  0  0
 23 20  1  6  0  0  0
 23 24  1  0  0  0  0
 26 25  1  1  0  0  0
 26 23  1  0  0  0  0
 27 26  1  0  0  0  0
 27 22  1  0  0  0  0
 28 31  1  0  0  0  0
 29 31  1  0  0  0  0
 30 32  1  0  0  0  0
 31 30  2  0  0  0  0
 32 33  2  0  0  0  0
 32 34  1  0  0  0  0
 34 35  1  0  0  0  0
 35 39  1  1  0  0  0
 35 38  1  0  0  0  0
 38 36  1  0  0  0  0
 38 37  1  1  0  0  0
 40 41  1  0  0  0  0
 40 39  1  0  0  0  0
 42 41  1  0  0  0  0
M  END
>  <MODEL>
5

>  <REMARK>
 VINA RESULT:      -6.8      2.460      6.622
  Name = 
  13 active torsions:
  status: ('A' for Active; 'I' for Inactive)
    1  A    between atoms: C_1  and  C_27
    2  A    between atoms: C_3  and  C_22
    3  A    between atoms: N_6  and  C_21
    4  A    between atoms: C_7  and  C_9
    5  A    between atoms: C_15  and  C_25
    6  A    between atoms: C_15  and  C_36
    7  A    between atoms: C_16  and  C_21
    8  A    between atoms: C_16  and  C_25
    9  A    between atoms: C_18  and  C_32
   10  A    between atoms: N_20  and  C_26
   11  A    between atoms: C_22  and  C_34
   12  A    between atoms: C_25  and  C_35
   13  A    between atoms: N_30  and  C_36
                            x       y       z     vdW  Elec       q    Type
                         _______ _______ _______ _____ _____    ______ ____

>  <TORSDO>
F 13

$$$$
=
 OpenBabel11042412573D

 42 45  0  0  1  0  0  0  0  0999 V2000
  189.0730  177.5830  141.2960 C   0  0  1  0  0  3  0  0  0  0  0  0
  187.2890  178.3030  139.7460 C   0  0  0  0  0  3  0  0  0  0  0  0
  186.8050  178.1780  142.0950 N   0  0  0  0  0  0  0  0  0  0  0  0
  188.5020  177.7770  139.9140 C   0  0  0  0  0  3  0  0  0  0  0  0
  187.9460  177.2790  142.2940 C   0  0  2  0  0  3  0  0  0  0  0  0
  186.4600  178.6250  140.9210 C   0  0  0  0  0  0  0  0  0  0  0  0
  189.3730  177.5410  146.3950 C   0  0  0  0  0  0  0  0  0  0  0  0
  189.7840  177.1690  144.0050 C   0  0  0  0  0  3  0  0  0  0  0  0
  188.0190  177.7160  146.0720 C   0  0  0  0  0  0  0  0  0  0  0  0
  190.2540  177.2600  145.3310 C   0  0  0  0  0  3  0  0  0  0  0  0
  186.9990  177.9950  146.8990 N   0  0  0  0  0  0  0  0  0  0  0  0
  188.4220  177.3580  143.7140 C   0  0  0  0  0  0  0  0  0  0  0  0
  184.5580  178.3480  146.5210 C   0  0  0  0  0  1  0  0  0  0  0  0
  187.5640  177.6290  144.7870 C   0  0  0  0  0  0  0  0  0  0  0  0
  185.9390  178.0610  146.0540 C   0  0  0  0  0  0  0  0  0  0  0  0
  186.2390  177.8430  144.7480 N   0  0  0  0  0  2  0  0  0  0  0  0
  189.2200  178.2160  148.6750 O   0  0  0  0  0  1  0  0  0  0  0  0
  191.1300  177.1050  148.0930 O   0  0  0  0  0  0  0  0  0  0  0  0
  189.8900  177.6440  147.7730 C   0  0  0  0  0  0  0  0  0  0  0  0
  184.1920  179.1500  140.1260 C   0  0  0  0  0  3  0  0  0  0  0  0
  185.2990  179.4510  140.7400 N   0  0  0  0  0  0  0  0  0  0  0  0
  181.8100  176.8190  139.1580 C   0  0  0  0  0  2  0  0  0  0  0  0
  183.9260  177.8440  139.4440 C   0  0  1  0  0  3  0  0  0  0  0  0
  182.8670  177.1010  140.1970 C   0  0  0  0  0  2  0  0  0  0  0  0
  183.9510  177.3140  137.1300 F   0  0  0  0  0  0  0  0  0  0  0  0
  183.3100  178.0900  138.0810 C   0  0  1  0  0  3  0  0  0  0  0  0
  181.9460  177.7560  138.1210 O   0  0  0  0  0  0  0  0  0  0  0  0
  190.1070  176.4630  141.2940 C   0  0  0  0  0  2  0  0  0  0  0  0
  192.2360  177.5050  140.3220 C   0  0  0  0  0  1  0  0  0  0  0  0
  190.8410  175.9220  139.0640 N   0  0  0  0  0  0  0  0  0  0  0  0
  191.0580  176.6020  140.1520 C   0  0  0  0  0  0  0  0  0  0  0  0
  191.6340  175.9040  137.8660 C   0  0  0  0  0  0  0  0  0  0  0  0
  192.7710  175.3620  137.8330 O   0  0  0  0  0  0  0  0  0  0  0  0
  191.0940  176.5410  136.6330 C   0  0  0  0  0  2  0  0  0  0  0  0
  189.7100  175.9820  136.3120 C   0  0  2  0  0  3  0  0  0  0  0  0
  189.1090  173.9520  135.1780 O   0  0  0  0  0  1  0  0  0  0  0  0
  191.1940  174.9190  134.5940 C   0  0  0  0  0  1  0  0  0  0  0  0
  189.7540  175.1790  135.0120 C   0  0  2  0  0  3  0  0  0  0  0  0
  188.7050  177.1270  136.1970 C   0  0  0  0  0  2  0  0  0  0  0  0
  187.2730  176.6190  136.1540 C   0  0  0  0  0  2  0  0  0  0  0  0
  187.0400  175.6830  137.2390 N   0  0  0  0  0  2  0  0  0  0  0  0
  185.9650  174.8090  136.8090 C   0  0  0  0  0  1  0  0  0  0  0  0
  1 28  1  6  0  0  0
  1  5  1  0  0  0  0
  2  4  2  0  0  0  0
  2  6  1  0  0  0  0
  3  5  1  0  0  0  0
  4  1  1  0  0  0  0
  5 12  1  1  0  0  0
  6  3  2  0  0  0  0
  7 19  1  0  0  0  0
  8 10  1  0  0  0  0
  9  7  1  0  0  0  0
  9 11  1  0  0  0  0
 10  7  2  0  0  0  0
 12  8  2  0  0  0  0
 12 14  1  0  0  0  0
 14  9  2  0  0  0  0
 15 13  1  0  0  0  0
 15 11  2  0  0  0  0
 16 14  1  0  0  0  0
 16 15  1  0  0  0  0
 19 18  2  0  0  0  0
 19 17  1  0  0  0  0
 20 21  2  0  0  0  0
 21  6  1  0  0  0  0
 22 24  1  0  0  0  0
 23 20  1  1  0  0  0
 23 24  1  0  0  0  0
 26 25  1  6  0  0  0
 26 27  1  0  0  0  0
 26 23  1  0  0  0  0
 27 22  1  0  0  0  0
 30 31  2  0  0  0  0
 31 29  1  0  0  0  0
 31 28  1  0  0  0  0
 32 30  1  0  0  0  0
 33 32  2  0  0  0  0
 34 32  1  0  0  0  0
 35 39  1  6  0  0  0
 35 34  1  0  0  0  0
 38 37  1  1  0  0  0
 38 36  1  0  0  0  0
 38 35  1  0  0  0  0
 40 39  1  0  0  0  0
 40 41  1  0  0  0  0
 42 41  1  0  0  0  0
M  END
>  <MODEL>
6

>  <REMARK>
 VINA RESULT:      -6.7      2.620      9.154
  Name = 
  13 active torsions:
  status: ('A' for Active; 'I' for Inactive)
    1  A    between atoms: C_1  and  C_27
    2  A    between atoms: C_3  and  C_22
    3  A    between atoms: N_6  and  C_21
    4  A    between atoms: C_7  and  C_9
    5  A    between atoms: C_15  and  C_25
    6  A    between atoms: C_15  and  C_36
    7  A    between atoms: C_16  and  C_21
    8  A    between atoms: C_16  and  C_25
    9  A    between atoms: C_18  and  C_32
   10  A    between atoms: N_20  and  C_26
   11  A    between atoms: C_22  and  C_34
   12  A    between atoms: C_25  and  C_35
   13  A    between atoms: N_30  and  C_36
                            x       y       z     vdW  Elec       q    Type
                         _______ _______ _______ _____ _____    ______ ____

>  <TORSDO>
F 13

$$$$
=
 OpenBabel11042412573D

 42 45  0  0  1  0  0  0  0  0999 V2000
  184.8180  178.3560  140.1060 C   0  0  1  0  0  3  0  0  0  0  0  0
  182.5150  178.6230  139.2540 C   0  0  0  0  0  3  0  0  0  0  0  0
  184.2730  178.1000  137.7040 N   0  0  0  0  0  0  0  0  0  0  0  0
  183.3740  178.7590  140.2640 C   0  0  0  0  0  3  0  0  0  0  0  0
  185.2750  178.5850  138.6580 C   0  0  2  0  0  3  0  0  0  0  0  0
  182.9930  178.1500  137.9430 C   0  0  0  0  0  0  0  0  0  0  0  0
  189.1370  176.7260  137.9170 C   0  0  0  0  0  0  0  0  0  0  0  0
  187.7680  178.4800  138.9500 C   0  0  0  0  0  3  0  0  0  0  0  0
  187.9540  176.2190  137.3570 C   0  0  0  0  0  0  0  0  0  0  0  0
  189.0220  177.8780  138.7200 C   0  0  0  0  0  3  0  0  0  0  0  0
  187.8050  175.1410  136.5720 N   0  0  0  0  0  0  0  0  0  0  0  0
  186.6010  177.9420  138.3820 C   0  0  0  0  0  0  0  0  0  0  0  0
  185.8120  174.0860  135.5010 C   0  0  0  0  0  1  0  0  0  0  0  0
  186.7390  176.8020  137.5820 C   0  0  0  0  0  0  0  0  0  0  0  0
  186.4660  175.1210  136.3440 C   0  0  0  0  0  0  0  0  0  0  0  0
  185.7730  176.1210  136.9440 N   0  0  0  0  0  2  0  0  0  0  0  0
  191.1520  176.3960  136.6870 O   0  0  0  0  0  0  0  0  0  0  0  0
  190.9560  175.1900  138.6190 O   0  0  0  0  0  1  0  0  0  0  0  0
  190.4580  176.1060  137.7000 C   0  0  0  0  0  0  0  0  0  0  0  0
  181.4290  176.5790  136.8760 C   0  0  0  0  0  3  0  0  0  0  0  0
  182.0270  177.7320  136.9660 N   0  0  0  0  0  0  0  0  0  0  0  0
  180.6520  173.2880  137.6570 C   0  0  0  0  0  2  0  0  0  0  0  0
  181.6700  175.4220  137.7950 C   0  0  1  0  0  3  0  0  0  0  0  0
  180.3740  174.7180  138.0520 C   0  0  0  0  0  2  0  0  0  0  0  0
  183.5470  173.9770  137.9470 F   0  0  0  0  0  0  0  0  0  0  0  0
  182.5280  174.3820  137.1020 C   0  0  1  0  0  3  0  0  0  0  0  0
  181.7310  173.2770  136.7600 O   0  0  0  0  0  0  0  0  0  0  0  0
  185.6990  179.1340  141.0770 C   0  0  0  0  0  2  0  0  0  0  0  0
  184.9700  178.1020  143.3060 C   0  0  0  0  0  1  0  0  0  0  0  0
  187.2290  177.8090  142.3860 N   0  0  0  0  0  0  0  0  0  0  0  0
  186.0350  178.3170  142.2810 C   0  0  0  0  0  0  0  0  0  0  0  0
  187.7460  176.9910  143.4480 C   0  0  0  0  0  0  0  0  0  0  0  0
  188.0220  175.7740  143.2720 O   0  0  0  0  0  0  0  0  0  0  0  0
  187.9590  177.6010  144.7900 C   0  0  0  0  0  2  0  0  0  0  0  0
  189.4100  177.4140  145.2300 C   0  0  2  0  0  3  0  0  0  0  0  0
  190.3230  176.5340  147.2700 O   0  0  0  0  0  1  0  0  0  0  0  0
  188.1460  177.4660  147.3950 C   0  0  0  0  0  1  0  0  0  0  0  0
  189.5210  177.5520  146.7490 C   0  0  2  0  0  3  0  0  0  0  0  0
  190.2970  178.4460  144.5360 C   0  0  0  0  0  2  0  0  0  0  0  0
  191.6250  177.8470  144.1000 C   0  0  0  0  0  2  0  0  0  0  0  0
  191.3990  176.7180  143.2130 N   0  0  0  0  0  2  0  0  0  0  0  0
  191.1920  177.2680  141.8870 C   0  0  0  0  0  1  0  0  0  0  0  0
  1  4  1  0  0  0  0
  1 28  1  1  0  0  0
  2  4  2  0  0  0  0
  3  6  2  0  0  0  0
  3  5  1  0  0  0  0
  5 12  1  6  0  0  0
  5  1  1  0  0  0  0
  6  2  1  0  0  0  0
  7 10  1  0  0  0  0
  9 14  1  0  0  0  0
  9  7  2  0  0  0  0
 10  8  2  0  0  0  0
 11  9  1  0  0  0  0
 12  8  1  0  0  0  0
 13 15  1  0  0  0  0
 14 12  2  0  0  0  0
 15 11  2  0  0  0  0
 15 16  1  0  0  0  0
 16 14  1  0  0  0  0
 17 19  2  0  0  0  0
 19  7  1  0  0  0  0
 19 18  1  0  0  0  0
 20 21  2  0  0  0  0
 21  6  1  0  0  0  0
 22 24  1  0  0  0  0
 23 20  1  6  0  0  0
 23 24  1  0  0  0  0
 26 23  1  0  0  0  0
 26 25  1  1  0  0  0
 27 26  1  0  0  0  0
 27 22  1  0  0  0  0
 28 31  1  0  0  0  0
 30 32  1  0  0  0  0
 31 30  2  0  0  0  0
 31 29  1  0  0  0  0
 32 34  1  0  0  0  0
 33 32  2  0  0  0  0
 34 35  1  0  0  0  0
 35 39  1  6  0  0  0
 35 38  1  0  0  0  0
 38 36  1  0  0  0  0
 38 37  1  1  0  0  0
 40 39  1  0  0  0  0
 41 40  1  0  0  0  0
 42 41  1  0  0  0  0
M  END
>  <MODEL>
7

>  <REMARK>
 VINA RESULT:      -6.7      2.827      6.310
  Name = 
  13 active torsions:
  status: ('A' for Active; 'I' for Inactive)
    1  A    between atoms: C_1  and  C_27
    2  A    between atoms: C_3  and  C_22
    3  A    between atoms: N_6  and  C_21
    4  A    between atoms: C_7  and  C_9
    5  A    between atoms: C_15  and  C_25
    6  A    between atoms: C_15  and  C_36
    7  A    between atoms: C_16  and  C_21
    8  A    between atoms: C_16  and  C_25
    9  A    between atoms: C_18  and  C_32
   10  A    between atoms: N_20  and  C_26
   11  A    between atoms: C_22  and  C_34
   12  A    between atoms: C_25  and  C_35
   13  A    between atoms: N_30  and  C_36
                            x       y       z     vdW  Elec       q    Type
                         _______ _______ _______ _____ _____    ______ ____

>  <TORSDO>
F 13

$$$$
=
 OpenBabel11042412573D

 42 45  0  0  1  0  0  0  0  0999 V2000
  184.8560  178.6230  140.3920 C   0  0  1  0  0  3  0  0  0  0  0  0
  185.1170  179.3640  142.7340 C   0  0  0  0  0  3  0  0  0  0  0  0
  182.9850  178.5280  142.0110 N   0  0  0  0  0  0  0  0  0  0  0  0
  185.6180  179.3050  141.5000 C   0  0  0  0  0  3  0  0  0  0  0  0
  183.3450  178.7830  140.6130 C   0  0  2  0  0  3  0  0  0  0  0  0
  183.7710  178.8310  143.0060 C   0  0  0  0  0  0  0  0  0  0  0  0
  181.0210  176.1660  138.0310 C   0  0  0  0  0  0  0  0  0  0  0  0
  182.5800  176.5000  139.8960 C   0  0  0  0  0  3  0  0  0  0  0  0
  181.0210  177.5590  137.8630 C   0  0  0  0  0  0  0  0  0  0  0  0
  181.8230  175.6460  139.0670 C   0  0  0  0  0  3  0  0  0  0  0  0
  180.3400  178.2840  136.9610 N   0  0  0  0  0  0  0  0  0  0  0  0
  182.5500  177.8920  139.7060 C   0  0  0  0  0  0  0  0  0  0  0  0
  180.2010  180.7360  136.5150 C   0  0  0  0  0  1  0  0  0  0  0  0
  181.7530  178.3850  138.6670 C   0  0  0  0  0  0  0  0  0  0  0  0
  180.7060  179.5560  137.2650 C   0  0  0  0  0  0  0  0  0  0  0  0
  181.5720  179.6660  138.3040 N   0  0  0  0  0  2  0  0  0  0  0  0
  179.1760  174.7140  137.6220 O   0  0  0  0  0  1  0  0  0  0  0  0
  180.6340  174.9830  135.8830 O   0  0  0  0  0  0  0  0  0  0  0  0
  180.2280  175.2540  137.1840 C   0  0  0  0  0  0  0  0  0  0  0  0
  184.1220  178.6260  145.4320 C   0  0  0  0  0  3  0  0  0  0  0  0
  183.3690  178.6340  144.3700 N   0  0  0  0  0  0  0  0  0  0  0  0
  187.0830  178.3560  147.2200 C   0  0  0  0  0  2  0  0  0  0  0  0
  185.6090  178.8000  145.4220 C   0  0  1  0  0  3  0  0  0  0  0  0
  186.0500  179.3470  146.7430 C   0  0  0  0  0  2  0  0  0  0  0  0
  187.2780  177.4830  144.3680 F   0  0  0  0  0  0  0  0  0  0  0  0
  186.2860  177.4470  145.3330 C   0  0  1  0  0  3  0  0  0  0  0  0
  186.8520  177.1290  146.5790 O   0  0  0  0  0  0  0  0  0  0  0  0
  185.2640  179.1880  139.0360 C   0  0  0  0  0  2  0  0  0  0  0  0
  185.6800  177.1150  137.5900 C   0  0  0  0  0  1  0  0  0  0  0  0
  187.4990  178.5600  138.3900 N   0  0  0  0  0  0  0  0  0  0  0  0
  186.2270  178.2860  138.3380 C   0  0  0  0  0  0  0  0  0  0  0  0
  188.5800  177.8340  137.7810 C   0  0  0  0  0  0  0  0  0  0  0  0
  188.9100  178.0230  136.5800 O   0  0  0  0  0  0  0  0  0  0  0  0
  189.3260  176.8350  138.5960 C   0  0  0  0  0  2  0  0  0  0  0  0
  190.8270  177.0980  138.5080 C   0  0  2  0  0  3  0  0  0  0  0  0
  191.0580  174.7520  138.0490 O   0  0  0  0  0  1  0  0  0  0  0  0
  193.0140  176.0740  137.8350 C   0  0  0  0  0  1  0  0  0  0  0  0
  191.5040  176.0180  137.6630 C   0  0  2  0  0  3  0  0  0  0  0  0
  191.4280  177.1280  139.9130 C   0  0  0  0  0  2  0  0  0  0  0  0
  190.3570  177.2650  140.9830 C   0  0  0  0  0  2  0  0  0  0  0  0
  190.8600  176.7910  142.2600 N   0  0  0  0  0  2  0  0  0  0  0  0
  189.8100  175.9790  142.8440 C   0  0  0  0  0  1  0  0  0  0  0  0
  1 28  1  6  0  0  0
  1  5  1  0  0  0  0
  1  4  1  0  0  0  0
  2  6  1  0  0  0  0
  3  6  2  0  0  0  0
  4  2  2  0  0  0  0
  5 12  1  6  0  0  0
  5  3  1  0  0  0  0
  6 21  1  0  0  0  0
  7 10  1  0  0  0  0
  9  7  2  0  0  0  0
  9 14  1  0  0  0  0
 10  8  2  0  0  0  0
 11 15  2  0  0  0  0
 11  9  1  0  0  0  0
 12  8  1  0  0  0  0
 13 15  1  0  0  0  0
 14 12  2  0  0  0  0
 15 16  1  0  0  0  0
 16 14  1  0  0  0  0
 18 19  2  0  0  0  0
 19 17  1  0  0  0  0
 19  7  1  0  0  0  0
 21 20  2  0  0  0  0
 23 20  1  1  0  0  0
 23 24  1  0  0  0  0
 24 22  1  0  0  0  0
 26 25  1  6  0  0  0
 26 23  1  0  0  0  0
 26 27  1  0  0  0  0
 27 22  1  0  0  0  0
 29 31  1  0  0  0  0
 31 30  2  0  0  0  0
 31 28  1  0  0  0  0
 32 30  1  0  0  0  0
 32 34  1  0  0  0  0
 33 32  2  0  0  0  0
 35 34  1  1  0  0  0
 35 39  1  0  0  0  0
 38 37  1  1  0  0  0
 38 36  1  0  0  0  0
 38 35  1  0  0  0  0
 39 40  1  0  0  0  0
 40 41  1  0  0  0  0
 41 42  1  0  0  0  0
M  END
>  <MODEL>
8

>  <REMARK>
 VINA RESULT:      -6.6      2.218      6.546
  Name = 
  13 active torsions:
  status: ('A' for Active; 'I' for Inactive)
    1  A    between atoms: C_1  and  C_27
    2  A    between atoms: C_3  and  C_22
    3  A    between atoms: N_6  and  C_21
    4  A    between atoms: C_7  and  C_9
    5  A    between atoms: C_15  and  C_25
    6  A    between atoms: C_15  and  C_36
    7  A    between atoms: C_16  and  C_21
    8  A    between atoms: C_16  and  C_25
    9  A    between atoms: C_18  and  C_32
   10  A    between atoms: N_20  and  C_26
   11  A    between atoms: C_22  and  C_34
   12  A    between atoms: C_25  and  C_35
   13  A    between atoms: N_30  and  C_36
                            x       y       z     vdW  Elec       q    Type
                         _______ _______ _______ _____ _____    ______ ____

>  <TORSDO>
F 13

$$$$
=
 OpenBabel11042412573D

 42 45  0  0  1  0  0  0  0  0999 V2000
  189.0730  177.6960  139.4580 C   0  0  1  0  0  3  0  0  0  0  0  0
  188.5360  178.5210  141.7240 C   0  0  0  0  0  3  0  0  0  0  0  0
  190.6480  177.4380  141.3520 N   0  0  0  0  0  0  0  0  0  0  0  0
  188.1210  178.2520  140.4860 C   0  0  0  0  0  3  0  0  0  0  0  0
  190.1230  176.8060  140.1380 C   0  0  2  0  0  3  0  0  0  0  0  0
  189.9180  178.1970  142.1210 C   0  0  0  0  0  0  0  0  0  0  0  0
  193.4280  175.8070  137.4920 C   0  0  0  0  0  0  0  0  0  0  0  0
  192.4880  177.1120  139.3450 C   0  0  0  0  0  3  0  0  0  0  0  0
  192.1770  175.1830  137.3780 C   0  0  0  0  0  0  0  0  0  0  0  0
  193.5660  176.7870  138.4960 C   0  0  0  0  0  3  0  0  0  0  0  0
  191.8050  174.2250  136.5150 N   0  0  0  0  0  0  0  0  0  0  0  0
  191.2500  176.4620  139.2100 C   0  0  0  0  0  0  0  0  0  0  0  0
  189.6600  172.9980  136.1660 C   0  0  0  0  0  1  0  0  0  0  0  0
  191.1340  175.4970  138.2020 C   0  0  0  0  0  0  0  0  0  0  0  0
  190.5120  173.9970  136.8620 C   0  0  0  0  0  0  0  0  0  0  0  0
  190.0570  174.7550  137.8920 N   0  0  0  0  0  2  0  0  0  0  0  0
  195.0660  176.3350  135.8430 O   0  0  0  0  0  0  0  0  0  0  0  0
  195.1280  174.2020  136.6590 O   0  0  0  0  0  1  0  0  0  0  0  0
  194.5740  175.4750  136.6230 C   0  0  0  0  0  0  0  0  0  0  0  0
  190.1780  178.3760  144.5600 C   0  0  0  0  0  3  0  0  0  0  0  0
  190.4330  178.7510  143.3410 N   0  0  0  0  0  0  0  0  0  0  0  0
  188.3160  176.8740  147.0740 C   0  0  0  0  0  2  0  0  0  0  0  0
  189.2410  177.2680  144.9310 C   0  0  1  0  0  3  0  0  0  0  0  0
  189.6000  176.7530  146.2900 C   0  0  0  0  0  2  0  0  0  0  0  0
  186.9380  177.0030  144.4250 F   0  0  0  0  0  0  0  0  0  0  0  0
  187.8370  177.8140  145.0960 C   0  0  1  0  0  3  0  0  0  0  0  0
  187.5110  177.8480  146.4630 O   0  0  0  0  0  0  0  0  0  0  0  0
  188.3130  176.9130  138.3940 C   0  0  0  0  0  2  0  0  0  0  0  0
  187.3300  178.8320  137.0100 C   0  0  0  0  0  1  0  0  0  0  0  0
  185.9320  177.2710  138.2910 N   0  0  0  0  0  0  0  0  0  0  0  0
  187.1150  177.6660  137.9170 C   0  0  0  0  0  0  0  0  0  0  0  0
  184.6620  177.8420  137.9370 C   0  0  0  0  0  0  0  0  0  0  0  0
  184.0650  177.5230  136.8750 O   0  0  0  0  0  0  0  0  0  0  0  0
  184.0390  178.8370  138.8540 C   0  0  0  0  0  2  0  0  0  0  0  0
  183.8350  178.2240  140.2380 C   0  0  2  0  0  3  0  0  0  0  0  0
  181.7440  177.0420  140.2170 O   0  0  0  0  0  1  0  0  0  0  0  0
  181.6400  179.3910  139.9150 C   0  0  0  0  0  1  0  0  0  0  0  0
  182.3510  178.2380  140.6070 C   0  0  2  0  0  3  0  0  0  0  0  0
  184.6470  179.0030  141.2710 C   0  0  0  0  0  2  0  0  0  0  0  0
  184.5210  178.3980  142.6610 C   0  0  0  0  0  2  0  0  0  0  0  0
  184.2720  179.4410  143.6410 N   0  0  0  0  0  2  0  0  0  0  0  0
  184.1280  178.7790  144.9230 C   0  0  0  0  0  1  0  0  0  0  0  0
  1 28  1  6  0  0  0
  1  5  1  0  0  0  0
  1  4  1  0  0  0  0
  2  6  1  0  0  0  0
  3  6  2  0  0  0  0
  4  2  2  0  0  0  0
  5 12  1  6  0  0  0
  5  3  1  0  0  0  0
  6 21  1  0  0  0  0
  7 10  1  0  0  0  0
  9  7  2  0  0  0  0
  9 14  1  0  0  0  0
 10  8  2  0  0  0  0
 11 15  2  0  0  0  0
 11  9  1  0  0  0  0
 12  8  1  0  0  0  0
 13 15  1  0  0  0  0
 14 12  2  0  0  0  0
 15 16  1  0  0  0  0
 16 14  1  0  0  0  0
 17 19  2  0  0  0  0
 19 18  1  0  0  0  0
 19  7  1  0  0  0  0
 21 20  2  0  0  0  0
 23 20  1  1  0  0  0
 23 26  1  0  0  0  0
 23 24  1  0  0  0  0
 24 22  1  0  0  0  0
 26 25  1  6  0  0  0
 26 27  1  0  0  0  0
 27 22  1  0  0  0  0
 29 31  1  0  0  0  0
 31 30  2  0  0  0  0
 31 28  1  0  0  0  0
 32 30  1  0  0  0  0
 32 34  1  0  0  0  0
 33 32  2  0  0  0  0
 35 34  1  6  0  0  0
 35 38  1  0  0  0  0
 35 39  1  0  0  0  0
 36 38  1  0  0  0  0
 38 37  1  6  0  0  0
 39 40  1  0  0  0  0
 40 41  1  0  0  0  0
 41 42  1  0  0  0  0
M  END
>  <MODEL>
9

>  <REMARK>
 VINA RESULT:      -6.6      2.529      8.920
  Name = 
  13 active torsions:
  status: ('A' for Active; 'I' for Inactive)
    1  A    between atoms: C_1  and  C_27
    2  A    between atoms: C_3  and  C_22
    3  A    between atoms: N_6  and  C_21
    4  A    between atoms: C_7  and  C_9
    5  A    between atoms: C_15  and  C_25
    6  A    between atoms: C_15  and  C_36
    7  A    between atoms: C_16  and  C_21
    8  A    between atoms: C_16  and  C_25
    9  A    between atoms: C_18  and  C_32
   10  A    between atoms: N_20  and  C_26
   11  A    between atoms: C_22  and  C_34
   12  A    between atoms: C_25  and  C_35
   13  A    between atoms: N_30  and  C_36
                            x       y       z     vdW  Elec       q    Type
                         _______ _______ _______ _____ _____    ______ ____

>  <TORSDO>
F 13

$$$$
