=
 OpenBabel11032421103D

 34 36  0  0  1  0  0  0  0  0999 V2000
  181.7120  177.5060  140.5210 C   0  0  0  0  0  1  0  0  0  0  0  0
  184.4760  179.2930  139.6370 N   0  0  0  0  0  0  0  0  0  0  0  0
  183.7020  178.8900  140.7480 N   0  0  0  0  0  0  0  0  0  0  0  0
  182.1630  179.5290  139.2010 C   0  0  0  0  0  0  0  0  0  0  0  0
  182.2650  178.9230  140.5370 C   0  0  1  0  0  3  0  0  0  0  0  0
  181.0030  179.8150  138.6010 C   0  0  0  0  0  3  0  0  0  0  0  0
  183.5170  179.7560  138.6320 C   0  0  0  0  0  2  0  0  0  0  0  0
  183.4980  179.0040  143.2080 C   0  0  0  0  0  3  0  0  0  0  0  0
  186.1920  178.3550  143.4960 C   0  0  0  0  0  3  0  0  0  0  0  0
  184.0510  178.9060  144.4880 C   0  0  0  0  0  0  0  0  0  0  0  0
  185.4170  178.5760  144.6450 C   0  0  0  0  0  0  0  0  0  0  0  0
  183.2320  179.1380  145.5860 O   0  0  0  0  0  1  0  0  0  0  0  0
  184.2770  178.7790  142.0650 C   0  0  0  0  0  0  0  0  0  0  0  0
  185.6300  178.4560  142.2230 C   0  0  0  0  0  3  0  0  0  0  0  0
  187.0900  177.4170  146.2450 C   0  0  0  0  0  1  0  0  0  0  0  0
  186.0550  178.4590  145.9800 C   0  0  0  0  0  0  0  0  0  0  0  0
  185.7390  179.2370  146.9190 O   0  0  0  0  0  0  0  0  0  0  0  0
  180.8810  180.4660  137.2790 C   0  0  0  0  0  0  0  0  0  0  0  0
  180.8320  179.7690  136.1360 C   0  0  0  0  0  3  0  0  0  0  0  0
  180.9040  181.9390  137.2230 C   0  0  0  0  0  0  0  0  0  0  0  0
  181.5270  182.6070  138.0920 O   0  0  0  0  0  1  0  0  0  0  0  0
  180.2390  182.6090  136.2030 O   0  0  0  0  0  0  0  0  0  0  0  0
  182.2930  177.8630  135.6230 C   0  0  0  0  0  1  0  0  0  0  0  0
  180.9050  178.2800  136.0570 C   0  0  0  0  0  2  0  0  0  0  0  0
  185.1080  178.1010  139.0820 C   0  0  0  0  0  2  0  0  0  0  0  0
  186.0470  178.4770  137.9480 C   0  0  0  0  0  2  0  0  0  0  0  0
  187.2560  177.5590  137.9370 C   0  0  0  0  0  2  0  0  0  0  0  0
  188.7120  178.4790  139.8230 C   0  0  0  0  0  2  0  0  0  0  0  0
  189.6950  177.9370  137.6260 O   0  0  0  0  0  0  0  0  0  0  0  0
  189.9000  176.5590  137.8300 C   0  0  0  0  0  2  0  0  0  0  0  0
  190.5750  177.1140  140.2230 C   0  0  0  0  0  2  0  0  0  0  0  0
  189.1360  177.2230  140.4310 N   0  0  0  0  0  2  0  0  0  0  0  0
  190.8910  176.3060  138.9640 C   0  0  0  0  0  2  0  0  0  0  0  0
  188.5170  178.3430  138.3070 C   0  0  1  0  0  3  0  0  0  0  0  0
  2  3  1  0  0  0  0
  3 13  1  0  0  0  0
  4  5  1  0  0  0  0
  5  1  1  6  0  0  0
  5  3  1  0  0  0  0
  6  4  2  0  0  0  0
  7  4  1  0  0  0  0
  7  2  1  0  0  0  0
  8 10  1  0  0  0  0
  9 11  1  0  0  0  0
 10 11  2  0  0  0  0
 10 12  1  0  0  0  0
 11 16  1  0  0  0  0
 13 14  1  0  0  0  0
 13  8  2  0  0  0  0
 14  9  2  0  0  0  0
 16 15  1  0  0  0  0
 16 17  2  0  0  0  0
 18  6  1  0  0  0  0
 19 18  2  0  0  0  0
 20 18  1  0  0  0  0
 20 21  1  0  0  0  0
 22 20  2  0  0  0  0
 23 24  1  0  0  0  0
 24 19  1  0  0  0  0
 25  2  1  0  0  0  0
 26 25  1  0  0  0  0
 27 26  1  0  0  0  0
 28 32  1  0  0  0  0
 29 30  1  0  0  0  0
 29 34  1  0  0  0  0
 30 33  1  0  0  0  0
 31 32  1  0  0  0  0
 33 31  1  0  0  0  0
 34 27  1  1  0  0  0
 34 28  1  0  0  0  0
M  END
>  <MODEL>
1

>  <REMARK>
 VINA RESULT:      -7.4      0.000      0.000
  Name = 
  9 active torsions:
  status: ('A' for Active; 'I' for Inactive)
    1  A    between atoms: C_2  and  C_8
    2  A    between atoms: C_2  and  C_18
    3  A    between atoms: N_3  and  C_13
    4  A    between atoms: N_9  and  C_32
    5  A    between atoms: C_13  and  C_19
    6  A    between atoms: C_19  and  C_31
    7  A    between atoms: C_23  and  C_30
    8  A    between atoms: C_26  and  C_28
    9  A    between atoms: C_29  and  C_31
                            x       y       z     vdW  Elec       q    Type
                         _______ _______ _______ _____ _____    ______ ____

>  <TORSDO>
F 9

$$$$
=
 OpenBabel11032421103D

 34 36  0  0  1  0  0  0  0  0999 V2000
  191.9000  177.8870  140.4270 C   0  0  0  0  0  1  0  0  0  0  0  0
  188.6620  177.1760  141.2180 N   0  0  0  0  0  0  0  0  0  0  0  0
  189.9900  177.0550  141.6860 N   0  0  0  0  0  0  0  0  0  0  0  0
  190.1190  176.4780  139.4890 C   0  0  0  0  0  0  0  0  0  0  0  0
  190.9680  176.7100  140.6680 C   0  0  1  0  0  3  0  0  0  0  0  0
  190.5870  176.0730  138.3050 C   0  0  0  0  0  3  0  0  0  0  0  0
  188.6980  176.7680  139.8120 C   0  0  0  0  0  2  0  0  0  0  0  0
  189.3630  177.3960  144.0510 C   0  0  0  0  0  3  0  0  0  0  0  0
  191.7980  176.3310  144.8860 C   0  0  0  0  0  3  0  0  0  0  0  0
  189.6460  177.3090  145.4170 C   0  0  0  0  0  0  0  0  0  0  0  0
  190.8780  176.7690  145.8510 C   0  0  0  0  0  0  0  0  0  0  0  0
  188.6950  177.7610  146.3240 O   0  0  0  0  0  1  0  0  0  0  0  0
  190.2850  176.9540  143.0920 C   0  0  0  0  0  0  0  0  0  0  0  0
  191.5060  176.4230  143.5250 C   0  0  0  0  0  3  0  0  0  0  0  0
  192.2420  175.6580  147.7510 C   0  0  0  0  0  1  0  0  0  0  0  0
  191.2300  176.6520  147.2880 C   0  0  0  0  0  0  0  0  0  0  0  0
  190.6840  177.3910  148.1500 O   0  0  0  0  0  0  0  0  0  0  0  0
  189.7440  175.7900  137.1230 C   0  0  0  0  0  0  0  0  0  0  0  0
  189.1990  176.7620  136.3780 C   0  0  0  0  0  3  0  0  0  0  0  0
  189.4270  174.3840  136.8140 C   0  0  0  0  0  0  0  0  0  0  0  0
  188.4550  174.0930  136.0650 O   0  0  0  0  0  0  0  0  0  0  0  0
  190.2010  173.3610  137.3460 O   0  0  0  0  0  1  0  0  0  0  0  0
  188.0020  178.8760  136.7370 C   0  0  0  0  0  1  0  0  0  0  0  0
  189.3640  178.2210  136.6520 C   0  0  0  0  0  2  0  0  0  0  0  0
  188.3190  178.5950  141.2230 C   0  0  0  0  0  2  0  0  0  0  0  0
  186.8830  178.7960  140.7710 C   0  0  0  0  0  2  0  0  0  0  0  0
  186.0380  179.3310  141.9130 C   0  0  0  0  0  2  0  0  0  0  0  0
  185.7480  178.3320  144.2460 C   0  0  0  0  0  2  0  0  0  0  0  0
  184.1370  177.8200  142.4490 O   0  0  0  0  0  0  0  0  0  0  0  0
  183.3160  178.9570  142.5830 C   0  0  0  0  0  2  0  0  0  0  0  0
  183.6080  178.7470  145.1050 C   0  0  0  0  0  2  0  0  0  0  0  0
  184.9040  179.3610  144.8420 N   0  0  0  0  0  2  0  0  0  0  0  0
  182.6360  178.9940  143.9500 C   0  0  0  0  0  2  0  0  0  0  0  0
  185.4810  178.1730  142.7430 C   0  0  1  0  0  3  0  0  0  0  0  0
  2 25  1  0  0  0  0
  2  3  1  0  0  0  0
  3 13  1  0  0  0  0
  4  7  1  0  0  0  0
  4  5  1  0  0  0  0
  5  1  1  6  0  0  0
  5  3  1  0  0  0  0
  6  4  2  0  0  0  0
  7  2  1  0  0  0  0
  8 10  1  0  0  0  0
  9 11  1  0  0  0  0
 10 11  2  0  0  0  0
 10 12  1  0  0  0  0
 11 16  1  0  0  0  0
 13 14  1  0  0  0  0
 13  8  2  0  0  0  0
 14  9  2  0  0  0  0
 16 15  1  0  0  0  0
 16 17  2  0  0  0  0
 18  6  1  0  0  0  0
 19 24  1  0  0  0  0
 19 18  2  0  0  0  0
 20 18  1  0  0  0  0
 20 22  1  0  0  0  0
 21 20  2  0  0  0  0
 24 23  1  0  0  0  0
 26 25  1  0  0  0  0
 26 27  1  0  0  0  0
 28 32  1  0  0  0  0
 29 30  1  0  0  0  0
 29 34  1  0  0  0  0
 30 33  1  0  0  0  0
 32 31  1  0  0  0  0
 33 31  1  0  0  0  0
 34 27  1  6  0  0  0
 34 28  1  0  0  0  0
M  END
>  <MODEL>
2

>  <REMARK>
 VINA RESULT:      -7.3      3.933      7.652
  Name = 
  9 active torsions:
  status: ('A' for Active; 'I' for Inactive)
    1  A    between atoms: C_2  and  C_8
    2  A    between atoms: C_2  and  C_18
    3  A    between atoms: N_3  and  C_13
    4  A    between atoms: N_9  and  C_32
    5  A    between atoms: C_13  and  C_19
    6  A    between atoms: C_19  and  C_31
    7  A    between atoms: C_23  and  C_30
    8  A    between atoms: C_26  and  C_28
    9  A    between atoms: C_29  and  C_31
                            x       y       z     vdW  Elec       q    Type
                         _______ _______ _______ _____ _____    ______ ____

>  <TORSDO>
F 9

$$$$
=
 OpenBabel11032421103D

 34 36  0  0  1  0  0  0  0  0999 V2000
  182.6560  176.8030  140.3950 C   0  0  0  0  0  1  0  0  0  0  0  0
  184.8230  179.3900  139.9180 N   0  0  0  0  0  0  0  0  0  0  0  0
  184.1240  178.6740  140.9160 N   0  0  0  0  0  0  0  0  0  0  0  0
  182.5830  178.9890  139.2730 C   0  0  0  0  0  0  0  0  0  0  0  0
  182.7610  178.3120  140.5660 C   0  0  1  0  0  3  0  0  0  0  0  0
  181.4380  178.9840  138.5830 C   0  0  0  0  0  3  0  0  0  0  0  0
  183.8470  179.6510  138.8590 C   0  0  0  0  0  2  0  0  0  0  0  0
  183.7670  178.9240  143.3480 C   0  0  0  0  0  3  0  0  0  0  0  0
  186.4050  178.1770  143.8460 C   0  0  0  0  0  3  0  0  0  0  0  0
  184.2320  178.8690  144.6650 C   0  0  0  0  0  0  0  0  0  0  0  0
  185.5680  178.4900  144.9290 C   0  0  0  0  0  0  0  0  0  0  0  0
  183.3560  179.1930  145.6930 O   0  0  0  0  0  1  0  0  0  0  0  0
  184.6080  178.6080  142.2720 C   0  0  0  0  0  0  0  0  0  0  0  0
  185.9310  178.2360  142.5350 C   0  0  0  0  0  3  0  0  0  0  0  0
  187.2170  177.4690  146.6440 C   0  0  0  0  0  1  0  0  0  0  0  0
  186.1140  178.4150  146.3070 C   0  0  0  0  0  0  0  0  0  0  0  0
  185.6580  179.1490  147.2240 O   0  0  0  0  0  0  0  0  0  0  0  0
  181.2260  179.6970  137.3050 C   0  0  0  0  0  0  0  0  0  0  0  0
  181.3280  179.0870  136.1160 C   0  0  0  0  0  3  0  0  0  0  0  0
  180.9820  181.1500  137.3500 C   0  0  0  0  0  0  0  0  0  0  0  0
  180.7190  181.7920  136.2970 O   0  0  0  0  0  0  0  0  0  0  0  0
  181.0350  181.8290  138.5610 O   0  0  0  0  0  1  0  0  0  0  0  0
  182.9830  177.5260  135.1910 C   0  0  0  0  0  1  0  0  0  0  0  0
  181.6720  177.6450  135.9390 C   0  0  0  0  0  2  0  0  0  0  0  0
  185.8190  178.4910  139.3440 C   0  0  0  0  0  2  0  0  0  0  0  0
  185.5590  178.2860  137.8620 C   0  0  0  0  0  2  0  0  0  0  0  0
  186.8640  178.3080  137.0870 C   0  0  0  0  0  2  0  0  0  0  0  0
  188.0280  176.6430  135.5380 C   0  0  0  0  0  2  0  0  0  0  0  0
  188.2090  176.4200  137.9890 O   0  0  0  0  0  0  0  0  0  0  0  0
  189.2720  177.3200  138.1960 C   0  0  0  0  0  2  0  0  0  0  0  0
  190.3070  176.4400  136.0410 C   0  0  0  0  0  2  0  0  0  0  0  0
  189.3210  177.3050  135.4060 N   0  0  0  0  0  2  0  0  0  0  0  0
  190.5450  176.8490  137.4950 C   0  0  0  0  0  2  0  0  0  0  0  0
  187.4010  176.8850  136.9180 C   0  0  1  0  0  3  0  0  0  0  0  0
  2  3  1  0  0  0  0
  3 13  1  0  0  0  0
  4  5  1  0  0  0  0
  5  1  1  6  0  0  0
  5  3  1  0  0  0  0
  6  4  2  0  0  0  0
  7  4  1  0  0  0  0
  7  2  1  0  0  0  0
  8 10  1  0  0  0  0
  9 11  1  0  0  0  0
 10 11  2  0  0  0  0
 10 12  1  0  0  0  0
 11 16  1  0  0  0  0
 13 14  1  0  0  0  0
 13  8  2  0  0  0  0
 14  9  2  0  0  0  0
 16 15  1  0  0  0  0
 16 17  2  0  0  0  0
 18 20  1  0  0  0  0
 18  6  1  0  0  0  0
 19 18  2  0  0  0  0
 20 22  1  0  0  0  0
 21 20  2  0  0  0  0
 23 24  1  0  0  0  0
 24 19  1  0  0  0  0
 25  2  1  0  0  0  0
 26 25  1  0  0  0  0
 27 26  1  0  0  0  0
 28 34  1  0  0  0  0
 29 30  1  0  0  0  0
 31 33  1  0  0  0  0
 32 28  1  0  0  0  0
 32 31  1  0  0  0  0
 33 30  1  0  0  0  0
 34 27  1  1  0  0  0
 34 29  1  0  0  0  0
M  END
>  <MODEL>
3

>  <REMARK>
 VINA RESULT:      -7.3      1.291      1.733
  Name = 
  9 active torsions:
  status: ('A' for Active; 'I' for Inactive)
    1  A    between atoms: C_2  and  C_8
    2  A    between atoms: C_2  and  C_18
    3  A    between atoms: N_3  and  C_13
    4  A    between atoms: N_9  and  C_32
    5  A    between atoms: C_13  and  C_19
    6  A    between atoms: C_19  and  C_31
    7  A    between atoms: C_23  and  C_30
    8  A    between atoms: C_26  and  C_28
    9  A    between atoms: C_29  and  C_31
                            x       y       z     vdW  Elec       q    Type
                         _______ _______ _______ _____ _____    ______ ____

>  <TORSDO>
F 9

$$$$
=
 OpenBabel11032421103D

 34 36  0  0  1  0  0  0  0  0999 V2000
  185.3050  180.1260  144.5170 C   0  0  0  0  0  1  0  0  0  0  0  0
  186.0790  177.8370  142.1140 N   0  0  0  0  0  0  0  0  0  0  0  0
  185.0020  178.3760  142.8520 N   0  0  0  0  0  0  0  0  0  0  0  0
  186.6370  178.0640  144.4020 C   0  0  0  0  0  0  0  0  0  0  0  0
  185.2870  178.6270  144.2540 C   0  0  1  0  0  3  0  0  0  0  0  0
  187.2990  178.0160  145.5620 C   0  0  0  0  0  3  0  0  0  0  0  0
  187.1400  177.5790  143.0900 C   0  0  0  0  0  2  0  0  0  0  0  0
  182.5810  178.7840  143.1310 C   0  0  0  0  0  3  0  0  0  0  0  0
  182.0970  177.8900  140.5370 C   0  0  0  0  0  3  0  0  0  0  0  0
  181.2730  178.7640  142.6400 C   0  0  0  0  0  0  0  0  0  0  0  0
  181.0160  178.3140  141.3250 C   0  0  0  0  0  0  0  0  0  0  0  0
  180.2450  179.1950  143.4710 O   0  0  0  0  0  1  0  0  0  0  0  0
  183.6560  178.3610  142.3370 C   0  0  0  0  0  0  0  0  0  0  0  0
  183.3990  177.9120  141.0360 C   0  0  0  0  0  3  0  0  0  0  0  0
  179.0800  179.4520  140.0360 C   0  0  0  0  0  1  0  0  0  0  0  0
  179.6460  178.2730  140.7540 C   0  0  0  0  0  0  0  0  0  0  0  0
  178.9310  177.2410  140.8630 O   0  0  0  0  0  0  0  0  0  0  0  0
  188.6370  177.4120  145.7390 C   0  0  0  0  0  0  0  0  0  0  0  0
  189.0400  176.8830  146.9020 C   0  0  0  0  0  3  0  0  0  0  0  0
  189.5870  177.4800  144.6130 C   0  0  0  0  0  0  0  0  0  0  0  0
  190.1290  178.5710  144.2930 O   0  0  0  0  0  1  0  0  0  0  0  0
  189.8970  176.3330  143.8930 O   0  0  0  0  0  0  0  0  0  0  0  0
  188.3400  178.1640  148.8770 C   0  0  0  0  0  1  0  0  0  0  0  0
  188.2070  176.8490  148.1410 C   0  0  0  0  0  2  0  0  0  0  0  0
  186.5810  178.8860  141.2320 C   0  0  0  0  0  2  0  0  0  0  0  0
  188.0270  178.6160  140.8540 C   0  0  0  0  0  2  0  0  0  0  0  0
  188.1070  178.0180  139.4610 C   0  0  0  0  0  2  0  0  0  0  0  0
  190.5910  177.4570  139.6520 C   0  0  0  0  0  2  0  0  0  0  0  0
  189.6010  178.0530  137.4730 O   0  0  0  0  0  0  0  0  0  0  0  0
  189.1070  176.7820  137.1210 C   0  0  0  0  0  2  0  0  0  0  0  0
  191.2220  175.7880  138.1340 C   0  0  0  0  0  2  0  0  0  0  0  0
  190.5330  176.0230  139.3960 N   0  0  0  0  0  2  0  0  0  0  0  0
  190.2380  175.7690  136.9630 C   0  0  0  0  0  2  0  0  0  0  0  0
  189.5080  178.2210  138.8790 C   0  0  1  0  0  3  0  0  0  0  0  0
  2  3  1  0  0  0  0
  2  7  1  0  0  0  0
  3  5  1  0  0  0  0
  4  6  2  0  0  0  0
  5  4  1  0  0  0  0
  5  1  1  6  0  0  0
  6 18  1  0  0  0  0
  7  4  1  0  0  0  0
  9 14  2  0  0  0  0
  9 11  1  0  0  0  0
 10  8  1  0  0  0  0
 10 12  1  0  0  0  0
 11 10  2  0  0  0  0
 13  3  1  0  0  0  0
 13  8  2  0  0  0  0
 14 13  1  0  0  0  0
 15 16  1  0  0  0  0
 16 17  2  0  0  0  0
 16 11  1  0  0  0  0
 18 19  2  0  0  0  0
 19 24  1  0  0  0  0
 20 18  1  0  0  0  0
 21 20  1  0  0  0  0
 22 20  2  0  0  0  0
 24 23  1  0  0  0  0
 25  2  1  0  0  0  0
 26 25  1  0  0  0  0
 27 26  1  0  0  0  0
 29 34  1  0  0  0  0
 30 29  1  0  0  0  0
 31 32  1  0  0  0  0
 32 28  1  0  0  0  0
 33 30  1  0  0  0  0
 33 31  1  0  0  0  0
 34 27  1  1  0  0  0
 34 28  1  0  0  0  0
M  END
>  <MODEL>
4

>  <REMARK>
 VINA RESULT:      -7.2      2.972      7.413
  Name = 
  9 active torsions:
  status: ('A' for Active; 'I' for Inactive)
    1  A    between atoms: C_2  and  C_8
    2  A    between atoms: C_2  and  C_18
    3  A    between atoms: N_3  and  C_13
    4  A    between atoms: N_9  and  C_32
    5  A    between atoms: C_13  and  C_19
    6  A    between atoms: C_19  and  C_31
    7  A    between atoms: C_23  and  C_30
    8  A    between atoms: C_26  and  C_28
    9  A    between atoms: C_29  and  C_31
                            x       y       z     vdW  Elec       q    Type
                         _______ _______ _______ _____ _____    ______ ____

>  <TORSDO>
F 9

$$$$
=
 OpenBabel11032421103D

 34 36  0  0  1  0  0  0  0  0999 V2000
  189.0640  179.3980  137.0840 C   0  0  0  0  0  1  0  0  0  0  0  0
  189.1120  176.9360  139.4410 N   0  0  0  0  0  0  0  0  0  0  0  0
  189.6090  177.2850  138.1650 N   0  0  0  0  0  0  0  0  0  0  0  0
  187.4140  177.8790  138.0890 C   0  0  0  0  0  0  0  0  0  0  0  0
  188.6510  177.9490  137.2970 C   0  0  1  0  0  3  0  0  0  0  0  0
  186.2300  178.3230  137.6580 C   0  0  0  0  0  3  0  0  0  0  0  0
  187.6850  177.2640  139.4150 C   0  0  0  0  0  2  0  0  0  0  0  0
  191.9660  176.6210  138.4900 C   0  0  0  0  0  3  0  0  0  0  0  0
  192.1320  175.7860  135.8370 C   0  0  0  0  0  3  0  0  0  0  0  0
  193.1670  176.0940  138.0060 C   0  0  0  0  0  0  0  0  0  0  0  0
  193.2620  175.6670  136.6620 C   0  0  0  0  0  0  0  0  0  0  0  0
  194.2510  176.0040  138.8710 O   0  0  0  0  0  1  0  0  0  0  0  0
  190.8410  176.7340  137.6620 C   0  0  0  0  0  0  0  0  0  0  0  0
  190.9380  176.3130  136.3300 C   0  0  0  0  0  3  0  0  0  0  0  0
  194.6700  173.6280  135.9100 C   0  0  0  0  0  1  0  0  0  0  0  0
  194.5120  175.1000  136.0960 C   0  0  0  0  0  0  0  0  0  0  0  0
  195.4670  175.8490  135.7600 O   0  0  0  0  0  0  0  0  0  0  0  0
  184.9670  178.2190  138.4220 C   0  0  0  0  0  0  0  0  0  0  0  0
  184.0840  177.2310  138.2200 C   0  0  0  0  0  3  0  0  0  0  0  0
  184.6380  179.2950  139.3730 C   0  0  0  0  0  0  0  0  0  0  0  0
  183.7530  180.1500  139.0980 O   0  0  0  0  0  0  0  0  0  0  0  0
  185.3020  179.3770  140.5910 O   0  0  0  0  0  1  0  0  0  0  0  0
  183.5060  176.4990  135.9480 C   0  0  0  0  0  1  0  0  0  0  0  0
  184.2570  176.1430  137.2130 C   0  0  0  0  0  2  0  0  0  0  0  0
  189.7210  177.8370  140.4140 C   0  0  0  0  0  2  0  0  0  0  0  0
  188.7190  178.2060  141.4960 C   0  0  0  0  0  2  0  0  0  0  0  0
  189.4180  178.3530  142.8360 C   0  0  0  0  0  2  0  0  0  0  0  0
  191.2680  176.8320  143.7210 C   0  0  0  0  0  2  0  0  0  0  0  0
  188.9300  176.5200  144.4440 O   0  0  0  0  0  0  0  0  0  0  0  0
  188.9080  177.4780  145.4760 C   0  0  0  0  0  2  0  0  0  0  0  0
  191.2790  176.7550  146.0620 C   0  0  0  0  0  2  0  0  0  0  0  0
  191.6400  177.5790  144.9160 N   0  0  0  0  0  2  0  0  0  0  0  0
  189.8910  177.1190  146.5890 C   0  0  0  0  0  2  0  0  0  0  0  0
  189.7750  176.9760  143.3980 C   0  0  1  0  0  3  0  0  0  0  0  0
  2 25  1  0  0  0  0
  3  2  1  0  0  0  0
  4  7  1  0  0  0  0
  5  1  1  1  0  0  0
  5  4  1  0  0  0  0
  5  3  1  0  0  0  0
  6  4  2  0  0  0  0
  6 18  1  0  0  0  0
  7  2  1  0  0  0  0
  9 14  2  0  0  0  0
  9 11  1  0  0  0  0
 10  8  1  0  0  0  0
 10 12  1  0  0  0  0
 11 10  2  0  0  0  0
 13  3  1  0  0  0  0
 13  8  2  0  0  0  0
 14 13  1  0  0  0  0
 15 16  1  0  0  0  0
 16 11  1  0  0  0  0
 17 16  2  0  0  0  0
 18 20  1  0  0  0  0
 19 18  2  0  0  0  0
 20 22  1  0  0  0  0
 21 20  2  0  0  0  0
 23 24  1  0  0  0  0
 24 19  1  0  0  0  0
 25 26  1  0  0  0  0
 26 27  1  0  0  0  0
 28 32  1  0  0  0  0
 29 30  1  0  0  0  0
 30 33  1  0  0  0  0
 31 33  1  0  0  0  0
 32 31  1  0  0  0  0
 34 27  1  1  0  0  0
 34 28  1  0  0  0  0
 34 29  1  0  0  0  0
M  END
>  <MODEL>
5

>  <REMARK>
 VINA RESULT:      -7.1      3.444      7.971
  Name = 
  9 active torsions:
  status: ('A' for Active; 'I' for Inactive)
    1  A    between atoms: C_2  and  C_8
    2  A    between atoms: C_2  and  C_18
    3  A    between atoms: N_3  and  C_13
    4  A    between atoms: N_9  and  C_32
    5  A    between atoms: C_13  and  C_19
    6  A    between atoms: C_19  and  C_31
    7  A    between atoms: C_23  and  C_30
    8  A    between atoms: C_26  and  C_28
    9  A    between atoms: C_29  and  C_31
                            x       y       z     vdW  Elec       q    Type
                         _______ _______ _______ _____ _____    ______ ____

>  <TORSDO>
F 9

$$$$
=
 OpenBabel11032421103D

 34 36  0  0  1  0  0  0  0  0999 V2000
  181.8920  177.3500  140.5000 C   0  0  0  0  0  1  0  0  0  0  0  0
  184.5900  179.2790  139.7170 N   0  0  0  0  0  0  0  0  0  0  0  0
  183.7960  178.8360  140.7990 N   0  0  0  0  0  0  0  0  0  0  0  0
  182.2850  179.3930  139.1930 C   0  0  0  0  0  0  0  0  0  0  0  0
  182.3690  178.7940  140.5330 C   0  0  1  0  0  3  0  0  0  0  0  0
  181.1360  179.6170  138.5490 C   0  0  0  0  0  3  0  0  0  0  0  0
  183.6470  179.6900  138.6750 C   0  0  0  0  0  2  0  0  0  0  0  0
  185.6410  178.3270  142.3610 C   0  0  0  0  0  3  0  0  0  0  0  0
  184.0370  179.0150  144.5330 C   0  0  0  0  0  3  0  0  0  0  0  0
  186.1590  178.2400  143.6570 C   0  0  0  0  0  0  0  0  0  0  0  0
  185.3540  178.5880  144.7660 C   0  0  0  0  0  0  0  0  0  0  0  0
  187.4690  177.8080  143.8220 O   0  0  0  0  0  1  0  0  0  0  0  0
  184.3260  178.7570  142.1370 C   0  0  0  0  0  0  0  0  0  0  0  0
  183.5300  179.0980  143.2360 C   0  0  0  0  0  3  0  0  0  0  0  0
  186.8570  177.4870  146.5630 C   0  0  0  0  0  1  0  0  0  0  0  0
  185.8530  178.5150  146.1620 C   0  0  0  0  0  0  0  0  0  0  0  0
  185.4390  179.3180  147.0390 O   0  0  0  0  0  0  0  0  0  0  0  0
  181.0300  180.2600  137.2210 C   0  0  0  0  0  0  0  0  0  0  0  0
  180.8400  181.5790  137.0740 C   0  0  0  0  0  3  0  0  0  0  0  0
  181.0470  179.3980  136.0260 C   0  0  0  0  0  0  0  0  0  0  0  0
  180.9180  179.8910  134.8730 O   0  0  0  0  0  0  0  0  0  0  0  0
  181.2100  178.0240  136.1590 O   0  0  0  0  0  1  0  0  0  0  0  0
  179.2410  182.8670  138.4200 C   0  0  0  0  0  1  0  0  0  0  0  0
  180.7030  182.5400  138.2080 C   0  0  0  0  0  2  0  0  0  0  0  0
  185.3040  178.1210  139.1890 C   0  0  0  0  0  2  0  0  0  0  0  0
  186.0850  178.5010  137.9430 C   0  0  0  0  0  2  0  0  0  0  0  0
  187.3160  177.6240  137.8010 C   0  0  0  0  0  2  0  0  0  0  0  0
  188.7120  178.4570  139.7710 C   0  0  0  0  0  2  0  0  0  0  0  0
  189.7620  178.0180  137.5820 O   0  0  0  0  0  0  0  0  0  0  0  0
  189.9640  176.6320  137.7290 C   0  0  0  0  0  2  0  0  0  0  0  0
  190.5640  177.0770  140.1640 C   0  0  0  0  0  2  0  0  0  0  0  0
  189.1200  177.1750  140.3330 N   0  0  0  0  0  2  0  0  0  0  0  0
  190.9200  176.3270  138.8800 C   0  0  0  0  0  2  0  0  0  0  0  0
  188.5630  178.3920  138.2450 C   0  0  1  0  0  3  0  0  0  0  0  0
  2  3  1  0  0  0  0
  3 13  1  0  0  0  0
  4  5  1  0  0  0  0
  5  1  1  6  0  0  0
  5  3  1  0  0  0  0
  6  4  2  0  0  0  0
  7  4  1  0  0  0  0
  7  2  1  0  0  0  0
  8 10  1  0  0  0  0
  9 11  1  0  0  0  0
 10 12  1  0  0  0  0
 10 11  2  0  0  0  0
 11 16  1  0  0  0  0
 13  8  2  0  0  0  0
 13 14  1  0  0  0  0
 14  9  2  0  0  0  0
 16 15  1  0  0  0  0
 16 17  2  0  0  0  0
 18  6  1  0  0  0  0
 19 18  2  0  0  0  0
 19 24  1  0  0  0  0
 20 22  1  0  0  0  0
 20 18  1  0  0  0  0
 21 20  2  0  0  0  0
 24 23  1  0  0  0  0
 25  2  1  0  0  0  0
 26 25  1  0  0  0  0
 27 26  1  0  0  0  0
 28 32  1  0  0  0  0
 29 30  1  0  0  0  0
 29 34  1  0  0  0  0
 30 33  1  0  0  0  0
 31 32  1  0  0  0  0
 33 31  1  0  0  0  0
 34 27  1  1  0  0  0
 34 28  1  0  0  0  0
M  END
>  <MODEL>
6

>  <REMARK>
 VINA RESULT:      -7.0      1.259      2.197
  Name = 
  9 active torsions:
  status: ('A' for Active; 'I' for Inactive)
    1  A    between atoms: C_2  and  C_8
    2  A    between atoms: C_2  and  C_18
    3  A    between atoms: N_3  and  C_13
    4  A    between atoms: N_9  and  C_32
    5  A    between atoms: C_13  and  C_19
    6  A    between atoms: C_19  and  C_31
    7  A    between atoms: C_23  and  C_30
    8  A    between atoms: C_26  and  C_28
    9  A    between atoms: C_29  and  C_31
                            x       y       z     vdW  Elec       q    Type
                         _______ _______ _______ _____ _____    ______ ____

>  <TORSDO>
F 9

$$$$
=
 OpenBabel11032421103D

 34 36  0  0  1  0  0  0  0  0999 V2000
  191.2850  173.7710  136.7800 C   0  0  0  0  0  1  0  0  0  0  0  0
  191.7560  176.8840  138.0840 N   0  0  0  0  0  0  0  0  0  0  0  0
  190.8790  176.1180  137.2840 N   0  0  0  0  0  0  0  0  0  0  0  0
  192.9520  175.5600  136.5300 C   0  0  0  0  0  0  0  0  0  0  0  0
  191.5340  175.2110  136.3560 C   0  0  1  0  0  3  0  0  0  0  0  0
  193.9440  175.0100  135.8240 C   0  0  0  0  0  3  0  0  0  0  0  0
  193.1040  176.5840  137.5960 C   0  0  0  0  0  2  0  0  0  0  0  0
  189.0740  177.7850  137.0270 C   0  0  0  0  0  3  0  0  0  0  0  0
  187.1540  175.7670  137.1010 C   0  0  0  0  0  3  0  0  0  0  0  0
  187.7200  178.1150  136.9210 C   0  0  0  0  0  0  0  0  0  0  0  0
  186.7380  177.1000  136.9570 C   0  0  0  0  0  0  0  0  0  0  0  0
  187.3710  179.4540  136.7820 O   0  0  0  0  0  1  0  0  0  0  0  0
  189.4820  176.4510  137.1680 C   0  0  0  0  0  0  0  0  0  0  0  0
  188.5080  175.4470  137.2060 C   0  0  0  0  0  3  0  0  0  0  0  0
  184.5110  177.8630  138.0340 C   0  0  0  0  0  1  0  0  0  0  0  0
  185.2870  177.3950  136.8490 C   0  0  0  0  0  0  0  0  0  0  0  0
  184.6790  177.2570  135.7550 O   0  0  0  0  0  0  0  0  0  0  0  0
  195.3700  175.3810  135.9530 C   0  0  0  0  0  0  0  0  0  0  0  0
  196.2460  174.6430  136.6490 C   0  0  0  0  0  3  0  0  0  0  0  0
  195.8140  176.6580  135.3640 C   0  0  0  0  0  0  0  0  0  0  0  0
  196.9880  177.0790  135.5480 O   0  0  0  0  0  1  0  0  0  0  0  0
  194.9370  177.4130  134.5940 O   0  0  0  0  0  0  0  0  0  0  0  0
  195.5370  173.7130  138.8080 C   0  0  0  0  0  1  0  0  0  0  0  0
  195.8940  173.3860  137.3740 C   0  0  0  0  0  2  0  0  0  0  0  0
  191.6870  176.3590  139.4440 C   0  0  0  0  0  2  0  0  0  0  0  0
  191.1710  177.4220  140.3990 C   0  0  0  0  0  2  0  0  0  0  0  0
  189.8980  176.9520  141.0780 C   0  0  0  0  0  2  0  0  0  0  0  0
  191.0430  177.2330  143.3440 C   0  0  0  0  0  2  0  0  0  0  0  0
  189.1250  175.7020  143.0850 O   0  0  0  0  0  0  0  0  0  0  0  0
  188.0910  176.6470  143.2320 C   0  0  0  0  0  2  0  0  0  0  0  0
  189.5060  177.7680  145.0290 C   0  0  0  0  0  2  0  0  0  0  0  0
  190.2310  178.3140  143.8880 N   0  0  0  0  0  2  0  0  0  0  0  0
  188.1140  177.2860  144.6200 C   0  0  0  0  0  2  0  0  0  0  0  0
  190.2270  176.3100  142.4280 C   0  0  1  0  0  3  0  0  0  0  0  0
  2 25  1  0  0  0  0
  3  2  1  0  0  0  0
  4  7  1  0  0  0  0
  5  4  1  0  0  0  0
  5  1  1  1  0  0  0
  5  3  1  0  0  0  0
  6 18  1  0  0  0  0
  6  4  2  0  0  0  0
  7  2  1  0  0  0  0
  8 13  1  0  0  0  0
  9 14  1  0  0  0  0
 10 11  1  0  0  0  0
 10  8  2  0  0  0  0
 11  9  2  0  0  0  0
 12 10  1  0  0  0  0
 13 14  2  0  0  0  0
 13  3  1  0  0  0  0
 16 11  1  0  0  0  0
 16 15  1  0  0  0  0
 17 16  2  0  0  0  0
 18 19  2  0  0  0  0
 19 24  1  0  0  0  0
 20 21  1  0  0  0  0
 20 18  1  0  0  0  0
 22 20  2  0  0  0  0
 24 23  1  0  0  0  0
 25 26  1  0  0  0  0
 26 27  1  0  0  0  0
 28 32  1  0  0  0  0
 29 30  1  0  0  0  0
 30 33  1  0  0  0  0
 32 31  1  0  0  0  0
 33 31  1  0  0  0  0
 34 27  1  6  0  0  0
 34 29  1  0  0  0  0
 34 28  1  0  0  0  0
M  END
>  <MODEL>
7

>  <REMARK>
 VINA RESULT:      -6.9      4.134     10.238
  Name = 
  9 active torsions:
  status: ('A' for Active; 'I' for Inactive)
    1  A    between atoms: C_2  and  C_8
    2  A    between atoms: C_2  and  C_18
    3  A    between atoms: N_3  and  C_13
    4  A    between atoms: N_9  and  C_32
    5  A    between atoms: C_13  and  C_19
    6  A    between atoms: C_19  and  C_31
    7  A    between atoms: C_23  and  C_30
    8  A    between atoms: C_26  and  C_28
    9  A    between atoms: C_29  and  C_31
                            x       y       z     vdW  Elec       q    Type
                         _______ _______ _______ _____ _____    ______ ____

>  <TORSDO>
F 9

$$$$
=
 OpenBabel11032421103D

 34 36  0  0  1  0  0  0  0  0999 V2000
  182.3930  177.0910  140.6080 C   0  0  0  0  0  1  0  0  0  0  0  0
  184.7570  179.4890  140.0810 N   0  0  0  0  0  0  0  0  0  0  0  0
  184.0330  178.8230  141.0960 N   0  0  0  0  0  0  0  0  0  0  0  0
  182.4700  179.2880  139.5100 C   0  0  0  0  0  0  0  0  0  0  0  0
  182.6330  178.5820  140.7900 C   0  0  1  0  0  3  0  0  0  0  0  0
  181.3060  179.3900  138.8600 C   0  0  0  0  0  3  0  0  0  0  0  0
  183.7710  179.8450  139.0590 C   0  0  0  0  0  2  0  0  0  0  0  0
  185.7720  178.0460  142.6690 C   0  0  0  0  0  3  0  0  0  0  0  0
  184.3420  179.0940  144.8190 C   0  0  0  0  0  3  0  0  0  0  0  0
  186.2790  177.9150  143.9650 C   0  0  0  0  0  0  0  0  0  0  0  0
  185.5620  178.4440  145.0630 C   0  0  0  0  0  0  0  0  0  0  0  0
  187.4920  177.2600  144.1420 O   0  0  0  0  0  1  0  0  0  0  0  0
  184.5540  178.6990  142.4330 C   0  0  0  0  0  0  0  0  0  0  0  0
  183.8440  179.2190  143.5220 C   0  0  0  0  0  3  0  0  0  0  0  0
  187.4440  177.8710  146.7470 C   0  0  0  0  0  1  0  0  0  0  0  0
  186.0540  178.3330  146.4590 C   0  0  0  0  0  0  0  0  0  0  0  0
  185.3110  178.6280  147.4320 O   0  0  0  0  0  0  0  0  0  0  0  0
  181.1130  180.1340  137.5970 C   0  0  0  0  0  0  0  0  0  0  0  0
  181.3270  179.5790  136.3960 C   0  0  0  0  0  3  0  0  0  0  0  0
  180.7600  181.5630  137.6770 C   0  0  0  0  0  0  0  0  0  0  0  0
  179.6150  181.9630  137.3350 O   0  0  0  0  0  0  0  0  0  0  0  0
  181.6910  182.4870  138.1360 O   0  0  0  0  0  1  0  0  0  0  0  0
  181.9430  177.9050  134.7090 C   0  0  0  0  0  1  0  0  0  0  0  0
  181.7860  178.1730  136.1900 C   0  0  0  0  0  2  0  0  0  0  0  0
  185.6520  178.5150  139.4650 C   0  0  0  0  0  2  0  0  0  0  0  0
  185.4020  178.4350  137.9690 C   0  0  0  0  0  2  0  0  0  0  0  0
  185.2130  176.9910  137.5400 C   0  0  0  0  0  2  0  0  0  0  0  0
  187.1670  175.3780  137.2190 C   0  0  0  0  0  2  0  0  0  0  0  0
  186.0280  176.3770  135.2720 O   0  0  0  0  0  0  0  0  0  0  0  0
  184.9600  175.4650  135.1720 C   0  0  0  0  0  2  0  0  0  0  0  0
  186.6100  173.6190  135.7750 C   0  0  0  0  0  2  0  0  0  0  0  0
  186.4290  174.1240  137.1300 N   0  0  0  0  0  2  0  0  0  0  0  0
  185.4600  174.0540  134.8660 C   0  0  0  0  0  2  0  0  0  0  0  0
  186.3700  176.5540  136.6380 C   0  0  1  0  0  3  0  0  0  0  0  0
  2  3  1  0  0  0  0
  3 13  1  0  0  0  0
  4  5  1  0  0  0  0
  5  1  1  6  0  0  0
  5  3  1  0  0  0  0
  6  4  2  0  0  0  0
  7  4  1  0  0  0  0
  7  2  1  0  0  0  0
  8 10  1  0  0  0  0
  9 11  1  0  0  0  0
 10 12  1  0  0  0  0
 10 11  2  0  0  0  0
 11 16  1  0  0  0  0
 13  8  2  0  0  0  0
 13 14  1  0  0  0  0
 14  9  2  0  0  0  0
 16 15  1  0  0  0  0
 16 17  2  0  0  0  0
 18 20  1  0  0  0  0
 18  6  1  0  0  0  0
 19 18  2  0  0  0  0
 20 22  1  0  0  0  0
 21 20  2  0  0  0  0
 23 24  1  0  0  0  0
 24 19  1  0  0  0  0
 25  2  1  0  0  0  0
 26 25  1  0  0  0  0
 27 26  1  0  0  0  0
 29 34  1  0  0  0  0
 30 29  1  0  0  0  0
 31 32  1  0  0  0  0
 32 28  1  0  0  0  0
 33 30  1  0  0  0  0
 33 31  1  0  0  0  0
 34 28  1  0  0  0  0
 34 27  1  1  0  0  0
M  END
>  <MODEL>
8

>  <REMARK>
 VINA RESULT:      -6.6      2.072      2.876
  Name = 
  9 active torsions:
  status: ('A' for Active; 'I' for Inactive)
    1  A    between atoms: C_2  and  C_8
    2  A    between atoms: C_2  and  C_18
    3  A    between atoms: N_3  and  C_13
    4  A    between atoms: N_9  and  C_32
    5  A    between atoms: C_13  and  C_19
    6  A    between atoms: C_19  and  C_31
    7  A    between atoms: C_23  and  C_30
    8  A    between atoms: C_26  and  C_28
    9  A    between atoms: C_29  and  C_31
                            x       y       z     vdW  Elec       q    Type
                         _______ _______ _______ _____ _____    ______ ____

>  <TORSDO>
F 9

$$$$
=
 OpenBabel11032421103D

 34 36  0  0  1  0  0  0  0  0999 V2000
  192.2260  177.5250  139.3850 C   0  0  0  0  0  1  0  0  0  0  0  0
  188.9570  176.9270  140.1380 N   0  0  0  0  0  0  0  0  0  0  0  0
  190.2700  176.8150  140.6480 N   0  0  0  0  0  0  0  0  0  0  0  0
  190.4420  176.0850  138.5010 C   0  0  0  0  0  0  0  0  0  0  0  0
  191.2650  176.3830  139.6820 C   0  0  1  0  0  3  0  0  0  0  0  0
  190.9310  175.5920  137.3590 C   0  0  0  0  0  3  0  0  0  0  0  0
  189.0190  176.4220  138.7660 C   0  0  0  0  0  2  0  0  0  0  0  0
  191.0800  177.9290  142.7000 C   0  0  0  0  0  3  0  0  0  0  0  0
  190.4970  175.6570  144.2030 C   0  0  0  0  0  3  0  0  0  0  0  0
  191.3400  177.9240  144.0730 C   0  0  0  0  0  0  0  0  0  0  0  0
  191.0470  176.7770  144.8460 C   0  0  0  0  0  0  0  0  0  0  0  0
  191.8870  179.0640  144.6500 O   0  0  0  0  0  1  0  0  0  0  0  0
  190.5280  176.8070  142.0660 C   0  0  0  0  0  0  0  0  0  0  0  0
  190.2410  175.6710  142.8320 C   0  0  0  0  0  3  0  0  0  0  0  0
  190.2320  177.0640  147.2860 C   0  0  0  0  0  1  0  0  0  0  0  0
  191.3030  176.7190  146.3060 C   0  0  0  0  0  0  0  0  0  0  0  0
  192.4300  176.3760  146.7520 O   0  0  0  0  0  0  0  0  0  0  0  0
  190.1130  175.2420  136.1780 C   0  0  0  0  0  0  0  0  0  0  0  0
  190.2450  174.0760  135.5310 C   0  0  0  0  0  3  0  0  0  0  0  0
  189.1850  176.2570  135.6490 C   0  0  0  0  0  0  0  0  0  0  0  0
  187.9640  175.9890  135.4800 O   0  0  0  0  0  1  0  0  0  0  0  0
  189.6470  177.5290  135.3320 O   0  0  0  0  0  0  0  0  0  0  0  0
  192.5660  173.3140  135.2810 C   0  0  0  0  0  1  0  0  0  0  0  0
  191.2220  173.0120  135.9090 C   0  0  0  0  0  2  0  0  0  0  0  0
  188.6410  178.3480  140.0380 C   0  0  0  0  0  2  0  0  0  0  0  0
  187.2330  178.6170  140.5400 C   0  0  0  0  0  2  0  0  0  0  0  0
  187.2440  178.8660  142.0380 C   0  0  0  0  0  2  0  0  0  0  0  0
  187.2280  177.1440  143.9230 C   0  0  0  0  0  2  0  0  0  0  0  0
  185.1210  178.1300  143.1030 O   0  0  0  0  0  0  0  0  0  0  0  0
  185.1370  179.3100  143.8720 C   0  0  0  0  0  2  0  0  0  0  0  0
  186.0620  177.9240  145.7990 C   0  0  0  0  0  2  0  0  0  0  0  0
  187.3170  178.0430  145.0680 N   0  0  0  0  0  2  0  0  0  0  0  0
  185.0670  179.0020  145.3660 C   0  0  0  0  0  2  0  0  0  0  0  0
  186.4510  177.7740  142.7590 C   0  0  1  0  0  3  0  0  0  0  0  0
  2  3  1  0  0  0  0
  3 13  1  0  0  0  0
  4  7  1  0  0  0  0
  4  5  1  0  0  0  0
  5  1  1  6  0  0  0
  5  3  1  0  0  0  0
  6  4  2  0  0  0  0
  7  2  1  0  0  0  0
  8 10  1  0  0  0  0
  9 11  1  0  0  0  0
 10 12  1  0  0  0  0
 10 11  2  0  0  0  0
 11 16  1  0  0  0  0
 13  8  2  0  0  0  0
 13 14  1  0  0  0  0
 14  9  2  0  0  0  0
 16 17  2  0  0  0  0
 16 15  1  0  0  0  0
 18  6  1  0  0  0  0
 19 24  1  0  0  0  0
 19 18  2  0  0  0  0
 20 18  1  0  0  0  0
 21 20  1  0  0  0  0
 22 20  2  0  0  0  0
 23 24  1  0  0  0  0
 25  2  1  0  0  0  0
 25 26  1  0  0  0  0
 26 27  1  0  0  0  0
 28 32  1  0  0  0  0
 29 30  1  0  0  0  0
 30 33  1  0  0  0  0
 32 31  1  0  0  0  0
 33 31  1  0  0  0  0
 34 27  1  1  0  0  0
 34 29  1  0  0  0  0
 34 28  1  0  0  0  0
M  END
>  <MODEL>
9

>  <REMARK>
 VINA RESULT:      -6.6      4.552      7.859
  Name = 
  9 active torsions:
  status: ('A' for Active; 'I' for Inactive)
    1  A    between atoms: C_2  and  C_8
    2  A    between atoms: C_2  and  C_18
    3  A    between atoms: N_3  and  C_13
    4  A    between atoms: N_9  and  C_32
    5  A    between atoms: C_13  and  C_19
    6  A    between atoms: C_19  and  C_31
    7  A    between atoms: C_23  and  C_30
    8  A    between atoms: C_26  and  C_28
    9  A    between atoms: C_29  and  C_31
                            x       y       z     vdW  Elec       q    Type
                         _______ _______ _______ _____ _____    ______ ____

>  <TORSDO>
F 9

$$$$
