=
 OpenBabel11042409553D

 66 71  0  0  1  0  0  0  0  0999 V2000
  187.4900  178.3630  139.6120 C   0  0  0  0  0  1  0  0  0  0  0  0
  187.5570  176.1130  135.6770 C   0  0  1  0  0  3  0  0  0  0  0  0
  187.5370  178.2820  138.0900 C   0  0  2  0  0  3  0  0  0  0  0  0
  186.2950  176.8840  135.2580 C   0  0  2  0  0  3  0  0  0  0  0  0
  188.0220  175.3700  134.5940 O   0  0  0  0  0  1  0  0  0  0  0  0
  188.6680  177.0330  136.1600 C   0  0  0  0  0  2  0  0  0  0  0  0
  186.1240  177.9840  137.5490 C   0  0  2  0  0  3  0  0  0  0  0  0
  188.5820  177.2230  137.6740 C   0  0  1  0  0  3  0  0  0  0  0  0
  186.0470  178.1810  136.0370 C   0  0  0  0  0  2  0  0  0  0  0  0
  185.1680  174.6030  135.4320 N   0  0  0  0  0  2  0  0  0  0  0  0
  183.9370  176.5660  135.0680 O   0  0  0  0  0  0  0  0  0  0  0  0
  185.0630  176.0220  135.2440 C   0  0  0  0  0  0  0  0  0  0  0  0
  182.4600  174.0010  135.1680 S   0  0  0  0  0  0  0  0  0  0  0  0
  184.1000  173.6490  135.3380 C   0  0  0  0  0  0  0  0  0  0  0  0
  184.2740  172.2640  135.3200 C   0  0  0  0  0  0  0  0  0  0  0  0
  183.0700  171.5570  135.1740 C   0  0  0  0  0  3  0  0  0  0  0  0
  181.9640  172.3930  135.0870 C   0  0  0  0  0  0  0  0  0  0  0  0
  185.6020  171.5540  135.3600 C   0  0  2  0  0  3  0  0  0  0  0  0
  185.4720  170.2150  134.9790 O   0  0  0  0  0  1  0  0  0  0  0  0
  185.6830  172.6630  137.6490 C   0  0  0  0  0  1  0  0  0  0  0  0
  186.3310  171.6640  136.7050 C   0  0  0  0  0  3  0  0  0  0  0  0
  187.8010  171.9940  136.5160 C   0  0  0  0  0  1  0  0  0  0  0  0
  180.5640  171.9240  134.8740 C   0  0  0  0  0  2  0  0  0  0  0  0
  179.7860  171.2070  137.0080 O   0  0  0  0  0  1  0  0  0  0  0  0
  179.6900  172.2430  136.0740 C   0  0  1  0  0  3  0  0  0  0  0  0
  180.1640  173.5400  136.7000 C   0  0  0  0  0  2  0  0  0  0  0  0
  179.9520  173.5060  138.2020 C   0  0  0  0  0  1  0  0  0  0  0  0
  189.9640  177.6350  138.1680 C   0  0  0  0  0  2  0  0  0  0  0  0
  191.2420  176.6180  137.3710 S   0  0  0  0  0  0  0  0  0  0  0  0
  191.3360  176.9220  141.1560 C   0  0  2  0  0  3  0  0  0  0  0  0
  193.0110  176.8630  139.4390 C   0  0  0  0  0  2  0  0  0  0  0  0
  192.4680  177.7280  140.5570 C   0  0  0  0  0  2  0  0  0  0  0  0
  191.8510  176.0030  138.9660 C   0  0  1  0  0  3  0  0  0  0  0  0
  190.7520  176.1290  140.0080 C   0  0  0  0  0  2  0  0  0  0  0  0
  190.2710  177.8230  141.7590 C   0  0  0  0  0  2  0  0  0  0  0  0
  188.8030  178.1600  143.8270 C   0  0  1  0  0  3  0  0  0  0  0  0
  188.4200  177.7060  145.2630 C   0  0  1  0  0  3  0  0  0  0  0  0
  191.7670  177.1590  145.1720 C   0  0  0  0  0  2  0  0  0  0  0  0
  189.5750  177.6960  146.2900 C   0  0  2  0  0  3  0  0  0  0  0  0
  191.3830  178.0020  143.9580 C   0  0  2  0  0  3  0  0  0  0  0  0
  190.5770  176.6050  145.9460 C   0  0  0  0  0  2  0  0  0  0  0  0
  191.4040  179.4900  144.2800 C   0  0  0  0  0  1  0  0  0  0  0  0
  190.1020  177.5350  143.2490 C   0  0  2  0  0  3  0  0  0  0  0  0
  189.0950  177.4550  147.6890 C   0  0  0  0  0  0  0  0  0  0  0  0
  188.9740  178.4270  148.4810 O   0  0  0  0  0  1  0  0  0  0  0  0
  188.7870  176.1690  148.1170 O   0  0  0  0  0  0  0  0  0  0  0  0
  187.6380  177.9150  142.9090 C   0  0  0  0  0  0  0  0  0  0  0  0
  187.0820  178.9620  142.1820 O   0  0  0  0  0  0  0  0  0  0  0  0
  187.1610  176.7550  142.7980 O   0  0  0  0  0  1  0  0  0  0  0  0
  187.2160  178.5150  145.7710 C   0  0  0  0  0  2  0  0  0  0  0  0
  185.9480  177.6680  145.8540 C   0  0  0  0  0  2  0  0  0  0  0  0
  183.8500  178.8320  145.8640 O   0  0  0  0  0  1  0  0  0  0  0  0
  184.8720  178.3520  146.6860 C   0  0  0  0  0  3  0  0  0  0  0  0
  185.4200  179.4020  147.4240 O   0  0  0  0  0  1  0  0  0  0  0  0
  185.1160  178.7760  138.1900 O   0  0  0  0  0  0  0  0  0  0  0  0
  179.5810  177.3290  141.5660 C   0  0  0  0  0  2  0  0  0  0  0  0
  183.4320  177.0710  138.3840 C   0  0  0  0  0  3  0  0  0  0  0  0
  179.2460  178.7170  141.8570 N   0  0  0  0  0  2  0  0  0  0  0  0
  181.0550  179.8520  140.6810 C   0  0  0  0  0  2  0  0  0  0  0  0
  180.0200  177.1820  140.1150 C   0  0  0  0  0  2  0  0  0  0  0  0
  182.0180  176.6870  138.7020 C   0  0  0  0  0  2  0  0  0  0  0  0
  183.8140  178.3480  138.4950 C   0  0  0  0  0  0  0  0  0  0  0  0
  180.4810  179.4700  142.0370 C   0  0  0  0  0  2  0  0  0  0  0  0
  182.8140  179.3570  138.9720 C   0  0  0  0  0  2  0  0  0  0  0  0
  181.5310  177.3560  139.9950 C   0  0  1  0  0  3  0  0  0  0  0  0
  182.0670  178.8150  140.1950 C   0  0  2  0  0  3  0  0  0  0  0  0
  2  5  1  6  0  0  0
  2  6  1  0  0  0  0
  3  1  1  1  0  0  0
  4 12  1  1  0  0  0
  4  2  1  0  0  0  0
  4  9  1  0  0  0  0
  6  8  1  0  0  0  0
  7  3  1  0  0  0  0
  7 55  1  1  0  0  0
  8  3  1  0  0  0  0
  8 28  1  6  0  0  0
  9  7  1  0  0  0  0
 11 12  2  0  0  0  0
 12 10  1  0  0  0  0
 13 14  1  0  0  0  0
 14 10  1  0  0  0  0
 15 14  2  0  0  0  0
 15 18  1  0  0  0  0
 16 15  1  0  0  0  0
 17 13  1  0  0  0  0
 17 16  2  0  0  0  0
 18 19  1  1  0  0  0
 18 21  1  0  0  0  0
 21 20  1  0  0  0  0
 22 21  1  0  0  0  0
 23 17  1  0  0  0  0
 23 25  1  0  0  0  0
 25 26  1  0  0  0  0
 25 24  1  1  0  0  0
 26 27  1  0  0  0  0
 29 28  1  0  0  0  0
 30 35  1  6  0  0  0
 31 32  1  0  0  0  0
 32 30  1  0  0  0  0
 33 29  1  6  0  0  0
 33 31  1  0  0  0  0
 33 34  1  0  0  0  0
 34 30  1  0  0  0  0
 36 47  1  6  0  0  0
 36 37  1  0  0  0  0
 37 50  1  1  0  0  0
 37 39  1  0  0  0  0
 38 41  1  0  0  0  0
 39 44  1  1  0  0  0
 40 42  1  1  0  0  0
 40 38  1  0  0  0  0
 41 39  1  0  0  0  0
 43 35  1  6  0  0  0
 43 36  1  0  0  0  0
 43 40  1  0  0  0  0
 44 46  2  0  0  0  0
 44 45  1  0  0  0  0
 48 47  2  0  0  0  0
 49 47  1  0  0  0  0
 50 51  1  0  0  0  0
 51 53  1  0  0  0  0
 52 53  1  0  0  0  0
 53 54  1  0  0  0  0
 55 62  1  0  0  0  0
 56 58  1  0  0  0  0
 57 62  2  0  0  0  0
 57 61  1  0  0  0  0
 58 63  1  0  0  0  0
 59 63  1  0  0  0  0
 60 56  1  0  0  0  0
 62 64  1  0  0  0  0
 65 61  1  6  0  0  0
 65 60  1  0  0  0  0
 65 66  1  0  0  0  0
 66 64  1  6  0  0  0
 66 59  1  0  0  0  0
M  END
>  <MODEL>
1

>  <REMARK>
 VINA RESULT:      -7.2      0.000      0.000
  Name = 
  19 active torsions:
  status: ('A' for Active; 'I' for Inactive)
    1  A    between atoms: C_1  and  C_32
    2  A    between atoms: C_2  and  C_37
    3  A    between atoms: C_2  and  C_47
    4  A    between atoms: C_3  and  C_13
    5  A    between atoms: C_10  and  C_59
    6  A    between atoms: N_12  and  C_36
    7  A    between atoms: C_13  and  C_60
    8  A    between atoms: C_14  and  C_21
    9  A    between atoms: C_18  and  C_54
   10  A    between atoms: C_19  and  C_47
   11  A    between atoms: C_29  and  C_49
   12  A    between atoms: C_31  and  S_57
   13  A    between atoms: C_33  and  O_46
   14  A    between atoms: C_38  and  C_49
   15  A    between atoms: C_42  and  O_46
   16  A    between atoms: C_53  and  C_55
   17  A    between atoms: C_53  and  S_57
   18  A    between atoms: C_59  and  C_61
   19  A    between atoms: C_61  and  C_66
                            x       y       z     vdW  Elec       q    Type
                         _______ _______ _______ _____ _____    ______ ____

>  <TORSDO>
F 19

$$$$
=
 OpenBabel11042409553D

 66 71  0  0  1  0  0  0  0  0999 V2000
  189.4600  174.4590  136.9580 C   0  0  0  0  0  1  0  0  0  0  0  0
  187.9680  177.7560  139.6880 C   0  0  1  0  0  3  0  0  0  0  0  0
  189.4450  175.8910  137.4820 C   0  0  2  0  0  3  0  0  0  0  0  0
  189.4120  177.9520  140.1780 C   0  0  2  0  0  3  0  0  0  0  0  0
  187.1630  178.7630  140.2170 O   0  0  0  0  0  1  0  0  0  0  0  0
  187.8590  177.7820  138.1710 C   0  0  0  0  0  2  0  0  0  0  0  0
  190.2170  175.9560  138.8160 C   0  0  2  0  0  3  0  0  0  0  0  0
  187.9810  176.3680  137.6040 C   0  0  1  0  0  3  0  0  0  0  0  0
  190.4890  177.3980  139.2390 C   0  0  0  0  0  2  0  0  0  0  0  0
  188.9560  178.1040  142.6830 N   0  0  0  0  0  2  0  0  0  0  0  0
  190.3850  176.4770  141.7830 O   0  0  0  0  0  0  0  0  0  0  0  0
  189.6200  177.4620  141.5850 C   0  0  0  0  0  0  0  0  0  0  0  0
  190.6150  177.5760  144.8590 S   0  0  0  0  0  0  0  0  0  0  0  0
  189.1410  177.8170  144.0770 C   0  0  0  0  0  0  0  0  0  0  0  0
  188.1100  177.7450  145.0150 C   0  0  0  0  0  0  0  0  0  0  0  0
  188.5640  177.4960  146.3190 C   0  0  0  0  0  3  0  0  0  0  0  0
  189.9460  177.3650  146.3900 C   0  0  0  0  0  0  0  0  0  0  0  0
  186.6520  177.9930  144.7250 C   0  0  2  0  0  3  0  0  0  0  0  0
  186.4750  179.1750  144.0000 O   0  0  0  0  0  1  0  0  0  0  0  0
  184.2740  177.9320  145.6310 C   0  0  0  0  0  1  0  0  0  0  0  0
  185.7550  177.9830  145.9700 C   0  0  0  0  0  3  0  0  0  0  0  0
  186.0480  179.1670  146.8760 C   0  0  0  0  0  1  0  0  0  0  0  0
  190.7110  177.1490  147.6520 C   0  0  0  0  0  2  0  0  0  0  0  0
  192.7790  176.3910  148.5590 O   0  0  0  0  0  1  0  0  0  0  0  0
  192.0250  176.4370  147.3830 C   0  0  1  0  0  3  0  0  0  0  0  0
  191.7340  175.0270  146.9080 C   0  0  0  0  0  2  0  0  0  0  0  0
  192.3030  174.8120  145.5190 C   0  0  0  0  0  1  0  0  0  0  0  0
  187.3160  176.3600  136.2320 C   0  0  0  0  0  2  0  0  0  0  0  0
  187.2680  174.6680  135.5700 S   0  0  0  0  0  0  0  0  0  0  0  0
  183.7340  175.8770  136.2590 C   0  0  2  0  0  3  0  0  0  0  0  0
  184.6880  173.7700  135.6240 C   0  0  0  0  0  2  0  0  0  0  0  0
  183.8720  174.4400  136.7090 C   0  0  0  0  0  2  0  0  0  0  0  0
  185.5520  174.8570  135.0100 C   0  0  1  0  0  3  0  0  0  0  0  0
  185.0060  176.1880  135.5010 C   0  0  0  0  0  2  0  0  0  0  0  0
  183.5920  176.8190  137.4430 C   0  0  0  0  0  2  0  0  0  0  0  0
  182.5090  178.9870  138.2650 C   0  0  1  0  0  3  0  0  0  0  0  0
  181.9330  180.3880  137.9210 C   0  0  1  0  0  3  0  0  0  0  0  0
  181.0550  178.5340  135.2190 C   0  0  0  0  0  2  0  0  0  0  0  0
  180.7850  180.4030  136.8860 C   0  0  2  0  0  3  0  0  0  0  0  0
  181.5310  177.5890  136.3190 C   0  0  2  0  0  3  0  0  0  0  0  0
  181.3070  180.0080  135.5130 C   0  0  0  0  0  2  0  0  0  0  0  0
  180.3920  177.1910  137.2480 C   0  0  0  0  0  1  0  0  0  0  0  0
  182.7960  178.0620  137.0500 C   0  0  2  0  0  3  0  0  0  0  0  0
  180.1420  181.7510  136.7630 C   0  0  0  0  0  0  0  0  0  0  0  0
  178.9580  181.9140  137.1620 O   0  0  0  0  0  1  0  0  0  0  0  0
  180.8410  182.8170  136.2100 O   0  0  0  0  0  0  0  0  0  0  0  0
  183.7390  179.1570  139.1110 C   0  0  0  0  0  0  0  0  0  0  0  0
  183.9560  178.3370  140.2130 O   0  0  0  0  0  1  0  0  0  0  0  0
  184.5800  180.0480  138.8200 O   0  0  0  0  0  0  0  0  0  0  0  0
  181.5450  181.1320  139.2100 C   0  0  0  0  0  2  0  0  0  0  0  0
  180.3250  180.5100  139.8860 C   0  0  0  0  0  2  0  0  0  0  0  0
  180.0490  178.3560  140.9060 O   0  0  0  0  0  1  0  0  0  0  0  0
  180.7300  179.5710  141.0140 C   0  0  0  0  0  3  0  0  0  0  0  0
  180.4660  180.1540  142.2540 O   0  0  0  0  0  1  0  0  0  0  0  0
  191.4500  175.2260  138.7690 O   0  0  0  0  0  0  0  0  0  0  0  0
  197.2570  174.9180  135.5570 C   0  0  0  0  0  2  0  0  0  0  0  0
  192.8550  176.5220  137.3110 C   0  0  0  0  0  3  0  0  0  0  0  0
  197.2830  173.4620  135.4870 N   0  0  0  0  0  2  0  0  0  0  0  0
  195.1450  172.9420  136.5380 C   0  0  0  0  0  2  0  0  0  0  0  0
  195.8680  175.4410  135.2130 C   0  0  0  0  0  2  0  0  0  0  0  0
  193.8830  176.5710  136.2200 C   0  0  0  0  0  2  0  0  0  0  0  0
  192.4270  175.3400  137.7670 C   0  0  0  0  0  0  0  0  0  0  0  0
  196.6580  172.9230  136.6890 C   0  0  0  0  0  2  0  0  0  0  0  0
  193.0210  174.0910  137.1910 C   0  0  0  0  0  2  0  0  0  0  0  0
  195.0190  175.5700  136.4740 C   0  0  1  0  0  3  0  0  0  0  0  0
  194.5450  174.2220  137.1180 C   0  0  2  0  0  3  0  0  0  0  0  0
  2  4  1  0  0  0  0
  2  5  1  1  0  0  0
  3  1  1  1  0  0  0
  3  8  1  0  0  0  0
  3  7  1  0  0  0  0
  4 12  1  1  0  0  0
  6  2  1  0  0  0  0
  7 55  1  6  0  0  0
  7  9  1  0  0  0  0
  8 28  1  6  0  0  0
  8  6  1  0  0  0  0
  9  4  1  0  0  0  0
 10 14  1  0  0  0  0
 12 11  2  0  0  0  0
 12 10  1  0  0  0  0
 13 17  1  0  0  0  0
 14 13  1  0  0  0  0
 14 15  2  0  0  0  0
 15 16  1  0  0  0  0
 16 17  2  0  0  0  0
 17 23  1  0  0  0  0
 18 19  1  1  0  0  0
 18 15  1  0  0  0  0
 18 21  1  0  0  0  0
 20 21  1  0  0  0  0
 21 22  1  0  0  0  0
 25 23  1  0  0  0  0
 25 24  1  1  0  0  0
 26 25  1  0  0  0  0
 27 26  1  0  0  0  0
 29 28  1  0  0  0  0
 30 32  1  0  0  0  0
 30 35  1  1  0  0  0
 31 32  1  0  0  0  0
 33 34  1  0  0  0  0
 33 29  1  1  0  0  0
 33 31  1  0  0  0  0
 34 30  1  0  0  0  0
 36 47  1  6  0  0  0
 37 36  1  0  0  0  0
 37 50  1  1  0  0  0
 38 41  1  0  0  0  0
 38 40  1  0  0  0  0
 39 44  1  6  0  0  0
 39 37  1  0  0  0  0
 40 43  1  0  0  0  0
 40 42  1  1  0  0  0
 41 39  1  0  0  0  0
 43 35  1  1  0  0  0
 43 36  1  0  0  0  0
 44 45  1  0  0  0  0
 46 44  2  0  0  0  0
 47 48  1  0  0  0  0
 49 47  2  0  0  0  0
 50 51  1  0  0  0  0
 51 53  1  0  0  0  0
 52 53  1  0  0  0  0
 53 54  1  0  0  0  0
 57 62  2  0  0  0  0
 58 56  1  0  0  0  0
 58 63  1  0  0  0  0
 59 63  1  0  0  0  0
 60 56  1  0  0  0  0
 61 65  1  0  0  0  0
 61 57  1  0  0  0  0
 62 55  1  0  0  0  0
 64 62  1  0  0  0  0
 65 60  1  6  0  0  0
 65 66  1  0  0  0  0
 66 59  1  6  0  0  0
 66 64  1  0  0  0  0
M  END
>  <MODEL>
2

>  <REMARK>
 VINA RESULT:      -7.0      3.579     11.403
  Name = 
  19 active torsions:
  status: ('A' for Active; 'I' for Inactive)
    1  A    between atoms: C_1  and  C_32
    2  A    between atoms: C_2  and  C_37
    3  A    between atoms: C_2  and  C_47
    4  A    between atoms: C_3  and  C_13
    5  A    between atoms: C_10  and  C_59
    6  A    between atoms: N_12  and  C_36
    7  A    between atoms: C_13  and  C_60
    8  A    between atoms: C_14  and  C_21
    9  A    between atoms: C_18  and  C_54
   10  A    between atoms: C_19  and  C_47
   11  A    between atoms: C_29  and  C_49
   12  A    between atoms: C_31  and  S_57
   13  A    between atoms: C_33  and  O_46
   14  A    between atoms: C_38  and  C_49
   15  A    between atoms: C_42  and  O_46
   16  A    between atoms: C_53  and  C_55
   17  A    between atoms: C_53  and  S_57
   18  A    between atoms: C_59  and  C_61
   19  A    between atoms: C_61  and  C_66
                            x       y       z     vdW  Elec       q    Type
                         _______ _______ _______ _____ _____    ______ ____

>  <TORSDO>
F 19

$$$$
=
 OpenBabel11042409553D

 66 71  0  0  1  0  0  0  0  0999 V2000
  188.6050  179.6000  142.2010 C   0  0  0  0  0  1  0  0  0  0  0  0
  187.6420  177.5020  138.2990 C   0  0  1  0  0  3  0  0  0  0  0  0
  188.2000  178.3860  141.3700 C   0  0  2  0  0  3  0  0  0  0  0  0
  188.7580  176.4920  138.6100 C   0  0  2  0  0  3  0  0  0  0  0  0
  186.9450  177.0820  137.1680 O   0  0  0  0  0  1  0  0  0  0  0  0
  186.6630  177.6620  139.4520 C   0  0  0  0  0  2  0  0  0  0  0  0
  189.4500  177.7940  140.6870 C   0  0  2  0  0  3  0  0  0  0  0  0
  187.1020  178.8050  140.3690 C   0  0  1  0  0  3  0  0  0  0  0  0
  189.1650  176.4200  140.0860 C   0  0  0  0  0  2  0  0  0  0  0  0
  190.8730  175.5770  137.5160 N   0  0  0  0  0  2  0  0  0  0  0  0
  190.1610  177.7850  137.1740 O   0  0  0  0  0  0  0  0  0  0  0  0
  189.9640  176.6670  137.7280 C   0  0  0  0  0  0  0  0  0  0  0  0
  193.6060  176.1080  137.4060 S   0  0  0  0  0  0  0  0  0  0  0  0
  192.1110  175.6270  136.7920 C   0  0  0  0  0  0  0  0  0  0  0  0
  192.2700  175.2270  135.4640 C   0  0  0  0  0  0  0  0  0  0  0  0
  193.5930  175.3340  135.0080 C   0  0  0  0  0  3  0  0  0  0  0  0
  194.4570  175.8240  135.9800 C   0  0  0  0  0  0  0  0  0  0  0  0
  191.1840  174.6480  134.5950 C   0  0  2  0  0  3  0  0  0  0  0  0
  190.0350  175.4440  134.6230 O   0  0  0  0  0  1  0  0  0  0  0  0
  189.8120  173.0550  136.0290 C   0  0  0  0  0  1  0  0  0  0  0  0
  190.8370  173.1880  134.9150 C   0  0  0  0  0  3  0  0  0  0  0  0
  192.0800  172.3800  135.2440 C   0  0  0  0  0  1  0  0  0  0  0  0
  195.9280  175.9930  135.7970 C   0  0  0  0  0  2  0  0  0  0  0  0
  198.0200  175.0270  136.3970 O   0  0  0  0  0  1  0  0  0  0  0  0
  196.6760  174.7230  136.1620 C   0  0  1  0  0  3  0  0  0  0  0  0
  196.0600  174.1300  137.4140 C   0  0  0  0  0  2  0  0  0  0  0  0
  196.9430  174.4080  138.6160 C   0  0  0  0  0  1  0  0  0  0  0  0
  185.8700  179.2930  141.1220 C   0  0  0  0  0  2  0  0  0  0  0  0
  185.1100  177.9180  142.0350 S   0  0  0  0  0  0  0  0  0  0  0  0
  182.8000  177.7910  139.0230 C   0  0  2  0  0  3  0  0  0  0  0  0
  183.5200  179.5320  140.5080 C   0  0  0  0  0  2  0  0  0  0  0  0
  183.5190  179.1220  139.0510 C   0  0  0  0  0  2  0  0  0  0  0  0
  183.4780  178.2440  141.3120 C   0  0  1  0  0  3  0  0  0  0  0  0
  183.1240  177.1270  140.3430 C   0  0  0  0  0  2  0  0  0  0  0  0
  183.2840  176.9220  137.8740 C   0  0  0  0  0  2  0  0  0  0  0  0
  182.8140  174.8100  136.5070 C   0  0  1  0  0  3  0  0  0  0  0  0
  182.0820  173.4440  136.3970 C   0  0  1  0  0  3  0  0  0  0  0  0
  179.8400  175.3620  138.0720 C   0  0  0  0  0  2  0  0  0  0  0  0
  180.5430  173.4990  136.5310 C   0  0  2  0  0  3  0  0  0  0  0  0
  180.9280  176.2730  137.5080 C   0  0  2  0  0  3  0  0  0  0  0  0
  180.1490  173.8750  137.9510 C   0  0  0  0  0  2  0  0  0  0  0  0
  180.6000  176.7250  136.0910 C   0  0  0  0  0  1  0  0  0  0  0  0
  182.3540  175.7270  137.6740 C   0  0  2  0  0  3  0  0  0  0  0  0
  179.8930  172.1880  136.2050 C   0  0  0  0  0  0  0  0  0  0  0  0
  179.4600  171.9810  135.0410 O   0  0  0  0  0  0  0  0  0  0  0  0
  179.7630  171.2050  137.1790 O   0  0  0  0  0  1  0  0  0  0  0  0
  184.2960  174.5680  136.5700 C   0  0  0  0  0  0  0  0  0  0  0  0
  184.8590  173.9240  137.6660 O   0  0  0  0  0  1  0  0  0  0  0  0
  185.0330  174.9510  135.6240 O   0  0  0  0  0  0  0  0  0  0  0  0
  182.5150  172.7130  135.1160 C   0  0  0  0  0  2  0  0  0  0  0  0
  183.0200  171.3000  135.4040 C   0  0  0  0  0  2  0  0  0  0  0  0
  184.5410  169.6300  134.5970 O   0  0  0  0  0  1  0  0  0  0  0  0
  184.3140  171.0070  134.6570 C   0  0  0  0  0  3  0  0  0  0  0  0
  185.3910  171.6380  135.2790 O   0  0  0  0  0  1  0  0  0  0  0  0
  190.5700  177.7080  141.5780 O   0  0  0  0  0  0  0  0  0  0  0  0
  189.0580  177.7050  148.0470 C   0  0  0  0  0  2  0  0  0  0  0  0
  191.5760  177.3770  143.7370 C   0  0  0  0  0  3  0  0  0  0  0  0
  187.6500  177.3890  147.8460 N   0  0  0  0  0  2  0  0  0  0  0  0
  187.6030  177.1600  145.4190 C   0  0  0  0  0  2  0  0  0  0  0  0
  189.9310  176.8360  147.1510 C   0  0  0  0  0  2  0  0  0  0  0  0
  191.4440  176.9480  145.1680 C   0  0  0  0  0  2  0  0  0  0  0  0
  190.5080  177.3430  142.9330 C   0  0  0  0  0  0  0  0  0  0  0  0
  187.2010  178.0170  146.6090 C   0  0  0  0  0  2  0  0  0  0  0  0
  189.1930  176.9050  143.5040 C   0  0  0  0  0  2  0  0  0  0  0  0
  190.1790  177.5290  145.8140 C   0  0  1  0  0  3  0  0  0  0  0  0
  188.9480  177.6030  144.8450 C   0  0  2  0  0  3  0  0  0  0  0  0
  2  5  1  6  0  0  0
  2  4  1  0  0  0  0
  2  6  1  0  0  0  0
  3  1  1  6  0  0  0
  4 12  1  6  0  0  0
  4  9  1  0  0  0  0
  6  8  1  0  0  0  0
  7  3  1  0  0  0  0
  7 55  1  1  0  0  0
  8 28  1  1  0  0  0
  8  3  1  0  0  0  0
  9  7  1  0  0  0  0
 10 12  1  0  0  0  0
 11 12  2  0  0  0  0
 14 13  1  0  0  0  0
 14 10  1  0  0  0  0
 15 14  2  0  0  0  0
 16 15  1  0  0  0  0
 16 17  2  0  0  0  0
 17 13  1  0  0  0  0
 18 19  1  1  0  0  0
 18 21  1  0  0  0  0
 18 15  1  0  0  0  0
 21 22  1  0  0  0  0
 21 20  1  0  0  0  0
 23 17  1  0  0  0  0
 23 25  1  0  0  0  0
 25 24  1  1  0  0  0
 25 26  1  0  0  0  0
 26 27  1  0  0  0  0
 28 29  1  0  0  0  0
 30 35  1  6  0  0  0
 30 32  1  0  0  0  0
 30 34  1  0  0  0  0
 31 33  1  0  0  0  0
 32 31  1  0  0  0  0
 33 29  1  6  0  0  0
 34 33  1  0  0  0  0
 36 47  1  1  0  0  0
 36 43  1  0  0  0  0
 37 50  1  6  0  0  0
 37 36  1  0  0  0  0
 37 39  1  0  0  0  0
 39 44  1  1  0  0  0
 39 41  1  0  0  0  0
 40 42  1  6  0  0  0
 40 43  1  0  0  0  0
 40 38  1  0  0  0  0
 41 38  1  0  0  0  0
 43 35  1  6  0  0  0
 44 46  1  0  0  0  0
 45 44  2  0  0  0  0
 47 48  1  0  0  0  0
 49 47  2  0  0  0  0
 50 51  1  0  0  0  0
 52 53  1  0  0  0  0
 53 54  1  0  0  0  0
 53 51  1  0  0  0  0
 55 62  1  0  0  0  0
 57 61  1  0  0  0  0
 58 56  1  0  0  0  0
 59 63  1  0  0  0  0
 60 56  1  0  0  0  0
 62 64  1  0  0  0  0
 62 57  2  0  0  0  0
 63 58  1  0  0  0  0
 65 61  1  6  0  0  0
 65 60  1  0  0  0  0
 66 64  1  6  0  0  0
 66 59  1  0  0  0  0
 66 65  1  0  0  0  0
M  END
>  <MODEL>
3

>  <REMARK>
 VINA RESULT:      -5.7      3.185     10.463
  Name = 
  19 active torsions:
  status: ('A' for Active; 'I' for Inactive)
    1  A    between atoms: C_1  and  C_32
    2  A    between atoms: C_2  and  C_37
    3  A    between atoms: C_2  and  C_47
    4  A    between atoms: C_3  and  C_13
    5  A    between atoms: C_10  and  C_59
    6  A    between atoms: N_12  and  C_36
    7  A    between atoms: C_13  and  C_60
    8  A    between atoms: C_14  and  C_21
    9  A    between atoms: C_18  and  C_54
   10  A    between atoms: C_19  and  C_47
   11  A    between atoms: C_29  and  C_49
   12  A    between atoms: C_31  and  S_57
   13  A    between atoms: C_33  and  O_46
   14  A    between atoms: C_38  and  C_49
   15  A    between atoms: C_42  and  O_46
   16  A    between atoms: C_53  and  C_55
   17  A    between atoms: C_53  and  S_57
   18  A    between atoms: C_59  and  C_61
   19  A    between atoms: C_61  and  C_66
                            x       y       z     vdW  Elec       q    Type
                         _______ _______ _______ _____ _____    ______ ____

>  <TORSDO>
F 19

$$$$
=
 OpenBabel11042409553D

 66 71  0  0  1  0  0  0  0  0999 V2000
  191.8060  176.5680  140.6990 C   0  0  0  0  0  1  0  0  0  0  0  0
  187.9960  177.3370  138.3650 C   0  0  1  0  0  3  0  0  0  0  0  0
  190.9060  177.4080  139.7990 C   0  0  2  0  0  3  0  0  0  0  0  0
  187.7940  178.6180  139.1910 C   0  0  2  0  0  3  0  0  0  0  0  0
  187.0420  177.2900  137.3510 O   0  0  0  0  0  1  0  0  0  0  0  0
  189.3830  177.2580  137.7440 C   0  0  0  0  0  2  0  0  0  0  0  0
  189.8080  178.0750  140.6530 C   0  0  2  0  0  3  0  0  0  0  0  0
  190.3410  176.5130  138.6740 C   0  0  1  0  0  3  0  0  0  0  0  0
  189.0610  179.1510  139.8680 C   0  0  0  0  0  2  0  0  0  0  0  0
  185.3130  178.7540  139.7660 N   0  0  0  0  0  2  0  0  0  0  0  0
  186.9230  178.1770  141.3690 O   0  0  0  0  0  0  0  0  0  0  0  0
  186.6640  178.5020  140.1770 C   0  0  0  0  0  0  0  0  0  0  0  0
  184.1070  178.3900  142.2510 S   0  0  0  0  0  0  0  0  0  0  0  0
  184.1550  178.7860  140.6130 C   0  0  0  0  0  0  0  0  0  0  0  0
  182.8880  179.2080  140.2080 C   0  0  0  0  0  0  0  0  0  0  0  0
  181.9400  179.1860  141.2430 C   0  0  0  0  0  3  0  0  0  0  0  0
  182.4710  178.7380  142.4470 C   0  0  0  0  0  0  0  0  0  0  0  0
  182.5420  179.7290  138.8370 C   0  0  2  0  0  3  0  0  0  0  0  0
  183.1670  180.9550  138.5900 O   0  0  0  0  0  1  0  0  0  0  0  0
  180.6800  179.5880  137.1070 C   0  0  0  0  0  1  0  0  0  0  0  0
  181.0350  179.8270  138.5660 C   0  0  0  0  0  3  0  0  0  0  0  0
  180.4710  181.1570  139.0340 C   0  0  0  0  0  1  0  0  0  0  0  0
  181.7120  178.6610  143.7290 C   0  0  0  0  0  2  0  0  0  0  0  0
  179.5680  177.9630  144.4960 O   0  0  0  0  0  1  0  0  0  0  0  0
  180.2130  178.6760  143.4820 C   0  0  1  0  0  3  0  0  0  0  0  0
  179.7280  180.1120  143.4800 C   0  0  0  0  0  2  0  0  0  0  0  0
  178.9310  180.3950  142.2210 C   0  0  0  0  0  1  0  0  0  0  0  0
  191.4810  175.9660  137.8230 C   0  0  0  0  0  2  0  0  0  0  0  0
  191.1510  176.2750  136.0630 S   0  0  0  0  0  0  0  0  0  0  0  0
  188.1420  174.0030  135.6030 C   0  0  2  0  0  3  0  0  0  0  0  0
  189.9820  174.0530  137.1420 C   0  0  0  0  0  2  0  0  0  0  0  0
  188.4700  174.1130  137.0750 C   0  0  0  0  0  2  0  0  0  0  0  0
  190.4870  174.6040  135.8190 C   0  0  1  0  0  3  0  0  0  0  0  0
  189.2930  174.6680  134.8800 C   0  0  0  0  0  2  0  0  0  0  0  0
  186.8400  174.7140  135.2690 C   0  0  0  0  0  2  0  0  0  0  0  0
  184.3340  174.3840  135.6640 C   0  0  1  0  0  3  0  0  0  0  0  0
  183.0610  173.5260  135.4250 C   0  0  1  0  0  3  0  0  0  0  0  0
  185.5120  171.1890  135.6370 C   0  0  0  0  0  2  0  0  0  0  0  0
  183.1570  172.0500  135.8760 C   0  0  2  0  0  3  0  0  0  0  0  0
  186.0750  172.5240  136.1180 C   0  0  2  0  0  3  0  0  0  0  0  0
  184.1350  171.2910  134.9920 C   0  0  0  0  0  2  0  0  0  0  0  0
  185.8290  172.7310  137.6070 C   0  0  0  0  0  1  0  0  0  0  0  0
  185.6770  173.7240  135.2470 C   0  0  2  0  0  3  0  0  0  0  0  0
  181.8360  171.3450  135.8110 C   0  0  0  0  0  0  0  0  0  0  0  0
  181.1810  171.1530  136.8700 O   0  0  0  0  0  1  0  0  0  0  0  0
  181.3340  170.9000  134.5940 O   0  0  0  0  0  0  0  0  0  0  0  0
  184.1600  175.7160  134.9900 C   0  0  0  0  0  0  0  0  0  0  0  0
  185.2560  176.5410  134.7660 O   0  0  0  0  0  1  0  0  0  0  0  0
  183.0130  176.0880  134.6260 O   0  0  0  0  0  0  0  0  0  0  0  0
  181.8310  174.2240  136.0270 C   0  0  0  0  0  2  0  0  0  0  0  0
  182.1040  174.7610  137.4300 C   0  0  0  0  0  2  0  0  0  0  0  0
  179.8200  174.0950  137.7350 O   0  0  0  0  0  1  0  0  0  0  0  0
  180.8150  174.9460  138.2190 C   0  0  0  0  0  3  0  0  0  0  0  0
  180.3830  176.2710  138.1450 O   0  0  0  0  0  1  0  0  0  0  0  0
  190.3250  178.6340  141.8670 O   0  0  0  0  0  0  0  0  0  0  0  0
  188.7710  177.5000  148.2260 C   0  0  0  0  0  2  0  0  0  0  0  0
  191.3150  177.9210  143.9390 C   0  0  0  0  0  3  0  0  0  0  0  0
  187.3620  177.2330  147.9640 N   0  0  0  0  0  2  0  0  0  0  0  0
  187.3300  177.4360  145.5350 C   0  0  0  0  0  2  0  0  0  0  0  0
  189.6450  176.7970  147.1950 C   0  0  0  0  0  2  0  0  0  0  0  0
  191.1720  177.2480  145.2720 C   0  0  0  0  0  2  0  0  0  0  0  0
  190.2520  178.0360  143.1360 C   0  0  0  0  0  0  0  0  0  0  0  0
  186.9240  178.0710  146.8550 C   0  0  0  0  0  2  0  0  0  0  0  0
  188.9310  177.5130  143.6140 C   0  0  0  0  0  2  0  0  0  0  0  0
  189.9050  177.7140  146.0030 C   0  0  1  0  0  3  0  0  0  0  0  0
  188.6820  177.9650  145.0560 C   0  0  2  0  0  3  0  0  0  0  0  0
  2  5  1  6  0  0  0
  2  4  1  0  0  0  0
  3  7  1  0  0  0  0
  3  1  1  1  0  0  0
  4  9  1  0  0  0  0
  4 12  1  1  0  0  0
  6  2  1  0  0  0  0
  6  8  1  0  0  0  0
  7 55  1  1  0  0  0
  8 28  1  6  0  0  0
  8  3  1  0  0  0  0
  9  7  1  0  0  0  0
 10 12  1  0  0  0  0
 10 14  1  0  0  0  0
 12 11  2  0  0  0  0
 13 17  1  0  0  0  0
 14 13  1  0  0  0  0
 15 14  2  0  0  0  0
 15 16  1  0  0  0  0
 16 17  2  0  0  0  0
 17 23  1  0  0  0  0
 18 19  1  1  0  0  0
 18 15  1  0  0  0  0
 20 21  1  0  0  0  0
 21 18  1  0  0  0  0
 21 22  1  0  0  0  0
 25 23  1  0  0  0  0
 25 24  1  1  0  0  0
 26 25  1  0  0  0  0
 27 26  1  0  0  0  0
 29 28  1  0  0  0  0
 30 35  1  1  0  0  0
 30 32  1  0  0  0  0
 32 31  1  0  0  0  0
 33 29  1  1  0  0  0
 33 31  1  0  0  0  0
 34 30  1  0  0  0  0
 34 33  1  0  0  0  0
 36 47  1  6  0  0  0
 37 36  1  0  0  0  0
 37 39  1  0  0  0  0
 37 50  1  1  0  0  0
 38 40  1  0  0  0  0
 39 44  1  6  0  0  0
 40 42  1  1  0  0  0
 41 38  1  0  0  0  0
 41 39  1  0  0  0  0
 43 35  1  1  0  0  0
 43 36  1  0  0  0  0
 43 40  1  0  0  0  0
 44 45  1  0  0  0  0
 46 44  2  0  0  0  0
 48 47  1  0  0  0  0
 49 47  2  0  0  0  0
 50 51  1  0  0  0  0
 51 53  1  0  0  0  0
 52 53  1  0  0  0  0
 54 53  1  0  0  0  0
 55 62  1  0  0  0  0
 57 61  1  0  0  0  0
 58 56  1  0  0  0  0
 59 63  1  0  0  0  0
 60 56  1  0  0  0  0
 62 64  1  0  0  0  0
 62 57  2  0  0  0  0
 63 58  1  0  0  0  0
 65 61  1  6  0  0  0
 65 60  1  0  0  0  0
 66 64  1  6  0  0  0
 66 59  1  0  0  0  0
 66 65  1  0  0  0  0
M  END
>  <MODEL>
4

>  <REMARK>
 VINA RESULT:      -5.6      2.663      9.228
  Name = 
  19 active torsions:
  status: ('A' for Active; 'I' for Inactive)
    1  A    between atoms: C_1  and  C_32
    2  A    between atoms: C_2  and  C_37
    3  A    between atoms: C_2  and  C_47
    4  A    between atoms: C_3  and  C_13
    5  A    between atoms: C_10  and  C_59
    6  A    between atoms: N_12  and  C_36
    7  A    between atoms: C_13  and  C_60
    8  A    between atoms: C_14  and  C_21
    9  A    between atoms: C_18  and  C_54
   10  A    between atoms: C_19  and  C_47
   11  A    between atoms: C_29  and  C_49
   12  A    between atoms: C_31  and  S_57
   13  A    between atoms: C_33  and  O_46
   14  A    between atoms: C_38  and  C_49
   15  A    between atoms: C_42  and  O_46
   16  A    between atoms: C_53  and  C_55
   17  A    between atoms: C_53  and  S_57
   18  A    between atoms: C_59  and  C_61
   19  A    between atoms: C_61  and  C_66
                            x       y       z     vdW  Elec       q    Type
                         _______ _______ _______ _____ _____    ______ ____

>  <TORSDO>
F 19

$$$$
=
 OpenBabel11042409553D

 66 71  0  0  1  0  0  0  0  0999 V2000
  190.4100  174.3760  136.6940 C   0  0  0  0  0  1  0  0  0  0  0  0
  188.3970  177.6300  139.1260 C   0  0  1  0  0  3  0  0  0  0  0  0
  190.2290  175.8190  137.1540 C   0  0  2  0  0  3  0  0  0  0  0  0
  189.7650  177.9610  139.7450 C   0  0  2  0  0  3  0  0  0  0  0  0
  187.4670  178.5850  139.5320 O   0  0  0  0  0  1  0  0  0  0  0  0
  188.4390  177.5950  137.6050 C   0  0  0  0  0  2  0  0  0  0  0  0
  190.8560  175.9930  138.5520 C   0  0  2  0  0  3  0  0  0  0  0  0
  188.7270  176.1770  137.1130 C   0  0  1  0  0  3  0  0  0  0  0  0
  190.9700  177.4660  138.9380 C   0  0  0  0  0  2  0  0  0  0  0  0
  188.8580  177.9190  142.1290 N   0  0  0  0  0  2  0  0  0  0  0  0
  190.8580  176.8400  141.5470 O   0  0  0  0  0  0  0  0  0  0  0  0
  189.8690  177.5380  141.1840 C   0  0  0  0  0  0  0  0  0  0  0  0
  190.2230  177.8030  144.5550 S   0  0  0  0  0  0  0  0  0  0  0  0
  188.8800  177.6810  143.5440 C   0  0  0  0  0  0  0  0  0  0  0  0
  187.7580  177.3590  144.3110 C   0  0  0  0  0  0  0  0  0  0  0  0
  188.0430  177.2230  145.6780 C   0  0  0  0  0  3  0  0  0  0  0  0
  189.3860  177.4320  145.9690 C   0  0  0  0  0  0  0  0  0  0  0  0
  186.3500  177.2470  143.7870 C   0  0  2  0  0  3  0  0  0  0  0  0
  186.2660  177.6910  142.4630 O   0  0  0  0  0  1  0  0  0  0  0  0
  184.8040  179.2510  144.0550 C   0  0  0  0  0  1  0  0  0  0  0  0
  185.3000  177.9470  144.6590 C   0  0  0  0  0  3  0  0  0  0  0  0
  185.8140  178.1800  146.0690 C   0  0  0  0  0  1  0  0  0  0  0  0
  189.9680  177.4050  147.3430 C   0  0  0  0  0  2  0  0  0  0  0  0
  192.1220  177.5120  148.3520 O   0  0  0  0  0  1  0  0  0  0  0  0
  191.4000  176.9020  147.3230 C   0  0  1  0  0  3  0  0  0  0  0  0
  191.3990  175.3990  147.5220 C   0  0  0  0  0  2  0  0  0  0  0  0
  192.4900  174.9980  148.4960 C   0  0  0  0  0  1  0  0  0  0  0  0
  188.2060  176.0680  135.6850 C   0  0  0  0  0  2  0  0  0  0  0  0
  189.0700  174.7340  134.8040 S   0  0  0  0  0  0  0  0  0  0  0  0
  185.5350  173.9600  135.9580 C   0  0  2  0  0  3  0  0  0  0  0  0
  187.5060  172.6400  135.5980 C   0  0  0  0  0  2  0  0  0  0  0  0
  186.5080  173.0420  136.6640 C   0  0  0  0  0  2  0  0  0  0  0  0
  187.5400  173.7810  134.5960 C   0  0  1  0  0  3  0  0  0  0  0  0
  186.3460  174.6720  134.8970 C   0  0  0  0  0  2  0  0  0  0  0  0
  184.9320  174.9730  136.9160 C   0  0  0  0  0  2  0  0  0  0  0  0
  183.3540  176.9790  136.7280 C   0  0  1  0  0  3  0  0  0  0  0  0
  182.1440  177.6450  136.0160 C   0  0  1  0  0  3  0  0  0  0  0  0
  181.3180  174.3540  135.9750 C   0  0  0  0  0  2  0  0  0  0  0  0
  180.8330  176.8250  136.0190 C   0  0  2  0  0  3  0  0  0  0  0  0
  182.4980  174.5440  136.9240 C   0  0  2  0  0  3  0  0  0  0  0  0
  180.9810  175.5890  135.1470 C   0  0  0  0  0  2  0  0  0  0  0  0
  182.0340  174.8780  138.3360 C   0  0  0  0  0  1  0  0  0  0  0  0
  183.5910  175.4810  136.3890 C   0  0  2  0  0  3  0  0  0  0  0  0
  179.6650  177.6120  135.5080 C   0  0  0  0  0  0  0  0  0  0  0  0
  178.9390  177.1290  134.5990 O   0  0  0  0  0  0  0  0  0  0  0  0
  179.3820  178.8710  136.0260 O   0  0  0  0  0  1  0  0  0  0  0  0
  184.5890  177.7910  136.4570 C   0  0  0  0  0  0  0  0  0  0  0  0
  185.1510  178.5730  137.4590 O   0  0  0  0  0  1  0  0  0  0  0  0
  185.1190  177.7630  135.3150 O   0  0  0  0  0  0  0  0  0  0  0  0
  181.9270  179.0660  136.5600 C   0  0  0  0  0  2  0  0  0  0  0  0
  181.9140  179.1010  138.0860 C   0  0  0  0  0  2  0  0  0  0  0  0
  181.7780  180.9480  139.6110 O   0  0  0  0  0  1  0  0  0  0  0  0
  181.0830  180.2640  138.6120 C   0  0  0  0  0  3  0  0  0  0  0  0
  179.8630  179.8050  139.1120 O   0  0  0  0  0  1  0  0  0  0  0  0
  192.1410  175.3660  138.6560 O   0  0  0  0  0  0  0  0  0  0  0  0
  197.9420  175.2250  135.4210 C   0  0  0  0  0  2  0  0  0  0  0  0
  193.1960  176.2030  136.6640 C   0  0  0  0  0  3  0  0  0  0  0  0
  198.3720  173.9550  135.9920 N   0  0  0  0  0  2  0  0  0  0  0  0
  196.4170  173.4060  137.3420 C   0  0  0  0  0  2  0  0  0  0  0  0
  196.4800  175.1500  135.0020 C   0  0  0  0  0  2  0  0  0  0  0  0
  194.2180  176.0360  135.5790 C   0  0  0  0  0  2  0  0  0  0  0  0
  193.0920  175.2800  137.6260 C   0  0  0  0  0  0  0  0  0  0  0  0
  197.8690  173.8590  137.3570 C   0  0  0  0  0  2  0  0  0  0  0  0
  194.0320  174.1130  137.6050 C   0  0  0  0  0  2  0  0  0  0  0  0
  195.5730  175.5940  136.1470 C   0  0  1  0  0  3  0  0  0  0  0  0
  195.4620  174.5990  137.3530 C   0  0  2  0  0  3  0  0  0  0  0  0
  2  5  1  6  0  0  0
  2  4  1  0  0  0  0
  3  1  1  1  0  0  0
  3  7  1  0  0  0  0
  4 12  1  1  0  0  0
  6  2  1  0  0  0  0
  7 55  1  6  0  0  0
  7  9  1  0  0  0  0
  8 28  1  6  0  0  0
  8  3  1  0  0  0  0
  8  6  1  0  0  0  0
  9  4  1  0  0  0  0
 10 14  1  0  0  0  0
 12 11  2  0  0  0  0
 12 10  1  0  0  0  0
 13 17  1  0  0  0  0
 14 15  2  0  0  0  0
 14 13  1  0  0  0  0
 15 16  1  0  0  0  0
 16 17  2  0  0  0  0
 17 23  1  0  0  0  0
 18 19  1  6  0  0  0
 18 15  1  0  0  0  0
 18 21  1  0  0  0  0
 20 21  1  0  0  0  0
 21 22  1  0  0  0  0
 25 23  1  0  0  0  0
 25 26  1  0  0  0  0
 25 24  1  1  0  0  0
 26 27  1  0  0  0  0
 29 28  1  0  0  0  0
 30 32  1  0  0  0  0
 30 35  1  1  0  0  0
 31 32  1  0  0  0  0
 33 29  1  1  0  0  0
 33 34  1  0  0  0  0
 33 31  1  0  0  0  0
 34 30  1  0  0  0  0
 36 47  1  6  0  0  0
 37 39  1  0  0  0  0
 37 50  1  1  0  0  0
 37 36  1  0  0  0  0
 38 40  1  0  0  0  0
 39 44  1  6  0  0  0
 40 42  1  1  0  0  0
 41 38  1  0  0  0  0
 41 39  1  0  0  0  0
 43 36  1  0  0  0  0
 43 35  1  1  0  0  0
 43 40  1  0  0  0  0
 44 46  1  0  0  0  0
 45 44  2  0  0  0  0
 47 48  1  0  0  0  0
 49 47  2  0  0  0  0
 50 51  1  0  0  0  0
 51 53  1  0  0  0  0
 53 54  1  0  0  0  0
 53 52  1  0  0  0  0
 56 58  1  0  0  0  0
 57 62  2  0  0  0  0
 58 63  1  0  0  0  0
 59 63  1  0  0  0  0
 60 56  1  0  0  0  0
 61 65  1  0  0  0  0
 61 57  1  0  0  0  0
 62 55  1  0  0  0  0
 64 62  1  0  0  0  0
 65 60  1  6  0  0  0
 65 66  1  0  0  0  0
 66 59  1  6  0  0  0
 66 64  1  0  0  0  0
M  END
>  <MODEL>
5

>  <REMARK>
 VINA RESULT:      -4.6      3.596     11.505
  Name = 
  19 active torsions:
  status: ('A' for Active; 'I' for Inactive)
    1  A    between atoms: C_1  and  C_32
    2  A    between atoms: C_2  and  C_37
    3  A    between atoms: C_2  and  C_47
    4  A    between atoms: C_3  and  C_13
    5  A    between atoms: C_10  and  C_59
    6  A    between atoms: N_12  and  C_36
    7  A    between atoms: C_13  and  C_60
    8  A    between atoms: C_14  and  C_21
    9  A    between atoms: C_18  and  C_54
   10  A    between atoms: C_19  and  C_47
   11  A    between atoms: C_29  and  C_49
   12  A    between atoms: C_31  and  S_57
   13  A    between atoms: C_33  and  O_46
   14  A    between atoms: C_38  and  C_49
   15  A    between atoms: C_42  and  O_46
   16  A    between atoms: C_53  and  C_55
   17  A    between atoms: C_53  and  S_57
   18  A    between atoms: C_59  and  C_61
   19  A    between atoms: C_61  and  C_66
                            x       y       z     vdW  Elec       q    Type
                         _______ _______ _______ _____ _____    ______ ____

>  <TORSDO>
F 19

$$$$
=
 OpenBabel11042409553D

 66 71  0  0  1  0  0  0  0  0999 V2000
  188.5210  176.7630  138.2040 C   0  0  0  0  0  1  0  0  0  0  0  0
  187.3310  173.4550  135.3410 C   0  0  1  0  0  3  0  0  0  0  0  0
  188.3360  176.1660  136.8120 C   0  0  2  0  0  3  0  0  0  0  0  0
  186.3430  174.4320  134.6830 C   0  0  2  0  0  3  0  0  0  0  0  0
  187.3810  172.2800  134.5940 O   0  0  0  0  0  1  0  0  0  0  0  0
  188.7340  174.0320  135.4520 C   0  0  0  0  0  2  0  0  0  0  0  0
  186.8440  176.2200  136.4260 C   0  0  2  0  0  3  0  0  0  0  0  0
  188.9170  174.7350  136.7970 C   0  0  1  0  0  3  0  0  0  0  0  0
  186.6350  175.9130  134.9450 C   0  0  0  0  0  2  0  0  0  0  0  0
  183.8570  174.9990  134.5980 N   0  0  0  0  0  2  0  0  0  0  0  0
  184.6420  173.0260  135.5940 O   0  0  0  0  0  0  0  0  0  0  0  0
  184.9080  174.1040  134.9900 C   0  0  0  0  0  0  0  0  0  0  0  0
  181.6740  173.4570  135.3860 S   0  0  0  0  0  0  0  0  0  0  0  0
  182.4640  174.8710  134.9140 C   0  0  0  0  0  0  0  0  0  0  0  0
  181.5530  175.9280  134.9290 C   0  0  0  0  0  0  0  0  0  0  0  0
  180.2610  175.5420  135.3160 C   0  0  0  0  0  3  0  0  0  0  0  0
  180.1690  174.1830  135.5940 C   0  0  0  0  0  0  0  0  0  0  0  0
  181.8910  177.3700  134.6520 C   0  0  2  0  0  3  0  0  0  0  0  0
  183.1910  177.6740  135.0690 O   0  0  0  0  0  1  0  0  0  0  0  0
  179.4430  177.9830  134.9800 C   0  0  0  0  0  1  0  0  0  0  0  0
  180.8890  178.3730  135.2390 C   0  0  0  0  0  3  0  0  0  0  0  0
  181.1540  179.7820  134.7390 C   0  0  0  0  0  1  0  0  0  0  0  0
  178.9340  173.5010  136.0790 C   0  0  0  0  0  2  0  0  0  0  0  0
  180.3650  172.2420  137.5060 O   0  0  0  0  0  1  0  0  0  0  0  0
  179.1400  172.9120  137.4640 C   0  0  1  0  0  3  0  0  0  0  0  0
  179.1360  174.0340  138.4830 C   0  0  0  0  0  2  0  0  0  0  0  0
  180.4240  174.0190  139.2840 C   0  0  0  0  0  1  0  0  0  0  0  0
  190.4100  174.7760  137.0990 C   0  0  0  0  0  2  0  0  0  0  0  0
  190.9580  176.4960  137.3120 S   0  0  0  0  0  0  0  0  0  0  0  0
  191.4190  177.1030  141.0330 C   0  0  2  0  0  3  0  0  0  0  0  0
  192.8830  177.1620  139.1330 C   0  0  0  0  0  2  0  0  0  0  0  0
  192.3380  178.0200  140.2550 C   0  0  0  0  0  2  0  0  0  0  0  0
  191.8280  176.1040  138.8550 C   0  0  1  0  0  3  0  0  0  0  0  0
  190.8440  176.1440  140.0130 C   0  0  0  0  0  2  0  0  0  0  0  0
  190.2990  177.8790  141.7050 C   0  0  0  0  0  2  0  0  0  0  0  0
  188.9340  178.1050  143.8580 C   0  0  1  0  0  3  0  0  0  0  0  0
  188.6240  177.5780  145.2860 C   0  0  1  0  0  3  0  0  0  0  0  0
  191.9640  177.0500  145.0010 C   0  0  0  0  0  2  0  0  0  0  0  0
  189.8290  177.5200  146.2530 C   0  0  2  0  0  3  0  0  0  0  0  0
  191.5180  177.9510  143.8530 C   0  0  2  0  0  3  0  0  0  0  0  0
  190.8140  176.4520  145.8050 C   0  0  0  0  0  2  0  0  0  0  0  0
  191.5530  179.4210  144.2480 C   0  0  0  0  0  1  0  0  0  0  0  0
  190.2050  177.5150  143.1850 C   0  0  2  0  0  3  0  0  0  0  0  0
  189.4190  177.2080  147.6600 C   0  0  0  0  0  0  0  0  0  0  0  0
  189.2240  176.0110  147.9990 O   0  0  0  0  0  0  0  0  0  0  0  0
  189.2500  178.2290  148.5880 O   0  0  0  0  0  1  0  0  0  0  0  0
  187.7250  177.9030  142.9880 C   0  0  0  0  0  0  0  0  0  0  0  0
  187.6770  178.4490  141.7100 O   0  0  0  0  0  0  0  0  0  0  0  0
  186.7490  177.2340  143.4190 O   0  0  0  0  0  1  0  0  0  0  0  0
  187.4460  178.3560  145.8930 C   0  0  0  0  0  2  0  0  0  0  0  0
  186.2060  177.4800  146.0650 C   0  0  0  0  0  2  0  0  0  0  0  0
  183.8810  177.9650  145.7310 O   0  0  0  0  0  1  0  0  0  0  0  0
  184.9990  178.2990  146.4990 C   0  0  0  0  0  3  0  0  0  0  0  0
  185.2660  179.6640  146.3790 O   0  0  0  0  0  1  0  0  0  0  0  0
  186.2420  177.4810  136.7480 O   0  0  0  0  0  0  0  0  0  0  0  0
  181.3190  179.7860  140.5660 C   0  0  0  0  0  2  0  0  0  0  0  0
  185.8460  178.4410  138.9160 C   0  0  0  0  0  3  0  0  0  0  0  0
  180.2800  178.9920  139.9210 N   0  0  0  0  0  2  0  0  0  0  0  0
  181.6250  177.7410  138.3190 C   0  0  0  0  0  2  0  0  0  0  0  0
  182.5580  178.9370  140.8130 C   0  0  0  0  0  2  0  0  0  0  0  0
  184.9290  178.6520  140.0840 C   0  0  0  0  0  2  0  0  0  0  0  0
  185.4250  177.7340  137.8620 C   0  0  0  0  0  0  0  0  0  0  0  0
  180.6050  178.8530  138.5070 C   0  0  0  0  0  2  0  0  0  0  0  0
  184.0250  177.1990  137.8680 C   0  0  0  0  0  2  0  0  0  0  0  0
  183.5130  179.0270  139.6260 C   0  0  1  0  0  3  0  0  0  0  0  0
  183.0510  178.2900  138.3220 C   0  0  2  0  0  3  0  0  0  0  0  0
  2  5  1  6  0  0  0
  2  6  1  0  0  0  0
  3  1  1  1  0  0  0
  4  9  1  0  0  0  0
  4 12  1  1  0  0  0
  4  2  1  0  0  0  0
  6  8  1  0  0  0  0
  7 55  1  6  0  0  0
  7  3  1  0  0  0  0
  8  3  1  0  0  0  0
  8 28  1  6  0  0  0
  9  7  1  0  0  0  0
 10 14  1  0  0  0  0
 10 12  1  0  0  0  0
 12 11  2  0  0  0  0
 13 17  1  0  0  0  0
 14 15  2  0  0  0  0
 14 13  1  0  0  0  0
 15 16  1  0  0  0  0
 16 17  2  0  0  0  0
 17 23  1  0  0  0  0
 18 15  1  0  0  0  0
 18 19  1  1  0  0  0
 18 21  1  0  0  0  0
 20 21  1  0  0  0  0
 22 21  1  0  0  0  0
 23 25  1  0  0  0  0
 25 24  1  6  0  0  0
 25 26  1  0  0  0  0
 26 27  1  0  0  0  0
 28 29  1  0  0  0  0
 30 35  1  6  0  0  0
 31 32  1  0  0  0  0
 32 30  1  0  0  0  0
 33 29  1  6  0  0  0
 33 31  1  0  0  0  0
 33 34  1  0  0  0  0
 34 30  1  0  0  0  0
 36 47  1  6  0  0  0
 36 37  1  0  0  0  0
 37 50  1  1  0  0  0
 37 39  1  0  0  0  0
 38 41  1  0  0  0  0
 39 44  1  1  0  0  0
 40 42  1  1  0  0  0
 40 38  1  0  0  0  0
 41 39  1  0  0  0  0
 43 35  1  6  0  0  0
 43 40  1  0  0  0  0
 43 36  1  0  0  0  0
 44 45  2  0  0  0  0
 44 46  1  0  0  0  0
 47 49  1  0  0  0  0
 48 47  2  0  0  0  0
 50 51  1  0  0  0  0
 51 53  1  0  0  0  0
 52 53  1  0  0  0  0
 54 53  1  0  0  0  0
 55 62  1  0  0  0  0
 56 60  1  0  0  0  0
 57 61  1  0  0  0  0
 58 56  1  0  0  0  0
 59 66  1  0  0  0  0
 59 63  1  0  0  0  0
 62 64  1  0  0  0  0
 62 57  2  0  0  0  0
 63 58  1  0  0  0  0
 65 61  1  1  0  0  0
 65 60  1  0  0  0  0
 66 64  1  1  0  0  0
 66 65  1  0  0  0  0
M  END
>  <MODEL>
6

>  <REMARK>
 VINA RESULT:      -4.4      1.682      3.135
  Name = 
  19 active torsions:
  status: ('A' for Active; 'I' for Inactive)
    1  A    between atoms: C_1  and  C_32
    2  A    between atoms: C_2  and  C_37
    3  A    between atoms: C_2  and  C_47
    4  A    between atoms: C_3  and  C_13
    5  A    between atoms: C_10  and  C_59
    6  A    between atoms: N_12  and  C_36
    7  A    between atoms: C_13  and  C_60
    8  A    between atoms: C_14  and  C_21
    9  A    between atoms: C_18  and  C_54
   10  A    between atoms: C_19  and  C_47
   11  A    between atoms: C_29  and  C_49
   12  A    between atoms: C_31  and  S_57
   13  A    between atoms: C_33  and  O_46
   14  A    between atoms: C_38  and  C_49
   15  A    between atoms: C_42  and  O_46
   16  A    between atoms: C_53  and  C_55
   17  A    between atoms: C_53  and  S_57
   18  A    between atoms: C_59  and  C_61
   19  A    between atoms: C_61  and  C_66
                            x       y       z     vdW  Elec       q    Type
                         _______ _______ _______ _____ _____    ______ ____

>  <TORSDO>
F 19

$$$$
