=
 OpenBabel11042413043D

 40 41  0  0  1  0  0  0  0  0999 V2000
  183.3370  177.7830  137.7520 N   0  0  0  0  0  2  0  0  0  0  0  0
  181.3910  178.1110  139.2720 N   0  0  0  0  0  0  0  0  0  0  0  0
  182.4780  177.2930  138.7950 C   0  0  0  0  0  0  0  0  0  0  0  0
  182.6690  176.1410  139.2720 O   0  0  0  0  0  0  0  0  0  0  0  0
  184.4870  177.0620  137.2140 C   0  0  1  0  0  3  0  0  0  0  0  0
  184.4470  177.0590  135.6930 C   0  0  0  0  0  1  0  0  0  0  0  0
  185.7880  177.6620  137.7250 C   0  0  0  0  0  2  0  0  0  0  0  0
  186.7810  177.6780  136.6650 N   0  0  0  0  0  2  0  0  0  0  0  0
  187.8410  176.7720  137.0770 C   0  0  0  0  0  2  0  0  0  0  0  0
  189.2070  177.4560  137.0200 C   0  0  1  0  0  3  0  0  0  0  0  0
  189.0920  178.9340  137.3480 C   0  0  0  0  0  1  0  0  0  0  0  0
  190.0690  175.1960  138.2050 O   0  0  0  0  0  0  0  0  0  0  0  0
  190.3520  177.3940  139.7060 C   0  0  0  0  0  1  0  0  0  0  0  0
  191.7880  176.8050  137.5200 O   0  0  0  0  0  0  0  0  0  0  0  0
  190.4030  176.6580  138.0880 S   0  0  0  0  0  0  0  0  0  0  0  0
  180.7210  177.8480  140.5290 C   0  0  0  0  0  0  0  0  0  0  0  0
  179.6020  176.6420  140.6140 S   0  0  0  0  0  0  0  0  0  0  0  0
  180.9620  178.7600  141.6800 C   0  0  0  0  0  3  0  0  0  0  0  0
  182.0640  178.9360  142.4210 C   0  0  0  0  0  3  0  0  0  0  0  0
  183.3780  178.2450  142.2380 C   0  0  0  0  0  2  0  0  0  0  0  0
  187.5990  177.2440  144.1890 C   0  0  0  0  0  2  0  0  0  0  0  0
  185.5810  179.5300  140.5960 O   0  0  0  0  0  0  0  0  0  0  0  0
  186.6800  177.9570  143.5340 C   0  0  0  0  0  0  0  0  0  0  0  0
  184.5330  179.1130  142.7290 C   0  0  2  0  0  3  0  0  0  0  0  0
  186.8260  178.3640  142.1850 N   0  0  0  0  0  0  0  0  0  0  0  0
  185.6580  179.0340  141.7510 C   0  0  0  0  0  0  0  0  0  0  0  0
  185.1660  178.4760  144.3340 S   0  0  0  0  0  0  0  0  0  0  0  0
  188.8280  175.6010  142.8850 O   0  0  0  0  0  1  0  0  0  0  0  0
  188.8110  176.7610  143.5910 N   0  0  0  0  0  0  0  0  0  0  0  0
  190.0660  177.3960  143.9730 C   0  0  1  0  0  3  0  0  0  0  0  0
  191.7990  175.8520  144.4570 O   0  0  0  0  0  0  0  0  0  0  0  0
  190.2480  177.3260  145.4630 C   0  0  0  0  0  2  0  0  0  0  0  0
  191.5590  176.5910  145.6250 C   0  0  0  0  0  2  0  0  0  0  0  0
  191.2480  176.6230  143.4210 C   0  0  0  0  0  2  0  0  0  0  0  0
  180.9660  179.2400  138.4460 C   0  0  0  0  0  2  0  0  0  0  0  0
  181.6630  180.5100  138.9030 C   0  0  0  0  0  2  0  0  0  0  0  0
  180.7960  181.6890  138.6420 C   0  0  0  0  0  0  0  0  0  0  0  0
  180.3110  183.7560  137.2850 C   0  0  0  0  0  1  0  0  0  0  0  0
  181.1240  182.5880  137.5820 N   0  0  0  0  0  2  0  0  0  0  0  0
  179.7710  181.8780  139.3510 O   0  0  0  0  0  0  0  0  0  0  0  0
  1  3  1  0  0  0  0
  2 16  1  0  0  0  0
  3  4  2  0  0  0  0
  3  2  1  0  0  0  0
  5  6  1  6  0  0  0
  5  7  1  0  0  0  0
  5  1  1  0  0  0  0
  8  9  1  0  0  0  0
  8  7  1  0  0  0  0
 10  9  1  0  0  0  0
 10 11  1  1  0  0  0
 10 15  1  0  0  0  0
 14 15  2  0  0  0  0
 15 12  2  0  0  0  0
 15 13  1  0  0  0  0
 16 17  2  0  0  0  0
 16 18  1  0  0  0  0
 18 19  2  0  0  0  0
 20 19  1  0  0  0  0
 22 26  2  0  0  0  0
 23 21  1  0  0  0  0
 23 27  1  0  0  0  0
 24 20  1  6  0  0  0
 24 27  1  0  0  0  0
 25 23  2  0  0  0  0
 26 25  1  0  0  0  0
 26 24  1  0  0  0  0
 28 29  1  0  0  0  0
 29 21  1  0  0  0  0
 30 29  1  1  0  0  0
 30 32  1  0  0  0  0
 31 33  1  0  0  0  0
 32 33  1  0  0  0  0
 34 30  1  0  0  0  0
 34 31  1  0  0  0  0
 35 36  1  0  0  0  0
 35  2  1  0  0  0  0
 37 36  1  0  0  0  0
 37 40  2  0  0  0  0
 38 39  1  0  0  0  0
 39 37  1  0  0  0  0
M  END
>  <MODEL>
1

>  <REMARK>
 VINA RESULT:      -6.8      0.000      0.000
  Name = 
  15 active torsions:
  status: ('A' for Active; 'I' for Inactive)
    1  A    between atoms: C_1  and  C_2
    2  A    between atoms: C_1  and  C_23
    3  A    between atoms: N_3  and  C_6
    4  A    between atoms: C_4  and  C_6
    5  A    between atoms: C_4  and  N_7
    6  A    between atoms: C_5  and  N_31
    7  A    between atoms: N_7  and  C_37
    8  A    between atoms: C_9  and  C_20
    9  A    between atoms: C_9  and  N_21
   10  A    between atoms: C_12  and  N_31
   11  A    between atoms: C_13  and  C_37
   12  A    between atoms: C_13  and  S_39
   13  A    between atoms: N_21  and  C_23
   14  A    between atoms: C_22  and  C_33
   15  A    between atoms: C_25  and  C_33
                            x       y       z     vdW  Elec       q    Type
                         _______ _______ _______ _____ _____    ______ ____

>  <TORSDO>
F 15

$$$$
=
 OpenBabel11042413043D

 40 41  0  0  1  0  0  0  0  0999 V2000
  184.1520  178.5430  141.7780 N   0  0  0  0  0  2  0  0  0  0  0  0
  182.5640  178.4950  139.8600 N   0  0  0  0  0  0  0  0  0  0  0  0
  183.7620  179.0100  140.4770 C   0  0  0  0  0  0  0  0  0  0  0  0
  184.4580  179.8830  139.8900 O   0  0  0  0  0  0  0  0  0  0  0  0
  185.3590  178.9650  142.4860 C   0  0  1  0  0  3  0  0  0  0  0  0
  185.2530  178.6240  143.9640 C   0  0  0  0  0  1  0  0  0  0  0  0
  186.5960  178.3320  141.8670 C   0  0  0  0  0  2  0  0  0  0  0  0
  187.2110  177.4140  142.8090 N   0  0  0  0  0  2  0  0  0  0  0  0
  188.6390  177.4340  142.5350 C   0  0  0  0  0  2  0  0  0  0  0  0
  189.4170  176.6530  143.5930 C   0  0  1  0  0  3  0  0  0  0  0  0
  190.4740  175.7690  142.9530 C   0  0  0  0  0  1  0  0  0  0  0  0
  190.7780  178.9130  144.1360 O   0  0  0  0  0  0  0  0  0  0  0  0
  191.4040  176.8530  145.7250 C   0  0  0  0  0  1  0  0  0  0  0  0
  189.0970  178.2180  145.7800 O   0  0  0  0  0  0  0  0  0  0  0  0
  190.1490  177.7320  144.8220 S   0  0  0  0  0  0  0  0  0  0  0  0
  182.3030  178.6400  138.4420 C   0  0  0  0  0  0  0  0  0  0  0  0
  181.6720  180.0520  137.8760 S   0  0  0  0  0  0  0  0  0  0  0  0
  182.4840  177.4620  137.5510 C   0  0  0  0  0  3  0  0  0  0  0  0
  183.6050  176.9400  137.0350 C   0  0  0  0  0  3  0  0  0  0  0  0
  185.0000  177.4230  137.2690 C   0  0  0  0  0  2  0  0  0  0  0  0
  189.7380  177.5350  136.8530 C   0  0  0  0  0  3  0  0  0  0  0  0
  186.0800  174.5890  137.2420 O   0  0  0  0  0  0  0  0  0  0  0  0
  188.4950  177.0740  136.6920 C   0  0  0  0  0  0  0  0  0  0  0  0
  185.9760  176.7970  136.2760 C   0  0  2  0  0  3  0  0  0  0  0  0
  188.0570  175.8240  137.1920 N   0  0  0  0  0  2  0  0  0  0  0  0
  186.6770  175.6530  136.9300 C   0  0  0  0  0  0  0  0  0  0  0  0
  187.2660  178.0190  135.7990 S   0  0  0  0  0  0  0  0  0  0  0  0
  190.8220  176.9460  138.9480 O   0  0  0  0  0  1  0  0  0  0  0  0
  190.7540  176.8460  137.5960 N   0  0  0  0  0  0  0  0  0  0  0  0
  191.8620  176.2520  136.8560 C   0  0  1  0  0  3  0  0  0  0  0  0
  192.5460  174.1480  137.7060 O   0  0  0  0  0  0  0  0  0  0  0  0
  193.1450  176.4330  137.6160 C   0  0  0  0  0  2  0  0  0  0  0  0
  193.6410  175.0200  137.8160 C   0  0  0  0  0  2  0  0  0  0  0  0
  191.6990  174.7480  136.7620 C   0  0  0  0  0  2  0  0  0  0  0  0
  181.5950  177.8050  140.7090 C   0  0  0  0  0  2  0  0  0  0  0  0
  180.2690  178.5490  140.6960 C   0  0  0  0  0  2  0  0  0  0  0  0
  180.0130  179.1550  142.0280 C   0  0  0  0  0  0  0  0  0  0  0  0
  179.1510  178.9090  144.3830 C   0  0  0  0  0  1  0  0  0  0  0  0
  179.4250  178.3660  143.0640 N   0  0  0  0  0  2  0  0  0  0  0  0
  180.3270  180.3590  142.2370 O   0  0  0  0  0  0  0  0  0  0  0  0
  1  5  1  0  0  0  0
  2  3  1  0  0  0  0
  2 35  1  0  0  0  0
  3  1  1  0  0  0  0
  4  3  2  0  0  0  0
  5  6  1  1  0  0  0
  7  5  1  0  0  0  0
  7  8  1  0  0  0  0
  9  8  1  0  0  0  0
  9 10  1  0  0  0  0
 10 11  1  6  0  0  0
 10 15  1  0  0  0  0
 12 15  2  0  0  0  0
 15 13  1  0  0  0  0
 15 14  2  0  0  0  0
 16  2  1  0  0  0  0
 17 16  2  0  0  0  0
 18 16  1  0  0  0  0
 19 20  1  0  0  0  0
 19 18  2  0  0  0  0
 21 29  1  0  0  0  0
 23 21  2  0  0  0  0
 23 25  1  0  0  0  0
 24 26  1  0  0  0  0
 24 20  1  1  0  0  0
 26 25  1  0  0  0  0
 26 22  2  0  0  0  0
 27 24  1  0  0  0  0
 27 23  1  0  0  0  0
 29 28  1  0  0  0  0
 30 29  1  1  0  0  0
 30 32  1  0  0  0  0
 31 33  1  0  0  0  0
 32 33  1  0  0  0  0
 34 30  1  0  0  0  0
 34 31  1  0  0  0  0
 36 35  1  0  0  0  0
 36 37  1  0  0  0  0
 37 40  2  0  0  0  0
 37 39  1  0  0  0  0
 39 38  1  0  0  0  0
M  END
>  <MODEL>
2

>  <REMARK>
 VINA RESULT:      -6.5      2.635      6.150
  Name = 
  15 active torsions:
  status: ('A' for Active; 'I' for Inactive)
    1  A    between atoms: C_1  and  C_2
    2  A    between atoms: C_1  and  C_23
    3  A    between atoms: N_3  and  C_6
    4  A    between atoms: C_4  and  C_6
    5  A    between atoms: C_4  and  N_7
    6  A    between atoms: C_5  and  N_31
    7  A    between atoms: N_7  and  C_37
    8  A    between atoms: C_9  and  C_20
    9  A    between atoms: C_9  and  N_21
   10  A    between atoms: C_12  and  N_31
   11  A    between atoms: C_13  and  C_37
   12  A    between atoms: C_13  and  S_39
   13  A    between atoms: N_21  and  C_23
   14  A    between atoms: C_22  and  C_33
   15  A    between atoms: C_25  and  C_33
                            x       y       z     vdW  Elec       q    Type
                         _______ _______ _______ _____ _____    ______ ____

>  <TORSDO>
F 15

$$$$
=
 OpenBabel11042413043D

 40 41  0  0  1  0  0  0  0  0999 V2000
  184.5370  178.1500  142.3720 N   0  0  0  0  0  2  0  0  0  0  0  0
  183.2140  178.4970  140.2910 N   0  0  0  0  0  0  0  0  0  0  0  0
  184.3690  178.7970  141.1000 C   0  0  0  0  0  0  0  0  0  0  0  0
  185.2230  179.6390  140.7080 O   0  0  0  0  0  0  0  0  0  0  0  0
  185.6800  178.3470  143.2610 C   0  0  1  0  0  3  0  0  0  0  0  0
  185.2120  178.4980  144.7000 C   0  0  0  0  0  1  0  0  0  0  0  0
  186.6720  177.2010  143.1250 C   0  0  0  0  0  2  0  0  0  0  0  0
  187.5030  177.1190  144.3130 N   0  0  0  0  0  2  0  0  0  0  0  0
  188.7740  177.7370  143.9730 C   0  0  0  0  0  2  0  0  0  0  0  0
  189.6370  177.9530  145.2160 C   0  0  1  0  0  3  0  0  0  0  0  0
  189.0310  177.2640  146.4270 C   0  0  0  0  0  1  0  0  0  0  0  0
  192.1270  178.5590  144.3880 O   0  0  0  0  0  0  0  0  0  0  0  0
  191.3670  176.0570  143.8230 C   0  0  0  0  0  1  0  0  0  0  0  0
  191.9420  176.9960  146.2670 O   0  0  0  0  0  0  0  0  0  0  0  0
  191.3280  177.4210  144.9620 S   0  0  0  0  0  0  0  0  0  0  0  0
  183.1540  178.8240  138.8810 C   0  0  0  0  0  0  0  0  0  0  0  0
  182.6230  180.3130  138.4160 S   0  0  0  0  0  0  0  0  0  0  0  0
  183.4450  177.7600  137.8810 C   0  0  0  0  0  3  0  0  0  0  0  0
  184.5970  177.4410  137.2780 C   0  0  0  0  0  3  0  0  0  0  0  0
  185.9260  178.0890  137.5000 C   0  0  0  0  0  2  0  0  0  0  0  0
  189.6860  175.4790  136.2030 C   0  0  0  0  0  3  0  0  0  0  0  0
  188.3230  178.8560  139.1930 O   0  0  0  0  0  0  0  0  0  0  0  0
  188.8770  176.1580  137.0200 C   0  0  0  0  0  0  0  0  0  0  0  0
  186.8710  177.1670  138.2660 C   0  0  2  0  0  3  0  0  0  0  0  0
  189.2810  177.3150  137.7310 N   0  0  0  0  0  2  0  0  0  0  0  0
  188.1860  177.8510  138.4470 C   0  0  0  0  0  0  0  0  0  0  0  0
  187.1880  175.6370  137.2950 S   0  0  0  0  0  0  0  0  0  0  0  0
  191.3330  176.5450  134.7660 O   0  0  0  0  0  1  0  0  0  0  0  0
  191.0340  175.8700  135.9070 N   0  0  0  0  0  0  0  0  0  0  0  0
  192.1070  175.3070  136.7180 C   0  0  1  0  0  3  0  0  0  0  0  0
  194.0150  176.7060  136.8640 O   0  0  0  0  0  0  0  0  0  0  0  0
  193.1840  174.7480  135.8330 C   0  0  0  0  0  2  0  0  0  0  0  0
  194.4200  175.5080  136.2550 C   0  0  0  0  0  2  0  0  0  0  0  0
  192.8080  176.3950  137.5090 C   0  0  0  0  0  2  0  0  0  0  0  0
  182.0760  177.8410  140.9320 C   0  0  0  0  0  2  0  0  0  0  0  0
  181.3620  178.8190  141.8510 C   0  0  0  0  0  2  0  0  0  0  0  0
  180.2230  179.4510  141.1350 C   0  0  0  0  0  0  0  0  0  0  0  0
  178.9310  181.5320  140.5420 C   0  0  0  0  0  1  0  0  0  0  0  0
  180.0290  180.8640  141.2210 N   0  0  0  0  0  2  0  0  0  0  0  0
  179.4450  178.7360  140.4480 O   0  0  0  0  0  0  0  0  0  0  0  0
  1  5  1  0  0  0  0
  2 35  1  0  0  0  0
  2  3  1  0  0  0  0
  3  1  1  0  0  0  0
  4  3  2  0  0  0  0
  5  6  1  1  0  0  0
  7  5  1  0  0  0  0
  7  8  1  0  0  0  0
  9  8  1  0  0  0  0
  9 10  1  0  0  0  0
 10 11  1  1  0  0  0
 12 15  2  0  0  0  0
 13 15  1  0  0  0  0
 15 10  1  0  0  0  0
 15 14  2  0  0  0  0
 16  2  1  0  0  0  0
 17 16  2  0  0  0  0
 18 16  1  0  0  0  0
 19 20  1  0  0  0  0
 19 18  2  0  0  0  0
 21 23  2  0  0  0  0
 23 27  1  0  0  0  0
 23 25  1  0  0  0  0
 24 20  1  6  0  0  0
 24 26  1  0  0  0  0
 25 26  1  0  0  0  0
 26 22  2  0  0  0  0
 27 24  1  0  0  0  0
 28 29  1  0  0  0  0
 29 21  1  0  0  0  0
 30 29  1  6  0  0  0
 30 34  1  0  0  0  0
 31 34  1  0  0  0  0
 32 33  1  0  0  0  0
 32 30  1  0  0  0  0
 33 31  1  0  0  0  0
 35 36  1  0  0  0  0
 37 39  1  0  0  0  0
 37 36  1  0  0  0  0
 38 39  1  0  0  0  0
 40 37  2  0  0  0  0
M  END
>  <MODEL>
3

>  <REMARK>
 VINA RESULT:      -6.4      2.747      6.418
  Name = 
  15 active torsions:
  status: ('A' for Active; 'I' for Inactive)
    1  A    between atoms: C_1  and  C_2
    2  A    between atoms: C_1  and  C_23
    3  A    between atoms: N_3  and  C_6
    4  A    between atoms: C_4  and  C_6
    5  A    between atoms: C_4  and  N_7
    6  A    between atoms: C_5  and  N_31
    7  A    between atoms: N_7  and  C_37
    8  A    between atoms: C_9  and  C_20
    9  A    between atoms: C_9  and  N_21
   10  A    between atoms: C_12  and  N_31
   11  A    between atoms: C_13  and  C_37
   12  A    between atoms: C_13  and  S_39
   13  A    between atoms: N_21  and  C_23
   14  A    between atoms: C_22  and  C_33
   15  A    between atoms: C_25  and  C_33
                            x       y       z     vdW  Elec       q    Type
                         _______ _______ _______ _____ _____    ______ ____

>  <TORSDO>
F 15

$$$$
=
 OpenBabel11042413043D

 40 41  0  0  1  0  0  0  0  0999 V2000
  186.9530  178.5510  139.4500 N   0  0  0  0  0  2  0  0  0  0  0  0
  189.2610  177.9740  138.7130 N   0  0  0  0  0  0  0  0  0  0  0  0
  188.2100  177.9000  139.6970 C   0  0  0  0  0  0  0  0  0  0  0  0
  188.3930  177.2830  140.7820 O   0  0  0  0  0  0  0  0  0  0  0  0
  185.8060  178.5160  140.3540 C   0  0  1  0  0  3  0  0  0  0  0  0
  186.1120  179.2880  141.6290 C   0  0  0  0  0  1  0  0  0  0  0  0
  184.5630  179.0630  139.6690 C   0  0  0  0  0  2  0  0  0  0  0  0
  183.5050  178.0680  139.6870 N   0  0  0  0  0  2  0  0  0  0  0  0
  182.8820  178.1490  140.9980 C   0  0  0  0  0  2  0  0  0  0  0  0
  181.5620  178.9170  140.9380 C   0  0  1  0  0  3  0  0  0  0  0  0
  180.6000  178.2740  139.9530 C   0  0  0  0  0  1  0  0  0  0  0  0
  180.2160  180.4570  142.6900 O   0  0  0  0  0  0  0  0  0  0  0  0
  182.0290  178.8470  143.8200 C   0  0  0  0  0  1  0  0  0  0  0  0
  179.7140  178.0580  142.7220 O   0  0  0  0  0  0  0  0  0  0  0  0
  180.8040  179.0800  142.5530 S   0  0  0  0  0  0  0  0  0  0  0  0
  190.3940  177.0720  138.7240 C   0  0  0  0  0  0  0  0  0  0  0  0
  190.2160  175.5400  138.1450 S   0  0  0  0  0  0  0  0  0  0  0  0
  191.6570  177.5060  139.3830 C   0  0  0  0  0  3  0  0  0  0  0  0
  192.0100  177.4630  140.6740 C   0  0  0  0  0  3  0  0  0  0  0  0
  191.1930  176.9180  141.8020 C   0  0  0  0  0  2  0  0  0  0  0  0
  189.2070  178.4630  145.8390 C   0  0  0  0  0  2  0  0  0  0  0  0
  192.0580  175.1380  144.1000 O   0  0  0  0  0  0  0  0  0  0  0  0
  190.1340  177.9150  145.0510 C   0  0  0  0  0  0  0  0  0  0  0  0
  191.7660  177.3380  143.1530 C   0  0  2  0  0  3  0  0  0  0  0  0
  190.5700  176.5720  145.1780 N   0  0  0  0  0  0  0  0  0  0  0  0
  191.4970  176.2640  144.1560 C   0  0  0  0  0  0  0  0  0  0  0  0
  190.9240  178.8590  143.7530 S   0  0  0  0  0  0  0  0  0  0  0  0
  189.1690  177.2120  147.9240 O   0  0  0  0  0  1  0  0  0  0  0  0
  188.5060  177.7470  146.8660 N   0  0  0  0  0  0  0  0  0  0  0  0
  187.1160  177.3810  146.6220 C   0  0  1  0  0  3  0  0  0  0  0  0
  186.1010  178.6310  144.8820 O   0  0  0  0  0  0  0  0  0  0  0  0
  186.1990  178.4020  147.2330 C   0  0  0  0  0  2  0  0  0  0  0  0
  185.3830  178.8930  146.0600 C   0  0  0  0  0  2  0  0  0  0  0  0
  186.7980  177.4410  145.1410 C   0  0  0  0  0  2  0  0  0  0  0  0
  189.1620  179.0000  137.6770 C   0  0  0  0  0  2  0  0  0  0  0  0
  189.1700  178.3530  136.3010 C   0  0  0  0  0  2  0  0  0  0  0  0
  187.8330  177.7790  136.0020 C   0  0  0  0  0  0  0  0  0  0  0  0
  186.4180  175.7620  135.4700 C   0  0  0  0  0  1  0  0  0  0  0  0
  187.7010  176.3750  135.7690 N   0  0  0  0  0  2  0  0  0  0  0  0
  186.8230  178.5330  135.9680 O   0  0  0  0  0  0  0  0  0  0  0  0
  1  3  1  0  0  0  0
  1  5  1  0  0  0  0
  2 16  1  0  0  0  0
  2  3  1  0  0  0  0
  3  4  2  0  0  0  0
  5  6  1  1  0  0  0
  7  8  1  0  0  0  0
  7  5  1  0  0  0  0
  8  9  1  0  0  0  0
 10 11  1  6  0  0  0
 10  9  1  0  0  0  0
 10 15  1  0  0  0  0
 15 12  2  0  0  0  0
 15 14  2  0  0  0  0
 15 13  1  0  0  0  0
 16 18  1  0  0  0  0
 17 16  2  0  0  0  0
 18 19  2  0  0  0  0
 19 20  1  0  0  0  0
 21 29  1  0  0  0  0
 22 26  2  0  0  0  0
 23 25  2  0  0  0  0
 23 21  1  0  0  0  0
 24 20  1  6  0  0  0
 24 27  1  0  0  0  0
 24 26  1  0  0  0  0
 26 25  1  0  0  0  0
 27 23  1  0  0  0  0
 29 28  1  0  0  0  0
 30 29  1  6  0  0  0
 30 32  1  0  0  0  0
 31 34  1  0  0  0  0
 31 33  1  0  0  0  0
 33 32  1  0  0  0  0
 34 30  1  0  0  0  0
 35  2  1  0  0  0  0
 36 35  1  0  0  0  0
 37 36  1  0  0  0  0
 38 39  1  0  0  0  0
 39 37  1  0  0  0  0
 40 37  2  0  0  0  0
M  END
>  <MODEL>
4

>  <REMARK>
 VINA RESULT:      -6.4      2.723      7.701
  Name = 
  15 active torsions:
  status: ('A' for Active; 'I' for Inactive)
    1  A    between atoms: C_1  and  C_2
    2  A    between atoms: C_1  and  C_23
    3  A    between atoms: N_3  and  C_6
    4  A    between atoms: C_4  and  C_6
    5  A    between atoms: C_4  and  N_7
    6  A    between atoms: C_5  and  N_31
    7  A    between atoms: N_7  and  C_37
    8  A    between atoms: C_9  and  C_20
    9  A    between atoms: C_9  and  N_21
   10  A    between atoms: C_12  and  N_31
   11  A    between atoms: C_13  and  C_37
   12  A    between atoms: C_13  and  S_39
   13  A    between atoms: N_21  and  C_23
   14  A    between atoms: C_22  and  C_33
   15  A    between atoms: C_25  and  C_33
                            x       y       z     vdW  Elec       q    Type
                         _______ _______ _______ _____ _____    ______ ____

>  <TORSDO>
F 15

$$$$
=
 OpenBabel11042413043D

 40 41  0  0  1  0  0  0  0  0999 V2000
  184.1240  177.7090  138.4670 N   0  0  0  0  0  2  0  0  0  0  0  0
  185.1840  176.0240  136.9700 N   0  0  0  0  0  0  0  0  0  0  0  0
  185.1680  177.3440  137.5500 C   0  0  0  0  0  0  0  0  0  0  0  0
  186.0550  178.1880  137.2430 O   0  0  0  0  0  0  0  0  0  0  0  0
  184.0240  179.0000  139.1430 C   0  0  1  0  0  3  0  0  0  0  0  0
  182.5660  179.3600  139.3850 C   0  0  0  0  0  1  0  0  0  0  0  0
  184.8080  178.9900  140.4460 C   0  0  0  0  0  2  0  0  0  0  0  0
  184.0660  178.2740  141.4690 N   0  0  0  0  0  2  0  0  0  0  0  0
  184.2950  178.9820  142.7180 C   0  0  0  0  0  2  0  0  0  0  0  0
  185.0770  178.1190  143.7090 C   0  0  1  0  0  3  0  0  0  0  0  0
  186.5150  177.9340  143.2560 C   0  0  0  0  0  1  0  0  0  0  0  0
  185.5860  180.1730  145.3760 O   0  0  0  0  0  0  0  0  0  0  0  0
  185.9760  177.7590  146.4640 C   0  0  0  0  0  1  0  0  0  0  0  0
  183.5930  178.8290  145.8610 O   0  0  0  0  0  0  0  0  0  0  0  0
  185.0140  178.7810  145.3720 S   0  0  0  0  0  0  0  0  0  0  0  0
  186.3650  175.4730  136.3370 C   0  0  0  0  0  0  0  0  0  0  0  0
  186.3740  175.2350  134.7070 S   0  0  0  0  0  0  0  0  0  0  0  0
  187.4920  175.0100  137.1910 C   0  0  0  0  0  3  0  0  0  0  0  0
  188.7550  175.4520  137.2610 C   0  0  0  0  0  3  0  0  0  0  0  0
  189.3450  176.5840  136.4830 C   0  0  0  0  0  2  0  0  0  0  0  0
  189.4410  177.4150  141.1650 C   0  0  0  0  0  2  0  0  0  0  0  0
  192.1190  175.9950  137.5570 O   0  0  0  0  0  0  0  0  0  0  0  0
  189.9000  177.3510  139.9140 C   0  0  0  0  0  0  0  0  0  0  0  0
  190.2180  177.4690  137.3680 C   0  0  2  0  0  3  0  0  0  0  0  0
  190.9780  176.5190  139.5210 N   0  0  0  0  0  0  0  0  0  0  0  0
  191.1790  176.6110  138.1240 C   0  0  0  0  0  0  0  0  0  0  0  0
  189.1810  178.3430  138.6100 S   0  0  0  0  0  0  0  0  0  0  0  0
  189.1700  175.6650  142.8320 O   0  0  0  0  0  1  0  0  0  0  0  0
  189.9450  176.6130  142.2430 N   0  0  0  0  0  0  0  0  0  0  0  0
  191.2040  177.0090  142.8640 C   0  0  1  0  0  3  0  0  0  0  0  0
  191.4190  176.2870  145.1110 O   0  0  0  0  0  0  0  0  0  0  0  0
  190.9840  178.1860  143.7720 C   0  0  0  0  0  2  0  0  0  0  0  0
  191.4630  177.6900  145.1160 C   0  0  0  0  0  2  0  0  0  0  0  0
  191.7110  175.9200  143.7890 C   0  0  0  0  0  2  0  0  0  0  0  0
  183.9580  175.2300  137.0340 C   0  0  0  0  0  2  0  0  0  0  0  0
  184.2620  173.8470  137.5870 C   0  0  0  0  0  2  0  0  0  0  0  0
  183.8070  172.8060  136.6290 C   0  0  0  0  0  0  0  0  0  0  0  0
  183.2010  170.4010  136.1800 C   0  0  0  0  0  1  0  0  0  0  0  0
  183.6420  171.4580  137.0750 N   0  0  0  0  0  2  0  0  0  0  0  0
  183.5590  173.1220  135.4350 O   0  0  0  0  0  0  0  0  0  0  0  0
  1  5  1  0  0  0  0
  2 35  1  0  0  0  0
  2  3  1  0  0  0  0
  3  1  1  0  0  0  0
  4  3  2  0  0  0  0
  5  6  1  1  0  0  0
  5  7  1  0  0  0  0
  7  8  1  0  0  0  0
  8  9  1  0  0  0  0
  9 10  1  0  0  0  0
 10 11  1  6  0  0  0
 10 15  1  0  0  0  0
 15 12  2  0  0  0  0
 15 14  2  0  0  0  0
 15 13  1  0  0  0  0
 16  2  1  0  0  0  0
 16 18  1  0  0  0  0
 17 16  2  0  0  0  0
 18 19  2  0  0  0  0
 20 19  1  0  0  0  0
 21 29  1  0  0  0  0
 22 26  2  0  0  0  0
 23 21  1  0  0  0  0
 24 20  1  6  0  0  0
 24 26  1  0  0  0  0
 24 27  1  0  0  0  0
 25 23  2  0  0  0  0
 26 25  1  0  0  0  0
 27 23  1  0  0  0  0
 29 28  1  0  0  0  0
 30 29  1  1  0  0  0
 30 32  1  0  0  0  0
 30 34  1  0  0  0  0
 31 33  1  0  0  0  0
 32 33  1  0  0  0  0
 34 31  1  0  0  0  0
 35 36  1  0  0  0  0
 37 39  1  0  0  0  0
 37 36  1  0  0  0  0
 38 39  1  0  0  0  0
 40 37  2  0  0  0  0
M  END
>  <MODEL>
5

>  <REMARK>
 VINA RESULT:      -6.2      2.891      6.960
  Name = 
  15 active torsions:
  status: ('A' for Active; 'I' for Inactive)
    1  A    between atoms: C_1  and  C_2
    2  A    between atoms: C_1  and  C_23
    3  A    between atoms: N_3  and  C_6
    4  A    between atoms: C_4  and  C_6
    5  A    between atoms: C_4  and  N_7
    6  A    between atoms: C_5  and  N_31
    7  A    between atoms: N_7  and  C_37
    8  A    between atoms: C_9  and  C_20
    9  A    between atoms: C_9  and  N_21
   10  A    between atoms: C_12  and  N_31
   11  A    between atoms: C_13  and  C_37
   12  A    between atoms: C_13  and  S_39
   13  A    between atoms: N_21  and  C_23
   14  A    between atoms: C_22  and  C_33
   15  A    between atoms: C_25  and  C_33
                            x       y       z     vdW  Elec       q    Type
                         _______ _______ _______ _____ _____    ______ ____

>  <TORSDO>
F 15

$$$$
=
 OpenBabel11042413043D

 40 41  0  0  1  0  0  0  0  0999 V2000
  186.4130  178.8790  141.1710 N   0  0  0  0  0  2  0  0  0  0  0  0
  188.0830  178.2160  139.4460 N   0  0  0  0  0  0  0  0  0  0  0  0
  186.7110  178.3740  139.8590 C   0  0  0  0  0  0  0  0  0  0  0  0
  185.7690  178.0520  139.0840 O   0  0  0  0  0  0  0  0  0  0  0  0
  185.0670  179.1140  141.6860 C   0  0  1  0  0  3  0  0  0  0  0  0
  184.1740  177.9150  141.4040 C   0  0  0  0  0  1  0  0  0  0  0  0
  185.1060  179.4270  143.1750 C   0  0  0  0  0  2  0  0  0  0  0  0
  185.0930  178.1960  143.9440 N   0  0  0  0  0  2  0  0  0  0  0  0
  185.8870  178.4440  145.1370 C   0  0  0  0  0  2  0  0  0  0  0  0
  186.7920  177.2550  145.4570 C   0  0  1  0  0  3  0  0  0  0  0  0
  187.5030  176.7570  144.2110 C   0  0  0  0  0  1  0  0  0  0  0  0
  188.3280  176.3750  147.4870 O   0  0  0  0  0  0  0  0  0  0  0  0
  187.2530  178.7900  147.8990 C   0  0  0  0  0  1  0  0  0  0  0  0
  189.2170  178.2350  146.1610 O   0  0  0  0  0  0  0  0  0  0  0  0
  187.9710  177.6370  146.7520 S   0  0  0  0  0  0  0  0  0  0  0  0
  188.4570  178.0600  138.0550 C   0  0  0  0  0  0  0  0  0  0  0  0
  189.0370  179.3570  137.2220 S   0  0  0  0  0  0  0  0  0  0  0  0
  188.1830  176.7640  137.3760 C   0  0  0  0  0  3  0  0  0  0  0  0
  188.9280  175.6530  137.3130 C   0  0  0  0  0  3  0  0  0  0  0  0
  190.2560  175.4350  137.9640 C   0  0  0  0  0  2  0  0  0  0  0  0
  194.9350  174.6010  138.1720 C   0  0  0  0  0  2  0  0  0  0  0  0
  191.0690  173.6510  135.6500 O   0  0  0  0  0  0  0  0  0  0  0  0
  193.7420  174.8050  137.6100 C   0  0  0  0  0  0  0  0  0  0  0  0
  191.3980  175.6410  136.9730 C   0  0  2  0  0  3  0  0  0  0  0  0
  193.0880  173.8440  136.7990 N   0  0  0  0  0  0  0  0  0  0  0  0
  191.8120  174.3190  136.4170 C   0  0  0  0  0  0  0  0  0  0  0  0
  192.8630  176.3470  137.8330 S   0  0  0  0  0  0  0  0  0  0  0  0
  195.2550  172.2530  138.7200 O   0  0  0  0  0  1  0  0  0  0  0  0
  195.6680  173.3710  138.0680 N   0  0  0  0  0  0  0  0  0  0  0  0
  196.9950  173.4120  137.4670 C   0  0  1  0  0  3  0  0  0  0  0  0
  197.7510  175.6070  136.9890 O   0  0  0  0  0  0  0  0  0  0  0  0
  196.8840  173.6490  135.9870 C   0  0  0  0  0  2  0  0  0  0  0  0
  197.6830  174.9130  135.7700 C   0  0  0  0  0  2  0  0  0  0  0  0
  197.7780  174.6080  137.9740 C   0  0  0  0  0  2  0  0  0  0  0  0
  189.1170  178.2190  140.4790 C   0  0  0  0  0  2  0  0  0  0  0  0
  189.3930  176.7970  140.9420 C   0  0  0  0  0  2  0  0  0  0  0  0
  190.4490  176.8000  141.9880 C   0  0  0  0  0  0  0  0  0  0  0  0
  191.5940  175.6300  143.9040 C   0  0  0  0  0  1  0  0  0  0  0  0
  190.5810  175.6780  142.8630 N   0  0  0  0  0  2  0  0  0  0  0  0
  191.2280  177.7860  142.0860 O   0  0  0  0  0  0  0  0  0  0  0  0
  1  5  1  0  0  0  0
  2  3  1  0  0  0  0
  2 35  1  0  0  0  0
  3  1  1  0  0  0  0
  4  3  2  0  0  0  0
  5  6  1  1  0  0  0
  5  7  1  0  0  0  0
  7  8  1  0  0  0  0
  8  9  1  0  0  0  0
  9 10  1  0  0  0  0
 10 11  1  6  0  0  0
 10 15  1  0  0  0  0
 14 15  2  0  0  0  0
 15 12  2  0  0  0  0
 15 13  1  0  0  0  0
 16  2  1  0  0  0  0
 17 16  2  0  0  0  0
 18 16  1  0  0  0  0
 19 18  2  0  0  0  0
 19 20  1  0  0  0  0
 22 26  2  0  0  0  0
 23 27  1  0  0  0  0
 23 21  1  0  0  0  0
 24 27  1  0  0  0  0
 24 20  1  1  0  0  0
 25 23  2  0  0  0  0
 26 25  1  0  0  0  0
 26 24  1  0  0  0  0
 29 21  1  0  0  0  0
 29 28  1  0  0  0  0
 30 34  1  0  0  0  0
 30 29  1  1  0  0  0
 31 34  1  0  0  0  0
 32 30  1  0  0  0  0
 33 32  1  0  0  0  0
 33 31  1  0  0  0  0
 35 36  1  0  0  0  0
 36 37  1  0  0  0  0
 37 40  2  0  0  0  0
 37 39  1  0  0  0  0
 39 38  1  0  0  0  0
M  END
>  <MODEL>
6

>  <REMARK>
 VINA RESULT:      -6.0      4.282      9.221
  Name = 
  15 active torsions:
  status: ('A' for Active; 'I' for Inactive)
    1  A    between atoms: C_1  and  C_2
    2  A    between atoms: C_1  and  C_23
    3  A    between atoms: N_3  and  C_6
    4  A    between atoms: C_4  and  C_6
    5  A    between atoms: C_4  and  N_7
    6  A    between atoms: C_5  and  N_31
    7  A    between atoms: N_7  and  C_37
    8  A    between atoms: C_9  and  C_20
    9  A    between atoms: C_9  and  N_21
   10  A    between atoms: C_12  and  N_31
   11  A    between atoms: C_13  and  C_37
   12  A    between atoms: C_13  and  S_39
   13  A    between atoms: N_21  and  C_23
   14  A    between atoms: C_22  and  C_33
   15  A    between atoms: C_25  and  C_33
                            x       y       z     vdW  Elec       q    Type
                         _______ _______ _______ _____ _____    ______ ____

>  <TORSDO>
F 15

$$$$
=
 OpenBabel11042413043D

 40 41  0  0  1  0  0  0  0  0999 V2000
  186.9010  178.4910  139.4990 N   0  0  0  0  0  2  0  0  0  0  0  0
  189.1960  177.9740  138.6830 N   0  0  0  0  0  0  0  0  0  0  0  0
  188.1730  177.8520  139.6910 C   0  0  0  0  0  0  0  0  0  0  0  0
  188.3930  177.2040  140.7510 O   0  0  0  0  0  0  0  0  0  0  0  0
  185.7790  178.4100  140.4320 C   0  0  1  0  0  3  0  0  0  0  0  0
  185.9800  179.3770  141.5890 C   0  0  0  0  0  1  0  0  0  0  0  0
  184.4630  178.6790  139.7170 C   0  0  0  0  0  2  0  0  0  0  0  0
  184.4930  179.9900  139.0940 N   0  0  0  0  0  2  0  0  0  0  0  0
  183.1200  180.3130  138.7410 C   0  0  0  0  0  2  0  0  0  0  0  0
  182.1940  179.1180  138.9650 C   0  0  1  0  0  3  0  0  0  0  0  0
  181.0630  179.4740  139.9140 C   0  0  0  0  0  1  0  0  0  0  0  0
  182.6760  177.8480  136.6390 O   0  0  0  0  0  0  0  0  0  0  0  0
  180.8320  179.7790  136.4680 C   0  0  0  0  0  1  0  0  0  0  0  0
  180.5070  177.4200  137.6990 O   0  0  0  0  0  0  0  0  0  0  0  0
  181.5520  178.4660  137.4260 S   0  0  0  0  0  0  0  0  0  0  0  0
  190.3420  177.0890  138.6350 C   0  0  0  0  0  0  0  0  0  0  0  0
  190.1780  175.5860  137.9810 S   0  0  0  0  0  0  0  0  0  0  0  0
  191.6060  177.5080  139.3000 C   0  0  0  0  0  3  0  0  0  0  0  0
  191.9720  177.4140  140.5850 C   0  0  0  0  0  3  0  0  0  0  0  0
  191.1710  176.8130  141.6960 C   0  0  0  0  0  2  0  0  0  0  0  0
  189.0850  178.2580  145.7190 C   0  0  0  0  0  2  0  0  0  0  0  0
  192.0550  175.0350  143.9890 O   0  0  0  0  0  0  0  0  0  0  0  0
  190.0380  177.7450  144.9390 C   0  0  0  0  0  0  0  0  0  0  0  0
  191.7130  177.2350  143.0590 C   0  0  2  0  0  3  0  0  0  0  0  0
  190.5110  176.4150  145.0600 N   0  0  0  0  0  0  0  0  0  0  0  0
  191.4620  176.1440  144.0470 C   0  0  0  0  0  0  0  0  0  0  0  0
  190.8180  178.7250  143.6620 S   0  0  0  0  0  0  0  0  0  0  0  0
  189.0700  176.8220  147.6810 O   0  0  0  0  0  1  0  0  0  0  0  0
  188.3910  177.5110  146.7290 N   0  0  0  0  0  0  0  0  0  0  0  0
  186.9590  177.2940  146.5600 C   0  0  1  0  0  3  0  0  0  0  0  0
  185.9520  178.7820  145.0130 O   0  0  0  0  0  0  0  0  0  0  0  0
  186.1860  178.3330  147.3230 C   0  0  0  0  0  2  0  0  0  0  0  0
  185.3430  178.9990  146.2590 C   0  0  0  0  0  2  0  0  0  0  0  0
  186.5490  177.5160  145.1170 C   0  0  0  0  0  2  0  0  0  0  0  0
  189.0540  179.0310  137.6830 C   0  0  0  0  0  2  0  0  0  0  0  0
  187.8170  178.7820  136.8350 C   0  0  0  0  0  2  0  0  0  0  0  0
  188.0600  177.6510  135.9020 C   0  0  0  0  0  0  0  0  0  0  0  0
  187.3980  175.3730  135.0490 C   0  0  0  0  0  1  0  0  0  0  0  0
  187.2040  176.5070  135.9380 N   0  0  0  0  0  2  0  0  0  0  0  0
  189.0130  177.7150  135.0790 O   0  0  0  0  0  0  0  0  0  0  0  0
  1  3  1  0  0  0  0
  1  5  1  0  0  0  0
  2  3  1  0  0  0  0
  3  4  2  0  0  0  0
  5  6  1  1  0  0  0
  7  5  1  0  0  0  0
  8  7  1  0  0  0  0
  9 10  1  0  0  0  0
  9  8  1  0  0  0  0
 10 11  1  1  0  0  0
 12 15  2  0  0  0  0
 13 15  1  0  0  0  0
 15 14  2  0  0  0  0
 15 10  1  0  0  0  0
 16  2  1  0  0  0  0
 16 18  1  0  0  0  0
 17 16  2  0  0  0  0
 18 19  2  0  0  0  0
 19 20  1  0  0  0  0
 21 29  1  0  0  0  0
 22 26  2  0  0  0  0
 23 25  2  0  0  0  0
 23 21  1  0  0  0  0
 24 20  1  6  0  0  0
 24 27  1  0  0  0  0
 24 26  1  0  0  0  0
 26 25  1  0  0  0  0
 27 23  1  0  0  0  0
 29 28  1  0  0  0  0
 30 29  1  6  0  0  0
 30 32  1  0  0  0  0
 31 34  1  0  0  0  0
 31 33  1  0  0  0  0
 33 32  1  0  0  0  0
 34 30  1  0  0  0  0
 35  2  1  0  0  0  0
 36 35  1  0  0  0  0
 37 39  1  0  0  0  0
 37 36  1  0  0  0  0
 38 39  1  0  0  0  0
 40 37  2  0  0  0  0
M  END
>  <MODEL>
7

>  <REMARK>
 VINA RESULT:      -5.9      2.682      7.460
  Name = 
  15 active torsions:
  status: ('A' for Active; 'I' for Inactive)
    1  A    between atoms: C_1  and  C_2
    2  A    between atoms: C_1  and  C_23
    3  A    between atoms: N_3  and  C_6
    4  A    between atoms: C_4  and  C_6
    5  A    between atoms: C_4  and  N_7
    6  A    between atoms: C_5  and  N_31
    7  A    between atoms: N_7  and  C_37
    8  A    between atoms: C_9  and  C_20
    9  A    between atoms: C_9  and  N_21
   10  A    between atoms: C_12  and  N_31
   11  A    between atoms: C_13  and  C_37
   12  A    between atoms: C_13  and  S_39
   13  A    between atoms: N_21  and  C_23
   14  A    between atoms: C_22  and  C_33
   15  A    between atoms: C_25  and  C_33
                            x       y       z     vdW  Elec       q    Type
                         _______ _______ _______ _____ _____    ______ ____

>  <TORSDO>
F 15

$$$$
=
 OpenBabel11042413043D

 40 41  0  0  1  0  0  0  0  0999 V2000
  190.5520  176.3860  141.0860 N   0  0  0  0  0  2  0  0  0  0  0  0
  190.1080  176.6160  138.6460 N   0  0  0  0  0  0  0  0  0  0  0  0
  189.6840  176.7870  140.0130 C   0  0  0  0  0  0  0  0  0  0  0  0
  188.5470  177.2680  140.2740 O   0  0  0  0  0  0  0  0  0  0  0  0
  190.2470  176.5420  142.5060 C   0  0  1  0  0  3  0  0  0  0  0  0
  191.0220  175.5250  143.3300 C   0  0  0  0  0  1  0  0  0  0  0  0
  190.5430  177.9610  142.9690 C   0  0  0  0  0  2  0  0  0  0  0  0
  189.3960  178.5060  143.6720 N   0  0  0  0  0  2  0  0  0  0  0  0
  188.8360  177.4180  144.4580 C   0  0  0  0  0  2  0  0  0  0  0  0
  188.1440  177.9420  145.7160 C   0  0  1  0  0  3  0  0  0  0  0  0
  186.6920  177.5000  145.7640 C   0  0  0  0  0  1  0  0  0  0  0  0
  189.0680  178.6290  148.1510 O   0  0  0  0  0  0  0  0  0  0  0  0
  190.6630  176.9480  146.8110 C   0  0  0  0  0  1  0  0  0  0  0  0
  188.2860  176.3210  147.8810 O   0  0  0  0  0  0  0  0  0  0  0  0
  189.0060  177.4570  147.2090 S   0  0  0  0  0  0  0  0  0  0  0  0
  189.4640  177.3040  137.5460 C   0  0  0  0  0  0  0  0  0  0  0  0
  189.0550  178.8910  137.7120 S   0  0  0  0  0  0  0  0  0  0  0  0
  189.0640  176.5250  136.3420 C   0  0  0  0  0  3  0  0  0  0  0  0
  188.0010  175.7340  136.1450 C   0  0  0  0  0  3  0  0  0  0  0  0
  186.9030  175.4600  137.1230 C   0  0  0  0  0  2  0  0  0  0  0  0
  182.5270  176.6990  138.5140 C   0  0  0  0  0  2  0  0  0  0  0  0
  185.7550  177.4780  135.1710 O   0  0  0  0  0  0  0  0  0  0  0  0
  183.5220  176.4300  137.6670 C   0  0  0  0  0  0  0  0  0  0  0  0
  185.5420  175.4320  136.4330 C   0  0  2  0  0  3  0  0  0  0  0  0
  184.0620  177.3850  136.7700 N   0  0  0  0  0  0  0  0  0  0  0  0
  185.1510  176.8250  136.0620 C   0  0  0  0  0  0  0  0  0  0  0  0
  184.2590  174.8010  137.5900 S   0  0  0  0  0  0  0  0  0  0  0  0
  181.0860  178.4830  137.7060 O   0  0  0  0  0  1  0  0  0  0  0  0
  181.9260  177.9950  138.6550 N   0  0  0  0  0  0  0  0  0  0  0  0
  182.4340  178.8780  139.6980 C   0  0  1  0  0  3  0  0  0  0  0  0
  184.5800  179.7640  139.2240 O   0  0  0  0  0  0  0  0  0  0  0  0
  183.4500  178.1550  140.5360 C   0  0  0  0  0  2  0  0  0  0  0  0
  184.6910  179.0070  140.4000 C   0  0  0  0  0  2  0  0  0  0  0  0
  183.2090  180.0320  139.0930 C   0  0  0  0  0  2  0  0  0  0  0  0
  191.2280  175.7140  138.3810 C   0  0  0  0  0  2  0  0  0  0  0  0
  192.3810  176.4860  137.7590 C   0  0  0  0  0  2  0  0  0  0  0  0
  193.5350  175.5780  137.5300 C   0  0  0  0  0  0  0  0  0  0  0  0
  194.6690  173.8460  136.0940 C   0  0  0  0  0  1  0  0  0  0  0  0
  193.5660  174.7530  136.3650 N   0  0  0  0  0  2  0  0  0  0  0  0
  194.4830  175.5530  138.3610 O   0  0  0  0  0  0  0  0  0  0  0  0
  1  5  1  0  0  0  0
  2  3  1  0  0  0  0
  3  4  2  0  0  0  0
  3  1  1  0  0  0  0
  5  7  1  0  0  0  0
  5  6  1  1  0  0  0
  7  8  1  0  0  0  0
  8  9  1  0  0  0  0
  9 10  1  0  0  0  0
 10 11  1  1  0  0  0
 10 15  1  0  0  0  0
 13 15  1  0  0  0  0
 15 14  2  0  0  0  0
 15 12  2  0  0  0  0
 16 17  2  0  0  0  0
 16  2  1  0  0  0  0
 18 16  1  0  0  0  0
 19 18  2  0  0  0  0
 19 20  1  0  0  0  0
 21 29  1  0  0  0  0
 22 26  2  0  0  0  0
 23 21  1  0  0  0  0
 24 20  1  1  0  0  0
 24 27  1  0  0  0  0
 25 23  2  0  0  0  0
 26 24  1  0  0  0  0
 26 25  1  0  0  0  0
 27 23  1  0  0  0  0
 28 29  1  0  0  0  0
 30 29  1  6  0  0  0
 30 32  1  0  0  0  0
 31 33  1  0  0  0  0
 33 32  1  0  0  0  0
 34 31  1  0  0  0  0
 34 30  1  0  0  0  0
 35  2  1  0  0  0  0
 36 35  1  0  0  0  0
 37 36  1  0  0  0  0
 37 40  2  0  0  0  0
 38 39  1  0  0  0  0
 39 37  1  0  0  0  0
M  END
>  <MODEL>
8

>  <REMARK>
 VINA RESULT:      -5.8      3.089      9.557
  Name = 
  15 active torsions:
  status: ('A' for Active; 'I' for Inactive)
    1  A    between atoms: C_1  and  C_2
    2  A    between atoms: C_1  and  C_23
    3  A    between atoms: N_3  and  C_6
    4  A    between atoms: C_4  and  C_6
    5  A    between atoms: C_4  and  N_7
    6  A    between atoms: C_5  and  N_31
    7  A    between atoms: N_7  and  C_37
    8  A    between atoms: C_9  and  C_20
    9  A    between atoms: C_9  and  N_21
   10  A    between atoms: C_12  and  N_31
   11  A    between atoms: C_13  and  C_37
   12  A    between atoms: C_13  and  S_39
   13  A    between atoms: N_21  and  C_23
   14  A    between atoms: C_22  and  C_33
   15  A    between atoms: C_25  and  C_33
                            x       y       z     vdW  Elec       q    Type
                         _______ _______ _______ _____ _____    ______ ____

>  <TORSDO>
F 15

$$$$
=
 OpenBabel11042413043D

 40 41  0  0  1  0  0  0  0  0999 V2000
  182.4420  175.7130  137.8030 N   0  0  0  0  0  2  0  0  0  0  0  0
  184.7670  175.9920  136.9540 N   0  0  0  0  0  0  0  0  0  0  0  0
  183.7430  175.1630  137.5410 C   0  0  0  0  0  0  0  0  0  0  0  0
  183.9880  173.9630  137.8440 O   0  0  0  0  0  0  0  0  0  0  0  0
  181.3190  174.9640  138.3600 C   0  0  1  0  0  3  0  0  0  0  0  0
  180.8520  175.5980  139.6610 C   0  0  0  0  0  1  0  0  0  0  0  0
  180.1790  174.8750  137.3560 C   0  0  0  0  0  2  0  0  0  0  0  0
  179.5060  173.5940  137.4780 N   0  0  0  0  0  2  0  0  0  0  0  0
  180.5350  172.6130  137.7830 C   0  0  0  0  0  2  0  0  0  0  0  0
  180.4720  171.4260  136.8220 C   0  0  1  0  0  3  0  0  0  0  0  0
  179.2370  171.5010  135.9420 C   0  0  0  0  0  1  0  0  0  0  0  0
  183.1270  170.9830  136.7200 O   0  0  0  0  0  0  0  0  0  0  0  0
  182.2570  172.8170  134.9770 C   0  0  0  0  0  1  0  0  0  0  0  0
  181.8030  170.1800  134.8200 O   0  0  0  0  0  0  0  0  0  0  0  0
  181.9550  171.2850  135.8270 S   0  0  0  0  0  0  0  0  0  0  0  0
  185.9570  175.4330  136.3440 C   0  0  0  0  0  0  0  0  0  0  0  0
  185.9670  175.1230  134.7270 S   0  0  0  0  0  0  0  0  0  0  0  0
  187.0930  175.0270  137.2160 C   0  0  0  0  0  3  0  0  0  0  0  0
  188.3330  175.5260  137.2980 C   0  0  0  0  0  3  0  0  0  0  0  0
  188.8820  176.6770  136.5170 C   0  0  0  0  0  2  0  0  0  0  0  0
  189.0860  177.8990  141.1100 C   0  0  0  0  0  2  0  0  0  0  0  0
  191.5040  175.7200  137.7020 O   0  0  0  0  0  0  0  0  0  0  0  0
  189.5360  177.6440  139.8790 C   0  0  0  0  0  0  0  0  0  0  0  0
  189.8890  177.4750  137.3410 C   0  0  2  0  0  3  0  0  0  0  0  0
  190.4570  176.6080  139.5860 N   0  0  0  0  0  0  0  0  0  0  0  0
  190.6810  176.5380  138.1910 C   0  0  0  0  0  0  0  0  0  0  0  0
  189.0090  178.6230  138.4780 S   0  0  0  0  0  0  0  0  0  0  0  0
  188.6910  176.0520  142.6400 O   0  0  0  0  0  1  0  0  0  0  0  0
  189.4350  177.1240  142.2650 N   0  0  0  0  0  0  0  0  0  0  0  0
  190.4440  177.6590  143.1720 C   0  0  1  0  0  3  0  0  0  0  0  0
  191.6580  175.9840  144.3300 O   0  0  0  0  0  0  0  0  0  0  0  0
  189.9490  177.5960  144.5890 C   0  0  0  0  0  2  0  0  0  0  0  0
  190.9920  176.7580  145.2920 C   0  0  0  0  0  2  0  0  0  0  0  0
  191.6810  176.7810  143.1750 C   0  0  0  0  0  2  0  0  0  0  0  0
  184.5810  177.4410  136.9850 C   0  0  0  0  0  2  0  0  0  0  0  0
  185.4230  178.0500  138.0940 C   0  0  0  0  0  2  0  0  0  0  0  0
  184.5500  178.7610  139.0640 C   0  0  0  0  0  0  0  0  0  0  0  0
  182.8540  178.6540  140.9250 C   0  0  0  0  0  1  0  0  0  0  0  0
  183.7270  178.0090  139.9580 N   0  0  0  0  0  2  0  0  0  0  0  0
  184.5520  180.0210  139.0980 O   0  0  0  0  0  0  0  0  0  0  0  0
  1  5  1  0  0  0  0
  2 35  1  0  0  0  0
  2  3  1  0  0  0  0
  3  1  1  0  0  0  0
  3  4  2  0  0  0  0
  5  6  1  1  0  0  0
  7  8  1  0  0  0  0
  7  5  1  0  0  0  0
  8  9  1  0  0  0  0
 10 11  1  6  0  0  0
 10  9  1  0  0  0  0
 13 15  1  0  0  0  0
 14 15  2  0  0  0  0
 15 12  2  0  0  0  0
 15 10  1  0  0  0  0
 16  2  1  0  0  0  0
 16 18  1  0  0  0  0
 17 16  2  0  0  0  0
 18 19  2  0  0  0  0
 20 19  1  0  0  0  0
 21 29  1  0  0  0  0
 22 26  2  0  0  0  0
 23 21  1  0  0  0  0
 24 20  1  1  0  0  0
 24 26  1  0  0  0  0
 24 27  1  0  0  0  0
 25 23  2  0  0  0  0
 26 25  1  0  0  0  0
 27 23  1  0  0  0  0
 29 28  1  0  0  0  0
 30 29  1  6  0  0  0
 30 34  1  0  0  0  0
 30 32  1  0  0  0  0
 31 33  1  0  0  0  0
 32 33  1  0  0  0  0
 34 31  1  0  0  0  0
 35 36  1  0  0  0  0
 36 37  1  0  0  0  0
 37 40  2  0  0  0  0
 37 39  1  0  0  0  0
 39 38  1  0  0  0  0
M  END
>  <MODEL>
9

>  <REMARK>
 VINA RESULT:      -5.7      3.421      6.621
  Name = 
  15 active torsions:
  status: ('A' for Active; 'I' for Inactive)
    1  A    between atoms: C_1  and  C_2
    2  A    between atoms: C_1  and  C_23
    3  A    between atoms: N_3  and  C_6
    4  A    between atoms: C_4  and  C_6
    5  A    between atoms: C_4  and  N_7
    6  A    between atoms: C_5  and  N_31
    7  A    between atoms: N_7  and  C_37
    8  A    between atoms: C_9  and  C_20
    9  A    between atoms: C_9  and  N_21
   10  A    between atoms: C_12  and  N_31
   11  A    between atoms: C_13  and  C_37
   12  A    between atoms: C_13  and  S_39
   13  A    between atoms: N_21  and  C_23
   14  A    between atoms: C_22  and  C_33
   15  A    between atoms: C_25  and  C_33
                            x       y       z     vdW  Elec       q    Type
                         _______ _______ _______ _____ _____    ______ ____

>  <TORSDO>
F 15

$$$$
