=
 OpenBabel11042412423D

 43 48  0  0  1  0  0  0  0  0999 V2000
  188.4920  178.1760  139.6530 C   0  0  0  0  0  0  0  0  0  0  0  0
  188.4370  177.2350  143.9820 C   0  0  0  0  0  0  0  0  0  0  0  0
  190.6530  177.0300  144.8730 N   0  0  0  0  0  0  0  0  0  0  0  0
  190.1890  177.1140  146.1470 C   0  0  0  0  0  3  0  0  0  0  0  0
  188.7830  177.9970  140.9110 C   0  0  0  0  0  0  0  0  0  0  0  0
  188.3090  177.3610  147.7700 C   0  0  0  0  0  1  0  0  0  0  0  0
  187.9550  177.3220  145.2980 C   0  0  0  0  0  3  0  0  0  0  0  0
  188.1930  178.3470  138.3940 C   0  0  0  0  0  3  0  0  0  0  0  0
  188.8280  177.2680  146.3810 C   0  0  0  0  0  0  0  0  0  0  0  0
  187.7970  178.4300  141.9360 C   0  0  0  0  0  2  0  0  0  0  0  0
  190.4930  176.9810  142.4640 C   0  0  0  0  0  3  0  0  0  0  0  0
  189.8340  177.0990  143.7850 C   0  0  0  0  0  0  0  0  0  0  0  0
  187.4680  177.2550  142.8290 C   0  0  2  0  0  3  0  0  0  0  0  0
  190.0530  177.3390  141.2510 C   0  0  0  0  0  3  0  0  0  0  0  0
  186.2250  177.4840  137.0440 C   0  0  0  0  0  3  0  0  0  0  0  0
  186.9530  175.3390  136.5540 C   0  0  1  0  0  3  0  0  0  0  0  0
  187.5000  177.3440  137.6470 N   0  0  0  0  0  0  0  0  0  0  0  0
  185.8750  176.3760  136.4200 C   0  0  0  0  0  3  0  0  0  0  0  0
  188.0290  176.0190  137.4030 C   0  0  0  0  0  2  0  0  0  0  0  0
  186.4580  174.0550  137.2250 C   0  0  1  0  0  3  0  0  0  0  0  0
  185.2190  171.9970  136.3390 N   0  0  0  0  0  2  0  0  0  0  0  0
  185.0210  174.0780  137.4440 N   0  0  0  0  0  2  0  0  0  0  0  0
  186.8760  172.5960  136.2280 S   0  0  0  0  0  0  0  0  0  0  0  0
  184.6080  172.6880  137.4620 C   0  0  0  0  0  2  0  0  0  0  0  0
  186.0830  177.3460  143.2810 N   0  0  0  0  0  2  0  0  0  0  0  0
  184.6880  178.9690  142.2000 C   0  0  0  0  0  3  0  0  0  0  0  0
  185.3310  178.5660  143.2970 C   0  0  0  0  0  0  0  0  0  0  0  0
  184.6830  178.1730  140.9360 C   0  0  0  0  0  2  0  0  0  0  0  0
  183.2160  177.0730  139.2490 C   0  0  0  0  0  2  0  0  0  0  0  0
  180.7720  176.7920  139.8780 C   0  0  2  0  0  3  0  0  0  0  0  0
  183.3150  177.5570  140.7050 C   0  0  2  0  0  3  0  0  0  0  0  0
  180.8220  177.9170  140.9290 C   0  0  0  0  0  2  0  0  0  0  0  0
  182.2090  178.5630  141.0290 C   0  0  0  0  0  2  0  0  0  0  0  0
  181.4680  178.1390  137.8320 C   0  0  0  0  0  1  0  0  0  0  0  0
  181.7780  176.9450  138.7230 C   0  0  1  0  0  3  0  0  0  0  0  0
  179.4160  176.4360  139.4470 N   0  0  0  0  0  2  0  0  0  0  0  0
  178.9310  175.2560  140.1540 C   0  0  1  0  0  3  0  0  0  0  0  0
  179.1790  174.1390  139.3870 C   0  0  0  0  0  0  0  0  0  0  0  0
  179.9930  174.5100  140.5870 O   0  0  0  0  0  0  0  0  0  0  0  0
  178.9310  173.3830  138.4130 O   0  0  0  0  0  0  0  0  0  0  0  0
  185.3170  179.4400  144.5170 C   0  0  0  0  0  2  0  0  0  0  0  0
  184.8650  178.3240  146.7150 C   0  0  0  0  0  1  0  0  0  0  0  0
  184.2460  179.0170  145.5160 C   0  0  0  0  0  2  0  0  0  0  0  0
  1  5  2  0  0  0  0
  2  7  1  0  0  0  0
  3  4  2  0  0  0  0
  4  9  1  0  0  0  0
  5 14  1  0  0  0  0
  5 10  1  0  0  0  0
  7  9  2  0  0  0  0
  8  1  2  0  0  0  0
  9  6  1  0  0  0  0
 10 13  1  0  0  0  0
 11 12  1  0  0  0  0
 12  2  2  0  0  0  0
 12  3  1  0  0  0  0
 13 25  1  1  0  0  0
 13  2  1  0  0  0  0
 14 11  2  0  0  0  0
 15 17  1  0  0  0  0
 16 18  1  1  0  0  0
 16 20  1  0  0  0  0
 16 19  1  0  0  0  0
 17  8  1  0  0  0  0
 18 15  2  0  0  0  0
 19 17  1  0  0  0  0
 20 23  1  6  0  0  0
 20 22  1  0  0  0  0
 21 24  1  0  0  0  0
 22 24  1  0  0  0  0
 23 21  1  0  0  0  0
 25 27  1  0  0  0  0
 26 27  2  0  0  0  0
 27 41  1  0  0  0  0
 28 26  1  0  0  0  0
 29 31  1  0  0  0  0
 30 36  1  6  0  0  0
 30 32  1  0  0  0  0
 31 28  1  6  0  0  0
 31 33  1  0  0  0  0
 32 33  1  0  0  0  0
 35 34  1  1  0  0  0
 35 29  1  0  0  0  0
 35 30  1  0  0  0  0
 37 36  1  6  0  0  0
 37 39  1  0  0  0  0
 38 37  1  0  0  0  0
 38 39  1  0  0  0  0
 40 38  2  0  0  0  0
 41 43  1  0  0  0  0
 43 42  1  0  0  0  0
M  END
>  <MODEL>
1

>  <REMARK>
 VINA RESULT:      -8.8      0.000      0.000
  Name = 
  10 active torsions:
  status: ('A' for Active; 'I' for Inactive)
    1  A    between atoms: C_3  and  N_7
    2  A    between atoms: C_4  and  C_24
    3  A    between atoms: C_6  and  N_28
    4  A    between atoms: C_6  and  C_35
    5  A    between atoms: N_7  and  C_9
    6  A    between atoms: C_11  and  C_12
    7  A    between atoms: C_18  and  N_27
    8  A    between atoms: C_19  and  C_24
    9  A    between atoms: N_28  and  C_41
   10  A    between atoms: C_35  and  C_40
                            x       y       z     vdW  Elec       q    Type
                         _______ _______ _______ _____ _____    ______ ____

>  <TORSDO>
F 10

$$$$
=
 OpenBabel11042412423D

 43 48  0  0  1  0  0  0  0  0999 V2000
  188.4310  178.1820  139.6460 C   0  0  0  0  0  0  0  0  0  0  0  0
  188.7270  177.1100  143.9350 C   0  0  0  0  0  0  0  0  0  0  0  0
  191.0080  176.9820  144.6610 N   0  0  0  0  0  0  0  0  0  0  0  0
  190.6330  177.0060  145.9660 C   0  0  0  0  0  3  0  0  0  0  0  0
  188.8190  177.9790  140.8730 C   0  0  0  0  0  0  0  0  0  0  0  0
  188.8650  177.1170  147.7240 C   0  0  0  0  0  1  0  0  0  0  0  0
  188.3380  177.1360  145.2830 C   0  0  0  0  0  3  0  0  0  0  0  0
  188.0350  178.3760  138.4170 C   0  0  0  0  0  3  0  0  0  0  0  0
  189.2870  177.0890  146.3000 C   0  0  0  0  0  0  0  0  0  0  0  0
  187.8910  178.3360  141.9790 C   0  0  0  0  0  2  0  0  0  0  0  0
  190.6790  176.9980  142.2690 C   0  0  0  0  0  3  0  0  0  0  0  0
  190.1120  177.0450  143.6360 C   0  0  0  0  0  0  0  0  0  0  0  0
  187.6790  177.1200  142.8530 C   0  0  2  0  0  3  0  0  0  0  0  0
  190.1380  177.3710  141.1020 C   0  0  0  0  0  3  0  0  0  0  0  0
  186.0350  177.4830  137.1370 C   0  0  0  0  0  3  0  0  0  0  0  0
  186.7910  175.3580  136.5970 C   0  0  1  0  0  3  0  0  0  0  0  0
  187.3360  177.3650  137.6880 N   0  0  0  0  0  0  0  0  0  0  0  0
  185.6850  176.3720  136.5160 C   0  0  0  0  0  3  0  0  0  0  0  0
  187.8850  176.0540  137.4100 C   0  0  0  0  0  2  0  0  0  0  0  0
  186.3510  174.0580  137.2730 C   0  0  1  0  0  3  0  0  0  0  0  0
  185.1710  171.9580  136.4040 N   0  0  0  0  0  2  0  0  0  0  0  0
  184.9180  174.0310  137.5150 N   0  0  0  0  0  2  0  0  0  0  0  0
  186.8040  172.6150  136.2680 S   0  0  0  0  0  0  0  0  0  0  0  0
  184.5540  172.6270  137.5370 C   0  0  0  0  0  2  0  0  0  0  0  0
  186.3270  177.1330  143.4040 N   0  0  0  0  0  2  0  0  0  0  0  0
  184.6750  178.7080  142.6670 C   0  0  0  0  0  3  0  0  0  0  0  0
  185.5570  178.3280  143.5930 C   0  0  0  0  0  0  0  0  0  0  0  0
  184.4170  177.9090  141.4310 C   0  0  0  0  0  2  0  0  0  0  0  0
  182.4060  177.4670  140.0280 C   0  0  0  0  0  2  0  0  0  0  0  0
  181.5050  179.4240  138.6830 C   0  0  2  0  0  3  0  0  0  0  0  0
  183.3250  178.5590  140.6010 C   0  0  2  0  0  3  0  0  0  0  0  0
  182.8460  180.1810  138.7210 C   0  0  0  0  0  2  0  0  0  0  0  0
  183.9310  179.4130  139.4860 C   0  0  0  0  0  2  0  0  0  0  0  0
  182.2970  177.2870  137.5470 C   0  0  0  0  0  1  0  0  0  0  0  0
  181.6280  177.8920  138.7720 C   0  0  1  0  0  3  0  0  0  0  0  0
  180.5850  179.8900  137.6410 N   0  0  0  0  0  2  0  0  0  0  0  0
  180.8830  181.2640  137.2500 C   0  0  1  0  0  3  0  0  0  0  0  0
  180.5710  181.4300  135.9190 C   0  0  0  0  0  0  0  0  0  0  0  0
  179.7160  181.9440  137.0350 O   0  0  0  0  0  0  0  0  0  0  0  0
  180.8070  181.2660  134.6940 O   0  0  0  0  0  0  0  0  0  0  0  0
  185.7850  179.2020  144.7900 C   0  0  0  0  0  2  0  0  0  0  0  0
  185.6220  178.6450  147.2290 C   0  0  0  0  0  1  0  0  0  0  0  0
  184.8470  178.8580  145.9420 C   0  0  0  0  0  2  0  0  0  0  0  0
  1  5  2  0  0  0  0
  2  7  1  0  0  0  0
  3  4  2  0  0  0  0
  4  9  1  0  0  0  0
  5 14  1  0  0  0  0
  5 10  1  0  0  0  0
  7  9  2  0  0  0  0
  8  1  2  0  0  0  0
  9  6  1  0  0  0  0
 10 13  1  0  0  0  0
 11 12  1  0  0  0  0
 12  2  2  0  0  0  0
 12  3  1  0  0  0  0
 13 25  1  1  0  0  0
 13  2  1  0  0  0  0
 14 11  2  0  0  0  0
 15 17  1  0  0  0  0
 16 18  1  1  0  0  0
 16 20  1  0  0  0  0
 16 19  1  0  0  0  0
 17  8  1  0  0  0  0
 18 15  2  0  0  0  0
 19 17  1  0  0  0  0
 20 23  1  6  0  0  0
 20 22  1  0  0  0  0
 21 24  1  0  0  0  0
 22 24  1  0  0  0  0
 23 21  1  0  0  0  0
 25 27  1  0  0  0  0
 26 27  2  0  0  0  0
 27 41  1  0  0  0  0
 28 26  1  0  0  0  0
 29 31  1  0  0  0  0
 30 36  1  6  0  0  0
 30 32  1  0  0  0  0
 30 35  1  0  0  0  0
 31 28  1  6  0  0  0
 32 33  1  0  0  0  0
 33 31  1  0  0  0  0
 35 34  1  6  0  0  0
 35 29  1  0  0  0  0
 37 36  1  1  0  0  0
 38 39  1  0  0  0  0
 38 37  1  0  0  0  0
 39 37  1  0  0  0  0
 40 38  2  0  0  0  0
 41 43  1  0  0  0  0
 43 42  1  0  0  0  0
M  END
>  <MODEL>
2

>  <REMARK>
 VINA RESULT:      -8.8      2.231      2.720
  Name = 
  10 active torsions:
  status: ('A' for Active; 'I' for Inactive)
    1  A    between atoms: C_3  and  N_7
    2  A    between atoms: C_4  and  C_24
    3  A    between atoms: C_6  and  N_28
    4  A    between atoms: C_6  and  C_35
    5  A    between atoms: N_7  and  C_9
    6  A    between atoms: C_11  and  C_12
    7  A    between atoms: C_18  and  N_27
    8  A    between atoms: C_19  and  C_24
    9  A    between atoms: N_28  and  C_41
   10  A    between atoms: C_35  and  C_40
                            x       y       z     vdW  Elec       q    Type
                         _______ _______ _______ _____ _____    ______ ____

>  <TORSDO>
F 10

$$$$
=
 OpenBabel11042412423D

 43 48  0  0  1  0  0  0  0  0999 V2000
  183.8550  177.3460  137.2810 C   0  0  0  0  0  0  0  0  0  0  0  0
  188.1850  176.6690  137.9340 C   0  0  0  0  0  0  0  0  0  0  0  0
  189.0410  174.9540  136.4940 N   0  0  0  0  0  0  0  0  0  0  0  0
  190.3220  175.3260  136.7500 C   0  0  0  0  0  3  0  0  0  0  0  0
  185.1080  177.0010  137.1860 C   0  0  0  0  0  0  0  0  0  0  0  0
  191.9750  176.8070  137.8930 C   0  0  0  0  0  1  0  0  0  0  0  0
  189.5080  177.0560  138.1990 C   0  0  0  0  0  3  0  0  0  0  0  0
  182.6010  177.6920  137.3870 C   0  0  0  0  0  3  0  0  0  0  0  0
  190.5770  176.3910  137.6060 C   0  0  0  0  0  0  0  0  0  0  0  0
  186.1490  177.9910  137.5690 C   0  0  0  0  0  2  0  0  0  0  0  0
  186.6350  175.0590  136.6690 C   0  0  0  0  0  3  0  0  0  0  0  0
  187.9660  175.5910  137.0390 C   0  0  0  0  0  0  0  0  0  0  0  0
  187.0470  177.3780  138.6200 C   0  0  2  0  0  3  0  0  0  0  0  0
  185.4290  175.6360  136.7430 C   0  0  0  0  0  3  0  0  0  0  0  0
  181.0610  176.3470  138.8890 C   0  0  0  0  0  3  0  0  0  0  0  0
  180.9620  177.7310  140.7460 C   0  0  1  0  0  3  0  0  0  0  0  0
  181.8650  177.4760  138.5940 N   0  0  0  0  0  0  0  0  0  0  0  0
  180.5280  176.4510  140.0910 C   0  0  0  0  0  3  0  0  0  0  0  0
  181.8510  178.4080  139.7010 C   0  0  0  0  0  2  0  0  0  0  0  0
  179.7830  178.6300  141.1250 C   0  0  1  0  0  3  0  0  0  0  0  0
  179.5920  181.1390  141.6030 N   0  0  0  0  0  2  0  0  0  0  0  0
  179.7970  178.9760  142.5370 N   0  0  0  0  0  2  0  0  0  0  0  0
  179.7880  180.1590  140.1470 S   0  0  0  0  0  0  0  0  0  0  0  0
  179.0980  180.2430  142.6350 C   0  0  0  0  0  2  0  0  0  0  0  0
  187.5210  178.4130  139.5340 N   0  0  0  0  0  2  0  0  0  0  0  0
  187.9390  178.0560  141.8680 C   0  0  0  0  0  3  0  0  0  0  0  0
  187.1250  178.5000  140.9100 C   0  0  0  0  0  0  0  0  0  0  0  0
  189.2920  177.4940  141.5740 C   0  0  0  0  0  2  0  0  0  0  0  0
  189.1380  176.5800  143.8870 C   0  0  0  0  0  2  0  0  0  0  0  0
  191.0620  177.1200  145.4540 C   0  0  2  0  0  3  0  0  0  0  0  0
  190.0600  177.2620  142.8630 C   0  0  2  0  0  3  0  0  0  0  0  0
  191.4990  178.3490  144.6350 C   0  0  0  0  0  2  0  0  0  0  0  0
  190.6100  178.5810  143.4080 C   0  0  0  0  0  2  0  0  0  0  0  0
  188.6770  177.8340  145.9880 C   0  0  0  0  0  1  0  0  0  0  0  0
  189.5650  176.7760  145.3500 C   0  0  1  0  0  3  0  0  0  0  0  0
  191.5890  177.0950  146.8220 N   0  0  0  0  0  2  0  0  0  0  0  0
  192.3800  175.8930  147.0610 C   0  0  1  0  0  3  0  0  0  0  0  0
  192.8230  175.8980  148.3650 C   0  0  0  0  0  0  0  0  0  0  0  0
  191.6920  175.0440  147.8840 O   0  0  0  0  0  0  0  0  0  0  0  0
  193.5840  176.3120  149.2780 O   0  0  0  0  0  0  0  0  0  0  0  0
  185.7680  179.0190  141.2830 C   0  0  0  0  0  2  0  0  0  0  0  0
  183.8320  178.8630  142.8670 C   0  0  0  0  0  1  0  0  0  0  0  0
  185.2220  178.3520  142.5410 C   0  0  0  0  0  2  0  0  0  0  0  0
  1  8  2  0  0  0  0
  2  7  1  0  0  0  0
  2 13  1  0  0  0  0
  3  4  2  0  0  0  0
  3 12  1  0  0  0  0
  4  9  1  0  0  0  0
  5  1  2  0  0  0  0
  5 10  1  0  0  0  0
  8 17  1  0  0  0  0
  9  6  1  0  0  0  0
  9  7  2  0  0  0  0
 10 13  1  0  0  0  0
 11 14  2  0  0  0  0
 11 12  1  0  0  0  0
 12  2  2  0  0  0  0
 13 25  1  1  0  0  0
 14  5  1  0  0  0  0
 15 18  2  0  0  0  0
 16 19  1  6  0  0  0
 16 20  1  0  0  0  0
 17 15  1  0  0  0  0
 17 19  1  0  0  0  0
 18 16  1  0  0  0  0
 20 23  1  6  0  0  0
 20 22  1  0  0  0  0
 21 24  1  0  0  0  0
 22 24  1  0  0  0  0
 23 21  1  0  0  0  0
 25 27  1  0  0  0  0
 27 41  1  0  0  0  0
 27 26  2  0  0  0  0
 28 26  1  0  0  0  0
 29 35  1  0  0  0  0
 30 36  1  1  0  0  0
 31 28  1  6  0  0  0
 31 33  1  0  0  0  0
 31 29  1  0  0  0  0
 32 30  1  0  0  0  0
 33 32  1  0  0  0  0
 35 30  1  0  0  0  0
 35 34  1  6  0  0  0
 37 36  1  1  0  0  0
 37 39  1  0  0  0  0
 37 38  1  0  0  0  0
 38 40  2  0  0  0  0
 39 38  1  0  0  0  0
 41 43  1  0  0  0  0
 43 42  1  0  0  0  0
M  END
>  <MODEL>
3

>  <REMARK>
 VINA RESULT:      -8.6      4.162      8.999
  Name = 
  10 active torsions:
  status: ('A' for Active; 'I' for Inactive)
    1  A    between atoms: C_3  and  N_7
    2  A    between atoms: C_4  and  C_24
    3  A    between atoms: C_6  and  N_28
    4  A    between atoms: C_6  and  C_35
    5  A    between atoms: N_7  and  C_9
    6  A    between atoms: C_11  and  C_12
    7  A    between atoms: C_18  and  N_27
    8  A    between atoms: C_19  and  C_24
    9  A    between atoms: N_28  and  C_41
   10  A    between atoms: C_35  and  C_40
                            x       y       z     vdW  Elec       q    Type
                         _______ _______ _______ _____ _____    ______ ____

>  <TORSDO>
F 10

$$$$
=
 OpenBabel11042412423D

 43 48  0  0  1  0  0  0  0  0999 V2000
  190.8890  177.4130  140.7720 C   0  0  0  0  0  0  0  0  0  0  0  0
  186.8590  177.9770  142.5230 C   0  0  0  0  0  0  0  0  0  0  0  0
  186.7720  177.2410  144.8030 N   0  0  0  0  0  0  0  0  0  0  0  0
  185.5970  177.8900  145.0070 C   0  0  0  0  0  3  0  0  0  0  0  0
  189.8640  177.5430  141.5650 C   0  0  0  0  0  0  0  0  0  0  0  0
  183.7290  179.3270  144.1850 C   0  0  0  0  0  1  0  0  0  0  0  0
  185.6440  178.6490  142.7320 C   0  0  0  0  0  3  0  0  0  0  0  0
  191.9100  177.2790  139.9690 C   0  0  0  0  0  3  0  0  0  0  0  0
  185.0140  178.6120  143.9730 C   0  0  0  0  0  0  0  0  0  0  0  0
  188.8750  178.6160  141.2770 C   0  0  0  0  0  2  0  0  0  0  0  0
  188.6960  176.5010  143.5450 C   0  0  0  0  0  3  0  0  0  0  0  0
  187.4310  177.2680  143.6100 C   0  0  0  0  0  0  0  0  0  0  0  0
  187.5000  177.9980  141.1600 C   0  0  2  0  0  3  0  0  0  0  0  0
  189.7140  176.5970  142.6810 C   0  0  0  0  0  3  0  0  0  0  0  0
  190.7020  175.7500  138.3430 C   0  0  0  0  0  3  0  0  0  0  0  0
  192.4240  175.2410  136.8780 C   0  0  1  0  0  3  0  0  0  0  0  0
  191.8500  176.4320  138.8180 N   0  0  0  0  0  0  0  0  0  0  0  0
  190.9800  175.0620  137.2530 C   0  0  0  0  0  3  0  0  0  0  0  0
  192.9870  176.1580  137.9650 C   0  0  0  0  0  2  0  0  0  0  0  0
  193.1900  173.9160  136.8300 C   0  0  1  0  0  3  0  0  0  0  0  0
  195.6770  173.3550  136.5930 N   0  0  0  0  0  2  0  0  0  0  0  0
  193.6050  173.5800  135.4770 N   0  0  0  0  0  2  0  0  0  0  0  0
  194.6580  173.9740  137.8960 S   0  0  0  0  0  0  0  0  0  0  0  0
  194.7800  172.7430  135.6280 C   0  0  0  0  0  2  0  0  0  0  0  0
  186.7000  178.7430  140.1930 N   0  0  0  0  0  2  0  0  0  0  0  0
  185.1890  178.4310  138.3580 C   0  0  0  0  0  3  0  0  0  0  0  0
  186.4090  178.2710  138.8700 C   0  0  0  0  0  0  0  0  0  0  0  0
  184.0940  179.1300  139.0970 C   0  0  0  0  0  2  0  0  0  0  0  0
  183.3590  176.7970  139.5740 C   0  0  0  0  0  2  0  0  0  0  0  0
  180.9210  176.2560  139.1120 C   0  0  2  0  0  3  0  0  0  0  0  0
  182.8870  178.2210  139.2370 C   0  0  2  0  0  3  0  0  0  0  0  0
  180.7560  177.4290  138.1280 C   0  0  0  0  0  2  0  0  0  0  0  0
  182.0480  178.2360  137.9570 C   0  0  0  0  0  2  0  0  0  0  0  0
  182.8020  175.0150  137.9270 C   0  0  0  0  0  1  0  0  0  0  0  0
  182.3520  175.6950  139.2110 C   0  0  1  0  0  3  0  0  0  0  0  0
  179.8820  175.2280  138.9970 N   0  0  0  0  0  2  0  0  0  0  0  0
  178.9310  175.3140  140.0990 C   0  0  1  0  0  3  0  0  0  0  0  0
  179.3680  174.5170  141.1340 C   0  0  0  0  0  0  0  0  0  0  0  0
  179.4900  176.0090  141.1370 O   0  0  0  0  0  0  0  0  0  0  0  0
  179.5480  173.3940  141.6710 O   0  0  0  0  0  0  0  0  0  0  0  0
  187.4440  177.5270  138.0790 C   0  0  0  0  0  2  0  0  0  0  0  0
  188.8100  178.0500  136.0440 C   0  0  0  0  0  1  0  0  0  0  0  0
  188.4820  178.4610  137.4670 C   0  0  0  0  0  2  0  0  0  0  0  0
  1  5  2  0  0  0  0
  2  7  2  0  0  0  0
  2 12  1  0  0  0  0
  3  4  1  0  0  0  0
  5 14  1  0  0  0  0
  7  9  1  0  0  0  0
  8  1  2  0  0  0  0
  9  6  1  0  0  0  0
  9  4  2  0  0  0  0
 10  5  1  0  0  0  0
 11 12  1  0  0  0  0
 12  3  2  0  0  0  0
 13 25  1  6  0  0  0
 13 10  1  0  0  0  0
 13  2  1  0  0  0  0
 14 11  2  0  0  0  0
 15 17  1  0  0  0  0
 16 18  1  1  0  0  0
 16 19  1  0  0  0  0
 17  8  1  0  0  0  0
 18 15  2  0  0  0  0
 19 17  1  0  0  0  0
 20 22  1  6  0  0  0
 20 16  1  0  0  0  0
 20 23  1  0  0  0  0
 21 23  1  0  0  0  0
 22 24  1  0  0  0  0
 24 21  1  0  0  0  0
 26 27  2  0  0  0  0
 26 28  1  0  0  0  0
 27 25  1  0  0  0  0
 30 36  1  6  0  0  0
 30 35  1  0  0  0  0
 31 28  1  6  0  0  0
 31 29  1  0  0  0  0
 32 30  1  0  0  0  0
 33 32  1  0  0  0  0
 33 31  1  0  0  0  0
 35 34  1  6  0  0  0
 35 29  1  0  0  0  0
 37 36  1  6  0  0  0
 37 38  1  0  0  0  0
 37 39  1  0  0  0  0
 38 39  1  0  0  0  0
 38 40  2  0  0  0  0
 41 27  1  0  0  0  0
 42 43  1  0  0  0  0
 43 41  1  0  0  0  0
M  END
>  <MODEL>
4

>  <REMARK>
 VINA RESULT:      -8.1      3.217      4.981
  Name = 
  10 active torsions:
  status: ('A' for Active; 'I' for Inactive)
    1  A    between atoms: C_3  and  N_7
    2  A    between atoms: C_4  and  C_24
    3  A    between atoms: C_6  and  N_28
    4  A    between atoms: C_6  and  C_35
    5  A    between atoms: N_7  and  C_9
    6  A    between atoms: C_11  and  C_12
    7  A    between atoms: C_18  and  N_27
    8  A    between atoms: C_19  and  C_24
    9  A    between atoms: N_28  and  C_41
   10  A    between atoms: C_35  and  C_40
                            x       y       z     vdW  Elec       q    Type
                         _______ _______ _______ _____ _____    ______ ____

>  <TORSDO>
F 10

$$$$
=
 OpenBabel11042412423D

 43 48  0  0  1  0  0  0  0  0999 V2000
  181.6760  178.7070  140.9650 C   0  0  0  0  0  0  0  0  0  0  0  0
  185.0270  178.5690  143.8600 C   0  0  0  0  0  0  0  0  0  0  0  0
  184.2470  178.6790  146.1240 N   0  0  0  0  0  0  0  0  0  0  0  0
  185.4500  178.2640  146.5990 C   0  0  0  0  0  3  0  0  0  0  0  0
  182.4260  178.5920  142.0240 C   0  0  0  0  0  0  0  0  0  0  0  0
  187.8040  177.5230  146.2220 C   0  0  0  0  0  1  0  0  0  0  0  0
  186.2710  178.1380  144.3480 C   0  0  0  0  0  3  0  0  0  0  0  0
  180.9320  178.8280  139.8990 C   0  0  0  0  0  3  0  0  0  0  0  0
  186.4840  177.9790  145.7140 C   0  0  0  0  0  0  0  0  0  0  0  0
  183.7190  177.8680  141.9050 C   0  0  0  0  0  2  0  0  0  0  0  0
  182.6330  179.3000  144.4380 C   0  0  0  0  0  3  0  0  0  0  0  0
  183.9920  178.8290  144.7940 C   0  0  0  0  0  0  0  0  0  0  0  0
  184.8340  178.7720  142.3800 C   0  0  2  0  0  3  0  0  0  0  0  0
  181.9750  179.2210  143.2750 C   0  0  0  0  0  3  0  0  0  0  0  0
  182.0470  180.9650  139.1070 C   0  0  0  0  0  3  0  0  0  0  0  0
  180.7700  181.4430  137.2330 C   0  0  1  0  0  3  0  0  0  0  0  0
  181.0730  179.9410  139.0120 N   0  0  0  0  0  0  0  0  0  0  0  0
  181.9110  181.8370  138.1260 C   0  0  0  0  0  3  0  0  0  0  0  0
  180.2140  180.1670  137.8690 C   0  0  0  0  0  2  0  0  0  0  0  0
  179.6890  182.5240  137.1430 C   0  0  1  0  0  3  0  0  0  0  0  0
  179.7860  185.0830  137.1380 N   0  0  0  0  0  2  0  0  0  0  0  0
  179.4280  183.1380  138.4350 N   0  0  0  0  0  2  0  0  0  0  0  0
  180.1610  183.8200  135.9620 S   0  0  0  0  0  0  0  0  0  0  0  0
  178.9310  184.4680  138.1400 C   0  0  0  0  0  2  0  0  0  0  0  0
  186.0540  178.4950  141.6280 N   0  0  0  0  0  2  0  0  0  0  0  0
  187.3480  178.5310  139.6100 C   0  0  0  0  0  3  0  0  0  0  0  0
  186.1590  178.6350  140.2050 C   0  0  0  0  0  0  0  0  0  0  0  0
  188.6000  178.2310  140.3680 C   0  0  0  0  0  2  0  0  0  0  0  0
  189.1310  177.5030  138.0450 C   0  0  0  0  0  2  0  0  0  0  0  0
  191.5200  176.7650  137.6020 C   0  0  2  0  0  3  0  0  0  0  0  0
  189.7250  177.8800  139.4120 C   0  0  2  0  0  3  0  0  0  0  0  0
  191.7950  176.4630  139.0880 C   0  0  0  0  0  2  0  0  0  0  0  0
  190.5770  176.7410  139.9760 C   0  0  0  0  0  2  0  0  0  0  0  0
  189.5560  175.1860  137.2400 C   0  0  0  0  0  1  0  0  0  0  0  0
  190.0470  176.6240  137.1780 C   0  0  1  0  0  3  0  0  0  0  0  0
  192.4710  176.1370  136.6780 N   0  0  0  0  0  2  0  0  0  0  0  0
  193.4510  175.3310  137.3980 C   0  0  1  0  0  3  0  0  0  0  0  0
  194.1710  174.5850  136.4910 C   0  0  0  0  0  0  0  0  0  0  0  0
  194.7090  175.8130  137.1570 O   0  0  0  0  0  0  0  0  0  0  0  0
  194.2910  173.6180  135.6950 O   0  0  0  0  0  0  0  0  0  0  0  0
  184.9530  178.9730  139.3790 C   0  0  0  0  0  2  0  0  0  0  0  0
  183.6240  177.2500  138.1360 C   0  0  0  0  0  1  0  0  0  0  0  0
  184.8640  178.1230  138.1160 C   0  0  0  0  0  2  0  0  0  0  0  0
  1  5  2  0  0  0  0
  2  7  2  0  0  0  0
  2 12  1  0  0  0  0
  3  4  1  0  0  0  0
  5 14  1  0  0  0  0
  7  9  1  0  0  0  0
  8  1  2  0  0  0  0
  9  6  1  0  0  0  0
  9  4  2  0  0  0  0
 10  5  1  0  0  0  0
 10 13  1  0  0  0  0
 11 12  1  0  0  0  0
 12  3  2  0  0  0  0
 13 25  1  6  0  0  0
 13  2  1  0  0  0  0
 14 11  2  0  0  0  0
 16 19  1  1  0  0  0
 16 18  1  0  0  0  0
 17 15  1  0  0  0  0
 17  8  1  0  0  0  0
 18 15  2  0  0  0  0
 19 17  1  0  0  0  0
 20 23  1  6  0  0  0
 20 16  1  0  0  0  0
 20 22  1  0  0  0  0
 21 24  1  0  0  0  0
 23 21  1  0  0  0  0
 24 22  1  0  0  0  0
 26 27  2  0  0  0  0
 26 28  1  0  0  0  0
 27 25  1  0  0  0  0
 29 31  1  0  0  0  0
 30 36  1  6  0  0  0
 30 32  1  0  0  0  0
 31 33  1  0  0  0  0
 31 28  1  1  0  0  0
 32 33  1  0  0  0  0
 35 34  1  1  0  0  0
 35 30  1  0  0  0  0
 35 29  1  0  0  0  0
 37 36  1  6  0  0  0
 38 39  1  0  0  0  0
 38 37  1  0  0  0  0
 39 37  1  0  0  0  0
 40 38  2  0  0  0  0
 41 27  1  0  0  0  0
 43 42  1  0  0  0  0
 43 41  1  0  0  0  0
M  END
>  <MODEL>
5

>  <REMARK>
 VINA RESULT:      -8.1      4.979      8.846
  Name = 
  10 active torsions:
  status: ('A' for Active; 'I' for Inactive)
    1  A    between atoms: C_3  and  N_7
    2  A    between atoms: C_4  and  C_24
    3  A    between atoms: C_6  and  N_28
    4  A    between atoms: C_6  and  C_35
    5  A    between atoms: N_7  and  C_9
    6  A    between atoms: C_11  and  C_12
    7  A    between atoms: C_18  and  N_27
    8  A    between atoms: C_19  and  C_24
    9  A    between atoms: N_28  and  C_41
   10  A    between atoms: C_35  and  C_40
                            x       y       z     vdW  Elec       q    Type
                         _______ _______ _______ _____ _____    ______ ____

>  <TORSDO>
F 10

$$$$
=
 OpenBabel11042412423D

 43 48  0  0  1  0  0  0  0  0999 V2000
  192.0300  177.5090  141.2040 C   0  0  0  0  0  0  0  0  0  0  0  0
  189.0860  177.4200  144.5140 C   0  0  0  0  0  0  0  0  0  0  0  0
  190.0680  176.6300  146.5530 N   0  0  0  0  0  0  0  0  0  0  0  0
  189.0180  177.0900  147.2810 C   0  0  0  0  0  3  0  0  0  0  0  0
  191.4290  177.4660  142.3600 C   0  0  0  0  0  0  0  0  0  0  0  0
  186.8110  178.2460  147.4330 C   0  0  0  0  0  1  0  0  0  0  0  0
  187.9990  177.8970  145.2650 C   0  0  0  0  0  3  0  0  0  0  0  0
  192.6220  177.5480  140.0410 C   0  0  0  0  0  3  0  0  0  0  0  0
  187.9650  177.7390  146.6470 C   0  0  0  0  0  0  0  0  0  0  0  0
  190.2840  178.3830  142.6000 C   0  0  0  0  0  2  0  0  0  0  0  0
  191.3540  176.2160  144.5520 C   0  0  0  0  0  3  0  0  0  0  0  0
  190.1500  176.7820  145.2010 C   0  0  0  0  0  0  0  0  0  0  0  0
  189.0800  177.5670  143.0150 C   0  0  2  0  0  3  0  0  0  0  0  0
  191.8890  176.4840  143.3540 C   0  0  0  0  0  3  0  0  0  0  0  0
  190.9660  176.0130  138.8830 C   0  0  0  0  0  3  0  0  0  0  0  0
  192.0840  175.6040  136.8940 C   0  0  1  0  0  3  0  0  0  0  0  0
  192.1880  176.7270  138.9540 N   0  0  0  0  0  0  0  0  0  0  0  0
  190.8660  175.3620  137.7400 C   0  0  0  0  0  3  0  0  0  0  0  0
  192.9640  176.5170  137.7500 C   0  0  0  0  0  2  0  0  0  0  0  0
  192.8220  174.3120  136.5360 C   0  0  1  0  0  3  0  0  0  0  0  0
  195.2990  173.7630  136.1910 N   0  0  0  0  0  2  0  0  0  0  0  0
  193.2460  174.2990  135.1450 N   0  0  0  0  0  2  0  0  0  0  0  0
  194.2760  174.0770  137.5960 S   0  0  0  0  0  0  0  0  0  0  0  0
  194.4010  173.4220  135.1000 C   0  0  0  0  0  2  0  0  0  0  0  0
  187.8580  178.2040  142.5340 N   0  0  0  0  0  2  0  0  0  0  0  0
  186.2880  178.6430  140.7760 C   0  0  0  0  0  3  0  0  0  0  0  0
  187.5380  178.3620  141.1450 C   0  0  0  0  0  0  0  0  0  0  0  0
  185.1860  178.8440  141.7640 C   0  0  0  0  0  2  0  0  0  0  0  0
  182.8990  177.9770  141.2890 C   0  0  0  0  0  2  0  0  0  0  0  0
  181.5720  179.1900  139.4960 C   0  0  2  0  0  3  0  0  0  0  0  0
  183.8800  179.1360  141.0480 C   0  0  2  0  0  3  0  0  0  0  0  0
  182.8340  179.7800  138.8380 C   0  0  0  0  0  2  0  0  0  0  0  0
  184.1210  179.3540  139.5530 C   0  0  0  0  0  2  0  0  0  0  0  0
  182.1400  176.7170  139.2800 C   0  0  0  0  0  1  0  0  0  0  0  0
  181.7930  177.8540  140.2290 C   0  0  1  0  0  3  0  0  0  0  0  0
  180.3840  179.2110  138.6370 N   0  0  0  0  0  2  0  0  0  0  0  0
  179.4290  180.2190  139.0830 C   0  0  1  0  0  3  0  0  0  0  0  0
  179.4120  180.2440  140.4600 C   0  0  0  0  0  0  0  0  0  0  0  0
  180.1000  181.2800  139.6270 O   0  0  0  0  0  0  0  0  0  0  0  0
  179.0860  179.7620  141.5760 O   0  0  0  0  0  0  0  0  0  0  0  0
  188.5810  178.1400  140.0900 C   0  0  0  0  0  2  0  0  0  0  0  0
  188.7890  178.6840  137.6520 C   0  0  0  0  0  1  0  0  0  0  0  0
  187.9710  177.9600  138.7050 C   0  0  0  0  0  2  0  0  0  0  0  0
  1  5  2  0  0  0  0
  2 12  2  0  0  0  0
  2  7  1  0  0  0  0
  3  4  2  0  0  0  0
  5 10  1  0  0  0  0
  5 14  1  0  0  0  0
  7  9  2  0  0  0  0
  8  1  2  0  0  0  0
  9  4  1  0  0  0  0
  9  6  1  0  0  0  0
 10 13  1  0  0  0  0
 11 12  1  0  0  0  0
 12  3  1  0  0  0  0
 13 25  1  1  0  0  0
 13  2  1  0  0  0  0
 14 11  2  0  0  0  0
 15 17  1  0  0  0  0
 16 18  1  1  0  0  0
 16 19  1  0  0  0  0
 17  8  1  0  0  0  0
 18 15  2  0  0  0  0
 19 17  1  0  0  0  0
 20 22  1  6  0  0  0
 20 16  1  0  0  0  0
 20 23  1  0  0  0  0
 21 23  1  0  0  0  0
 24 22  1  0  0  0  0
 24 21  1  0  0  0  0
 26 27  2  0  0  0  0
 26 28  1  0  0  0  0
 27 25  1  0  0  0  0
 30 36  1  6  0  0  0
 30 35  1  0  0  0  0
 31 29  1  0  0  0  0
 31 28  1  1  0  0  0
 32 30  1  0  0  0  0
 32 33  1  0  0  0  0
 33 31  1  0  0  0  0
 35 34  1  6  0  0  0
 35 29  1  0  0  0  0
 37 36  1  1  0  0  0
 37 39  1  0  0  0  0
 37 38  1  0  0  0  0
 38 40  2  0  0  0  0
 39 38  1  0  0  0  0
 41 27  1  0  0  0  0
 42 43  1  0  0  0  0
 43 41  1  0  0  0  0
M  END
>  <MODEL>
6

>  <REMARK>
 VINA RESULT:      -7.9      3.426      4.866
  Name = 
  10 active torsions:
  status: ('A' for Active; 'I' for Inactive)
    1  A    between atoms: C_3  and  N_7
    2  A    between atoms: C_4  and  C_24
    3  A    between atoms: C_6  and  N_28
    4  A    between atoms: C_6  and  C_35
    5  A    between atoms: N_7  and  C_9
    6  A    between atoms: C_11  and  C_12
    7  A    between atoms: C_18  and  N_27
    8  A    between atoms: C_19  and  C_24
    9  A    between atoms: N_28  and  C_41
   10  A    between atoms: C_35  and  C_40
                            x       y       z     vdW  Elec       q    Type
                         _______ _______ _______ _____ _____    ______ ____

>  <TORSDO>
F 10

$$$$
=
 OpenBabel11042412423D

 43 48  0  0  1  0  0  0  0  0999 V2000
  186.1730  177.2840  137.5940 C   0  0  0  0  0  0  0  0  0  0  0  0
  189.5410  174.6110  136.5260 C   0  0  0  0  0  0  0  0  0  0  0  0
  188.7680  172.5070  135.6770 N   0  0  0  0  0  0  0  0  0  0  0  0
  189.9990  172.2110  135.1830 C   0  0  0  0  0  3  0  0  0  0  0  0
  186.9350  176.3410  137.1140 C   0  0  0  0  0  0  0  0  0  0  0  0
  192.3950  172.8010  134.8040 C   0  0  0  0  0  1  0  0  0  0  0  0
  190.8140  174.3080  136.0160 C   0  0  0  0  0  3  0  0  0  0  0  0
  185.4160  178.2300  138.0820 C   0  0  0  0  0  3  0  0  0  0  0  0
  191.0440  173.1140  135.3400 C   0  0  0  0  0  0  0  0  0  0  0  0
  188.2720  176.7120  136.5810 C   0  0  0  0  0  2  0  0  0  0  0  0
  187.1080  173.8410  136.8140 C   0  0  0  0  0  3  0  0  0  0  0  0
  188.4960  173.6730  136.3270 C   0  0  0  0  0  0  0  0  0  0  0  0
  189.3270  175.8920  137.2890 C   0  0  2  0  0  3  0  0  0  0  0  0
  186.4500  174.9540  137.1630 C   0  0  0  0  0  3  0  0  0  0  0  0
  186.6450  178.6260  140.2660 C   0  0  0  0  0  3  0  0  0  0  0  0
  184.8940  179.3170  141.6200 C   0  0  1  0  0  3  0  0  0  0  0  0
  185.4780  178.5980  139.4620 N   0  0  0  0  0  0  0  0  0  0  0  0
  186.3620  179.0210  141.4930 C   0  0  0  0  0  3  0  0  0  0  0  0
  184.3240  179.0050  140.2350 C   0  0  0  0  0  2  0  0  0  0  0  0
  184.2120  178.4690  142.6960 C   0  0  1  0  0  3  0  0  0  0  0  0
  182.4170  178.9940  144.4450 N   0  0  0  0  0  2  0  0  0  0  0  0
  184.7310  178.7570  144.0230 N   0  0  0  0  0  2  0  0  0  0  0  0
  182.4170  178.7400  142.6970 S   0  0  0  0  0  0  0  0  0  0  0  0
  183.6580  178.4260  144.9410 C   0  0  0  0  0  2  0  0  0  0  0  0
  190.5590  176.6670  137.4110 N   0  0  0  0  0  2  0  0  0  0  0  0
  191.1100  176.7220  139.7440 C   0  0  0  0  0  3  0  0  0  0  0  0
  191.4950  176.5070  138.4860 C   0  0  0  0  0  0  0  0  0  0  0  0
  189.7070  177.0930  140.1010 C   0  0  0  0  0  2  0  0  0  0  0  0
  191.0330  177.6020  142.1480 C   0  0  0  0  0  2  0  0  0  0  0  0
  189.7530  177.6940  144.3390 C   0  0  2  0  0  3  0  0  0  0  0  0
  189.6160  177.4620  141.5700 C   0  0  2  0  0  3  0  0  0  0  0  0
  188.5910  176.8400  143.7970 C   0  0  0  0  0  2  0  0  0  0  0  0
  188.8070  176.4160  142.3400 C   0  0  0  0  0  2  0  0  0  0  0  0
  191.6540  176.0370  143.9830 C   0  0  0  0  0  1  0  0  0  0  0  0
  191.1150  177.4260  143.6730 C   0  0  1  0  0  3  0  0  0  0  0  0
  189.8080  177.7690  145.8030 N   0  0  0  0  0  2  0  0  0  0  0  0
  188.5930  177.2320  146.4040 C   0  0  1  0  0  3  0  0  0  0  0  0
  188.3970  177.8290  147.6300 C   0  0  0  0  0  0  0  0  0  0  0  0
  187.6170  178.1910  146.4050 O   0  0  0  0  0  0  0  0  0  0  0  0
  188.6690  177.9760  148.8500 O   0  0  0  0  0  0  0  0  0  0  0  0
  192.9300  176.1710  138.2060 C   0  0  0  0  0  2  0  0  0  0  0  0
  194.4730  175.4920  136.3510 C   0  0  0  0  0  1  0  0  0  0  0  0
  193.2890  176.3600  136.7360 C   0  0  0  0  0  2  0  0  0  0  0  0
  1  8  2  0  0  0  0
  2 13  1  0  0  0  0
  3 12  2  0  0  0  0
  4  9  2  0  0  0  0
  4  3  1  0  0  0  0
  5 14  1  0  0  0  0
  5  1  2  0  0  0  0
  6  9  1  0  0  0  0
  7  2  2  0  0  0  0
  8 17  1  0  0  0  0
  9  7  1  0  0  0  0
 10  5  1  0  0  0  0
 10 13  1  0  0  0  0
 11 14  2  0  0  0  0
 12  2  1  0  0  0  0
 12 11  1  0  0  0  0
 13 25  1  6  0  0  0
 15 18  2  0  0  0  0
 16 19  1  6  0  0  0
 16 20  1  0  0  0  0
 17 19  1  0  0  0  0
 17 15  1  0  0  0  0
 18 16  1  0  0  0  0
 20 23  1  1  0  0  0
 20 22  1  0  0  0  0
 21 24  1  0  0  0  0
 22 24  1  0  0  0  0
 23 21  1  0  0  0  0
 25 27  1  0  0  0  0
 26 28  1  0  0  0  0
 27 26  2  0  0  0  0
 29 35  1  0  0  0  0
 30 36  1  1  0  0  0
 31 28  1  6  0  0  0
 31 29  1  0  0  0  0
 31 33  1  0  0  0  0
 32 30  1  0  0  0  0
 33 32  1  0  0  0  0
 35 34  1  6  0  0  0
 35 30  1  0  0  0  0
 37 36  1  6  0  0  0
 37 39  1  0  0  0  0
 37 38  1  0  0  0  0
 38 40  2  0  0  0  0
 39 38  1  0  0  0  0
 41 27  1  0  0  0  0
 42 43  1  0  0  0  0
 43 41  1  0  0  0  0
M  END
>  <MODEL>
7

>  <REMARK>
 VINA RESULT:      -7.7      3.952      9.214
  Name = 
  10 active torsions:
  status: ('A' for Active; 'I' for Inactive)
    1  A    between atoms: C_3  and  N_7
    2  A    between atoms: C_4  and  C_24
    3  A    between atoms: C_6  and  N_28
    4  A    between atoms: C_6  and  C_35
    5  A    between atoms: N_7  and  C_9
    6  A    between atoms: C_11  and  C_12
    7  A    between atoms: C_18  and  N_27
    8  A    between atoms: C_19  and  C_24
    9  A    between atoms: N_28  and  C_41
   10  A    between atoms: C_35  and  C_40
                            x       y       z     vdW  Elec       q    Type
                         _______ _______ _______ _____ _____    ______ ____

>  <TORSDO>
F 10

$$$$
=
 OpenBabel11042412423D

 43 48  0  0  1  0  0  0  0  0999 V2000
  190.8110  177.3710  140.6100 C   0  0  0  0  0  0  0  0  0  0  0  0
  186.8430  177.9720  142.4880 C   0  0  0  0  0  0  0  0  0  0  0  0
  186.8140  177.2130  144.7610 N   0  0  0  0  0  0  0  0  0  0  0  0
  185.6550  177.8750  145.0080 C   0  0  0  0  0  3  0  0  0  0  0  0
  189.8120  177.5070  141.4350 C   0  0  0  0  0  0  0  0  0  0  0  0
  183.7840  179.3480  144.2570 C   0  0  0  0  0  1  0  0  0  0  0  0
  185.6450  178.6590  142.7410 C   0  0  0  0  0  3  0  0  0  0  0  0
  191.8050  177.2320  139.7750 C   0  0  0  0  0  3  0  0  0  0  0  0
  185.0520  178.6180  143.9990 C   0  0  0  0  0  0  0  0  0  0  0  0
  188.8310  178.5970  141.1890 C   0  0  0  0  0  2  0  0  0  0  0  0
  188.6880  176.4590  143.4380 C   0  0  0  0  0  3  0  0  0  0  0  0
  187.4370  177.2430  143.5490 C   0  0  0  0  0  0  0  0  0  0  0  0
  187.4440  178.0000  141.1070 C   0  0  2  0  0  3  0  0  0  0  0  0
  189.6820  176.5510  142.5450 C   0  0  0  0  0  3  0  0  0  0  0  0
  190.5660  175.6330  138.2440 C   0  0  0  0  0  3  0  0  0  0  0  0
  192.1690  175.2850  136.6050 C   0  0  1  0  0  3  0  0  0  0  0  0
  191.6980  176.3990  138.6180 N   0  0  0  0  0  0  0  0  0  0  0  0
  190.7890  174.9840  137.1160 C   0  0  0  0  0  3  0  0  0  0  0  0
  192.7630  176.2310  137.6520 C   0  0  0  0  0  2  0  0  0  0  0  0
  193.0300  174.0290  136.4530 C   0  0  1  0  0  3  0  0  0  0  0  0
  195.5600  173.6620  136.3010 N   0  0  0  0  0  2  0  0  0  0  0  0
  193.5360  173.8790  135.0980 N   0  0  0  0  0  2  0  0  0  0  0  0
  194.4340  174.0580  137.6030 S   0  0  0  0  0  0  0  0  0  0  0  0
  194.7590  173.1100  135.2220 C   0  0  0  0  0  2  0  0  0  0  0  0
  186.6260  178.7670  140.1720 N   0  0  0  0  0  2  0  0  0  0  0  0
  184.8510  178.3200  138.6230 C   0  0  0  0  0  3  0  0  0  0  0  0
  186.1480  178.2490  138.9230 C   0  0  0  0  0  0  0  0  0  0  0  0
  183.8530  178.9630  139.5290 C   0  0  0  0  0  2  0  0  0  0  0  0
  181.6680  180.1540  139.6620 C   0  0  0  0  0  2  0  0  0  0  0  0
  180.4870  180.6120  137.4610 C   0  0  2  0  0  3  0  0  0  0  0  0
  182.7840  179.6730  138.7190 C   0  0  2  0  0  3  0  0  0  0  0  0
  181.2440  179.4930  136.7210 C   0  0  0  0  0  2  0  0  0  0  0  0
  182.2280  178.7510  137.6320 C   0  0  0  0  0  2  0  0  0  0  0  0
  179.3970  179.2060  139.2830 C   0  0  0  0  0  1  0  0  0  0  0  0
  180.3130  180.3800  138.9740 C   0  0  1  0  0  3  0  0  0  0  0  0
  179.2680  181.0600  136.7810 N   0  0  0  0  0  2  0  0  0  0  0  0
  179.4500  182.3810  136.1890 C   0  0  1  0  0  3  0  0  0  0  0  0
  179.6610  183.2990  137.1950 C   0  0  0  0  0  0  0  0  0  0  0  0
  180.7550  182.7680  136.3220 O   0  0  0  0  0  0  0  0  0  0  0  0
  179.2560  184.0230  138.1400 O   0  0  0  0  0  0  0  0  0  0  0  0
  187.0830  177.5560  137.9760 C   0  0  0  0  0  2  0  0  0  0  0  0
  189.0550  179.0060  137.4370 C   0  0  0  0  0  1  0  0  0  0  0  0
  187.6980  178.5180  136.9660 C   0  0  0  0  0  2  0  0  0  0  0  0
  1  5  2  0  0  0  0
  2  7  2  0  0  0  0
  2 12  1  0  0  0  0
  3  4  1  0  0  0  0
  5 14  1  0  0  0  0
  7  9  1  0  0  0  0
  8  1  2  0  0  0  0
  9  6  1  0  0  0  0
  9  4  2  0  0  0  0
 10  5  1  0  0  0  0
 11 12  1  0  0  0  0
 12  3  2  0  0  0  0
 13 25  1  6  0  0  0
 13 10  1  0  0  0  0
 13  2  1  0  0  0  0
 14 11  2  0  0  0  0
 15 17  1  0  0  0  0
 16 18  1  1  0  0  0
 16 19  1  0  0  0  0
 17  8  1  0  0  0  0
 18 15  2  0  0  0  0
 19 17  1  0  0  0  0
 20 22  1  6  0  0  0
 20 16  1  0  0  0  0
 20 23  1  0  0  0  0
 21 23  1  0  0  0  0
 22 24  1  0  0  0  0
 24 21  1  0  0  0  0
 26 27  2  0  0  0  0
 26 28  1  0  0  0  0
 27 25  1  0  0  0  0
 30 36  1  6  0  0  0
 30 35  1  0  0  0  0
 31 28  1  1  0  0  0
 31 29  1  0  0  0  0
 32 30  1  0  0  0  0
 32 33  1  0  0  0  0
 33 31  1  0  0  0  0
 35 34  1  6  0  0  0
 35 29  1  0  0  0  0
 37 39  1  0  0  0  0
 37 36  1  1  0  0  0
 37 38  1  0  0  0  0
 38 40  2  0  0  0  0
 39 38  1  0  0  0  0
 41 27  1  0  0  0  0
 43 42  1  0  0  0  0
 43 41  1  0  0  0  0
M  END
>  <MODEL>
8

>  <REMARK>
 VINA RESULT:      -7.7      4.062      5.795
  Name = 
  10 active torsions:
  status: ('A' for Active; 'I' for Inactive)
    1  A    between atoms: C_3  and  N_7
    2  A    between atoms: C_4  and  C_24
    3  A    between atoms: C_6  and  N_28
    4  A    between atoms: C_6  and  C_35
    5  A    between atoms: N_7  and  C_9
    6  A    between atoms: C_11  and  C_12
    7  A    between atoms: C_18  and  N_27
    8  A    between atoms: C_19  and  C_24
    9  A    between atoms: N_28  and  C_41
   10  A    between atoms: C_35  and  C_40
                            x       y       z     vdW  Elec       q    Type
                         _______ _______ _______ _____ _____    ______ ____

>  <TORSDO>
F 10

$$$$
=
 OpenBabel11042412423D

 43 48  0  0  1  0  0  0  0  0999 V2000
  185.2330  178.8970  141.0530 C   0  0  0  0  0  0  0  0  0  0  0  0
  182.6690  177.4440  137.7450 C   0  0  0  0  0  0  0  0  0  0  0  0
  180.3510  177.4380  138.3580 N   0  0  0  0  0  0  0  0  0  0  0  0
  179.9700  177.3030  137.0610 C   0  0  0  0  0  3  0  0  0  0  0  0
  184.2460  178.6100  140.2530 C   0  0  0  0  0  0  0  0  0  0  0  0
  180.5250  177.0960  134.6360 C   0  0  0  0  0  1  0  0  0  0  0  0
  182.2770  177.3060  136.4040 C   0  0  0  0  0  3  0  0  0  0  0  0
  186.2290  179.1760  141.8500 C   0  0  0  0  0  3  0  0  0  0  0  0
  180.9300  177.2410  136.0580 C   0  0  0  0  0  0  0  0  0  0  0  0
  184.4450  178.7790  138.7890 C   0  0  0  0  0  2  0  0  0  0  0  0
  181.9090  177.6570  140.1890 C   0  0  0  0  0  3  0  0  0  0  0  0
  181.6580  177.5240  138.7360 C   0  0  0  0  0  0  0  0  0  0  0  0
  184.1330  177.4710  138.0970 C   0  0  2  0  0  3  0  0  0  0  0  0
  182.9970  178.0950  140.8350 C   0  0  0  0  0  3  0  0  0  0  0  0
  187.1120  177.3250  143.3440 C   0  0  0  0  0  3  0  0  0  0  0  0
  189.0730  176.7810  142.2350 C   0  0  1  0  0  3  0  0  0  0  0  0
  187.1910  178.1840  142.2200 N   0  0  0  0  0  0  0  0  0  0  0  0
  188.1550  176.5190  143.3940 C   0  0  0  0  0  3  0  0  0  0  0  0
  188.4010  177.9240  141.4700 C   0  0  0  0  0  2  0  0  0  0  0  0
  190.4850  177.1750  142.6760 C   0  0  1  0  0  3  0  0  0  0  0  0
  191.6430  177.2260  144.9590 N   0  0  0  0  0  2  0  0  0  0  0  0
  190.5090  178.4840  143.3090 N   0  0  0  0  0  2  0  0  0  0  0  0
  191.1720  175.9530  143.8290 S   0  0  0  0  0  0  0  0  0  0  0  0
  191.6540  178.4640  144.1990 C   0  0  0  0  0  2  0  0  0  0  0  0
  184.9800  177.3170  136.9180 N   0  0  0  0  0  2  0  0  0  0  0  0
  187.0890  176.1760  136.9160 C   0  0  0  0  0  3  0  0  0  0  0  0
  185.7800  176.1560  136.6600 C   0  0  0  0  0  0  0  0  0  0  0  0
  187.7710  177.3650  137.5090 C   0  0  0  0  0  2  0  0  0  0  0  0
  189.6200  176.6020  136.0230 C   0  0  0  0  0  2  0  0  0  0  0  0
  191.9290  176.4450  137.0690 C   0  0  2  0  0  3  0  0  0  0  0  0
  189.2780  177.2260  137.3860 C   0  0  2  0  0  3  0  0  0  0  0  0
  191.3700  176.3450  138.5010 C   0  0  0  0  0  2  0  0  0  0  0  0
  189.8380  176.3840  138.5340 C   0  0  0  0  0  2  0  0  0  0  0  0
  190.7890  174.4040  136.0610 C   0  0  0  0  0  1  0  0  0  0  0  0
  190.9910  175.9090  135.9720 C   0  0  1  0  0  3  0  0  0  0  0  0
  193.3200  175.9990  136.9370 N   0  0  0  0  0  2  0  0  0  0  0  0
  193.7420  175.2380  138.1070 C   0  0  1  0  0  3  0  0  0  0  0  0
  194.4000  174.1010  137.6910 C   0  0  0  0  0  0  0  0  0  0  0  0
  195.1030  175.3060  138.2340 O   0  0  0  0  0  0  0  0  0  0  0  0
  194.4120  172.9400  137.2070 O   0  0  0  0  0  0  0  0  0  0  0  0
  185.1750  174.9350  136.0320 C   0  0  0  0  0  2  0  0  0  0  0  0
  185.0360  173.0950  137.7280 C   0  0  0  0  0  1  0  0  0  0  0  0
  185.8100  173.6480  136.5460 C   0  0  0  0  0  2  0  0  0  0  0  0
  1  8  2  0  0  0  0
  2 13  1  0  0  0  0
  2 12  1  0  0  0  0
  3 12  2  0  0  0  0
  4  3  1  0  0  0  0
  5 14  1  0  0  0  0
  5  1  2  0  0  0  0
  6  9  1  0  0  0  0
  7  2  2  0  0  0  0
  8 17  1  0  0  0  0
  9  7  1  0  0  0  0
  9  4  2  0  0  0  0
 10  5  1  0  0  0  0
 11 14  2  0  0  0  0
 12 11  1  0  0  0  0
 13 25  1  6  0  0  0
 13 10  1  0  0  0  0
 15 18  2  0  0  0  0
 16 19  1  1  0  0  0
 16 20  1  0  0  0  0
 16 18  1  0  0  0  0
 17 15  1  0  0  0  0
 19 17  1  0  0  0  0
 20 22  1  1  0  0  0
 20 23  1  0  0  0  0
 22 24  1  0  0  0  0
 23 21  1  0  0  0  0
 24 21  1  0  0  0  0
 26 28  1  0  0  0  0
 27 26  2  0  0  0  0
 27 25  1  0  0  0  0
 29 31  1  0  0  0  0
 30 36  1  1  0  0  0
 30 32  1  0  0  0  0
 31 28  1  1  0  0  0
 31 33  1  0  0  0  0
 32 33  1  0  0  0  0
 35 29  1  0  0  0  0
 35 34  1  1  0  0  0
 35 30  1  0  0  0  0
 37 36  1  6  0  0  0
 37 39  1  0  0  0  0
 38 37  1  0  0  0  0
 38 39  1  0  0  0  0
 40 38  2  0  0  0  0
 41 43  1  0  0  0  0
 41 27  1  0  0  0  0
 43 42  1  0  0  0  0
M  END
>  <MODEL>
9

>  <REMARK>
 VINA RESULT:      -7.7      4.272      9.814
  Name = 
  10 active torsions:
  status: ('A' for Active; 'I' for Inactive)
    1  A    between atoms: C_3  and  N_7
    2  A    between atoms: C_4  and  C_24
    3  A    between atoms: C_6  and  N_28
    4  A    between atoms: C_6  and  C_35
    5  A    between atoms: N_7  and  C_9
    6  A    between atoms: C_11  and  C_12
    7  A    between atoms: C_18  and  N_27
    8  A    between atoms: C_19  and  C_24
    9  A    between atoms: N_28  and  C_41
   10  A    between atoms: C_35  and  C_40
                            x       y       z     vdW  Elec       q    Type
                         _______ _______ _______ _____ _____    ______ ____

>  <TORSDO>
F 10

$$$$
