=
 OpenBabel11042410543D

 26 27  0  0  0  0  0  0  0  0999 V2000
  187.2360  177.6570  144.1810 C   0  0  0  0  0  0  0  0  0  0  0  0
  186.0040  178.1690  144.0320 C   0  0  0  0  0  3  0  0  0  0  0  0
  187.8400  177.6400  145.5410 C   0  0  0  0  0  0  0  0  0  0  0  0
  187.6620  178.0090  147.9430 C   0  0  0  0  0  3  0  0  0  0  0  0
  187.0880  178.0120  146.6700 C   0  0  0  0  0  3  0  0  0  0  0  0
  189.1830  177.2750  145.7220 C   0  0  0  0  0  3  0  0  0  0  0  0
  189.7690  177.2670  146.9950 C   0  0  0  0  0  0  0  0  0  0  0  0
  188.9980  177.6370  148.1050 C   0  0  0  0  0  3  0  0  0  0  0  0
  191.8580  176.1630  146.1330 N   0  0  0  0  0  1  0  0  0  0  0  0
  191.8010  177.1720  148.2190 O   0  0  0  0  0  0  0  0  0  0  0  0
  191.1800  176.8770  147.1630 C   0  0  0  0  0  0  0  0  0  0  0  0
  188.5460  177.9850  142.0360 N   0  0  0  0  0  2  0  0  0  0  0  0
  188.1660  175.8640  142.9240 O   0  0  0  0  0  0  0  0  0  0  0  0
  187.9930  177.1100  143.0250 C   0  0  0  0  0  0  0  0  0  0  0  0
  189.3730  177.5100  140.9350 C   0  0  0  0  0  2  0  0  0  0  0  0
  188.8230  177.9870  139.6340 C   0  0  0  0  0  0  0  0  0  0  0  0
  188.5720  178.4910  137.5430 C   0  0  0  0  0  3  0  0  0  0  0  0
  187.4020  178.6870  138.1840 N   0  0  0  0  0  0  0  0  0  0  0  0
  189.5180  178.0330  138.4440 C   0  0  0  0  0  3  0  0  0  0  0  0
  187.5520  178.3750  139.4580 N   0  0  0  0  0  2  0  0  0  0  0  0
  185.2470  178.2220  142.7460 C   0  0  0  0  0  2  0  0  0  0  0  0
  183.8460  178.5460  143.0150 C   0  0  0  0  0  0  0  0  0  0  0  0
  182.6910  178.8130  143.2360 C   0  0  0  0  0  0  0  0  0  0  0  0
  180.7300  180.2320  142.8930 O   0  0  0  0  0  0  0  0  0  0  0  0
  180.6440  178.4100  144.2810 O   0  0  0  0  0  1  0  0  0  0  0  0
  181.3170  179.1300  143.5000 C   0  0  0  0  0  0  0  0  0  0  0  0
  1  3  1  0  0  0  0
  2  1  2  0  0  0  0
  3  6  2  0  0  0  0
  3  5  1  0  0  0  0
  4  8  1  0  0  0  0
  5  4  2  0  0  0  0
  6  7  1  0  0  0  0
  7 11  1  0  0  0  0
  7  8  2  0  0  0  0
  9 11  1  0  0  0  0
 11 10  2  0  0  0  0
 12 14  1  0  0  0  0
 13 14  2  0  0  0  0
 14  1  1  0  0  0  0
 15 12  1  0  0  0  0
 16 15  1  0  0  0  0
 17 18  2  0  0  0  0
 17 19  1  0  0  0  0
 18 20  1  0  0  0  0
 19 16  2  0  0  0  0
 20 16  1  0  0  0  0
 21 22  1  0  0  0  0
 21  2  1  0  0  0  0
 22 23  3  0  0  0  0
 23 26  1  0  0  0  0
 24 26  2  0  0  0  0
 26 25  1  0  0  0  0
M  END
>  <MODEL>
1

>  <REMARK>
 VINA RESULT:      -9.0      0.000      0.000
  Name = 
  8 active torsions:
  status: ('A' for Active; 'I' for Inactive)
    1  A    between atoms: C_2  and  C_12
    2  A    between atoms: C_4  and  C_25
    3  A    between atoms: N_5  and  C_25
    4  A    between atoms: C_8  and  C_12
    5  A    between atoms: C_17  and  C_26
    6  A    between atoms: C_18  and  C_22
    7  A    between atoms: C_19  and  C_20
    8  A    between atoms: C_23  and  C_26
                            x       y       z     vdW  Elec       q    Type
                         _______ _______ _______ _____ _____    ______ ____

>  <TORSDO>
F 8

$$$$
=
 OpenBabel11042410543D

 26 27  0  0  0  0  0  0  0  0999 V2000
  188.1860  177.7190  144.2830 C   0  0  0  0  0  0  0  0  0  0  0  0
  189.1970  177.9980  145.1200 C   0  0  0  0  0  3  0  0  0  0  0  0
  186.7980  178.0540  144.7060 C   0  0  0  0  0  0  0  0  0  0  0  0
  185.1510  178.4250  146.4620 C   0  0  0  0  0  3  0  0  0  0  0  0
  186.4570  178.1240  146.0690 C   0  0  0  0  0  3  0  0  0  0  0  0
  185.7950  178.2840  143.7520 C   0  0  0  0  0  3  0  0  0  0  0  0
  184.4820  178.5870  144.1350 C   0  0  0  0  0  0  0  0  0  0  0  0
  184.1670  178.6570  145.4990 C   0  0  0  0  0  3  0  0  0  0  0  0
  183.7440  178.6670  141.7320 N   0  0  0  0  0  1  0  0  0  0  0  0
  182.2860  179.1800  143.4590 O   0  0  0  0  0  0  0  0  0  0  0  0
  183.4460  178.8280  143.1160 C   0  0  0  0  0  0  0  0  0  0  0  0
  188.7090  177.9010  141.8100 N   0  0  0  0  0  2  0  0  0  0  0  0
  188.4000  175.8360  142.8440 O   0  0  0  0  0  0  0  0  0  0  0  0
  188.4270  177.0930  142.9560 C   0  0  0  0  0  0  0  0  0  0  0  0
  189.0430  177.3380  140.5080 C   0  0  0  0  0  2  0  0  0  0  0  0
  188.0770  177.8130  139.4780 C   0  0  0  0  0  0  0  0  0  0  0  0
  187.0510  178.1930  137.6090 C   0  0  0  0  0  3  0  0  0  0  0  0
  186.3020  178.6710  138.6240 N   0  0  0  0  0  0  0  0  0  0  0  0
  188.2060  177.6250  138.1170 C   0  0  0  0  0  3  0  0  0  0  0  0
  186.9240  178.4350  139.7650 N   0  0  0  0  0  2  0  0  0  0  0  0
  190.6420  177.7610  144.8280 C   0  0  0  0  0  2  0  0  0  0  0  0
  191.2680  177.0870  145.9660 C   0  0  0  0  0  0  0  0  0  0  0  0
  191.7830  176.5310  146.9040 C   0  0  0  0  0  0  0  0  0  0  0  0
  193.2830  176.5620  148.8340 O   0  0  0  0  0  1  0  0  0  0  0  0
  192.1340  174.6640  148.2600 O   0  0  0  0  0  0  0  0  0  0  0  0
  192.3970  175.8700  148.0190 C   0  0  0  0  0  0  0  0  0  0  0  0
  1  3  1  0  0  0  0
  1  2  2  0  0  0  0
  3  5  1  0  0  0  0
  5  4  2  0  0  0  0
  6  7  1  0  0  0  0
  6  3  2  0  0  0  0
  7  8  2  0  0  0  0
  8  4  1  0  0  0  0
  9 11  1  0  0  0  0
 11 10  2  0  0  0  0
 11  7  1  0  0  0  0
 12 14  1  0  0  0  0
 13 14  2  0  0  0  0
 14  1  1  0  0  0  0
 15 12  1  0  0  0  0
 16 20  1  0  0  0  0
 16 15  1  0  0  0  0
 17 19  1  0  0  0  0
 17 18  2  0  0  0  0
 18 20  1  0  0  0  0
 19 16  2  0  0  0  0
 21  2  1  0  0  0  0
 21 22  1  0  0  0  0
 22 23  3  0  0  0  0
 23 26  1  0  0  0  0
 26 25  2  0  0  0  0
 26 24  1  0  0  0  0
M  END
>  <MODEL>
2

>  <REMARK>
 VINA RESULT:      -8.4      1.729      6.588
  Name = 
  8 active torsions:
  status: ('A' for Active; 'I' for Inactive)
    1  A    between atoms: C_2  and  C_12
    2  A    between atoms: C_4  and  C_25
    3  A    between atoms: N_5  and  C_25
    4  A    between atoms: C_8  and  C_12
    5  A    between atoms: C_17  and  C_26
    6  A    between atoms: C_18  and  C_22
    7  A    between atoms: C_19  and  C_20
    8  A    between atoms: C_23  and  C_26
                            x       y       z     vdW  Elec       q    Type
                         _______ _______ _______ _____ _____    ______ ____

>  <TORSDO>
F 8

$$$$
=
 OpenBabel11042410543D

 26 27  0  0  0  0  0  0  0  0999 V2000
  187.0650  177.6680  144.1200 C   0  0  0  0  0  0  0  0  0  0  0  0
  185.8810  178.2830  143.9740 C   0  0  0  0  0  3  0  0  0  0  0  0
  187.7020  177.6600  145.4670 C   0  0  0  0  0  0  0  0  0  0  0  0
  187.5770  178.0340  147.8700 C   0  0  0  0  0  3  0  0  0  0  0  0
  186.9730  178.0290  146.6110 C   0  0  0  0  0  3  0  0  0  0  0  0
  189.0520  177.3060  145.6170 C   0  0  0  0  0  3  0  0  0  0  0  0
  189.6680  177.3070  146.8760 C   0  0  0  0  0  0  0  0  0  0  0  0
  188.9200  177.6740  148.0020 C   0  0  0  0  0  3  0  0  0  0  0  0
  191.7770  176.3200  145.9230 N   0  0  0  0  0  1  0  0  0  0  0  0
  191.7000  177.1390  148.0900 O   0  0  0  0  0  0  0  0  0  0  0  0
  191.0850  176.9290  147.0100 C   0  0  0  0  0  0  0  0  0  0  0  0
  188.1460  177.7530  141.8290 N   0  0  0  0  0  2  0  0  0  0  0  0
  187.9710  175.7600  143.0250 O   0  0  0  0  0  0  0  0  0  0  0  0
  187.7390  177.0000  142.9760 C   0  0  0  0  0  0  0  0  0  0  0  0
  188.8900  177.1670  140.7220 C   0  0  0  0  0  2  0  0  0  0  0  0
  190.3550  177.2720  140.9730 C   0  0  0  0  0  0  0  0  0  0  0  0
  192.4970  177.4720  140.7250 C   0  0  0  0  0  3  0  0  0  0  0  0
  192.2040  177.5010  142.0410 N   0  0  0  0  0  0  0  0  0  0  0  0
  191.3280  177.3300  139.9970 C   0  0  0  0  0  3  0  0  0  0  0  0
  190.8980  177.3850  142.1940 N   0  0  0  0  0  2  0  0  0  0  0  0
  185.0980  178.3450  142.7040 C   0  0  0  0  0  2  0  0  0  0  0  0
  183.6980  178.6410  143.0060 C   0  0  0  0  0  0  0  0  0  0  0  0
  182.5440  178.8870  143.2550 C   0  0  0  0  0  0  0  0  0  0  0  0
  180.4270  178.3030  144.3310 O   0  0  0  0  0  1  0  0  0  0  0  0
  180.6390  180.2260  143.1020 O   0  0  0  0  0  0  0  0  0  0  0  0
  181.1700  179.1780  143.5500 C   0  0  0  0  0  0  0  0  0  0  0  0
  1  3  1  0  0  0  0
  2  1  2  0  0  0  0
  3  6  2  0  0  0  0
  3  5  1  0  0  0  0
  4  8  1  0  0  0  0
  5  4  2  0  0  0  0
  6  7  1  0  0  0  0
  7 11  1  0  0  0  0
  7  8  2  0  0  0  0
  9 11  1  0  0  0  0
 11 10  2  0  0  0  0
 12 14  1  0  0  0  0
 14 13  2  0  0  0  0
 14  1  1  0  0  0  0
 15 16  1  0  0  0  0
 15 12  1  0  0  0  0
 16 20  1  0  0  0  0
 17 18  2  0  0  0  0
 18 20  1  0  0  0  0
 19 17  1  0  0  0  0
 19 16  2  0  0  0  0
 21 22  1  0  0  0  0
 21  2  1  0  0  0  0
 22 23  3  0  0  0  0
 23 26  1  0  0  0  0
 25 26  2  0  0  0  0
 26 24  1  0  0  0  0
M  END
>  <MODEL>
3

>  <REMARK>
 VINA RESULT:      -8.3      1.278      2.040
  Name = 
  8 active torsions:
  status: ('A' for Active; 'I' for Inactive)
    1  A    between atoms: C_2  and  C_12
    2  A    between atoms: C_4  and  C_25
    3  A    between atoms: N_5  and  C_25
    4  A    between atoms: C_8  and  C_12
    5  A    between atoms: C_17  and  C_26
    6  A    between atoms: C_18  and  C_22
    7  A    between atoms: C_19  and  C_20
    8  A    between atoms: C_23  and  C_26
                            x       y       z     vdW  Elec       q    Type
                         _______ _______ _______ _____ _____    ______ ____

>  <TORSDO>
F 8

$$$$
=
 OpenBabel11042410543D

 26 27  0  0  0  0  0  0  0  0999 V2000
  188.0850  177.6130  142.2060 C   0  0  0  0  0  0  0  0  0  0  0  0
  188.2550  178.0900  140.9620 C   0  0  0  0  0  3  0  0  0  0  0  0
  186.8390  177.9690  142.9400 C   0  0  0  0  0  0  0  0  0  0  0  0
  184.5090  178.6770  142.9380 C   0  0  0  0  0  3  0  0  0  0  0  0
  185.6710  178.3310  142.2460 C   0  0  0  0  0  3  0  0  0  0  0  0
  186.8130  177.9710  144.3430 C   0  0  0  0  0  3  0  0  0  0  0  0
  185.6520  178.3160  145.0480 C   0  0  0  0  0  0  0  0  0  0  0  0
  184.4980  178.6680  144.3350 C   0  0  0  0  0  3  0  0  0  0  0  0
  186.8470  178.0630  147.2470 N   0  0  0  0  0  1  0  0  0  0  0  0
  184.5770  178.5180  147.1540 O   0  0  0  0  0  0  0  0  0  0  0  0
  185.6460  178.3080  146.5210 C   0  0  0  0  0  0  0  0  0  0  0  0
  190.3120  177.3080  143.3770 N   0  0  0  0  0  2  0  0  0  0  0  0
  188.8980  175.5050  142.9500 O   0  0  0  0  0  0  0  0  0  0  0  0
  189.1060  176.7460  142.8500 C   0  0  0  0  0  0  0  0  0  0  0  0
  191.3020  176.5200  144.0980 C   0  0  0  0  0  2  0  0  0  0  0  0
  191.1690  176.7420  145.5660 C   0  0  0  0  0  0  0  0  0  0  0  0
  190.3930  177.1770  147.5400 C   0  0  0  0  0  3  0  0  0  0  0  0
  191.6650  176.7440  147.6560 N   0  0  0  0  0  0  0  0  0  0  0  0
  190.0300  177.1860  146.2040 C   0  0  0  0  0  3  0  0  0  0  0  0
  192.1380  176.4730  146.4530 N   0  0  0  0  0  2  0  0  0  0  0  0
  189.4250  177.7940  140.0830 C   0  0  0  0  0  2  0  0  0  0  0  0
  189.0200  177.8890  138.6800 C   0  0  0  0  0  0  0  0  0  0  0  0
  188.6870  177.9670  137.5240 C   0  0  0  0  0  0  0  0  0  0  0  0
  189.1790  177.7050  135.1430 O   0  0  0  0  0  0  0  0  0  0  0  0
  187.1350  178.4610  135.8530 O   0  0  0  0  0  1  0  0  0  0  0  0
  188.2890  178.0590  136.1490 C   0  0  0  0  0  0  0  0  0  0  0  0
  1 14  1  0  0  0  0
  1  3  1  0  0  0  0
  2  1  2  0  0  0  0
  3  6  1  0  0  0  0
  4  8  2  0  0  0  0
  5  4  1  0  0  0  0
  5  3  2  0  0  0  0
  6  7  2  0  0  0  0
  7 11  1  0  0  0  0
  8  7  1  0  0  0  0
 11 10  2  0  0  0  0
 11  9  1  0  0  0  0
 12 15  1  0  0  0  0
 14 13  2  0  0  0  0
 14 12  1  0  0  0  0
 15 16  1  0  0  0  0
 16 19  2  0  0  0  0
 16 20  1  0  0  0  0
 17 18  2  0  0  0  0
 19 17  1  0  0  0  0
 20 18  1  0  0  0  0
 21  2  1  0  0  0  0
 22 21  1  0  0  0  0
 23 22  3  0  0  0  0
 24 26  2  0  0  0  0
 25 26  1  0  0  0  0
 26 23  1  0  0  0  0
M  END
>  <MODEL>
4

>  <REMARK>
 VINA RESULT:      -8.2      2.862      6.732
  Name = 
  8 active torsions:
  status: ('A' for Active; 'I' for Inactive)
    1  A    between atoms: C_2  and  C_12
    2  A    between atoms: C_4  and  C_25
    3  A    between atoms: N_5  and  C_25
    4  A    between atoms: C_8  and  C_12
    5  A    between atoms: C_17  and  C_26
    6  A    between atoms: C_18  and  C_22
    7  A    between atoms: C_19  and  C_20
    8  A    between atoms: C_23  and  C_26
                            x       y       z     vdW  Elec       q    Type
                         _______ _______ _______ _____ _____    ______ ____

>  <TORSDO>
F 8

$$$$
=
 OpenBabel11042410543D

 26 27  0  0  0  0  0  0  0  0999 V2000
  187.8140  177.4260  144.5280 C   0  0  0  0  0  0  0  0  0  0  0  0
  188.0770  176.5890  143.5120 C   0  0  0  0  0  3  0  0  0  0  0  0
  186.4170  177.9090  144.7090 C   0  0  0  0  0  0  0  0  0  0  0  0
  184.5950  178.6290  146.1570 C   0  0  0  0  0  3  0  0  0  0  0  0
  185.9100  178.1890  145.9910 C   0  0  0  0  0  3  0  0  0  0  0  0
  185.5690  178.0730  143.6030 C   0  0  0  0  0  3  0  0  0  0  0  0
  184.2480  178.5150  143.7580 C   0  0  0  0  0  0  0  0  0  0  0  0
  183.7670  178.7920  145.0450 C   0  0  0  0  0  3  0  0  0  0  0  0
  181.9970  179.0030  142.7460 N   0  0  0  0  0  1  0  0  0  0  0  0
  183.8430  178.5460  141.4200 O   0  0  0  0  0  0  0  0  0  0  0  0
  183.3770  178.6840  142.5830 C   0  0  0  0  0  0  0  0  0  0  0  0
  188.9180  177.3790  146.8090 N   0  0  0  0  0  2  0  0  0  0  0  0
  189.7700  178.6690  145.0650 O   0  0  0  0  0  0  0  0  0  0  0  0
  188.8800  177.8680  145.4650 C   0  0  0  0  0  0  0  0  0  0  0  0
  189.9900  177.7080  147.7400 C   0  0  0  0  0  2  0  0  0  0  0  0
  191.1300  176.7640  147.5670 C   0  0  0  0  0  0  0  0  0  0  0  0
  192.4810  175.2530  146.8030 C   0  0  0  0  0  3  0  0  0  0  0  0
  193.0360  175.8280  147.8890 N   0  0  0  0  0  0  0  0  0  0  0  0
  191.2480  175.8330  146.5560 C   0  0  0  0  0  3  0  0  0  0  0  0
  192.2160  176.7530  148.3530 N   0  0  0  0  0  2  0  0  0  0  0  0
  189.4110  175.9860  143.2220 C   0  0  0  0  0  2  0  0  0  0  0  0
  189.8600  176.4070  141.8940 C   0  0  0  0  0  0  0  0  0  0  0  0
  190.2300  176.7530  140.7990 C   0  0  0  0  0  0  0  0  0  0  0  0
  189.8570  177.9750  138.7150 O   0  0  0  0  0  0  0  0  0  0  0  0
  191.7890  176.7920  139.0640 O   0  0  0  0  0  1  0  0  0  0  0  0
  190.6690  177.1640  139.4970 C   0  0  0  0  0  0  0  0  0  0  0  0
  1  3  1  0  0  0  0
  1 14  1  0  0  0  0
  2  1  2  0  0  0  0
  3  5  1  0  0  0  0
  5  4  2  0  0  0  0
  6  7  1  0  0  0  0
  6  3  2  0  0  0  0
  7  8  2  0  0  0  0
  8  4  1  0  0  0  0
 10 11  2  0  0  0  0
 11  9  1  0  0  0  0
 11  7  1  0  0  0  0
 12 15  1  0  0  0  0
 13 14  2  0  0  0  0
 14 12  1  0  0  0  0
 16 15  1  0  0  0  0
 16 20  1  0  0  0  0
 17 18  2  0  0  0  0
 18 20  1  0  0  0  0
 19 17  1  0  0  0  0
 19 16  2  0  0  0  0
 21  2  1  0  0  0  0
 22 21  1  0  0  0  0
 23 22  3  0  0  0  0
 24 26  2  0  0  0  0
 25 26  1  0  0  0  0
 26 23  1  0  0  0  0
M  END
>  <MODEL>
5

>  <REMARK>
 VINA RESULT:      -8.1      2.929      7.649
  Name = 
  8 active torsions:
  status: ('A' for Active; 'I' for Inactive)
    1  A    between atoms: C_2  and  C_12
    2  A    between atoms: C_4  and  C_25
    3  A    between atoms: N_5  and  C_25
    4  A    between atoms: C_8  and  C_12
    5  A    between atoms: C_17  and  C_26
    6  A    between atoms: C_18  and  C_22
    7  A    between atoms: C_19  and  C_20
    8  A    between atoms: C_23  and  C_26
                            x       y       z     vdW  Elec       q    Type
                         _______ _______ _______ _____ _____    ______ ____

>  <TORSDO>
F 8

$$$$
=
 OpenBabel11042410543D

 26 27  0  0  0  0  0  0  0  0999 V2000
  188.1330  177.7180  144.2750 C   0  0  0  0  0  0  0  0  0  0  0  0
  189.1720  178.0460  145.0600 C   0  0  0  0  0  3  0  0  0  0  0  0
  186.7580  178.0480  144.7410 C   0  0  0  0  0  0  0  0  0  0  0  0
  185.1690  178.4380  146.5460 C   0  0  0  0  0  3  0  0  0  0  0  0
  186.4630  178.1420  146.1120 C   0  0  0  0  0  3  0  0  0  0  0  0
  185.7200  178.2500  143.8170 C   0  0  0  0  0  3  0  0  0  0  0  0
  184.4180  178.5480  144.2410 C   0  0  0  0  0  0  0  0  0  0  0  0
  184.1500  178.6410  145.6130 C   0  0  0  0  0  3  0  0  0  0  0  0
  183.6080  178.6230  141.8600 N   0  0  0  0  0  1  0  0  0  0  0  0
  182.1830  179.0630  143.6330 O   0  0  0  0  0  0  0  0  0  0  0  0
  183.3450  178.7590  143.2540 C   0  0  0  0  0  0  0  0  0  0  0  0
  188.5430  177.8100  141.7760 N   0  0  0  0  0  2  0  0  0  0  0  0
  188.3350  175.7830  142.9060 O   0  0  0  0  0  0  0  0  0  0  0  0
  188.3330  177.0440  142.9660 C   0  0  0  0  0  0  0  0  0  0  0  0
  188.8340  177.2020  140.4850 C   0  0  0  0  0  2  0  0  0  0  0  0
  190.3040  177.1910  140.2390 C   0  0  0  0  0  0  0  0  0  0  0  0
  192.2560  177.0430  139.3120 C   0  0  0  0  0  3  0  0  0  0  0  0
  192.4050  177.4880  140.5760 N   0  0  0  0  0  0  0  0  0  0  0  0
  190.9110  176.8440  139.0500 C   0  0  0  0  0  3  0  0  0  0  0  0
  191.2150  177.5840  141.1410 N   0  0  0  0  0  2  0  0  0  0  0  0
  190.6080  177.8200  144.7200 C   0  0  0  0  0  2  0  0  0  0  0  0
  191.2450  177.0380  145.7800 C   0  0  0  0  0  0  0  0  0  0  0  0
  191.7710  176.3940  146.6530 C   0  0  0  0  0  0  0  0  0  0  0  0
  191.7510  174.5200  148.2230 O   0  0  0  0  0  1  0  0  0  0  0  0
  193.5310  175.9610  148.1230 O   0  0  0  0  0  0  0  0  0  0  0  0
  192.3970  175.6280  147.6920 C   0  0  0  0  0  0  0  0  0  0  0  0
  1  3  1  0  0  0  0
  1  2  2  0  0  0  0
  3  5  1  0  0  0  0
  5  4  2  0  0  0  0
  6  7  1  0  0  0  0
  6  3  2  0  0  0  0
  7  8  2  0  0  0  0
  8  4  1  0  0  0  0
  9 11  1  0  0  0  0
 11 10  2  0  0  0  0
 11  7  1  0  0  0  0
 12 14  1  0  0  0  0
 13 14  2  0  0  0  0
 14  1  1  0  0  0  0
 15 12  1  0  0  0  0
 16 15  1  0  0  0  0
 16 20  1  0  0  0  0
 17 18  2  0  0  0  0
 18 20  1  0  0  0  0
 19 17  1  0  0  0  0
 19 16  2  0  0  0  0
 21  2  1  0  0  0  0
 21 22  1  0  0  0  0
 22 23  3  0  0  0  0
 23 26  1  0  0  0  0
 26 25  2  0  0  0  0
 26 24  1  0  0  0  0
M  END
>  <MODEL>
6

>  <REMARK>
 VINA RESULT:      -7.9      2.025      6.773
  Name = 
  8 active torsions:
  status: ('A' for Active; 'I' for Inactive)
    1  A    between atoms: C_2  and  C_12
    2  A    between atoms: C_4  and  C_25
    3  A    between atoms: N_5  and  C_25
    4  A    between atoms: C_8  and  C_12
    5  A    between atoms: C_17  and  C_26
    6  A    between atoms: C_18  and  C_22
    7  A    between atoms: C_19  and  C_20
    8  A    between atoms: C_23  and  C_26
                            x       y       z     vdW  Elec       q    Type
                         _______ _______ _______ _____ _____    ______ ____

>  <TORSDO>
F 8

$$$$
=
 OpenBabel11042410543D

 26 27  0  0  0  0  0  0  0  0999 V2000
  187.4100  177.8910  142.7660 C   0  0  0  0  0  0  0  0  0  0  0  0
  187.4420  178.4870  141.5630 C   0  0  0  0  0  3  0  0  0  0  0  0
  186.2580  178.1690  143.6670 C   0  0  0  0  0  0  0  0  0  0  0  0
  185.3500  178.5000  145.9030 C   0  0  0  0  0  3  0  0  0  0  0  0
  186.4360  178.2530  145.0600 C   0  0  0  0  0  3  0  0  0  0  0  0
  184.9650  178.3290  143.1450 C   0  0  0  0  0  3  0  0  0  0  0  0
  183.8690  178.5780  143.9830 C   0  0  0  0  0  0  0  0  0  0  0  0
  184.0720  178.6630  145.3670 C   0  0  0  0  0  3  0  0  0  0  0  0
  182.3520  179.0050  142.0220 N   0  0  0  0  0  1  0  0  0  0  0  0
  181.5030  178.6620  144.1520 O   0  0  0  0  0  0  0  0  0  0  0  0
  182.5210  178.7460  143.4130 C   0  0  0  0  0  0  0  0  0  0  0  0
  189.7590  177.4790  143.6250 N   0  0  0  0  0  2  0  0  0  0  0  0
  188.2810  175.7240  143.2200 O   0  0  0  0  0  0  0  0  0  0  0  0
  188.4900  176.9680  143.2030 C   0  0  0  0  0  0  0  0  0  0  0  0
  190.8190  176.6290  144.1490 C   0  0  0  0  0  2  0  0  0  0  0  0
  190.9330  176.7960  145.6250 C   0  0  0  0  0  0  0  0  0  0  0  0
  190.4930  177.1280  147.7190 C   0  0  0  0  0  3  0  0  0  0  0  0
  191.7820  176.7530  147.5970 N   0  0  0  0  0  0  0  0  0  0  0  0
  189.9040  177.1640  146.4670 C   0  0  0  0  0  2  0  0  0  0  0  0
  192.0510  176.5450  146.3220 N   0  0  0  0  0  0  0  0  0  0  0  0
  188.5030  178.2830  140.5330 C   0  0  0  0  0  2  0  0  0  0  0  0
  187.8860  177.8960  139.2640 C   0  0  0  0  0  0  0  0  0  0  0  0
  187.3770  177.5760  138.2190 C   0  0  0  0  0  0  0  0  0  0  0  0
  187.3410  176.1940  136.2030 O   0  0  0  0  0  0  0  0  0  0  0  0
  185.7240  177.7730  136.5840 O   0  0  0  0  0  1  0  0  0  0  0  0
  186.7710  177.1970  136.9750 C   0  0  0  0  0  0  0  0  0  0  0  0
  1 14  1  0  0  0  0
  1  3  1  0  0  0  0
  2  1  2  0  0  0  0
  3  5  1  0  0  0  0
  5  4  2  0  0  0  0
  6  3  2  0  0  0  0
  6  7  1  0  0  0  0
  7  8  2  0  0  0  0
  8  4  1  0  0  0  0
  9 11  1  0  0  0  0
 11  7  1  0  0  0  0
 11 10  2  0  0  0  0
 12 15  1  0  0  0  0
 14 13  2  0  0  0  0
 14 12  1  0  0  0  0
 15 16  1  0  0  0  0
 16 20  2  0  0  0  0
 16 19  1  0  0  0  0
 18 17  2  0  0  0  0
 19 17  1  0  0  0  0
 20 18  1  0  0  0  0
 21  2  1  0  0  0  0
 22 21  1  0  0  0  0
 23 22  3  0  0  0  0
 24 26  2  0  0  0  0
 25 26  1  0  0  0  0
 26 23  1  0  0  0  0
M  END
>  <MODEL>
7

>  <REMARK>
 VINA RESULT:      -7.9      2.591      6.916
  Name = 
  8 active torsions:
  status: ('A' for Active; 'I' for Inactive)
    1  A    between atoms: C_2  and  C_12
    2  A    between atoms: C_4  and  C_25
    3  A    between atoms: N_5  and  C_25
    4  A    between atoms: C_8  and  C_12
    5  A    between atoms: C_17  and  C_26
    6  A    between atoms: C_18  and  C_22
    7  A    between atoms: C_19  and  C_20
    8  A    between atoms: C_23  and  C_26
                            x       y       z     vdW  Elec       q    Type
                         _______ _______ _______ _____ _____    ______ ____

>  <TORSDO>
F 8

$$$$
=
 OpenBabel11042410543D

 26 27  0  0  0  0  0  0  0  0999 V2000
  186.7700  178.1570  144.6910 C   0  0  0  0  0  0  0  0  0  0  0  0
  187.2090  177.8800  143.4530 C   0  0  0  0  0  3  0  0  0  0  0  0
  187.6440  177.8180  145.8480 C   0  0  0  0  0  0  0  0  0  0  0  0
  187.9770  177.5670  148.2480 C   0  0  0  0  0  3  0  0  0  0  0  0
  187.1510  177.8730  147.1640 C   0  0  0  0  0  3  0  0  0  0  0  0
  188.9850  177.4580  145.6490 C   0  0  0  0  0  3  0  0  0  0  0  0
  189.8230  177.1480  146.7290 C   0  0  0  0  0  0  0  0  0  0  0  0
  189.3080  177.2050  148.0320 C   0  0  0  0  0  3  0  0  0  0  0  0
  191.6790  176.4410  145.1860 N   0  0  0  0  0  1  0  0  0  0  0  0
  192.0430  176.7320  147.4560 O   0  0  0  0  0  0  0  0  0  0  0  0
  191.2270  176.7700  146.4970 C   0  0  0  0  0  0  0  0  0  0  0  0
  184.2900  178.3470  144.2050 N   0  0  0  0  0  2  0  0  0  0  0  0
  185.3370  179.7220  145.7680 O   0  0  0  0  0  0  0  0  0  0  0  0
  185.4460  178.7930  144.9210 C   0  0  0  0  0  0  0  0  0  0  0  0
  182.9540  178.8710  144.4560 C   0  0  0  0  0  2  0  0  0  0  0  0
  182.2000  178.9970  143.1770 C   0  0  0  0  0  0  0  0  0  0  0  0
  181.6010  178.8920  141.0980 C   0  0  0  0  0  3  0  0  0  0  0  0
  180.5710  179.3680  141.8280 N   0  0  0  0  0  0  0  0  0  0  0  0
  182.6740  178.6340  141.9330 C   0  0  0  0  0  3  0  0  0  0  0  0
  180.9330  179.4270  143.0960 N   0  0  0  0  0  2  0  0  0  0  0  0
  186.4720  178.1930  142.1920 C   0  0  0  0  0  2  0  0  0  0  0  0
  187.4210  178.2960  141.0830 C   0  0  0  0  0  0  0  0  0  0  0  0
  188.2030  178.3810  140.1690 C   0  0  0  0  0  0  0  0  0  0  0  0
  188.9200  179.4110  138.0710 O   0  0  0  0  0  0  0  0  0  0  0  0
  190.1390  177.7310  139.0420 O   0  0  0  0  0  1  0  0  0  0  0  0
  189.1320  178.4820  139.0810 C   0  0  0  0  0  0  0  0  0  0  0  0
  1 14  1  0  0  0  0
  1  3  1  0  0  0  0
  2  1  2  0  0  0  0
  3  5  1  0  0  0  0
  5  4  2  0  0  0  0
  6  3  2  0  0  0  0
  6  7  1  0  0  0  0
  7  8  2  0  0  0  0
  8  4  1  0  0  0  0
  9 11  1  0  0  0  0
 11  7  1  0  0  0  0
 11 10  2  0  0  0  0
 12 15  1  0  0  0  0
 12 14  1  0  0  0  0
 14 13  2  0  0  0  0
 16 15  1  0  0  0  0
 17 18  2  0  0  0  0
 17 19  1  0  0  0  0
 18 20  1  0  0  0  0
 19 16  2  0  0  0  0
 20 16  1  0  0  0  0
 21  2  1  0  0  0  0
 22 21  1  0  0  0  0
 23 22  3  0  0  0  0
 24 26  2  0  0  0  0
 25 26  1  0  0  0  0
 26 23  1  0  0  0  0
M  END
>  <MODEL>
8

>  <REMARK>
 VINA RESULT:      -7.9      3.068      5.455
  Name = 
  8 active torsions:
  status: ('A' for Active; 'I' for Inactive)
    1  A    between atoms: C_2  and  C_12
    2  A    between atoms: C_4  and  C_25
    3  A    between atoms: N_5  and  C_25
    4  A    between atoms: C_8  and  C_12
    5  A    between atoms: C_17  and  C_26
    6  A    between atoms: C_18  and  C_22
    7  A    between atoms: C_19  and  C_20
    8  A    between atoms: C_23  and  C_26
                            x       y       z     vdW  Elec       q    Type
                         _______ _______ _______ _____ _____    ______ ____

>  <TORSDO>
F 8

$$$$
=
 OpenBabel11042410543D

 26 27  0  0  0  0  0  0  0  0999 V2000
  188.0140  177.7890  142.1060 C   0  0  0  0  0  0  0  0  0  0  0  0
  188.7880  178.0770  141.0480 C   0  0  0  0  0  3  0  0  0  0  0  0
  186.5910  178.2280  142.0880 C   0  0  0  0  0  0  0  0  0  0  0  0
  184.6410  179.0400  140.8760 C   0  0  0  0  0  3  0  0  0  0  0  0
  185.9710  178.6150  140.8870 C   0  0  0  0  0  3  0  0  0  0  0  0
  185.8460  178.2860  143.2760 C   0  0  0  0  0  3  0  0  0  0  0  0
  184.5100  178.7100  143.2770 C   0  0  0  0  0  0  0  0  0  0  0  0
  183.9120  179.0860  142.0660 C   0  0  0  0  0  3  0  0  0  0  0  0
  184.4160  178.9450  145.7790 N   0  0  0  0  0  1  0  0  0  0  0  0
  182.4920  178.6390  144.5230 O   0  0  0  0  0  0  0  0  0  0  0  0
  183.7460  178.7600  144.5350 C   0  0  0  0  0  0  0  0  0  0  0  0
  189.2920  177.7220  144.2940 N   0  0  0  0  0  2  0  0  0  0  0  0
  188.3250  175.8070  143.3850 O   0  0  0  0  0  0  0  0  0  0  0  0
  188.5470  177.0440  143.2770 C   0  0  0  0  0  0  0  0  0  0  0  0
  189.7580  177.0620  145.5050 C   0  0  0  0  0  2  0  0  0  0  0  0
  188.9840  177.5410  146.6850 C   0  0  0  0  0  0  0  0  0  0  0  0
  187.3900  178.1720  148.0080 C   0  0  0  0  0  3  0  0  0  0  0  0
  188.5370  178.0890  148.7130 N   0  0  0  0  0  0  0  0  0  0  0  0
  187.6330  177.8210  146.6910 C   0  0  0  0  0  3  0  0  0  0  0  0
  189.5080  177.6990  147.9090 N   0  0  0  0  0  2  0  0  0  0  0  0
  190.2180  177.6740  140.8960 C   0  0  0  0  0  2  0  0  0  0  0  0
  190.3650  176.8280  139.7120 C   0  0  0  0  0  0  0  0  0  0  0  0
  190.4860  176.1320  138.7350 C   0  0  0  0  0  0  0  0  0  0  0  0
  190.9020  175.8790  136.3390 O   0  0  0  0  0  0  0  0  0  0  0  0
  190.5130  174.0550  137.6710 O   0  0  0  0  0  1  0  0  0  0  0  0
  190.6310  175.3030  137.5730 C   0  0  0  0  0  0  0  0  0  0  0  0
  1 14  1  0  0  0  0
  2  1  2  0  0  0  0
  3  1  1  0  0  0  0
  3  6  1  0  0  0  0
  4  5  1  0  0  0  0
  4  8  2  0  0  0  0
  5  3  2  0  0  0  0
  6  7  2  0  0  0  0
  7 11  1  0  0  0  0
  8  7  1  0  0  0  0
 10 11  2  0  0  0  0
 11  9  1  0  0  0  0
 12 15  1  0  0  0  0
 14 13  2  0  0  0  0
 14 12  1  0  0  0  0
 15 16  1  0  0  0  0
 16 19  2  0  0  0  0
 16 20  1  0  0  0  0
 17 18  2  0  0  0  0
 19 17  1  0  0  0  0
 20 18  1  0  0  0  0
 21  2  1  0  0  0  0
 22 21  1  0  0  0  0
 23 22  3  0  0  0  0
 24 26  2  0  0  0  0
 26 25  1  0  0  0  0
 26 23  1  0  0  0  0
M  END
>  <MODEL>
9

>  <REMARK>
 VINA RESULT:      -7.8      2.763      7.775
  Name = 
  8 active torsions:
  status: ('A' for Active; 'I' for Inactive)
    1  A    between atoms: C_2  and  C_12
    2  A    between atoms: C_4  and  C_25
    3  A    between atoms: N_5  and  C_25
    4  A    between atoms: C_8  and  C_12
    5  A    between atoms: C_17  and  C_26
    6  A    between atoms: C_18  and  C_22
    7  A    between atoms: C_19  and  C_20
    8  A    between atoms: C_23  and  C_26
                            x       y       z     vdW  Elec       q    Type
                         _______ _______ _______ _____ _____    ______ ____

>  <TORSDO>
F 8

$$$$
