=
 OpenBabel11032420373D

 27 30  0  0  1  0  0  0  0  0999 V2000
  189.9590  176.9040  145.4130 C   0  0  2  0  0  3  0  0  0  0  0  0
  186.9490  178.1900  147.3720 C   0  0  0  0  0  3  0  0  0  0  0  0
  185.4370  178.2490  144.0050 C   0  0  0  0  0  3  0  0  0  0  0  0
  183.8720  178.9970  145.6390 N   0  0  0  0  0  0  0  0  0  0  0  0
  188.5880  177.4090  145.7540 C   0  0  0  0  0  0  0  0  0  0  0  0
  188.2310  177.7140  147.0780 C   0  0  0  0  0  3  0  0  0  0  0  0
  184.7700  178.8220  146.6130 N   0  0  0  0  0  0  0  0  0  0  0  0
  186.3750  178.0640  145.0160 C   0  0  0  0  0  0  0  0  0  0  0  0
  186.0200  178.3630  146.3440 C   0  0  0  0  0  0  0  0  0  0  0  0
  187.6570  177.5900  144.7250 C   0  0  0  0  0  3  0  0  0  0  0  0
  184.1690  178.7230  144.3400 C   0  0  0  0  0  3  0  0  0  0  0  0
  192.1430  176.4780  146.3010 O   0  0  0  0  0  0  0  0  0  0  0  0
  190.9840  177.2550  146.4920 C   0  0  2  0  0  3  0  0  0  0  0  0
  191.2750  176.0700  147.3290 C   0  0  0  0  0  2  0  0  0  0  0  0
  191.4810  178.2940  144.0540 N   0  0  0  0  0  1  0  0  0  0  0  0
  190.3840  177.3360  144.0040 C   0  0  1  0  0  3  0  0  0  0  0  0
  190.7750  176.1280  143.1670 C   0  0  0  0  0  2  0  0  0  0  0  0
  190.0920  176.1610  141.8850 N   0  0  0  0  0  2  0  0  0  0  0  0
  190.1860  177.4760  141.4020 N   0  0  0  0  0  0  0  0  0  0  0  0
  190.0090  177.6460  139.2480 C   0  0  2  0  0  3  0  0  0  0  0  0
  191.1070  177.4530  140.2740 C   0  0  0  0  0  2  0  0  0  0  0  0
  189.0920  177.6630  140.4590 C   0  0  0  0  0  2  0  0  0  0  0  0
  188.6500  176.0880  137.9070 C   0  0  0  0  0  2  0  0  0  0  0  0
  189.8470  176.4030  138.4050 C   0  0  0  0  0  0  0  0  0  0  0  0
  192.0600  176.3930  137.1970 N   0  0  0  0  0  1  0  0  0  0  0  0
  191.0410  175.6890  137.9000 C   0  0  0  0  0  0  0  0  0  0  0  0
  191.1710  174.4490  138.0850 O   0  0  0  0  0  0  0  0  0  0  0  0
  1 16  1  6  0  0  0
  1  5  1  0  0  0  0
  3 11  2  0  0  0  0
  3  8  1  0  0  0  0
  4  7  2  0  0  0  0
  5  6  2  0  0  0  0
  6  2  1  0  0  0  0
  8  9  1  0  0  0  0
  9  7  1  0  0  0  0
  9  2  2  0  0  0  0
 10  8  2  0  0  0  0
 10  5  1  0  0  0  0
 11  4  1  0  0  0  0
 12 13  1  0  0  0  0
 12 14  1  0  0  0  0
 13  1  1  6  0  0  0
 13 14  1  0  0  0  0
 16 15  1  1  0  0  0
 17 16  1  0  0  0  0
 18 17  1  0  0  0  0
 19 18  1  0  0  0  0
 20 24  1  6  0  0  0
 20 21  1  0  0  0  0
 20 22  1  0  0  0  0
 21 19  1  0  0  0  0
 22 19  1  0  0  0  0
 23 24  2  0  0  0  0
 25 26  1  0  0  0  0
 26 27  2  0  0  0  0
 26 24  1  0  0  0  0
M  END
>  <MODEL>
1

>  <REMARK>
 VINA RESULT:      -8.8      0.000      0.000
  Name = 
  8 active torsions:
  status: ('A' for Active; 'I' for Inactive)
    1  A    between atoms: N_2  and  N_14
    2  A    between atoms: C_3  and  C_13
    3  A    between atoms: C_10  and  C_19
    4  A    between atoms: C_12  and  C_19
    5  A    between atoms: C_13  and  C_20
    6  A    between atoms: N_14  and  C_15
    7  A    between atoms: C_15  and  C_22
    8  A    between atoms: C_19  and  C_22
                            x       y       z     vdW  Elec       q    Type
                         _______ _______ _______ _____ _____    ______ ____

>  <TORSDO>
F 8

$$$$
=
 OpenBabel11032420373D

 27 30  0  0  1  0  0  0  0  0999 V2000
  190.0530  176.8630  145.5100 C   0  0  2  0  0  3  0  0  0  0  0  0
  187.0490  178.1560  147.4730 C   0  0  0  0  0  3  0  0  0  0  0  0
  185.5360  178.2290  144.1070 C   0  0  0  0  0  3  0  0  0  0  0  0
  183.9750  178.9790  145.7430 N   0  0  0  0  0  0  0  0  0  0  0  0
  188.6850  177.3730  145.8530 C   0  0  0  0  0  0  0  0  0  0  0  0
  188.3280  177.6760  147.1770 C   0  0  0  0  0  3  0  0  0  0  0  0
  184.8720  178.7980  146.7160 N   0  0  0  0  0  0  0  0  0  0  0  0
  186.4740  178.0380  145.1170 C   0  0  0  0  0  0  0  0  0  0  0  0
  186.1200  178.3350  146.4460 C   0  0  0  0  0  0  0  0  0  0  0  0
  187.7540  177.5600  144.8240 C   0  0  0  0  0  3  0  0  0  0  0  0
  184.2700  178.7070  144.4430 C   0  0  0  0  0  3  0  0  0  0  0  0
  192.2200  176.3770  146.4090 O   0  0  0  0  0  0  0  0  0  0  0  0
  191.0690  177.1610  146.6130 C   0  0  2  0  0  3  0  0  0  0  0  0
  191.3340  175.9440  147.4110 C   0  0  0  0  0  2  0  0  0  0  0  0
  191.5570  178.3400  144.2240 N   0  0  0  0  0  1  0  0  0  0  0  0
  190.5010  177.3410  144.1230 C   0  0  1  0  0  3  0  0  0  0  0  0
  190.9640  176.1670  143.2740 C   0  0  0  0  0  2  0  0  0  0  0  0
  190.1340  176.0460  142.0870 N   0  0  0  0  0  2  0  0  0  0  0  0
  190.9110  176.4660  140.9960 N   0  0  0  0  0  0  0  0  0  0  0  0
  189.8530  177.7270  139.5860 C   0  0  2  0  0  3  0  0  0  0  0  0
  190.1160  176.2500  139.7950 C   0  0  0  0  0  2  0  0  0  0  0  0
  190.6900  177.8970  140.8430 C   0  0  0  0  0  2  0  0  0  0  0  0
  187.9900  178.5550  140.9700 C   0  0  0  0  0  2  0  0  0  0  0  0
  188.3910  178.0420  139.8060 C   0  0  0  0  0  0  0  0  0  0  0  0
  187.8390  177.4890  137.4080 N   0  0  0  0  0  1  0  0  0  0  0  0
  187.4540  178.0490  138.6600 C   0  0  0  0  0  0  0  0  0  0  0  0
  186.3050  178.5520  138.7780 O   0  0  0  0  0  0  0  0  0  0  0  0
  1 16  1  6  0  0  0
  1  5  1  0  0  0  0
  3 11  2  0  0  0  0
  3  8  1  0  0  0  0
  4  7  2  0  0  0  0
  5  6  2  0  0  0  0
  6  2  1  0  0  0  0
  8  9  1  0  0  0  0
  9  7  1  0  0  0  0
  9  2  2  0  0  0  0
 10  8  2  0  0  0  0
 10  5  1  0  0  0  0
 11  4  1  0  0  0  0
 12 13  1  0  0  0  0
 12 14  1  0  0  0  0
 13  1  1  6  0  0  0
 13 14  1  0  0  0  0
 16 15  1  1  0  0  0
 17 16  1  0  0  0  0
 18 17  1  0  0  0  0
 19 18  1  0  0  0  0
 20 21  1  0  0  0  0
 20 24  1  1  0  0  0
 20 22  1  0  0  0  0
 21 19  1  0  0  0  0
 22 19  1  0  0  0  0
 24 23  2  0  0  0  0
 25 26  1  0  0  0  0
 26 27  2  0  0  0  0
 26 24  1  0  0  0  0
M  END
>  <MODEL>
2

>  <REMARK>
 VINA RESULT:      -8.6      1.657      2.014
  Name = 
  8 active torsions:
  status: ('A' for Active; 'I' for Inactive)
    1  A    between atoms: N_2  and  N_14
    2  A    between atoms: C_3  and  C_13
    3  A    between atoms: C_10  and  C_19
    4  A    between atoms: C_12  and  C_19
    5  A    between atoms: C_13  and  C_20
    6  A    between atoms: N_14  and  C_15
    7  A    between atoms: C_15  and  C_22
    8  A    between atoms: C_19  and  C_22
                            x       y       z     vdW  Elec       q    Type
                         _______ _______ _______ _____ _____    ______ ____

>  <TORSDO>
F 8

$$$$
=
 OpenBabel11032420373D

 27 30  0  0  1  0  0  0  0  0999 V2000
  189.7150  177.0770  144.7750 C   0  0  2  0  0  3  0  0  0  0  0  0
  186.8590  178.1040  147.0860 C   0  0  0  0  0  3  0  0  0  0  0  0
  185.0600  178.4050  143.8760 C   0  0  0  0  0  3  0  0  0  0  0  0
  183.6270  178.9660  145.6950 N   0  0  0  0  0  0  0  0  0  0  0  0
  188.3690  177.5110  145.2730 C   0  0  0  0  0  0  0  0  0  0  0  0
  188.1200  177.6920  146.6440 C   0  0  0  0  0  3  0  0  0  0  0  0
  184.6100  178.7350  146.5720 N   0  0  0  0  0  0  0  0  0  0  0  0
  186.0870  178.1630  144.7840 C   0  0  0  0  0  0  0  0  0  0  0  0
  185.8410  178.3370  146.1590 C   0  0  0  0  0  0  0  0  0  0  0  0
  187.3480  177.7520  144.3460 C   0  0  0  0  0  3  0  0  0  0  0  0
  183.8160  178.8120  144.3570 C   0  0  0  0  0  3  0  0  0  0  0  0
  191.8980  176.5220  145.5900 O   0  0  0  0  0  0  0  0  0  0  0  0
  190.8310  177.4230  145.7610 C   0  0  2  0  0  3  0  0  0  0  0  0
  191.0590  176.2980  146.6950 C   0  0  0  0  0  2  0  0  0  0  0  0
  191.1980  178.3810  143.2940 N   0  0  0  0  0  1  0  0  0  0  0  0
  189.9800  177.5850  143.3520 C   0  0  1  0  0  3  0  0  0  0  0  0
  190.0600  176.4230  142.3740 C   0  0  0  0  0  2  0  0  0  0  0  0
  189.5020  176.8080  141.0880 N   0  0  0  0  0  2  0  0  0  0  0  0
  190.4140  176.3980  140.1030 N   0  0  0  0  0  0  0  0  0  0  0  0
  190.1090  177.3270  138.1680 C   0  0  2  0  0  3  0  0  0  0  0  0
  189.6420  176.0890  138.9070 C   0  0  0  0  0  2  0  0  0  0  0  0
  190.8940  177.6020  139.4400 C   0  0  0  0  0  2  0  0  0  0  0  0
  189.1140  179.3510  137.1760 C   0  0  0  0  0  2  0  0  0  0  0  0
  188.9610  178.2890  137.9670 C   0  0  0  0  0  0  0  0  0  0  0  0
  186.8090  177.0140  137.6410 N   0  0  0  0  0  1  0  0  0  0  0  0
  187.5980  177.9180  138.4100 C   0  0  0  0  0  0  0  0  0  0  0  0
  187.1180  178.3980  139.4720 O   0  0  0  0  0  0  0  0  0  0  0  0
  1 16  1  6  0  0  0
  1  5  1  0  0  0  0
  3 11  2  0  0  0  0
  3  8  1  0  0  0  0
  4  7  2  0  0  0  0
  5  6  2  0  0  0  0
  6  2  1  0  0  0  0
  8  9  1  0  0  0  0
  9  7  1  0  0  0  0
  9  2  2  0  0  0  0
 10  8  2  0  0  0  0
 10  5  1  0  0  0  0
 11  4  1  0  0  0  0
 12 13  1  0  0  0  0
 12 14  1  0  0  0  0
 13  1  1  6  0  0  0
 13 14  1  0  0  0  0
 16 15  1  1  0  0  0
 17 16  1  0  0  0  0
 18 17  1  0  0  0  0
 19 18  1  0  0  0  0
 20 24  1  1  0  0  0
 20 21  1  0  0  0  0
 20 22  1  0  0  0  0
 21 19  1  0  0  0  0
 22 19  1  0  0  0  0
 23 24  2  0  0  0  0
 24 26  1  0  0  0  0
 25 26  1  0  0  0  0
 26 27  2  0  0  0  0
M  END
>  <MODEL>
3

>  <REMARK>
 VINA RESULT:      -8.2      1.803      2.082
  Name = 
  8 active torsions:
  status: ('A' for Active; 'I' for Inactive)
    1  A    between atoms: N_2  and  N_14
    2  A    between atoms: C_3  and  C_13
    3  A    between atoms: C_10  and  C_19
    4  A    between atoms: C_12  and  C_19
    5  A    between atoms: C_13  and  C_20
    6  A    between atoms: N_14  and  C_15
    7  A    between atoms: C_15  and  C_22
    8  A    between atoms: C_19  and  C_22
                            x       y       z     vdW  Elec       q    Type
                         _______ _______ _______ _____ _____    ______ ____

>  <TORSDO>
F 8

$$$$
=
 OpenBabel11032420373D

 27 30  0  0  1  0  0  0  0  0999 V2000
  189.8490  177.2890  144.1110 C   0  0  2  0  0  3  0  0  0  0  0  0
  187.3440  177.7970  146.9420 C   0  0  0  0  0  3  0  0  0  0  0  0
  185.1290  178.6890  144.1270 C   0  0  0  0  0  3  0  0  0  0  0  0
  183.9620  178.8600  146.1970 N   0  0  0  0  0  0  0  0  0  0  0  0
  188.5880  177.5950  144.8620 C   0  0  0  0  0  0  0  0  0  0  0  0
  188.5290  177.5010  146.2630 C   0  0  0  0  0  3  0  0  0  0  0  0
  185.0520  178.4790  146.8700 N   0  0  0  0  0  0  0  0  0  0  0  0
  186.2670  178.2910  144.8230 C   0  0  0  0  0  0  0  0  0  0  0  0
  186.2120  178.1890  146.2250 C   0  0  0  0  0  0  0  0  0  0  0  0
  187.4530  177.9950  144.1460 C   0  0  0  0  0  3  0  0  0  0  0  0
  183.9660  178.9730  144.8410 C   0  0  0  0  0  3  0  0  0  0  0  0
  191.8310  178.2840  143.2060 O   0  0  0  0  0  0  0  0  0  0  0  0
  190.4860  178.5490  143.5230 C   0  0  2  0  0  3  0  0  0  0  0  0
  191.5950  179.0140  144.3840 C   0  0  0  0  0  2  0  0  0  0  0  0
  188.2910  175.6200  143.1730 N   0  0  0  0  0  1  0  0  0  0  0  0
  189.6340  176.1760  143.0780 C   0  0  1  0  0  3  0  0  0  0  0  0
  189.8940  176.6930  141.6710 C   0  0  0  0  0  2  0  0  0  0  0  0
  188.6390  177.0330  141.0200 N   0  0  0  0  0  2  0  0  0  0  0  0
  188.8840  178.1570  140.2150 N   0  0  0  0  0  0  0  0  0  0  0  0
  189.1890  177.6970  138.1180 C   0  0  2  0  0  3  0  0  0  0  0  0
  190.0280  177.8370  139.3720 C   0  0  0  0  0  2  0  0  0  0  0  0
  188.0310  178.0330  139.0420 C   0  0  0  0  0  2  0  0  0  0  0  0
  188.0250  175.7060  137.2480 C   0  0  0  0  0  2  0  0  0  0  0  0
  189.1700  176.2590  137.6520 C   0  0  0  0  0  0  0  0  0  0  0  0
  191.3320  176.0310  136.3750 N   0  0  0  0  0  1  0  0  0  0  0  0
  190.4410  175.5520  137.3780 C   0  0  0  0  0  0  0  0  0  0  0  0
  190.7500  174.5170  138.0270 O   0  0  0  0  0  0  0  0  0  0  0  0
  1 16  1  6  0  0  0
  1  5  1  0  0  0  0
  3  8  1  0  0  0  0
  3 11  2  0  0  0  0
  4  7  2  0  0  0  0
  5  6  2  0  0  0  0
  6  2  1  0  0  0  0
  8  9  1  0  0  0  0
  9  7  1  0  0  0  0
  9  2  2  0  0  0  0
 10  8  2  0  0  0  0
 10  5  1  0  0  0  0
 11  4  1  0  0  0  0
 12 13  1  0  0  0  0
 12 14  1  0  0  0  0
 13  1  1  1  0  0  0
 13 14  1  0  0  0  0
 16 15  1  6  0  0  0
 17 16  1  0  0  0  0
 18 17  1  0  0  0  0
 19 18  1  0  0  0  0
 20 24  1  1  0  0  0
 20 22  1  0  0  0  0
 20 21  1  0  0  0  0
 21 19  1  0  0  0  0
 22 19  1  0  0  0  0
 23 24  2  0  0  0  0
 25 26  1  0  0  0  0
 26 24  1  0  0  0  0
 26 27  2  0  0  0  0
M  END
>  <MODEL>
4

>  <REMARK>
 VINA RESULT:      -7.6      1.600      1.826
  Name = 
  8 active torsions:
  status: ('A' for Active; 'I' for Inactive)
    1  A    between atoms: N_2  and  N_14
    2  A    between atoms: C_3  and  C_13
    3  A    between atoms: C_10  and  C_19
    4  A    between atoms: C_12  and  C_19
    5  A    between atoms: C_13  and  C_20
    6  A    between atoms: N_14  and  C_15
    7  A    between atoms: C_15  and  C_22
    8  A    between atoms: C_19  and  C_22
                            x       y       z     vdW  Elec       q    Type
                         _______ _______ _______ _____ _____    ______ ____

>  <TORSDO>
F 8

$$$$
=
 OpenBabel11032420373D

 27 30  0  0  1  0  0  0  0  0999 V2000
  184.9900  178.4320  144.0100 C   0  0  2  0  0  3  0  0  0  0  0  0
  184.8730  178.6950  140.2060 C   0  0  0  0  0  3  0  0  0  0  0  0
  188.5270  178.3350  140.5870 C   0  0  0  0  0  3  0  0  0  0  0  0
  187.9410  178.5380  138.2870 N   0  0  0  0  0  0  0  0  0  0  0  0
  185.4060  178.4840  142.5700 C   0  0  0  0  0  0  0  0  0  0  0  0
  184.4620  178.6430  141.5420 C   0  0  0  0  0  3  0  0  0  0  0  0
  186.6450  178.6340  138.6010 N   0  0  0  0  0  0  0  0  0  0  0  0
  187.1800  178.4340  140.9200 C   0  0  0  0  0  0  0  0  0  0  0  0
  186.2300  178.5880  139.8930 C   0  0  0  0  0  0  0  0  0  0  0  0
  186.7660  178.3840  142.2540 C   0  0  0  0  0  3  0  0  0  0  0  0
  188.8970  178.3890  139.2440 C   0  0  0  0  0  3  0  0  0  0  0  0
  183.2460  179.0670  145.5250 O   0  0  0  0  0  0  0  0  0  0  0  0
  183.8770  179.4340  144.3220 C   0  0  2  0  0  3  0  0  0  0  0  0
  182.5630  178.7550  144.3360 C   0  0  0  0  0  2  0  0  0  0  0  0
  185.8840  179.3710  146.1110 N   0  0  0  0  0  1  0  0  0  0  0  0
  186.1970  178.5500  144.9500 C   0  0  1  0  0  3  0  0  0  0  0  0
  186.6710  177.1730  145.3880 C   0  0  0  0  0  2  0  0  0  0  0  0
  188.0480  176.9590  144.9720 N   0  0  0  0  0  2  0  0  0  0  0  0
  188.8450  177.8460  145.7120 N   0  0  0  0  0  0  0  0  0  0  0  0
  190.9770  177.5620  145.4410 C   0  0  2  0  0  3  0  0  0  0  0  0
  189.8820  177.0530  146.3570 C   0  0  0  0  0  2  0  0  0  0  0  0
  189.8570  178.3670  144.8040 C   0  0  0  0  0  2  0  0  0  0  0  0
  191.9310  175.3170  145.0910 C   0  0  0  0  0  2  0  0  0  0  0  0
  191.4810  176.4500  144.5500 C   0  0  0  0  0  0  0  0  0  0  0  0
  190.1960  175.6970  142.5150 N   0  0  0  0  0  1  0  0  0  0  0  0
  191.2250  176.4950  143.0930 C   0  0  0  0  0  0  0  0  0  0  0  0
  191.9150  177.2380  142.3450 O   0  0  0  0  0  0  0  0  0  0  0  0
  1 16  1  1  0  0  0
  2  6  1  0  0  0  0
  3  8  1  0  0  0  0
  4  7  2  0  0  0  0
  4 11  1  0  0  0  0
  5  1  1  0  0  0  0
  6  5  2  0  0  0  0
  7  9  1  0  0  0  0
  8 10  2  0  0  0  0
  9  2  2  0  0  0  0
  9  8  1  0  0  0  0
 10  5  1  0  0  0  0
 11  3  2  0  0  0  0
 13  1  1  6  0  0  0
 13 14  1  0  0  0  0
 13 12  1  0  0  0  0
 14 12  1  0  0  0  0
 16 17  1  0  0  0  0
 16 15  1  1  0  0  0
 18 17  1  0  0  0  0
 18 19  1  0  0  0  0
 19 21  1  0  0  0  0
 20 24  1  6  0  0  0
 20 21  1  0  0  0  0
 22 20  1  0  0  0  0
 22 19  1  0  0  0  0
 24 23  2  0  0  0  0
 25 26  1  0  0  0  0
 26 24  1  0  0  0  0
 27 26  2  0  0  0  0
M  END
>  <MODEL>
5

>  <REMARK>
 VINA RESULT:      -7.3      2.916      6.288
  Name = 
  8 active torsions:
  status: ('A' for Active; 'I' for Inactive)
    1  A    between atoms: N_2  and  N_14
    2  A    between atoms: C_3  and  C_13
    3  A    between atoms: C_10  and  C_19
    4  A    between atoms: C_12  and  C_19
    5  A    between atoms: C_13  and  C_20
    6  A    between atoms: N_14  and  C_15
    7  A    between atoms: C_15  and  C_22
    8  A    between atoms: C_19  and  C_22
                            x       y       z     vdW  Elec       q    Type
                         _______ _______ _______ _____ _____    ______ ____

>  <TORSDO>
F 8

$$$$
=
 OpenBabel11032420373D

 27 30  0  0  1  0  0  0  0  0999 V2000
  186.7560  177.8940  142.4410 C   0  0  2  0  0  3  0  0  0  0  0  0
  187.3350  177.4560  146.1860 C   0  0  0  0  0  3  0  0  0  0  0  0
  190.8200  176.9820  145.0660 C   0  0  0  0  0  3  0  0  0  0  0  0
  190.6700  176.7940  147.4360 N   0  0  0  0  0  0  0  0  0  0  0  0
  187.4240  177.6680  143.7650 C   0  0  0  0  0  0  0  0  0  0  0  0
  186.6920  177.6750  144.9640 C   0  0  0  0  0  3  0  0  0  0  0  0
  189.3530  177.0170  147.3940 N   0  0  0  0  0  0  0  0  0  0  0  0
  189.4490  177.2150  145.0160 C   0  0  0  0  0  0  0  0  0  0  0  0
  188.7130  177.2290  146.2150 C   0  0  0  0  0  0  0  0  0  0  0  0
  188.8040  177.4330  143.7960 C   0  0  0  0  0  3  0  0  0  0  0  0
  191.4250  176.7700  146.3040 C   0  0  0  0  0  3  0  0  0  0  0  0
  187.1540  178.5690  140.1770 O   0  0  0  0  0  0  0  0  0  0  0  0
  187.6250  178.7230  141.4950 C   0  0  2  0  0  3  0  0  0  0  0  0
  188.3080  177.8430  140.5210 C   0  0  0  0  0  2  0  0  0  0  0  0
  185.3390  179.9100  142.5980 N   0  0  0  0  0  1  0  0  0  0  0  0
  185.3380  178.4530  142.6140 C   0  0  1  0  0  3  0  0  0  0  0  0
  184.4140  177.9140  141.5330 C   0  0  0  0  0  2  0  0  0  0  0  0
  183.8720  179.0070  140.7420 N   0  0  0  0  0  2  0  0  0  0  0  0
  183.0520  178.4360  139.7560 N   0  0  0  0  0  0  0  0  0  0  0  0
  180.9280  178.6690  140.1220 C   0  0  2  0  0  3  0  0  0  0  0  0
  182.0220  177.6720  140.4460 C   0  0  0  0  0  2  0  0  0  0  0  0
  182.0410  179.4270  139.4180 C   0  0  0  0  0  2  0  0  0  0  0  0
  179.7530  180.4920  141.2920 C   0  0  0  0  0  2  0  0  0  0  0  0
  180.4520  179.3590  141.3800 C   0  0  0  0  0  0  0  0  0  0  0  0
  181.5540  178.9350  143.6080 N   0  0  0  0  0  1  0  0  0  0  0  0
  180.5110  178.6540  142.6800 C   0  0  0  0  0  0  0  0  0  0  0  0
  179.6400  177.7940  142.9800 O   0  0  0  0  0  0  0  0  0  0  0  0
  1 16  1  1  0  0  0
  1  5  1  0  0  0  0
  2  9  1  0  0  0  0
  3 11  1  0  0  0  0
  5 10  2  0  0  0  0
  5  6  1  0  0  0  0
  6  2  2  0  0  0  0
  7  4  1  0  0  0  0
  8  3  2  0  0  0  0
  8  9  1  0  0  0  0
  9  7  2  0  0  0  0
 10  8  1  0  0  0  0
 11  4  2  0  0  0  0
 12 14  1  0  0  0  0
 12 13  1  0  0  0  0
 13  1  1  1  0  0  0
 14 13  1  0  0  0  0
 16 15  1  6  0  0  0
 17 16  1  0  0  0  0
 18 17  1  0  0  0  0
 19 21  1  0  0  0  0
 19 18  1  0  0  0  0
 20 21  1  0  0  0  0
 20 24  1  1  0  0  0
 22 19  1  0  0  0  0
 22 20  1  0  0  0  0
 23 24  2  0  0  0  0
 24 26  1  0  0  0  0
 26 27  2  0  0  0  0
 26 25  1  0  0  0  0
M  END
>  <MODEL>
6

>  <REMARK>
 VINA RESULT:      -7.3      4.277      7.491
  Name = 
  8 active torsions:
  status: ('A' for Active; 'I' for Inactive)
    1  A    between atoms: N_2  and  N_14
    2  A    between atoms: C_3  and  C_13
    3  A    between atoms: C_10  and  C_19
    4  A    between atoms: C_12  and  C_19
    5  A    between atoms: C_13  and  C_20
    6  A    between atoms: N_14  and  C_15
    7  A    between atoms: C_15  and  C_22
    8  A    between atoms: C_19  and  C_22
                            x       y       z     vdW  Elec       q    Type
                         _______ _______ _______ _____ _____    ______ ____

>  <TORSDO>
F 8

$$$$
=
 OpenBabel11032420373D

 27 30  0  0  1  0  0  0  0  0999 V2000
  189.6570  176.8910  143.6870 C   0  0  2  0  0  3  0  0  0  0  0  0
  187.4990  177.7590  146.7090 C   0  0  0  0  0  3  0  0  0  0  0  0
  185.0110  178.4720  144.0770 C   0  0  0  0  0  3  0  0  0  0  0  0
  184.0870  178.8810  146.2340 N   0  0  0  0  0  0  0  0  0  0  0  0
  188.4970  177.3160  144.5360 C   0  0  0  0  0  0  0  0  0  0  0  0
  188.5920  177.3540  145.9380 C   0  0  0  0  0  3  0  0  0  0  0  0
  185.2340  178.5210  146.8200 N   0  0  0  0  0  0  0  0  0  0  0  0
  186.2070  178.0960  144.6810 C   0  0  0  0  0  0  0  0  0  0  0  0
  186.3060  178.1280  146.0840 C   0  0  0  0  0  0  0  0  0  0  0  0
  187.3020  177.6920  143.9120 C   0  0  0  0  0  3  0  0  0  0  0  0
  183.9440  178.8680  144.8820 C   0  0  0  0  0  3  0  0  0  0  0  0
  191.9810  176.3070  143.6590 O   0  0  0  0  0  0  0  0  0  0  0  0
  190.9280  176.6870  144.5130 C   0  0  2  0  0  3  0  0  0  0  0  0
  191.3840  175.2830  144.4150 C   0  0  0  0  0  2  0  0  0  0  0  0
  191.1010  178.5740  142.6010 N   0  0  0  0  0  1  0  0  0  0  0  0
  189.8530  177.8300  142.4900 C   0  0  1  0  0  3  0  0  0  0  0  0
  189.8170  177.0500  141.1840 C   0  0  0  0  0  2  0  0  0  0  0  0
  189.0380  177.7700  140.1890 N   0  0  0  0  0  2  0  0  0  0  0  0
  189.8540  177.9180  139.0570 N   0  0  0  0  0  0  0  0  0  0  0  0
  188.8730  177.4280  137.1870 C   0  0  2  0  0  3  0  0  0  0  0  0
  189.6870  176.7180  138.2490 C   0  0  0  0  0  2  0  0  0  0  0  0
  189.0760  178.6500  138.0660 C   0  0  0  0  0  2  0  0  0  0  0  0
  186.4620  177.7390  137.5900 C   0  0  0  0  0  2  0  0  0  0  0  0
  187.4450  176.9310  137.1920 C   0  0  0  0  0  0  0  0  0  0  0  0
  186.6490  174.5390  137.2490 N   0  0  0  0  0  1  0  0  0  0  0  0
  187.0990  175.6670  136.5050 C   0  0  0  0  0  0  0  0  0  0  0  0
  187.1980  175.5730  135.2520 O   0  0  0  0  0  0  0  0  0  0  0  0
  1 16  1  6  0  0  0
  1  5  1  0  0  0  0
  3  8  2  0  0  0  0
  3 11  1  0  0  0  0
  4  7  1  0  0  0  0
  5  6  1  0  0  0  0
  6  2  2  0  0  0  0
  8  9  1  0  0  0  0
  9  2  1  0  0  0  0
  9  7  2  0  0  0  0
 10  5  2  0  0  0  0
 10  8  1  0  0  0  0
 11  4  2  0  0  0  0
 12 14  1  0  0  0  0
 12 13  1  0  0  0  0
 13  1  1  6  0  0  0
 14 13  1  0  0  0  0
 16 15  1  1  0  0  0
 17 16  1  0  0  0  0
 18 17  1  0  0  0  0
 19 18  1  0  0  0  0
 20 24  1  1  0  0  0
 20 22  1  0  0  0  0
 20 21  1  0  0  0  0
 21 19  1  0  0  0  0
 22 19  1  0  0  0  0
 24 23  2  0  0  0  0
 26 24  1  0  0  0  0
 26 25  1  0  0  0  0
 27 26  2  0  0  0  0
M  END
>  <MODEL>
7

>  <REMARK>
 VINA RESULT:      -7.2      2.011      2.454
  Name = 
  8 active torsions:
  status: ('A' for Active; 'I' for Inactive)
    1  A    between atoms: N_2  and  N_14
    2  A    between atoms: C_3  and  C_13
    3  A    between atoms: C_10  and  C_19
    4  A    between atoms: C_12  and  C_19
    5  A    between atoms: C_13  and  C_20
    6  A    between atoms: N_14  and  C_15
    7  A    between atoms: C_15  and  C_22
    8  A    between atoms: C_19  and  C_22
                            x       y       z     vdW  Elec       q    Type
                         _______ _______ _______ _____ _____    ______ ____

>  <TORSDO>
F 8

$$$$
=
 OpenBabel11032420373D

 27 30  0  0  1  0  0  0  0  0999 V2000
  185.9520  178.4430  144.5350 C   0  0  2  0  0  3  0  0  0  0  0  0
  188.6840  176.3810  142.8510 C   0  0  0  0  0  3  0  0  0  0  0  0
  190.4820  177.1660  145.9780 C   0  0  0  0  0  3  0  0  0  0  0  0
  191.8410  175.8350  144.5430 N   0  0  0  0  0  0  0  0  0  0  0  0
  187.2460  177.7310  144.2740 C   0  0  0  0  0  0  0  0  0  0  0  0
  187.4670  177.0320  143.0750 C   0  0  0  0  0  3  0  0  0  0  0  0
  190.8720  175.7960  143.6230 N   0  0  0  0  0  0  0  0  0  0  0  0
  189.4710  177.1290  145.0240 C   0  0  0  0  0  0  0  0  0  0  0  0
  189.6850  176.4260  143.8240 C   0  0  0  0  0  0  0  0  0  0  0  0
  188.2540  177.7800  145.2450 C   0  0  0  0  0  3  0  0  0  0  0  0
  191.6810  176.5020  145.7180 C   0  0  0  0  0  3  0  0  0  0  0  0
  184.4420  179.0030  146.3080 O   0  0  0  0  0  0  0  0  0  0  0  0
  185.3030  177.9910  145.8440 C   0  0  2  0  0  3  0  0  0  0  0  0
  185.6900  178.8970  146.9480 C   0  0  0  0  0  2  0  0  0  0  0  0
  183.6300  178.6170  143.7150 N   0  0  0  0  0  1  0  0  0  0  0  0
  185.0100  178.3600  143.3270 C   0  0  1  0  0  3  0  0  0  0  0  0
  185.4440  179.3320  142.2400 C   0  0  0  0  0  2  0  0  0  0  0  0
  185.3980  178.6840  140.9390 N   0  0  0  0  0  2  0  0  0  0  0  0
  184.7100  179.5490  140.0730 N   0  0  0  0  0  0  0  0  0  0  0  0
  183.4010  178.5420  138.6690 C   0  0  2  0  0  3  0  0  0  0  0  0
  184.8430  179.0030  138.7290 C   0  0  0  0  0  2  0  0  0  0  0  0
  183.3170  179.1270  140.0680 C   0  0  0  0  0  2  0  0  0  0  0  0
  182.6810  176.3910  139.6320 C   0  0  0  0  0  2  0  0  0  0  0  0
  183.3270  177.0330  138.6570 C   0  0  0  0  0  0  0  0  0  0  0  0
  182.9370  176.3710  136.2550 N   0  0  0  0  0  1  0  0  0  0  0  0
  183.7180  176.2810  137.4430 C   0  0  0  0  0  0  0  0  0  0  0  0
  184.7460  175.5530  137.4460 O   0  0  0  0  0  0  0  0  0  0  0  0
  1 16  1  6  0  0  0
  2  6  2  0  0  0  0
  2  9  1  0  0  0  0
  4 11  2  0  0  0  0
  5  1  1  0  0  0  0
  5 10  2  0  0  0  0
  6  5  1  0  0  0  0
  7  9  2  0  0  0  0
  7  4  1  0  0  0  0
  8 10  1  0  0  0  0
  8  3  2  0  0  0  0
  9  8  1  0  0  0  0
 11  3  1  0  0  0  0
 12 14  1  0  0  0  0
 13  1  1  6  0  0  0
 13 12  1  0  0  0  0
 13 14  1  0  0  0  0
 16 15  1  1  0  0  0
 17 16  1  0  0  0  0
 18 17  1  0  0  0  0
 19 18  1  0  0  0  0
 20 24  1  1  0  0  0
 20 21  1  0  0  0  0
 20 22  1  0  0  0  0
 21 19  1  0  0  0  0
 22 19  1  0  0  0  0
 24 23  2  0  0  0  0
 25 26  1  0  0  0  0
 26 27  2  0  0  0  0
 26 24  1  0  0  0  0
M  END
>  <MODEL>
8

>  <REMARK>
 VINA RESULT:      -7.1      4.027      6.231
  Name = 
  8 active torsions:
  status: ('A' for Active; 'I' for Inactive)
    1  A    between atoms: N_2  and  N_14
    2  A    between atoms: C_3  and  C_13
    3  A    between atoms: C_10  and  C_19
    4  A    between atoms: C_12  and  C_19
    5  A    between atoms: C_13  and  C_20
    6  A    between atoms: N_14  and  C_15
    7  A    between atoms: C_15  and  C_22
    8  A    between atoms: C_19  and  C_22
                            x       y       z     vdW  Elec       q    Type
                         _______ _______ _______ _____ _____    ______ ____

>  <TORSDO>
F 8

$$$$
=
 OpenBabel11032420373D

 27 30  0  0  1  0  0  0  0  0999 V2000
  186.3760  177.9470  142.8200 C   0  0  2  0  0  3  0  0  0  0  0  0
  187.4880  177.4780  146.4390 C   0  0  0  0  0  3  0  0  0  0  0  0
  190.7680  176.9780  144.8220 C   0  0  0  0  0  3  0  0  0  0  0  0
  190.9620  176.7750  147.1880 N   0  0  0  0  0  0  0  0  0  0  0  0
  187.2260  177.7050  144.0320 C   0  0  0  0  0  0  0  0  0  0  0  0
  186.6760  177.7110  145.3240 C   0  0  0  0  0  3  0  0  0  0  0  0
  189.6550  177.0110  147.3390 N   0  0  0  0  0  0  0  0  0  0  0  0
  189.4070  177.2240  144.9730 C   0  0  0  0  0  0  0  0  0  0  0  0
  188.8530  177.2370  146.2660 C   0  0  0  0  0  0  0  0  0  0  0  0
  188.5940  177.4570  143.8610 C   0  0  0  0  0  3  0  0  0  0  0  0
  191.5440  176.7520  145.9580 C   0  0  0  0  0  3  0  0  0  0  0  0
  186.3590  178.8910  140.6190 O   0  0  0  0  0  0  0  0  0  0  0  0
  187.0150  178.9530  141.8620 C   0  0  2  0  0  3  0  0  0  0  0  0
  187.6080  178.2530  140.7020 C   0  0  0  0  0  2  0  0  0  0  0  0
  184.7970  179.7280  143.4770 N   0  0  0  0  0  1  0  0  0  0  0  0
  184.9340  178.3030  143.2060 C   0  0  1  0  0  3  0  0  0  0  0  0
  183.9660  177.8760  142.1130 C   0  0  0  0  0  2  0  0  0  0  0  0
  183.0870  178.9800  141.7600 N   0  0  0  0  0  2  0  0  0  0  0  0
  181.8000  178.4450  141.5930 N   0  0  0  0  0  0  0  0  0  0  0  0
  181.0780  178.4910  139.5500 C   0  0  2  0  0  3  0  0  0  0  0  0
  181.0490  179.3850  140.7730 C   0  0  0  0  0  2  0  0  0  0  0  0
  181.8590  177.5470  140.4490 C   0  0  0  0  0  2  0  0  0  0  0  0
  181.9330  178.5750  137.2400 C   0  0  0  0  0  2  0  0  0  0  0  0
  181.9300  179.1060  138.4630 C   0  0  0  0  0  0  0  0  0  0  0  0
  181.7880  181.6230  138.4070 N   0  0  0  0  0  1  0  0  0  0  0  0
  182.5380  180.4400  138.6650 C   0  0  0  0  0  0  0  0  0  0  0  0
  183.7280  180.5460  139.0680 O   0  0  0  0  0  0  0  0  0  0  0  0
  1 16  1  1  0  0  0
  1  5  1  0  0  0  0
  3  8  2  0  0  0  0
  3 11  1  0  0  0  0
  4  7  1  0  0  0  0
  5  6  1  0  0  0  0
  6  2  2  0  0  0  0
  8  9  1  0  0  0  0
  9  2  1  0  0  0  0
  9  7  2  0  0  0  0
 10  5  2  0  0  0  0
 10  8  1  0  0  0  0
 11  4  2  0  0  0  0
 12 14  1  0  0  0  0
 12 13  1  0  0  0  0
 13  1  1  1  0  0  0
 14 13  1  0  0  0  0
 16 15  1  6  0  0  0
 17 16  1  0  0  0  0
 18 17  1  0  0  0  0
 19 18  1  0  0  0  0
 20 24  1  6  0  0  0
 20 22  1  0  0  0  0
 20 21  1  0  0  0  0
 21 19  1  0  0  0  0
 22 19  1  0  0  0  0
 23 24  2  0  0  0  0
 24 26  1  0  0  0  0
 25 26  1  0  0  0  0
 26 27  2  0  0  0  0
M  END
>  <MODEL>
9

>  <REMARK>
 VINA RESULT:      -7.0      4.343      7.057
  Name = 
  8 active torsions:
  status: ('A' for Active; 'I' for Inactive)
    1  A    between atoms: N_2  and  N_14
    2  A    between atoms: C_3  and  C_13
    3  A    between atoms: C_10  and  C_19
    4  A    between atoms: C_12  and  C_19
    5  A    between atoms: C_13  and  C_20
    6  A    between atoms: N_14  and  C_15
    7  A    between atoms: C_15  and  C_22
    8  A    between atoms: C_19  and  C_22
                            x       y       z     vdW  Elec       q    Type
                         _______ _______ _______ _____ _____    ______ ____

>  <TORSDO>
F 8

$$$$
