=
 OpenBabel11032420113D

 36 40  0  0  1  0  0  0  0  0999 V2000
  185.9910  178.5330  147.1990 C   0  0  0  0  0  2  0  0  0  0  0  0
  189.5820  177.7130  146.5800 C   0  0  0  0  0  0  0  0  0  0  0  0
  187.4100  178.1580  145.3200 C   0  0  2  0  0  3  0  0  0  0  0  0
  187.5690  177.2080  144.1350 C   0  0  0  0  0  2  0  0  0  0  0  0
  185.6120  178.7000  143.3250 C   0  0  1  0  0  3  0  0  0  0  0  0
  187.3240  177.9740  147.7000 C   0  0  0  0  0  2  0  0  0  0  0  0
  188.1510  177.7960  146.5120 N   0  0  0  0  0  0  0  0  0  0  0  0
  190.1460  177.4580  147.6770 O   0  0  0  0  0  0  0  0  0  0  0  0
  185.9730  178.1060  145.7500 C   0  0  2  0  0  3  0  0  0  0  0  0
  185.1140  178.9070  144.7790 C   0  0  0  0  0  2  0  0  0  0  0  0
  186.4250  177.3970  143.1090 C   0  0  0  0  0  2  0  0  0  0  0  0
  180.1160  178.7620  140.9040 N   0  0  0  0  0  1  0  0  0  0  0  0
  183.1910  178.8100  142.6040 C   0  0  0  0  0  0  0  0  0  0  0  0
  184.5870  178.7800  141.0100 C   0  0  0  0  0  0  0  0  0  0  0  0
  181.1160  178.7820  143.2220 C   0  0  0  0  0  0  0  0  0  0  0  0
  184.5120  178.7920  142.3720 N   0  0  0  0  0  0  0  0  0  0  0  0
  183.3030  178.7870  140.4380 C   0  0  0  0  0  3  0  0  0  0  0  0
  182.4850  178.8150  141.5020 N   0  0  0  0  0  0  0  0  0  0  0  0
  182.4200  178.7840  143.7560 C   0  0  0  0  0  3  0  0  0  0  0  0
  181.1960  178.8000  141.8320 C   0  0  0  0  0  0  0  0  0  0  0  0
  178.9310  178.7150  144.6190 N   0  0  0  0  0  0  0  0  0  0  0  0
  179.9050  178.7450  143.9960 C   0  0  0  0  0  0  0  0  0  0  0  0
  185.8610  178.6960  140.2400 C   0  0  0  0  0  2  0  0  0  0  0  0
  185.5690  178.3130  138.8010 C   0  0  0  0  0  2  0  0  0  0  0  0
  186.6340  178.7940  137.9380 N   0  0  0  0  0  2  0  0  0  0  0  0
  187.5440  177.6810  137.7210 C   0  0  0  0  0  2  0  0  0  0  0  0
  188.9240  178.0280  138.2490 C   0  0  1  0  0  3  0  0  0  0  0  0
  189.0560  179.4130  138.3210 O   0  0  0  0  0  1  0  0  0  0  0  0
  189.1190  177.4340  139.6310 C   0  0  0  0  0  1  0  0  0  0  0  0
  190.4290  177.9620  145.3720 C   0  0  0  0  0  2  0  0  0  0  0  0
  191.4180  176.9030  145.2200 N   0  0  0  0  0  0  0  0  0  0  0  0
  191.2010  176.7490  142.6820 C   0  0  0  0  0  1  0  0  0  0  0  0
  192.2950  174.5460  145.4750 C   0  0  0  0  0  2  0  0  0  0  0  0
  192.0220  174.9800  144.1130 N   0  0  0  0  0  0  0  0  0  0  0  0
  191.5600  176.1770  144.0100 C   0  0  0  0  0  0  0  0  0  0  0  0
  191.9830  175.9590  146.5960 S   0  0  0  0  0  0  0  0  0  0  0  0
  1  6  1  0  0  0  0
  2  8  2  0  0  0  0
  3  4  1  6  0  0  0
  3  9  1  0  0  0  0
  3  7  1  0  0  0  0
  5 16  1  6  0  0  0
  5 10  1  0  0  0  0
  7  2  1  0  0  0  0
  7  6  1  0  0  0  0
  9 10  1  6  0  0  0
  9  1  1  0  0  0  0
 11  5  1  0  0  0  0
 11  4  1  0  0  0  0
 12 20  1  0  0  0  0
 13 19  2  0  0  0  0
 14 16  1  0  0  0  0
 15 19  1  0  0  0  0
 15 22  1  0  0  0  0
 16 13  1  0  0  0  0
 17 14  2  0  0  0  0
 17 18  1  0  0  0  0
 18 20  1  0  0  0  0
 18 13  1  0  0  0  0
 20 15  2  0  0  0  0
 22 21  3  0  0  0  0
 23 14  1  0  0  0  0
 24 23  1  0  0  0  0
 25 24  1  0  0  0  0
 26 25  1  0  0  0  0
 26 27  1  0  0  0  0
 27 28  1  0  0  0  0
 27 29  1  1  0  0  0
 30  2  1  0  0  0  0
 31 30  1  0  0  0  0
 31 36  1  0  0  0  0
 32 35  1  0  0  0  0
 33 36  1  0  0  0  0
 34 33  1  0  0  0  0
 35 34  2  0  0  0  0
 35 31  1  0  0  0  0
M  END
>  <MODEL>
1

>  <REMARK>
 VINA RESULT:      -9.0      0.000      0.000
  Name = 
  9 active torsions:
  status: ('A' for Active; 'I' for Inactive)
    1  A    between atoms: N_1  and  C_4
    2  A    between atoms: N_1  and  C_25
    3  A    between atoms: N_2  and  C_5
    4  A    between atoms: C_4  and  C_28
    5  A    between atoms: C_5  and  C_6
    6  A    between atoms: C_10  and  C_14
    7  A    between atoms: C_10  and  C_25
    8  A    between atoms: C_15  and  N_18
    9  A    between atoms: C_16  and  C_34
                            x       y       z     vdW  Elec       q    Type
                         _______ _______ _______ _____ _____    ______ ____

>  <TORSDO>
F 9

$$$$
=
 OpenBabel11032420113D

 36 40  0  0  1  0  0  0  0  0999 V2000
  183.6940  178.4520  143.7840 C   0  0  0  0  0  2  0  0  0  0  0  0
  182.9510  178.9870  140.1630 C   0  0  0  0  0  0  0  0  0  0  0  0
  184.8650  178.3210  141.7110 C   0  0  2  0  0  3  0  0  0  0  0  0
  186.0500  178.9540  140.9850 C   0  0  0  0  0  2  0  0  0  0  0  0
  187.2600  177.3730  142.6450 C   0  0  1  0  0  3  0  0  0  0  0  0
  182.8210  179.0720  142.6920 C   0  0  0  0  0  2  0  0  0  0  0  0
  183.5770  178.9340  141.4530 N   0  0  0  0  0  0  0  0  0  0  0  0
  181.7980  179.4790  140.0420 O   0  0  0  0  0  0  0  0  0  0  0  0
  185.0780  178.5200  143.1840 C   0  0  2  0  0  3  0  0  0  0  0  0
  186.1270  177.5370  143.6900 C   0  0  0  0  0  2  0  0  0  0  0  0
  187.3900  178.5610  141.6550 C   0  0  0  0  0  2  0  0  0  0  0  0
  191.6850  177.0260  146.6910 N   0  0  0  0  0  1  0  0  0  0  0  0
  188.8870  177.2430  144.5750 C   0  0  0  0  0  0  0  0  0  0  0  0
  189.7000  176.6970  142.6970 C   0  0  0  0  0  0  0  0  0  0  0  0
  189.2290  177.6100  146.6820 C   0  0  0  0  0  0  0  0  0  0  0  0
  188.5370  177.0900  143.2900 N   0  0  0  0  0  0  0  0  0  0  0  0
  190.7410  176.6200  143.6370 C   0  0  0  0  0  3  0  0  0  0  0  0
  190.1480  176.9690  144.7910 N   0  0  0  0  0  0  0  0  0  0  0  0
  188.2100  177.6660  145.7090 C   0  0  0  0  0  3  0  0  0  0  0  0
  190.4080  177.1780  146.0780 C   0  0  0  0  0  0  0  0  0  0  0  0
  188.9450  178.2520  149.1800 N   0  0  0  0  0  0  0  0  0  0  0  0
  189.0720  177.9660  148.0650 C   0  0  0  0  0  0  0  0  0  0  0  0
  189.8560  176.4530  141.2340 C   0  0  0  0  0  2  0  0  0  0  0  0
  190.9670  177.3270  140.6810 C   0  0  0  0  0  2  0  0  0  0  0  0
  190.8070  177.4760  139.2440 N   0  0  0  0  0  2  0  0  0  0  0  0
  189.4910  176.9600  138.9060 C   0  0  0  0  0  2  0  0  0  0  0  0
  188.7220  177.9880  138.0960 C   0  0  1  0  0  3  0  0  0  0  0  0
  189.0410  179.2660  138.5500 O   0  0  0  0  0  1  0  0  0  0  0  0
  189.0850  177.8730  136.6270 C   0  0  0  0  0  1  0  0  0  0  0  0
  183.6280  178.4280  138.9510 C   0  0  0  0  0  2  0  0  0  0  0  0
  183.3420  177.0060  138.8220 N   0  0  0  0  0  0  0  0  0  0  0  0
  185.1640  176.5600  137.0920 C   0  0  0  0  0  1  0  0  0  0  0  0
  181.9460  175.0110  138.1400 C   0  0  0  0  0  2  0  0  0  0  0  0
  183.1950  175.1930  137.4150 N   0  0  0  0  0  0  0  0  0  0  0  0
  183.8800  176.2240  137.7680 C   0  0  0  0  0  0  0  0  0  0  0  0
  181.8460  176.3030  139.4330 S   0  0  0  0  0  0  0  0  0  0  0  0
  2  7  1  0  0  0  0
  3  4  1  6  0  0  0
  3  9  1  0  0  0  0
  4 11  1  0  0  0  0
  5 11  1  1  0  0  0
  5 16  1  0  0  0  0
  5 10  1  0  0  0  0
  6  1  1  0  0  0  0
  7  3  1  0  0  0  0
  7  6  1  0  0  0  0
  8  2  2  0  0  0  0
  9 10  1  1  0  0  0
  9  1  1  0  0  0  0
 13 18  1  0  0  0  0
 13 19  2  0  0  0  0
 14 16  1  0  0  0  0
 14 17  2  0  0  0  0
 15 22  1  0  0  0  0
 16 13  1  0  0  0  0
 17 18  1  0  0  0  0
 18 20  1  0  0  0  0
 19 15  1  0  0  0  0
 20 15  2  0  0  0  0
 20 12  1  0  0  0  0
 22 21  3  0  0  0  0
 23 14  1  0  0  0  0
 24 23  1  0  0  0  0
 25 24  1  0  0  0  0
 26 25  1  0  0  0  0
 27 29  1  6  0  0  0
 27 28  1  0  0  0  0
 27 26  1  0  0  0  0
 30  2  1  0  0  0  0
 31 30  1  0  0  0  0
 31 36  1  0  0  0  0
 32 35  1  0  0  0  0
 33 36  1  0  0  0  0
 34 35  2  0  0  0  0
 34 33  1  0  0  0  0
 35 31  1  0  0  0  0
M  END
>  <MODEL>
2

>  <REMARK>
 VINA RESULT:      -8.8      3.264      7.686
  Name = 
  9 active torsions:
  status: ('A' for Active; 'I' for Inactive)
    1  A    between atoms: N_1  and  C_4
    2  A    between atoms: N_1  and  C_25
    3  A    between atoms: N_2  and  C_5
    4  A    between atoms: C_4  and  C_28
    5  A    between atoms: C_5  and  C_6
    6  A    between atoms: C_10  and  C_14
    7  A    between atoms: C_10  and  C_25
    8  A    between atoms: C_15  and  N_18
    9  A    between atoms: C_16  and  C_34
                            x       y       z     vdW  Elec       q    Type
                         _______ _______ _______ _____ _____    ______ ____

>  <TORSDO>
F 9

$$$$
=
 OpenBabel11032420113D

 36 40  0  0  1  0  0  0  0  0999 V2000
  184.8020  178.4790  145.2720 C   0  0  0  0  0  2  0  0  0  0  0  0
  182.0410  178.8690  142.7870 C   0  0  0  0  0  0  0  0  0  0  0  0
  184.5560  178.4620  142.9010 C   0  0  2  0  0  3  0  0  0  0  0  0
  185.0220  179.2240  141.6620 C   0  0  0  0  0  2  0  0  0  0  0  0
  187.1320  177.8250  142.2190 C   0  0  1  0  0  3  0  0  0  0  0  0
  183.3970  178.9730  144.9250 C   0  0  0  0  0  2  0  0  0  0  0  0
  183.3010  178.9110  143.4720 N   0  0  0  0  0  0  0  0  0  0  0  0
  180.9880  179.2160  143.3850 O   0  0  0  0  0  0  0  0  0  0  0  0
  185.5630  178.7060  143.9870 C   0  0  2  0  0  3  0  0  0  0  0  0
  186.8090  177.8650  143.7340 C   0  0  0  0  0  2  0  0  0  0  0  0
  186.5350  179.0060  141.4090 C   0  0  0  0  0  2  0  0  0  0  0  0
  192.4600  176.9050  139.6050 N   0  0  0  0  0  1  0  0  0  0  0  0
  189.2250  177.5100  140.8360 C   0  0  0  0  0  0  0  0  0  0  0  0
  189.5610  177.6770  142.9210 C   0  0  0  0  0  0  0  0  0  0  0  0
  190.0570  177.1480  138.8700 C   0  0  0  0  0  0  0  0  0  0  0  0
  188.5670  177.7090  141.9880 N   0  0  0  0  0  0  0  0  0  0  0  0
  190.8100  177.4560  142.3160 C   0  0  0  0  0  3  0  0  0  0  0  0
  190.5140  177.3700  141.0090 N   0  0  0  0  0  0  0  0  0  0  0  0
  188.8260  177.3810  139.5140 C   0  0  0  0  0  3  0  0  0  0  0  0
  191.0730  177.1470  139.8230 C   0  0  0  0  0  0  0  0  0  0  0  0
  190.3570  176.7460  136.3240 N   0  0  0  0  0  0  0  0  0  0  0  0
  190.2240  176.9250  137.4600 C   0  0  0  0  0  0  0  0  0  0  0  0
  189.3370  177.7910  144.3910 C   0  0  0  0  0  2  0  0  0  0  0  0
  190.6050  177.4170  145.1370 C   0  0  0  0  0  2  0  0  0  0  0  0
  190.3020  177.1890  146.5390 N   0  0  0  0  0  2  0  0  0  0  0  0
  188.8590  177.0420  146.6460 C   0  0  0  0  0  2  0  0  0  0  0  0
  188.3880  177.5170  148.0080 C   0  0  1  0  0  3  0  0  0  0  0  0
  189.3940  178.2710  148.6080 O   0  0  0  0  0  1  0  0  0  0  0  0
  187.1420  178.3700  147.8610 C   0  0  0  0  0  1  0  0  0  0  0  0
  181.9430  178.3800  141.3770 C   0  0  0  0  0  2  0  0  0  0  0  0
  180.6850  178.8090  140.7780 N   0  0  0  0  0  0  0  0  0  0  0  0
  179.5590  176.5260  140.9460 C   0  0  0  0  0  1  0  0  0  0  0  0
  179.2140  179.6050  138.8830 C   0  0  0  0  0  2  0  0  0  0  0  0
  178.9320  178.2710  139.3920 N   0  0  0  0  0  0  0  0  0  0  0  0
  179.7040  177.8820  140.3460 C   0  0  0  0  0  0  0  0  0  0  0  0
  180.5500  180.3320  139.9010 S   0  0  0  0  0  0  0  0  0  0  0  0
  2  8  2  0  0  0  0
  2  7  1  0  0  0  0
  3  4  1  6  0  0  0
  3  7  1  0  0  0  0
  3  9  1  0  0  0  0
  5 11  1  6  0  0  0
  5 10  1  0  0  0  0
  6  1  1  0  0  0  0
  7  6  1  0  0  0  0
  9 10  1  6  0  0  0
  9  1  1  0  0  0  0
 11  4  1  0  0  0  0
 12 20  1  0  0  0  0
 13 18  1  0  0  0  0
 13 16  1  0  0  0  0
 14 23  1  0  0  0  0
 15 19  1  0  0  0  0
 15 20  2  0  0  0  0
 16  5  1  0  0  0  0
 16 14  1  0  0  0  0
 17 14  2  0  0  0  0
 18 17  1  0  0  0  0
 19 13  2  0  0  0  0
 20 18  1  0  0  0  0
 21 22  3  0  0  0  0
 22 15  1  0  0  0  0
 23 24  1  0  0  0  0
 24 25  1  0  0  0  0
 25 26  1  0  0  0  0
 26 27  1  0  0  0  0
 27 29  1  6  0  0  0
 27 28  1  0  0  0  0
 30  2  1  0  0  0  0
 31 30  1  0  0  0  0
 33 34  1  0  0  0  0
 33 36  1  0  0  0  0
 34 35  2  0  0  0  0
 35 31  1  0  0  0  0
 35 32  1  0  0  0  0
 36 31  1  0  0  0  0
M  END
>  <MODEL>
3

>  <REMARK>
 VINA RESULT:      -8.7      3.483      9.118
  Name = 
  9 active torsions:
  status: ('A' for Active; 'I' for Inactive)
    1  A    between atoms: N_1  and  C_4
    2  A    between atoms: N_1  and  C_25
    3  A    between atoms: N_2  and  C_5
    4  A    between atoms: C_4  and  C_28
    5  A    between atoms: C_5  and  C_6
    6  A    between atoms: C_10  and  C_14
    7  A    between atoms: C_10  and  C_25
    8  A    between atoms: C_15  and  N_18
    9  A    between atoms: C_16  and  C_34
                            x       y       z     vdW  Elec       q    Type
                         _______ _______ _______ _____ _____    ______ ____

>  <TORSDO>
F 9

$$$$
=
 OpenBabel11032420113D

 36 40  0  0  1  0  0  0  0  0999 V2000
  188.4040  178.6210  138.2850 C   0  0  0  0  0  2  0  0  0  0  0  0
  191.0110  176.1910  137.1660 C   0  0  0  0  0  0  0  0  0  0  0  0
  189.7680  176.9300  139.2670 C   0  0  2  0  0  3  0  0  0  0  0  0
  190.8640  176.7630  140.3180 C   0  0  0  0  0  2  0  0  0  0  0  0
  188.7630  177.0100  141.8140 C   0  0  1  0  0  3  0  0  0  0  0  0
  189.4570  178.1900  137.2620 C   0  0  0  0  0  2  0  0  0  0  0  0
  190.2340  177.1400  137.9100 N   0  0  0  0  0  0  0  0  0  0  0  0
  191.3140  176.4280  135.9670 O   0  0  0  0  0  0  0  0  0  0  0  0
  189.0150  178.1850  139.5970 C   0  0  2  0  0  3  0  0  0  0  0  0
  188.0790  177.9320  140.7730 C   0  0  0  0  0  2  0  0  0  0  0  0
  190.3130  177.0080  141.7440 C   0  0  0  0  0  2  0  0  0  0  0  0
  188.4890  177.5230  147.7920 N   0  0  0  0  0  1  0  0  0  0  0  0
  188.9750  177.2290  144.3240 C   0  0  0  0  0  0  0  0  0  0  0  0
  187.0420  177.6420  143.5620 C   0  0  0  0  0  0  0  0  0  0  0  0
  190.2460  176.9860  146.0610 C   0  0  0  0  0  0  0  0  0  0  0  0
  188.3030  177.3080  143.1660 N   0  0  0  0  0  0  0  0  0  0  0  0
  186.9700  177.7570  144.9610 C   0  0  0  0  0  3  0  0  0  0  0  0
  188.2230  177.4910  145.3620 N   0  0  0  0  0  0  0  0  0  0  0  0
  190.2780  176.8890  144.6550 C   0  0  0  0  0  3  0  0  0  0  0  0
  188.9640  177.3570  146.4590 C   0  0  0  0  0  0  0  0  0  0  0  0
  192.2490  176.5040  147.6370 N   0  0  0  0  0  0  0  0  0  0  0  0
  191.3550  176.7190  146.9340 C   0  0  0  0  0  0  0  0  0  0  0  0
  185.8830  177.7930  142.6350 C   0  0  0  0  0  2  0  0  0  0  0  0
  185.3790  179.2240  142.6690 C   0  0  0  0  0  2  0  0  0  0  0  0
  185.0690  179.6680  141.3210 N   0  0  0  0  0  2  0  0  0  0  0  0
  184.2900  178.6130  140.6930 C   0  0  0  0  0  2  0  0  0  0  0  0
  183.9880  178.9790  139.2510 C   0  0  1  0  0  3  0  0  0  0  0  0
  184.3130  180.3170  139.0360 O   0  0  0  0  0  1  0  0  0  0  0  0
  184.8010  178.1090  138.3110 C   0  0  0  0  0  1  0  0  0  0  0  0
  191.4400  174.8940  137.7770 C   0  0  0  0  0  2  0  0  0  0  0  0
  192.6920  174.4440  137.1830 N   0  0  0  0  0  0  0  0  0  0  0  0
  191.6110  172.7210  135.6420 C   0  0  0  0  0  1  0  0  0  0  0  0
  194.9430  173.2930  137.2000 C   0  0  0  0  0  2  0  0  0  0  0  0
  193.9130  172.6680  136.3830 N   0  0  0  0  0  0  0  0  0  0  0  0
  192.7720  173.2630  136.4030 C   0  0  0  0  0  0  0  0  0  0  0  0
  194.2520  174.8350  137.9040 S   0  0  0  0  0  0  0  0  0  0  0  0
  2 30  1  0  0  0  0
  2  7  1  0  0  0  0
  3  9  1  0  0  0  0
  3  4  1  1  0  0  0
  4 11  1  0  0  0  0
  5 10  1  6  0  0  0
  5 16  1  0  0  0  0
  6  7  1  0  0  0  0
  6  1  1  0  0  0  0
  7  3  1  0  0  0  0
  8  2  2  0  0  0  0
  9  1  1  6  0  0  0
  9 10  1  0  0  0  0
 11  5  1  0  0  0  0
 13 19  2  0  0  0  0
 13 18  1  0  0  0  0
 14 17  2  0  0  0  0
 15 20  2  0  0  0  0
 15 22  1  0  0  0  0
 16 14  1  0  0  0  0
 16 13  1  0  0  0  0
 17 18  1  0  0  0  0
 18 20  1  0  0  0  0
 19 15  1  0  0  0  0
 20 12  1  0  0  0  0
 22 21  3  0  0  0  0
 23 24  1  0  0  0  0
 23 14  1  0  0  0  0
 25 24  1  0  0  0  0
 26 25  1  0  0  0  0
 27 29  1  6  0  0  0
 27 26  1  0  0  0  0
 28 27  1  0  0  0  0
 31 30  1  0  0  0  0
 31 36  1  0  0  0  0
 32 35  1  0  0  0  0
 33 36  1  0  0  0  0
 34 35  2  0  0  0  0
 34 33  1  0  0  0  0
 35 31  1  0  0  0  0
M  END
>  <MODEL>
4

>  <REMARK>
 VINA RESULT:      -8.6      3.641      7.761
  Name = 
  9 active torsions:
  status: ('A' for Active; 'I' for Inactive)
    1  A    between atoms: N_1  and  C_4
    2  A    between atoms: N_1  and  C_25
    3  A    between atoms: N_2  and  C_5
    4  A    between atoms: C_4  and  C_28
    5  A    between atoms: C_5  and  C_6
    6  A    between atoms: C_10  and  C_14
    7  A    between atoms: C_10  and  C_25
    8  A    between atoms: C_15  and  N_18
    9  A    between atoms: C_16  and  C_34
                            x       y       z     vdW  Elec       q    Type
                         _______ _______ _______ _____ _____    ______ ____

>  <TORSDO>
F 9

$$$$
=
 OpenBabel11032420113D

 36 40  0  0  1  0  0  0  0  0999 V2000
  186.9980  178.6160  139.0720 C   0  0  0  0  0  2  0  0  0  0  0  0
  189.9250  176.7550  137.6870 C   0  0  0  0  0  0  0  0  0  0  0  0
  188.8260  177.3380  139.9140 C   0  0  2  0  0  3  0  0  0  0  0  0
  190.0560  177.4880  140.8060 C   0  0  0  0  0  2  0  0  0  0  0  0
  188.1630  177.3630  142.5720 C   0  0  1  0  0  3  0  0  0  0  0  0
  187.9810  178.3620  137.9280 C   0  0  0  0  0  2  0  0  0  0  0  0
  189.0540  177.5560  138.4990 N   0  0  0  0  0  0  0  0  0  0  0  0
  190.0100  176.9740  136.4500 O   0  0  0  0  0  0  0  0  0  0  0  0
  187.8540  178.4150  140.3000 C   0  0  2  0  0  3  0  0  0  0  0  0
  187.1590  178.0390  141.6040 C   0  0  0  0  0  2  0  0  0  0  0  0
  189.6500  177.6990  142.2860 C   0  0  0  0  0  2  0  0  0  0  0  0
  188.3740  177.7010  148.5640 N   0  0  0  0  0  1  0  0  0  0  0  0
  188.5770  177.4920  145.0620 C   0  0  0  0  0  0  0  0  0  0  0  0
  186.6160  178.0240  144.4650 C   0  0  0  0  0  0  0  0  0  0  0  0
  189.9640  177.1330  146.6870 C   0  0  0  0  0  0  0  0  0  0  0  0
  187.8240  177.6400  143.9630 N   0  0  0  0  0  0  0  0  0  0  0  0
  186.6570  178.0980  145.8680 C   0  0  0  0  0  3  0  0  0  0  0  0
  187.9220  177.7590  146.1630 N   0  0  0  0  0  0  0  0  0  0  0  0
  189.8830  177.0790  145.2810 C   0  0  0  0  0  3  0  0  0  0  0  0
  188.7370  177.5540  147.1940 C   0  0  0  0  0  0  0  0  0  0  0  0
  192.0560  176.5060  148.0880 N   0  0  0  0  0  0  0  0  0  0  0  0
  191.1220  176.7860  147.4630 C   0  0  0  0  0  0  0  0  0  0  0  0
  185.3980  178.2600  143.6360 C   0  0  0  0  0  2  0  0  0  0  0  0
  184.5620  179.3660  144.2520 C   0  0  0  0  0  2  0  0  0  0  0  0
  183.1760  178.9410  144.3470 N   0  0  0  0  0  2  0  0  0  0  0  0
  182.6180  179.0020  143.0060 C   0  0  0  0  0  2  0  0  0  0  0  0
  181.1020  178.9990  143.0740 C   0  0  1  0  0  3  0  0  0  0  0  0
  180.6440  180.3070  143.2190 O   0  0  0  0  0  1  0  0  0  0  0  0
  180.5240  178.4040  141.8040 C   0  0  0  0  0  1  0  0  0  0  0  0
  190.7130  175.6290  138.2780 C   0  0  0  0  0  2  0  0  0  0  0  0
  192.0290  175.5520  137.6570 N   0  0  0  0  0  0  0  0  0  0  0  0
  193.1600  177.1260  139.3160 C   0  0  0  0  0  1  0  0  0  0  0  0
  193.7140  175.9730  135.8200 C   0  0  0  0  0  2  0  0  0  0  0  0
  193.9510  176.6720  137.0750 N   0  0  0  0  0  0  0  0  0  0  0  0
  193.0710  176.4540  137.9890 C   0  0  0  0  0  0  0  0  0  0  0  0
  192.2500  174.8960  136.0360 S   0  0  0  0  0  0  0  0  0  0  0  0
  2 30  1  0  0  0  0
  2  7  1  0  0  0  0
  3  9  1  0  0  0  0
  3  4  1  1  0  0  0
  4 11  1  0  0  0  0
  5 10  1  6  0  0  0
  5 16  1  0  0  0  0
  6  7  1  0  0  0  0
  6  1  1  0  0  0  0
  7  3  1  0  0  0  0
  8  2  2  0  0  0  0
  9  1  1  6  0  0  0
  9 10  1  0  0  0  0
 11  5  1  0  0  0  0
 13 19  2  0  0  0  0
 13 18  1  0  0  0  0
 14 17  2  0  0  0  0
 15 20  2  0  0  0  0
 15 22  1  0  0  0  0
 16 14  1  0  0  0  0
 16 13  1  0  0  0  0
 17 18  1  0  0  0  0
 18 20  1  0  0  0  0
 19 15  1  0  0  0  0
 20 12  1  0  0  0  0
 22 21  3  0  0  0  0
 23 24  1  0  0  0  0
 23 14  1  0  0  0  0
 24 25  1  0  0  0  0
 26 27  1  0  0  0  0
 26 25  1  0  0  0  0
 27 29  1  6  0  0  0
 27 28  1  0  0  0  0
 31 35  1  0  0  0  0
 31 30  1  0  0  0  0
 33 36  1  0  0  0  0
 33 34  1  0  0  0  0
 34 35  2  0  0  0  0
 35 32  1  0  0  0  0
 36 31  1  0  0  0  0
M  END
>  <MODEL>
5

>  <REMARK>
 VINA RESULT:      -8.3      3.561      7.924
  Name = 
  9 active torsions:
  status: ('A' for Active; 'I' for Inactive)
    1  A    between atoms: N_1  and  C_4
    2  A    between atoms: N_1  and  C_25
    3  A    between atoms: N_2  and  C_5
    4  A    between atoms: C_4  and  C_28
    5  A    between atoms: C_5  and  C_6
    6  A    between atoms: C_10  and  C_14
    7  A    between atoms: C_10  and  C_25
    8  A    between atoms: C_15  and  N_18
    9  A    between atoms: C_16  and  C_34
                            x       y       z     vdW  Elec       q    Type
                         _______ _______ _______ _____ _____    ______ ____

>  <TORSDO>
F 9

$$$$
=
 OpenBabel11032420113D

 36 40  0  0  1  0  0  0  0  0999 V2000
  191.6810  177.5250  143.1330 C   0  0  0  0  0  2  0  0  0  0  0  0
  188.4290  177.8290  144.9460 C   0  0  0  0  0  0  0  0  0  0  0  0
  189.3580  177.3790  142.6140 C   0  0  2  0  0  3  0  0  0  0  0  0
  188.2990  178.0610  141.7500 C   0  0  0  0  0  2  0  0  0  0  0  0
  189.5650  176.6540  139.9800 C   0  0  1  0  0  3  0  0  0  0  0  0
  190.8810  178.0260  144.3360 C   0  0  0  0  0  2  0  0  0  0  0  0
  189.4770  177.8840  143.9670 N   0  0  0  0  0  0  0  0  0  0  0  0
  188.6430  178.2300  146.1210 O   0  0  0  0  0  0  0  0  0  0  0  0
  190.6960  177.6640  141.9960 C   0  0  2  0  0  3  0  0  0  0  0  0
  190.8940  176.7850  140.7660 C   0  0  0  0  0  2  0  0  0  0  0  0
  188.5520  177.7980  140.2450 C   0  0  0  0  0  2  0  0  0  0  0  0
  192.2950  175.9900  134.6720 N   0  0  0  0  0  1  0  0  0  0  0  0
  190.9620  176.2410  137.9130 C   0  0  0  0  0  0  0  0  0  0  0  0
  188.9240  176.6740  137.5290 C   0  0  0  0  0  0  0  0  0  0  0  0
  192.9380  175.8680  137.1100 C   0  0  0  0  0  0  0  0  0  0  0  0
  189.8100  176.4960  138.5510 N   0  0  0  0  0  0  0  0  0  0  0  0
  189.5580  176.5260  136.2840 C   0  0  0  0  0  3  0  0  0  0  0  0
  190.8310  176.2480  136.6120 N   0  0  0  0  0  0  0  0  0  0  0  0
  192.2620  176.0150  138.3380 C   0  0  0  0  0  3  0  0  0  0  0  0
  192.0240  176.0200  136.0700 C   0  0  0  0  0  0  0  0  0  0  0  0
  195.4820  175.4280  136.8490 N   0  0  0  0  0  0  0  0  0  0  0  0
  194.3470  175.6240  136.9650 C   0  0  0  0  0  0  0  0  0  0  0  0
  187.4920  177.0460  137.7150 C   0  0  0  0  0  2  0  0  0  0  0  0
  187.1570  178.2530  136.8570 C   0  0  0  0  0  2  0  0  0  0  0  0
  186.1390  179.0550  137.5130 N   0  0  0  0  0  2  0  0  0  0  0  0
  185.2860  178.1400  138.2550 C   0  0  0  0  0  2  0  0  0  0  0  0
  184.7140  178.8370  139.4750 C   0  0  1  0  0  3  0  0  0  0  0  0
  184.4500  180.1690  139.1650 O   0  0  0  0  0  1  0  0  0  0  0  0
  183.4280  178.1590  139.9090 C   0  0  0  0  0  1  0  0  0  0  0  0
  187.0860  177.2630  144.6090 C   0  0  0  0  0  2  0  0  0  0  0  0
  186.0700  178.3060  144.6610 N   0  0  0  0  0  0  0  0  0  0  0  0
  185.8060  178.2440  147.1980 C   0  0  0  0  0  1  0  0  0  0  0  0
  183.7690  179.2740  144.2580 C   0  0  0  0  0  2  0  0  0  0  0  0
  184.1360  179.0610  145.6500 N   0  0  0  0  0  0  0  0  0  0  0  0
  185.3050  178.5520  145.8290 C   0  0  0  0  0  0  0  0  0  0  0  0
  185.2090  178.8330  143.2170 S   0  0  0  0  0  0  0  0  0  0  0  0
  1  6  1  0  0  0  0
  2  8  2  0  0  0  0
  3  4  1  6  0  0  0
  3  7  1  0  0  0  0
  5 16  1  6  0  0  0
  5 11  1  0  0  0  0
  5 10  1  0  0  0  0
  7  6  1  0  0  0  0
  7  2  1  0  0  0  0
  9 10  1  6  0  0  0
  9  3  1  0  0  0  0
  9  1  1  0  0  0  0
 11  4  1  0  0  0  0
 12 20  1  0  0  0  0
 13 19  2  0  0  0  0
 13 16  1  0  0  0  0
 14 23  1  0  0  0  0
 14 16  1  0  0  0  0
 15 19  1  0  0  0  0
 17 18  1  0  0  0  0
 17 14  2  0  0  0  0
 18 13  1  0  0  0  0
 20 18  1  0  0  0  0
 20 15  2  0  0  0  0
 21 22  3  0  0  0  0
 22 15  1  0  0  0  0
 24 25  1  0  0  0  0
 24 23  1  0  0  0  0
 25 26  1  0  0  0  0
 26 27  1  0  0  0  0
 27 29  1  6  0  0  0
 28 27  1  0  0  0  0
 30 31  1  0  0  0  0
 30  2  1  0  0  0  0
 31 35  1  0  0  0  0
 33 34  1  0  0  0  0
 34 35  2  0  0  0  0
 35 32  1  0  0  0  0
 36 33  1  0  0  0  0
 36 31  1  0  0  0  0
M  END
>  <MODEL>
6

>  <REMARK>
 VINA RESULT:      -8.0      3.379      8.079
  Name = 
  9 active torsions:
  status: ('A' for Active; 'I' for Inactive)
    1  A    between atoms: N_1  and  C_4
    2  A    between atoms: N_1  and  C_25
    3  A    between atoms: N_2  and  C_5
    4  A    between atoms: C_4  and  C_28
    5  A    between atoms: C_5  and  C_6
    6  A    between atoms: C_10  and  C_14
    7  A    between atoms: C_10  and  C_25
    8  A    between atoms: C_15  and  N_18
    9  A    between atoms: C_16  and  C_34
                            x       y       z     vdW  Elec       q    Type
                         _______ _______ _______ _____ _____    ______ ____

>  <TORSDO>
F 9

$$$$
=
 OpenBabel11032420113D

 36 40  0  0  1  0  0  0  0  0999 V2000
  192.7300  177.5100  140.8010 C   0  0  0  0  0  2  0  0  0  0  0  0
  190.9790  177.0010  137.5410 C   0  0  0  0  0  0  0  0  0  0  0  0
  190.4850  177.3200  140.0230 C   0  0  2  0  0  3  0  0  0  0  0  0
  189.2540  176.4300  140.1830 C   0  0  0  0  0  2  0  0  0  0  0  0
  189.1830  177.7920  142.3870 C   0  0  1  0  0  3  0  0  0  0  0  0
  192.7580  177.0410  139.3450 C   0  0  0  0  0  2  0  0  0  0  0  0
  191.3640  176.9730  138.9230 N   0  0  0  0  0  0  0  0  0  0  0  0
  191.8280  176.7510  136.6460 O   0  0  0  0  0  0  0  0  0  0  0  0
  191.3360  177.1380  141.2460 C   0  0  2  0  0  3  0  0  0  0  0  0
  190.7290  177.9030  142.4160 C   0  0  0  0  0  2  0  0  0  0  0  0
  188.6470  176.5660  141.6020 C   0  0  0  0  0  2  0  0  0  0  0  0
  188.5150  177.2520  148.3310 N   0  0  0  0  0  1  0  0  0  0  0  0
  189.2280  177.5830  144.9070 C   0  0  0  0  0  0  0  0  0  0  0  0
  187.3260  178.0370  144.0920 C   0  0  0  0  0  0  0  0  0  0  0  0
  190.4020  177.0990  146.6610 C   0  0  0  0  0  0  0  0  0  0  0  0
  188.6260  177.8310  143.7350 N   0  0  0  0  0  0  0  0  0  0  0  0
  187.1620  177.9050  145.4820 C   0  0  0  0  0  3  0  0  0  0  0  0
  188.4010  177.6290  145.9190 N   0  0  0  0  0  0  0  0  0  0  0  0
  190.5260  177.2490  145.2650 C   0  0  0  0  0  3  0  0  0  0  0  0
  189.0790  177.3400  147.0260 C   0  0  0  0  0  0  0  0  0  0  0  0
  192.3290  176.4410  148.2700 N   0  0  0  0  0  0  0  0  0  0  0  0
  191.4690  176.7350  147.5520 C   0  0  0  0  0  0  0  0  0  0  0  0
  186.2200  178.2940  143.1260 C   0  0  0  0  0  2  0  0  0  0  0  0
  184.9590  178.6810  143.8770 C   0  0  0  0  0  2  0  0  0  0  0  0
  183.8620  178.8540  142.9410 N   0  0  0  0  0  2  0  0  0  0  0  0
  184.2110  178.1210  141.7350 C   0  0  0  0  0  2  0  0  0  0  0  0
  183.8140  178.9210  140.5070 C   0  0  1  0  0  3  0  0  0  0  0  0
  184.9200  179.6260  140.0380 O   0  0  0  0  0  1  0  0  0  0  0  0
  183.3130  177.9920  139.4180 C   0  0  0  0  0  1  0  0  0  0  0  0
  189.5850  177.3620  137.1340 C   0  0  0  0  0  2  0  0  0  0  0  0
  188.9690  176.2610  136.4050 N   0  0  0  0  0  0  0  0  0  0  0  0
  187.2930  177.7220  135.1530 C   0  0  0  0  0  1  0  0  0  0  0  0
  187.5810  174.1590  136.1900 C   0  0  0  0  0  2  0  0  0  0  0  0
  187.0290  175.3540  135.5690 N   0  0  0  0  0  0  0  0  0  0  0  0
  187.7450  176.4150  135.7060 C   0  0  0  0  0  0  0  0  0  0  0  0
  189.2260  174.5820  136.8740 S   0  0  0  0  0  0  0  0  0  0  0  0
  2  7  1  0  0  0  0
  3  4  1  1  0  0  0
  3  9  1  0  0  0  0
  4 11  1  0  0  0  0
  5 11  1  1  0  0  0
  5 10  1  0  0  0  0
  5 16  1  0  0  0  0
  6  1  1  0  0  0  0
  7  6  1  0  0  0  0
  7  3  1  0  0  0  0
  8  2  2  0  0  0  0
  9  1  1  6  0  0  0
  9 10  1  0  0  0  0
 13 19  2  0  0  0  0
 13 18  1  0  0  0  0
 14 17  2  0  0  0  0
 15 20  2  0  0  0  0
 15 22  1  0  0  0  0
 16 14  1  0  0  0  0
 16 13  1  0  0  0  0
 17 18  1  0  0  0  0
 18 20  1  0  0  0  0
 19 15  1  0  0  0  0
 20 12  1  0  0  0  0
 22 21  3  0  0  0  0
 23 24  1  0  0  0  0
 23 14  1  0  0  0  0
 25 24  1  0  0  0  0
 26 25  1  0  0  0  0
 27 29  1  6  0  0  0
 27 26  1  0  0  0  0
 28 27  1  0  0  0  0
 30  2  1  0  0  0  0
 31 36  1  0  0  0  0
 31 30  1  0  0  0  0
 32 35  1  0  0  0  0
 33 36  1  0  0  0  0
 34 35  2  0  0  0  0
 34 33  1  0  0  0  0
 35 31  1  0  0  0  0
M  END
>  <MODEL>
7

>  <REMARK>
 VINA RESULT:      -7.6      3.370      8.081
  Name = 
  9 active torsions:
  status: ('A' for Active; 'I' for Inactive)
    1  A    between atoms: N_1  and  C_4
    2  A    between atoms: N_1  and  C_25
    3  A    between atoms: N_2  and  C_5
    4  A    between atoms: C_4  and  C_28
    5  A    between atoms: C_5  and  C_6
    6  A    between atoms: C_10  and  C_14
    7  A    between atoms: C_10  and  C_25
    8  A    between atoms: C_15  and  N_18
    9  A    between atoms: C_16  and  C_34
                            x       y       z     vdW  Elec       q    Type
                         _______ _______ _______ _____ _____    ______ ____

>  <TORSDO>
F 9

$$$$
=
 OpenBabel11032420113D

 36 40  0  0  1  0  0  0  0  0999 V2000
  188.6270  179.2120  138.1360 C   0  0  0  0  0  2  0  0  0  0  0  0
  190.4110  176.2650  136.6920 C   0  0  0  0  0  0  0  0  0  0  0  0
  189.4570  177.1120  138.9010 C   0  0  2  0  0  3  0  0  0  0  0  0
  190.4700  176.5340  139.8870 C   0  0  0  0  0  2  0  0  0  0  0  0
  188.5450  177.2190  141.4820 C   0  0  1  0  0  3  0  0  0  0  0  0
  189.5000  178.6040  137.0360 C   0  0  0  0  0  2  0  0  0  0  0  0
  189.9490  177.3170  137.5530 N   0  0  0  0  0  0  0  0  0  0  0  0
  190.7570  176.5250  135.5100 O   0  0  0  0  0  0  0  0  0  0  0  0
  189.1010  178.4910  139.3760 C   0  0  2  0  0  3  0  0  0  0  0  0
  188.1450  178.3980  140.5590 C   0  0  0  0  0  2  0  0  0  0  0  0
  190.0280  176.7820  141.3510 C   0  0  0  0  0  2  0  0  0  0  0  0
  188.7300  177.5200  147.4770 N   0  0  0  0  0  1  0  0  0  0  0  0
  188.9480  177.3250  143.9760 C   0  0  0  0  0  0  0  0  0  0  0  0
  187.0040  177.9100  143.3700 C   0  0  0  0  0  0  0  0  0  0  0  0
  190.3150  176.9210  145.6070 C   0  0  0  0  0  0  0  0  0  0  0  0
  188.2060  177.4980  142.8730 N   0  0  0  0  0  0  0  0  0  0  0  0
  187.0390  177.9760  144.7730 C   0  0  0  0  0  3  0  0  0  0  0  0
  188.2940  177.6020  145.0740 N   0  0  0  0  0  0  0  0  0  0  0  0
  190.2420  176.8770  144.2000 C   0  0  0  0  0  3  0  0  0  0  0  0
  189.0970  177.3710  146.1090 C   0  0  0  0  0  0  0  0  0  0  0  0
  192.3820  176.2310  147.0160 N   0  0  0  0  0  0  0  0  0  0  0  0
  191.4600  176.5390  146.3870 C   0  0  0  0  0  0  0  0  0  0  0  0
  185.7980  178.1810  142.5360 C   0  0  0  0  0  2  0  0  0  0  0  0
  184.5620  178.2260  143.4160 C   0  0  0  0  0  2  0  0  0  0  0  0
  183.5000  178.9470  142.7350 N   0  0  0  0  0  2  0  0  0  0  0  0
  183.2690  178.2720  141.4690 C   0  0  0  0  0  2  0  0  0  0  0  0
  181.9480  178.7220  140.8730 C   0  0  1  0  0  3  0  0  0  0  0  0
  181.3660  177.6590  140.1840 O   0  0  0  0  0  1  0  0  0  0  0  0
  181.0090  179.1810  141.9730 C   0  0  0  0  0  1  0  0  0  0  0  0
  190.4550  174.8450  137.1620 C   0  0  0  0  0  2  0  0  0  0  0  0
  189.8170  173.9690  136.1880 N   0  0  0  0  0  0  0  0  0  0  0  0
  187.4360  174.4600  136.9630 C   0  0  0  0  0  1  0  0  0  0  0  0
  189.2250  171.7300  135.1740 C   0  0  0  0  0  2  0  0  0  0  0  0
  188.1230  172.4740  135.7660 N   0  0  0  0  0  0  0  0  0  0  0  0
  188.4510  173.6020  136.2900 C   0  0  0  0  0  0  0  0  0  0  0  0
  190.7330  172.7630  135.2880 S   0  0  0  0  0  0  0  0  0  0  0  0
  2 30  1  0  0  0  0
  2  7  1  0  0  0  0
  3  9  1  0  0  0  0
  3  4  1  1  0  0  0
  4 11  1  0  0  0  0
  5 10  1  6  0  0  0
  5 16  1  0  0  0  0
  6  7  1  0  0  0  0
  6  1  1  0  0  0  0
  7  3  1  0  0  0  0
  8  2  2  0  0  0  0
  9  1  1  6  0  0  0
  9 10  1  0  0  0  0
 11  5  1  0  0  0  0
 13 19  2  0  0  0  0
 13 18  1  0  0  0  0
 14 17  2  0  0  0  0
 15 20  2  0  0  0  0
 15 22  1  0  0  0  0
 16 14  1  0  0  0  0
 16 13  1  0  0  0  0
 17 18  1  0  0  0  0
 18 20  1  0  0  0  0
 19 15  1  0  0  0  0
 20 12  1  0  0  0  0
 22 21  3  0  0  0  0
 23 14  1  0  0  0  0
 23 24  1  0  0  0  0
 25 24  1  0  0  0  0
 26 25  1  0  0  0  0
 27 26  1  0  0  0  0
 27 29  1  1  0  0  0
 28 27  1  0  0  0  0
 31 35  1  0  0  0  0
 31 30  1  0  0  0  0
 33 36  1  0  0  0  0
 33 34  1  0  0  0  0
 34 35  2  0  0  0  0
 35 32  1  0  0  0  0
 36 31  1  0  0  0  0
M  END
>  <MODEL>
8

>  <REMARK>
 VINA RESULT:      -7.5      3.632      8.349
  Name = 
  9 active torsions:
  status: ('A' for Active; 'I' for Inactive)
    1  A    between atoms: N_1  and  C_4
    2  A    between atoms: N_1  and  C_25
    3  A    between atoms: N_2  and  C_5
    4  A    between atoms: C_4  and  C_28
    5  A    between atoms: C_5  and  C_6
    6  A    between atoms: C_10  and  C_14
    7  A    between atoms: C_10  and  C_25
    8  A    between atoms: C_15  and  N_18
    9  A    between atoms: C_16  and  C_34
                            x       y       z     vdW  Elec       q    Type
                         _______ _______ _______ _____ _____    ______ ____

>  <TORSDO>
F 9

$$$$
=
 OpenBabel11032420113D

 36 40  0  0  1  0  0  0  0  0999 V2000
  186.1410  178.6250  138.3060 C   0  0  0  0  0  2  0  0  0  0  0  0
  183.5120  177.1350  136.1100 C   0  0  0  0  0  0  0  0  0  0  0  0
  183.8920  177.8650  138.5250 C   0  0  2  0  0  3  0  0  0  0  0  0
  183.0700  176.8150  139.2700 C   0  0  0  0  0  2  0  0  0  0  0  0
  183.4660  178.5680  141.1380 C   0  0  1  0  0  3  0  0  0  0  0  0
  185.7540  177.8780  137.0290 C   0  0  0  0  0  2  0  0  0  0  0  0
  184.3670  177.4670  137.2140 N   0  0  0  0  0  0  0  0  0  0  0  0
  184.0110  176.8670  134.9860 O   0  0  0  0  0  0  0  0  0  0  0  0
  185.1460  178.1020  139.3150 C   0  0  2  0  0  3  0  0  0  0  0  0
  184.8350  178.9670  140.5300 C   0  0  0  0  0  2  0  0  0  0  0  0
  183.0090  177.1280  140.7860 C   0  0  0  0  0  2  0  0  0  0  0  0
  185.0150  178.6600  146.9400 N   0  0  0  0  0  1  0  0  0  0  0  0
  184.4280  178.6000  143.4760 C   0  0  0  0  0  0  0  0  0  0  0  0
  182.3800  179.1260  143.3570 C   0  0  0  0  0  0  0  0  0  0  0  0
  186.1460  178.1950  144.7320 C   0  0  0  0  0  0  0  0  0  0  0  0
  183.4470  178.7820  142.5810 N   0  0  0  0  0  0  0  0  0  0  0  0
  182.7340  179.1430  144.7170 C   0  0  0  0  0  3  0  0  0  0  0  0
  184.0350  178.8110  144.7060 N   0  0  0  0  0  0  0  0  0  0  0  0
  185.7520  178.1980  143.3780 C   0  0  0  0  0  3  0  0  0  0  0  0
  185.0610  178.5760  145.5190 C   0  0  0  0  0  0  0  0  0  0  0  0
  188.5020  177.5420  145.6000 N   0  0  0  0  0  0  0  0  0  0  0  0
  187.4500  177.8330  145.2130 C   0  0  0  0  0  0  0  0  0  0  0  0
  181.0060  179.3770  142.8330 C   0  0  0  0  0  2  0  0  0  0  0  0
  180.0570  178.3050  143.3370 C   0  0  0  0  0  2  0  0  0  0  0  0
  179.3050  177.7520  142.2250 N   0  0  0  0  0  2  0  0  0  0  0  0
  179.3530  178.7280  141.1490 C   0  0  0  0  0  2  0  0  0  0  0  0
  179.1660  178.0370  139.8110 C   0  0  1  0  0  3  0  0  0  0  0  0
  180.0920  178.5390  138.8980 O   0  0  0  0  0  1  0  0  0  0  0  0
  179.3730  176.5420  139.9620 C   0  0  0  0  0  1  0  0  0  0  0  0
  182.0230  177.1390  136.2580 C   0  0  0  0  0  2  0  0  0  0  0  0
  181.5060  175.7770  136.2110 N   0  0  0  0  0  0  0  0  0  0  0  0
  179.0490  176.4650  136.1640 C   0  0  0  0  0  1  0  0  0  0  0  0
  181.0390  173.4800  137.1560 C   0  0  0  0  0  2  0  0  0  0  0  0
  179.8740  174.3150  136.9050 N   0  0  0  0  0  0  0  0  0  0  0  0
  180.1380  175.4850  136.4390 C   0  0  0  0  0  0  0  0  0  0  0  0
  182.5230  174.3880  136.5870 S   0  0  0  0  0  0  0  0  0  0  0  0
  2 30  1  0  0  0  0
  2  7  1  0  0  0  0
  3  4  1  1  0  0  0
  3  9  1  0  0  0  0
  4 11  1  0  0  0  0
  5 10  1  1  0  0  0
  5 16  1  0  0  0  0
  6  7  1  0  0  0  0
  6  1  1  0  0  0  0
  7  3  1  0  0  0  0
  8  2  2  0  0  0  0
  9  1  1  6  0  0  0
  9 10  1  0  0  0  0
 11  5  1  0  0  0  0
 13 18  1  0  0  0  0
 14 17  2  0  0  0  0
 15 22  1  0  0  0  0
 15 20  2  0  0  0  0
 16 14  1  0  0  0  0
 16 13  1  0  0  0  0
 18 17  1  0  0  0  0
 18 20  1  0  0  0  0
 19 13  2  0  0  0  0
 19 15  1  0  0  0  0
 20 12  1  0  0  0  0
 22 21  3  0  0  0  0
 23 24  1  0  0  0  0
 23 14  1  0  0  0  0
 25 24  1  0  0  0  0
 26 25  1  0  0  0  0
 27 29  1  1  0  0  0
 27 26  1  0  0  0  0
 28 27  1  0  0  0  0
 31 30  1  0  0  0  0
 31 35  1  0  0  0  0
 31 36  1  0  0  0  0
 32 35  1  0  0  0  0
 34 33  1  0  0  0  0
 35 34  2  0  0  0  0
 36 33  1  0  0  0  0
M  END
>  <MODEL>
9

>  <REMARK>
 VINA RESULT:      -7.4      4.145      9.085
  Name = 
  9 active torsions:
  status: ('A' for Active; 'I' for Inactive)
    1  A    between atoms: N_1  and  C_4
    2  A    between atoms: N_1  and  C_25
    3  A    between atoms: N_2  and  C_5
    4  A    between atoms: C_4  and  C_28
    5  A    between atoms: C_5  and  C_6
    6  A    between atoms: C_10  and  C_14
    7  A    between atoms: C_10  and  C_25
    8  A    between atoms: C_15  and  N_18
    9  A    between atoms: C_16  and  C_34
                            x       y       z     vdW  Elec       q    Type
                         _______ _______ _______ _____ _____    ______ ____

>  <TORSDO>
F 9

$$$$
