=
 OpenBabel11042410263D

 29 32  0  0  1  0  0  0  0  0999 V2000
  185.8410  180.0710  146.9190 O   0  0  0  0  0  0  0  0  0  0  0  0
  185.3940  178.8660  146.1390 S   0  0  0  0  0  0  0  0  0  0  0  0
  184.4890  178.0180  146.9860 O   0  0  0  0  0  0  0  0  0  0  0  0
  186.6250  177.1160  144.4170 C   0  0  0  0  0  2  0  0  0  0  0  0
  185.1240  180.5620  144.1910 F   0  0  0  0  0  0  0  0  0  0  0  0
  185.9990  177.9130  143.2770 C   0  0  0  0  0  2  0  0  0  0  0  0
  184.5310  179.4090  144.6780 C   0  0  1  0  0  3  0  0  0  0  0  0
  184.5640  178.3020  143.6220 C   0  0  1  0  0  3  0  0  0  0  0  0
  186.7640  177.9320  145.6220 N   0  0  2  0  0  0  0  0  0  0  0  0
  191.7900  176.7650  146.0520 N   0  0  0  0  0  0  0  0  0  0  0  0
  187.9620  177.9720  147.8600 C   0  0  0  0  0  3  0  0  0  0  0  0
  189.9400  177.3870  147.2820 C   0  0  0  0  0  0  0  0  0  0  0  0
  189.7250  177.0940  144.9020 N   0  0  0  0  0  0  0  0  0  0  0  0
  189.1770  177.3960  146.0990 C   0  0  0  0  0  0  0  0  0  0  0  0
  191.0540  176.7720  144.8880 C   0  0  0  0  0  0  0  0  0  0  0  0
  191.2500  177.0690  147.2410 N   0  0  0  0  0  0  0  0  0  0  0  0
  191.7130  176.4280  143.6010 C   0  0  0  0  0  1  0  0  0  0  0  0
  189.2110  177.7350  148.3540 N   0  0  0  0  0  0  0  0  0  0  0  0
  187.9110  177.7710  146.4720 C   0  0  2  0  0  3  0  0  0  0  0  0
  183.8350  178.7300  142.3600 C   0  0  0  0  0  2  0  0  0  0  0  0
  184.8280  179.0110  141.2440 C   0  0  0  0  0  2  0  0  0  0  0  0
  183.3910  177.5350  140.1410 C   0  0  0  0  0  2  0  0  0  0  0  0
  185.3070  178.4140  139.0240 C   0  0  0  0  0  2  0  0  0  0  0  0
  182.6030  177.2540  138.8530 C   0  0  1  0  0  3  0  0  0  0  0  0
  184.8300  177.7100  137.7390 C   0  0  0  0  0  2  0  0  0  0  0  0
  183.3100  177.7420  137.5770 C   0  0  0  0  0  2  0  0  0  0  0  0
  184.2180  178.7240  139.9580 N   0  0  0  0  0  0  0  0  0  0  0  0
  181.0110  175.7900  139.6200 C   0  0  0  0  0  1  0  0  0  0  0  0
  182.1170  175.9300  138.7650 O   0  0  0  0  0  0  0  0  0  0  0  0
  2  1  2  0  0  0  0
  2  3  2  0  0  0  0
  6  8  1  0  0  0  0
  6  4  1  0  0  0  0
  7  5  1  6  0  0  0
  7  2  1  0  0  0  0
  8 20  1  6  0  0  0
  8  7  1  0  0  0  0
  9  4  1  1  0  0  0
  9  2  1  0  0  0  0
  9 19  1  0  0  0  0
 10 16  1  0  0  0  0
 11 18  2  0  0  0  0
 12 18  1  0  0  0  0
 13 14  2  0  0  0  0
 14 19  1  0  0  0  0
 14 12  1  0  0  0  0
 15 13  1  0  0  0  0
 15 10  2  0  0  0  0
 16 12  2  0  0  0  0
 17 15  1  0  0  0  0
 19 11  1  6  0  0  0
 21 20  1  0  0  0  0
 23 27  1  0  0  0  0
 24 29  1  6  0  0  0
 24 22  1  0  0  0  0
 25 23  1  0  0  0  0
 26 25  1  0  0  0  0
 26 24  1  0  0  0  0
 27 22  1  0  0  0  0
 27 21  1  0  0  0  0
 29 28  1  0  0  0  0
M  END
>  <MODEL>
1

>  <REMARK>
 VINA RESULT:      -8.5      0.000      0.000
  Name = 
  5 active torsions:
  status: ('A' for Active; 'I' for Inactive)
    1  A    between atoms: C_8  and  C_14
    2  A    between atoms: C_8  and  N_26
    3  A    between atoms: C_9  and  O_11
    4  A    between atoms: C_14  and  C_24
    5  A    between atoms: N_27  and  C_29
                            x       y       z     vdW  Elec       q    Type
                         _______ _______ _______ _____ _____    ______ ____

>  <TORSDO>
F 5

$$$$
=
 OpenBabel11042410263D

 29 32  0  0  1  0  0  0  0  0999 V2000
  185.8400  180.0920  146.8580 O   0  0  0  0  0  0  0  0  0  0  0  0
  185.3850  178.8910  146.0770 S   0  0  0  0  0  0  0  0  0  0  0  0
  184.4670  178.0530  146.9210 O   0  0  0  0  0  0  0  0  0  0  0  0
  186.6070  177.1260  144.3640 C   0  0  0  0  0  2  0  0  0  0  0  0
  185.1420  180.5860  144.1260 F   0  0  0  0  0  0  0  0  0  0  0  0
  185.9950  177.9270  143.2200 C   0  0  0  0  0  2  0  0  0  0  0  0
  184.5350  179.4400  144.6120 C   0  0  1  0  0  3  0  0  0  0  0  0
  184.5620  178.3310  143.5570 C   0  0  1  0  0  3  0  0  0  0  0  0
  186.7480  177.9420  145.5680 N   0  0  2  0  0  0  0  0  0  0  0  0
  191.7760  176.7910  146.0180 N   0  0  0  0  0  0  0  0  0  0  0  0
  187.9280  177.9450  147.8170 C   0  0  0  0  0  3  0  0  0  0  0  0
  189.9140  177.3810  147.2430 C   0  0  0  0  0  0  0  0  0  0  0  0
  189.7180  177.1320  144.8570 N   0  0  0  0  0  0  0  0  0  0  0  0
  189.1600  177.4080  146.0550 C   0  0  0  0  0  0  0  0  0  0  0  0
  191.0500  176.8160  144.8480 C   0  0  0  0  0  0  0  0  0  0  0  0
  191.2250  177.0700  147.2080 N   0  0  0  0  0  0  0  0  0  0  0  0
  191.7200  176.4990  143.5600 C   0  0  0  0  0  1  0  0  0  0  0  0
  189.1740  177.7060  148.3160 N   0  0  0  0  0  0  0  0  0  0  0  0
  187.8890  177.7700  146.4240 C   0  0  2  0  0  3  0  0  0  0  0  0
  183.8440  178.7650  142.2900 C   0  0  0  0  0  2  0  0  0  0  0  0
  184.7810  178.6860  141.0960 C   0  0  0  0  0  2  0  0  0  0  0  0
  183.2720  179.4890  139.5030 C   0  0  0  0  0  2  0  0  0  0  0  0
  183.1020  177.2470  140.3020 C   0  0  0  0  0  2  0  0  0  0  0  0
  182.5640  179.2090  138.1680 C   0  0  1  0  0  3  0  0  0  0  0  0
  181.9750  177.0110  139.2790 C   0  0  0  0  0  2  0  0  0  0  0  0
  182.2240  177.7250  137.9500 C   0  0  0  0  0  2  0  0  0  0  0  0
  184.0340  178.3120  139.9080 N   0  0  0  0  0  0  0  0  0  0  0  0
  181.0350  180.6320  139.1170 C   0  0  0  0  0  1  0  0  0  0  0  0
  181.4890  180.0860  137.9040 O   0  0  0  0  0  0  0  0  0  0  0  0
  2  1  2  0  0  0  0
  2  3  2  0  0  0  0
  6  8  1  0  0  0  0
  6  4  1  0  0  0  0
  7  5  1  6  0  0  0
  7  2  1  0  0  0  0
  8 20  1  6  0  0  0
  8  7  1  0  0  0  0
  9  4  1  1  0  0  0
  9  2  1  0  0  0  0
  9 19  1  0  0  0  0
 10 16  1  0  0  0  0
 11 18  2  0  0  0  0
 12 18  1  0  0  0  0
 13 14  2  0  0  0  0
 14 19  1  0  0  0  0
 14 12  1  0  0  0  0
 15 13  1  0  0  0  0
 15 10  2  0  0  0  0
 16 12  2  0  0  0  0
 17 15  1  0  0  0  0
 19 11  1  6  0  0  0
 21 20  1  0  0  0  0
 22 27  1  0  0  0  0
 24 29  1  1  0  0  0
 24 22  1  0  0  0  0
 25 23  1  0  0  0  0
 26 24  1  0  0  0  0
 26 25  1  0  0  0  0
 27 23  1  0  0  0  0
 27 21  1  0  0  0  0
 29 28  1  0  0  0  0
M  END
>  <MODEL>
2

>  <REMARK>
 VINA RESULT:      -8.4      1.204      1.567
  Name = 
  5 active torsions:
  status: ('A' for Active; 'I' for Inactive)
    1  A    between atoms: C_8  and  C_14
    2  A    between atoms: C_8  and  N_26
    3  A    between atoms: C_9  and  O_11
    4  A    between atoms: C_14  and  C_24
    5  A    between atoms: N_27  and  C_29
                            x       y       z     vdW  Elec       q    Type
                         _______ _______ _______ _____ _____    ______ ____

>  <TORSDO>
F 5

$$$$
=
 OpenBabel11042410263D

 29 32  0  0  1  0  0  0  0  0999 V2000
  191.1120  177.5800  145.3020 O   0  0  0  0  0  0  0  0  0  0  0  0
  190.4770  178.1260  144.0530 S   0  0  0  0  0  0  0  0  0  0  0  0
  190.7350  179.6030  143.9550 O   0  0  0  0  0  0  0  0  0  0  0  0
  188.0830  177.7210  142.7710 C   0  0  0  0  0  2  0  0  0  0  0  0
  191.4080  175.9640  142.9560 F   0  0  0  0  0  0  0  0  0  0  0  0
  188.8340  176.7980  141.8160 C   0  0  0  0  0  2  0  0  0  0  0  0
  191.1660  177.2910  142.6390 C   0  0  1  0  0  3  0  0  0  0  0  0
  190.1950  177.3910  141.4610 C   0  0  1  0  0  3  0  0  0  0  0  0
  188.7660  177.8240  144.0580 N   0  0  2  0  0  0  0  0  0  0  0  0
  184.2230  178.8150  146.3340 N   0  0  0  0  0  0  0  0  0  0  0  0
  188.4640  177.6580  146.5740 C   0  0  0  0  0  3  0  0  0  0  0  0
  186.4010  178.2030  146.7790 C   0  0  0  0  0  0  0  0  0  0  0  0
  185.7350  178.5960  144.5000 N   0  0  0  0  0  0  0  0  0  0  0  0
  186.6840  178.2650  145.4020 C   0  0  0  0  0  0  0  0  0  0  0  0
  184.4860  178.8770  144.9840 C   0  0  0  0  0  0  0  0  0  0  0  0
  185.1620  178.4810  147.2310 N   0  0  0  0  0  0  0  0  0  0  0  0
  183.4000  179.2510  144.0410 C   0  0  0  0  0  1  0  0  0  0  0  0
  187.4750  177.8360  147.4970 N   0  0  0  0  0  0  0  0  0  0  0  0
  188.0040  177.9160  145.2730 C   0  0  2  0  0  3  0  0  0  0  0  0
  190.7520  176.6890  140.2330 C   0  0  0  0  0  2  0  0  0  0  0  0
  190.6150  177.5780  139.0080 C   0  0  0  0  0  2  0  0  0  0  0  0
  189.0700  176.3440  137.7620 C   0  0  0  0  0  2  0  0  0  0  0  0
  189.0720  178.7280  137.6600 C   0  0  0  0  0  2  0  0  0  0  0  0
  187.5960  176.1940  137.3540 C   0  0  1  0  0  3  0  0  0  0  0  0
  187.8120  178.6500  136.7780 C   0  0  0  0  0  2  0  0  0  0  0  0
  186.8570  177.5350  137.2070 C   0  0  0  0  0  2  0  0  0  0  0  0
  189.2390  177.5650  138.5420 N   0  0  0  0  0  0  0  0  0  0  0  0
  188.5880  175.2200  135.5280 C   0  0  0  0  0  1  0  0  0  0  0  0
  187.3980  175.3110  136.2690 O   0  0  0  0  0  0  0  0  0  0  0  0
  2  9  1  0  0  0  0
  2  1  2  0  0  0  0
  3  2  2  0  0  0  0
  6  4  1  0  0  0  0
  7  5  1  1  0  0  0
  7  2  1  0  0  0  0
  8 20  1  6  0  0  0
  8  6  1  0  0  0  0
  8  7  1  0  0  0  0
  9  4  1  6  0  0  0
  9 19  1  0  0  0  0
 10 16  1  0  0  0  0
 11 18  2  0  0  0  0
 12 16  2  0  0  0  0
 12 18  1  0  0  0  0
 13 15  1  0  0  0  0
 13 14  2  0  0  0  0
 14 12  1  0  0  0  0
 15 10  2  0  0  0  0
 17 15  1  0  0  0  0
 19 14  1  0  0  0  0
 19 11  1  6  0  0  0
 21 20  1  0  0  0  0
 22 27  1  0  0  0  0
 23 27  1  0  0  0  0
 24 29  1  6  0  0  0
 24 22  1  0  0  0  0
 25 26  1  0  0  0  0
 25 23  1  0  0  0  0
 26 24  1  0  0  0  0
 27 21  1  0  0  0  0
 28 29  1  0  0  0  0
M  END
>  <MODEL>
3

>  <REMARK>
 VINA RESULT:      -8.3      3.734      5.592
  Name = 
  5 active torsions:
  status: ('A' for Active; 'I' for Inactive)
    1  A    between atoms: C_8  and  C_14
    2  A    between atoms: C_8  and  N_26
    3  A    between atoms: C_9  and  O_11
    4  A    between atoms: C_14  and  C_24
    5  A    between atoms: N_27  and  C_29
                            x       y       z     vdW  Elec       q    Type
                         _______ _______ _______ _____ _____    ______ ____

>  <TORSDO>
F 5

$$$$
=
 OpenBabel11042410263D

 29 32  0  0  1  0  0  0  0  0999 V2000
  191.4570  177.6660  145.3660 O   0  0  0  0  0  0  0  0  0  0  0  0
  190.8120  178.2550  144.1430 S   0  0  0  0  0  0  0  0  0  0  0  0
  190.9660  179.7490  144.1550 O   0  0  0  0  0  0  0  0  0  0  0  0
  188.4830  177.7780  142.7690 C   0  0  0  0  0  2  0  0  0  0  0  0
  191.9200  176.2470  142.9230 F   0  0  0  0  0  0  0  0  0  0  0  0
  189.3190  176.9800  141.7740 C   0  0  0  0  0  2  0  0  0  0  0  0
  191.5910  177.5730  142.6930 C   0  0  1  0  0  3  0  0  0  0  0  0
  190.6410  177.6900  141.4980 C   0  0  1  0  0  3  0  0  0  0  0  0
  189.1280  177.8360  144.0790 N   0  0  2  0  0  0  0  0  0  0  0  0
  184.5460  178.6370  146.3520 N   0  0  0  0  0  0  0  0  0  0  0  0
  188.7510  177.3480  146.5420 C   0  0  0  0  0  3  0  0  0  0  0  0
  186.6960  177.9150  146.7670 C   0  0  0  0  0  0  0  0  0  0  0  0
  186.1030  178.6220  144.5440 N   0  0  0  0  0  0  0  0  0  0  0  0
  187.0190  178.1510  145.4170 C   0  0  0  0  0  0  0  0  0  0  0  0
  184.8480  178.8700  145.0290 C   0  0  0  0  0  0  0  0  0  0  0  0
  185.4510  178.1640  147.2200 N   0  0  0  0  0  0  0  0  0  0  0  0
  183.7980  179.3930  144.1170 C   0  0  0  0  0  1  0  0  0  0  0  0
  187.7410  177.4290  147.4560 N   0  0  0  0  0  0  0  0  0  0  0  0
  188.3340  177.7860  145.2760 C   0  0  2  0  0  3  0  0  0  0  0  0
  191.2740  177.1180  140.2410 C   0  0  0  0  0  2  0  0  0  0  0  0
  190.2480  176.3310  139.4430 C   0  0  0  0  0  2  0  0  0  0  0  0
  188.8350  177.7960  138.2960 C   0  0  0  0  0  2  0  0  0  0  0  0
  189.7650  175.9010  137.1850 C   0  0  0  0  0  2  0  0  0  0  0  0
  188.6220  178.6130  137.0120 C   0  0  1  0  0  3  0  0  0  0  0  0
  189.1300  176.4070  135.8760 C   0  0  0  0  0  2  0  0  0  0  0  0
  189.1740  177.9310  135.7480 C   0  0  0  0  0  2  0  0  0  0  0  0
  190.0290  176.9690  138.1570 N   0  0  0  0  0  0  0  0  0  0  0  0
  186.4200  178.2500  137.5430 C   0  0  0  0  0  1  0  0  0  0  0  0
  187.3060  179.1050  136.8670 O   0  0  0  0  0  0  0  0  0  0  0  0
  2  3  2  0  0  0  0
  2  1  2  0  0  0  0
  6  4  1  0  0  0  0
  7  5  1  1  0  0  0
  7  2  1  0  0  0  0
  8 20  1  6  0  0  0
  8  6  1  0  0  0  0
  8  7  1  0  0  0  0
  9  4  1  6  0  0  0
  9  2  1  0  0  0  0
  9 19  1  0  0  0  0
 10 16  1  0  0  0  0
 11 18  2  0  0  0  0
 12 16  2  0  0  0  0
 12 18  1  0  0  0  0
 13 15  1  0  0  0  0
 13 14  2  0  0  0  0
 14 12  1  0  0  0  0
 15 10  2  0  0  0  0
 17 15  1  0  0  0  0
 19 14  1  0  0  0  0
 19 11  1  6  0  0  0
 21 20  1  0  0  0  0
 23 27  1  0  0  0  0
 24 29  1  6  0  0  0
 24 22  1  0  0  0  0
 25 23  1  0  0  0  0
 26 25  1  0  0  0  0
 26 24  1  0  0  0  0
 27 22  1  0  0  0  0
 27 21  1  0  0  0  0
 29 28  1  0  0  0  0
M  END
>  <MODEL>
4

>  <REMARK>
 VINA RESULT:      -8.3      3.899      5.735
  Name = 
  5 active torsions:
  status: ('A' for Active; 'I' for Inactive)
    1  A    between atoms: C_8  and  C_14
    2  A    between atoms: C_8  and  N_26
    3  A    between atoms: C_9  and  O_11
    4  A    between atoms: C_14  and  C_24
    5  A    between atoms: N_27  and  C_29
                            x       y       z     vdW  Elec       q    Type
                         _______ _______ _______ _____ _____    ______ ____

>  <TORSDO>
F 5

$$$$
=
 OpenBabel11042410263D

 29 32  0  0  1  0  0  0  0  0999 V2000
  191.4980  177.7600  145.5130 O   0  0  0  0  0  0  0  0  0  0  0  0
  190.8420  178.2510  144.2530 S   0  0  0  0  0  0  0  0  0  0  0  0
  190.9710  179.7450  144.1600 O   0  0  0  0  0  0  0  0  0  0  0  0
  188.5170  177.6410  142.9250 C   0  0  0  0  0  2  0  0  0  0  0  0
  191.9780  176.1800  143.1750 F   0  0  0  0  0  0  0  0  0  0  0  0
  189.3640  176.7880  141.9860 C   0  0  0  0  0  2  0  0  0  0  0  0
  191.6280  177.4810  142.8530 C   0  0  1  0  0  3  0  0  0  0  0  0
  190.6740  177.4980  141.6560 C   0  0  1  0  0  3  0  0  0  0  0  0
  189.1640  177.8010  144.2260 N   0  0  2  0  0  0  0  0  0  0  0  0
  184.5590  178.6280  146.4430 N   0  0  0  0  0  0  0  0  0  0  0  0
  188.8070  177.5070  146.7220 C   0  0  0  0  0  3  0  0  0  0  0  0
  186.7350  178.0190  146.9070 C   0  0  0  0  0  0  0  0  0  0  0  0
  186.1140  178.5170  144.6360 N   0  0  0  0  0  0  0  0  0  0  0  0
  187.0470  178.1520  145.5410 C   0  0  0  0  0  0  0  0  0  0  0  0
  184.8510  178.7600  145.1040 C   0  0  0  0  0  0  0  0  0  0  0  0
  185.4820  178.2600  147.3440 N   0  0  0  0  0  0  0  0  0  0  0  0
  183.7830  179.1690  144.1560 C   0  0  0  0  0  1  0  0  0  0  0  0
  187.7960  177.6280  147.6310 N   0  0  0  0  0  0  0  0  0  0  0  0
  188.3740  177.8240  145.4250 C   0  0  2  0  0  3  0  0  0  0  0  0
  191.3130  176.8490  140.4400 C   0  0  0  0  0  2  0  0  0  0  0  0
  190.3300  176.8120  139.2810 C   0  0  0  0  0  2  0  0  0  0  0  0
  191.9230  175.7240  137.9620 C   0  0  0  0  0  2  0  0  0  0  0  0
  189.6160  175.6750  137.3540 C   0  0  0  0  0  2  0  0  0  0  0  0
  192.2860  174.4320  137.2160 C   0  0  1  0  0  3  0  0  0  0  0  0
  189.9820  174.7180  136.2040 C   0  0  0  0  0  2  0  0  0  0  0  0
  191.0740  173.7190  136.5910 C   0  0  0  0  0  2  0  0  0  0  0  0
  190.5610  175.6250  138.4770 N   0  0  0  0  0  0  0  0  0  0  0  0
  193.7150  175.9380  136.2410 C   0  0  0  0  0  1  0  0  0  0  0  0
  193.3800  174.5770  136.3350 O   0  0  0  0  0  0  0  0  0  0  0  0
  2  1  2  0  0  0  0
  3  2  2  0  0  0  0
  6  4  1  0  0  0  0
  7  5  1  1  0  0  0
  7  2  1  0  0  0  0
  8 20  1  6  0  0  0
  8  6  1  0  0  0  0
  8  7  1  0  0  0  0
  9  4  1  6  0  0  0
  9  2  1  0  0  0  0
  9 19  1  0  0  0  0
 10 16  1  0  0  0  0
 11 18  2  0  0  0  0
 12 16  2  0  0  0  0
 12 18  1  0  0  0  0
 13 15  1  0  0  0  0
 13 14  2  0  0  0  0
 14 12  1  0  0  0  0
 15 10  2  0  0  0  0
 17 15  1  0  0  0  0
 19 14  1  0  0  0  0
 19 11  1  6  0  0  0
 21 20  1  0  0  0  0
 22 27  1  0  0  0  0
 23 27  1  0  0  0  0
 24 29  1  6  0  0  0
 24 22  1  0  0  0  0
 25 26  1  0  0  0  0
 25 23  1  0  0  0  0
 26 24  1  0  0  0  0
 27 21  1  0  0  0  0
 28 29  1  0  0  0  0
M  END
>  <MODEL>
5

>  <REMARK>
 VINA RESULT:      -8.1      4.865      6.830
  Name = 
  5 active torsions:
  status: ('A' for Active; 'I' for Inactive)
    1  A    between atoms: C_8  and  C_14
    2  A    between atoms: C_8  and  N_26
    3  A    between atoms: C_9  and  O_11
    4  A    between atoms: C_14  and  C_24
    5  A    between atoms: N_27  and  C_29
                            x       y       z     vdW  Elec       q    Type
                         _______ _______ _______ _____ _____    ______ ____

>  <TORSDO>
F 5

$$$$
=
 OpenBabel11042410263D

 29 32  0  0  1  0  0  0  0  0999 V2000
  185.9090  180.0560  146.7990 O   0  0  0  0  0  0  0  0  0  0  0  0
  185.4070  178.8840  146.0030 S   0  0  0  0  0  0  0  0  0  0  0  0
  184.5240  178.0250  146.8630 O   0  0  0  0  0  0  0  0  0  0  0  0
  186.5290  177.1670  144.1770 C   0  0  0  0  0  2  0  0  0  0  0  0
  185.0840  180.6430  144.1210 F   0  0  0  0  0  0  0  0  0  0  0  0
  185.8690  178.0090  143.0900 C   0  0  0  0  0  2  0  0  0  0  0  0
  184.4920  179.4860  144.5990 C   0  0  1  0  0  3  0  0  0  0  0  0
  184.4580  178.4110  143.5090 C   0  0  1  0  0  3  0  0  0  0  0  0
  186.7360  177.9430  145.3980 N   0  0  2  0  0  0  0  0  0  0  0  0
  191.8520  177.1620  145.5530 N   0  0  0  0  0  0  0  0  0  0  0  0
  187.9870  177.6930  147.5930 C   0  0  0  0  0  3  0  0  0  0  0  0
  189.9910  177.3940  146.8960 C   0  0  0  0  0  0  0  0  0  0  0  0
  189.7350  177.5070  144.5050 N   0  0  0  0  0  0  0  0  0  0  0  0
  189.1970  177.5440  145.7430 C   0  0  0  0  0  0  0  0  0  0  0  0
  191.0870  177.3100  144.4180 C   0  0  0  0  0  0  0  0  0  0  0  0
  191.3220  177.2040  146.7840 N   0  0  0  0  0  0  0  0  0  0  0  0
  191.7360  177.2560  143.0820 C   0  0  0  0  0  1  0  0  0  0  0  0
  189.2650  177.4830  148.0220 N   0  0  0  0  0  0  0  0  0  0  0  0
  187.9150  177.7360  146.1920 C   0  0  2  0  0  3  0  0  0  0  0  0
  183.6830  178.8910  142.2940 C   0  0  0  0  0  2  0  0  0  0  0  0
  184.1870  178.2000  141.0380 C   0  0  0  0  0  2  0  0  0  0  0  0
  183.3970  177.3510  139.0080 C   0  0  0  0  0  2  0  0  0  0  0  0
  181.8710  178.1760  140.6460 C   0  0  0  0  0  2  0  0  0  0  0  0
  182.3770  176.4240  138.3300 C   0  0  1  0  0  3  0  0  0  0  0  0
  180.7140  177.7050  139.7460 C   0  0  0  0  0  2  0  0  0  0  0  0
  181.0140  176.3810  139.0420 C   0  0  0  0  0  2  0  0  0  0  0  0
  183.1150  177.4240  140.4390 N   0  0  0  0  0  0  0  0  0  0  0  0
  183.1160  177.6820  136.5590 C   0  0  0  0  0  1  0  0  0  0  0  0
  182.2860  176.6110  136.9330 O   0  0  0  0  0  0  0  0  0  0  0  0
  2  1  2  0  0  0  0
  2  3  2  0  0  0  0
  6  8  1  0  0  0  0
  6  4  1  0  0  0  0
  7  5  1  6  0  0  0
  7  2  1  0  0  0  0
  8 20  1  6  0  0  0
  8  7  1  0  0  0  0
  9  4  1  1  0  0  0
  9  2  1  0  0  0  0
  9 19  1  0  0  0  0
 10 16  1  0  0  0  0
 11 18  2  0  0  0  0
 12 18  1  0  0  0  0
 13 14  2  0  0  0  0
 14 19  1  0  0  0  0
 14 12  1  0  0  0  0
 15 13  1  0  0  0  0
 15 10  2  0  0  0  0
 16 12  2  0  0  0  0
 17 15  1  0  0  0  0
 19 11  1  1  0  0  0
 21 20  1  0  0  0  0
 22 27  1  0  0  0  0
 24 29  1  6  0  0  0
 24 22  1  0  0  0  0
 24 26  1  0  0  0  0
 25 23  1  0  0  0  0
 26 25  1  0  0  0  0
 27 23  1  0  0  0  0
 27 21  1  0  0  0  0
 28 29  1  0  0  0  0
M  END
>  <MODEL>
6

>  <REMARK>
 VINA RESULT:      -8.0      0.908      1.619
  Name = 
  5 active torsions:
  status: ('A' for Active; 'I' for Inactive)
    1  A    between atoms: C_8  and  C_14
    2  A    between atoms: C_8  and  N_26
    3  A    between atoms: C_9  and  O_11
    4  A    between atoms: C_14  and  C_24
    5  A    between atoms: N_27  and  C_29
                            x       y       z     vdW  Elec       q    Type
                         _______ _______ _______ _____ _____    ______ ____

>  <TORSDO>
F 5

$$$$
=
 OpenBabel11042410263D

 29 32  0  0  1  0  0  0  0  0999 V2000
  188.2520  175.7060  143.3060 O   0  0  0  0  0  0  0  0  0  0  0  0
  189.7220  175.8470  143.0230 S   0  0  0  0  0  0  0  0  0  0  0  0
  190.4070  174.5250  143.2220 O   0  0  0  0  0  0  0  0  0  0  0  0
  191.6240  177.7430  143.5930 C   0  0  0  0  0  2  0  0  0  0  0  0
  188.9230  177.2810  141.0110 F   0  0  0  0  0  0  0  0  0  0  0  0
  191.4440  178.2470  142.1650 C   0  0  0  0  0  2  0  0  0  0  0  0
  189.9380  176.3990  141.3440 C   0  0  1  0  0  3  0  0  0  0  0  0
  191.3040  177.0750  141.1990 C   0  0  1  0  0  3  0  0  0  0  0  0
  190.4310  177.0420  144.0640 N   0  0  2  0  0  0  0  0  0  0  0  0
  186.6820  178.2410  147.4280 N   0  0  0  0  0  0  0  0  0  0  0  0
  190.7850  176.8940  146.5740 C   0  0  0  0  0  3  0  0  0  0  0  0
  188.8720  177.5320  147.3000 C   0  0  0  0  0  0  0  0  0  0  0  0
  187.6540  177.9510  145.2670 N   0  0  0  0  0  0  0  0  0  0  0  0
  188.7900  177.5790  145.8960 C   0  0  0  0  0  0  0  0  0  0  0  0
  186.5870  178.2890  146.0540 C   0  0  0  0  0  0  0  0  0  0  0  0
  187.8060  177.8660  148.0540 N   0  0  0  0  0  0  0  0  0  0  0  0
  185.3110  178.7100  145.4200 C   0  0  0  0  0  1  0  0  0  0  0  0
  190.0790  177.1170  147.7200 N   0  0  0  0  0  0  0  0  0  0  0  0
  190.0150  177.1700  145.4330 C   0  0  2  0  0  3  0  0  0  0  0  0
  191.5240  177.5590  139.7750 C   0  0  0  0  0  2  0  0  0  0  0  0
  191.1950  176.4550  138.7840 C   0  0  0  0  0  2  0  0  0  0  0  0
  189.4400  177.8190  138.0600 C   0  0  0  0  0  2  0  0  0  0  0  0
  190.0840  175.9050  136.7890 C   0  0  0  0  0  2  0  0  0  0  0  0
  188.8200  178.5670  136.8700 C   0  0  1  0  0  3  0  0  0  0  0  0
  189.0670  176.3290  135.7120 C   0  0  0  0  0  2  0  0  0  0  0  0
  189.0030  177.8450  135.5240 C   0  0  0  0  0  2  0  0  0  0  0  0
  190.5760  177.0260  137.6000 N   0  0  0  0  0  0  0  0  0  0  0  0
  186.9340  178.2330  138.1330 C   0  0  0  0  0  1  0  0  0  0  0  0
  187.4990  179.0080  137.1070 O   0  0  0  0  0  0  0  0  0  0  0  0
  2  3  2  0  0  0  0
  2  1  2  0  0  0  0
  2  9  1  0  0  0  0
  6  4  1  0  0  0  0
  7  5  1  1  0  0  0
  7  2  1  0  0  0  0
  8 20  1  6  0  0  0
  8  7  1  0  0  0  0
  8  6  1  0  0  0  0
  9  4  1  1  0  0  0
  9 19  1  0  0  0  0
 10 16  1  0  0  0  0
 11 18  2  0  0  0  0
 12 18  1  0  0  0  0
 12 16  2  0  0  0  0
 13 14  2  0  0  0  0
 13 15  1  0  0  0  0
 14 12  1  0  0  0  0
 15 10  2  0  0  0  0
 17 15  1  0  0  0  0
 19 14  1  0  0  0  0
 19 11  1  6  0  0  0
 21 20  1  0  0  0  0
 23 27  1  0  0  0  0
 24 29  1  1  0  0  0
 24 22  1  0  0  0  0
 25 23  1  0  0  0  0
 26 25  1  0  0  0  0
 26 24  1  0  0  0  0
 27 22  1  0  0  0  0
 27 21  1  0  0  0  0
 29 28  1  0  0  0  0
M  END
>  <MODEL>
7

>  <REMARK>
 VINA RESULT:      -7.8      3.950      5.641
  Name = 
  5 active torsions:
  status: ('A' for Active; 'I' for Inactive)
    1  A    between atoms: C_8  and  C_14
    2  A    between atoms: C_8  and  N_26
    3  A    between atoms: C_9  and  O_11
    4  A    between atoms: C_14  and  C_24
    5  A    between atoms: N_27  and  C_29
                            x       y       z     vdW  Elec       q    Type
                         _______ _______ _______ _____ _____    ______ ____

>  <TORSDO>
F 5

$$$$
=
 OpenBabel11042410263D

 29 32  0  0  1  0  0  0  0  0999 V2000
  191.7110  177.3380  142.4950 O   0  0  0  0  0  0  0  0  0  0  0  0
  190.3940  176.8720  141.9390 S   0  0  0  0  0  0  0  0  0  0  0  0
  190.1490  175.4450  142.3370 O   0  0  0  0  0  0  0  0  0  0  0  0
  189.0900  177.1900  139.5430 C   0  0  0  0  0  2  0  0  0  0  0  0
  189.5580  179.2150  142.6830 F   0  0  0  0  0  0  0  0  0  0  0  0
  188.2610  178.2760  140.2230 C   0  0  0  0  0  2  0  0  0  0  0  0
  189.0970  177.9140  142.5740 C   0  0  1  0  0  3  0  0  0  0  0  0
  187.8850  177.8510  141.6400 C   0  0  1  0  0  3  0  0  0  0  0  0
  190.3800  177.0130  140.2080 N   0  0  2  0  0  0  0  0  0  0  0  0
  192.5740  174.2650  136.4080 N   0  0  0  0  0  0  0  0  0  0  0  0
  192.8130  177.3310  139.5570 C   0  0  0  0  0  3  0  0  0  0  0  0
  193.0110  175.8960  137.9780 C   0  0  0  0  0  0  0  0  0  0  0  0
  190.8030  174.9460  137.8550 N   0  0  0  0  0  0  0  0  0  0  0  0
  191.6790  175.8030  138.4230 C   0  0  0  0  0  0  0  0  0  0  0  0
  191.2670  174.1650  136.8320 C   0  0  0  0  0  0  0  0  0  0  0  0
  193.4440  175.1180  136.9650 N   0  0  0  0  0  0  0  0  0  0  0  0
  190.3510  173.2010  136.1700 C   0  0  0  0  0  1  0  0  0  0  0  0
  193.7060  176.8210  138.6600 N   0  0  0  0  0  0  0  0  0  0  0  0
  191.5550  176.7220  139.4330 C   0  0  2  0  0  3  0  0  0  0  0  0
  186.7560  178.7290  142.1520 C   0  0  0  0  0  2  0  0  0  0  0  0
  185.8590  177.9420  143.0930 C   0  0  0  0  0  2  0  0  0  0  0  0
  186.9090  177.5320  145.1410 C   0  0  0  0  0  2  0  0  0  0  0  0
  184.6800  178.3810  145.0770 C   0  0  0  0  0  2  0  0  0  0  0  0
  187.2210  178.0810  146.5410 C   0  0  1  0  0  3  0  0  0  0  0  0
  184.7250  178.5000  146.6120 C   0  0  0  0  0  2  0  0  0  0  0  0
  186.0940  178.9450  147.1310 C   0  0  0  0  0  2  0  0  0  0  0  0
  186.0060  178.4450  144.4480 N   0  0  0  0  0  0  0  0  0  0  0  0
  188.0810  177.7280  148.6390 C   0  0  0  0  0  1  0  0  0  0  0  0
  187.7190  177.1050  147.4320 O   0  0  0  0  0  0  0  0  0  0  0  0
  2  3  2  0  0  0  0
  2  1  2  0  0  0  0
  2  7  1  0  0  0  0
  4  6  1  0  0  0  0
  6  8  1  0  0  0  0
  7  5  1  6  0  0  0
  8 20  1  1  0  0  0
  8  7  1  0  0  0  0
  9  4  1  6  0  0  0
  9  2  1  0  0  0  0
 10 15  2  0  0  0  0
 10 16  1  0  0  0  0
 12 14  1  0  0  0  0
 12 18  1  0  0  0  0
 13 14  2  0  0  0  0
 14 19  1  0  0  0  0
 15 13  1  0  0  0  0
 16 12  2  0  0  0  0
 17 15  1  0  0  0  0
 18 11  2  0  0  0  0
 19 11  1  6  0  0  0
 19  9  1  0  0  0  0
 20 21  1  0  0  0  0
 21 27  1  0  0  0  0
 22 24  1  0  0  0  0
 23 25  1  0  0  0  0
 24 26  1  0  0  0  0
 24 29  1  1  0  0  0
 25 26  1  0  0  0  0
 27 23  1  0  0  0  0
 27 22  1  0  0  0  0
 29 28  1  0  0  0  0
M  END
>  <MODEL>
8

>  <REMARK>
 VINA RESULT:      -7.8      5.142      7.845
  Name = 
  5 active torsions:
  status: ('A' for Active; 'I' for Inactive)
    1  A    between atoms: C_8  and  C_14
    2  A    between atoms: C_8  and  N_26
    3  A    between atoms: C_9  and  O_11
    4  A    between atoms: C_14  and  C_24
    5  A    between atoms: N_27  and  C_29
                            x       y       z     vdW  Elec       q    Type
                         _______ _______ _______ _____ _____    ______ ____

>  <TORSDO>
F 5

$$$$
=
 OpenBabel11042410263D

 29 32  0  0  1  0  0  0  0  0999 V2000
  191.5370  177.1300  137.7650 O   0  0  0  0  0  0  0  0  0  0  0  0
  190.7540  176.5660  138.9170 S   0  0  0  0  0  0  0  0  0  0  0  0
  190.5590  175.0890  138.7260 O   0  0  0  0  0  0  0  0  0  0  0  0
  188.5740  177.4040  140.3620 C   0  0  0  0  0  2  0  0  0  0  0  0
  192.2730  178.1050  140.3550 F   0  0  0  0  0  0  0  0  0  0  0  0
  189.5550  177.8630  141.4360 C   0  0  0  0  0  2  0  0  0  0  0  0
  191.6430  176.8730  140.4290 C   0  0  1  0  0  3  0  0  0  0  0  0
  190.6720  176.8390  141.6120 C   0  0  1  0  0  3  0  0  0  0  0  0
  189.2110  177.3530  139.0480 N   0  0  2  0  0  0  0  0  0  0  0  0
  185.9020  175.9710  135.3130 N   0  0  0  0  0  0  0  0  0  0  0  0
  188.4520  178.9860  137.2580 C   0  0  0  0  0  3  0  0  0  0  0  0
  187.1470  177.7480  136.0940 C   0  0  0  0  0  0  0  0  0  0  0  0
  187.2520  175.6420  137.2540 N   0  0  0  0  0  0  0  0  0  0  0  0
  187.6360  176.9310  137.1300 C   0  0  0  0  0  0  0  0  0  0  0  0
  186.3710  175.1610  136.3230 C   0  0  0  0  0  0  0  0  0  0  0  0
  186.2770  177.2520  135.1910 N   0  0  0  0  0  0  0  0  0  0  0  0
  185.9140  173.7500  136.4050 C   0  0  0  0  0  1  0  0  0  0  0  0
  187.6370  178.9970  136.1640 N   0  0  0  0  0  0  0  0  0  0  0  0
  188.4700  177.7250  137.8740 C   0  0  2  0  0  3  0  0  0  0  0  0
  191.3980  177.0970  142.9220 C   0  0  0  0  0  2  0  0  0  0  0  0
  190.9080  178.3890  143.5530 C   0  0  0  0  0  2  0  0  0  0  0  0
  191.4140  177.0490  145.4000 C   0  0  0  0  0  2  0  0  0  0  0  0
  189.1710  177.7610  145.0050 C   0  0  0  0  0  2  0  0  0  0  0  0
  191.2250  176.8430  146.9100 C   0  0  1  0  0  3  0  0  0  0  0  0
  188.7720  177.1070  146.3410 C   0  0  0  0  0  2  0  0  0  0  0  0
  189.8400  177.2730  147.4230 C   0  0  0  0  0  2  0  0  0  0  0  0
  190.5830  178.1620  144.9500 N   0  0  0  0  0  0  0  0  0  0  0  0
  192.7580  175.7110  148.1870 C   0  0  0  0  0  1  0  0  0  0  0  0
  191.6300  175.5680  147.3620 O   0  0  0  0  0  0  0  0  0  0  0  0
  1  2  2  0  0  0  0
  2  9  1  0  0  0  0
  2  7  1  0  0  0  0
  3  2  2  0  0  0  0
  4  6  1  0  0  0  0
  6  8  1  0  0  0  0
  7  5  1  6  0  0  0
  7  8  1  0  0  0  0
  8 20  1  1  0  0  0
  9  4  1  1  0  0  0
 10 15  2  0  0  0  0
 12 18  1  0  0  0  0
 12 14  1  0  0  0  0
 14 13  2  0  0  0  0
 14 19  1  0  0  0  0
 15 17  1  0  0  0  0
 15 13  1  0  0  0  0
 16 10  1  0  0  0  0
 16 12  2  0  0  0  0
 18 11  2  0  0  0  0
 19 11  1  1  0  0  0
 19  9  1  0  0  0  0
 20 21  1  0  0  0  0
 21 27  1  0  0  0  0
 22 24  1  0  0  0  0
 23 25  1  0  0  0  0
 24 29  1  6  0  0  0
 24 26  1  0  0  0  0
 25 26  1  0  0  0  0
 27 23  1  0  0  0  0
 27 22  1  0  0  0  0
 29 28  1  0  0  0  0
M  END
>  <MODEL>
9

>  <REMARK>
 VINA RESULT:      -7.5      4.757      9.813
  Name = 
  5 active torsions:
  status: ('A' for Active; 'I' for Inactive)
    1  A    between atoms: C_8  and  C_14
    2  A    between atoms: C_8  and  N_26
    3  A    between atoms: C_9  and  O_11
    4  A    between atoms: C_14  and  C_24
    5  A    between atoms: N_27  and  C_29
                            x       y       z     vdW  Elec       q    Type
                         _______ _______ _______ _____ _____    ______ ____

>  <TORSDO>
F 5

$$$$
