=
 OpenBabel11032420273D

 39 42  0  0  1  0  0  0  0  0999 V2000
  181.2440  179.5730  137.7080 C   0  0  0  0  0  2  0  0  0  0  0  0
  185.7170  175.4030  136.6580 C   0  0  0  0  0  2  0  0  0  0  0  0
  182.4330  178.3000  140.5410 C   0  0  0  0  0  2  0  0  0  0  0  0
  187.9360  176.5710  136.4610 C   0  0  1  0  0  3  0  0  0  0  0  0
  186.6440  177.8120  143.1310 C   0  0  0  0  0  0  0  0  0  0  0  0
  187.1570  175.4510  137.1460 C   0  0  0  0  0  2  0  0  0  0  0  0
  182.8390  175.8850  136.2740 C   0  0  0  0  0  3  0  0  0  0  0  0
  181.1340  179.5200  139.2290 C   0  0  1  0  0  3  0  0  0  0  0  0
  185.0390  176.5670  137.1090 O   0  0  0  0  0  0  0  0  0  0  0  0
  180.9990  177.3850  136.5770 N   0  0  0  0  0  0  0  0  0  0  0  0
  188.7660  179.3640  138.6590 C   0  0  0  0  0  1  0  0  0  0  0  0
  185.9390  178.3070  144.2790 N   0  0  0  0  0  0  0  0  0  0  0  0
  186.1170  178.0990  141.7750 C   0  0  0  0  0  0  0  0  0  0  0  0
  181.4830  176.1930  136.1250 C   0  0  0  0  0  3  0  0  0  0  0  0
  187.9030  178.1280  138.4790 C   0  0  1  0  0  3  0  0  0  0  0  0
  186.9510  177.9390  140.7380 C   0  0  0  0  0  3  0  0  0  0  0  0
  184.7130  178.6770  141.6210 C   0  0  2  0  0  3  0  0  0  0  0  0
  183.9800  178.8430  142.9680 C   0  0  0  0  0  2  0  0  0  0  0  0
  187.7140  177.1560  143.2770 O   0  0  0  0  0  0  0  0  0  0  0  0
  186.6320  178.2480  139.3110 C   0  0  0  0  0  2  0  0  0  0  0  0
  183.1700  178.0310  137.3270 C   0  0  0  0  0  3  0  0  0  0  0  0
  184.9140  179.3190  144.0700 C   0  0  0  0  0  2  0  0  0  0  0  0
  182.4070  179.4950  139.8130 O   0  0  0  0  0  0  0  0  0  0  0  0
  180.3760  180.7390  139.7160 C   0  0  0  0  0  1  0  0  0  0  0  0
  187.5670  177.9620  137.0020 C   0  0  0  0  0  2  0  0  0  0  0  0
  181.8110  178.3040  137.1690 C   0  0  0  0  0  0  0  0  0  0  0  0
  183.6870  176.8160  136.8920 C   0  0  0  0  0  0  0  0  0  0  0  0
  183.8650  177.7910  140.7010 C   0  0  0  0  0  2  0  0  0  0  0  0
  185.1700  178.1720  146.5970 C   0  0  0  0  0  2  0  0  0  0  0  0
  186.3250  179.1440  146.5460 C   0  0  0  0  0  2  0  0  0  0  0  0
  186.3220  177.9240  145.6360 C   0  0  0  0  0  3  0  0  0  0  0  0
  189.4320  176.3150  136.5750 C   0  0  0  0  0  2  0  0  0  0  0  0
  189.7020  175.2430  137.6230 C   0  0  0  0  0  2  0  0  0  0  0  0
  190.9260  175.5770  138.4740 C   0  0  2  0  0  3  0  0  0  0  0  0
  190.5300  176.1280  139.6950 O   0  0  0  0  0  1  0  0  0  0  0  0
  191.8680  176.5370  137.7520 C   0  0  0  0  0  2  0  0  0  0  0  0
  193.4490  174.5810  137.6550 C   0  0  0  0  0  1  0  0  0  0  0  0
  193.3290  176.0880  137.7910 C   0  0  1  0  0  3  0  0  0  0  0  0
  194.0720  176.7210  136.7940 O   0  0  0  0  0  1  0  0  0  0  0  0
  1  8  1  0  0  0  0
  2  9  1  0  0  0  0
  2  6  1  0  0  0  0
  3 28  1  0  0  0  0
  4 32  1  1  0  0  0
  4 25  1  0  0  0  0
  4  6  1  0  0  0  0
  5 19  2  0  0  0  0
  5 12  1  0  0  0  0
  7 27  1  0  0  0  0
  8 24  1  1  0  0  0
  8 23  1  0  0  0  0
 10 26  2  0  0  0  0
 12 31  1  0  0  0  0
 13  5  1  0  0  0  0
 14  7  2  0  0  0  0
 14 10  1  0  0  0  0
 15 11  1  6  0  0  0
 15 20  1  0  0  0  0
 16 13  2  0  0  0  0
 17 28  1  6  0  0  0
 17 13  1  0  0  0  0
 17 18  1  0  0  0  0
 18 22  1  0  0  0  0
 20 16  1  0  0  0  0
 22 12  1  0  0  0  0
 23  3  1  0  0  0  0
 25 15  1  0  0  0  0
 26 21  1  0  0  0  0
 26  1  1  0  0  0  0
 27  9  1  0  0  0  0
 27 21  2  0  0  0  0
 30 29  1  0  0  0  0
 31 30  1  0  0  0  0
 31 29  1  0  0  0  0
 32 33  1  0  0  0  0
 33 34  1  0  0  0  0
 34 35  1  1  0  0  0
 36 38  1  0  0  0  0
 36 34  1  0  0  0  0
 38 37  1  6  0  0  0
 39 38  1  0  0  0  0
M  END
>  <MODEL>
1

>  <REMARK>
 VINA RESULT:      -6.8      0.000      0.000
  Name = 
  6 active torsions:
  status: ('A' for Active; 'I' for Inactive)
    1  A    between atoms: C_3  and  C_5
    2  A    between atoms: C_3  and  C_35
    3  A    between atoms: C_8  and  C_26
    4  A    between atoms: C_8  and  C_35
    5  A    between atoms: N_16  and  C_38
    6  A    between atoms: C_23  and  C_26
                            x       y       z     vdW  Elec       q    Type
                         _______ _______ _______ _____ _____    ______ ____

>  <TORSDO>
F 6

$$$$
=
 OpenBabel11032420273D

 39 42  0  0  1  0  0  0  0  0999 V2000
  188.4850  179.0830  136.7150 C   0  0  0  0  0  2  0  0  0  0  0  0
  187.8110  177.0760  142.5460 C   0  0  0  0  0  2  0  0  0  0  0  0
  186.2020  176.6760  136.9340 C   0  0  0  0  0  2  0  0  0  0  0  0
  186.1420  178.5210  143.7530 C   0  0  1  0  0  3  0  0  0  0  0  0
  181.9050  175.5690  139.1680 C   0  0  0  0  0  0  0  0  0  0  0  0
  186.5440  177.0940  143.3890 C   0  0  0  0  0  2  0  0  0  0  0  0
  189.7340  177.1760  140.3210 C   0  0  0  0  0  3  0  0  0  0  0  0
  187.5180  178.1700  135.9680 C   0  0  1  0  0  3  0  0  0  0  0  0
  187.5280  177.6480  141.2770 O   0  0  0  0  0  0  0  0  0  0  0  0
  190.1750  177.9000  138.0830 N   0  0  0  0  0  0  0  0  0  0  0  0
  183.1350  179.7000  142.0540 C   0  0  0  0  0  1  0  0  0  0  0  0
  181.3850  175.2040  137.8810 N   0  0  0  0  0  0  0  0  0  0  0  0
  183.0820  176.4680  139.2480 C   0  0  0  0  0  0  0  0  0  0  0  0
  190.5910  177.2720  139.2190 C   0  0  0  0  0  3  0  0  0  0  0  0
  184.2300  178.6480  142.0730 C   0  0  1  0  0  3  0  0  0  0  0  0
  183.3280  177.0640  140.4220 C   0  0  0  0  0  3  0  0  0  0  0  0
  183.8800  176.7760  137.9840 C   0  0  2  0  0  3  0  0  0  0  0  0
  183.3520  176.0290  136.7420 C   0  0  0  0  0  2  0  0  0  0  0  0
  181.3510  175.1430  140.2200 O   0  0  0  0  0  0  0  0  0  0  0  0
  184.4150  178.0570  140.6810 C   0  0  0  0  0  2  0  0  0  0  0  0
  188.0590  178.3840  139.0730 C   0  0  0  0  0  3  0  0  0  0  0  0
  181.8330  175.9620  136.7210 C   0  0  0  0  0  2  0  0  0  0  0  0
  186.3150  178.0460  136.6750 O   0  0  0  0  0  0  0  0  0  0  0  0
  187.2420  178.7530  134.5960 C   0  0  0  0  0  1  0  0  0  0  0  0
  185.5250  179.2810  142.5680 C   0  0  0  0  0  2  0  0  0  0  0  0
  188.9360  178.4560  137.9900 C   0  0  0  0  0  0  0  0  0  0  0  0
  188.4500  177.7340  140.2380 C   0  0  0  0  0  0  0  0  0  0  0  0
  185.3590  176.4240  138.1830 C   0  0  0  0  0  2  0  0  0  0  0  0
  179.6290  174.3670  136.3980 C   0  0  0  0  0  2  0  0  0  0  0  0
  178.9700  174.8770  137.6570 C   0  0  0  0  0  2  0  0  0  0  0  0
  180.3310  174.2020  137.7370 C   0  0  0  0  0  3  0  0  0  0  0  0
  185.2040  178.5120  144.9510 C   0  0  0  0  0  2  0  0  0  0  0  0
  185.7830  177.6470  146.0630 C   0  0  0  0  0  2  0  0  0  0  0  0
  186.1840  178.4780  147.2800 C   0  0  2  0  0  3  0  0  0  0  0  0
  185.7630  179.8000  147.1220 O   0  0  0  0  0  1  0  0  0  0  0  0
  187.6910  178.4370  147.5180 C   0  0  0  0  0  2  0  0  0  0  0  0
  189.4120  178.0050  145.7340 C   0  0  0  0  0  1  0  0  0  0  0  0
  188.4040  177.3760  146.6790 C   0  0  1  0  0  3  0  0  0  0  0  0
  189.0320  176.4350  147.4950 O   0  0  0  0  0  1  0  0  0  0  0  0
  1 26  1  0  0  0  0
  2  6  1  0  0  0  0
  3 28  1  0  0  0  0
  4 32  1  1  0  0  0
  5 13  1  0  0  0  0
  5 19  2  0  0  0  0
  6  4  1  0  0  0  0
  8 24  1  6  0  0  0
  8 23  1  0  0  0  0
  8  1  1  0  0  0  0
  9  2  1  0  0  0  0
 10 14  1  0  0  0  0
 12  5  1  0  0  0  0
 13 16  2  0  0  0  0
 14  7  2  0  0  0  0
 15 11  1  6  0  0  0
 15 25  1  0  0  0  0
 16 20  1  0  0  0  0
 17 18  1  6  0  0  0
 17 28  1  0  0  0  0
 17 13  1  0  0  0  0
 20 15  1  0  0  0  0
 21 27  2  0  0  0  0
 22 18  1  0  0  0  0
 22 12  1  0  0  0  0
 23  3  1  0  0  0  0
 25  4  1  0  0  0  0
 26 10  2  0  0  0  0
 26 21  1  0  0  0  0
 27  7  1  0  0  0  0
 27  9  1  0  0  0  0
 29 30  1  0  0  0  0
 29 31  1  0  0  0  0
 30 31  1  0  0  0  0
 31 12  1  0  0  0  0
 32 33  1  0  0  0  0
 33 34  1  0  0  0  0
 34 35  1  6  0  0  0
 34 36  1  0  0  0  0
 38 37  1  1  0  0  0
 38 39  1  0  0  0  0
 38 36  1  0  0  0  0
M  END
>  <MODEL>
2

>  <REMARK>
 VINA RESULT:      -6.2      2.749      7.984
  Name = 
  6 active torsions:
  status: ('A' for Active; 'I' for Inactive)
    1  A    between atoms: C_3  and  C_5
    2  A    between atoms: C_3  and  C_35
    3  A    between atoms: C_8  and  C_26
    4  A    between atoms: C_8  and  C_35
    5  A    between atoms: N_16  and  C_38
    6  A    between atoms: C_23  and  C_26
                            x       y       z     vdW  Elec       q    Type
                         _______ _______ _______ _____ _____    ______ ____

>  <TORSDO>
F 6

$$$$
=
 OpenBabel11032420273D

 39 42  0  0  1  0  0  0  0  0999 V2000
  189.0790  178.1930  137.1950 C   0  0  0  0  0  2  0  0  0  0  0  0
  184.0310  178.4710  140.7900 C   0  0  0  0  0  2  0  0  0  0  0  0
  187.3870  175.3310  137.1680 C   0  0  0  0  0  2  0  0  0  0  0  0
  182.1040  179.4140  139.4760 C   0  0  1  0  0  3  0  0  0  0  0  0
  182.9180  173.4530  136.0840 C   0  0  0  0  0  0  0  0  0  0  0  0
  182.5830  178.2700  140.3670 C   0  0  0  0  0  2  0  0  0  0  0  0
  186.9710  178.5210  140.8900 C   0  0  0  0  0  3  0  0  0  0  0  0
  189.0210  176.7490  136.7050 C   0  0  1  0  0  3  0  0  0  0  0  0
  184.8660  178.3400  139.6500 O   0  0  0  0  0  0  0  0  0  0  0  0
  189.0200  178.4530  139.6560 N   0  0  0  0  0  0  0  0  0  0  0  0
  181.5970  178.4680  135.9880 C   0  0  0  0  0  1  0  0  0  0  0  0
  183.5820  172.4440  135.3090 N   0  0  0  0  0  0  0  0  0  0  0  0
  183.6260  174.7200  136.3880 C   0  0  0  0  0  0  0  0  0  0  0  0
  188.3700  178.5430  140.8500 C   0  0  0  0  0  3  0  0  0  0  0  0
  182.2240  178.0730  137.3120 C   0  0  1  0  0  3  0  0  0  0  0  0
  182.8870  175.7610  136.7960 C   0  0  0  0  0  3  0  0  0  0  0  0
  185.1220  174.8310  136.1090 C   0  0  2  0  0  3  0  0  0  0  0  0
  185.7320  173.5210  135.5680 C   0  0  0  0  0  2  0  0  0  0  0  0
  181.7350  173.2680  136.4850 O   0  0  0  0  0  0  0  0  0  0  0  0
  183.4020  177.1350  137.0770 C   0  0  0  0  0  2  0  0  0  0  0  0
  186.9460  178.3330  138.4840 C   0  0  0  0  0  3  0  0  0  0  0  0
  184.7970  172.8170  134.5970 C   0  0  0  0  0  2  0  0  0  0  0  0
  187.7140  176.4080  136.3370 O   0  0  0  0  0  0  0  0  0  0  0  0
  189.9420  176.5920  135.5110 C   0  0  0  0  0  1  0  0  0  0  0  0
  182.6720  179.3280  138.0510 C   0  0  0  0  0  2  0  0  0  0  0  0
  188.3410  178.3520  138.4810 C   0  0  0  0  0  0  0  0  0  0  0  0
  186.2560  178.4060  139.6890 C   0  0  0  0  0  0  0  0  0  0  0  0
  185.8770  175.2420  137.3780 C   0  0  0  0  0  2  0  0  0  0  0  0
  182.9010  170.3860  136.4410 C   0  0  0  0  0  2  0  0  0  0  0  0
  184.0070  170.0400  135.4720 C   0  0  0  0  0  2  0  0  0  0  0  0
  182.9970  171.1200  135.1130 C   0  0  0  0  0  3  0  0  0  0  0  0
  180.5830  179.4650  139.4610 C   0  0  0  0  0  2  0  0  0  0  0  0
  180.0270  178.8890  140.7570 C   0  0  0  0  0  2  0  0  0  0  0  0
  179.5200  179.9840  141.6940 C   0  0  2  0  0  3  0  0  0  0  0  0
  179.6000  181.2300  141.0690 O   0  0  0  0  0  1  0  0  0  0  0  0
  180.3000  180.0080  143.0050 C   0  0  0  0  0  2  0  0  0  0  0  0
  181.9530  178.6320  144.3110 C   0  0  0  0  0  1  0  0  0  0  0  0
  180.6580  178.6140  143.5180 C   0  0  1  0  0  3  0  0  0  0  0  0
  179.6260  178.0880  144.2970 O   0  0  0  0  0  1  0  0  0  0  0  0
  1 26  1  0  0  0  0
  3 28  1  0  0  0  0
  4 32  1  6  0  0  0
  4  6  1  0  0  0  0
  5 13  1  0  0  0  0
  5 19  2  0  0  0  0
  6  2  1  0  0  0  0
  8 24  1  6  0  0  0
  8  1  1  0  0  0  0
  9 27  1  0  0  0  0
  9  2  1  0  0  0  0
 10 14  2  0  0  0  0
 12  5  1  0  0  0  0
 13 16  2  0  0  0  0
 14  7  1  0  0  0  0
 15 11  1  6  0  0  0
 15 25  1  0  0  0  0
 16 20  1  0  0  0  0
 17 18  1  1  0  0  0
 17 13  1  0  0  0  0
 17 28  1  0  0  0  0
 20 15  1  0  0  0  0
 21 27  1  0  0  0  0
 22 12  1  0  0  0  0
 22 18  1  0  0  0  0
 23  8  1  0  0  0  0
 23  3  1  0  0  0  0
 25  4  1  0  0  0  0
 26 21  2  0  0  0  0
 26 10  1  0  0  0  0
 27  7  2  0  0  0  0
 30 29  1  0  0  0  0
 31 12  1  0  0  0  0
 31 30  1  0  0  0  0
 31 29  1  0  0  0  0
 32 33  1  0  0  0  0
 33 34  1  0  0  0  0
 34 35  1  6  0  0  0
 34 36  1  0  0  0  0
 36 38  1  0  0  0  0
 38 39  1  0  0  0  0
 38 37  1  1  0  0  0
M  END
>  <MODEL>
3

>  <REMARK>
 VINA RESULT:      -6.1      2.864      9.431
  Name = 
  6 active torsions:
  status: ('A' for Active; 'I' for Inactive)
    1  A    between atoms: C_3  and  C_5
    2  A    between atoms: C_3  and  C_35
    3  A    between atoms: C_8  and  C_26
    4  A    between atoms: C_8  and  C_35
    5  A    between atoms: N_16  and  C_38
    6  A    between atoms: C_23  and  C_26
                            x       y       z     vdW  Elec       q    Type
                         _______ _______ _______ _____ _____    ______ ____

>  <TORSDO>
F 6

$$$$
=
 OpenBabel11032420273D

 39 42  0  0  1  0  0  0  0  0999 V2000
  182.7780  179.2470  141.6910 C   0  0  0  0  0  2  0  0  0  0  0  0
  185.2610  175.7770  137.1870 C   0  0  0  0  0  2  0  0  0  0  0  0
  185.5360  177.6930  142.7100 C   0  0  0  0  0  2  0  0  0  0  0  0
  186.7930  177.1880  135.7760 C   0  0  1  0  0  3  0  0  0  0  0  0
  190.3760  177.2630  141.6790 C   0  0  0  0  0  0  0  0  0  0  0  0
  186.6530  175.9010  136.5860 C   0  0  0  0  0  2  0  0  0  0  0  0
  182.8920  176.0060  138.9190 C   0  0  0  0  0  3  0  0  0  0  0  0
  183.7230  178.9530  142.8530 C   0  0  1  0  0  3  0  0  0  0  0  0
  185.0950  176.7810  138.1770 O   0  0  0  0  0  0  0  0  0  0  0  0
  181.7790  177.2410  140.6390 N   0  0  0  0  0  0  0  0  0  0  0  0
  188.9590  179.6880  137.3170 C   0  0  0  0  0  1  0  0  0  0  0  0
  190.6450  177.5020  143.0680 N   0  0  0  0  0  0  0  0  0  0  0  0
  189.0790  177.6950  141.1040 C   0  0  0  0  0  0  0  0  0  0  0  0
  181.8000  176.1900  139.7730 C   0  0  0  0  0  3  0  0  0  0  0  0
  188.1700  178.4100  137.5380 C   0  0  1  0  0  3  0  0  0  0  0  0
  188.9900  177.7820  139.7700 C   0  0  0  0  0  3  0  0  0  0  0  0
  187.9550  178.1390  142.0360 C   0  0  2  0  0  3  0  0  0  0  0  0
  188.3290  178.0210  143.5280 C   0  0  0  0  0  2  0  0  0  0  0  0
  191.2470  176.7090  140.9510 O   0  0  0  0  0  0  0  0  0  0  0  0
  187.7990  178.2680  139.0090 C   0  0  0  0  0  2  0  0  0  0  0  0
  183.9020  177.9910  139.8490 C   0  0  0  0  0  3  0  0  0  0  0  0
  189.7730  178.4210  143.7860 C   0  0  0  0  0  2  0  0  0  0  0  0
  185.0550  178.9740  142.4200 O   0  0  0  0  0  0  0  0  0  0  0  0
  183.5240  179.9990  143.9320 C   0  0  0  0  0  1  0  0  0  0  0  0
  186.9210  178.4340  136.6660 C   0  0  0  0  0  2  0  0  0  0  0  0
  182.8000  178.1410  140.6920 C   0  0  0  0  0  0  0  0  0  0  0  0
  183.9580  176.9170  138.9680 C   0  0  0  0  0  0  0  0  0  0  0  0
  186.6870  177.3180  141.7770 C   0  0  0  0  0  2  0  0  0  0  0  0
  191.6440  175.4820  144.0190 C   0  0  0  0  0  2  0  0  0  0  0  0
  191.4950  176.4940  145.1300 C   0  0  0  0  0  2  0  0  0  0  0  0
  191.8340  176.9610  143.7220 C   0  0  0  0  0  3  0  0  0  0  0  0
  187.9650  177.0760  134.8120 C   0  0  0  0  0  2  0  0  0  0  0  0
  188.5940  175.6910  134.9100 C   0  0  0  0  0  2  0  0  0  0  0  0
  190.1190  175.7560  134.8670 C   0  0  2  0  0  3  0  0  0  0  0  0
  190.6530  174.4750  134.7150 O   0  0  0  0  0  1  0  0  0  0  0  0
  190.6900  176.4120  136.1220 C   0  0  0  0  0  2  0  0  0  0  0  0
  192.4920  176.0120  137.8310 C   0  0  0  0  0  1  0  0  0  0  0  0
  191.3080  175.4100  137.0970 C   0  0  1  0  0  3  0  0  0  0  0  0
  190.3580  174.9520  138.0100 O   0  0  0  0  0  1  0  0  0  0  0  0
  1  8  1  0  0  0  0
  2  9  1  0  0  0  0
  4 32  1  1  0  0  0
  4  6  1  0  0  0  0
  4 25  1  0  0  0  0
  5 12  1  0  0  0  0
  6  2  1  0  0  0  0
  7 27  2  0  0  0  0
  7 14  1  0  0  0  0
  8 24  1  1  0  0  0
  9 27  1  0  0  0  0
 10 26  1  0  0  0  0
 12 31  1  0  0  0  0
 12 22  1  0  0  0  0
 13  5  1  0  0  0  0
 13 17  1  0  0  0  0
 14 10  2  0  0  0  0
 15 11  1  1  0  0  0
 15 20  1  0  0  0  0
 16 13  2  0  0  0  0
 17 28  1  1  0  0  0
 17 18  1  0  0  0  0
 18 22  1  0  0  0  0
 19  5  2  0  0  0  0
 20 16  1  0  0  0  0
 21 26  2  0  0  0  0
 23  3  1  0  0  0  0
 23  8  1  0  0  0  0
 25 15  1  0  0  0  0
 26  1  1  0  0  0  0
 27 21  1  0  0  0  0
 28  3  1  0  0  0  0
 29 30  1  0  0  0  0
 31 29  1  0  0  0  0
 31 30  1  0  0  0  0
 32 33  1  0  0  0  0
 34 35  1  1  0  0  0
 34 33  1  0  0  0  0
 34 36  1  0  0  0  0
 36 38  1  0  0  0  0
 38 37  1  1  0  0  0
 38 39  1  0  0  0  0
M  END
>  <MODEL>
4

>  <REMARK>
 VINA RESULT:      -5.9      2.541      3.646
  Name = 
  6 active torsions:
  status: ('A' for Active; 'I' for Inactive)
    1  A    between atoms: C_3  and  C_5
    2  A    between atoms: C_3  and  C_35
    3  A    between atoms: C_8  and  C_26
    4  A    between atoms: C_8  and  C_35
    5  A    between atoms: N_16  and  C_38
    6  A    between atoms: C_23  and  C_26
                            x       y       z     vdW  Elec       q    Type
                         _______ _______ _______ _____ _____    ______ ____

>  <TORSDO>
F 6

$$$$
=
 OpenBabel11032420273D

 39 42  0  0  1  0  0  0  0  0999 V2000
  180.9140  174.1740  135.3670 C   0  0  0  0  0  2  0  0  0  0  0  0
  186.9080  173.6720  136.8880 C   0  0  0  0  0  2  0  0  0  0  0  0
  181.4950  175.2450  138.4610 C   0  0  0  0  0  2  0  0  0  0  0  0
  188.1490  175.7260  136.1360 C   0  0  1  0  0  3  0  0  0  0  0  0
  184.1600  178.5850  140.9950 C   0  0  0  0  0  0  0  0  0  0  0  0
  187.8520  174.7890  137.3040 C   0  0  0  0  0  2  0  0  0  0  0  0
  184.5250  172.0730  136.2330 C   0  0  0  0  0  3  0  0  0  0  0  0
  180.3180  174.7140  136.6640 C   0  0  1  0  0  3  0  0  0  0  0  0
  185.6310  174.2270  136.6090 O   0  0  0  0  0  0  0  0  0  0  0  0
  182.2120  172.0820  135.6180 N   0  0  0  0  0  0  0  0  0  0  0  0
  186.6360  179.0320  136.4590 C   0  0  0  0  0  1  0  0  0  0  0  0
  182.9510  178.9700  141.6660 N   0  0  0  0  0  0  0  0  0  0  0  0
  184.0760  177.8820  139.6920 C   0  0  0  0  0  0  0  0  0  0  0  0
  183.3500  171.3890  135.9060 C   0  0  0  0  0  3  0  0  0  0  0  0
  186.6340  177.6010  136.9660 C   0  0  1  0  0  3  0  0  0  0  0  0
  185.1810  177.8470  138.9340 C   0  0  0  0  0  3  0  0  0  0  0  0
  182.7300  177.3460  139.2120 C   0  0  2  0  0  3  0  0  0  0  0  0
  181.5930  177.5780  140.2280 C   0  0  0  0  0  2  0  0  0  0  0  0
  185.2830  178.8610  141.5040 O   0  0  0  0  0  0  0  0  0  0  0  0
  185.2760  177.2560  137.5650 C   0  0  0  0  0  2  0  0  0  0  0  0
  183.3430  174.1580  135.9420 C   0  0  0  0  0  3  0  0  0  0  0  0
  181.7070  178.9330  140.9100 C   0  0  0  0  0  2  0  0  0  0  0  0
  181.1330  175.7220  137.1960 O   0  0  0  0  0  0  0  0  0  0  0  0
  178.9380  175.2730  136.3820 C   0  0  0  0  0  1  0  0  0  0  0  0
  186.9710  176.6600  135.8150 C   0  0  0  0  0  2  0  0  0  0  0  0
  182.1870  173.4430  135.6270 C   0  0  0  0  0  0  0  0  0  0  0  0
  184.5130  173.4760  136.2580 C   0  0  0  0  0  0  0  0  0  0  0  0
  182.8260  175.8460  138.9090 C   0  0  0  0  0  2  0  0  0  0  0  0
  183.6590  178.5580  143.9700 C   0  0  0  0  0  2  0  0  0  0  0  0
  182.1520  178.6430  143.9550 C   0  0  0  0  0  2  0  0  0  0  0  0
  182.9680  179.5210  143.0190 C   0  0  0  0  0  3  0  0  0  0  0  0
  189.4210  176.5160  136.4080 C   0  0  0  0  0  2  0  0  0  0  0  0
  189.9690  176.1700  137.7870 C   0  0  0  0  0  2  0  0  0  0  0  0
  189.7110  177.2860  138.7970 C   0  0  2  0  0  3  0  0  0  0  0  0
  189.7290  178.5280  138.1610 O   0  0  0  0  0  1  0  0  0  0  0  0
  190.7330  177.2660  139.9300 C   0  0  0  0  0  2  0  0  0  0  0  0
  188.6060  177.5110  141.2510 C   0  0  0  0  0  1  0  0  0  0  0  0
  190.0940  177.2170  141.3170 C   0  0  1  0  0  3  0  0  0  0  0  0
  190.3120  175.9790  141.9240 O   0  0  0  0  0  1  0  0  0  0  0  0
  1 26  1  0  0  0  0
  1  8  1  0  0  0  0
  2  6  1  0  0  0  0
  3 28  1  0  0  0  0
  4 32  1  1  0  0  0
  4  6  1  0  0  0  0
  5 19  2  0  0  0  0
  5 12  1  0  0  0  0
  7 27  1  0  0  0  0
  8 24  1  6  0  0  0
  8 23  1  0  0  0  0
  9  2  1  0  0  0  0
 10 26  2  0  0  0  0
 10 14  1  0  0  0  0
 12 31  1  0  0  0  0
 13  5  1  0  0  0  0
 14  7  2  0  0  0  0
 15 11  1  6  0  0  0
 15 20  1  0  0  0  0
 16 13  2  0  0  0  0
 17 28  1  1  0  0  0
 17 13  1  0  0  0  0
 17 18  1  0  0  0  0
 18 22  1  0  0  0  0
 20 16  1  0  0  0  0
 21 27  2  0  0  0  0
 22 12  1  0  0  0  0
 23  3  1  0  0  0  0
 25  4  1  0  0  0  0
 25 15  1  0  0  0  0
 26 21  1  0  0  0  0
 27  9  1  0  0  0  0
 30 29  1  0  0  0  0
 31 30  1  0  0  0  0
 31 29  1  0  0  0  0
 32 33  1  0  0  0  0
 33 34  1  0  0  0  0
 34 35  1  6  0  0  0
 34 36  1  0  0  0  0
 36 38  1  0  0  0  0
 38 37  1  6  0  0  0
 38 39  1  0  0  0  0
M  END
>  <MODEL>
5

>  <REMARK>
 VINA RESULT:      -5.9      2.527      3.939
  Name = 
  6 active torsions:
  status: ('A' for Active; 'I' for Inactive)
    1  A    between atoms: C_3  and  C_5
    2  A    between atoms: C_3  and  C_35
    3  A    between atoms: C_8  and  C_26
    4  A    between atoms: C_8  and  C_35
    5  A    between atoms: N_16  and  C_38
    6  A    between atoms: C_23  and  C_26
                            x       y       z     vdW  Elec       q    Type
                         _______ _______ _______ _____ _____    ______ ____

>  <TORSDO>
F 6

$$$$
=
 OpenBabel11032420273D

 39 42  0  0  1  0  0  0  0  0999 V2000
  189.0380  178.0720  137.1710 C   0  0  0  0  0  2  0  0  0  0  0  0
  183.9670  178.4570  140.7250 C   0  0  0  0  0  2  0  0  0  0  0  0
  187.3070  175.2320  137.1620 C   0  0  0  0  0  2  0  0  0  0  0  0
  182.0630  179.4120  139.3850 C   0  0  1  0  0  3  0  0  0  0  0  0
  182.8210  173.4040  136.0650 C   0  0  0  0  0  0  0  0  0  0  0  0
  182.5200  178.2720  140.2930 C   0  0  0  0  0  2  0  0  0  0  0  0
  186.9070  178.4690  140.8460 C   0  0  0  0  0  3  0  0  0  0  0  0
  188.9640  176.6230  136.6970 C   0  0  1  0  0  3  0  0  0  0  0  0
  184.8090  178.3030  139.5920 O   0  0  0  0  0  0  0  0  0  0  0  0
  188.9640  178.3590  139.6290 N   0  0  0  0  0  0  0  0  0  0  0  0
  181.5690  178.4360  135.9040 C   0  0  0  0  0  1  0  0  0  0  0  0
  183.4770  172.3780  135.3060 N   0  0  0  0  0  0  0  0  0  0  0  0
  183.5430  174.6650  136.3600 C   0  0  0  0  0  0  0  0  0  0  0  0
  188.3060  178.4720  140.8170 C   0  0  0  0  0  3  0  0  0  0  0  0
  182.1810  178.0460  137.2370 C   0  0  1  0  0  3  0  0  0  0  0  0
  182.8160  175.7200  136.7510 C   0  0  0  0  0  3  0  0  0  0  0  0
  185.0430  174.7530  136.0910 C   0  0  2  0  0  3  0  0  0  0  0  0
  185.6390  173.4280  135.5690 C   0  0  0  0  0  2  0  0  0  0  0  0
  181.6320  173.2400  136.4580 O   0  0  0  0  0  0  0  0  0  0  0  0
  183.3480  177.0900  137.0210 C   0  0  0  0  0  2  0  0  0  0  0  0
  186.8970  178.2550  138.4420 C   0  0  0  0  0  3  0  0  0  0  0  0
  184.7020  172.7260  134.5990 C   0  0  0  0  0  2  0  0  0  0  0  0
  187.6540  176.2960  136.3220 O   0  0  0  0  0  0  0  0  0  0  0  0
  189.8910  176.4410  135.5120 C   0  0  0  0  0  1  0  0  0  0  0  0
  182.6400  179.3030  137.9650 C   0  0  0  0  0  2  0  0  0  0  0  0
  188.2920  178.2540  138.4500 C   0  0  0  0  0  0  0  0  0  0  0  0
  186.1990  178.3500  139.6410 C   0  0  0  0  0  0  0  0  0  0  0  0
  185.7940  175.1660  137.3620 C   0  0  0  0  0  2  0  0  0  0  0  0
  183.2230  170.1530  136.2900 C   0  0  0  0  0  2  0  0  0  0  0  0
  183.9590  170.0010  134.9810 C   0  0  0  0  0  2  0  0  0  0  0  0
  182.8750  171.0590  135.1200 C   0  0  0  0  0  3  0  0  0  0  0  0
  180.5430  179.4840  139.3590 C   0  0  0  0  0  2  0  0  0  0  0  0
  180.0800  180.9000  139.6780 C   0  0  0  0  0  2  0  0  0  0  0  0
  179.8640  181.7260  138.4120 C   0  0  2  0  0  3  0  0  0  0  0  0
  179.4940  180.8970  137.3510 O   0  0  0  0  0  1  0  0  0  0  0  0
  181.1130  182.5210  138.0390 C   0  0  0  0  0  2  0  0  0  0  0  0
  179.6090  184.5340  137.8860 C   0  0  0  0  0  1  0  0  0  0  0  0
  180.8000  183.8110  137.2820 C   0  0  1  0  0  3  0  0  0  0  0  0
  181.9110  184.6560  137.2550 O   0  0  0  0  0  1  0  0  0  0  0  0
  1 26  1  0  0  0  0
  3 28  1  0  0  0  0
  4 32  1  6  0  0  0
  4  6  1  0  0  0  0
  5 13  1  0  0  0  0
  5 19  2  0  0  0  0
  6  2  1  0  0  0  0
  8 24  1  6  0  0  0
  8  1  1  0  0  0  0
  9 27  1  0  0  0  0
  9  2  1  0  0  0  0
 10 14  2  0  0  0  0
 12  5  1  0  0  0  0
 13 16  2  0  0  0  0
 14  7  1  0  0  0  0
 15 11  1  6  0  0  0
 15 25  1  0  0  0  0
 16 20  1  0  0  0  0
 17 18  1  1  0  0  0
 17 13  1  0  0  0  0
 17 28  1  0  0  0  0
 20 15  1  0  0  0  0
 21 26  2  0  0  0  0
 21 27  1  0  0  0  0
 22 12  1  0  0  0  0
 22 18  1  0  0  0  0
 23  8  1  0  0  0  0
 23  3  1  0  0  0  0
 25  4  1  0  0  0  0
 26 10  1  0  0  0  0
 27  7  2  0  0  0  0
 30 31  1  0  0  0  0
 30 29  1  0  0  0  0
 31 12  1  0  0  0  0
 31 29  1  0  0  0  0
 32 33  1  0  0  0  0
 34 35  1  6  0  0  0
 34 33  1  0  0  0  0
 36 34  1  0  0  0  0
 38 37  1  1  0  0  0
 38 36  1  0  0  0  0
 39 38  1  0  0  0  0
M  END
>  <MODEL>
6

>  <REMARK>
 VINA RESULT:      -5.8      3.015      9.535
  Name = 
  6 active torsions:
  status: ('A' for Active; 'I' for Inactive)
    1  A    between atoms: C_3  and  C_5
    2  A    between atoms: C_3  and  C_35
    3  A    between atoms: C_8  and  C_26
    4  A    between atoms: C_8  and  C_35
    5  A    between atoms: N_16  and  C_38
    6  A    between atoms: C_23  and  C_26
                            x       y       z     vdW  Elec       q    Type
                         _______ _______ _______ _____ _____    ______ ____

>  <TORSDO>
F 6

$$$$
=
 OpenBabel11032420273D

 39 42  0  0  1  0  0  0  0  0999 V2000
  187.3070  171.7350  135.6780 C   0  0  0  0  0  2  0  0  0  0  0  0
  187.1790  177.7880  137.0310 C   0  0  0  0  0  2  0  0  0  0  0  0
  190.0640  173.2860  134.6530 C   0  0  0  0  0  2  0  0  0  0  0  0
  188.0540  178.1550  139.3600 C   0  0  1  0  0  3  0  0  0  0  0  0
  193.8750  175.9860  136.3420 C   0  0  0  0  0  0  0  0  0  0  0  0
  188.1640  178.5630  137.8930 C   0  0  0  0  0  2  0  0  0  0  0  0
  185.8610  175.7380  135.3810 C   0  0  0  0  0  3  0  0  0  0  0  0
  188.6350  171.6200  134.9360 C   0  0  1  0  0  3  0  0  0  0  0  0
  187.5690  176.4230  136.9990 O   0  0  0  0  0  0  0  0  0  0  0  0
  185.7540  173.4300  134.7590 N   0  0  0  0  0  0  0  0  0  0  0  0
  190.9120  176.2480  140.5920 C   0  0  0  0  0  1  0  0  0  0  0  0
  194.7550  175.1040  135.6300 N   0  0  0  0  0  0  0  0  0  0  0  0
  192.5070  175.5290  136.6850 C   0  0  0  0  0  0  0  0  0  0  0  0
  185.2850  174.7030  134.6360 C   0  0  0  0  0  3  0  0  0  0  0  0
  190.1830  176.7530  139.3600 C   0  0  1  0  0  3  0  0  0  0  0  0
  191.8430  176.2100  137.6290 C   0  0  0  0  0  3  0  0  0  0  0  0
  191.9620  174.2490  136.0560 C   0  0  2  0  0  3  0  0  0  0  0  0
  192.9460  173.6030  135.0590 C   0  0  0  0  0  2  0  0  0  0  0  0
  194.2730  177.1340  136.6890 O   0  0  0  0  0  0  0  0  0  0  0  0
  190.4920  175.8620  138.1630 C   0  0  0  0  0  2  0  0  0  0  0  0
  187.3670  174.1320  136.3710 C   0  0  0  0  0  3  0  0  0  0  0  0
  194.3870  173.6970  135.5380 C   0  0  0  0  0  2  0  0  0  0  0  0
  189.6310  172.3490  135.5980 O   0  0  0  0  0  0  0  0  0  0  0  0
  189.0390  170.1600  134.8630 C   0  0  0  0  0  1  0  0  0  0  0  0
  188.6850  176.7820  139.6390 C   0  0  0  0  0  2  0  0  0  0  0  0
  186.7740  173.1260  135.6080 C   0  0  0  0  0  0  0  0  0  0  0  0
  186.9210  175.4440  136.2520 C   0  0  0  0  0  0  0  0  0  0  0  0
  190.6380  174.5260  135.3360 C   0  0  0  0  0  2  0  0  0  0  0  0
  196.9200  174.3580  134.7720 C   0  0  0  0  0  2  0  0  0  0  0  0
  197.1630  175.0990  136.0650 C   0  0  0  0  0  2  0  0  0  0  0  0
  196.0520  175.5530  135.1300 C   0  0  0  0  0  3  0  0  0  0  0  0
  188.6600  179.2310  140.2500 C   0  0  0  0  0  2  0  0  0  0  0  0
  188.1850  179.0520  141.6860 C   0  0  0  0  0  2  0  0  0  0  0  0
  186.7390  178.5640  141.7490 C   0  0  2  0  0  3  0  0  0  0  0  0
  185.8610  179.6490  141.7250 O   0  0  0  0  0  1  0  0  0  0  0  0
  186.4850  177.7180  142.9940 C   0  0  0  0  0  2  0  0  0  0  0  0
  187.7170  177.2690  145.1420 C   0  0  0  0  0  1  0  0  0  0  0  0
  187.7670  177.1790  143.6270 C   0  0  1  0  0  3  0  0  0  0  0  0
  188.0030  175.8610  143.2330 O   0  0  0  0  0  1  0  0  0  0  0  0
  2  6  1  0  0  0  0
  3 28  1  0  0  0  0
  3 23  1  0  0  0  0
  4 25  1  0  0  0  0
  4 32  1  1  0  0  0
  5 13  1  0  0  0  0
  5 19  2  0  0  0  0
  6  4  1  0  0  0  0
  7 27  1  0  0  0  0
  8 24  1  1  0  0  0
  8 23  1  0  0  0  0
  8  1  1  0  0  0  0
  9  2  1  0  0  0  0
 10 26  2  0  0  0  0
 12  5  1  0  0  0  0
 13 16  2  0  0  0  0
 14 10  1  0  0  0  0
 14  7  2  0  0  0  0
 15 25  1  0  0  0  0
 15 11  1  1  0  0  0
 16 20  1  0  0  0  0
 17 18  1  6  0  0  0
 17 13  1  0  0  0  0
 18 22  1  0  0  0  0
 20 15  1  0  0  0  0
 22 12  1  0  0  0  0
 26  1  1  0  0  0  0
 26 21  1  0  0  0  0
 27 21  2  0  0  0  0
 27  9  1  0  0  0  0
 28 17  1  0  0  0  0
 29 31  1  0  0  0  0
 29 30  1  0  0  0  0
 31 12  1  0  0  0  0
 31 30  1  0  0  0  0
 32 33  1  0  0  0  0
 33 34  1  0  0  0  0
 34 35  1  1  0  0  0
 34 36  1  0  0  0  0
 36 38  1  0  0  0  0
 38 37  1  1  0  0  0
 39 38  1  0  0  0  0
M  END
>  <MODEL>
7

>  <REMARK>
 VINA RESULT:      -5.5      3.551      8.980
  Name = 
  6 active torsions:
  status: ('A' for Active; 'I' for Inactive)
    1  A    between atoms: C_3  and  C_5
    2  A    between atoms: C_3  and  C_35
    3  A    between atoms: C_8  and  C_26
    4  A    between atoms: C_8  and  C_35
    5  A    between atoms: N_16  and  C_38
    6  A    between atoms: C_23  and  C_26
                            x       y       z     vdW  Elec       q    Type
                         _______ _______ _______ _____ _____    ______ ____

>  <TORSDO>
F 6

$$$$
=
 OpenBabel11032420273D

 39 42  0  0  1  0  0  0  0  0999 V2000
  180.4830  176.6730  140.4480 C   0  0  0  0  0  2  0  0  0  0  0  0
  183.7690  180.2270  144.3290 C   0  0  0  0  0  2  0  0  0  0  0  0
  183.0270  178.1580  138.9050 C   0  0  0  0  0  2  0  0  0  0  0  0
  185.5170  178.8330  145.4820 C   0  0  1  0  0  3  0  0  0  0  0  0
  187.9770  178.5450  139.0350 C   0  0  0  0  0  0  0  0  0  0  0  0
  185.2450  180.0990  144.6730 C   0  0  0  0  0  2  0  0  0  0  0  0
  181.1260  179.9860  143.0580 C   0  0  0  0  0  3  0  0  0  0  0  0
  181.2060  176.9210  139.1270 C   0  0  1  0  0  3  0  0  0  0  0  0
  183.4180  179.1990  143.4140 O   0  0  0  0  0  0  0  0  0  0  0  0
  179.7090  178.7200  141.6030 N   0  0  0  0  0  0  0  0  0  0  0  0
  187.3460  176.2610  143.6500 C   0  0  0  0  0  1  0  0  0  0  0  0
  187.9890  178.2650  137.6280 N   0  0  0  0  0  0  0  0  0  0  0  0
  186.8010  178.1480  139.8460 C   0  0  0  0  0  0  0  0  0  0  0  0
  179.8950  179.7950  142.4200 C   0  0  0  0  0  3  0  0  0  0  0  0
  186.5420  177.5440  143.5370 C   0  0  1  0  0  3  0  0  0  0  0  0
  186.9530  178.0980  141.1770 C   0  0  0  0  0  3  0  0  0  0  0  0
  185.5230  177.6950  139.1450 C   0  0  2  0  0  3  0  0  0  0  0  0
  185.6230  177.7670  137.6080 C   0  0  0  0  0  2  0  0  0  0  0  0
  188.9700  179.1060  139.5780 O   0  0  0  0  0  0  0  0  0  0  0  0
  185.9140  177.6510  142.1530 C   0  0  0  0  0  2  0  0  0  0  0  0
  181.9320  177.9620  142.0200 C   0  0  0  0  0  3  0  0  0  0  0  0
  186.9930  177.3390  137.1050 C   0  0  0  0  0  2  0  0  0  0  0  0
  182.5940  176.8920  139.3140 O   0  0  0  0  0  0  0  0  0  0  0  0
  180.8050  175.8500  138.1320 C   0  0  0  0  0  1  0  0  0  0  0  0
  185.4710  177.5610  144.6200 C   0  0  0  0  0  2  0  0  0  0  0  0
  180.6950  177.8050  141.3940 C   0  0  0  0  0  0  0  0  0  0  0  0
  182.1560  179.0580  142.8450 C   0  0  0  0  0  0  0  0  0  0  0  0
  184.3300  178.5410  139.6040 C   0  0  0  0  0  2  0  0  0  0  0  0
  189.0600  177.9980  135.4460 C   0  0  0  0  0  2  0  0  0  0  0  0
  190.0880  177.6890  136.5080 C   0  0  0  0  0  2  0  0  0  0  0  0
  189.0460  178.7700  136.7550 C   0  0  0  0  0  3  0  0  0  0  0  0
  186.8450  178.9540  146.2150 C   0  0  0  0  0  2  0  0  0  0  0  0
  187.0530  177.7500  147.1250 C   0  0  0  0  0  2  0  0  0  0  0  0
  188.5330  177.5040  147.4120 C   0  0  2  0  0  3  0  0  0  0  0  0
  188.9310  178.2170  148.5440 O   0  0  0  0  0  1  0  0  0  0  0  0
  189.4080  177.8880  146.2220 C   0  0  0  0  0  2  0  0  0  0  0  0
  191.0150  176.9530  144.5260 C   0  0  0  0  0  1  0  0  0  0  0  0
  190.5480  176.9010  145.9700 C   0  0  1  0  0  3  0  0  0  0  0  0
  191.6190  177.1460  146.8300 O   0  0  0  0  0  1  0  0  0  0  0  0
  1 26  1  0  0  0  0
  2  6  1  0  0  0  0
  3 23  1  0  0  0  0
  3 28  1  0  0  0  0
  4 32  1  6  0  0  0
  5 19  2  0  0  0  0
  5 13  1  0  0  0  0
  6  4  1  0  0  0  0
  8 24  1  6  0  0  0
  8 23  1  0  0  0  0
  8  1  1  0  0  0  0
  9  2  1  0  0  0  0
 10 14  1  0  0  0  0
 12  5  1  0  0  0  0
 13 16  2  0  0  0  0
 14  7  2  0  0  0  0
 15 11  1  6  0  0  0
 15 25  1  0  0  0  0
 16 20  1  0  0  0  0
 17 18  1  6  0  0  0
 17 28  1  0  0  0  0
 17 13  1  0  0  0  0
 20 15  1  0  0  0  0
 21 27  2  0  0  0  0
 22 18  1  0  0  0  0
 22 12  1  0  0  0  0
 25  4  1  0  0  0  0
 26 10  2  0  0  0  0
 26 21  1  0  0  0  0
 27  7  1  0  0  0  0
 27  9  1  0  0  0  0
 29 30  1  0  0  0  0
 29 31  1  0  0  0  0
 30 31  1  0  0  0  0
 31 12  1  0  0  0  0
 32 33  1  0  0  0  0
 33 34  1  0  0  0  0
 34 35  1  1  0  0  0
 36 34  1  0  0  0  0
 38 37  1  6  0  0  0
 38 36  1  0  0  0  0
 38 39  1  0  0  0  0
M  END
>  <MODEL>
8

>  <REMARK>
 VINA RESULT:      -5.5      2.802      7.124
  Name = 
  6 active torsions:
  status: ('A' for Active; 'I' for Inactive)
    1  A    between atoms: C_3  and  C_5
    2  A    between atoms: C_3  and  C_35
    3  A    between atoms: C_8  and  C_26
    4  A    between atoms: C_8  and  C_35
    5  A    between atoms: N_16  and  C_38
    6  A    between atoms: C_23  and  C_26
                            x       y       z     vdW  Elec       q    Type
                         _______ _______ _______ _____ _____    ______ ____

>  <TORSDO>
F 6

$$$$
=
 OpenBabel11032420273D

 39 42  0  0  1  0  0  0  0  0999 V2000
  189.7750  177.9150  136.8930 C   0  0  0  0  0  2  0  0  0  0  0  0
  185.2950  178.2330  141.1720 C   0  0  0  0  0  2  0  0  0  0  0  0
  187.9050  175.1660  136.9260 C   0  0  0  0  0  2  0  0  0  0  0  0
  183.2760  179.3790  140.2020 C   0  0  1  0  0  3  0  0  0  0  0  0
  183.2120  173.6360  136.3670 C   0  0  0  0  0  0  0  0  0  0  0  0
  183.7930  178.1490  140.9450 C   0  0  0  0  0  2  0  0  0  0  0  0
  188.2180  178.1030  140.8600 C   0  0  0  0  0  3  0  0  0  0  0  0
  189.5530  176.5150  136.3270 C   0  0  1  0  0  3  0  0  0  0  0  0
  185.9560  178.1350  139.9190 O   0  0  0  0  0  0  0  0  0  0  0  0
  190.0700  178.0020  139.3490 N   0  0  0  0  0  0  0  0  0  0  0  0
  182.2350  178.7150  136.7680 C   0  0  0  0  0  1  0  0  0  0  0  0
  183.6940  172.6470  135.4450 N   0  0  0  0  0  0  0  0  0  0  0  0
  184.0390  174.8350  136.6460 C   0  0  0  0  0  0  0  0  0  0  0  0
  189.5960  178.0460  140.6250 C   0  0  0  0  0  3  0  0  0  0  0  0
  183.0080  178.1900  137.9640 C   0  0  1  0  0  3  0  0  0  0  0  0
  183.4360  175.8860  137.2170 C   0  0  0  0  0  3  0  0  0  0  0  0
  185.4880  174.8770  136.1670 C   0  0  2  0  0  3  0  0  0  0  0  0
  185.9270  173.5750  135.4650 C   0  0  0  0  0  2  0  0  0  0  0  0
  182.0840  173.4930  136.9170 O   0  0  0  0  0  0  0  0  0  0  0  0
  184.0770  177.2040  137.5070 C   0  0  0  0  0  2  0  0  0  0  0  0
  187.8520  178.0880  138.4750 C   0  0  0  0  0  3  0  0  0  0  0  0
  184.8230  172.9970  134.5940 C   0  0  0  0  0  2  0  0  0  0  0  0
  188.1870  176.2780  136.1260 O   0  0  0  0  0  0  0  0  0  0  0  0
  190.2900  176.3890  135.0080 C   0  0  0  0  0  1  0  0  0  0  0  0
  183.6370  179.3610  138.7090 C   0  0  0  0  0  2  0  0  0  0  0  0
  189.2320  178.0250  138.2770 C   0  0  0  0  0  0  0  0  0  0  0  0
  187.3390  178.1160  139.7670 C   0  0  0  0  0  0  0  0  0  0  0  0
  186.4340  175.1510  137.3400 C   0  0  0  0  0  2  0  0  0  0  0  0
  182.9320  170.6100  136.5620 C   0  0  0  0  0  2  0  0  0  0  0  0
  183.9440  170.2140  135.5130 C   0  0  0  0  0  2  0  0  0  0  0  0
  182.9990  171.3770  135.2510 C   0  0  0  0  0  3  0  0  0  0  0  0
  181.7740  179.5210  140.4050 C   0  0  0  0  0  2  0  0  0  0  0  0
  181.2260  178.3020  141.1360 C   0  0  0  0  0  2  0  0  0  0  0  0
  179.7600  178.0460  140.7950 C   0  0  2  0  0  3  0  0  0  0  0  0
  178.9310  178.6280  141.7560 O   0  0  0  0  0  1  0  0  0  0  0  0
  179.4600  176.5540  140.6850 C   0  0  0  0  0  2  0  0  0  0  0  0
  179.1490  177.2450  138.2850 C   0  0  0  0  0  1  0  0  0  0  0  0
  178.9310  176.1460  139.3100 C   0  0  1  0  0  3  0  0  0  0  0  0
  179.5270  174.9610  138.8770 O   0  0  0  0  0  1  0  0  0  0  0  0
  1 26  1  0  0  0  0
  3 28  1  0  0  0  0
  4 32  1  6  0  0  0
  4  6  1  0  0  0  0
  5 13  1  0  0  0  0
  5 19  2  0  0  0  0
  6  2  1  0  0  0  0
  8 24  1  6  0  0  0
  8  1  1  0  0  0  0
  9  2  1  0  0  0  0
 10 14  2  0  0  0  0
 12  5  1  0  0  0  0
 13 16  2  0  0  0  0
 14  7  1  0  0  0  0
 15 11  1  6  0  0  0
 15 25  1  0  0  0  0
 16 20  1  0  0  0  0
 17 18  1  1  0  0  0
 17 13  1  0  0  0  0
 17 28  1  0  0  0  0
 20 15  1  0  0  0  0
 21 27  1  0  0  0  0
 22 12  1  0  0  0  0
 22 18  1  0  0  0  0
 23  8  1  0  0  0  0
 23  3  1  0  0  0  0
 25  4  1  0  0  0  0
 26 21  2  0  0  0  0
 26 10  1  0  0  0  0
 27  9  1  0  0  0  0
 27  7  2  0  0  0  0
 30 29  1  0  0  0  0
 31 12  1  0  0  0  0
 31 30  1  0  0  0  0
 31 29  1  0  0  0  0
 32 33  1  0  0  0  0
 34 33  1  0  0  0  0
 34 35  1  1  0  0  0
 36 34  1  0  0  0  0
 38 37  1  6  0  0  0
 38 36  1  0  0  0  0
 39 38  1  0  0  0  0
M  END
>  <MODEL>
9

>  <REMARK>
 VINA RESULT:      -5.1      3.007      9.332
  Name = 
  6 active torsions:
  status: ('A' for Active; 'I' for Inactive)
    1  A    between atoms: C_3  and  C_5
    2  A    between atoms: C_3  and  C_35
    3  A    between atoms: C_8  and  C_26
    4  A    between atoms: C_8  and  C_35
    5  A    between atoms: N_16  and  C_38
    6  A    between atoms: C_23  and  C_26
                            x       y       z     vdW  Elec       q    Type
                         _______ _______ _______ _____ _____    ______ ____

>  <TORSDO>
F 6

$$$$
