=
 OpenBabel11032419373D

 49 54  0  0  1  0  0  0  0  0999 V2000
  188.8740  177.8360  140.2790 C   0  0  2  0  0  3  0  0  0  0  0  0
  190.2980  177.6920  139.7380 C   0  0  0  0  0  2  0  0  0  0  0  0
  189.2890  176.5700  137.7450 C   0  0  0  0  0  3  0  0  0  0  0  0
  190.3800  176.8730  138.4700 C   0  0  0  0  0  0  0  0  0  0  0  0
  187.9040  178.1120  139.1350 C   0  0  0  0  0  2  0  0  0  0  0  0
  187.8870  176.9070  138.1930 C   0  0  1  0  0  3  0  0  0  0  0  0
  184.3510  176.2650  135.7850 C   0  0  2  0  0  3  0  0  0  0  0  0
  185.6260  177.7650  137.3610 C   0  0  0  0  0  2  0  0  0  0  0  0
  185.7160  175.9780  135.1320 C   0  0  0  0  0  2  0  0  0  0  0  0
  186.8360  175.8480  136.1590 C   0  0  0  0  0  2  0  0  0  0  0  0
  186.9870  177.1440  136.9750 C   0  0  2  0  0  3  0  0  0  0  0  0
  184.4660  176.7840  137.2210 C   0  0  0  0  0  2  0  0  0  0  0  0
  183.4690  175.0220  135.7820 C   0  0  0  0  0  2  0  0  0  0  0  0
  184.0510  173.3120  137.3640 O   0  0  0  0  0  1  0  0  0  0  0  0
  183.2670  174.4530  137.1890 C   0  0  2  0  0  3  0  0  0  0  0  0
  181.8040  174.1150  137.4630 C   0  0  1  0  0  3  0  0  0  0  0  0
  181.1470  175.1780  138.3260 C   0  0  0  0  0  1  0  0  0  0  0  0
  181.0980  173.9710  136.2690 O   0  0  0  0  0  1  0  0  0  0  0  0
  188.8310  178.8900  141.1900 O   0  0  0  0  0  0  0  0  0  0  0  0
  190.4680  178.5230  142.7620 O   0  0  0  0  0  1  0  0  0  0  0  0
  189.1330  178.3170  142.4260 C   0  0  2  0  0  3  0  0  0  0  0  0
  186.8830  177.6910  144.3600 C   0  0  0  0  0  0  0  0  0  0  0  0
  187.4700  176.5400  143.5540 C   0  0  2  0  0  3  0  0  0  0  0  0
  187.3590  177.9670  145.5830 C   0  0  0  0  0  3  0  0  0  0  0  0
  188.8950  176.1050  143.9490 C   0  0  1  0  0  3  0  0  0  0  0  0
  188.4780  177.1840  146.1780 C   0  0  0  0  0  2  0  0  0  0  0  0
  188.6560  176.8470  142.6190 C   0  0  2  0  0  3  0  0  0  0  0  0
  189.5100  176.9060  145.1040 C   0  0  0  0  0  2  0  0  0  0  0  0
  183.1160  178.5790  142.1010 N   0  0  0  0  0  0  0  0  0  0  0  0
  183.6320  179.7640  144.2810 C   0  0  0  0  0  2  0  0  0  0  0  0
  181.5900  178.6370  143.8720 O   0  0  0  0  0  0  0  0  0  0  0  0
  184.4630  178.6590  141.6160 C   0  0  0  0  0  3  0  0  0  0  0  0
  185.6900  178.4120  143.8320 C   0  0  0  0  0  0  0  0  0  0  0  0
  182.7230  178.9580  143.4260 C   0  0  0  0  0  0  0  0  0  0  0  0
  184.8050  178.9440  144.6880 C   0  0  0  0  0  3  0  0  0  0  0  0
  185.5730  178.5790  142.3640 C   0  0  0  0  0  3  0  0  0  0  0  0
  182.6640  178.0450  139.8800 O   0  0  0  0  0  1  0  0  0  0  0  0
  182.0960  178.1820  141.1460 C   0  0  0  0  0  2  0  0  0  0  0  0
  191.7350  176.5330  137.9330 C   0  0  0  0  0  2  0  0  0  0  0  0
  193.7450  174.6480  136.0810 C   0  0  2  0  0  3  0  0  0  0  0  0
  192.5530  175.5260  135.8070 C   0  0  0  0  0  2  0  0  0  0  0  0
  193.5500  174.0430  137.3920 N   0  0  0  0  0  2  0  0  0  0  0  0
  192.1800  174.1470  137.7040 N   0  0  0  0  0  2  0  0  0  0  0  0
  191.6690  175.3190  137.0090 C   0  0  1  0  0  3  0  0  0  0  0  0
  194.9980  175.4610  136.0590 C   0  0  0  0  0  0  0  0  0  0  0  0
  195.1160  176.7060  134.9950 S   0  0  0  0  0  0  0  0  0  0  0  0
  196.0090  175.2400  137.0470 N   0  0  0  0  0  2  0  0  0  0  0  0
  198.1310  174.5070  137.4760 C   0  0  0  0  0  1  0  0  0  0  0  0
  197.3570  175.5330  136.8060 N   0  0  0  0  0  2  0  0  0  0  0  0
  1 19  1  1  0  0  0
  2  1  1  0  0  0  0
  3  4  2  0  0  0  0
  4  2  1  0  0  0  0
  5  1  1  0  0  0  0
  6  3  1  6  0  0  0
  6  5  1  0  0  0  0
  7 13  1  1  0  0  0
  7 12  1  0  0  0  0
  9  7  1  0  0  0  0
  9 10  1  0  0  0  0
 11 10  1  1  0  0  0
 11  8  1  0  0  0  0
 11  6  1  0  0  0  0
 12  8  1  0  0  0  0
 13 15  1  0  0  0  0
 15 14  1  6  0  0  0
 15 16  1  0  0  0  0
 16 17  1  1  0  0  0
 18 16  1  0  0  0  0
 19 21  1  0  0  0  0
 21 20  1  6  0  0  0
 22 24  2  0  0  0  0
 23 25  1  0  0  0  0
 23 22  1  1  0  0  0
 24 26  1  0  0  0  0
 25 28  1  1  0  0  0
 27 21  1  1  0  0  0
 27 23  1  0  0  0  0
 27 25  1  0  0  0  0
 28 26  1  0  0  0  0
 29 34  1  0  0  0  0
 30 35  1  0  0  0  0
 32 29  1  0  0  0  0
 32 36  2  0  0  0  0
 33 22  1  0  0  0  0
 33 35  2  0  0  0  0
 34 31  2  0  0  0  0
 34 30  1  0  0  0  0
 36 33  1  0  0  0  0
 37 38  1  0  0  0  0
 38 29  1  0  0  0  0
 39  4  1  0  0  0  0
 40 45  1  1  0  0  0
 40 42  1  0  0  0  0
 41 40  1  0  0  0  0
 41 44  1  0  0  0  0
 42 43  1  0  0  0  0
 44 43  1  0  0  0  0
 44 39  1  1  0  0  0
 45 47  1  0  0  0  0
 46 45  2  0  0  0  0
 49 47  1  0  0  0  0
 49 48  1  0  0  0  0
M  END
>  <MODEL>
1

>  <REMARK>
 VINA RESULT:      -8.4      0.000      0.000
  Name = 
  14 active torsions:
  status: ('A' for Active; 'I' for Inactive)
    1  A    between atoms: C_1  and  O_22
    2  A    between atoms: C_3  and  C_9
    3  A    between atoms: C_4  and  C_47
    4  A    between atoms: C_5  and  C_28
    5  A    between atoms: C_8  and  C_18
    6  A    between atoms: C_9  and  N_48
    7  A    between atoms: N_12  and  C_42
    8  A    between atoms: C_15  and  C_25
    9  A    between atoms: C_18  and  C_47
   10  A    between atoms: O_22  and  C_38
   11  A    between atoms: C_25  and  C_45
   12  A    between atoms: C_34  and  C_49
   13  A    between atoms: C_37  and  C_38
   14  A    between atoms: N_41  and  N_48
                            x       y       z     vdW  Elec       q    Type
                         _______ _______ _______ _____ _____    ______ ____

>  <TORSDO>
F 14

$$$$
=
 OpenBabel11032419373D

 49 54  0  0  1  0  0  0  0  0999 V2000
  187.0930  177.7880  138.3060 C   0  0  2  0  0  3  0  0  0  0  0  0
  187.6730  178.1980  139.6610 C   0  0  0  0  0  2  0  0  0  0  0  0
  189.6820  176.8340  139.0670 C   0  0  0  0  0  3  0  0  0  0  0  0
  188.9730  177.5020  139.9940 C   0  0  0  0  0  0  0  0  0  0  0  0
  188.2000  177.7150  137.2620 C   0  0  0  0  0  2  0  0  0  0  0  0
  189.1880  176.6160  137.6570 C   0  0  1  0  0  3  0  0  0  0  0  0
  192.6770  174.7300  135.9300 C   0  0  2  0  0  3  0  0  0  0  0  0
  190.2440  175.3530  135.7000 C   0  0  0  0  0  2  0  0  0  0  0  0
  192.8600  176.1260  136.5530 C   0  0  0  0  0  2  0  0  0  0  0  0
  191.7000  176.5120  137.4650 C   0  0  0  0  0  2  0  0  0  0  0  0
  190.3730  176.5330  136.6880 C   0  0  2  0  0  3  0  0  0  0  0  0
  191.2320  174.2270  135.9900 C   0  0  0  0  0  2  0  0  0  0  0  0
  193.5810  173.7040  136.6030 C   0  0  0  0  0  2  0  0  0  0  0  0
  195.8210  174.5550  136.4480 O   0  0  0  0  0  1  0  0  0  0  0  0
  194.7580  174.3600  137.3310 C   0  0  2  0  0  3  0  0  0  0  0  0
  195.2270  173.5270  138.5210 C   0  0  1  0  0  3  0  0  0  0  0  0
  195.3980  172.0680  138.1370 C   0  0  0  0  0  1  0  0  0  0  0  0
  196.4240  174.0260  139.0330 O   0  0  0  0  0  1  0  0  0  0  0  0
  186.1410  178.7270  137.9100 O   0  0  0  0  0  0  0  0  0  0  0  0
  184.5640  177.0720  137.6600 O   0  0  0  0  0  1  0  0  0  0  0  0
  184.9210  178.2220  138.3600 C   0  0  2  0  0  3  0  0  0  0  0  0
  183.1750  178.2570  140.8400 C   0  0  0  0  0  0  0  0  0  0  0  0
  182.9260  179.3200  139.7780 C   0  0  2  0  0  3  0  0  0  0  0  0
  182.4810  177.1090  140.8200 C   0  0  0  0  0  3  0  0  0  0  0  0
  182.2930  178.8180  138.4650 C   0  0  1  0  0  3  0  0  0  0  0  0
  181.4720  176.8290  139.7600 C   0  0  0  0  0  2  0  0  0  0  0  0
  183.7690  179.2620  138.4900 C   0  0  2  0  0  3  0  0  0  0  0  0
  182.0100  177.3100  138.4280 C   0  0  0  0  0  2  0  0  0  0  0  0
  184.8560  178.5510  144.9830 N   0  0  0  0  0  0  0  0  0  0  0  0
  186.3870  178.4220  142.9680 C   0  0  0  0  0  2  0  0  0  0  0  0
  186.5760  176.9740  144.8320 O   0  0  0  0  0  0  0  0  0  0  0  0
  183.9270  179.4440  144.3530 C   0  0  0  0  0  3  0  0  0  0  0  0
  184.0950  178.5640  141.9710 C   0  0  0  0  0  0  0  0  0  0  0  0
  185.9510  177.9290  144.3000 C   0  0  0  0  0  0  0  0  0  0  0  0
  185.3540  178.1030  141.9460 C   0  0  0  0  0  3  0  0  0  0  0  0
  183.5940  179.4430  143.0550 C   0  0  0  0  0  3  0  0  0  0  0  0
  185.5570  179.2440  147.0930 O   0  0  0  0  0  1  0  0  0  0  0  0
  184.7160  178.3610  146.4170 C   0  0  0  0  0  2  0  0  0  0  0  0
  189.5560  177.7030  141.3570 C   0  0  0  0  0  2  0  0  0  0  0  0
  191.6050  176.7810  143.8020 C   0  0  2  0  0  3  0  0  0  0  0  0
  191.7780  177.4060  142.4440 C   0  0  0  0  0  2  0  0  0  0  0  0
  190.4690  175.8710  143.7230 N   0  0  0  0  0  2  0  0  0  0  0  0
  190.2490  175.5920  142.3610 N   0  0  0  0  0  2  0  0  0  0  0  0
  190.7170  176.7430  141.6040 C   0  0  1  0  0  3  0  0  0  0  0  0
  191.3580  177.8400  144.8280 C   0  0  0  0  0  0  0  0  0  0  0  0
  191.6140  179.4100  144.4220 S   0  0  0  0  0  0  0  0  0  0  0  0
  190.7760  177.4910  146.0870 N   0  0  0  0  0  2  0  0  0  0  0  0
  189.0390  176.9180  147.4580 C   0  0  0  0  0  1  0  0  0  0  0  0
  189.4560  177.8300  146.4110 N   0  0  0  0  0  2  0  0  0  0  0  0
  1 19  1  6  0  0  0
  1  2  1  0  0  0  0
  2  4  1  0  0  0  0
  3  4  2  0  0  0  0
  4 39  1  0  0  0  0
  5  1  1  0  0  0  0
  6  5  1  6  0  0  0
  6  3  1  0  0  0  0
  7 12  1  0  0  0  0
  7  9  1  0  0  0  0
  7 13  1  1  0  0  0
  8 12  1  0  0  0  0
  9 10  1  0  0  0  0
 11  8  1  1  0  0  0
 11 10  1  0  0  0  0
 11  6  1  0  0  0  0
 13 15  1  0  0  0  0
 15 14  1  6  0  0  0
 15 16  1  0  0  0  0
 16 17  1  6  0  0  0
 16 18  1  0  0  0  0
 19 21  1  0  0  0  0
 21 20  1  6  0  0  0
 22 33  1  0  0  0  0
 23 22  1  1  0  0  0
 24 22  2  0  0  0  0
 25 28  1  1  0  0  0
 25 27  1  0  0  0  0
 25 23  1  0  0  0  0
 26 24  1  0  0  0  0
 27 21  1  1  0  0  0
 27 23  1  0  0  0  0
 28 26  1  0  0  0  0
 29 38  1  0  0  0  0
 30 34  1  0  0  0  0
 32 29  1  0  0  0  0
 33 36  1  0  0  0  0
 34 31  2  0  0  0  0
 34 29  1  0  0  0  0
 35 33  2  0  0  0  0
 35 30  1  0  0  0  0
 36 32  2  0  0  0  0
 38 37  1  0  0  0  0
 40 45  1  1  0  0  0
 41 40  1  0  0  0  0
 42 40  1  0  0  0  0
 43 42  1  0  0  0  0
 44 39  1  1  0  0  0
 44 43  1  0  0  0  0
 44 41  1  0  0  0  0
 45 47  1  0  0  0  0
 46 45  2  0  0  0  0
 47 49  1  0  0  0  0
 49 48  1  0  0  0  0
M  END
>  <MODEL>
2

>  <REMARK>
 VINA RESULT:      -7.9      3.670      7.735
  Name = 
  14 active torsions:
  status: ('A' for Active; 'I' for Inactive)
    1  A    between atoms: C_1  and  O_22
    2  A    between atoms: C_3  and  C_9
    3  A    between atoms: C_4  and  C_47
    4  A    between atoms: C_5  and  C_28
    5  A    between atoms: C_8  and  C_18
    6  A    between atoms: C_9  and  N_48
    7  A    between atoms: N_12  and  C_42
    8  A    between atoms: C_15  and  C_25
    9  A    between atoms: C_18  and  C_47
   10  A    between atoms: O_22  and  C_38
   11  A    between atoms: C_25  and  C_45
   12  A    between atoms: C_34  and  C_49
   13  A    between atoms: C_37  and  C_38
   14  A    between atoms: N_41  and  N_48
                            x       y       z     vdW  Elec       q    Type
                         _______ _______ _______ _____ _____    ______ ____

>  <TORSDO>
F 14

$$$$
=
 OpenBabel11032419373D

 49 54  0  0  1  0  0  0  0  0999 V2000
  189.6040  177.6860  138.5450 C   0  0  2  0  0  3  0  0  0  0  0  0
  190.8270  176.9380  138.0120 C   0  0  0  0  0  2  0  0  0  0  0  0
  191.8420  177.2490  140.2760 C   0  0  0  0  0  3  0  0  0  0  0  0
  191.9870  176.9130  138.9810 C   0  0  0  0  0  0  0  0  0  0  0  0
  189.3610  177.3220  140.0050 C   0  0  0  0  0  2  0  0  0  0  0  0
  190.5520  177.7930  140.8420 C   0  0  1  0  0  3  0  0  0  0  0  0
  188.3160  176.8190  144.4140 C   0  0  2  0  0  3  0  0  0  0  0  0
  189.7350  176.0170  142.4910 C   0  0  0  0  0  2  0  0  0  0  0  0
  189.2870  178.0110  144.4880 C   0  0  0  0  0  2  0  0  0  0  0  0
  189.7060  178.5070  143.1080 C   0  0  0  0  0  2  0  0  0  0  0  0
  190.4130  177.3940  142.3160 C   0  0  2  0  0  3  0  0  0  0  0  0
  188.3200  176.1200  143.0520 C   0  0  0  0  0  2  0  0  0  0  0  0
  186.8900  177.2510  144.7380 C   0  0  0  0  0  2  0  0  0  0  0  0
  186.9910  177.6320  147.1070 O   0  0  0  0  0  1  0  0  0  0  0  0
  186.8400  178.2730  145.8770 C   0  0  2  0  0  3  0  0  0  0  0  0
  185.5380  179.0690  145.8710 C   0  0  1  0  0  3  0  0  0  0  0  0
  184.7950  178.8970  144.5580 C   0  0  0  0  0  1  0  0  0  0  0  0
  184.7190  178.6870  146.9340 O   0  0  0  0  0  1  0  0  0  0  0  0
  188.4860  177.3390  137.7870 O   0  0  0  0  0  0  0  0  0  0  0  0
  188.0120  179.5150  137.2140 O   0  0  0  0  0  1  0  0  0  0  0  0
  188.4420  178.2740  136.7520 C   0  0  2  0  0  3  0  0  0  0  0  0
  185.8950  176.6380  136.9250 C   0  0  0  0  0  0  0  0  0  0  0  0
  186.3990  177.0280  135.5420 C   0  0  2  0  0  3  0  0  0  0  0  0
  186.2480  175.4600  137.4620 C   0  0  0  0  0  3  0  0  0  0  0  0
  187.6790  176.3110  135.0690 C   0  0  1  0  0  3  0  0  0  0  0  0
  187.1500  174.5160  136.7440 C   0  0  0  0  0  2  0  0  0  0  0  0
  187.7270  177.8040  135.4520 C   0  0  2  0  0  3  0  0  0  0  0  0
  188.2570  175.3060  136.0750 C   0  0  0  0  0  2  0  0  0  0  0  0
  182.2450  177.9870  139.1460 N   0  0  0  0  0  0  0  0  0  0  0  0
  184.4220  179.2720  139.3240 C   0  0  0  0  0  2  0  0  0  0  0  0
  183.2050  178.5180  141.2110 O   0  0  0  0  0  0  0  0  0  0  0  0
  182.3730  177.7580  137.7360 C   0  0  0  0  0  3  0  0  0  0  0  0
  184.9030  177.5140  137.6090 C   0  0  0  0  0  0  0  0  0  0  0  0
  183.2740  178.5690  139.9550 C   0  0  0  0  0  0  0  0  0  0  0  0
  185.2970  178.2900  138.6290 C   0  0  0  0  0  3  0  0  0  0  0  0
  183.5200  177.5460  137.0760 C   0  0  0  0  0  3  0  0  0  0  0  0
  179.9360  178.2290  138.9550 O   0  0  0  0  0  1  0  0  0  0  0  0
  180.9540  177.6940  139.7450 C   0  0  0  0  0  2  0  0  0  0  0  0
  193.2900  176.3470  138.5130 C   0  0  0  0  0  2  0  0  0  0  0  0
  194.9810  174.2630  136.5580 C   0  0  2  0  0  3  0  0  0  0  0  0
  194.3770  175.6320  136.3900 C   0  0  0  0  0  2  0  0  0  0  0  0
  194.1250  173.5170  137.4720 N   0  0  0  0  0  2  0  0  0  0  0  0
  192.8760  174.1670  137.5030 N   0  0  0  0  0  2  0  0  0  0  0  0
  193.1150  175.5720  137.2090 C   0  0  1  0  0  3  0  0  0  0  0  0
  196.3650  174.3760  137.1090 C   0  0  0  0  0  0  0  0  0  0  0  0
  197.5370  175.0460  136.1740 S   0  0  0  0  0  0  0  0  0  0  0  0
  196.6180  174.0360  138.4750 N   0  0  0  0  0  2  0  0  0  0  0  0
  197.6140  175.1380  140.2130 C   0  0  0  0  0  1  0  0  0  0  0  0
  196.3570  174.9300  139.5220 N   0  0  0  0  0  2  0  0  0  0  0  0
  1 19  1  6  0  0  0
  1  5  1  0  0  0  0
  2  1  1  0  0  0  0
  2  4  1  0  0  0  0
  3  6  1  0  0  0  0
  4  3  2  0  0  0  0
  6  5  1  6  0  0  0
  6 11  1  0  0  0  0
  7  9  1  0  0  0  0
  7 13  1  6  0  0  0
  8 12  1  0  0  0  0
 10  9  1  0  0  0  0
 11  8  1  6  0  0  0
 11 10  1  0  0  0  0
 12  7  1  0  0  0  0
 13 15  1  0  0  0  0
 15 14  1  1  0  0  0
 16 17  1  6  0  0  0
 16 15  1  0  0  0  0
 16 18  1  0  0  0  0
 21 20  1  1  0  0  0
 21 19  1  0  0  0  0
 22 24  2  0  0  0  0
 22 33  1  0  0  0  0
 23 22  1  1  0  0  0
 25 27  1  0  0  0  0
 25 23  1  0  0  0  0
 25 28  1  1  0  0  0
 26 24  1  0  0  0  0
 27 23  1  0  0  0  0
 27 21  1  1  0  0  0
 28 26  1  0  0  0  0
 29 38  1  0  0  0  0
 29 34  1  0  0  0  0
 30 34  1  0  0  0  0
 32 29  1  0  0  0  0
 33 35  2  0  0  0  0
 34 31  2  0  0  0  0
 35 30  1  0  0  0  0
 36 33  1  0  0  0  0
 36 32  2  0  0  0  0
 37 38  1  0  0  0  0
 39  4  1  0  0  0  0
 40 45  1  1  0  0  0
 40 42  1  0  0  0  0
 41 40  1  0  0  0  0
 41 44  1  0  0  0  0
 42 43  1  0  0  0  0
 44 43  1  0  0  0  0
 44 39  1  1  0  0  0
 45 47  1  0  0  0  0
 46 45  2  0  0  0  0
 47 49  1  0  0  0  0
 49 48  1  0  0  0  0
M  END
>  <MODEL>
3

>  <REMARK>
 VINA RESULT:      -7.8      2.272      6.272
  Name = 
  14 active torsions:
  status: ('A' for Active; 'I' for Inactive)
    1  A    between atoms: C_1  and  O_22
    2  A    between atoms: C_3  and  C_9
    3  A    between atoms: C_4  and  C_47
    4  A    between atoms: C_5  and  C_28
    5  A    between atoms: C_8  and  C_18
    6  A    between atoms: C_9  and  N_48
    7  A    between atoms: N_12  and  C_42
    8  A    between atoms: C_15  and  C_25
    9  A    between atoms: C_18  and  C_47
   10  A    between atoms: O_22  and  C_38
   11  A    between atoms: C_25  and  C_45
   12  A    between atoms: C_34  and  C_49
   13  A    between atoms: C_37  and  C_38
   14  A    between atoms: N_41  and  N_48
                            x       y       z     vdW  Elec       q    Type
                         _______ _______ _______ _____ _____    ______ ____

>  <TORSDO>
F 14

$$$$
=
 OpenBabel11032419373D

 49 54  0  0  1  0  0  0  0  0999 V2000
  183.6420  177.3210  138.1250 C   0  0  2  0  0  3  0  0  0  0  0  0
  182.4040  178.1540  137.7860 C   0  0  0  0  0  2  0  0  0  0  0  0
  182.3300  178.7890  140.2030 C   0  0  0  0  0  3  0  0  0  0  0  0
  181.7290  178.7500  139.0000 C   0  0  0  0  0  0  0  0  0  0  0  0
  184.4780  178.0310  139.1830 C   0  0  0  0  0  2  0  0  0  0  0  0
  183.6650  178.1380  140.4740 C   0  0  1  0  0  3  0  0  0  0  0  0
  186.3460  178.4810  143.8510 C   0  0  2  0  0  3  0  0  0  0  0  0
  185.9500  178.8370  141.3860 C   0  0  0  0  0  2  0  0  0  0  0  0
  184.9000  178.9720  144.0410 C   0  0  0  0  0  2  0  0  0  0  0  0
  183.9610  178.4480  142.9600 C   0  0  0  0  0  2  0  0  0  0  0  0
  184.4170  178.9090  141.5650 C   0  0  2  0  0  3  0  0  0  0  0  0
  186.6280  177.9640  142.4380 C   0  0  0  0  0  2  0  0  0  0  0  0
  186.6900  177.3840  144.8520 C   0  0  0  0  0  2  0  0  0  0  0  0
  188.7370  177.0270  146.0560 O   0  0  0  0  0  1  0  0  0  0  0  0
  187.6370  177.8780  145.9490 C   0  0  2  0  0  3  0  0  0  0  0  0
  186.9360  177.9820  147.3010 C   0  0  1  0  0  3  0  0  0  0  0  0
  187.9420  178.0460  148.4370 C   0  0  0  0  0  1  0  0  0  0  0  0
  186.1020  179.0980  147.3430 O   0  0  0  0  0  1  0  0  0  0  0  0
  184.4060  177.1410  136.9720 O   0  0  0  0  0  0  0  0  0  0  0  0
  182.8870  175.8300  135.8490 O   0  0  0  0  0  1  0  0  0  0  0  0
  184.1010  175.8530  136.5310 C   0  0  2  0  0  3  0  0  0  0  0  0
  186.4060  173.8890  136.3620 C   0  0  0  0  0  0  0  0  0  0  0  0
  185.4530  173.7700  137.5440 C   0  0  2  0  0  3  0  0  0  0  0  0
  186.1950  173.1660  135.2520 C   0  0  0  0  0  3  0  0  0  0  0  0
  184.0410  173.2460  137.2150 C   0  0  1  0  0  3  0  0  0  0  0  0
  185.0260  172.2500  135.1300 C   0  0  0  0  0  2  0  0  0  0  0  0
  184.2460  174.7260  137.5950 C   0  0  2  0  0  3  0  0  0  0  0  0
  183.8090  172.9230  135.7330 C   0  0  0  0  0  2  0  0  0  0  0  0
  189.2050  177.1630  137.5960 N   0  0  0  0  0  0  0  0  0  0  0  0
  190.0730  174.8380  137.0830 C   0  0  0  0  0  2  0  0  0  0  0  0
  190.5620  175.9880  139.0950 O   0  0  0  0  0  0  0  0  0  0  0  0
  188.2790  177.1730  136.5010 C   0  0  0  0  0  3  0  0  0  0  0  0
  187.6410  174.7100  136.5060 C   0  0  0  0  0  0  0  0  0  0  0  0
  189.9610  176.0100  137.9890 C   0  0  0  0  0  0  0  0  0  0  0  0
  188.7600  174.1460  136.9840 C   0  0  0  0  0  3  0  0  0  0  0  0
  187.5990  176.1160  136.0370 C   0  0  0  0  0  3  0  0  0  0  0  0
  188.2740  178.8680  138.8800 O   0  0  0  0  0  1  0  0  0  0  0  0
  189.4470  178.4290  138.2650 C   0  0  0  0  0  2  0  0  0  0  0  0
  180.4230  179.4540  138.8110 C   0  0  0  0  0  2  0  0  0  0  0  0
  180.2970  182.5930  137.7360 C   0  0  2  0  0  3  0  0  0  0  0  0
  181.3140  181.7530  138.4620 C   0  0  0  0  0  2  0  0  0  0  0  0
  178.9770  182.1540  138.1700 N   0  0  0  0  0  2  0  0  0  0  0  0
  179.1450  181.4510  139.3790 N   0  0  0  0  0  2  0  0  0  0  0  0
  180.4820  180.8770  139.3610 C   0  0  1  0  0  3  0  0  0  0  0  0
  180.4480  182.4200  136.2590 C   0  0  0  0  0  0  0  0  0  0  0  0
  179.6320  181.2050  135.5170 S   0  0  0  0  0  0  0  0  0  0  0  0
  181.1780  183.3880  135.5000 N   0  0  0  0  0  2  0  0  0  0  0  0
  180.6340  185.3770  136.4870 C   0  0  0  0  0  1  0  0  0  0  0  0
  180.6580  184.6600  135.2270 N   0  0  0  0  0  2  0  0  0  0  0  0
  1 19  1  6  0  0  0
  1  5  1  0  0  0  0
  2  1  1  0  0  0  0
  2  4  1  0  0  0  0
  3  6  1  0  0  0  0
  4  3  2  0  0  0  0
  6  5  1  6  0  0  0
  6 11  1  0  0  0  0
  7  9  1  0  0  0  0
  7 13  1  1  0  0  0
  8 12  1  0  0  0  0
 10  9  1  0  0  0  0
 11  8  1  1  0  0  0
 11 10  1  0  0  0  0
 12  7  1  0  0  0  0
 13 15  1  0  0  0  0
 15 14  1  1  0  0  0
 15 16  1  0  0  0  0
 16 18  1  0  0  0  0
 16 17  1  1  0  0  0
 21 20  1  1  0  0  0
 21 19  1  0  0  0  0
 22 33  1  0  0  0  0
 23 22  1  6  0  0  0
 23 27  1  0  0  0  0
 24 22  2  0  0  0  0
 25 28  1  6  0  0  0
 25 23  1  0  0  0  0
 25 27  1  0  0  0  0
 26 24  1  0  0  0  0
 26 28  1  0  0  0  0
 27 21  1  6  0  0  0
 29 34  1  0  0  0  0
 29 38  1  0  0  0  0
 30 34  1  0  0  0  0
 32 29  1  0  0  0  0
 33 35  2  0  0  0  0
 34 31  2  0  0  0  0
 35 30  1  0  0  0  0
 36 32  2  0  0  0  0
 36 33  1  0  0  0  0
 38 37  1  0  0  0  0
 39  4  1  0  0  0  0
 40 45  1  6  0  0  0
 40 42  1  0  0  0  0
 40 41  1  0  0  0  0
 41 44  1  0  0  0  0
 42 43  1  0  0  0  0
 44 39  1  6  0  0  0
 44 43  1  0  0  0  0
 46 45  2  0  0  0  0
 47 45  1  0  0  0  0
 49 47  1  0  0  0  0
 49 48  1  0  0  0  0
M  END
>  <MODEL>
4

>  <REMARK>
 VINA RESULT:      -7.4      4.274     10.898
  Name = 
  14 active torsions:
  status: ('A' for Active; 'I' for Inactive)
    1  A    between atoms: C_1  and  O_22
    2  A    between atoms: C_3  and  C_9
    3  A    between atoms: C_4  and  C_47
    4  A    between atoms: C_5  and  C_28
    5  A    between atoms: C_8  and  C_18
    6  A    between atoms: C_9  and  N_48
    7  A    between atoms: N_12  and  C_42
    8  A    between atoms: C_15  and  C_25
    9  A    between atoms: C_18  and  C_47
   10  A    between atoms: O_22  and  C_38
   11  A    between atoms: C_25  and  C_45
   12  A    between atoms: C_34  and  C_49
   13  A    between atoms: C_37  and  C_38
   14  A    between atoms: N_41  and  N_48
                            x       y       z     vdW  Elec       q    Type
                         _______ _______ _______ _____ _____    ______ ____

>  <TORSDO>
F 14

$$$$
=
 OpenBabel11032419373D

 49 54  0  0  1  0  0  0  0  0999 V2000
  185.5120  178.2140  138.4930 C   0  0  2  0  0  3  0  0  0  0  0  0
  184.1440  177.8920  137.8890 C   0  0  0  0  0  2  0  0  0  0  0  0
  183.2960  177.7070  140.2340 C   0  0  0  0  0  3  0  0  0  0  0  0
  183.1090  177.4990  138.9190 C   0  0  0  0  0  0  0  0  0  0  0  0
  185.3440  179.0530  139.7550 C   0  0  0  0  0  2  0  0  0  0  0  0
  184.5930  178.2310  140.8050 C   0  0  1  0  0  3  0  0  0  0  0  0
  184.8810  179.0160  145.0490 C   0  0  2  0  0  3  0  0  0  0  0  0
  185.6160  179.5990  142.7080 C   0  0  0  0  0  2  0  0  0  0  0  0
  183.4710  178.8660  144.4490 C   0  0  0  0  0  2  0  0  0  0  0  0
  183.4910  178.2080  143.0730 C   0  0  0  0  0  2  0  0  0  0  0  0
  184.3210  179.0380  142.0790 C   0  0  2  0  0  3  0  0  0  0  0  0
  185.9960  178.8940  144.0060 C   0  0  0  0  0  2  0  0  0  0  0  0
  185.1230  177.9870  146.1470 C   0  0  0  0  0  2  0  0  0  0  0  0
  185.7070  179.9650  147.3770 O   0  0  0  0  0  1  0  0  0  0  0  0
  185.8790  178.5810  147.3390 C   0  0  2  0  0  3  0  0  0  0  0  0
  187.3680  178.2510  147.2900 C   0  0  1  0  0  3  0  0  0  0  0  0
  187.9280  178.0280  148.6840 C   0  0  0  0  0  1  0  0  0  0  0  0
  187.6010  177.1260  146.4990 O   0  0  0  0  0  1  0  0  0  0  0  0
  186.2720  178.9210  137.5630 O   0  0  0  0  0  0  0  0  0  0  0  0
  186.5830  178.1810  135.4080 O   0  0  0  0  0  1  0  0  0  0  0  0
  186.8570  177.9470  136.7530 C   0  0  2  0  0  3  0  0  0  0  0  0
  189.1810  176.2530  137.7150 C   0  0  0  0  0  0  0  0  0  0  0  0
  187.7890  175.6360  137.7460 C   0  0  2  0  0  3  0  0  0  0  0  0
  189.9740  176.0730  136.6480 C   0  0  0  0  0  3  0  0  0  0  0  0
  187.1770  175.2970  136.3720 C   0  0  1  0  0  3  0  0  0  0  0  0
  189.5190  175.2930  135.4630 C   0  0  0  0  0  2  0  0  0  0  0  0
  186.6180  176.4730  137.1970 C   0  0  2  0  0  3  0  0  0  0  0  0
  188.0720  175.6370  135.1730 C   0  0  0  0  0  2  0  0  0  0  0  0
  189.6370  177.5610  141.9770 N   0  0  0  0  0  0  0  0  0  0  0  0
  191.6330  177.5030  140.4160 C   0  0  0  0  0  2  0  0  0  0  0  0
  191.6130  176.4390  142.5320 O   0  0  0  0  0  0  0  0  0  0  0  0
  188.7470  178.1000  140.9890 C   0  0  0  0  0  3  0  0  0  0  0  0
  189.6970  176.9380  138.9340 C   0  0  0  0  0  0  0  0  0  0  0  0
  190.9720  177.1250  141.6920 C   0  0  0  0  0  0  0  0  0  0  0  0
  190.9850  176.7940  139.2800 C   0  0  0  0  0  3  0  0  0  0  0  0
  188.7700  177.8240  139.6780 C   0  0  0  0  0  3  0  0  0  0  0  0
  188.5620  176.3390  143.6430 O   0  0  0  0  0  1  0  0  0  0  0  0
  189.1700  177.5600  143.3520 C   0  0  0  0  0  2  0  0  0  0  0  0
  181.7790  177.0120  138.4360 C   0  0  0  0  0  2  0  0  0  0  0  0
  180.5990  174.5370  136.5640 C   0  0  2  0  0  3  0  0  0  0  0  0
  181.9670  174.9830  137.0040 C   0  0  0  0  0  2  0  0  0  0  0  0
  179.7820  175.7320  136.3960 N   0  0  0  0  0  2  0  0  0  0  0  0
  180.6600  176.8280  136.2780 N   0  0  0  0  0  2  0  0  0  0  0  0
  181.8730  176.4870  137.0060 C   0  0  1  0  0  3  0  0  0  0  0  0
  179.9990  173.6320  137.5900 C   0  0  0  0  0  0  0  0  0  0  0  0
  180.4260  172.0470  137.5940 S   0  0  0  0  0  0  0  0  0  0  0  0
  179.1810  174.1760  138.6300 N   0  0  0  0  0  2  0  0  0  0  0  0
  179.5180  175.0940  140.6970 C   0  0  0  0  0  1  0  0  0  0  0  0
  179.3770  173.8430  139.9770 N   0  0  0  0  0  2  0  0  0  0  0  0
  1 19  1  6  0  0  0
  1  5  1  0  0  0  0
  2  1  1  0  0  0  0
  2  4  1  0  0  0  0
  3  6  1  0  0  0  0
  4  3  2  0  0  0  0
  6  5  1  6  0  0  0
  6 11  1  0  0  0  0
  7 13  1  1  0  0  0
  8 12  1  0  0  0  0
  9  7  1  0  0  0  0
 10  9  1  0  0  0  0
 11  8  1  1  0  0  0
 11 10  1  0  0  0  0
 12  7  1  0  0  0  0
 13 15  1  0  0  0  0
 15 14  1  6  0  0  0
 16 15  1  0  0  0  0
 16 17  1  1  0  0  0
 18 16  1  0  0  0  0
 21 20  1  6  0  0  0
 21 19  1  0  0  0  0
 22 33  1  0  0  0  0
 23 22  1  6  0  0  0
 24 22  2  0  0  0  0
 25 28  1  6  0  0  0
 25 27  1  0  0  0  0
 25 23  1  0  0  0  0
 26 24  1  0  0  0  0
 27 21  1  6  0  0  0
 27 23  1  0  0  0  0
 28 26  1  0  0  0  0
 29 38  1  0  0  0  0
 30 34  1  0  0  0  0
 32 29  1  0  0  0  0
 33 35  2  0  0  0  0
 33 36  1  0  0  0  0
 34 29  1  0  0  0  0
 34 31  2  0  0  0  0
 35 30  1  0  0  0  0
 36 32  2  0  0  0  0
 38 37  1  0  0  0  0
 39  4  1  0  0  0  0
 40 41  1  0  0  0  0
 40 45  1  1  0  0  0
 41 44  1  0  0  0  0
 42 40  1  0  0  0  0
 43 42  1  0  0  0  0
 43 44  1  0  0  0  0
 44 39  1  1  0  0  0
 45 46  2  0  0  0  0
 45 47  1  0  0  0  0
 47 49  1  0  0  0  0
 49 48  1  0  0  0  0
M  END
>  <MODEL>
5

>  <REMARK>
 VINA RESULT:      -7.3      4.181      9.977
  Name = 
  14 active torsions:
  status: ('A' for Active; 'I' for Inactive)
    1  A    between atoms: C_1  and  O_22
    2  A    between atoms: C_3  and  C_9
    3  A    between atoms: C_4  and  C_47
    4  A    between atoms: C_5  and  C_28
    5  A    between atoms: C_8  and  C_18
    6  A    between atoms: C_9  and  N_48
    7  A    between atoms: N_12  and  C_42
    8  A    between atoms: C_15  and  C_25
    9  A    between atoms: C_18  and  C_47
   10  A    between atoms: O_22  and  C_38
   11  A    between atoms: C_25  and  C_45
   12  A    between atoms: C_34  and  C_49
   13  A    between atoms: C_37  and  C_38
   14  A    between atoms: N_41  and  N_48
                            x       y       z     vdW  Elec       q    Type
                         _______ _______ _______ _____ _____    ______ ____

>  <TORSDO>
F 14

$$$$
=
 OpenBabel11032419373D

 49 54  0  0  1  0  0  0  0  0999 V2000
  186.5170  178.1650  139.4810 C   0  0  2  0  0  3  0  0  0  0  0  0
  185.6370  178.9500  140.4560 C   0  0  0  0  0  2  0  0  0  0  0  0
  187.1830  178.1850  142.2650 C   0  0  0  0  0  3  0  0  0  0  0  0
  186.0160  178.7480  141.9050 C   0  0  0  0  0  0  0  0  0  0  0  0
  187.9790  178.2620  139.9000 C   0  0  0  0  0  2  0  0  0  0  0  0
  188.1520  177.5970  141.2670 C   0  0  1  0  0  3  0  0  0  0  0  0
  191.2650  177.1530  144.2380 C   0  0  2  0  0  3  0  0  0  0  0  0
  190.2270  176.3470  142.0850 C   0  0  0  0  0  2  0  0  0  0  0  0
  190.9830  178.5720  143.7120 C   0  0  0  0  0  2  0  0  0  0  0  0
  189.6400  178.6720  142.9970 C   0  0  0  0  0  2  0  0  0  0  0  0
  189.5880  177.7220  141.7890 C   0  0  2  0  0  3  0  0  0  0  0  0
  190.3920  176.0800  143.5790 C   0  0  0  0  0  2  0  0  0  0  0  0
  191.0730  177.0780  145.7490 C   0  0  0  0  0  2  0  0  0  0  0  0
  192.0500  174.8930  145.9410 O   0  0  0  0  0  1  0  0  0  0  0  0
  192.1310  176.2000  146.4230 C   0  0  2  0  0  3  0  0  0  0  0  0
  191.9830  176.1960  147.9420 C   0  0  1  0  0  3  0  0  0  0  0  0
  193.2200  175.6250  148.6120 C   0  0  0  0  0  1  0  0  0  0  0  0
  191.7360  177.4840  148.4190 O   0  0  0  0  0  1  0  0  0  0  0  0
  186.3650  178.6900  138.1980 O   0  0  0  0  0  0  0  0  0  0  0  0
  187.7650  177.3320  136.9800 O   0  0  0  0  0  1  0  0  0  0  0  0
  186.4460  177.5910  137.3430 C   0  0  2  0  0  3  0  0  0  0  0  0
  183.5950  176.6260  137.7180 C   0  0  0  0  0  0  0  0  0  0  0  0
  183.9890  177.1700  136.3510 C   0  0  2  0  0  3  0  0  0  0  0  0
  183.6800  175.3110  137.9690 C   0  0  0  0  0  3  0  0  0  0  0  0
  184.9420  176.2810  135.5270 C   0  0  1  0  0  3  0  0  0  0  0  0
  184.1760  174.3530  136.9420 C   0  0  0  0  0  2  0  0  0  0  0  0
  185.4540  177.5990  136.1420 C   0  0  2  0  0  3  0  0  0  0  0  0
  185.3530  174.9740  136.2170 C   0  0  0  0  0  2  0  0  0  0  0  0
  180.7800  179.5160  139.6680 N   0  0  0  0  0  0  0  0  0  0  0  0
  182.2080  177.9540  141.0620 C   0  0  0  0  0  2  0  0  0  0  0  0
  179.8600  178.1330  141.3140 O   0  0  0  0  0  0  0  0  0  0  0  0
  181.8290  179.8140  138.7360 C   0  0  0  0  0  3  0  0  0  0  0  0
  182.9900  177.5490  138.7190 C   0  0  0  0  0  0  0  0  0  0  0  0
  180.8850  178.5200  140.6930 C   0  0  0  0  0  0  0  0  0  0  0  0
  182.7230  177.1030  139.9550 C   0  0  0  0  0  3  0  0  0  0  0  0
  182.7770  178.9610  138.3220 C   0  0  0  0  0  3  0  0  0  0  0  0
  179.6800  181.3570  140.5760 O   0  0  0  0  0  1  0  0  0  0  0  0
  179.5930  180.3520  139.6120 C   0  0  0  0  0  2  0  0  0  0  0  0
  185.1330  179.3390  142.9580 C   0  0  0  0  0  2  0  0  0  0  0  0
  184.9830  178.0360  146.0080 C   0  0  2  0  0  3  0  0  0  0  0  0
  185.3290  177.5130  144.6400 C   0  0  0  0  0  2  0  0  0  0  0  0
  183.9500  179.0500  145.8400 N   0  0  0  0  0  2  0  0  0  0  0  0
  183.3700  178.8530  144.5720 N   0  0  0  0  0  2  0  0  0  0  0  0
  184.3870  178.2490  143.7240 C   0  0  1  0  0  3  0  0  0  0  0  0
  186.1950  178.6240  146.6560 C   0  0  0  0  0  0  0  0  0  0  0  0
  186.0720  180.0920  147.3800 S   0  0  0  0  0  0  0  0  0  0  0  0
  187.3930  177.8500  146.7600 N   0  0  0  0  0  2  0  0  0  0  0  0
  188.8500  178.2410  148.4780 C   0  0  0  0  0  1  0  0  0  0  0  0
  187.8360  177.3310  147.9830 N   0  0  0  0  0  2  0  0  0  0  0  0
  1 19  1  6  0  0  0
  1  5  1  0  0  0  0
  1  2  1  0  0  0  0
  2  4  1  0  0  0  0
  4  3  2  0  0  0  0
  4 39  1  0  0  0  0
  6  5  1  6  0  0  0
  6 11  1  0  0  0  0
  6  3  1  0  0  0  0
  7 13  1  1  0  0  0
  8 12  1  0  0  0  0
  9  7  1  0  0  0  0
 10  9  1  0  0  0  0
 11  8  1  1  0  0  0
 11 10  1  0  0  0  0
 12  7  1  0  0  0  0
 13 15  1  0  0  0  0
 15 14  1  6  0  0  0
 15 16  1  0  0  0  0
 16 18  1  0  0  0  0
 16 17  1  1  0  0  0
 21 20  1  6  0  0  0
 21 19  1  0  0  0  0
 22 24  2  0  0  0  0
 22 33  1  0  0  0  0
 23 22  1  1  0  0  0
 25 27  1  0  0  0  0
 25 28  1  1  0  0  0
 25 23  1  0  0  0  0
 26 24  1  0  0  0  0
 27 23  1  0  0  0  0
 27 21  1  1  0  0  0
 28 26  1  0  0  0  0
 29 34  1  0  0  0  0
 32 29  1  0  0  0  0
 33 35  2  0  0  0  0
 34 30  1  0  0  0  0
 34 31  2  0  0  0  0
 35 30  1  0  0  0  0
 36 33  1  0  0  0  0
 36 32  2  0  0  0  0
 38 29  1  0  0  0  0
 38 37  1  0  0  0  0
 40 45  1  6  0  0  0
 41 40  1  0  0  0  0
 42 40  1  0  0  0  0
 43 42  1  0  0  0  0
 44 39  1  1  0  0  0
 44 43  1  0  0  0  0
 44 41  1  0  0  0  0
 45 47  1  0  0  0  0
 45 46  2  0  0  0  0
 47 49  1  0  0  0  0
 49 48  1  0  0  0  0
M  END
>  <MODEL>
6

>  <REMARK>
 VINA RESULT:      -7.2      5.353      9.569
  Name = 
  14 active torsions:
  status: ('A' for Active; 'I' for Inactive)
    1  A    between atoms: C_1  and  O_22
    2  A    between atoms: C_3  and  C_9
    3  A    between atoms: C_4  and  C_47
    4  A    between atoms: C_5  and  C_28
    5  A    between atoms: C_8  and  C_18
    6  A    between atoms: C_9  and  N_48
    7  A    between atoms: N_12  and  C_42
    8  A    between atoms: C_15  and  C_25
    9  A    between atoms: C_18  and  C_47
   10  A    between atoms: O_22  and  C_38
   11  A    between atoms: C_25  and  C_45
   12  A    between atoms: C_34  and  C_49
   13  A    between atoms: C_37  and  C_38
   14  A    between atoms: N_41  and  N_48
                            x       y       z     vdW  Elec       q    Type
                         _______ _______ _______ _____ _____    ______ ____

>  <TORSDO>
F 14

$$$$
=
 OpenBabel11032419373D

 49 54  0  0  1  0  0  0  0  0999 V2000
  184.9230  178.5360  139.8350 C   0  0  2  0  0  3  0  0  0  0  0  0
  184.6200  179.2200  141.1700 C   0  0  0  0  0  2  0  0  0  0  0  0
  186.9090  178.5270  141.8970 C   0  0  0  0  0  3  0  0  0  0  0  0
  185.6930  179.0060  142.2130 C   0  0  0  0  0  0  0  0  0  0  0  0
  186.3880  178.7370  139.4650 C   0  0  0  0  0  2  0  0  0  0  0  0
  187.2670  178.0480  140.5100 C   0  0  1  0  0  3  0  0  0  0  0  0
  191.0690  177.1240  138.6680 C   0  0  2  0  0  3  0  0  0  0  0  0
  189.0460  178.6260  138.7670 C   0  0  0  0  0  2  0  0  0  0  0  0
  191.0080  177.1260  140.2050 C   0  0  0  0  0  2  0  0  0  0  0  0
  189.5780  177.0630  140.7310 C   0  0  0  0  0  2  0  0  0  0  0  0
  188.7600  178.2700  140.2430 C   0  0  2  0  0  3  0  0  0  0  0  0
  189.7380  177.4960  138.0100 C   0  0  0  0  0  2  0  0  0  0  0  0
  191.5150  175.7660  138.1370 C   0  0  0  0  0  2  0  0  0  0  0  0
  191.1470  174.6990  136.0180 O   0  0  0  0  0  1  0  0  0  0  0  0
  191.7680  175.7890  136.6280 C   0  0  2  0  0  3  0  0  0  0  0  0
  193.2590  175.7770  136.3000 C   0  0  1  0  0  3  0  0  0  0  0  0
  193.4970  175.9820  134.8150 C   0  0  0  0  0  1  0  0  0  0  0  0
  193.9340  176.7560  137.0290 O   0  0  0  0  0  1  0  0  0  0  0  0
  184.1130  179.0850  138.8420 O   0  0  0  0  0  0  0  0  0  0  0  0
  181.9770  179.6500  139.4820 O   0  0  0  0  0  1  0  0  0  0  0  0
  182.8290  178.6110  139.1150 C   0  0  2  0  0  3  0  0  0  0  0  0
  182.4410  175.8340  137.9590 C   0  0  0  0  0  0  0  0  0  0  0  0
  182.6240  175.9600  139.4660 C   0  0  2  0  0  3  0  0  0  0  0  0
  181.2090  175.8230  137.4300 C   0  0  0  0  0  3  0  0  0  0  0  0
  181.4430  176.5860  140.2330 C   0  0  1  0  0  3  0  0  0  0  0  0
  179.9940  175.9540  138.2820 C   0  0  0  0  0  2  0  0  0  0  0  0
  182.7560  177.3750  140.0600 C   0  0  2  0  0  3  0  0  0  0  0  0
  180.2540  176.9930  139.3540 C   0  0  0  0  0  2  0  0  0  0  0  0
  186.2920  176.4790  135.7600 N   0  0  0  0  0  0  0  0  0  0  0  0
  185.6190  174.1670  136.5490 C   0  0  0  0  0  2  0  0  0  0  0  0
  187.7180  175.1450  137.0470 O   0  0  0  0  0  0  0  0  0  0  0  0
  184.9700  176.8310  135.3270 C   0  0  0  0  0  3  0  0  0  0  0  0
  183.6350  175.5890  137.1020 C   0  0  0  0  0  0  0  0  0  0  0  0
  186.6000  175.2810  136.4830 C   0  0  0  0  0  0  0  0  0  0  0  0
  184.4550  174.5650  137.3840 C   0  0  0  0  0  3  0  0  0  0  0  0
  183.8250  176.4520  135.9120 C   0  0  0  0  0  3  0  0  0  0  0  0
  187.1520  178.6420  135.8290 O   0  0  0  0  0  1  0  0  0  0  0  0
  187.3750  177.3540  135.3440 C   0  0  0  0  0  2  0  0  0  0  0  0
  185.4370  179.4940  143.6040 C   0  0  0  0  0  2  0  0  0  0  0  0
  185.9900  177.7810  146.3940 C   0  0  2  0  0  3  0  0  0  0  0  0
  185.8150  177.4270  144.9420 C   0  0  0  0  0  2  0  0  0  0  0  0
  185.1420  178.9350  146.6680 N   0  0  0  0  0  2  0  0  0  0  0  0
  184.1840  179.0060  145.6380 N   0  0  0  0  0  2  0  0  0  0  0  0
  184.7810  178.4080  144.4540 C   0  0  1  0  0  3  0  0  0  0  0  0
  187.4220  178.1030  146.6760 C   0  0  0  0  0  0  0  0  0  0  0  0
  187.9060  178.2580  148.2370 S   0  0  0  0  0  0  0  0  0  0  0  0
  188.3700  178.1320  145.6060 N   0  0  0  0  0  2  0  0  0  0  0  0
  189.5090  176.7600  144.1750 C   0  0  0  0  0  1  0  0  0  0  0  0
  189.4440  177.2350  145.5440 N   0  0  0  0  0  2  0  0  0  0  0  0
  1 19  1  6  0  0  0
  1  2  1  0  0  0  0
  2  4  1  0  0  0  0
  3  4  2  0  0  0  0
  4 39  1  0  0  0  0
  5  1  1  0  0  0  0
  6  5  1  6  0  0  0
  6  3  1  0  0  0  0
  7 13  1  6  0  0  0
  7  9  1  0  0  0  0
  9 10  1  0  0  0  0
 11  8  1  6  0  0  0
 11  6  1  0  0  0  0
 11 10  1  0  0  0  0
 12  7  1  0  0  0  0
 12  8  1  0  0  0  0
 15 14  1  6  0  0  0
 15 13  1  0  0  0  0
 16 17  1  6  0  0  0
 16 15  1  0  0  0  0
 16 18  1  0  0  0  0
 19 21  1  0  0  0  0
 21 20  1  1  0  0  0
 23 22  1  6  0  0  0
 23 27  1  0  0  0  0
 23 25  1  0  0  0  0
 24 22  2  0  0  0  0
 24 26  1  0  0  0  0
 25 28  1  6  0  0  0
 26 28  1  0  0  0  0
 27 21  1  6  0  0  0
 27 25  1  0  0  0  0
 29 34  1  0  0  0  0
 30 35  1  0  0  0  0
 32 29  1  0  0  0  0
 32 36  2  0  0  0  0
 33 35  2  0  0  0  0
 33 22  1  0  0  0  0
 34 30  1  0  0  0  0
 34 31  2  0  0  0  0
 36 33  1  0  0  0  0
 38 29  1  0  0  0  0
 38 37  1  0  0  0  0
 40 42  1  0  0  0  0
 40 45  1  6  0  0  0
 41 40  1  0  0  0  0
 43 42  1  0  0  0  0
 44 39  1  6  0  0  0
 44 41  1  0  0  0  0
 44 43  1  0  0  0  0
 45 46  2  0  0  0  0
 47 45  1  0  0  0  0
 48 49  1  0  0  0  0
 49 47  1  0  0  0  0
M  END
>  <MODEL>
7

>  <REMARK>
 VINA RESULT:      -7.2      4.101      9.073
  Name = 
  14 active torsions:
  status: ('A' for Active; 'I' for Inactive)
    1  A    between atoms: C_1  and  O_22
    2  A    between atoms: C_3  and  C_9
    3  A    between atoms: C_4  and  C_47
    4  A    between atoms: C_5  and  C_28
    5  A    between atoms: C_8  and  C_18
    6  A    between atoms: C_9  and  N_48
    7  A    between atoms: N_12  and  C_42
    8  A    between atoms: C_15  and  C_25
    9  A    between atoms: C_18  and  C_47
   10  A    between atoms: O_22  and  C_38
   11  A    between atoms: C_25  and  C_45
   12  A    between atoms: C_34  and  C_49
   13  A    between atoms: C_37  and  C_38
   14  A    between atoms: N_41  and  N_48
                            x       y       z     vdW  Elec       q    Type
                         _______ _______ _______ _____ _____    ______ ____

>  <TORSDO>
F 14

$$$$
=
 OpenBabel11032419373D

 49 54  0  0  1  0  0  0  0  0999 V2000
  186.5740  176.8560  137.4510 C   0  0  2  0  0  3  0  0  0  0  0  0
  185.4500  177.8920  137.5110 C   0  0  0  0  0  2  0  0  0  0  0  0
  186.2900  178.4800  139.7910 C   0  0  0  0  0  3  0  0  0  0  0  0
  185.3260  178.5670  138.8580 C   0  0  0  0  0  0  0  0  0  0  0  0
  187.8200  177.3930  138.1460 C   0  0  0  0  0  2  0  0  0  0  0  0
  187.5120  177.6080  139.6290 C   0  0  1  0  0  3  0  0  0  0  0  0
  190.7090  177.5710  142.5420 C   0  0  2  0  0  3  0  0  0  0  0  0
  190.0170  177.4540  140.1200 C   0  0  0  0  0  2  0  0  0  0  0  0
  189.6370  178.6660  142.6800 C   0  0  0  0  0  2  0  0  0  0  0  0
  188.3780  178.3520  141.8780 C   0  0  0  0  0  2  0  0  0  0  0  0
  188.7010  178.2190  140.3800 C   0  0  2  0  0  3  0  0  0  0  0  0
  190.4880  176.6570  141.3330 C   0  0  0  0  0  2  0  0  0  0  0  0
  190.7820  176.7110  143.7990 C   0  0  0  0  0  2  0  0  0  0  0  0
  191.6820  177.5000  145.8800 O   0  0  0  0  0  1  0  0  0  0  0  0
  190.5450  177.5260  145.0720 C   0  0  2  0  0  3  0  0  0  0  0  0
  189.3440  177.0130  145.8620 C   0  0  1  0  0  3  0  0  0  0  0  0
  189.6670  176.9000  147.3410 C   0  0  0  0  0  1  0  0  0  0  0  0
  188.2390  177.8450  145.6790 O   0  0  0  0  0  1  0  0  0  0  0  0
  186.8700  176.5740  136.1180 O   0  0  0  0  0  0  0  0  0  0  0  0
  185.2000  175.2330  135.2820 O   0  0  0  0  0  1  0  0  0  0  0  0
  186.4380  175.2620  135.9180 C   0  0  2  0  0  3  0  0  0  0  0  0
  188.4520  172.9950  135.9730 C   0  0  0  0  0  0  0  0  0  0  0  0
  187.5960  173.2180  137.2130 C   0  0  2  0  0  3  0  0  0  0  0  0
  188.0570  172.1270  135.0300 C   0  0  0  0  0  3  0  0  0  0  0  0
  186.1060  172.8480  137.0730 C   0  0  1  0  0  3  0  0  0  0  0  0
  186.7750  171.3770  135.1500 C   0  0  0  0  0  2  0  0  0  0  0  0
  186.5290  174.3280  137.1610 C   0  0  2  0  0  3  0  0  0  0  0  0
  185.7090  172.3080  135.6920 C   0  0  0  0  0  2  0  0  0  0  0  0
  192.1220  175.3130  137.0870 N   0  0  0  0  0  0  0  0  0  0  0  0
  192.2270  173.4740  135.3460 C   0  0  0  0  0  2  0  0  0  0  0  0
  193.6740  173.5680  137.2190 O   0  0  0  0  0  0  0  0  0  0  0  0
  190.8710  175.8330  136.6160 C   0  0  0  0  0  3  0  0  0  0  0  0
  189.7890  173.6470  135.8880 C   0  0  0  0  0  0  0  0  0  0  0  0
  192.7140  174.1010  136.6020 C   0  0  0  0  0  0  0  0  0  0  0  0
  190.8630  172.9170  135.5540 C   0  0  0  0  0  3  0  0  0  0  0  0
  189.8630  175.1120  136.1060 C   0  0  0  0  0  3  0  0  0  0  0  0
  193.9140  176.7680  137.3910 O   0  0  0  0  0  1  0  0  0  0  0  0
  192.8570  176.1290  138.0380 C   0  0  0  0  0  2  0  0  0  0  0  0
  184.1660  179.4840  139.0870 C   0  0  0  0  0  2  0  0  0  0  0  0
  181.3790  178.6380  140.6810 C   0  0  2  0  0  3  0  0  0  0  0  0
  182.4800  177.8850  139.9840 C   0  0  0  0  0  2  0  0  0  0  0  0
  181.1940  179.8980  139.9720 N   0  0  0  0  0  2  0  0  0  0  0  0
  181.7740  179.7520  138.6970 N   0  0  0  0  0  2  0  0  0  0  0  0
  182.8420  178.7710  138.8210 C   0  0  1  0  0  3  0  0  0  0  0  0
  181.7510  178.8880  142.1070 C   0  0  0  0  0  0  0  0  0  0  0  0
  180.5720  179.3100  143.1700 S   0  0  0  0  0  0  0  0  0  0  0  0
  183.0830  178.6230  142.5540 N   0  0  0  0  0  2  0  0  0  0  0  0
  184.0190  178.6830  144.6380 C   0  0  0  0  0  1  0  0  0  0  0  0
  183.7460  179.4700  143.4510 N   0  0  0  0  0  2  0  0  0  0  0  0
  1 19  1  6  0  0  0
  1  2  1  0  0  0  0
  1  5  1  0  0  0  0
  2  4  1  0  0  0  0
  4 39  1  0  0  0  0
  4  3  2  0  0  0  0
  6  5  1  6  0  0  0
  6  3  1  0  0  0  0
  6 11  1  0  0  0  0
  7  9  1  0  0  0  0
  7 13  1  1  0  0  0
  8 12  1  0  0  0  0
 10  9  1  0  0  0  0
 11  8  1  1  0  0  0
 11 10  1  0  0  0  0
 12  7  1  0  0  0  0
 13 15  1  0  0  0  0
 15 16  1  0  0  0  0
 15 14  1  1  0  0  0
 16 17  1  1  0  0  0
 18 16  1  0  0  0  0
 21 20  1  1  0  0  0
 21 19  1  0  0  0  0
 23 22  1  6  0  0  0
 24 26  1  0  0  0  0
 24 22  2  0  0  0  0
 25 28  1  6  0  0  0
 25 27  1  0  0  0  0
 25 23  1  0  0  0  0
 26 28  1  0  0  0  0
 27 21  1  6  0  0  0
 27 23  1  0  0  0  0
 29 38  1  0  0  0  0
 30 35  1  0  0  0  0
 30 34  1  0  0  0  0
 32 29  1  0  0  0  0
 33 22  1  0  0  0  0
 33 36  1  0  0  0  0
 34 29  1  0  0  0  0
 34 31  2  0  0  0  0
 35 33  2  0  0  0  0
 36 32  2  0  0  0  0
 37 38  1  0  0  0  0
 40 45  1  1  0  0  0
 41 40  1  0  0  0  0
 42 40  1  0  0  0  0
 43 44  1  0  0  0  0
 43 42  1  0  0  0  0
 44 39  1  1  0  0  0
 44 41  1  0  0  0  0
 45 47  1  0  0  0  0
 45 46  2  0  0  0  0
 47 49  1  0  0  0  0
 49 48  1  0  0  0  0
M  END
>  <MODEL>
8

>  <REMARK>
 VINA RESULT:      -7.1      3.627     10.604
  Name = 
  14 active torsions:
  status: ('A' for Active; 'I' for Inactive)
    1  A    between atoms: C_1  and  O_22
    2  A    between atoms: C_3  and  C_9
    3  A    between atoms: C_4  and  C_47
    4  A    between atoms: C_5  and  C_28
    5  A    between atoms: C_8  and  C_18
    6  A    between atoms: C_9  and  N_48
    7  A    between atoms: N_12  and  C_42
    8  A    between atoms: C_15  and  C_25
    9  A    between atoms: C_18  and  C_47
   10  A    between atoms: O_22  and  C_38
   11  A    between atoms: C_25  and  C_45
   12  A    between atoms: C_34  and  C_49
   13  A    between atoms: C_37  and  C_38
   14  A    between atoms: N_41  and  N_48
                            x       y       z     vdW  Elec       q    Type
                         _______ _______ _______ _____ _____    ______ ____

>  <TORSDO>
F 14

$$$$
=
 OpenBabel11032419373D

 49 54  0  0  1  0  0  0  0  0999 V2000
  187.1250  178.5170  138.3770 C   0  0  2  0  0  3  0  0  0  0  0  0
  187.9360  177.8520  139.4910 C   0  0  0  0  0  2  0  0  0  0  0  0
  186.1620  178.6290  141.0710 C   0  0  0  0  0  3  0  0  0  0  0  0
  187.3910  178.1190  140.8750 C   0  0  0  0  0  0  0  0  0  0  0  0
  185.6340  178.3550  138.6460 C   0  0  0  0  0  2  0  0  0  0  0  0
  185.2760  179.0920  139.9390 C   0  0  1  0  0  3  0  0  0  0  0  0
  181.2270  177.7320  139.2580 C   0  0  2  0  0  3  0  0  0  0  0  0
  183.4140  177.4240  140.4750 C   0  0  0  0  0  2  0  0  0  0  0  0
  181.4400  179.2390  139.4870 C   0  0  0  0  0  2  0  0  0  0  0  0
  182.8980  179.6530  139.3150 C   0  0  0  0  0  2  0  0  0  0  0  0
  183.8010  178.9110  140.3140 C   0  0  2  0  0  3  0  0  0  0  0  0
  182.5220  176.9190  139.3450 C   0  0  0  0  0  2  0  0  0  0  0  0
  180.5730  177.4680  137.9060 C   0  0  0  0  0  2  0  0  0  0  0  0
  181.9990  178.3290  136.1770 O   0  0  0  0  0  1  0  0  0  0  0  0
  181.6020  177.1540  136.8170 C   0  0  2  0  0  3  0  0  0  0  0  0
  181.0590  176.1670  135.7880 C   0  0  1  0  0  3  0  0  0  0  0  0
  182.0980  175.1190  135.4310 C   0  0  0  0  0  1  0  0  0  0  0  0
  179.9020  175.5480  136.2580 O   0  0  0  0  0  1  0  0  0  0  0  0
  187.4450  177.9240  137.1570 O   0  0  0  0  0  0  0  0  0  0  0  0
  189.1370  179.4760  137.2740 O   0  0  0  0  0  1  0  0  0  0  0  0
  188.8100  178.1540  136.9860 C   0  0  2  0  0  3  0  0  0  0  0  0
  188.7520  175.1910  136.3410 C   0  0  0  0  0  0  0  0  0  0  0  0
  189.3290  176.1370  135.2950 C   0  0  2  0  0  3  0  0  0  0  0  0
  189.5610  174.6030  137.2350 C   0  0  0  0  0  3  0  0  0  0  0  0
  190.6920  176.7670  135.6420 C   0  0  1  0  0  3  0  0  0  0  0  0
  191.0270  174.8670  137.2500 C   0  0  0  0  0  2  0  0  0  0  0  0
  189.4170  177.6340  135.6490 C   0  0  2  0  0  3  0  0  0  0  0  0
  191.2650  176.3420  137.0010 C   0  0  0  0  0  2  0  0  0  0  0  0
  184.9870  172.9140  135.4970 N   0  0  0  0  0  0  0  0  0  0  0  0
  185.1140  174.5360  137.4390 C   0  0  0  0  0  2  0  0  0  0  0  0
  184.3970  172.2910  137.6730 O   0  0  0  0  0  0  0  0  0  0  0  0
  185.7100  173.7670  134.5990 C   0  0  0  0  0  3  0  0  0  0  0  0
  187.3090  174.8260  136.2720 C   0  0  0  0  0  0  0  0  0  0  0  0
  184.8210  173.1860  136.8940 C   0  0  0  0  0  0  0  0  0  0  0  0
  186.5790  174.7940  137.3960 C   0  0  0  0  0  3  0  0  0  0  0  0
  186.7170  174.5860  134.9340 C   0  0  0  0  0  3  0  0  0  0  0  0
  185.0930  170.6250  135.0780 O   0  0  0  0  0  1  0  0  0  0  0  0
  184.3110  171.7680  134.9140 C   0  0  0  0  0  2  0  0  0  0  0  0
  188.1860  177.6520  142.0530 C   0  0  0  0  0  2  0  0  0  0  0  0
  191.1060  177.1000  143.5330 C   0  0  2  0  0  3  0  0  0  0  0  0
  190.5160  178.2220  142.7220 C   0  0  0  0  0  2  0  0  0  0  0  0
  190.5560  175.8520  143.0180 N   0  0  0  0  0  2  0  0  0  0  0  0
  190.0510  176.1150  141.7300 N   0  0  0  0  0  2  0  0  0  0  0  0
  189.6650  177.5180  141.6980 C   0  0  1  0  0  3  0  0  0  0  0  0
  190.7580  177.2700  144.9770 C   0  0  0  0  0  0  0  0  0  0  0  0
  189.1880  177.1330  145.4340 S   0  0  0  0  0  0  0  0  0  0  0  0
  191.7990  177.4070  145.9490 N   0  0  0  0  0  2  0  0  0  0  0  0
  191.9910  175.5980  147.3330 C   0  0  0  0  0  1  0  0  0  0  0  0
  191.6280  177.0010  147.2780 N   0  0  0  0  0  2  0  0  0  0  0  0
  1 19  1  6  0  0  0
  1  5  1  0  0  0  0
  1  2  1  0  0  0  0
  2  4  1  0  0  0  0
  4  3  2  0  0  0  0
  4 39  1  0  0  0  0
  6  5  1  6  0  0  0
  6 11  1  0  0  0  0
  6  3  1  0  0  0  0
  7 13  1  6  0  0  0
  7 12  1  0  0  0  0
  7  9  1  0  0  0  0
 10  9  1  0  0  0  0
 11 10  1  6  0  0  0
 11  8  1  0  0  0  0
 12  8  1  0  0  0  0
 15 14  1  6  0  0  0
 15 13  1  0  0  0  0
 16 17  1  1  0  0  0
 16 18  1  0  0  0  0
 16 15  1  0  0  0  0
 21 19  1  0  0  0  0
 21 20  1  6  0  0  0
 22 24  2  0  0  0  0
 23 25  1  0  0  0  0
 23 27  1  0  0  0  0
 23 22  1  1  0  0  0
 24 26  1  0  0  0  0
 25 27  1  0  0  0  0
 25 28  1  1  0  0  0
 27 21  1  1  0  0  0
 28 26  1  0  0  0  0
 29 34  1  0  0  0  0
 32 36  2  0  0  0  0
 32 29  1  0  0  0  0
 33 22  1  0  0  0  0
 33 35  2  0  0  0  0
 34 30  1  0  0  0  0
 34 31  2  0  0  0  0
 35 30  1  0  0  0  0
 36 33  1  0  0  0  0
 38 37  1  0  0  0  0
 38 29  1  0  0  0  0
 40 45  1  1  0  0  0
 41 40  1  0  0  0  0
 42 40  1  0  0  0  0
 43 42  1  0  0  0  0
 44 43  1  0  0  0  0
 44 39  1  1  0  0  0
 44 41  1  0  0  0  0
 45 46  2  0  0  0  0
 45 47  1  0  0  0  0
 47 49  1  0  0  0  0
 49 48  1  0  0  0  0
M  END
>  <MODEL>
9

>  <REMARK>
 VINA RESULT:      -7.0      3.922      7.257
  Name = 
  14 active torsions:
  status: ('A' for Active; 'I' for Inactive)
    1  A    between atoms: C_1  and  O_22
    2  A    between atoms: C_3  and  C_9
    3  A    between atoms: C_4  and  C_47
    4  A    between atoms: C_5  and  C_28
    5  A    between atoms: C_8  and  C_18
    6  A    between atoms: C_9  and  N_48
    7  A    between atoms: N_12  and  C_42
    8  A    between atoms: C_15  and  C_25
    9  A    between atoms: C_18  and  C_47
   10  A    between atoms: O_22  and  C_38
   11  A    between atoms: C_25  and  C_45
   12  A    between atoms: C_34  and  C_49
   13  A    between atoms: C_37  and  C_38
   14  A    between atoms: N_41  and  N_48
                            x       y       z     vdW  Elec       q    Type
                         _______ _______ _______ _____ _____    ______ ____

>  <TORSDO>
F 14

$$$$
