=
 OpenBabel11032420193D

 32 35  0  0  1  0  0  0  0  0999 V2000
  184.1490  178.2300  141.0840 C   0  0  0  0  0  0  0  0  0  0  0  0
  184.8920  178.9980  138.6760 S   0  0  0  0  0  0  0  0  0  0  0  0
  185.1780  178.7280  140.4110 C   0  0  0  0  0  0  0  0  0  0  0  0
  183.3950  177.9600  138.7990 C   0  0  1  0  0  3  0  0  0  0  0  0
  182.9640  177.8640  140.2580 C   0  0  1  0  0  3  0  0  0  0  0  0
  182.5720  176.5660  140.5310 F   0  0  0  0  0  0  0  0  0  0  0  0
  182.2730  178.4920  137.9160 C   0  0  0  0  0  2  0  0  0  0  0  0
  181.2270  179.1120  138.7180 N   0  0  0  0  0  2  0  0  0  0  0  0
  179.7850  181.2210  139.8210 S   0  0  0  0  0  1  0  0  0  0  0  0
  181.0920  180.5280  138.8200 C   0  0  0  0  0  0  0  0  0  0  0  0
  181.8850  181.2950  138.2120 O   0  0  0  0  0  0  0  0  0  0  0  0
  186.4040  179.1530  141.0240 N   0  0  0  0  0  2  0  0  0  0  0  0
  189.1830  176.8930  142.1120 C   0  0  0  0  0  3  0  0  0  0  0  0
  188.4460  178.4060  139.9070 C   0  0  0  0  0  3  0  0  0  0  0  0
  189.5980  177.6800  139.8960 N   0  0  0  0  0  0  0  0  0  0  0  0
  188.0000  177.6310  142.1440 C   0  0  0  0  0  3  0  0  0  0  0  0
  187.6280  178.4090  141.0390 C   0  0  0  0  0  0  0  0  0  0  0  0
  189.9800  176.9330  140.9660 C   0  0  0  0  0  3  0  0  0  0  0  0
  184.1400  178.1730  142.5150 N   0  0  0  0  0  2  0  0  0  0  0  0
  184.4800  179.3640  144.6720 C   0  0  1  0  0  3  0  0  0  0  0  0
  183.6990  179.2780  143.3560 C   0  0  2  0  0  3  0  0  0  0  0  0
  183.1060  178.7250  144.6360 C   0  0  0  0  0  2  0  0  0  0  0  0
  185.5550  178.2900  144.8340 C   0  0  0  0  0  2  0  0  0  0  0  0
  185.8740  178.1150  146.2090 O   0  0  0  0  0  0  0  0  0  0  0  0
  188.2030  177.4960  145.8050 C   0  0  0  0  0  3  0  0  0  0  0  0
  189.4920  177.3050  146.3030 C   0  0  0  0  0  0  0  0  0  0  0  0
  187.1770  177.9040  146.6700 C   0  0  0  0  0  0  0  0  0  0  0  0
  190.9910  177.3430  148.1700 F   0  0  0  0  0  0  0  0  0  0  0  0
  188.7040  177.9270  148.4940 C   0  0  0  0  0  3  0  0  0  0  0  0
  187.4550  178.1080  147.9870 N   0  0  0  0  0  0  0  0  0  0  0  0
  189.7480  177.5210  147.6600 C   0  0  0  0  0  0  0  0  0  0  0  0
  190.7690  176.7990  145.2150 Cl  0  0  0  0  0  0  0  0  0  0  0  0
  1 19  1  0  0  0  0
  2  4  1  0  0  0  0
  2  3  1  0  0  0  0
  3 12  1  0  0  0  0
  3  1  2  0  0  0  0
  4  7  1  6  0  0  0
  4  5  1  0  0  0  0
  5  6  1  1  0  0  0
  5  1  1  0  0  0  0
  7  8  1  0  0  0  0
  8 10  1  0  0  0  0
 10  9  1  0  0  0  0
 11 10  2  0  0  0  0
 12 17  1  0  0  0  0
 13 16  1  0  0  0  0
 14 17  1  0  0  0  0
 15 14  2  0  0  0  0
 15 18  1  0  0  0  0
 17 16  2  0  0  0  0
 18 13  2  0  0  0  0
 20 23  1  6  0  0  0
 21 19  1  6  0  0  0
 21 22  1  0  0  0  0
 21 20  1  0  0  0  0
 22 20  1  0  0  0  0
 23 24  1  0  0  0  0
 24 27  1  0  0  0  0
 25 26  2  0  0  0  0
 25 27  1  0  0  0  0
 26 31  1  0  0  0  0
 27 30  2  0  0  0  0
 30 29  1  0  0  0  0
 31 28  1  0  0  0  0
 31 29  2  0  0  0  0
 32 26  1  0  0  0  0
M  END
>  <MODEL>
1

>  <REMARK>
 VINA RESULT:      -7.8      0.000      0.000
  Name = 
  9 active torsions:
  status: ('A' for Active; 'I' for Inactive)
    1  A    between atoms: C_3  and  O_8
    2  A    between atoms: C_4  and  C_20
    3  A    between atoms: N_5  and  C_9
    4  A    between atoms: C_6  and  N_30
    5  A    between atoms: O_8  and  C_20
    6  A    between atoms: C_9  and  C_23
    7  A    between atoms: C_13  and  N_30
    8  A    between atoms: N_17  and  C_22
    9  A    between atoms: N_17  and  C_26
                            x       y       z     vdW  Elec       q    Type
                         _______ _______ _______ _____ _____    ______ ____

>  <TORSDO>
F 9

$$$$
=
 OpenBabel11032420193D

 32 35  0  0  1  0  0  0  0  0999 V2000
  184.2230  178.3990  141.4650 C   0  0  0  0  0  0  0  0  0  0  0  0
  183.6170  178.2320  138.9060 S   0  0  0  0  0  0  0  0  0  0  0  0
  183.1950  178.2850  140.6330 C   0  0  0  0  0  0  0  0  0  0  0  0
  185.2870  178.8340  139.3330 C   0  0  1  0  0  3  0  0  0  0  0  0
  185.5510  178.5880  140.8140 C   0  0  1  0  0  3  0  0  0  0  0  0
  186.1950  179.6880  141.3500 F   0  0  0  0  0  0  0  0  0  0  0  0
  186.3540  178.1890  138.4580 C   0  0  0  0  0  2  0  0  0  0  0  0
  187.6590  178.2430  139.1000 N   0  0  0  0  0  2  0  0  0  0  0  0
  190.2420  177.3860  139.6800 S   0  0  0  0  0  1  0  0  0  0  0  0
  188.6620  177.2580  138.8580 C   0  0  0  0  0  0  0  0  0  0  0  0
  188.4450  176.2990  138.0710 O   0  0  0  0  0  0  0  0  0  0  0  0
  181.8400  178.0840  141.0610 N   0  0  0  0  0  2  0  0  0  0  0  0
  179.4690  180.4410  142.7460 C   0  0  0  0  0  3  0  0  0  0  0  0
  180.4560  179.9100  140.2090 C   0  0  0  0  0  3  0  0  0  0  0  0
  179.5620  180.9170  140.4080 N   0  0  0  0  0  0  0  0  0  0  0  0
  180.3830  179.4030  142.5630 C   0  0  0  0  0  3  0  0  0  0  0  0
  180.8750  179.1200  141.2820 C   0  0  0  0  0  0  0  0  0  0  0  0
  179.0630  181.1930  141.6430 C   0  0  0  0  0  3  0  0  0  0  0  0
  184.0740  178.2240  142.8780 N   0  0  0  0  0  2  0  0  0  0  0  0
  185.0560  179.2370  144.9280 C   0  0  1  0  0  3  0  0  0  0  0  0
  184.0040  179.3360  143.8180 C   0  0  2  0  0  3  0  0  0  0  0  0
  183.6260  178.8080  145.1870 C   0  0  0  0  0  2  0  0  0  0  0  0
  185.9620  178.0110  144.8240 C   0  0  0  0  0  2  0  0  0  0  0  0
  186.7130  177.8510  146.0220 O   0  0  0  0  0  0  0  0  0  0  0  0
  188.8800  177.7600  144.8950 C   0  0  0  0  0  3  0  0  0  0  0  0
  190.2430  177.4730  144.9500 C   0  0  0  0  0  0  0  0  0  0  0  0
  188.0820  177.5660  146.0330 C   0  0  0  0  0  0  0  0  0  0  0  0
  192.1230  176.7050  146.2200 F   0  0  0  0  0  0  0  0  0  0  0  0
  189.9790  176.8100  147.2530 C   0  0  0  0  0  3  0  0  0  0  0  0
  188.6520  177.0980  147.1770 N   0  0  0  0  0  0  0  0  0  0  0  0
  190.8010  176.9920  146.1390 C   0  0  0  0  0  0  0  0  0  0  0  0
  191.2350  177.7220  143.5270 Cl  0  0  0  0  0  0  0  0  0  0  0  0
  1 19  1  0  0  0  0
  2  4  1  0  0  0  0
  2  3  1  0  0  0  0
  3 12  1  0  0  0  0
  3  1  2  0  0  0  0
  4  7  1  6  0  0  0
  4  5  1  0  0  0  0
  5  6  1  1  0  0  0
  5  1  1  0  0  0  0
  7  8  1  0  0  0  0
 10  8  1  0  0  0  0
 10  9  1  0  0  0  0
 11 10  2  0  0  0  0
 12 17  1  0  0  0  0
 14 15  2  0  0  0  0
 14 17  1  0  0  0  0
 15 18  1  0  0  0  0
 16 13  1  0  0  0  0
 17 16  2  0  0  0  0
 18 13  2  0  0  0  0
 20 23  1  6  0  0  0
 20 22  1  0  0  0  0
 21 19  1  6  0  0  0
 21 20  1  0  0  0  0
 21 22  1  0  0  0  0
 23 24  1  0  0  0  0
 24 27  1  0  0  0  0
 25 26  2  0  0  0  0
 25 27  1  0  0  0  0
 26 31  1  0  0  0  0
 27 30  2  0  0  0  0
 30 29  1  0  0  0  0
 31 28  1  0  0  0  0
 31 29  2  0  0  0  0
 32 26  1  0  0  0  0
M  END
>  <MODEL>
2

>  <REMARK>
 VINA RESULT:      -7.7      2.681      5.426
  Name = 
  9 active torsions:
  status: ('A' for Active; 'I' for Inactive)
    1  A    between atoms: C_3  and  O_8
    2  A    between atoms: C_4  and  C_20
    3  A    between atoms: N_5  and  C_9
    4  A    between atoms: C_6  and  N_30
    5  A    between atoms: O_8  and  C_20
    6  A    between atoms: C_9  and  C_23
    7  A    between atoms: C_13  and  N_30
    8  A    between atoms: N_17  and  C_22
    9  A    between atoms: N_17  and  C_26
                            x       y       z     vdW  Elec       q    Type
                         _______ _______ _______ _____ _____    ______ ____

>  <TORSDO>
F 9

$$$$
=
 OpenBabel11032420193D

 32 35  0  0  1  0  0  0  0  0999 V2000
  187.5540  178.1590  141.5040 C   0  0  0  0  0  0  0  0  0  0  0  0
  185.1640  178.7990  140.5960 S   0  0  0  0  0  0  0  0  0  0  0  0
  186.8970  178.4560  140.3890 C   0  0  0  0  0  0  0  0  0  0  0  0
  185.2570  178.0720  142.2680 C   0  0  1  0  0  3  0  0  0  0  0  0
  186.7110  178.0420  142.7280 C   0  0  1  0  0  3  0  0  0  0  0  0
  186.9600  176.8420  143.3680 F   0  0  0  0  0  0  0  0  0  0  0  0
  184.3730  178.8250  143.2540 C   0  0  0  0  0  2  0  0  0  0  0  0
  183.1210  179.2280  142.6300 N   0  0  0  0  0  2  0  0  0  0  0  0
  180.3670  179.5940  142.4640 S   0  0  0  0  0  1  0  0  0  0  0  0
  181.8650  179.0770  143.2880 C   0  0  0  0  0  0  0  0  0  0  0  0
  181.8000  178.5820  144.4450 O   0  0  0  0  0  0  0  0  0  0  0  0
  187.5280  178.6260  139.1110 N   0  0  0  0  0  2  0  0  0  0  0  0
  186.2070  177.0880  135.9640 C   0  0  0  0  0  3  0  0  0  0  0  0
  188.3070  176.7540  137.7450 C   0  0  0  0  0  3  0  0  0  0  0  0
  188.1830  175.9410  136.6600 N   0  0  0  0  0  0  0  0  0  0  0  0
  186.3160  177.9300  137.0700 C   0  0  0  0  0  3  0  0  0  0  0  0
  187.3660  177.7580  137.9820 C   0  0  0  0  0  0  0  0  0  0  0  0
  187.1600  176.0850  135.7750 C   0  0  0  0  0  3  0  0  0  0  0  0
  188.9830  178.0860  141.5410 N   0  0  0  0  0  2  0  0  0  0  0  0
  191.0880  176.8020  141.8740 C   0  0  1  0  0  3  0  0  0  0  0  0
  189.7320  176.8940  141.1660 C   0  0  2  0  0  3  0  0  0  0  0  0
  191.0010  177.3070  140.4480 C   0  0  0  0  0  2  0  0  0  0  0  0
  191.3760  177.9620  142.8260 C   0  0  0  0  0  2  0  0  0  0  0  0
  191.8230  177.4680  144.0830 O   0  0  0  0  0  0  0  0  0  0  0  0
  189.6490  177.7640  145.1590 C   0  0  0  0  0  3  0  0  0  0  0  0
  188.8660  177.6840  146.3100 C   0  0  0  0  0  0  0  0  0  0  0  0
  191.0060  177.4110  145.2160 C   0  0  0  0  0  0  0  0  0  0  0  0
  188.7020  177.1680  148.6430 F   0  0  0  0  0  0  0  0  0  0  0  0
  190.7940  176.9110  147.5320 C   0  0  0  0  0  3  0  0  0  0  0  0
  191.5390  176.9940  146.3970 N   0  0  0  0  0  0  0  0  0  0  0  0
  189.4410  177.2550  147.5100 C   0  0  0  0  0  0  0  0  0  0  0  0
  187.1710  178.1230  146.2300 Cl  0  0  0  0  0  0  0  0  0  0  0  0
  1 19  1  0  0  0  0
  1  5  1  0  0  0  0
  2  4  1  0  0  0  0
  3  2  1  0  0  0  0
  3  1  2  0  0  0  0
  4  5  1  0  0  0  0
  4  7  1  1  0  0  0
  5  6  1  6  0  0  0
  8  7  1  0  0  0  0
  8 10  1  0  0  0  0
  9 10  1  0  0  0  0
 10 11  2  0  0  0  0
 12  3  1  0  0  0  0
 13 16  1  0  0  0  0
 14 17  1  0  0  0  0
 15 14  2  0  0  0  0
 16 17  2  0  0  0  0
 17 12  1  0  0  0  0
 18 13  2  0  0  0  0
 18 15  1  0  0  0  0
 20 23  1  1  0  0  0
 21 19  1  1  0  0  0
 21 20  1  0  0  0  0
 22 21  1  0  0  0  0
 22 20  1  0  0  0  0
 23 24  1  0  0  0  0
 24 27  1  0  0  0  0
 25 27  1  0  0  0  0
 25 26  2  0  0  0  0
 26 31  1  0  0  0  0
 27 30  2  0  0  0  0
 30 29  1  0  0  0  0
 31 29  2  0  0  0  0
 31 28  1  0  0  0  0
 32 26  1  0  0  0  0
M  END
>  <MODEL>
3

>  <REMARK>
 VINA RESULT:      -7.6      2.890      4.741
  Name = 
  9 active torsions:
  status: ('A' for Active; 'I' for Inactive)
    1  A    between atoms: C_3  and  O_8
    2  A    between atoms: C_4  and  C_20
    3  A    between atoms: N_5  and  C_9
    4  A    between atoms: C_6  and  N_30
    5  A    between atoms: O_8  and  C_20
    6  A    between atoms: C_9  and  C_23
    7  A    between atoms: C_13  and  N_30
    8  A    between atoms: N_17  and  C_22
    9  A    between atoms: N_17  and  C_26
                            x       y       z     vdW  Elec       q    Type
                         _______ _______ _______ _____ _____    ______ ____

>  <TORSDO>
F 9

$$$$
=
 OpenBabel11032420193D

 32 35  0  0  1  0  0  0  0  0999 V2000
  185.7720  178.5290  139.7410 C   0  0  0  0  0  0  0  0  0  0  0  0
  183.2210  178.4480  140.3930 S   0  0  0  0  0  0  0  0  0  0  0  0
  184.9080  178.9460  140.6580 C   0  0  0  0  0  0  0  0  0  0  0  0
  183.6620  177.9920  138.6810 C   0  0  1  0  0  3  0  0  0  0  0  0
  185.1730  177.8160  138.5770 C   0  0  1  0  0  3  0  0  0  0  0  0
  185.6150  178.3770  137.3930 F   0  0  0  0  0  0  0  0  0  0  0  0
  182.9190  176.7410  138.2280 C   0  0  0  0  0  2  0  0  0  0  0  0
  183.8410  175.6360  138.0110 N   0  0  0  0  0  2  0  0  0  0  0  0
  184.5770  173.0330  137.3590 S   0  0  0  0  0  1  0  0  0  0  0  0
  183.3900  174.3440  137.6080 C   0  0  0  0  0  0  0  0  0  0  0  0
  182.1640  174.1180  137.4280 O   0  0  0  0  0  0  0  0  0  0  0  0
  185.2870  179.6380  141.8560 N   0  0  0  0  0  2  0  0  0  0  0  0
  185.7710  177.8050  145.0850 C   0  0  0  0  0  3  0  0  0  0  0  0
  184.0430  179.6610  143.9610 C   0  0  0  0  0  3  0  0  0  0  0  0
  183.8640  179.2340  145.2410 N   0  0  0  0  0  0  0  0  0  0  0  0
  185.9700  178.2290  143.7710 C   0  0  0  0  0  3  0  0  0  0  0  0
  185.0930  179.1550  143.1920 C   0  0  0  0  0  0  0  0  0  0  0  0
  184.6970  178.3230  145.8110 C   0  0  0  0  0  3  0  0  0  0  0  0
  187.1870  178.6460  139.9290 N   0  0  0  0  0  2  0  0  0  0  0  0
  189.1540  177.2090  140.4360 C   0  0  1  0  0  3  0  0  0  0  0  0
  188.1470  177.6930  139.3870 C   0  0  2  0  0  3  0  0  0  0  0  0
  189.5360  178.2940  139.4500 C   0  0  0  0  0  2  0  0  0  0  0  0
  188.9480  177.8100  141.8250 C   0  0  0  0  0  2  0  0  0  0  0  0
  190.1960  177.9460  142.4930 O   0  0  0  0  0  0  0  0  0  0  0  0
  189.4700  177.9250  144.8260 C   0  0  0  0  0  2  0  0  0  0  0  0
  189.6980  177.5300  146.1450 C   0  0  0  0  0  0  0  0  0  0  0  0
  190.3930  177.5790  143.8280 C   0  0  0  0  0  0  0  0  0  0  0  0
  191.0910  176.3990  147.7300 F   0  0  0  0  0  0  0  0  0  0  0  0
  191.7440  176.4670  145.4400 C   0  0  0  0  0  2  0  0  0  0  0  0
  191.5000  176.8610  144.1610 N   0  0  0  0  0  0  0  0  0  0  0  0
  190.8450  176.7950  146.4580 C   0  0  0  0  0  0  0  0  0  0  0  0
  188.5390  177.9630  147.3860 Cl  0  0  0  0  0  0  0  0  0  0  0  0
  1 19  1  0  0  0  0
  1  3  2  0  0  0  0
  2  3  1  0  0  0  0
  3 12  1  0  0  0  0
  4  7  1  1  0  0  0
  4  2  1  0  0  0  0
  5  6  1  6  0  0  0
  5  4  1  0  0  0  0
  5  1  1  0  0  0  0
  8  7  1  0  0  0  0
  9 10  1  0  0  0  0
 10  8  1  0  0  0  0
 11 10  2  0  0  0  0
 12 17  1  0  0  0  0
 13 18  1  0  0  0  0
 14 15  1  0  0  0  0
 15 18  2  0  0  0  0
 16 13  2  0  0  0  0
 17 16  1  0  0  0  0
 17 14  2  0  0  0  0
 20 23  1  1  0  0  0
 21 22  1  0  0  0  0
 21 19  1  1  0  0  0
 21 20  1  0  0  0  0
 22 20  1  0  0  0  0
 23 24  1  0  0  0  0
 24 27  1  0  0  0  0
 25 26  1  0  0  0  0
 26 31  2  0  0  0  0
 26 32  1  0  0  0  0
 27 30  2  0  0  0  0
 27 25  1  0  0  0  0
 29 31  1  0  0  0  0
 30 29  1  0  0  0  0
 31 28  1  0  0  0  0
M  END
>  <MODEL>
4

>  <REMARK>
 VINA RESULT:      -7.5      2.877      4.888
  Name = 
  9 active torsions:
  status: ('A' for Active; 'I' for Inactive)
    1  A    between atoms: C_3  and  O_8
    2  A    between atoms: C_4  and  C_20
    3  A    between atoms: N_5  and  C_9
    4  A    between atoms: C_6  and  N_30
    5  A    between atoms: O_8  and  C_20
    6  A    between atoms: C_9  and  C_23
    7  A    between atoms: C_13  and  N_30
    8  A    between atoms: N_17  and  C_22
    9  A    between atoms: N_17  and  C_26
                            x       y       z     vdW  Elec       q    Type
                         _______ _______ _______ _____ _____    ______ ____

>  <TORSDO>
F 9

$$$$
=
 OpenBabel11032420193D

 32 35  0  0  1  0  0  0  0  0999 V2000
  188.8340  177.5330  139.6730 C   0  0  0  0  0  0  0  0  0  0  0  0
  186.9000  177.9430  137.9310 S   0  0  0  0  0  0  0  0  0  0  0  0
  187.7320  178.2460  139.4740 C   0  0  0  0  0  0  0  0  0  0  0  0
  188.3970  177.0870  137.3330 C   0  0  1  0  0  3  0  0  0  0  0  0
  189.2610  176.6860  138.5230 C   0  0  1  0  0  3  0  0  0  0  0  0
  190.5900  176.9240  138.2210 F   0  0  0  0  0  0  0  0  0  0  0  0
  188.0450  175.8850  136.4650 C   0  0  0  0  0  2  0  0  0  0  0  0
  187.2200  174.9350  137.1990 N   0  0  0  0  0  2  0  0  0  0  0  0
  185.0690  173.2160  137.5960 S   0  0  0  0  0  1  0  0  0  0  0  0
  186.0330  174.3760  136.6400 C   0  0  0  0  0  0  0  0  0  0  0  0
  185.6580  174.6910  135.4790 O   0  0  0  0  0  0  0  0  0  0  0  0
  187.1510  179.1110  140.4600 N   0  0  0  0  0  2  0  0  0  0  0  0
  184.8060  178.2530  143.2500 C   0  0  0  0  0  3  0  0  0  0  0  0
  184.7110  179.0050  140.5820 C   0  0  0  0  0  3  0  0  0  0  0  0
  183.5640  178.7820  141.2800 N   0  0  0  0  0  0  0  0  0  0  0  0
  185.9930  178.4750  142.5520 C   0  0  0  0  0  3  0  0  0  0  0  0
  185.9530  178.8420  141.2000 C   0  0  0  0  0  0  0  0  0  0  0  0
  183.5870  178.4100  142.5880 C   0  0  0  0  0  3  0  0  0  0  0  0
  189.4840  177.4890  140.9470 N   0  0  0  0  0  2  0  0  0  0  0  0
  190.6200  176.0220  142.6050 C   0  0  1  0  0  3  0  0  0  0  0  0
  190.6600  176.6710  141.2180 C   0  0  2  0  0  3  0  0  0  0  0  0
  191.4350  177.2770  142.3700 C   0  0  0  0  0  2  0  0  0  0  0  0
  189.3670  176.3520  143.4150 C   0  0  0  0  0  2  0  0  0  0  0  0
  189.6170  177.4530  144.2810 O   0  0  0  0  0  0  0  0  0  0  0  0
  187.6670  177.8720  145.6920 C   0  0  0  0  0  3  0  0  0  0  0  0
  187.1190  177.9810  146.9710 C   0  0  0  0  0  0  0  0  0  0  0  0
  189.0310  177.5800  145.5440 C   0  0  0  0  0  0  0  0  0  0  0  0
  187.4280  177.8980  149.3440 F   0  0  0  0  0  0  0  0  0  0  0  0
  189.2880  177.5080  147.9080 C   0  0  0  0  0  3  0  0  0  0  0  0
  189.8020  177.4050  146.6520 N   0  0  0  0  0  0  0  0  0  0  0  0
  187.9350  177.7990  148.0910 C   0  0  0  0  0  0  0  0  0  0  0  0
  185.4130  178.3420  147.1480 Cl  0  0  0  0  0  0  0  0  0  0  0  0
  1 19  1  0  0  0  0
  2  3  1  0  0  0  0
  3  1  2  0  0  0  0
  3 12  1  0  0  0  0
  4  7  1  1  0  0  0
  4  2  1  0  0  0  0
  4  5  1  0  0  0  0
  5  6  1  6  0  0  0
  5  1  1  0  0  0  0
  7  8  1  0  0  0  0
 10  8  1  0  0  0  0
 10  9  1  0  0  0  0
 11 10  2  0  0  0  0
 12 17  1  0  0  0  0
 14 17  2  0  0  0  0
 14 15  1  0  0  0  0
 15 18  2  0  0  0  0
 16 13  2  0  0  0  0
 17 16  1  0  0  0  0
 18 13  1  0  0  0  0
 20 23  1  1  0  0  0
 21 19  1  1  0  0  0
 21 22  1  0  0  0  0
 21 20  1  0  0  0  0
 22 20  1  0  0  0  0
 23 24  1  0  0  0  0
 24 27  1  0  0  0  0
 25 26  2  0  0  0  0
 26 32  1  0  0  0  0
 26 31  1  0  0  0  0
 27 25  1  0  0  0  0
 27 30  2  0  0  0  0
 29 31  2  0  0  0  0
 30 29  1  0  0  0  0
 31 28  1  0  0  0  0
M  END
>  <MODEL>
5

>  <REMARK>
 VINA RESULT:      -7.5      3.384      5.507
  Name = 
  9 active torsions:
  status: ('A' for Active; 'I' for Inactive)
    1  A    between atoms: C_3  and  O_8
    2  A    between atoms: C_4  and  C_20
    3  A    between atoms: N_5  and  C_9
    4  A    between atoms: C_6  and  N_30
    5  A    between atoms: O_8  and  C_20
    6  A    between atoms: C_9  and  C_23
    7  A    between atoms: C_13  and  N_30
    8  A    between atoms: N_17  and  C_22
    9  A    between atoms: N_17  and  C_26
                            x       y       z     vdW  Elec       q    Type
                         _______ _______ _______ _____ _____    ______ ____

>  <TORSDO>
F 9

$$$$
=
 OpenBabel11032420193D

 32 35  0  0  1  0  0  0  0  0999 V2000
  187.7550  177.6050  142.5880 C   0  0  0  0  0  0  0  0  0  0  0  0
  185.2980  178.2090  143.3220 S   0  0  0  0  0  0  0  0  0  0  0  0
  186.9050  177.4990  143.6010 C   0  0  0  0  0  0  0  0  0  0  0  0
  185.9770  179.0850  141.8720 C   0  0  1  0  0  3  0  0  0  0  0  0
  187.2690  178.4070  141.4290 C   0  0  1  0  0  3  0  0  0  0  0  0
  188.1980  179.3750  141.0930 F   0  0  0  0  0  0  0  0  0  0  0  0
  184.9630  179.1560  140.7370 C   0  0  0  0  0  2  0  0  0  0  0  0
  183.6620  178.6630  141.1680 N   0  0  0  0  0  2  0  0  0  0  0  0
  180.9190  178.2360  140.9830 S   0  0  0  0  0  1  0  0  0  0  0  0
  182.4820  178.8680  140.3940 C   0  0  0  0  0  0  0  0  0  0  0  0
  182.5300  179.4920  139.3010 O   0  0  0  0  0  0  0  0  0  0  0  0
  187.1800  176.7590  144.8000 N   0  0  0  0  0  2  0  0  0  0  0  0
  187.5330  178.5040  148.0930 C   0  0  0  0  0  3  0  0  0  0  0  0
  189.0850  177.0620  146.3020 C   0  0  0  0  0  3  0  0  0  0  0  0
  189.6250  177.5450  147.4540 N   0  0  0  0  0  0  0  0  0  0  0  0
  186.9610  178.0190  146.9170 C   0  0  0  0  0  3  0  0  0  0  0  0
  187.7420  177.3010  146.0020 C   0  0  0  0  0  0  0  0  0  0  0  0
  188.8840  178.2570  148.3450 C   0  0  0  0  0  3  0  0  0  0  0  0
  188.9960  176.8910  142.5650 N   0  0  0  0  0  2  0  0  0  0  0  0
  191.2730  177.4900  141.7590 C   0  0  1  0  0  3  0  0  0  0  0  0
  190.2730  177.4960  142.9210 C   0  0  2  0  0  3  0  0  0  0  0  0
  191.3610  176.4440  142.8510 C   0  0  0  0  0  2  0  0  0  0  0  0
  190.7340  176.8640  140.4740 C   0  0  0  0  0  2  0  0  0  0  0  0
  190.4960  177.8710  139.4980 O   0  0  0  0  0  0  0  0  0  0  0  0
  188.7300  176.6320  138.3510 C   0  0  0  0  0  2  0  0  0  0  0  0
  187.6670  176.6270  137.4480 C   0  0  0  0  0  0  0  0  0  0  0  0
  189.4310  177.8230  138.5930 C   0  0  0  0  0  0  0  0  0  0  0  0
  186.2830  177.8330  135.9100 F   0  0  0  0  0  0  0  0  0  0  0  0
  188.0300  178.9780  137.0560 C   0  0  0  0  0  2  0  0  0  0  0  0
  189.0630  178.9590  137.9420 N   0  0  0  0  0  0  0  0  0  0  0  0
  187.3120  177.8090  136.7920 C   0  0  0  0  0  0  0  0  0  0  0  0
  186.7930  175.1370  137.1540 Cl  0  0  0  0  0  0  0  0  0  0  0  0
  1  3  2  0  0  0  0
  2  3  1  0  0  0  0
  3 12  1  0  0  0  0
  4  7  1  6  0  0  0
  4  2  1  0  0  0  0
  5  6  1  1  0  0  0
  5  4  1  0  0  0  0
  5  1  1  0  0  0  0
  7  8  1  0  0  0  0
 10  9  1  0  0  0  0
 10  8  1  0  0  0  0
 11 10  2  0  0  0  0
 12 17  1  0  0  0  0
 13 18  1  0  0  0  0
 14 15  1  0  0  0  0
 15 18  2  0  0  0  0
 16 13  2  0  0  0  0
 17 14  2  0  0  0  0
 17 16  1  0  0  0  0
 19  1  1  0  0  0  0
 20 23  1  6  0  0  0
 20 22  1  0  0  0  0
 20 21  1  0  0  0  0
 21 19  1  6  0  0  0
 22 21  1  0  0  0  0
 24 23  1  0  0  0  0
 25 27  1  0  0  0  0
 26 25  1  0  0  0  0
 27 24  1  0  0  0  0
 28 31  1  0  0  0  0
 29 30  1  0  0  0  0
 30 27  2  0  0  0  0
 31 29  1  0  0  0  0
 31 26  2  0  0  0  0
 32 26  1  0  0  0  0
M  END
>  <MODEL>
6

>  <REMARK>
 VINA RESULT:      -7.4      3.456      7.066
  Name = 
  9 active torsions:
  status: ('A' for Active; 'I' for Inactive)
    1  A    between atoms: C_3  and  O_8
    2  A    between atoms: C_4  and  C_20
    3  A    between atoms: N_5  and  C_9
    4  A    between atoms: C_6  and  N_30
    5  A    between atoms: O_8  and  C_20
    6  A    between atoms: C_9  and  C_23
    7  A    between atoms: C_13  and  N_30
    8  A    between atoms: N_17  and  C_22
    9  A    between atoms: N_17  and  C_26
                            x       y       z     vdW  Elec       q    Type
                         _______ _______ _______ _____ _____    ______ ____

>  <TORSDO>
F 9

$$$$
=
 OpenBabel11032420193D

 32 35  0  0  1  0  0  0  0  0999 V2000
  185.4310  178.6290  140.1950 C   0  0  0  0  0  0  0  0  0  0  0  0
  182.9080  178.4380  140.9310 S   0  0  0  0  0  0  0  0  0  0  0  0
  184.5830  178.9960  141.1490 C   0  0  0  0  0  0  0  0  0  0  0  0
  183.3070  178.0310  139.1970 C   0  0  1  0  0  3  0  0  0  0  0  0
  184.8190  177.9160  139.0380 C   0  0  1  0  0  3  0  0  0  0  0  0
  185.1980  178.5160  137.8510 F   0  0  0  0  0  0  0  0  0  0  0  0
  182.5970  176.7620  138.7440 C   0  0  0  0  0  2  0  0  0  0  0  0
  181.6330  176.3190  139.7420 N   0  0  0  0  0  2  0  0  0  0  0  0
  179.1320  175.5600  140.6950 S   0  0  0  0  0  1  0  0  0  0  0  0
  180.2590  176.1050  139.4220 C   0  0  0  0  0  0  0  0  0  0  0  0
  179.8330  176.2970  138.2520 O   0  0  0  0  0  0  0  0  0  0  0  0
  184.9770  179.6800  142.3470 N   0  0  0  0  0  2  0  0  0  0  0  0
  185.8590  177.8200  145.4740 C   0  0  0  0  0  3  0  0  0  0  0  0
  183.8610  179.4870  144.5140 C   0  0  0  0  0  3  0  0  0  0  0  0
  183.8070  179.0020  145.7850 N   0  0  0  0  0  0  0  0  0  0  0  0
  185.9310  178.3050  144.1690 C   0  0  0  0  0  3  0  0  0  0  0  0
  184.9190  179.1360  143.6720 C   0  0  0  0  0  0  0  0  0  0  0  0
  184.7740  178.1810  146.2760 C   0  0  0  0  0  3  0  0  0  0  0  0
  186.8460  178.7980  140.3370 N   0  0  0  0  0  2  0  0  0  0  0  0
  188.9400  177.4990  140.6770 C   0  0  1  0  0  3  0  0  0  0  0  0
  187.8220  177.9140  139.7140 C   0  0  2  0  0  3  0  0  0  0  0  0
  189.1680  178.6080  139.6700 C   0  0  0  0  0  2  0  0  0  0  0  0
  188.8050  178.0840  142.0820 C   0  0  0  0  0  2  0  0  0  0  0  0
  190.0810  178.1680  142.7060 O   0  0  0  0  0  0  0  0  0  0  0  0
  189.5190  178.0280  145.0800 C   0  0  0  0  0  2  0  0  0  0  0  0
  189.8020  177.5150  146.3460 C   0  0  0  0  0  0  0  0  0  0  0  0
  190.3360  177.6830  143.9930 C   0  0  0  0  0  0  0  0  0  0  0  0
  191.1950  176.1530  147.7380 F   0  0  0  0  0  0  0  0  0  0  0  0
  191.6910  176.3430  145.4150 C   0  0  0  0  0  2  0  0  0  0  0  0
  191.3950  176.8520  144.1890 N   0  0  0  0  0  0  0  0  0  0  0  0
  190.8980  176.6650  146.5190 C   0  0  0  0  0  0  0  0  0  0  0  0
  188.7740  177.9470  147.6990 Cl  0  0  0  0  0  0  0  0  0  0  0  0
  1 19  1  0  0  0  0
  1  3  2  0  0  0  0
  2  3  1  0  0  0  0
  3 12  1  0  0  0  0
  4  7  1  1  0  0  0
  4  2  1  0  0  0  0
  5  6  1  6  0  0  0
  5  4  1  0  0  0  0
  5  1  1  0  0  0  0
  7  8  1  0  0  0  0
 10  8  1  0  0  0  0
 10  9  1  0  0  0  0
 11 10  2  0  0  0  0
 12 17  1  0  0  0  0
 13 18  1  0  0  0  0
 14 15  1  0  0  0  0
 15 18  2  0  0  0  0
 16 13  2  0  0  0  0
 17 16  1  0  0  0  0
 17 14  2  0  0  0  0
 20 23  1  1  0  0  0
 21 19  1  1  0  0  0
 21 20  1  0  0  0  0
 22 21  1  0  0  0  0
 22 20  1  0  0  0  0
 23 24  1  0  0  0  0
 24 27  1  0  0  0  0
 25 26  1  0  0  0  0
 26 31  2  0  0  0  0
 26 32  1  0  0  0  0
 27 30  2  0  0  0  0
 27 25  1  0  0  0  0
 29 31  1  0  0  0  0
 30 29  1  0  0  0  0
 31 28  1  0  0  0  0
M  END
>  <MODEL>
7

>  <REMARK>
 VINA RESULT:      -7.4      2.632      4.455
  Name = 
  9 active torsions:
  status: ('A' for Active; 'I' for Inactive)
    1  A    between atoms: C_3  and  O_8
    2  A    between atoms: C_4  and  C_20
    3  A    between atoms: N_5  and  C_9
    4  A    between atoms: C_6  and  N_30
    5  A    between atoms: O_8  and  C_20
    6  A    between atoms: C_9  and  C_23
    7  A    between atoms: C_13  and  N_30
    8  A    between atoms: N_17  and  C_22
    9  A    between atoms: N_17  and  C_26
                            x       y       z     vdW  Elec       q    Type
                         _______ _______ _______ _____ _____    ______ ____

>  <TORSDO>
F 9

$$$$
=
 OpenBabel11032420193D

 32 35  0  0  1  0  0  0  0  0999 V2000
  187.1850  178.4040  140.4250 C   0  0  0  0  0  0  0  0  0  0  0  0
  184.6250  178.9980  140.2310 S   0  0  0  0  0  0  0  0  0  0  0  0
  186.2160  178.6050  139.5400 C   0  0  0  0  0  0  0  0  0  0  0  0
  185.2320  178.4320  141.8570 C   0  0  1  0  0  3  0  0  0  0  0  0
  186.7570  178.4200  141.8530 C   0  0  1  0  0  3  0  0  0  0  0  0
  187.2040  177.2820  142.4990 F   0  0  0  0  0  0  0  0  0  0  0  0
  184.6810  179.2910  142.9890 C   0  0  0  0  0  2  0  0  0  0  0  0
  185.4070  179.0500  144.2280 N   0  0  0  0  0  2  0  0  0  0  0  0
  185.6900  178.6260  146.9630 S   0  0  0  0  0  1  0  0  0  0  0  0
  184.7380  178.9220  145.4820 C   0  0  0  0  0  0  0  0  0  0  0  0
  183.4840  179.0150  145.5550 O   0  0  0  0  0  0  0  0  0  0  0  0
  186.4260  178.6410  138.1210 N   0  0  0  0  0  2  0  0  0  0  0  0
  184.8050  175.8860  136.1710 C   0  0  0  0  0  3  0  0  0  0  0  0
  187.2850  177.1030  136.4250 C   0  0  0  0  0  3  0  0  0  0  0  0
  187.1020  176.0800  135.5460 N   0  0  0  0  0  0  0  0  0  0  0  0
  184.9730  176.9320  137.0790 C   0  0  0  0  0  3  0  0  0  0  0  0
  186.2250  177.5420  137.2230 C   0  0  0  0  0  0  0  0  0  0  0  0
  185.8960  175.4680  135.4070 C   0  0  0  0  0  3  0  0  0  0  0  0
  188.5580  178.3090  140.0330 N   0  0  0  0  0  2  0  0  0  0  0  0
  190.3600  176.8010  140.8510 C   0  0  1  0  0  3  0  0  0  0  0  0
  189.2450  177.0400  139.8280 C   0  0  2  0  0  3  0  0  0  0  0  0
  190.6900  177.3080  139.4620 C   0  0  0  0  0  2  0  0  0  0  0  0
  190.5230  177.9250  141.8730 C   0  0  0  0  0  2  0  0  0  0  0  0
  191.3620  177.5010  142.9410 O   0  0  0  0  0  0  0  0  0  0  0  0
  191.6680  176.6730  145.2200 C   0  0  0  0  0  2  0  0  0  0  0  0
  191.1870  176.5600  146.5240 C   0  0  0  0  0  0  0  0  0  0  0  0
  190.9110  177.3570  144.2570 C   0  0  0  0  0  0  0  0  0  0  0  0
  189.4640  177.0330  148.1180 F   0  0  0  0  0  0  0  0  0  0  0  0
  189.2270  177.8030  145.8760 C   0  0  0  0  0  2  0  0  0  0  0  0
  189.7160  177.9030  144.6100 N   0  0  0  0  0  0  0  0  0  0  0  0
  189.9550  177.1280  146.8580 C   0  0  0  0  0  0  0  0  0  0  0  0
  192.1400  175.7070  147.7220 Cl  0  0  0  0  0  0  0  0  0  0  0  0
  1  5  1  0  0  0  0
  2  4  1  0  0  0  0
  3  2  1  0  0  0  0
  3  1  2  0  0  0  0
  4  7  1  1  0  0  0
  5  4  1  0  0  0  0
  5  6  1  1  0  0  0
  7  8  1  0  0  0  0
  8 10  1  0  0  0  0
 10 11  2  0  0  0  0
 10  9  1  0  0  0  0
 12  3  1  0  0  0  0
 13 16  1  0  0  0  0
 14 17  1  0  0  0  0
 15 14  2  0  0  0  0
 16 17  2  0  0  0  0
 17 12  1  0  0  0  0
 18 15  1  0  0  0  0
 18 13  2  0  0  0  0
 19  1  1  0  0  0  0
 20 23  1  1  0  0  0
 21 19  1  1  0  0  0
 21 20  1  0  0  0  0
 22 21  1  0  0  0  0
 22 20  1  0  0  0  0
 23 24  1  0  0  0  0
 24 27  1  0  0  0  0
 25 26  1  0  0  0  0
 26 31  2  0  0  0  0
 26 32  1  0  0  0  0
 27 30  2  0  0  0  0
 27 25  1  0  0  0  0
 29 31  1  0  0  0  0
 30 29  1  0  0  0  0
 31 28  1  0  0  0  0
M  END
>  <MODEL>
8

>  <REMARK>
 VINA RESULT:      -7.4      3.156      5.413
  Name = 
  9 active torsions:
  status: ('A' for Active; 'I' for Inactive)
    1  A    between atoms: C_3  and  O_8
    2  A    between atoms: C_4  and  C_20
    3  A    between atoms: N_5  and  C_9
    4  A    between atoms: C_6  and  N_30
    5  A    between atoms: O_8  and  C_20
    6  A    between atoms: C_9  and  C_23
    7  A    between atoms: C_13  and  N_30
    8  A    between atoms: N_17  and  C_22
    9  A    between atoms: N_17  and  C_26
                            x       y       z     vdW  Elec       q    Type
                         _______ _______ _______ _____ _____    ______ ____

>  <TORSDO>
F 9

$$$$
=
 OpenBabel11032420193D

 32 35  0  0  1  0  0  0  0  0999 V2000
  187.6740  177.6530  142.8920 C   0  0  0  0  0  0  0  0  0  0  0  0
  185.1350  178.2500  143.2640 S   0  0  0  0  0  0  0  0  0  0  0  0
  186.6950  177.5730  143.7850 C   0  0  0  0  0  0  0  0  0  0  0  0
  185.9960  179.0810  141.8850 C   0  0  1  0  0  3  0  0  0  0  0  0
  187.3420  178.4040  141.6480 C   0  0  1  0  0  3  0  0  0  0  0  0
  188.3000  179.3710  141.4020 F   0  0  0  0  0  0  0  0  0  0  0  0
  185.1450  179.0950  140.6220 C   0  0  0  0  0  2  0  0  0  0  0  0
  185.9090  178.6310  139.4720 N   0  0  0  0  0  2  0  0  0  0  0  0
  186.2740  177.5540  136.9320 S   0  0  0  0  0  1  0  0  0  0  0  0
  185.2750  178.1050  138.3070 C   0  0  0  0  0  0  0  0  0  0  0  0
  184.0200  178.0240  138.2380 O   0  0  0  0  0  0  0  0  0  0  0  0
  186.8110  176.8830  145.0370 N   0  0  0  0  0  2  0  0  0  0  0  0
  189.4140  177.6670  147.6110 C   0  0  0  0  0  3  0  0  0  0  0  0
  186.7470  178.2180  147.0840 C   0  0  0  0  0  3  0  0  0  0  0  0
  187.3560  178.7330  148.1870 N   0  0  0  0  0  0  0  0  0  0  0  0
  188.8080  177.1280  146.4760 C   0  0  0  0  0  3  0  0  0  0  0  0
  187.4570  177.3910  146.2110 C   0  0  0  0  0  0  0  0  0  0  0  0
  188.6620  178.4740  148.4660 C   0  0  0  0  0  3  0  0  0  0  0  0
  188.9120  176.9550  143.0650 N   0  0  0  0  0  2  0  0  0  0  0  0
  191.1310  177.4980  142.0800 C   0  0  1  0  0  3  0  0  0  0  0  0
  190.1860  177.6290  143.2790 C   0  0  2  0  0  3  0  0  0  0  0  0
  191.2990  176.6010  143.2890 C   0  0  0  0  0  2  0  0  0  0  0  0
  190.5530  176.7020  140.9110 C   0  0  0  0  0  2  0  0  0  0  0  0
  191.2130  177.0530  139.7010 O   0  0  0  0  0  0  0  0  0  0  0  0
  190.3690  177.1260  137.4090 C   0  0  0  0  0  3  0  0  0  0  0  0
  190.1330  176.4680  136.2020 C   0  0  0  0  0  0  0  0  0  0  0  0
  190.9510  176.4280  138.4780 C   0  0  0  0  0  0  0  0  0  0  0  0
  190.2580  174.4570  134.9080 F   0  0  0  0  0  0  0  0  0  0  0  0
  191.0540  174.4550  137.1540 C   0  0  0  0  0  3  0  0  0  0  0  0
  191.2770  175.1160  138.3210 N   0  0  0  0  0  0  0  0  0  0  0  0
  190.4760  175.1200  136.0700 C   0  0  0  0  0  0  0  0  0  0  0  0
  189.4100  177.3470  134.8690 Cl  0  0  0  0  0  0  0  0  0  0  0  0
  1 19  1  0  0  0  0
  1  3  2  0  0  0  0
  2  3  1  0  0  0  0
  3 12  1  0  0  0  0
  4  7  1  6  0  0  0
  4  2  1  0  0  0  0
  5  6  1  1  0  0  0
  5  4  1  0  0  0  0
  5  1  1  0  0  0  0
  8  7  1  0  0  0  0
  9 10  1  0  0  0  0
 10  8  1  0  0  0  0
 11 10  2  0  0  0  0
 12 17  1  0  0  0  0
 13 18  1  0  0  0  0
 14 15  1  0  0  0  0
 15 18  2  0  0  0  0
 16 13  2  0  0  0  0
 17 16  1  0  0  0  0
 17 14  2  0  0  0  0
 20 23  1  6  0  0  0
 20 21  1  0  0  0  0
 20 22  1  0  0  0  0
 21 19  1  6  0  0  0
 21 22  1  0  0  0  0
 24 23  1  0  0  0  0
 25 27  1  0  0  0  0
 26 25  2  0  0  0  0
 27 24  1  0  0  0  0
 28 31  1  0  0  0  0
 29 30  1  0  0  0  0
 30 27  2  0  0  0  0
 31 26  1  0  0  0  0
 31 29  2  0  0  0  0
 32 26  1  0  0  0  0
M  END
>  <MODEL>
9

>  <REMARK>
 VINA RESULT:      -7.2      4.001      7.574
  Name = 
  9 active torsions:
  status: ('A' for Active; 'I' for Inactive)
    1  A    between atoms: C_3  and  O_8
    2  A    between atoms: C_4  and  C_20
    3  A    between atoms: N_5  and  C_9
    4  A    between atoms: C_6  and  N_30
    5  A    between atoms: O_8  and  C_20
    6  A    between atoms: C_9  and  C_23
    7  A    between atoms: C_13  and  N_30
    8  A    between atoms: N_17  and  C_22
    9  A    between atoms: N_17  and  C_26
                            x       y       z     vdW  Elec       q    Type
                         _______ _______ _______ _____ _____    ______ ____

>  <TORSDO>
F 9

$$$$
