=
 OpenBabel11042411283D

 55 61  0  0  1  0  0  0  0  0999 V2000
  189.0240  177.7620  140.9590 N   0  0  1  0  0  0  0  0  0  0  0  0
  191.5180  176.7580  139.1280 N   0  0  0  0  0  0  0  0  0  0  0  0
  189.4470  176.1410  138.2220 O   0  0  0  0  0  0  0  0  0  0  0  0
  186.9620  178.5030  139.1980 C   0  0  0  0  0  0  0  0  0  0  0  0
  190.1120  176.9680  138.9050 C   0  0  0  0  0  0  0  0  0  0  0  0
  185.4100  178.5520  141.0780 C   0  0  0  0  0  0  0  0  0  0  0  0
  192.1300  177.3360  140.3240 C   0  0  0  0  0  2  0  0  0  0  0  0
  189.4040  178.1170  139.5650 C   0  0  1  0  0  3  0  0  0  0  0  0
  188.2800  178.4650  138.7380 O   0  0  0  0  0  0  0  0  0  0  0  0
  186.7280  178.5190  140.5690 C   0  0  0  0  0  0  0  0  0  0  0  0
  185.8900  178.5230  138.2980 C   0  0  0  0  0  0  0  0  0  0  0  0
  190.1880  177.9150  141.8740 C   0  0  2  0  0  3  0  0  0  0  0  0
  190.9420  175.6230  141.5560 O   0  0  0  0  0  1  0  0  0  0  0  0
  184.3250  178.5490  140.1640 C   0  0  0  0  0  0  0  0  0  0  0  0
  191.3540  176.9590  141.5830 C   0  0  1  0  0  3  0  0  0  0  0  0
  187.9360  178.6470  141.4350 C   0  0  2  0  0  3  0  0  0  0  0  0
  188.3480  179.9860  141.4740 O   0  0  0  0  0  1  0  0  0  0  0  0
  184.5830  178.5370  138.7850 C   0  0  0  0  0  3  0  0  0  0  0  0
  185.1780  178.5880  142.5420 C   0  0  0  0  0  0  0  0  0  0  0  0
  186.0290  177.8890  143.4100 C   0  0  0  0  0  3  0  0  0  0  0  0
  184.5400  178.7000  146.6520 F   0  0  0  0  0  0  0  0  0  0  0  0
  184.1110  179.3270  143.0740 C   0  0  0  0  0  3  0  0  0  0  0  0
  183.8960  179.3650  144.4550 C   0  0  0  0  0  3  0  0  0  0  0  0
  184.7490  178.6640  145.3140 C   0  0  0  0  0  0  0  0  0  0  0  0
  185.8140  177.9270  144.7920 C   0  0  0  0  0  3  0  0  0  0  0  0
  193.9180  174.4650  136.5190 N   0  0  0  0  0  0  0  0  0  0  0  0
  192.8310  173.8930  137.1000 C   0  0  0  0  0  3  0  0  0  0  0  0
  192.0250  174.6370  137.9620 C   0  0  0  0  0  3  0  0  0  0  0  0
  192.3340  175.9820  138.2240 C   0  0  0  0  0  0  0  0  0  0  0  0
  194.2500  175.7630  136.7570 C   0  0  0  0  0  3  0  0  0  0  0  0
  193.4680  176.5390  137.6120 C   0  0  0  0  0  3  0  0  0  0  0  0
  189.1960  176.7000  143.6810 O   0  0  0  0  0  0  0  0  0  0  0  0
  190.0980  178.7290  144.2500 O   0  0  0  0  0  1  0  0  0  0  0  0
  189.8060  177.7390  143.3190 C   0  0  0  0  0  0  0  0  0  0  0  0
  182.9310  178.5310  140.6500 C   0  0  0  0  0  3  0  0  0  0  0  0
  181.9120  179.0590  139.9720 C   0  0  0  0  0  3  0  0  0  0  0  0
  179.3080  178.5000  142.4700 C   0  0  2  0  0  3  0  0  0  0  0  0
  179.5570  178.0190  143.7540 O   0  0  0  0  0  1  0  0  0  0  0  0
  180.1380  180.3050  141.2190 C   0  0  2  0  0  3  0  0  0  0  0  0
  180.5060  179.0240  140.4920 C   0  0  2  0  0  3  0  0  0  0  0  0
  180.3140  177.9270  141.5040 C   0  0  0  0  0  2  0  0  0  0  0  0
  179.4400  179.9520  142.4530 N   0  0  0  0  0  2  0  0  0  0  0  0
  179.2580  181.1440  140.3520 C   0  0  0  0  0  3  0  0  0  0  0  0
  179.7710  181.9480  139.4940 N   0  0  0  0  0  0  0  0  0  0  0  0
  179.1600  184.2250  138.9660 C   0  0  0  0  0  2  0  0  0  0  0  0
  178.9310  182.7610  138.6550 C   0  0  1  0  0  3  0  0  0  0  0  0
  179.1050  183.9870  136.6350 C   0  0  0  0  0  2  0  0  0  0  0  0
  179.3210  182.6100  137.2100 C   0  0  0  0  0  2  0  0  0  0  0  0
  179.3030  184.9520  137.7080 N   0  0  0  0  0  2  0  0  0  0  0  0
  186.1270  178.4930  136.8250 C   0  0  0  0  0  2  0  0  0  0  0  0
  185.4380  177.2890  136.2100 C   0  0  0  0  0  2  0  0  0  0  0  0
  186.4330  176.1550  136.0730 C   0  0  0  0  0  2  0  0  0  0  0  0
  184.8540  174.9380  137.3880 O   0  0  0  0  0  1  0  0  0  0  0  0
  186.9300  173.9840  137.1890 O   0  0  0  0  0  0  0  0  0  0  0  0
  186.0180  174.9940  136.9100 C   0  0  0  0  0  0  0  0  0  0  0  0
  1 16  1  0  0  0  0
  1 12  1  0  0  0  0
  2  7  1  0  0  0  0
  3  5  2  0  0  0  0
  4 10  1  0  0  0  0
  5  2  1  0  0  0  0
  5  8  1  0  0  0  0
  6 19  1  0  0  0  0
  7 15  1  0  0  0  0
  8  1  1  0  0  0  0
  9  4  1  0  0  0  0
  9  8  1  0  0  0  0
 10  6  2  0  0  0  0
 10 16  1  0  0  0  0
 11 18  1  0  0  0  0
 11  4  2  0  0  0  0
 12 34  1  0  0  0  0
 13 15  1  0  0  0  0
 14 35  1  0  0  0  0
 14  6  1  0  0  0  0
 15 12  1  0  0  0  0
 16 17  1  0  0  0  0
 18 14  2  0  0  0  0
 19 22  2  0  0  0  0
 19 20  1  0  0  0  0
 20 25  2  0  0  0  0
 22 23  1  0  0  0  0
 23 24  2  0  0  0  0
 24 21  1  0  0  0  0
 25 24  1  0  0  0  0
 26 30  2  0  0  0  0
 26 27  1  0  0  0  0
 27 28  2  0  0  0  0
 28 29  1  0  0  0  0
 29  2  1  0  0  0  0
 30 31  1  0  0  0  0
 31 29  2  0  0  0  0
 34 32  2  0  0  0  0
 34 33  1  0  0  0  0
 36 40  1  0  0  0  0
 36 35  2  0  0  0  0
 37 38  1  0  0  0  0
 39 42  1  0  0  0  0
 40 39  1  0  0  0  0
 40 41  1  0  0  0  0
 41 37  1  0  0  0  0
 42 37  1  0  0  0  0
 43 39  1  0  0  0  0
 44 43  2  0  0  0  0
 46 45  1  0  0  0  0
 46 44  1  0  0  0  0
 47 48  1  0  0  0  0
 47 49  1  0  0  0  0
 48 46  1  0  0  0  0
 49 45  1  0  0  0  0
 50 11  1  0  0  0  0
 51 50  1  0  0  0  0
 52 51  1  0  0  0  0
 52 55  1  0  0  0  0
 55 54  2  0  0  0  0
 55 53  1  0  0  0  0
M  END
>  <MODEL>
1

>  <REMARK>
 VINA RESULT:      -8.0      0.000      0.000
  Name = 
  11 active torsions:
  status: ('A' for Active; 'I' for Inactive)
    1  A    between atoms: C_2  and  C_20
    2  A    between atoms: C_2  and  C_27
    3  A    between atoms: N_7  and  C_41
    4  A    between atoms: C_13  and  C_16
    5  A    between atoms: C_20  and  C_44
    6  A    between atoms: C_23  and  N_33
    7  A    between atoms: C_26  and  C_32
    8  A    between atoms: C_28  and  C_53
    9  A    between atoms: C_30  and  C_44
   10  A    between atoms: C_34  and  C_36
   11  A    between atoms: C_38  and  C_46
                            x       y       z     vdW  Elec       q    Type
                         _______ _______ _______ _____ _____    ______ ____

>  <TORSDO>
F 11

$$$$
=
 OpenBabel11042411283D

 55 61  0  0  1  0  0  0  0  0999 V2000
  186.3160  178.2040  142.8270 N   0  0  1  0  0  0  0  0  0  0  0  0
  188.8510  177.6530  144.7900 N   0  0  0  0  0  0  0  0  0  0  0  0
  189.0420  176.5110  142.7540 O   0  0  0  0  0  0  0  0  0  0  0  0
  187.3220  178.3140  140.2040 C   0  0  0  0  0  0  0  0  0  0  0  0
  188.6100  177.5180  143.3780 C   0  0  0  0  0  0  0  0  0  0  0  0
  185.0430  178.1560  139.3520 C   0  0  0  0  0  0  0  0  0  0  0  0
  187.9160  178.4480  145.5870 C   0  0  0  0  0  2  0  0  0  0  0  0
  187.7600  178.5250  142.6560 C   0  0  1  0  0  3  0  0  0  0  0  0
  188.1810  178.5410  141.2810 O   0  0  0  0  0  0  0  0  0  0  0  0
  185.9490  178.3840  140.4130 C   0  0  0  0  0  0  0  0  0  0  0  0
  187.8290  178.0180  138.9340 C   0  0  0  0  0  0  0  0  0  0  0  0
  185.8250  178.6890  144.1460 C   0  0  2  0  0  3  0  0  0  0  0  0
  186.3650  176.6110  145.2920 O   0  0  0  0  0  1  0  0  0  0  0  0
  185.5590  177.8340  138.0710 C   0  0  0  0  0  0  0  0  0  0  0  0
  186.4740  178.0040  145.3570 C   0  0  1  0  0  3  0  0  0  0  0  0
  185.5170  178.8520  141.7620 C   0  0  2  0  0  3  0  0  0  0  0  0
  185.6150  180.2480  141.8310 O   0  0  0  0  0  1  0  0  0  0  0  0
  186.9470  177.7720  137.8810 C   0  0  0  0  0  3  0  0  0  0  0  0
  183.5820  178.2530  139.5870 C   0  0  0  0  0  0  0  0  0  0  0  0
  182.8570  177.1300  140.0130 C   0  0  0  0  0  3  0  0  0  0  0  0
  179.4860  178.5260  140.2630 F   0  0  0  0  0  0  0  0  0  0  0  0
  182.9110  179.4700  139.3940 C   0  0  0  0  0  3  0  0  0  0  0  0
  181.5340  179.5620  139.6210 C   0  0  0  0  0  3  0  0  0  0  0  0
  180.8190  178.4370  140.0440 C   0  0  0  0  0  0  0  0  0  0  0  0
  181.4810  177.2220  140.2390 C   0  0  0  0  0  3  0  0  0  0  0  0
  192.1050  175.7470  146.6900 N   0  0  0  0  0  0  0  0  0  0  0  0
  192.0850  175.8380  145.3350 C   0  0  0  0  0  3  0  0  0  0  0  0
  191.0190  176.4670  144.6900 C   0  0  0  0  0  3  0  0  0  0  0  0
  189.9680  177.0140  145.4450 C   0  0  0  0  0  0  0  0  0  0  0  0
  191.1000  176.2600  147.4510 C   0  0  0  0  0  3  0  0  0  0  0  0
  190.0180  176.8970  146.8430 C   0  0  0  0  0  3  0  0  0  0  0  0
  183.6580  178.0870  143.3300 O   0  0  0  0  0  0  0  0  0  0  0  0
  183.6960  178.9400  145.4560 O   0  0  0  0  0  1  0  0  0  0  0  0
  184.3330  178.5460  144.2870 C   0  0  0  0  0  0  0  0  0  0  0  0
  184.6500  177.5370  136.9460 C   0  0  0  0  0  3  0  0  0  0  0  0
  184.1420  176.3270  136.7140 C   0  0  0  0  0  3  0  0  0  0  0  0
  181.9280  174.2970  134.6380 C   0  0  2  0  0  3  0  0  0  0  0  0
  181.6660  172.9490  134.8740 O   0  0  0  0  0  1  0  0  0  0  0  0
  181.7640  176.2400  135.9480 C   0  0  2  0  0  3  0  0  0  0  0  0
  183.2210  176.0570  135.5630 C   0  0  2  0  0  3  0  0  0  0  0  0
  183.3280  174.6340  135.0870 C   0  0  0  0  0  2  0  0  0  0  0  0
  180.9980  175.1210  135.4030 N   0  0  0  0  0  2  0  0  0  0  0  0
  181.2520  177.5300  135.3960 C   0  0  0  0  0  3  0  0  0  0  0  0
  180.4250  178.2400  136.0720 N   0  0  0  0  0  0  0  0  0  0  0  0
  179.7980  180.4960  136.6680 C   0  0  0  0  0  2  0  0  0  0  0  0
  179.9260  179.4840  135.5490 C   0  0  1  0  0  3  0  0  0  0  0  0
  180.7850  181.5730  134.8350 C   0  0  0  0  0  2  0  0  0  0  0  0
  180.9170  180.0920  134.5940 C   0  0  0  0  0  2  0  0  0  0  0  0
  180.3690  181.7620  136.2190 N   0  0  0  0  0  2  0  0  0  0  0  0
  189.3000  177.9270  138.6990 C   0  0  0  0  0  2  0  0  0  0  0  0
  189.5860  177.8230  137.2130 C   0  0  0  0  0  2  0  0  0  0  0  0
  190.6320  176.7520  136.9740 C   0  0  0  0  0  2  0  0  0  0  0  0
  190.8940  174.8200  138.3540 O   0  0  0  0  0  1  0  0  0  0  0  0
  188.9680  174.9040  137.1110 O   0  0  0  0  0  0  0  0  0  0  0  0
  190.1770  175.4470  137.5300 C   0  0  0  0  0  0  0  0  0  0  0  0
  1 12  1  0  0  0  0
  2 29  1  0  0  0  0
  2  7  1  0  0  0  0
  3  5  2  0  0  0  0
  4 10  1  0  0  0  0
  4  9  1  0  0  0  0
  5  2  1  0  0  0  0
  6 19  1  0  0  0  0
  6 10  2  0  0  0  0
  8  1  1  0  0  0  0
  8  5  1  0  0  0  0
  9  8  1  0  0  0  0
 10 16  1  0  0  0  0
 11  4  2  0  0  0  0
 12 34  1  0  0  0  0
 12 15  1  0  0  0  0
 13 15  1  0  0  0  0
 14  6  1  0  0  0  0
 15  7  1  0  0  0  0
 16 17  1  0  0  0  0
 16  1  1  0  0  0  0
 18 14  2  0  0  0  0
 18 11  1  0  0  0  0
 19 20  1  0  0  0  0
 20 25  2  0  0  0  0
 22 19  2  0  0  0  0
 22 23  1  0  0  0  0
 23 24  2  0  0  0  0
 24 25  1  0  0  0  0
 24 21  1  0  0  0  0
 26 30  1  0  0  0  0
 27 26  2  0  0  0  0
 28 27  1  0  0  0  0
 28 29  2  0  0  0  0
 29 31  1  0  0  0  0
 31 30  2  0  0  0  0
 32 34  2  0  0  0  0
 34 33  1  0  0  0  0
 35 14  1  0  0  0  0
 36 35  2  0  0  0  0
 37 38  1  0  0  0  0
 37 41  1  0  0  0  0
 37 42  1  0  0  0  0
 40 39  1  0  0  0  0
 40 36  1  0  0  0  0
 41 40  1  0  0  0  0
 42 39  1  0  0  0  0
 43 39  1  0  0  0  0
 43 44  2  0  0  0  0
 46 44  1  0  0  0  0
 46 45  1  0  0  0  0
 47 49  1  0  0  0  0
 48 47  1  0  0  0  0
 48 46  1  0  0  0  0
 49 45  1  0  0  0  0
 50 11  1  0  0  0  0
 51 50  1  0  0  0  0
 52 51  1  0  0  0  0
 52 55  1  0  0  0  0
 54 55  2  0  0  0  0
 55 53  1  0  0  0  0
M  END
>  <MODEL>
2

>  <REMARK>
 VINA RESULT:      -7.9      3.141      5.818
  Name = 
  11 active torsions:
  status: ('A' for Active; 'I' for Inactive)
    1  A    between atoms: C_2  and  C_20
    2  A    between atoms: C_2  and  C_27
    3  A    between atoms: N_7  and  C_41
    4  A    between atoms: C_13  and  C_16
    5  A    between atoms: C_20  and  C_44
    6  A    between atoms: C_23  and  N_33
    7  A    between atoms: C_26  and  C_32
    8  A    between atoms: C_28  and  C_53
    9  A    between atoms: C_30  and  C_44
   10  A    between atoms: C_34  and  C_36
   11  A    between atoms: C_38  and  C_46
                            x       y       z     vdW  Elec       q    Type
                         _______ _______ _______ _____ _____    ______ ____

>  <TORSDO>
F 11

$$$$
=
 OpenBabel11042411283D

 55 61  0  0  1  0  0  0  0  0999 V2000
  186.3650  178.2080  142.8480 N   0  0  1  0  0  0  0  0  0  0  0  0
  188.8890  177.6300  144.8180 N   0  0  0  0  0  0  0  0  0  0  0  0
  189.0950  176.5210  142.7650 O   0  0  0  0  0  0  0  0  0  0  0  0
  187.3870  178.3610  140.2340 C   0  0  0  0  0  0  0  0  0  0  0  0
  188.6570  177.5180  143.4020 C   0  0  0  0  0  0  0  0  0  0  0  0
  185.1140  178.2130  139.3650 C   0  0  0  0  0  0  0  0  0  0  0  0
  187.9480  178.4110  145.6210 C   0  0  0  0  0  2  0  0  0  0  0  0
  187.8090  178.5340  142.6910 C   0  0  1  0  0  3  0  0  0  0  0  0
  188.2390  178.5730  141.3200 O   0  0  0  0  0  0  0  0  0  0  0  0
  186.0130  178.4260  140.4350 C   0  0  0  0  0  0  0  0  0  0  0  0
  187.9030  178.0870  138.9620 C   0  0  0  0  0  0  0  0  0  0  0  0
  185.8650  178.6710  144.1720 C   0  0  2  0  0  3  0  0  0  0  0  0
  186.4020  176.5770  145.2880 O   0  0  0  0  0  1  0  0  0  0  0  0
  185.6380  177.9130  138.0820 C   0  0  0  0  0  0  0  0  0  0  0  0
  186.5080  177.9680  145.3760 C   0  0  1  0  0  3  0  0  0  0  0  0
  185.5720  178.8720  141.7890 C   0  0  2  0  0  3  0  0  0  0  0  0
  185.6660  180.2670  141.8800 O   0  0  0  0  0  1  0  0  0  0  0  0
  187.0280  177.8560  137.9000 C   0  0  0  0  0  3  0  0  0  0  0  0
  183.6510  178.3040  139.5920 C   0  0  0  0  0  0  0  0  0  0  0  0
  182.9740  179.5110  139.3630 C   0  0  0  0  0  3  0  0  0  0  0  0
  179.5450  178.5600  140.2100 F   0  0  0  0  0  0  0  0  0  0  0  0
  182.9290  177.1840  140.0300 C   0  0  0  0  0  3  0  0  0  0  0  0
  181.5490  177.2690  140.2370 C   0  0  0  0  0  3  0  0  0  0  0  0
  180.8810  178.4770  140.0080 C   0  0  0  0  0  0  0  0  0  0  0  0
  181.5940  179.5960  139.5710 C   0  0  0  0  0  3  0  0  0  0  0  0
  192.1610  175.7790  146.7390 N   0  0  0  0  0  0  0  0  0  0  0  0
  191.1560  176.3000  147.4900 C   0  0  0  0  0  3  0  0  0  0  0  0
  190.0650  176.9130  146.8710 C   0  0  0  0  0  3  0  0  0  0  0  0
  190.0030  176.9840  145.4700 C   0  0  0  0  0  0  0  0  0  0  0  0
  192.1360  175.8360  145.3810 C   0  0  0  0  0  3  0  0  0  0  0  0
  191.0620  176.4400  144.7260 C   0  0  0  0  0  3  0  0  0  0  0  0
  183.7070  178.0560  143.3410 O   0  0  0  0  0  0  0  0  0  0  0  0
  183.7240  178.9230  145.4630 O   0  0  0  0  0  1  0  0  0  0  0  0
  184.3730  178.5230  144.3010 C   0  0  0  0  0  0  0  0  0  0  0  0
  184.7370  177.6320  136.9470 C   0  0  0  0  0  3  0  0  0  0  0  0
  184.1950  176.4360  136.7200 C   0  0  0  0  0  3  0  0  0  0  0  0
  182.0040  174.4330  134.5940 C   0  0  2  0  0  3  0  0  0  0  0  0
  181.7480  173.0800  134.8030 O   0  0  0  0  0  1  0  0  0  0  0  0
  181.8220  176.3510  135.9370 C   0  0  2  0  0  3  0  0  0  0  0  0
  183.2820  176.1820  135.5580 C   0  0  2  0  0  3  0  0  0  0  0  0
  183.4000  174.7680  135.0570 C   0  0  0  0  0  2  0  0  0  0  0  0
  181.0650  175.2380  135.3670 N   0  0  0  0  0  2  0  0  0  0  0  0
  181.3080  177.6480  135.4050 C   0  0  0  0  0  3  0  0  0  0  0  0
  180.3730  178.2750  136.0220 N   0  0  0  0  0  0  0  0  0  0  0  0
  179.6330  180.4830  136.6660 C   0  0  0  0  0  2  0  0  0  0  0  0
  179.8710  179.5250  135.5170 C   0  0  1  0  0  3  0  0  0  0  0  0
  180.7080  181.6690  134.9530 C   0  0  0  0  0  2  0  0  0  0  0  0
  180.9050  180.2040  134.6600 C   0  0  0  0  0  2  0  0  0  0  0  0
  180.1910  181.7850  136.3110 N   0  0  0  0  0  2  0  0  0  0  0  0
  189.3750  178.0020  138.7350 C   0  0  0  0  0  2  0  0  0  0  0  0
  189.9070  176.6780  139.2510 C   0  0  0  0  0  2  0  0  0  0  0  0
  191.2450  176.9020  139.9270 C   0  0  0  0  0  2  0  0  0  0  0  0
  193.5170  177.0940  139.2160 O   0  0  0  0  0  1  0  0  0  0  0  0
  192.1110  176.0010  137.7720 O   0  0  0  0  0  0  0  0  0  0  0  0
  192.3590  176.6670  138.9660 C   0  0  0  0  0  0  0  0  0  0  0  0
  1 12  1  0  0  0  0
  2 29  1  0  0  0  0
  2  7  1  0  0  0  0
  3  5  2  0  0  0  0
  4 10  1  0  0  0  0
  4  9  1  0  0  0  0
  5  2  1  0  0  0  0
  6 19  1  0  0  0  0
  6 10  2  0  0  0  0
  8  1  1  0  0  0  0
  8  5  1  0  0  0  0
  9  8  1  0  0  0  0
 10 16  1  0  0  0  0
 11  4  2  0  0  0  0
 12 34  1  0  0  0  0
 12 15  1  0  0  0  0
 13 15  1  0  0  0  0
 14  6  1  0  0  0  0
 15  7  1  0  0  0  0
 16 17  1  0  0  0  0
 16  1  1  0  0  0  0
 18 14  2  0  0  0  0
 18 11  1  0  0  0  0
 19 22  1  0  0  0  0
 20 25  1  0  0  0  0
 20 19  2  0  0  0  0
 22 23  2  0  0  0  0
 24 21  1  0  0  0  0
 24 23  1  0  0  0  0
 25 24  2  0  0  0  0
 26 27  1  0  0  0  0
 28 27  2  0  0  0  0
 29 28  1  0  0  0  0
 30 26  2  0  0  0  0
 31 30  1  0  0  0  0
 31 29  2  0  0  0  0
 32 34  2  0  0  0  0
 34 33  1  0  0  0  0
 35 14  1  0  0  0  0
 36 35  2  0  0  0  0
 37 38  1  0  0  0  0
 37 41  1  0  0  0  0
 37 42  1  0  0  0  0
 40 39  1  0  0  0  0
 40 36  1  0  0  0  0
 41 40  1  0  0  0  0
 42 39  1  0  0  0  0
 43 39  1  0  0  0  0
 43 44  2  0  0  0  0
 46 44  1  0  0  0  0
 46 45  1  0  0  0  0
 47 49  1  0  0  0  0
 48 47  1  0  0  0  0
 48 46  1  0  0  0  0
 49 45  1  0  0  0  0
 50 11  1  0  0  0  0
 50 51  1  0  0  0  0
 51 52  1  0  0  0  0
 54 55  2  0  0  0  0
 55 53  1  0  0  0  0
 55 52  1  0  0  0  0
M  END
>  <MODEL>
3

>  <REMARK>
 VINA RESULT:      -7.9      3.140      6.027
  Name = 
  11 active torsions:
  status: ('A' for Active; 'I' for Inactive)
    1  A    between atoms: C_2  and  C_20
    2  A    between atoms: C_2  and  C_27
    3  A    between atoms: N_7  and  C_41
    4  A    between atoms: C_13  and  C_16
    5  A    between atoms: C_20  and  C_44
    6  A    between atoms: C_23  and  N_33
    7  A    between atoms: C_26  and  C_32
    8  A    between atoms: C_28  and  C_53
    9  A    between atoms: C_30  and  C_44
   10  A    between atoms: C_34  and  C_36
   11  A    between atoms: C_38  and  C_46
                            x       y       z     vdW  Elec       q    Type
                         _______ _______ _______ _____ _____    ______ ____

>  <TORSDO>
F 11

$$$$
=
 OpenBabel11042411283D

 55 61  0  0  1  0  0  0  0  0999 V2000
  181.9810  179.3850  140.5260 N   0  0  1  0  0  0  0  0  0  0  0  0
  180.2130  180.5410  138.0520 N   0  0  0  0  0  0  0  0  0  0  0  0
  182.5010  180.9570  137.7770 O   0  0  0  0  0  0  0  0  0  0  0  0
  184.3860  178.4260  139.4340 C   0  0  0  0  0  0  0  0  0  0  0  0
  181.5990  180.2080  138.2430 C   0  0  0  0  0  0  0  0  0  0  0  0
  185.3260  178.3020  141.6800 C   0  0  0  0  0  0  0  0  0  0  0  0
  179.2350  180.0500  139.0240 C   0  0  0  0  0  2  0  0  0  0  0  0
  181.9850  179.0240  139.0820 C   0  0  1  0  0  3  0  0  0  0  0  0
  183.2640  178.5600  138.6150 O   0  0  0  0  0  0  0  0  0  0  0  0
  184.2160  178.4290  140.8140 C   0  0  0  0  0  0  0  0  0  0  0  0
  185.6640  178.2900  138.8800 C   0  0  0  0  0  0  0  0  0  0  0  0
  180.5940  179.3570  141.0680 C   0  0  2  0  0  3  0  0  0  0  0  0
  180.1680  181.6940  140.5390 O   0  0  0  0  0  1  0  0  0  0  0  0
  186.6220  178.1880  141.1170 C   0  0  0  0  0  0  0  0  0  0  0  0
  179.6490  180.3980  140.4510 C   0  0  1  0  0  3  0  0  0  0  0  0
  182.8050  178.4270  141.2970 C   0  0  2  0  0  3  0  0  0  0  0  0
  182.2830  177.1300  141.2210 O   0  0  0  0  0  1  0  0  0  0  0  0
  186.7710  178.1820  139.7220 C   0  0  0  0  0  3  0  0  0  0  0  0
  185.1260  178.2890  143.1500 C   0  0  0  0  0  0  0  0  0  0  0  0
  185.9840  177.5450  143.9730 C   0  0  0  0  0  3  0  0  0  0  0  0
  184.5800  178.2640  147.2740 F   0  0  0  0  0  0  0  0  0  0  0  0
  184.0840  179.0260  143.7310 C   0  0  0  0  0  3  0  0  0  0  0  0
  183.9000  179.0180  145.1170 C   0  0  0  0  0  3  0  0  0  0  0  0
  184.7590  178.2730  145.9310 C   0  0  0  0  0  0  0  0  0  0  0  0
  185.8000  177.5370  145.3590 C   0  0  0  0  0  3  0  0  0  0  0  0
  178.9310  182.9220  134.8090 N   0  0  0  0  0  0  0  0  0  0  0  0
  179.2490  181.6190  134.5940 C   0  0  0  0  0  3  0  0  0  0  0  0
  179.6710  180.8160  135.6550 C   0  0  0  0  0  3  0  0  0  0  0  0
  179.7600  181.3560  136.9490 C   0  0  0  0  0  0  0  0  0  0  0  0
  179.0130  183.4780  136.0480 C   0  0  0  0  0  3  0  0  0  0  0  0
  179.4300  182.7070  137.1340 C   0  0  0  0  0  3  0  0  0  0  0  0
  180.5460  180.7020  143.0460 O   0  0  0  0  0  0  0  0  0  0  0  0
  180.5760  178.4390  143.4070 O   0  0  0  0  0  1  0  0  0  0  0  0
  180.5620  179.5410  142.5620 C   0  0  0  0  0  0  0  0  0  0  0  0
  187.8150  178.1040  141.9830 C   0  0  0  0  0  3  0  0  0  0  0  0
  188.3270  176.9520  142.4160 C   0  0  0  0  0  3  0  0  0  0  0  0
  191.8440  177.4620  143.2540 C   0  0  2  0  0  3  0  0  0  0  0  0
  192.7830  177.9840  142.3680 O   0  0  0  0  0  1  0  0  0  0  0  0
  189.7580  178.2030  144.0390 C   0  0  2  0  0  3  0  0  0  0  0  0
  189.5400  176.8990  143.2940 C   0  0  2  0  0  3  0  0  0  0  0  0
  190.7970  176.6860  142.4940 C   0  0  0  0  0  2  0  0  0  0  0  0
  191.1760  178.5480  143.9620 N   0  0  0  0  0  2  0  0  0  0  0  0
  189.3440  178.0470  145.4650 C   0  0  0  0  0  3  0  0  0  0  0  0
  190.0530  177.3440  146.2720 N   0  0  0  0  0  0  0  0  0  0  0  0
  189.3820  178.5450  148.2580 C   0  0  0  0  0  2  0  0  0  0  0  0
  189.6610  177.1870  147.6470 C   0  0  1  0  0  3  0  0  0  0  0  0
  187.6630  177.0940  148.9170 C   0  0  0  0  0  2  0  0  0  0  0  0
  188.3550  176.4470  147.7450 C   0  0  0  0  0  2  0  0  0  0  0  0
  188.1280  178.4720  149.0020 N   0  0  0  0  0  2  0  0  0  0  0  0
  185.8620  178.2970  137.4010 C   0  0  0  0  0  2  0  0  0  0  0  0
  187.2700  178.7520  137.0640 C   0  0  0  0  0  2  0  0  0  0  0  0
  187.8730  177.8100  136.0430 C   0  0  0  0  0  2  0  0  0  0  0  0
  189.9120  176.9610  136.9550 O   0  0  0  0  0  0  0  0  0  0  0  0
  188.1070  175.5490  137.0610 O   0  0  0  0  0  1  0  0  0  0  0  0
  188.6900  176.7630  136.7190 C   0  0  0  0  0  0  0  0  0  0  0  0
  1 12  1  0  0  0  0
  1 16  1  0  0  0  0
  2  5  1  0  0  0  0
  2  7  1  0  0  0  0
  3  5  2  0  0  0  0
  4 10  1  0  0  0  0
  5  8  1  0  0  0  0
  6 19  1  0  0  0  0
  7 15  1  0  0  0  0
  8  1  1  0  0  0  0
  9  8  1  0  0  0  0
  9  4  1  0  0  0  0
 10 16  1  0  0  0  0
 10  6  2  0  0  0  0
 11  4  2  0  0  0  0
 11 18  1  0  0  0  0
 12 34  1  0  0  0  0
 14  6  1  0  0  0  0
 14 35  1  0  0  0  0
 15 13  1  0  0  0  0
 15 12  1  0  0  0  0
 17 16  1  0  0  0  0
 18 14  2  0  0  0  0
 19 22  2  0  0  0  0
 19 20  1  0  0  0  0
 20 25  2  0  0  0  0
 22 23  1  0  0  0  0
 23 24  2  0  0  0  0
 24 21  1  0  0  0  0
 25 24  1  0  0  0  0
 26 30  1  0  0  0  0
 27 26  2  0  0  0  0
 27 28  1  0  0  0  0
 28 29  2  0  0  0  0
 29 31  1  0  0  0  0
 29  2  1  0  0  0  0
 30 31  2  0  0  0  0
 34 32  2  0  0  0  0
 34 33  1  0  0  0  0
 35 36  2  0  0  0  0
 36 40  1  0  0  0  0
 37 42  1  0  0  0  0
 38 37  1  0  0  0  0
 39 43  1  0  0  0  0
 40 39  1  0  0  0  0
 41 37  1  0  0  0  0
 41 40  1  0  0  0  0
 42 39  1  0  0  0  0
 43 44  2  0  0  0  0
 44 46  1  0  0  0  0
 45 49  1  0  0  0  0
 46 48  1  0  0  0  0
 46 45  1  0  0  0  0
 47 49  1  0  0  0  0
 48 47  1  0  0  0  0
 50 11  1  0  0  0  0
 51 50  1  0  0  0  0
 52 55  1  0  0  0  0
 52 51  1  0  0  0  0
 55 53  2  0  0  0  0
 55 54  1  0  0  0  0
M  END
>  <MODEL>
4

>  <REMARK>
 VINA RESULT:      -7.0      2.757      9.791
  Name = 
  11 active torsions:
  status: ('A' for Active; 'I' for Inactive)
    1  A    between atoms: C_2  and  C_20
    2  A    between atoms: C_2  and  C_27
    3  A    between atoms: N_7  and  C_41
    4  A    between atoms: C_13  and  C_16
    5  A    between atoms: C_20  and  C_44
    6  A    between atoms: C_23  and  N_33
    7  A    between atoms: C_26  and  C_32
    8  A    between atoms: C_28  and  C_53
    9  A    between atoms: C_30  and  C_44
   10  A    between atoms: C_34  and  C_36
   11  A    between atoms: C_38  and  C_46
                            x       y       z     vdW  Elec       q    Type
                         _______ _______ _______ _____ _____    ______ ____

>  <TORSDO>
F 11

$$$$
=
 OpenBabel11042411283D

 55 61  0  0  1  0  0  0  0  0999 V2000
  189.3020  177.8130  141.0550 N   0  0  1  0  0  0  0  0  0  0  0  0
  191.7670  176.8800  139.1490 N   0  0  0  0  0  0  0  0  0  0  0  0
  189.6880  176.2160  138.2980 O   0  0  0  0  0  0  0  0  0  0  0  0
  187.1730  178.5100  139.3570 C   0  0  0  0  0  0  0  0  0  0  0  0
  190.3510  177.0560  138.9660 C   0  0  0  0  0  0  0  0  0  0  0  0
  185.6740  178.5100  141.2790 C   0  0  0  0  0  0  0  0  0  0  0  0
  192.3990  177.4680  140.3300 C   0  0  0  0  0  2  0  0  0  0  0  0
  189.6340  178.1840  139.6520 C   0  0  1  0  0  3  0  0  0  0  0  0
  188.4780  178.5070  138.8600 O   0  0  0  0  0  0  0  0  0  0  0  0
  186.9780  178.5130  140.7330 C   0  0  0  0  0  0  0  0  0  0  0  0
  186.0760  178.5080  138.4870 C   0  0  0  0  0  0  0  0  0  0  0  0
  190.4880  177.9900  141.9370 C   0  0  2  0  0  3  0  0  0  0  0  0
  191.2890  175.7190  141.5860 O   0  0  0  0  0  1  0  0  0  0  0  0
  184.5640  178.4850  140.3970 C   0  0  0  0  0  0  0  0  0  0  0  0
  191.6690  177.0650  141.6080 C   0  0  1  0  0  3  0  0  0  0  0  0
  188.2060  178.6680  141.5660 C   0  0  2  0  0  3  0  0  0  0  0  0
  188.5860  180.0160  141.6010 O   0  0  0  0  0  1  0  0  0  0  0  0
  184.7830  178.4860  139.0110 C   0  0  0  0  0  3  0  0  0  0  0  0
  185.4830  178.5330  142.7500 C   0  0  0  0  0  0  0  0  0  0  0  0
  184.4560  179.3030  143.3170 C   0  0  0  0  0  3  0  0  0  0  0  0
  184.9300  178.5870  146.8730 F   0  0  0  0  0  0  0  0  0  0  0  0
  186.3190  177.7800  143.5870 C   0  0  0  0  0  3  0  0  0  0  0  0
  186.1330  177.7970  144.9730 C   0  0  0  0  0  3  0  0  0  0  0  0
  185.1090  178.5690  145.5300 C   0  0  0  0  0  0  0  0  0  0  0  0
  184.2710  179.3210  144.7030 C   0  0  0  0  0  3  0  0  0  0  0  0
  194.1060  174.6950  136.3940 N   0  0  0  0  0  0  0  0  0  0  0  0
  194.0650  176.0500  136.3060 C   0  0  0  0  0  3  0  0  0  0  0  0
  193.3000  176.7890  137.2110 C   0  0  0  0  0  3  0  0  0  0  0  0
  192.5770  176.1290  138.2180 C   0  0  0  0  0  0  0  0  0  0  0  0
  193.4120  174.0250  137.3530 C   0  0  0  0  0  3  0  0  0  0  0  0
  192.6360  174.7280  138.2760 C   0  0  0  0  0  3  0  0  0  0  0  0
  189.5860  176.7380  143.7660 O   0  0  0  0  0  0  0  0  0  0  0  0
  190.4350  178.7940  144.3170 O   0  0  0  0  0  1  0  0  0  0  0  0
  190.1500  177.7980  143.3920 C   0  0  0  0  0  0  0  0  0  0  0  0
  183.1850  178.4300  140.9220 C   0  0  0  0  0  3  0  0  0  0  0  0
  182.2370  177.6480  140.4080 C   0  0  0  0  0  3  0  0  0  0  0  0
  179.3180  178.9930  142.1410 C   0  0  2  0  0  3  0  0  0  0  0  0
  179.2750  180.2630  142.7130 O   0  0  0  0  0  1  0  0  0  0  0  0
  179.8320  178.1930  139.9930 C   0  0  2  0  0  3  0  0  0  0  0  0
  180.8450  177.6130  140.9640 C   0  0  2  0  0  3  0  0  0  0  0  0
  180.7230  178.4480  142.2090 C   0  0  0  0  0  2  0  0  0  0  0  0
  178.9320  179.0720  140.7370 N   0  0  0  0  0  2  0  0  0  0  0  0
  179.0580  177.0910  139.3490 C   0  0  0  0  0  3  0  0  0  0  0  0
  179.6690  176.0910  138.8260 N   0  0  0  0  0  0  0  0  0  0  0  0
  179.3640  174.8790  136.7580 C   0  0  0  0  0  2  0  0  0  0  0  0
  178.9310  175.0240  138.2020 C   0  0  1  0  0  3  0  0  0  0  0  0
  179.2330  172.7310  137.6880 C   0  0  0  0  0  2  0  0  0  0  0  0
  179.2710  173.7040  138.8390 C   0  0  0  0  0  2  0  0  0  0  0  0
  179.5810  173.4630  136.4770 N   0  0  0  0  0  2  0  0  0  0  0  0
  186.2720  178.4900  137.0080 C   0  0  0  0  0  2  0  0  0  0  0  0
  185.6080  177.2650  136.4080 C   0  0  0  0  0  2  0  0  0  0  0  0
  185.7800  176.0880  137.3460 C   0  0  0  0  0  2  0  0  0  0  0  0
  183.8590  174.8520  138.0430 O   0  0  0  0  0  1  0  0  0  0  0  0
  184.6280  174.3920  135.9320 O   0  0  0  0  0  0  0  0  0  0  0  0
  184.6950  175.0890  137.1320 C   0  0  0  0  0  0  0  0  0  0  0  0
  1 16  1  0  0  0  0
  1 12  1  0  0  0  0
  2  7  1  0  0  0  0
  3  5  2  0  0  0  0
  4 10  1  0  0  0  0
  5  2  1  0  0  0  0
  5  8  1  0  0  0  0
  6 19  1  0  0  0  0
  7 15  1  0  0  0  0
  8  1  1  0  0  0  0
  9  4  1  0  0  0  0
  9  8  1  0  0  0  0
 10  6  2  0  0  0  0
 10 16  1  0  0  0  0
 11 18  1  0  0  0  0
 11  4  2  0  0  0  0
 12 34  1  0  0  0  0
 13 15  1  0  0  0  0
 14 35  1  0  0  0  0
 14  6  1  0  0  0  0
 15 12  1  0  0  0  0
 16 17  1  0  0  0  0
 18 14  2  0  0  0  0
 19 20  2  0  0  0  0
 19 22  1  0  0  0  0
 20 25  1  0  0  0  0
 22 23  2  0  0  0  0
 23 24  1  0  0  0  0
 24 21  1  0  0  0  0
 25 24  2  0  0  0  0
 26 30  1  0  0  0  0
 27 26  2  0  0  0  0
 27 28  1  0  0  0  0
 28 29  2  0  0  0  0
 29 31  1  0  0  0  0
 29  2  1  0  0  0  0
 30 31  2  0  0  0  0
 34 32  2  0  0  0  0
 34 33  1  0  0  0  0
 36 35  2  0  0  0  0
 36 40  1  0  0  0  0
 37 41  1  0  0  0  0
 37 38  1  0  0  0  0
 39 42  1  0  0  0  0
 39 40  1  0  0  0  0
 40 41  1  0  0  0  0
 42 37  1  0  0  0  0
 43 39  1  0  0  0  0
 44 43  2  0  0  0  0
 45 46  1  0  0  0  0
 46 44  1  0  0  0  0
 46 48  1  0  0  0  0
 47 48  1  0  0  0  0
 49 45  1  0  0  0  0
 49 47  1  0  0  0  0
 50 11  1  0  0  0  0
 51 50  1  0  0  0  0
 51 52  1  0  0  0  0
 54 55  2  0  0  0  0
 55 52  1  0  0  0  0
 55 53  1  0  0  0  0
M  END
>  <MODEL>
5

>  <REMARK>
 VINA RESULT:      -7.0      2.184      3.389
  Name = 
  11 active torsions:
  status: ('A' for Active; 'I' for Inactive)
    1  A    between atoms: C_2  and  C_20
    2  A    between atoms: C_2  and  C_27
    3  A    between atoms: N_7  and  C_41
    4  A    between atoms: C_13  and  C_16
    5  A    between atoms: C_20  and  C_44
    6  A    between atoms: C_23  and  N_33
    7  A    between atoms: C_26  and  C_32
    8  A    between atoms: C_28  and  C_53
    9  A    between atoms: C_30  and  C_44
   10  A    between atoms: C_34  and  C_36
   11  A    between atoms: C_38  and  C_46
                            x       y       z     vdW  Elec       q    Type
                         _______ _______ _______ _____ _____    ______ ____

>  <TORSDO>
F 11

$$$$
=
 OpenBabel11042411283D

 55 61  0  0  1  0  0  0  0  0999 V2000
  184.1440  175.4780  137.0550 N   0  0  1  0  0  0  0  0  0  0  0  0
  182.0390  173.4510  135.6270 N   0  0  0  0  0  0  0  0  0  0  0  0
  181.5770  173.7500  137.9030 O   0  0  0  0  0  0  0  0  0  0  0  0
  182.6890  176.9750  138.9380 C   0  0  0  0  0  0  0  0  0  0  0  0
  182.0370  174.2340  136.8340 C   0  0  0  0  0  0  0  0  0  0  0  0
  184.7890  177.7380  139.9140 C   0  0  0  0  0  0  0  0  0  0  0  0
  183.0390  173.7480  134.6010 C   0  0  0  0  0  2  0  0  0  0  0  0
  182.6740  175.5950  136.8540 C   0  0  1  0  0  3  0  0  0  0  0  0
  182.0180  176.3640  137.8760 O   0  0  0  0  0  0  0  0  0  0  0  0
  184.0690  177.1300  138.8600 C   0  0  0  0  0  0  0  0  0  0  0  0
  181.9900  177.4240  140.0640 C   0  0  0  0  0  0  0  0  0  0  0  0
  184.8230  175.1460  135.7720 C   0  0  2  0  0  3  0  0  0  0  0  0
  184.6420  172.7430  136.1130 O   0  0  0  0  0  1  0  0  0  0  0  0
  184.0810  178.1710  141.0640 C   0  0  0  0  0  0  0  0  0  0  0  0
  184.4470  173.7760  135.1900 C   0  0  1  0  0  3  0  0  0  0  0  0
  184.6960  176.7570  137.5590 C   0  0  2  0  0  3  0  0  0  0  0  0
  184.5120  177.7910  136.6330 O   0  0  0  0  0  1  0  0  0  0  0  0
  182.6880  178.0090  141.1200 C   0  0  0  0  0  3  0  0  0  0  0  0
  186.2580  177.9140  139.8080 C   0  0  0  0  0  0  0  0  0  0  0  0
  187.0500  177.9540  140.9650 C   0  0  0  0  0  3  0  0  0  0  0  0
  190.3810  178.3880  139.5160 F   0  0  0  0  0  0  0  0  0  0  0  0
  186.8700  178.0320  138.5520 C   0  0  0  0  0  3  0  0  0  0  0  0
  188.2560  178.1920  138.4530 C   0  0  0  0  0  3  0  0  0  0  0  0
  189.0390  178.2320  139.6110 C   0  0  0  0  0  0  0  0  0  0  0  0
  188.4360  178.1140  140.8660 C   0  0  0  0  0  3  0  0  0  0  0  0
  179.3250  170.2890  134.9460 N   0  0  0  0  0  0  0  0  0  0  0  0
  180.5700  170.0090  135.4120 C   0  0  0  0  0  3  0  0  0  0  0  0
  181.4790  171.0430  135.6460 C   0  0  0  0  0  3  0  0  0  0  0  0
  181.1020  172.3740  135.4060 C   0  0  0  0  0  0  0  0  0  0  0  0
  178.9310  171.5670  134.6960 C   0  0  0  0  0  3  0  0  0  0  0  0
  179.8110  172.6260  134.9180 C   0  0  0  0  0  3  0  0  0  0  0  0
  187.0260  175.3180  134.8560 O   0  0  0  0  0  0  0  0  0  0  0  0
  186.9340  175.0780  137.1330 O   0  0  0  0  0  1  0  0  0  0  0  0
  186.3230  175.1950  135.8910 C   0  0  0  0  0  0  0  0  0  0  0  0
  184.7970  178.7650  142.2110 C   0  0  0  0  0  3  0  0  0  0  0  0
  185.2310  178.0530  143.2510 C   0  0  0  0  0  3  0  0  0  0  0  0
  185.7390  178.9990  146.7410 C   0  0  2  0  0  3  0  0  0  0  0  0
  184.8310  178.7170  147.7590 O   0  0  0  0  0  1  0  0  0  0  0  0
  186.8380  177.6880  145.1310 C   0  0  2  0  0  3  0  0  0  0  0  0
  185.9570  178.6850  144.4000 C   0  0  2  0  0  3  0  0  0  0  0  0
  185.0030  179.2070  145.4410 C   0  0  0  0  0  2  0  0  0  0  0  0
  186.6520  177.8740  146.5690 N   0  0  0  0  0  2  0  0  0  0  0  0
  188.2680  177.9110  144.7650 C   0  0  0  0  0  3  0  0  0  0  0  0
  189.2060  177.4050  145.4800 N   0  0  0  0  0  0  0  0  0  0  0  0
  191.0200  176.5920  144.1060 C   0  0  0  0  0  2  0  0  0  0  0  0
  190.5870  177.6160  145.1350 C   0  0  1  0  0  3  0  0  0  0  0  0
  191.8410  178.6810  143.4300 C   0  0  0  0  0  2  0  0  0  0  0  0
  190.7650  178.9450  144.4510 C   0  0  0  0  0  2  0  0  0  0  0  0
  191.7560  177.2770  143.0480 N   0  0  0  0  0  2  0  0  0  0  0  0
  180.5110  177.2510  140.1650 C   0  0  0  0  0  2  0  0  0  0  0  0
  179.8130  178.5800  139.9420 C   0  0  0  0  0  2  0  0  0  0  0  0
  179.1320  179.0130  141.2250 C   0  0  0  0  0  2  0  0  0  0  0  0
  180.3250  180.3540  142.8010 O   0  0  0  0  0  1  0  0  0  0  0  0
  179.5140  181.4600  140.9620 O   0  0  0  0  0  0  0  0  0  0  0  0
  179.7010  180.3020  141.7080 C   0  0  0  0  0  0  0  0  0  0  0  0
  1 16  1  0  0  0  0
  2  5  1  0  0  0  0
  4 11  1  0  0  0  0
  5  8  1  0  0  0  0
  5  3  2  0  0  0  0
  6 14  2  0  0  0  0
  7 15  1  0  0  0  0
  7  2  1  0  0  0  0
  8  1  1  0  0  0  0
  8  9  1  0  0  0  0
  9  4  1  0  0  0  0
 10  4  2  0  0  0  0
 10  6  1  0  0  0  0
 11 50  1  0  0  0  0
 11 18  2  0  0  0  0
 12 34  1  0  0  0  0
 12  1  1  0  0  0  0
 14 18  1  0  0  0  0
 14 35  1  0  0  0  0
 15 12  1  0  0  0  0
 15 13  1  0  0  0  0
 16 10  1  0  0  0  0
 17 16  1  0  0  0  0
 19  6  1  0  0  0  0
 19 20  1  0  0  0  0
 21 24  1  0  0  0  0
 22 19  2  0  0  0  0
 23 22  1  0  0  0  0
 23 24  2  0  0  0  0
 24 25  1  0  0  0  0
 25 20  2  0  0  0  0
 26 27  1  0  0  0  0
 27 28  2  0  0  0  0
 29  2  1  0  0  0  0
 29 28  1  0  0  0  0
 30 31  1  0  0  0  0
 30 26  2  0  0  0  0
 31 29  2  0  0  0  0
 32 34  2  0  0  0  0
 34 33  1  0  0  0  0
 35 36  2  0  0  0  0
 36 40  1  0  0  0  0
 37 38  1  0  0  0  0
 39 42  1  0  0  0  0
 40 39  1  0  0  0  0
 40 41  1  0  0  0  0
 41 37  1  0  0  0  0
 42 37  1  0  0  0  0
 43 39  1  0  0  0  0
 43 44  2  0  0  0  0
 45 46  1  0  0  0  0
 46 44  1  0  0  0  0
 47 48  1  0  0  0  0
 48 46  1  0  0  0  0
 49 47  1  0  0  0  0
 49 45  1  0  0  0  0
 51 50  1  0  0  0  0
 51 52  1  0  0  0  0
 52 55  1  0  0  0  0
 54 55  2  0  0  0  0
 55 53  1  0  0  0  0
M  END
>  <MODEL>
6

>  <REMARK>
 VINA RESULT:      -6.1      4.113      9.295
  Name = 
  11 active torsions:
  status: ('A' for Active; 'I' for Inactive)
    1  A    between atoms: C_2  and  C_20
    2  A    between atoms: C_2  and  C_27
    3  A    between atoms: N_7  and  C_41
    4  A    between atoms: C_13  and  C_16
    5  A    between atoms: C_20  and  C_44
    6  A    between atoms: C_23  and  N_33
    7  A    between atoms: C_26  and  C_32
    8  A    between atoms: C_28  and  C_53
    9  A    between atoms: C_30  and  C_44
   10  A    between atoms: C_34  and  C_36
   11  A    between atoms: C_38  and  C_46
                            x       y       z     vdW  Elec       q    Type
                         _______ _______ _______ _____ _____    ______ ____

>  <TORSDO>
F 11

$$$$
=
 OpenBabel11042411283D

 55 61  0  0  1  0  0  0  0  0999 V2000
  191.5710  174.5460  136.9150 N   0  0  1  0  0  0  0  0  0  0  0  0
  194.8030  174.1790  136.9180 N   0  0  0  0  0  0  0  0  0  0  0  0
  194.1530  176.3220  137.6050 O   0  0  0  0  0  0  0  0  0  0  0  0
  190.9290  176.1670  139.1190 C   0  0  0  0  0  0  0  0  0  0  0  0
  193.8820  175.0910  137.5420 C   0  0  0  0  0  0  0  0  0  0  0  0
  188.6870  176.4690  138.2110 C   0  0  0  0  0  0  0  0  0  0  0  0
  194.2780  172.9400  136.3420 C   0  0  0  0  0  2  0  0  0  0  0  0
  192.5500  174.6030  138.0350 C   0  0  1  0  0  3  0  0  0  0  0  0
  192.1390  175.4710  139.1060 O   0  0  0  0  0  0  0  0  0  0  0  0
  189.9260  175.7880  138.2350 C   0  0  0  0  0  0  0  0  0  0  0  0
  190.7260  177.2310  140.0060 C   0  0  0  0  0  0  0  0  0  0  0  0
  191.7640  173.3050  136.1150 C   0  0  2  0  0  3  0  0  0  0  0  0
  193.3570  174.3420  134.5950 O   0  0  0  0  0  1  0  0  0  0  0  0
  188.4910  177.5620  139.0940 C   0  0  0  0  0  0  0  0  0  0  0  0
  193.1160  173.2190  135.3920 C   0  0  1  0  0  3  0  0  0  0  0  0
  190.1870  174.5520  137.4420 C   0  0  2  0  0  3  0  0  0  0  0  0
  189.9380  173.4230  138.2330 O   0  0  0  0  0  1  0  0  0  0  0  0
  189.5160  177.9250  139.9810 C   0  0  0  0  0  3  0  0  0  0  0  0
  187.6190  176.0410  137.2760 C   0  0  0  0  0  0  0  0  0  0  0  0
  186.5140  175.3160  137.7470 C   0  0  0  0  0  3  0  0  0  0  0  0
  184.6130  174.8520  134.6570 F   0  0  0  0  0  0  0  0  0  0  0  0
  187.6990  176.3620  135.9120 C   0  0  0  0  0  3  0  0  0  0  0  0
  186.6880  175.9630  135.0320 C   0  0  0  0  0  3  0  0  0  0  0  0
  185.5910  175.2400  135.5100 C   0  0  0  0  0  0  0  0  0  0  0  0
  185.5040  174.9170  136.8670 C   0  0  0  0  0  3  0  0  0  0  0  0
  198.9420  174.9570  136.6120 N   0  0  0  0  0  0  0  0  0  0  0  0
  198.1080  175.3900  135.6300 C   0  0  0  0  0  3  0  0  0  0  0  0
  196.7370  175.1450  135.7170 C   0  0  0  0  0  3  0  0  0  0  0  0
  196.2170  174.4550  136.8250 C   0  0  0  0  0  0  0  0  0  0  0  0
  198.4730  174.2800  137.6950 C   0  0  0  0  0  3  0  0  0  0  0  0
  197.1080  174.0160  137.8170 C   0  0  0  0  0  3  0  0  0  0  0  0
  190.4340  171.9660  134.6450 O   0  0  0  0  0  1  0  0  0  0  0  0
  189.9810  174.2110  134.5940 O   0  0  0  0  0  0  0  0  0  0  0  0
  190.6840  173.1180  135.0830 C   0  0  0  0  0  0  0  0  0  0  0  0
  187.2340  178.3350  139.0690 C   0  0  0  0  0  3  0  0  0  0  0  0
  186.1590  178.0090  139.7870 C   0  0  0  0  0  3  0  0  0  0  0  0
  182.8790  178.9720  138.5030 C   0  0  2  0  0  3  0  0  0  0  0  0
  182.2740  178.3740  137.4000 O   0  0  0  0  0  1  0  0  0  0  0  0
  183.7710  178.1510  140.5140 C   0  0  2  0  0  3  0  0  0  0  0  0
  184.8960  178.8150  139.7410 C   0  0  2  0  0  3  0  0  0  0  0  0
  184.3780  178.9580  138.3350 C   0  0  0  0  0  2  0  0  0  0  0  0
  182.5520  178.2240  139.7110 N   0  0  0  0  0  2  0  0  0  0  0  0
  183.5700  178.8520  141.8180 C   0  0  0  0  0  3  0  0  0  0  0  0
  184.5320  178.9330  142.6630 N   0  0  0  0  0  0  0  0  0  0  0  0
  183.2600  178.9140  144.7180 C   0  0  0  0  0  2  0  0  0  0  0  0
  184.3480  179.6050  143.9220 C   0  0  1  0  0  3  0  0  0  0  0  0
  185.0400  179.3620  146.1750 C   0  0  0  0  0  2  0  0  0  0  0  0
  185.5820  179.4830  144.7740 C   0  0  0  0  0  2  0  0  0  0  0  0
  183.7250  178.7400  146.0910 N   0  0  0  0  0  2  0  0  0  0  0  0
  191.8000  177.6570  140.9500 C   0  0  0  0  0  2  0  0  0  0  0  0
  191.1890  178.1370  142.2530 C   0  0  0  0  0  2  0  0  0  0  0  0
  190.8810  176.9440  143.1350 C   0  0  0  0  0  2  0  0  0  0  0  0
  188.6910  176.0000  143.0000 O   0  0  0  0  0  0  0  0  0  0  0  0
  188.8840  177.8920  144.2820 O   0  0  0  0  0  1  0  0  0  0  0  0
  189.4300  176.9050  143.4710 C   0  0  0  0  0  0  0  0  0  0  0  0
  1 16  1  0  0  0  0
  1  8  1  0  0  0  0
  2  5  1  0  0  0  0
  4 11  1  0  0  0  0
  5  3  2  0  0  0  0
  5  8  1  0  0  0  0
  6 10  1  0  0  0  0
  6 14  2  0  0  0  0
  7  2  1  0  0  0  0
  8  9  1  0  0  0  0
  9  4  1  0  0  0  0
 10  4  2  0  0  0  0
 11 50  1  0  0  0  0
 12  1  1  0  0  0  0
 13 15  1  0  0  0  0
 14 18  1  0  0  0  0
 15 12  1  0  0  0  0
 15  7  1  0  0  0  0
 16 17  1  0  0  0  0
 16 10  1  0  0  0  0
 18 11  2  0  0  0  0
 19 20  1  0  0  0  0
 19  6  1  0  0  0  0
 21 24  1  0  0  0  0
 22 19  2  0  0  0  0
 23 24  2  0  0  0  0
 23 22  1  0  0  0  0
 24 25  1  0  0  0  0
 25 20  2  0  0  0  0
 26 30  1  0  0  0  0
 27 28  1  0  0  0  0
 27 26  2  0  0  0  0
 28 29  2  0  0  0  0
 29  2  1  0  0  0  0
 29 31  1  0  0  0  0
 30 31  2  0  0  0  0
 32 34  1  0  0  0  0
 33 34  2  0  0  0  0
 34 12  1  0  0  0  0
 35 14  1  0  0  0  0
 35 36  2  0  0  0  0
 37 42  1  0  0  0  0
 38 37  1  0  0  0  0
 39 43  1  0  0  0  0
 40 36  1  0  0  0  0
 40 39  1  0  0  0  0
 41 37  1  0  0  0  0
 41 40  1  0  0  0  0
 42 39  1  0  0  0  0
 43 44  2  0  0  0  0
 44 46  1  0  0  0  0
 45 49  1  0  0  0  0
 46 45  1  0  0  0  0
 46 48  1  0  0  0  0
 48 47  1  0  0  0  0
 49 47  1  0  0  0  0
 50 51  1  0  0  0  0
 51 52  1  0  0  0  0
 52 55  1  0  0  0  0
 53 55  2  0  0  0  0
 55 54  1  0  0  0  0
M  END
>  <MODEL>
7

>  <REMARK>
 VINA RESULT:      -6.1      3.562      7.144
  Name = 
  11 active torsions:
  status: ('A' for Active; 'I' for Inactive)
    1  A    between atoms: C_2  and  C_20
    2  A    between atoms: C_2  and  C_27
    3  A    between atoms: N_7  and  C_41
    4  A    between atoms: C_13  and  C_16
    5  A    between atoms: C_20  and  C_44
    6  A    between atoms: C_23  and  N_33
    7  A    between atoms: C_26  and  C_32
    8  A    between atoms: C_28  and  C_53
    9  A    between atoms: C_30  and  C_44
   10  A    between atoms: C_34  and  C_36
   11  A    between atoms: C_38  and  C_46
                            x       y       z     vdW  Elec       q    Type
                         _______ _______ _______ _____ _____    ______ ____

>  <TORSDO>
F 11

$$$$
=
 OpenBabel11042411283D

 55 61  0  0  1  0  0  0  0  0999 V2000
  184.9930  176.4840  137.3320 N   0  0  1  0  0  0  0  0  0  0  0  0
  182.5820  175.1150  135.6310 N   0  0  0  0  0  0  0  0  0  0  0  0
  182.1050  175.2140  137.9220 O   0  0  0  0  0  0  0  0  0  0  0  0
  183.7950  177.9950  139.3780 C   0  0  0  0  0  0  0  0  0  0  0  0
  182.6910  175.7260  136.9290 C   0  0  0  0  0  0  0  0  0  0  0  0
  185.9680  178.1930  140.4670 C   0  0  0  0  0  0  0  0  0  0  0  0
  183.6570  175.3320  134.6630 C   0  0  0  0  0  2  0  0  0  0  0  0
  183.5830  176.9180  137.1330 C   0  0  1  0  0  3  0  0  0  0  0  0
  183.0550  177.6690  138.2390 O   0  0  0  0  0  0  0  0  0  0  0  0
  185.1800  177.8790  139.3350 C   0  0  0  0  0  0  0  0  0  0  0  0
  183.1580  178.4310  140.5450 C   0  0  0  0  0  0  0  0  0  0  0  0
  185.6380  176.1860  136.0240 C   0  0  2  0  0  3  0  0  0  0  0  0
  184.9740  173.8450  136.0490 O   0  0  0  0  0  1  0  0  0  0  0  0
  185.3180  178.6130  141.6560 C   0  0  0  0  0  0  0  0  0  0  0  0
  185.0200  175.0020  135.2660 C   0  0  1  0  0  3  0  0  0  0  0  0
  185.7670  177.5530  138.0030 C   0  0  2  0  0  3  0  0  0  0  0  0
  185.8250  178.7110  137.2170 O   0  0  0  0  0  1  0  0  0  0  0  0
  183.9200  178.7260  141.6760 C   0  0  0  0  0  3  0  0  0  0  0  0
  187.4450  178.0820  140.4000 C   0  0  0  0  0  0  0  0  0  0  0  0
  188.1590  177.4990  141.4570 C   0  0  0  0  0  3  0  0  0  0  0  0
  191.5880  177.7530  140.2090 F   0  0  0  0  0  0  0  0  0  0  0  0
  188.1420  178.5510  139.2760 C   0  0  0  0  0  3  0  0  0  0  0  0
  189.5350  178.4400  139.2120 C   0  0  0  0  0  3  0  0  0  0  0  0
  190.2390  177.8590  140.2710 C   0  0  0  0  0  0  0  0  0  0  0  0
  189.5510  177.3890  141.3930 C   0  0  0  0  0  3  0  0  0  0  0  0
  179.2830  172.6920  134.5940 N   0  0  0  0  0  0  0  0  0  0  0  0
  179.0990  174.0250  134.7750 C   0  0  0  0  0  3  0  0  0  0  0  0
  180.1790  174.8420  135.1150 C   0  0  0  0  0  3  0  0  0  0  0  0
  181.4590  174.2850  135.2620 C   0  0  0  0  0  0  0  0  0  0  0  0
  180.5090  172.1190  134.7350 C   0  0  0  0  0  3  0  0  0  0  0  0
  181.6130  172.9020  135.0740 C   0  0  0  0  0  3  0  0  0  0  0  0
  187.5100  175.0090  136.9390 O   0  0  0  0  0  1  0  0  0  0  0  0
  188.0370  176.6810  135.4630 O   0  0  0  0  0  0  0  0  0  0  0  0
  187.1130  175.9170  136.1640 C   0  0  0  0  0  0  0  0  0  0  0  0
  186.0960  178.9020  142.8770 C   0  0  0  0  0  3  0  0  0  0  0  0
  186.0170  178.1680  143.9870 C   0  0  0  0  0  3  0  0  0  0  0  0
  186.5230  178.9110  147.5260 C   0  0  2  0  0  3  0  0  0  0  0  0
  185.4860  179.0330  148.4470 O   0  0  0  0  0  1  0  0  0  0  0  0
  187.1630  177.2390  146.0050 C   0  0  2  0  0  3  0  0  0  0  0  0
  186.8200  178.4870  145.2110 C   0  0  2  0  0  3  0  0  0  0  0  0
  186.0560  179.3650  146.1650 C   0  0  0  0  0  2  0  0  0  0  0  0
  186.9300  177.5150  147.4220 N   0  0  0  0  0  2  0  0  0  0  0  0
  188.5930  176.8730  145.7810 C   0  0  0  0  0  3  0  0  0  0  0  0
  189.5310  177.6310  146.2180 N   0  0  0  0  0  0  0  0  0  0  0  0
  191.3990  176.4040  147.1360 C   0  0  0  0  0  2  0  0  0  0  0  0
  190.9120  177.2870  146.0060 C   0  0  1  0  0  3  0  0  0  0  0  0
  192.1690  175.4830  145.1240 C   0  0  0  0  0  2  0  0  0  0  0  0
  191.0640  176.4440  144.7690 C   0  0  0  0  0  2  0  0  0  0  0  0
  192.1360  175.2800  146.5660 N   0  0  0  0  0  2  0  0  0  0  0  0
  181.6710  178.5470  140.6080 C   0  0  0  0  0  2  0  0  0  0  0  0
  181.2620  179.3670  141.8170 C   0  0  0  0  0  2  0  0  0  0  0  0
  179.9890  178.7950  142.4060 C   0  0  0  0  0  2  0  0  0  0  0  0
  179.1280  178.5890  144.6250 O   0  0  0  0  0  1  0  0  0  0  0  0
  181.4070  178.4390  144.4230 O   0  0  0  0  0  0  0  0  0  0  0  0
  180.1400  178.5920  143.8750 C   0  0  0  0  0  0  0  0  0  0  0  0
  1 16  1  0  0  0  0
  2  5  1  0  0  0  0
  4 11  1  0  0  0  0
  5  8  1  0  0  0  0
  5  3  2  0  0  0  0
  6 14  2  0  0  0  0
  7 15  1  0  0  0  0
  7  2  1  0  0  0  0
  8  1  1  0  0  0  0
  8  9  1  0  0  0  0
  9  4  1  0  0  0  0
 10  4  2  0  0  0  0
 10  6  1  0  0  0  0
 11 50  1  0  0  0  0
 11 18  2  0  0  0  0
 12 34  1  0  0  0  0
 12  1  1  0  0  0  0
 14 18  1  0  0  0  0
 14 35  1  0  0  0  0
 15 12  1  0  0  0  0
 15 13  1  0  0  0  0
 16 10  1  0  0  0  0
 17 16  1  0  0  0  0
 19  6  1  0  0  0  0
 19 20  1  0  0  0  0
 21 24  1  0  0  0  0
 22 19  2  0  0  0  0
 23 22  1  0  0  0  0
 23 24  2  0  0  0  0
 24 25  1  0  0  0  0
 25 20  2  0  0  0  0
 26 30  2  0  0  0  0
 26 27  1  0  0  0  0
 27 28  2  0  0  0  0
 28 29  1  0  0  0  0
 29  2  1  0  0  0  0
 30 31  1  0  0  0  0
 31 29  2  0  0  0  0
 33 34  2  0  0  0  0
 34 32  1  0  0  0  0
 35 36  2  0  0  0  0
 36 40  1  0  0  0  0
 37 38  1  0  0  0  0
 39 42  1  0  0  0  0
 40 39  1  0  0  0  0
 40 41  1  0  0  0  0
 41 37  1  0  0  0  0
 42 37  1  0  0  0  0
 43 39  1  0  0  0  0
 43 44  2  0  0  0  0
 46 44  1  0  0  0  0
 46 45  1  0  0  0  0
 47 49  1  0  0  0  0
 48 47  1  0  0  0  0
 48 46  1  0  0  0  0
 49 45  1  0  0  0  0
 50 51  1  0  0  0  0
 51 52  1  0  0  0  0
 52 55  1  0  0  0  0
 55 54  2  0  0  0  0
 55 53  1  0  0  0  0
M  END
>  <MODEL>
8

>  <REMARK>
 VINA RESULT:      -5.7      4.198      9.424
  Name = 
  11 active torsions:
  status: ('A' for Active; 'I' for Inactive)
    1  A    between atoms: C_2  and  C_20
    2  A    between atoms: C_2  and  C_27
    3  A    between atoms: N_7  and  C_41
    4  A    between atoms: C_13  and  C_16
    5  A    between atoms: C_20  and  C_44
    6  A    between atoms: C_23  and  N_33
    7  A    between atoms: C_26  and  C_32
    8  A    between atoms: C_28  and  C_53
    9  A    between atoms: C_30  and  C_44
   10  A    between atoms: C_34  and  C_36
   11  A    between atoms: C_38  and  C_46
                            x       y       z     vdW  Elec       q    Type
                         _______ _______ _______ _____ _____    ______ ____

>  <TORSDO>
F 11

$$$$
=
 OpenBabel11042411283D

 55 61  0  0  1  0  0  0  0  0999 V2000
  186.1040  178.3940  143.5530 N   0  0  1  0  0  0  0  0  0  0  0  0
  188.9280  177.6260  144.9730 N   0  0  0  0  0  0  0  0  0  0  0  0
  188.6370  176.5260  142.9260 O   0  0  0  0  0  0  0  0  0  0  0  0
  186.5840  178.5040  140.7860 C   0  0  0  0  0  0  0  0  0  0  0  0
  188.4080  177.5440  143.6340 C   0  0  0  0  0  0  0  0  0  0  0  0
  184.1770  178.5200  140.3960 C   0  0  0  0  0  0  0  0  0  0  0  0
  188.2250  178.4610  145.9480 C   0  0  0  0  0  2  0  0  0  0  0  0
  187.5050  178.6230  143.1060 C   0  0  1  0  0  3  0  0  0  0  0  0
  187.6500  178.6460  141.6750 O   0  0  0  0  0  0  0  0  0  0  0  0
  185.2870  178.6600  141.2610 C   0  0  0  0  0  0  0  0  0  0  0  0
  186.8110  178.2080  139.4370 C   0  0  0  0  0  0  0  0  0  0  0  0
  185.9150  178.8770  144.9480 C   0  0  2  0  0  3  0  0  0  0  0  0
  186.5210  176.7390  145.9410 O   0  0  0  0  0  1  0  0  0  0  0  0
  184.4100  178.1970  139.0340 C   0  0  0  0  0  0  0  0  0  0  0  0
  186.7380  178.1200  146.0000 C   0  0  1  0  0  3  0  0  0  0  0  0
  185.1600  179.1210  142.6740 C   0  0  2  0  0  3  0  0  0  0  0  0
  185.3670  180.5050  142.7380 O   0  0  0  0  0  1  0  0  0  0  0  0
  185.7270  178.0480  138.5750 C   0  0  0  0  0  3  0  0  0  0  0  0
  182.8010  178.7080  140.9140 C   0  0  0  0  0  0  0  0  0  0  0  0
  182.4210  178.1370  142.1370 C   0  0  0  0  0  3  0  0  0  0  0  0
  178.9450  179.2490  142.3790 F   0  0  0  0  0  0  0  0  0  0  0  0
  181.8670  179.4660  140.1900 C   0  0  0  0  0  3  0  0  0  0  0  0
  180.5710  179.6470  140.6830 C   0  0  0  0  0  3  0  0  0  0  0  0
  180.2000  179.0740  141.9030 C   0  0  0  0  0  0  0  0  0  0  0  0
  181.1250  178.3190  142.6300 C   0  0  0  0  0  3  0  0  0  0  0  0
  192.3470  175.4600  146.1770 N   0  0  0  0  0  0  0  0  0  0  0  0
  192.0360  175.5340  144.8560 C   0  0  0  0  0  3  0  0  0  0  0  0
  190.9110  176.2490  144.4410 C   0  0  0  0  0  3  0  0  0  0  0  0
  190.1040  176.8980  145.3890 C   0  0  0  0  0  0  0  0  0  0  0  0
  191.5830  176.0710  147.1220 C   0  0  0  0  0  3  0  0  0  0  0  0
  190.4510  176.7950  146.7450 C   0  0  0  0  0  3  0  0  0  0  0  0
  183.5890  179.3550  144.6530 O   0  0  0  0  0  0  0  0  0  0  0  0
  184.1160  178.2330  146.5810 O   0  0  0  0  0  1  0  0  0  0  0  0
  184.4730  178.8300  145.3780 C   0  0  0  0  0  0  0  0  0  0  0  0
  183.2800  177.9900  138.1060 C   0  0  0  0  0  3  0  0  0  0  0  0
  182.8610  176.7860  137.7190 C   0  0  0  0  0  3  0  0  0  0  0  0
  180.1540  177.8990  135.5360 C   0  0  2  0  0  3  0  0  0  0  0  0
  179.8140  179.2360  135.3450 O   0  0  0  0  0  1  0  0  0  0  0  0
  182.1510  176.6800  135.3240 C   0  0  2  0  0  3  0  0  0  0  0  0
  181.7100  176.6080  136.7750 C   0  0  2  0  0  3  0  0  0  0  0  0
  180.6880  177.7000  136.9330 C   0  0  0  0  0  2  0  0  0  0  0  0
  181.1990  177.5160  134.5940 N   0  0  0  0  0  2  0  0  0  0  0  0
  182.1860  175.3080  134.7370 C   0  0  0  0  0  3  0  0  0  0  0  0
  181.6050  174.3330  135.3350 N   0  0  0  0  0  0  0  0  0  0  0  0
  182.8680  172.2740  135.2620 C   0  0  0  0  0  2  0  0  0  0  0  0
  181.6340  173.0070  134.7770 C   0  0  1  0  0  3  0  0  0  0  0  0
  181.0510  170.8030  135.4230 C   0  0  0  0  0  2  0  0  0  0  0  0
  180.4780  172.1910  135.2890 C   0  0  0  0  0  2  0  0  0  0  0  0
  182.4770  170.9350  135.6900 N   0  0  0  0  0  2  0  0  0  0  0  0
  188.1980  178.0250  138.9170 C   0  0  0  0  0  2  0  0  0  0  0  0
  188.5540  176.5500  138.8870 C   0  0  0  0  0  2  0  0  0  0  0  0
  189.2380  176.2230  137.5750 C   0  0  0  0  0  2  0  0  0  0  0  0
  190.9400  174.6880  138.2460 O   0  0  0  0  0  1  0  0  0  0  0  0
  191.6710  176.7570  137.5760 O   0  0  0  0  0  0  0  0  0  0  0  0
  190.6570  175.8350  137.8090 C   0  0  0  0  0  0  0  0  0  0  0  0
  1 12  1  0  0  0  0
  2 29  1  0  0  0  0
  2  7  1  0  0  0  0
  3  5  2  0  0  0  0
  4 10  1  0  0  0  0
  4  9  1  0  0  0  0
  5  2  1  0  0  0  0
  6 19  1  0  0  0  0
  6 10  2  0  0  0  0
  7 15  1  0  0  0  0
  8  1  1  0  0  0  0
  8  5  1  0  0  0  0
  9  8  1  0  0  0  0
 10 16  1  0  0  0  0
 11  4  2  0  0  0  0
 12 34  1  0  0  0  0
 12 15  1  0  0  0  0
 13 15  1  0  0  0  0
 14  6  1  0  0  0  0
 16 17  1  0  0  0  0
 16  1  1  0  0  0  0
 18 14  2  0  0  0  0
 18 11  1  0  0  0  0
 19 20  1  0  0  0  0
 20 25  2  0  0  0  0
 22 23  1  0  0  0  0
 22 19  2  0  0  0  0
 23 24  2  0  0  0  0
 24 21  1  0  0  0  0
 24 25  1  0  0  0  0
 26 30  1  0  0  0  0
 27 26  2  0  0  0  0
 28 27  1  0  0  0  0
 28 29  2  0  0  0  0
 29 31  1  0  0  0  0
 31 30  2  0  0  0  0
 32 34  2  0  0  0  0
 34 33  1  0  0  0  0
 35 14  1  0  0  0  0
 36 35  2  0  0  0  0
 37 41  1  0  0  0  0
 38 37  1  0  0  0  0
 39 40  1  0  0  0  0
 40 41  1  0  0  0  0
 40 36  1  0  0  0  0
 42 39  1  0  0  0  0
 42 37  1  0  0  0  0
 43 39  1  0  0  0  0
 43 44  2  0  0  0  0
 45 49  1  0  0  0  0
 46 45  1  0  0  0  0
 46 48  1  0  0  0  0
 46 44  1  0  0  0  0
 47 49  1  0  0  0  0
 48 47  1  0  0  0  0
 50 11  1  0  0  0  0
 51 50  1  0  0  0  0
 52 55  1  0  0  0  0
 52 51  1  0  0  0  0
 54 55  2  0  0  0  0
 55 53  1  0  0  0  0
M  END
>  <MODEL>
9

>  <REMARK>
 VINA RESULT:      -5.4      3.841      6.681
  Name = 
  11 active torsions:
  status: ('A' for Active; 'I' for Inactive)
    1  A    between atoms: C_2  and  C_20
    2  A    between atoms: C_2  and  C_27
    3  A    between atoms: N_7  and  C_41
    4  A    between atoms: C_13  and  C_16
    5  A    between atoms: C_20  and  C_44
    6  A    between atoms: C_23  and  N_33
    7  A    between atoms: C_26  and  C_32
    8  A    between atoms: C_28  and  C_53
    9  A    between atoms: C_30  and  C_44
   10  A    between atoms: C_34  and  C_36
   11  A    between atoms: C_38  and  C_46
                            x       y       z     vdW  Elec       q    Type
                         _______ _______ _______ _____ _____    ______ ____

>  <TORSDO>
F 11

$$$$
