=
 OpenBabel11042411223D

 25 28  0  0  1  0  0  0  0  0999 V2000
  190.7730  178.2890  145.6650 C   0  0  0  0  0  2  0  0  0  0  0  0
  184.2620  178.6280  145.4430 C   0  0  0  0  0  0  0  0  0  0  0  0
  188.2700  177.6230  142.7440 N   0  0  0  0  0  2  0  0  0  0  0  0
  186.9640  177.8530  145.4280 C   0  0  0  0  0  0  0  0  0  0  0  0
  186.9780  178.1110  142.9300 N   0  0  0  0  0  0  0  0  0  0  0  0
  190.9390  175.9150  142.2230 C   0  0  0  0  0  3  0  0  0  0  0  0
  187.6130  178.3530  139.4590 C   0  0  0  0  0  0  0  0  0  0  0  0
  187.6990  178.9300  140.8230 C   0  0  2  0  0  3  0  0  0  0  0  0
  186.3040  178.1480  144.2030 C   0  0  0  0  0  0  0  0  0  0  0  0
  182.9580  178.9980  145.4500 F   0  0  0  0  0  0  0  0  0  0  0  0
  188.4160  177.4630  145.4850 C   0  0  1  0  0  3  0  0  0  0  0  0
  186.2560  177.9750  146.6340 C   0  0  0  0  0  3  0  0  0  0  0  0
  191.5050  178.8960  144.4710 C   0  0  0  0  0  2  0  0  0  0  0  0
  186.6030  178.3870  138.7740 O   0  0  0  0  0  0  0  0  0  0  0  0
  189.1240  177.5530  138.9290 S   0  0  0  0  0  0  0  0  0  0  0  0
  189.3020  178.6850  145.6970 C   0  0  0  0  0  2  0  0  0  0  0  0
  188.6950  178.0470  141.4680 C   0  0  2  0  0  3  0  0  0  0  0  0
  188.6370  176.5120  146.4850 O   0  0  0  0  0  1  0  0  0  0  0  0
  191.1170  178.2400  143.1520 C   0  0  0  0  0  2  0  0  0  0  0  0
  189.4920  177.3310  140.6730 C   0  0  1  0  0  3  0  0  0  0  0  0
  190.2290  176.1270  141.1040 C   0  0  0  0  0  3  0  0  0  0  0  0
  184.9140  178.3560  146.6430 C   0  0  0  0  0  3  0  0  0  0  0  0
  184.9540  178.5320  144.2360 C   0  0  0  0  0  3  0  0  0  0  0  0
  191.2450  176.8280  143.2440 O   0  0  0  0  0  0  0  0  0  0  0  0
  186.4610  178.7310  141.7090 C   0  0  0  0  0  2  0  0  0  0  0  0
  1 16  1  0  0  0  0
  2 10  1  0  0  0  0
  2 22  1  0  0  0  0
  3  5  1  0  0  0  0
  4 11  1  0  0  0  0
  4 12  1  0  0  0  0
  5  9  1  0  0  0  0
  6 24  1  0  0  0  0
  7  8  1  0  0  0  0
  8 17  1  0  0  0  0
  8 25  1  1  0  0  0
  9 23  1  0  0  0  0
  9  4  2  0  0  0  0
 11 16  1  0  0  0  0
 11 18  1  1  0  0  0
 12 22  2  0  0  0  0
 13  1  1  0  0  0  0
 14  7  2  0  0  0  0
 15  7  1  0  0  0  0
 15 20  1  0  0  0  0
 17  3  1  1  0  0  0
 19 24  1  0  0  0  0
 19 13  1  0  0  0  0
 20 21  1  1  0  0  0
 20 17  1  0  0  0  0
 21  6  2  0  0  0  0
 23  2  2  0  0  0  0
 25  5  1  0  0  0  0
M  END
>  <MODEL>
1

>  <REMARK>
 VINA RESULT:      -7.9      0.000      0.000
  Name = 
  0 active torsions:
  status: ('A' for Active; 'I' for Inactive)
                            x       y       z     vdW  Elec       q    Type
                         _______ _______ _______ _____ _____    ______ ____

>  <TORSDO>
F 0

$$$$
=
 OpenBabel11042411223D

 25 28  0  0  1  0  0  0  0  0999 V2000
  184.5580  177.7950  137.7850 C   0  0  0  0  0  2  0  0  0  0  0  0
  184.6560  178.6830  144.2470 C   0  0  0  0  0  0  0  0  0  0  0  0
  187.5370  178.2880  140.2590 N   0  0  0  0  0  2  0  0  0  0  0  0
  184.8600  178.8990  141.4510 C   0  0  0  0  0  0  0  0  0  0  0  0
  187.2400  178.1100  141.6090 N   0  0  0  0  0  0  0  0  0  0  0  0
  188.4410  179.2930  137.3470 C   0  0  0  0  0  3  0  0  0  0  0  0
  190.5750  177.0090  141.2020 C   0  0  0  0  0  0  0  0  0  0  0  0
  189.1180  176.7330  141.1590 C   0  0  2  0  0  3  0  0  0  0  0  0
  185.9850  178.4800  142.2140 C   0  0  0  0  0  0  0  0  0  0  0  0
  184.5590  178.5830  145.5950 F   0  0  0  0  0  0  0  0  0  0  0  0
  184.9010  179.0040  139.9510 C   0  0  1  0  0  3  0  0  0  0  0  0
  183.6520  179.1790  142.1090 C   0  0  0  0  0  3  0  0  0  0  0  0
  185.5940  176.8150  137.2390 C   0  0  0  0  0  2  0  0  0  0  0  0
  191.2290  177.0230  142.2330 O   0  0  0  0  0  0  0  0  0  0  0  0
  191.2790  177.3670  139.5970 S   0  0  0  0  0  0  0  0  0  0  0  0
  184.4300  177.7080  139.3000 C   0  0  0  0  0  2  0  0  0  0  0  0
  188.6910  177.5240  139.9850 C   0  0  2  0  0  3  0  0  0  0  0  0
  184.1370  180.0870  139.5060 O   0  0  0  0  0  1  0  0  0  0  0  0
  187.0220  177.2340  137.5620 C   0  0  0  0  0  2  0  0  0  0  0  0
  189.6300  177.8850  139.1080 C   0  0  1  0  0  3  0  0  0  0  0  0
  189.4810  178.9870  138.1380 C   0  0  0  0  0  3  0  0  0  0  0  0
  183.5500  179.0770  143.4960 C   0  0  0  0  0  3  0  0  0  0  0  0
  185.8580  178.3810  143.6100 C   0  0  0  0  0  3  0  0  0  0  0  0
  187.2460  178.5800  137.1670 O   0  0  0  0  0  0  0  0  0  0  0  0
  188.2900  177.3550  142.2930 C   0  0  0  0  0  2  0  0  0  0  0  0
  1 16  1  0  0  0  0
  2 10  1  0  0  0  0
  3  5  1  0  0  0  0
  4 12  2  0  0  0  0
  4  9  1  0  0  0  0
  5  9  1  0  0  0  0
  5 25  1  0  0  0  0
  6 21  2  0  0  0  0
  7 14  2  0  0  0  0
  8  7  1  0  0  0  0
  8 25  1  1  0  0  0
  9 23  2  0  0  0  0
 11 18  1  6  0  0  0
 11  4  1  0  0  0  0
 12 22  1  0  0  0  0
 13 19  1  0  0  0  0
 13  1  1  0  0  0  0
 15  7  1  0  0  0  0
 16 11  1  0  0  0  0
 17  3  1  1  0  0  0
 17  8  1  0  0  0  0
 20 21  1  1  0  0  0
 20 15  1  0  0  0  0
 20 17  1  0  0  0  0
 22  2  2  0  0  0  0
 23  2  1  0  0  0  0
 24  6  1  0  0  0  0
 24 19  1  0  0  0  0
M  END
>  <MODEL>
2

>  <REMARK>
 VINA RESULT:      -7.9      2.355      5.299
  Name = 
  0 active torsions:
  status: ('A' for Active; 'I' for Inactive)
                            x       y       z     vdW  Elec       q    Type
                         _______ _______ _______ _____ _____    ______ ____

>  <TORSDO>
F 0

$$$$
=
 OpenBabel11042411223D

 25 28  0  0  1  0  0  0  0  0999 V2000
  189.7970  177.1270  140.6060 C   0  0  0  0  0  2  0  0  0  0  0  0
  183.7950  178.6210  142.6810 C   0  0  0  0  0  0  0  0  0  0  0  0
  188.4770  178.0940  144.1510 N   0  0  0  0  0  2  0  0  0  0  0  0
  186.5100  178.5910  141.9500 C   0  0  0  0  0  0  0  0  0  0  0  0
  187.0970  178.0200  144.3240 N   0  0  0  0  0  0  0  0  0  0  0  0
  191.5810  178.8950  143.9540 C   0  0  0  0  0  3  0  0  0  0  0  0
  188.5110  177.1650  147.4510 C   0  0  0  0  0  0  0  0  0  0  0  0
  188.0550  176.7670  146.0960 C   0  0  2  0  0  3  0  0  0  0  0  0
  186.1360  178.3400  143.2990 C   0  0  0  0  0  0  0  0  0  0  0  0
  182.4870  178.6400  143.0340 F   0  0  0  0  0  0  0  0  0  0  0  0
  187.9430  178.5570  141.4940 C   0  0  1  0  0  3  0  0  0  0  0  0
  185.5090  178.8300  140.9950 C   0  0  0  0  0  3  0  0  0  0  0  0
  190.5920  176.1900  141.5110 C   0  0  0  0  0  2  0  0  0  0  0  0
  187.7570  177.3310  148.3960 O   0  0  0  0  0  0  0  0  0  0  0  0
  190.2780  177.4290  147.5570 S   0  0  0  0  0  0  0  0  0  0  0  0
  188.3220  177.1720  140.9830 C   0  0  0  0  0  2  0  0  0  0  0  0
  189.0690  177.4070  145.2310 C   0  0  2  0  0  3  0  0  0  0  0  0
  188.1770  179.5270  140.5140 O   0  0  0  0  0  1  0  0  0  0  0  0
  190.7850  176.7540  142.9130 C   0  0  0  0  0  2  0  0  0  0  0  0
  190.2270  177.7600  145.7920 C   0  0  1  0  0  3  0  0  0  0  0  0
  191.1590  178.7500  145.2200 C   0  0  0  0  0  3  0  0  0  0  0  0
  184.1620  178.8500  141.3560 C   0  0  0  0  0  3  0  0  0  0  0  0
  184.7730  178.3620  143.6400 C   0  0  0  0  0  3  0  0  0  0  0  0
  191.3130  178.0710  142.8490 O   0  0  0  0  0  0  0  0  0  0  0  0
  186.7520  177.4220  145.6150 C   0  0  0  0  0  2  0  0  0  0  0  0
  1 16  1  0  0  0  0
  1 13  1  0  0  0  0
  2 10  1  0  0  0  0
  2 23  1  0  0  0  0
  3  5  1  0  0  0  0
  4  9  1  0  0  0  0
  5 25  1  0  0  0  0
  6 21  2  0  0  0  0
  7 15  1  0  0  0  0
  7 14  2  0  0  0  0
  8 25  1  6  0  0  0
  8  7  1  0  0  0  0
  9 23  2  0  0  0  0
  9  5  1  0  0  0  0
 11 18  1  6  0  0  0
 11  4  1  0  0  0  0
 12 22  1  0  0  0  0
 12  4  2  0  0  0  0
 13 19  1  0  0  0  0
 16 11  1  0  0  0  0
 17  3  1  1  0  0  0
 17 20  1  0  0  0  0
 17  8  1  0  0  0  0
 20 21  1  1  0  0  0
 20 15  1  0  0  0  0
 22  2  2  0  0  0  0
 24 19  1  0  0  0  0
 24  6  1  0  0  0  0
M  END
>  <MODEL>
3

>  <REMARK>
 VINA RESULT:      -7.4      2.219      4.883
  Name = 
  0 active torsions:
  status: ('A' for Active; 'I' for Inactive)
                            x       y       z     vdW  Elec       q    Type
                         _______ _______ _______ _____ _____    ______ ____

>  <TORSDO>
F 0

$$$$
=
 OpenBabel11042411223D

 25 28  0  0  1  0  0  0  0  0999 V2000
  191.7280  176.0850  146.4750 C   0  0  0  0  0  2  0  0  0  0  0  0
  189.9950  177.6350  140.3800 C   0  0  0  0  0  0  0  0  0  0  0  0
  188.5500  177.8810  145.0930 N   0  0  0  0  0  2  0  0  0  0  0  0
  190.7550  177.6090  143.0860 C   0  0  0  0  0  0  0  0  0  0  0  0
  188.3290  177.7540  143.7230 N   0  0  0  0  0  0  0  0  0  0  0  0
  189.0320  178.8270  148.1240 C   0  0  0  0  0  3  0  0  0  0  0  0
  185.1230  177.8930  145.2090 C   0  0  0  0  0  0  0  0  0  0  0  0
  186.3070  177.1080  144.7810 C   0  0  2  0  0  3  0  0  0  0  0  0
  189.3790  177.7090  142.7370 C   0  0  0  0  0  0  0  0  0  0  0  0
  189.6280  177.6520  139.0750 F   0  0  0  0  0  0  0  0  0  0  0  0
  191.2190  177.5600  144.5170 C   0  0  1  0  0  3  0  0  0  0  0  0
  191.7150  177.5030  142.0670 C   0  0  0  0  0  3  0  0  0  0  0  0
  190.6220  175.4920  147.3440 C   0  0  0  0  0  2  0  0  0  0  0  0
  184.2410  178.2540  144.4460 O   0  0  0  0  0  0  0  0  0  0  0  0
  185.1350  178.3070  146.9500 S   0  0  0  0  0  0  0  0  0  0  0  0
  191.3430  176.1200  145.0020 C   0  0  0  0  0  2  0  0  0  0  0  0
  187.3380  177.5610  145.7400 C   0  0  2  0  0  3  0  0  0  0  0  0
  192.4300  178.2400  144.6710 O   0  0  0  0  0  1  0  0  0  0  0  0
  189.4310  176.4300  147.4950 C   0  0  0  0  0  2  0  0  0  0  0  0
  186.9220  178.1400  146.8680 C   0  0  1  0  0  3  0  0  0  0  0  0
  187.7640  179.0030  147.7180 C   0  0  0  0  0  3  0  0  0  0  0  0
  191.3400  177.5200  140.7240 C   0  0  0  0  0  3  0  0  0  0  0  0
  189.0250  177.7210  141.3780 C   0  0  0  0  0  3  0  0  0  0  0  0
  189.8630  177.7150  147.9180 O   0  0  0  0  0  0  0  0  0  0  0  0
  186.9170  177.5060  143.4300 C   0  0  0  0  0  2  0  0  0  0  0  0
  1 13  1  0  0  0  0
  2 22  2  0  0  0  0
  2 23  1  0  0  0  0
  4 11  1  0  0  0  0
  5  3  1  0  0  0  0
  7 15  1  0  0  0  0
  8 25  1  6  0  0  0
  8  7  1  0  0  0  0
  8 17  1  0  0  0  0
  9  4  1  0  0  0  0
  9  5  1  0  0  0  0
 10  2  1  0  0  0  0
 11 18  1  6  0  0  0
 11 16  1  0  0  0  0
 12  4  2  0  0  0  0
 13 19  1  0  0  0  0
 14  7  2  0  0  0  0
 16  1  1  0  0  0  0
 17  3  1  6  0  0  0
 17 20  1  0  0  0  0
 19 24  1  0  0  0  0
 20 15  1  0  0  0  0
 20 21  1  6  0  0  0
 21  6  2  0  0  0  0
 22 12  1  0  0  0  0
 23  9  2  0  0  0  0
 24  6  1  0  0  0  0
 25  5  1  0  0  0  0
M  END
>  <MODEL>
4

>  <REMARK>
 VINA RESULT:      -7.2      3.263      5.698
  Name = 
  0 active torsions:
  status: ('A' for Active; 'I' for Inactive)
                            x       y       z     vdW  Elec       q    Type
                         _______ _______ _______ _____ _____    ______ ____

>  <TORSDO>
F 0

$$$$
=
 OpenBabel11042411223D

 25 28  0  0  1  0  0  0  0  0999 V2000
  192.4880  177.1280  141.5560 C   0  0  0  0  0  2  0  0  0  0  0  0
  186.9040  177.8410  144.8520 C   0  0  0  0  0  0  0  0  0  0  0  0
  188.7730  177.0240  140.3580 N   0  0  0  0  0  2  0  0  0  0  0  0
  189.0890  176.9340  143.3340 C   0  0  0  0  0  0  0  0  0  0  0  0
  187.8360  177.5480  141.2450 N   0  0  0  0  0  0  0  0  0  0  0  0
  190.5550  175.2690  138.3430 C   0  0  0  0  0  3  0  0  0  0  0  0
  186.6020  178.2530  138.0070 C   0  0  0  0  0  0  0  0  0  0  0  0
  187.4520  178.6220  139.1660 C   0  0  2  0  0  3  0  0  0  0  0  0
  187.9300  177.4370  142.6790 C   0  0  0  0  0  0  0  0  0  0  0  0
  185.8490  178.2750  145.5840 F   0  0  0  0  0  0  0  0  0  0  0  0
  190.3000  176.4620  142.5750 C   0  0  1  0  0  3  0  0  0  0  0  0
  189.1300  176.9180  144.7370 C   0  0  0  0  0  3  0  0  0  0  0  0
  192.5610  177.8600  140.2190 C   0  0  0  0  0  2  0  0  0  0  0  0
  185.3960  178.4390  137.9680 O   0  0  0  0  0  0  0  0  0  0  0  0
  187.5080  177.4590  136.6840 S   0  0  0  0  0  0  0  0  0  0  0  0
  191.3080  177.5930  142.3990 C   0  0  0  0  0  2  0  0  0  0  0  0
  188.5220  177.6040  139.0970 C   0  0  2  0  0  3  0  0  0  0  0  0
  190.8900  175.3670  143.2110 O   0  0  0  0  0  1  0  0  0  0  0  0
  191.4690  177.4220  139.2510 C   0  0  0  0  0  2  0  0  0  0  0  0
  188.6970  176.9680  137.9380 C   0  0  1  0  0  3  0  0  0  0  0  0
  189.3990  175.6770  137.7960 C   0  0  0  0  0  3  0  0  0  0  0  0
  188.0450  177.3640  145.4920 C   0  0  0  0  0  3  0  0  0  0  0  0
  186.8510  177.8830  143.4600 C   0  0  0  0  0  3  0  0  0  0  0  0
  191.4540  176.0080  139.1270 O   0  0  0  0  0  0  0  0  0  0  0  0
  186.8400  178.3640  140.5490 C   0  0  0  0  0  2  0  0  0  0  0  0
  1 16  1  0  0  0  0
  2 22  1  0  0  0  0
  2 10  1  0  0  0  0
  3  5  1  0  0  0  0
  4 12  1  0  0  0  0
  5  9  1  0  0  0  0
  6 24  1  0  0  0  0
  7  8  1  0  0  0  0
  8 25  1  1  0  0  0
  9  4  2  0  0  0  0
  9 23  1  0  0  0  0
 11 18  1  1  0  0  0
 11  4  1  0  0  0  0
 12 22  2  0  0  0  0
 13  1  1  0  0  0  0
 14  7  2  0  0  0  0
 15 20  1  0  0  0  0
 15  7  1  0  0  0  0
 16 11  1  0  0  0  0
 17  8  1  0  0  0  0
 17  3  1  1  0  0  0
 19 13  1  0  0  0  0
 20 21  1  1  0  0  0
 20 17  1  0  0  0  0
 21  6  2  0  0  0  0
 23  2  2  0  0  0  0
 24 19  1  0  0  0  0
 25  5  1  0  0  0  0
M  END
>  <MODEL>
5

>  <REMARK>
 VINA RESULT:      -6.5      2.094      3.177
  Name = 
  0 active torsions:
  status: ('A' for Active; 'I' for Inactive)
                            x       y       z     vdW  Elec       q    Type
                         _______ _______ _______ _____ _____    ______ ____

>  <TORSDO>
F 0

$$$$
=
 OpenBabel11042411223D

 25 28  0  0  1  0  0  0  0  0999 V2000
  189.1290  176.3760  137.1190 C   0  0  0  0  0  2  0  0  0  0  0  0
  184.3250  179.0230  140.6490 C   0  0  0  0  0  0  0  0  0  0  0  0
  189.0330  177.5550  140.8390 N   0  0  0  0  0  2  0  0  0  0  0  0
  186.6800  178.4560  139.2230 C   0  0  0  0  0  0  0  0  0  0  0  0
  187.7650  177.7570  141.3780 N   0  0  0  0  0  0  0  0  0  0  0  0
  192.0620  177.7180  139.7850 C   0  0  0  0  0  3  0  0  0  0  0  0
  189.7760  176.6070  144.0490 C   0  0  0  0  0  0  0  0  0  0  0  0
  188.9020  176.3210  142.8840 C   0  0  2  0  0  3  0  0  0  0  0  0
  186.6440  178.2720  140.6330 C   0  0  0  0  0  0  0  0  0  0  0  0
  183.1910  179.3010  141.3380 F   0  0  0  0  0  0  0  0  0  0  0  0
  187.9020  178.1400  138.4030 C   0  0  1  0  0  3  0  0  0  0  0  0
  185.5250  178.9000  138.5590 C   0  0  0  0  0  3  0  0  0  0  0  0
  189.9410  175.2900  137.8200 C   0  0  0  0  0  2  0  0  0  0  0  0
  189.3530  176.9110  145.1520 O   0  0  0  0  0  0  0  0  0  0  0  0
  191.5220  176.5100  143.6680 S   0  0  0  0  0  0  0  0  0  0  0  0
  187.8490  176.7120  137.8720 C   0  0  0  0  0  2  0  0  0  0  0  0
  189.7490  176.7520  141.7520 C   0  0  2  0  0  3  0  0  0  0  0  0
  188.0460  179.0530  137.3530 O   0  0  0  0  0  1  0  0  0  0  0  0
  190.6110  175.7910  139.0930 C   0  0  0  0  0  2  0  0  0  0  0  0
  191.0610  176.8610  141.9680 C   0  0  1  0  0  3  0  0  0  0  0  0
  191.9790  177.6500  141.1230 C   0  0  0  0  0  3  0  0  0  0  0  0
  184.3570  179.1860  139.2660 C   0  0  0  0  0  3  0  0  0  0  0  0
  185.4560  178.5640  141.3230 C   0  0  0  0  0  3  0  0  0  0  0  0
  191.3500  176.9760  138.8310 O   0  0  0  0  0  0  0  0  0  0  0  0
  187.6720  177.2280  142.7390 C   0  0  0  0  0  2  0  0  0  0  0  0
  1 13  1  0  0  0  0
  1 16  1  0  0  0  0
  2 23  1  0  0  0  0
  2 10  1  0  0  0  0
  3  5  1  0  0  0  0
  4  9  1  0  0  0  0
  5 25  1  0  0  0  0
  6 21  2  0  0  0  0
  7 14  2  0  0  0  0
  8 25  1  1  0  0  0
  8  7  1  0  0  0  0
  9 23  2  0  0  0  0
  9  5  1  0  0  0  0
 11 18  1  6  0  0  0
 11  4  1  0  0  0  0
 12  4  2  0  0  0  0
 12 22  1  0  0  0  0
 13 19  1  0  0  0  0
 15  7  1  0  0  0  0
 16 11  1  0  0  0  0
 17  3  1  1  0  0  0
 17 20  1  0  0  0  0
 17  8  1  0  0  0  0
 20 21  1  1  0  0  0
 20 15  1  0  0  0  0
 22  2  2  0  0  0  0
 24 19  1  0  0  0  0
 24  6  1  0  0  0  0
M  END
>  <MODEL>
6

>  <REMARK>
 VINA RESULT:      -6.4      2.743      5.545
  Name = 
  0 active torsions:
  status: ('A' for Active; 'I' for Inactive)
                            x       y       z     vdW  Elec       q    Type
                         _______ _______ _______ _____ _____    ______ ____

>  <TORSDO>
F 0

$$$$
=
 OpenBabel11042411223D

 25 28  0  0  1  0  0  0  0  0999 V2000
  188.4570  176.9580  143.9680 C   0  0  0  0  0  2  0  0  0  0  0  0
  187.9540  178.2320  137.5900 C   0  0  0  0  0  0  0  0  0  0  0  0
  185.6020  178.6470  141.9090 N   0  0  0  0  0  2  0  0  0  0  0  0
  188.1630  178.3280  140.3920 C   0  0  0  0  0  0  0  0  0  0  0  0
  185.6580  178.4610  140.5300 N   0  0  0  0  0  0  0  0  0  0  0  0
  185.4680  179.7230  144.9320 C   0  0  0  0  0  3  0  0  0  0  0  0
  182.2210  178.6120  141.3450 C   0  0  0  0  0  0  0  0  0  0  0  0
  183.4720  177.8270  141.1940 C   0  0  2  0  0  3  0  0  0  0  0  0
  186.8830  178.3920  139.7730 C   0  0  0  0  0  0  0  0  0  0  0  0
  187.8530  178.1900  136.2390 F   0  0  0  0  0  0  0  0  0  0  0  0
  188.3350  178.3440  141.8860 C   0  0  1  0  0  3  0  0  0  0  0  0
  189.3060  178.1950  139.5880 C   0  0  0  0  0  3  0  0  0  0  0  0
  187.2050  176.3850  144.6260 C   0  0  0  0  0  2  0  0  0  0  0  0
  181.5050  178.9260  140.4080 O   0  0  0  0  0  0  0  0  0  0  0  0
  181.8850  179.0960  143.0350 S   0  0  0  0  0  0  0  0  0  0  0  0
  188.3710  176.9270  142.4470 C   0  0  0  0  0  2  0  0  0  0  0  0
  184.2890  178.3350  142.3170 C   0  0  2  0  0  3  0  0  0  0  0  0
  189.4870  179.0490  142.2470 O   0  0  0  0  0  1  0  0  0  0  0  0
  186.0010  177.3100  144.4980 C   0  0  0  0  0  2  0  0  0  0  0  0
  183.6530  178.9530  143.3150 C   0  0  1  0  0  3  0  0  0  0  0  0
  184.3040  179.8630  144.2770 C   0  0  0  0  0  3  0  0  0  0  0  0
  189.2050  178.1520  138.1970 C   0  0  0  0  0  3  0  0  0  0  0  0
  186.8050  178.3440  138.3720 C   0  0  0  0  0  3  0  0  0  0  0  0
  186.3320  178.6180  144.9430 O   0  0  0  0  0  0  0  0  0  0  0  0
  184.3340  178.1800  139.9740 C   0  0  0  0  0  2  0  0  0  0  0  0
  1 13  1  0  0  0  0
  2 22  2  0  0  0  0
  2 23  1  0  0  0  0
  4 11  1  0  0  0  0
  5  3  1  0  0  0  0
  6 24  1  0  0  0  0
  7 15  1  0  0  0  0
  8 25  1  6  0  0  0
  8  7  1  0  0  0  0
  8 17  1  0  0  0  0
  9  4  1  0  0  0  0
  9  5  1  0  0  0  0
 10  2  1  0  0  0  0
 11 18  1  6  0  0  0
 11 16  1  0  0  0  0
 12  4  2  0  0  0  0
 14  7  2  0  0  0  0
 15 20  1  0  0  0  0
 16  1  1  0  0  0  0
 17  3  1  6  0  0  0
 17 20  1  0  0  0  0
 19 13  1  0  0  0  0
 19 24  1  0  0  0  0
 20 21  1  6  0  0  0
 21  6  2  0  0  0  0
 22 12  1  0  0  0  0
 23  9  2  0  0  0  0
 25  5  1  0  0  0  0
M  END
>  <MODEL>
7

>  <REMARK>
 VINA RESULT:      -6.2      3.557      6.058
  Name = 
  0 active torsions:
  status: ('A' for Active; 'I' for Inactive)
                            x       y       z     vdW  Elec       q    Type
                         _______ _______ _______ _____ _____    ______ ____

>  <TORSDO>
F 0

$$$$
=
 OpenBabel11042411223D

 25 28  0  0  1  0  0  0  0  0999 V2000
  189.4800  178.1510  137.1310 C   0  0  0  0  0  2  0  0  0  0  0  0
  189.2710  178.0180  143.6490 C   0  0  0  0  0  0  0  0  0  0  0  0
  186.4740  177.7630  139.5910 N   0  0  0  0  0  2  0  0  0  0  0  0
  189.1520  177.4650  140.8960 C   0  0  0  0  0  0  0  0  0  0  0  0
  186.7250  178.1140  140.9150 N   0  0  0  0  0  0  0  0  0  0  0  0
  185.7080  176.3690  136.8010 C   0  0  0  0  0  3  0  0  0  0  0  0
  183.3410  178.9480  140.3200 C   0  0  0  0  0  0  0  0  0  0  0  0
  184.7790  179.3080  140.2720 C   0  0  2  0  0  3  0  0  0  0  0  0
  187.9840  177.8980  141.5830 C   0  0  0  0  0  0  0  0  0  0  0  0
  189.3270  178.2810  144.9780 F   0  0  0  0  0  0  0  0  0  0  0  0
  189.1560  177.1840  139.4170 C   0  0  1  0  0  3  0  0  0  0  0  0
  190.3570  177.3410  141.6040 C   0  0  0  0  0  3  0  0  0  0  0  0
  188.4010  178.9920  136.4540 C   0  0  0  0  0  2  0  0  0  0  0  0
  182.6630  179.0120  141.3330 O   0  0  0  0  0  0  0  0  0  0  0  0
  182.7010  178.3610  138.7550 S   0  0  0  0  0  0  0  0  0  0  0  0
  189.5640  178.4220  138.6270 C   0  0  0  0  0  2  0  0  0  0  0  0
  185.2830  178.4140  139.2070 C   0  0  2  0  0  3  0  0  0  0  0  0
  189.9950  176.1070  139.1180 O   0  0  0  0  0  1  0  0  0  0  0  0
  186.9930  178.5250  136.7980 C   0  0  0  0  0  2  0  0  0  0  0  0
  184.3910  177.8950  138.3620 C   0  0  1  0  0  3  0  0  0  0  0  0
  184.6310  176.6990  137.5310 C   0  0  0  0  0  3  0  0  0  0  0  0
  190.4170  177.6110  142.9710 C   0  0  0  0  0  3  0  0  0  0  0  0
  188.0680  178.1670  142.9590 C   0  0  0  0  0  3  0  0  0  0  0  0
  186.8620  177.1300  136.5600 O   0  0  0  0  0  0  0  0  0  0  0  0
  185.6140  178.8770  141.4860 C   0  0  0  0  0  2  0  0  0  0  0  0
  1 16  1  0  0  0  0
  2 10  1  0  0  0  0
  3  5  1  0  0  0  0
  4  9  2  0  0  0  0
  4 12  1  0  0  0  0
  5 25  1  0  0  0  0
  5  9  1  0  0  0  0
  6 21  2  0  0  0  0
  7 14  2  0  0  0  0
  8  7  1  0  0  0  0
  8 25  1  1  0  0  0
  9 23  1  0  0  0  0
 11 18  1  1  0  0  0
 11  4  1  0  0  0  0
 12 22  2  0  0  0  0
 13 19  1  0  0  0  0
 13  1  1  0  0  0  0
 15  7  1  0  0  0  0
 16 11  1  0  0  0  0
 17  3  1  1  0  0  0
 17  8  1  0  0  0  0
 20 21  1  1  0  0  0
 20 15  1  0  0  0  0
 20 17  1  0  0  0  0
 22  2  1  0  0  0  0
 23  2  2  0  0  0  0
 24 19  1  0  0  0  0
 24  6  1  0  0  0  0
M  END
>  <MODEL>
8

>  <REMARK>
 VINA RESULT:      -6.1      3.384      5.926
  Name = 
  0 active torsions:
  status: ('A' for Active; 'I' for Inactive)
                            x       y       z     vdW  Elec       q    Type
                         _______ _______ _______ _____ _____    ______ ____

>  <TORSDO>
F 0

$$$$
=
 OpenBabel11042411223D

 25 28  0  0  1  0  0  0  0  0999 V2000
  189.4900  178.2400  139.9800 C   0  0  0  0  0  2  0  0  0  0  0  0
  185.3290  178.6140  144.9900 C   0  0  0  0  0  0  0  0  0  0  0  0
  185.6050  177.8780  140.1180 N   0  0  0  0  0  2  0  0  0  0  0  0
  186.9200  177.8380  142.8070 C   0  0  0  0  0  0  0  0  0  0  0  0
  184.9940  178.3480  141.2780 N   0  0  0  0  0  0  0  0  0  0  0  0
  186.7050  176.2250  137.5930 C   0  0  0  0  0  3  0  0  0  0  0  0
  182.6870  178.9370  138.6630 C   0  0  0  0  0  0  0  0  0  0  0  0
  183.8550  179.3740  139.4680 C   0  0  2  0  0  3  0  0  0  0  0  0
  185.5780  178.2570  142.5920 C   0  0  0  0  0  0  0  0  0  0  0  0
  184.5600  178.9840  146.0430 F   0  0  0  0  0  0  0  0  0  0  0  0
  187.8290  177.4410  141.6750 C   0  0  1  0  0  3  0  0  0  0  0  0
  187.4380  177.8390  144.1120 C   0  0  0  0  0  3  0  0  0  0  0  0
  189.0550  178.9620  138.7080 C   0  0  0  0  0  2  0  0  0  0  0  0
  181.5310  179.0430  139.0400 O   0  0  0  0  0  0  0  0  0  0  0  0
  183.1380  178.1930  137.1000 S   0  0  0  0  0  0  0  0  0  0  0  0
  188.6400  178.6340  141.1810 C   0  0  0  0  0  2  0  0  0  0  0  0
  184.9020  178.4280  139.0260 C   0  0  2  0  0  3  0  0  0  0  0  0
  188.6710  176.3930  142.0570 O   0  0  0  0  0  1  0  0  0  0  0  0
  187.7300  178.4440  138.1640 C   0  0  0  0  0  2  0  0  0  0  0  0
  184.7130  177.7940  137.8670 C   0  0  1  0  0  3  0  0  0  0  0  0
  185.4070  176.5510  137.4780 C   0  0  0  0  0  3  0  0  0  0  0  0
  186.6490  178.2200  145.1970 C   0  0  0  0  0  3  0  0  0  0  0  0
  184.8020  178.6390  143.7000 C   0  0  0  0  0  3  0  0  0  0  0  0
  187.7670  177.0300  138.0340 O   0  0  0  0  0  0  0  0  0  0  0  0
  183.7690  179.0880  140.9740 C   0  0  0  0  0  2  0  0  0  0  0  0
  1 16  1  0  0  0  0
  2 22  1  0  0  0  0
  2 10  1  0  0  0  0
  3  5  1  0  0  0  0
  4 12  1  0  0  0  0
  5  9  1  0  0  0  0
  6 24  1  0  0  0  0
  7 14  2  0  0  0  0
  7  8  1  0  0  0  0
  8 25  1  1  0  0  0
  9  4  2  0  0  0  0
  9 23  1  0  0  0  0
 11 18  1  1  0  0  0
 11  4  1  0  0  0  0
 12 22  2  0  0  0  0
 13  1  1  0  0  0  0
 15 20  1  0  0  0  0
 15  7  1  0  0  0  0
 16 11  1  0  0  0  0
 17  8  1  0  0  0  0
 17  3  1  1  0  0  0
 19 13  1  0  0  0  0
 20 21  1  1  0  0  0
 20 17  1  0  0  0  0
 21  6  2  0  0  0  0
 23  2  2  0  0  0  0
 24 19  1  0  0  0  0
 25  5  1  0  0  0  0
M  END
>  <MODEL>
9

>  <REMARK>
 VINA RESULT:      -5.9      2.793      4.453
  Name = 
  0 active torsions:
  status: ('A' for Active; 'I' for Inactive)
                            x       y       z     vdW  Elec       q    Type
                         _______ _______ _______ _____ _____    ______ ____

>  <TORSDO>
F 0

$$$$
