=
 OpenBabel11042410493D

 31 35  0  0  1  0  0  0  0  0999 V2000
  189.9350  177.7480  141.4420 C   0  0  0  0  0  3  0  0  0  0  0  0
  189.6780  177.5730  146.4370 C   0  0  0  0  0  2  0  0  0  0  0  0
  187.7100  177.1770  145.2700 C   0  0  0  0  0  0  0  0  0  0  0  0
  189.7280  177.3460  143.8330 C   0  0  0  0  0  0  0  0  0  0  0  0
  189.0050  177.3810  145.1250 C   0  0  0  0  0  0  0  0  0  0  0  0
  188.4190  178.7990  148.0500 O   0  0  0  0  0  1  0  0  0  0  0  0
  186.7610  177.9690  143.1660 C   0  0  0  0  0  0  0  0  0  0  0  0
  188.5450  177.5420  147.4590 C   0  0  1  0  0  3  0  0  0  0  0  0
  187.8220  178.2990  142.4860 N   0  0  0  0  0  0  0  0  0  0  0  0
  191.2620  177.3170  141.4650 C   0  0  0  0  0  0  0  0  0  0  0  0
  187.2730  177.2160  146.6840 C   0  0  0  0  0  2  0  0  0  0  0  0
  191.8250  176.9090  142.6780 C   0  0  0  0  0  3  0  0  0  0  0  0
  189.1480  177.7540  142.6000 C   0  0  0  0  0  0  0  0  0  0  0  0
  191.0680  176.9310  143.8480 C   0  0  0  0  0  3  0  0  0  0  0  0
  186.7970  176.8410  144.1480 C   0  0  0  0  0  2  0  0  0  0  0  0
  191.7750  176.5130  139.0790 C   0  0  0  0  0  0  0  0  0  0  0  0
  190.8110  175.6600  139.0110 N   0  0  0  0  0  0  0  0  0  0  0  0
  192.8270  176.6510  137.6340 S   0  0  0  0  0  0  0  0  0  0  0  0
  191.8320  175.3690  136.7960 C   0  0  0  0  0  2  0  0  0  0  0  0
  190.7800  174.9850  137.7680 C   0  0  0  0  0  0  0  0  0  0  0  0
  189.9100  174.1130  137.5110 O   0  0  0  0  0  0  0  0  0  0  0  0
  192.0090  177.3200  140.2400 N   0  0  0  0  0  2  0  0  0  0  0  0
  182.4210  178.6870  142.5250 C   0  0  0  0  0  0  0  0  0  0  0  0
  185.4880  178.6840  142.9360 C   0  0  0  0  0  0  0  0  0  0  0  0
  184.5190  178.6670  143.8530 C   0  0  0  0  0  3  0  0  0  0  0  0
  182.9050  178.4490  141.3360 N   0  0  0  0  0  0  0  0  0  0  0  0
  184.2090  178.7390  140.8780 N   0  0  0  0  0  2  0  0  0  0  0  0
  183.2200  179.3660  143.6090 C   0  0  0  0  0  2  0  0  0  0  0  0
  185.2450  179.4130  141.6510 C   0  0  0  0  0  2  0  0  0  0  0  0
  181.1010  178.3080  142.7770 O   0  0  0  0  0  0  0  0  0  0  0  0
  180.4110  178.6760  143.9640 C   0  0  0  0  0  1  0  0  0  0  0  0
  1 10  2  0  0  0  0
  1 13  1  0  0  0  0
  2  8  1  0  0  0  0
  3 11  1  0  0  0  0
  4 14  1  0  0  0  0
  4  5  1  0  0  0  0
  5  3  2  0  0  0  0
  5  2  1  0  0  0  0
  7 15  1  0  0  0  0
  8  6  1  6  0  0  0
  9 13  1  0  0  0  0
  9  7  2  0  0  0  0
 10 12  1  0  0  0  0
 11  8  1  0  0  0  0
 12 14  2  0  0  0  0
 13  4  2  0  0  0  0
 15  3  1  0  0  0  0
 16 22  1  0  0  0  0
 17 16  2  0  0  0  0
 18 16  1  0  0  0  0
 19 18  1  0  0  0  0
 19 20  1  0  0  0  0
 20 17  1  0  0  0  0
 21 20  2  0  0  0  0
 22 10  1  0  0  0  0
 23 30  1  0  0  0  0
 23 28  1  0  0  0  0
 24  7  1  0  0  0  0
 24 25  2  0  0  0  0
 26 23  2  0  0  0  0
 27 26  1  0  0  0  0
 27 29  1  0  0  0  0
 28 25  1  0  0  0  0
 29 24  1  0  0  0  0
 30 31  1  0  0  0  0
M  END
>  <MODEL>
1

>  <REMARK>
 VINA RESULT:      -9.8      0.000      0.000
  Name = 
  3 active torsions:
  status: ('A' for Active; 'I' for Inactive)
    1  A    between atoms: C_3  and  O_19
    2  A    between atoms: C_4  and  C_15
    3  A    between atoms: C_21  and  N_26
                            x       y       z     vdW  Elec       q    Type
                         _______ _______ _______ _____ _____    ______ ____

>  <TORSDO>
F 3

$$$$
=
 OpenBabel11042410493D

 31 35  0  0  1  0  0  0  0  0999 V2000
  185.8920  178.2540  143.6270 C   0  0  0  0  0  3  0  0  0  0  0  0
  189.9980  176.8550  146.1210 C   0  0  0  0  0  2  0  0  0  0  0  0
  190.3190  178.0700  144.1690 C   0  0  0  0  0  0  0  0  0  0  0  0
  187.9460  177.8960  144.8800 C   0  0  0  0  0  0  0  0  0  0  0  0
  189.3960  177.6190  144.9960 C   0  0  0  0  0  0  0  0  0  0  0  0
  191.8830  175.5130  145.5390 O   0  0  0  0  0  1  0  0  0  0  0  0
  189.1430  178.2570  142.0390 C   0  0  0  0  0  0  0  0  0  0  0  0
  191.4920  176.8240  145.8100 C   0  0  1  0  0  3  0  0  0  0  0  0
  187.9260  177.9210  142.3590 N   0  0  0  0  0  0  0  0  0  0  0  0
  185.1580  178.3220  144.8110 C   0  0  0  0  0  0  0  0  0  0  0  0
  191.6910  177.6800  144.5640 C   0  0  0  0  0  2  0  0  0  0  0  0
  185.8210  178.1650  146.0340 C   0  0  0  0  0  3  0  0  0  0  0  0
  187.2780  178.0620  143.6350 C   0  0  0  0  0  0  0  0  0  0  0  0
  187.1970  177.9480  146.0640 C   0  0  0  0  0  3  0  0  0  0  0  0
  190.0300  178.9610  143.0160 C   0  0  0  0  0  2  0  0  0  0  0  0
  182.9440  178.6510  143.5490 C   0  0  0  0  0  0  0  0  0  0  0  0
  183.4460  178.5610  142.3650 N   0  0  0  0  0  0  0  0  0  0  0  0
  181.1760  178.9280  143.6520 S   0  0  0  0  0  0  0  0  0  0  0  0
  181.0770  178.9260  141.8280 C   0  0  0  0  0  2  0  0  0  0  0  0
  182.4650  178.7040  141.3560 C   0  0  0  0  0  0  0  0  0  0  0  0
  182.7610  178.6460  140.1350 O   0  0  0  0  0  0  0  0  0  0  0  0
  183.7420  178.5370  144.7350 N   0  0  0  0  0  2  0  0  0  0  0  0
  189.5260  176.4240  138.0070 C   0  0  0  0  0  0  0  0  0  0  0  0
  189.6470  177.9840  140.6760 C   0  0  0  0  0  0  0  0  0  0  0  0
  188.8830  178.2110  139.6070 C   0  0  0  0  0  3  0  0  0  0  0  0
  190.2280  175.6570  138.7960 N   0  0  0  0  0  0  0  0  0  0  0  0
  190.9210  176.0500  139.9620 N   0  0  0  0  0  2  0  0  0  0  0  0
  189.3810  177.9090  138.2300 C   0  0  0  0  0  2  0  0  0  0  0  0
  191.0160  177.4130  140.4690 C   0  0  0  0  0  2  0  0  0  0  0  0
  188.9070  175.8300  136.9050 O   0  0  0  0  0  0  0  0  0  0  0  0
  187.5250  175.4980  136.8870 C   0  0  0  0  0  1  0  0  0  0  0  0
  1 13  2  0  0  0  0
  1 10  1  0  0  0  0
  3 11  1  0  0  0  0
  3  5  2  0  0  0  0
  4  5  1  0  0  0  0
  4 14  2  0  0  0  0
  5  2  1  0  0  0  0
  7  9  2  0  0  0  0
  7 15  1  0  0  0  0
  8  6  1  6  0  0  0
  8  2  1  0  0  0  0
  9 13  1  0  0  0  0
 10 12  2  0  0  0  0
 11  8  1  0  0  0  0
 12 14  1  0  0  0  0
 13  4  1  0  0  0  0
 15  3  1  0  0  0  0
 16 18  1  0  0  0  0
 16 22  1  0  0  0  0
 17 16  2  0  0  0  0
 19 18  1  0  0  0  0
 20 19  1  0  0  0  0
 20 17  1  0  0  0  0
 21 20  2  0  0  0  0
 22 10  1  0  0  0  0
 23 28  1  0  0  0  0
 23 26  2  0  0  0  0
 24  7  1  0  0  0  0
 25 24  2  0  0  0  0
 26 27  1  0  0  0  0
 27 29  1  0  0  0  0
 28 25  1  0  0  0  0
 29 24  1  0  0  0  0
 30 23  1  0  0  0  0
 31 30  1  0  0  0  0
M  END
>  <MODEL>
2

>  <REMARK>
 VINA RESULT:      -9.0      3.050      7.178
  Name = 
  3 active torsions:
  status: ('A' for Active; 'I' for Inactive)
    1  A    between atoms: C_3  and  O_19
    2  A    between atoms: C_4  and  C_15
    3  A    between atoms: C_21  and  N_26
                            x       y       z     vdW  Elec       q    Type
                         _______ _______ _______ _____ _____    ______ ____

>  <TORSDO>
F 3

$$$$
=
 OpenBabel11042410493D

 31 35  0  0  1  0  0  0  0  0999 V2000
  191.9730  175.7930  137.9440 C   0  0  0  0  0  3  0  0  0  0  0  0
  187.2720  177.0970  136.8290 C   0  0  0  0  0  2  0  0  0  0  0  0
  188.1330  177.8880  138.8340 C   0  0  0  0  0  0  0  0  0  0  0  0
  189.7990  176.7370  137.3960 C   0  0  0  0  0  0  0  0  0  0  0  0
  188.4430  177.2260  137.7360 C   0  0  0  0  0  0  0  0  0  0  0  0
  185.1800  176.7480  137.9190 O   0  0  0  0  0  1  0  0  0  0  0  0
  189.7200  177.0440  140.4840 C   0  0  0  0  0  0  0  0  0  0  0  0
  186.1160  177.7300  137.5980 C   0  0  1  0  0  3  0  0  0  0  0  0
  190.4570  176.2340  139.7780 N   0  0  0  0  0  0  0  0  0  0  0  0
  192.3110  175.7370  136.5920 C   0  0  0  0  0  0  0  0  0  0  0  0
  186.7120  178.3000  138.8800 C   0  0  0  0  0  2  0  0  0  0  0  0
  191.3850  176.1730  135.6390 C   0  0  0  0  0  3  0  0  0  0  0  0
  190.7410  176.3010  138.3700 C   0  0  0  0  0  0  0  0  0  0  0  0
  190.1410  176.6610  136.0390 C   0  0  0  0  0  3  0  0  0  0  0  0
  189.1220  178.2720  139.8740 C   0  0  0  0  0  2  0  0  0  0  0  0
  194.7200  175.9590  135.7260 C   0  0  0  0  0  0  0  0  0  0  0  0
  194.6900  177.2360  135.5600 N   0  0  0  0  0  0  0  0  0  0  0  0
  196.2560  175.1320  135.3080 S   0  0  0  0  0  0  0  0  0  0  0  0
  196.9820  176.7390  134.8310 C   0  0  0  0  0  2  0  0  0  0  0  0
  195.9140  177.7410  135.0630 C   0  0  0  0  0  0  0  0  0  0  0  0
  196.0790  178.9670  134.8350 O   0  0  0  0  0  0  0  0  0  0  0  0
  193.5970  175.2190  136.2220 N   0  0  0  0  0  2  0  0  0  0  0  0
  188.5970  177.6840  144.7380 C   0  0  0  0  0  0  0  0  0  0  0  0
  189.5070  176.7770  141.9230 C   0  0  0  0  0  0  0  0  0  0  0  0
  188.2790  176.7860  142.4440 C   0  0  0  0  0  3  0  0  0  0  0  0
  189.8270  178.1130  144.6430 N   0  0  0  0  0  0  0  0  0  0  0  0
  190.8250  177.6350  143.7670 N   0  0  0  0  0  2  0  0  0  0  0  0
  188.0640  176.5460  143.9040 C   0  0  0  0  0  2  0  0  0  0  0  0
  190.6690  176.5270  142.8330 C   0  0  0  0  0  2  0  0  0  0  0  0
  187.7620  178.3050  145.6680 O   0  0  0  0  0  0  0  0  0  0  0  0
  186.4030  177.9290  145.8520 C   0  0  0  0  0  1  0  0  0  0  0  0
  1 13  1  0  0  0  0
  2  8  1  0  0  0  0
  2  5  1  0  0  0  0
  3 11  1  0  0  0  0
  3 15  1  0  0  0  0
  4  5  1  0  0  0  0
  4 13  2  0  0  0  0
  5  3  2  0  0  0  0
  7 24  1  0  0  0  0
  8  6  1  1  0  0  0
  8 11  1  0  0  0  0
  9  7  2  0  0  0  0
 10  1  2  0  0  0  0
 12 14  2  0  0  0  0
 12 10  1  0  0  0  0
 13  9  1  0  0  0  0
 14  4  1  0  0  0  0
 15  7  1  0  0  0  0
 16 22  1  0  0  0  0
 17 16  2  0  0  0  0
 18 16  1  0  0  0  0
 19 20  1  0  0  0  0
 19 18  1  0  0  0  0
 20 17  1  0  0  0  0
 21 20  2  0  0  0  0
 22 10  1  0  0  0  0
 23 30  1  0  0  0  0
 24 25  2  0  0  0  0
 24 29  1  0  0  0  0
 25 28  1  0  0  0  0
 26 23  2  0  0  0  0
 27 26  1  0  0  0  0
 28 23  1  0  0  0  0
 29 27  1  0  0  0  0
 30 31  1  0  0  0  0
M  END
>  <MODEL>
3

>  <REMARK>
 VINA RESULT:      -8.2      3.438      6.619
  Name = 
  3 active torsions:
  status: ('A' for Active; 'I' for Inactive)
    1  A    between atoms: C_3  and  O_19
    2  A    between atoms: C_4  and  C_15
    3  A    between atoms: C_21  and  N_26
                            x       y       z     vdW  Elec       q    Type
                         _______ _______ _______ _____ _____    ______ ____

>  <TORSDO>
F 3

$$$$
=
 OpenBabel11042410493D

 31 35  0  0  1  0  0  0  0  0999 V2000
  185.6570  178.3330  143.6710 C   0  0  0  0  0  3  0  0  0  0  0  0
  180.8990  179.8530  143.3660 C   0  0  0  0  0  2  0  0  0  0  0  0
  181.6620  178.4490  141.6820 C   0  0  0  0  0  0  0  0  0  0  0  0
  183.2630  178.7540  143.5560 C   0  0  0  0  0  0  0  0  0  0  0  0
  181.9950  179.0020  142.8330 C   0  0  0  0  0  0  0  0  0  0  0  0
  179.6810  181.0820  141.7250 O   0  0  0  0  0  1  0  0  0  0  0  0
  183.8060  178.0920  140.5720 C   0  0  0  0  0  0  0  0  0  0  0  0
  179.8200  179.8140  142.2880 C   0  0  1  0  0  3  0  0  0  0  0  0
  184.6590  178.4900  141.4720 N   0  0  0  0  0  0  0  0  0  0  0  0
  185.6210  178.3990  145.0650 C   0  0  0  0  0  0  0  0  0  0  0  0
  180.3100  178.8380  141.2240 C   0  0  0  0  0  2  0  0  0  0  0  0
  184.4030  178.6530  145.7040 C   0  0  0  0  0  3  0  0  0  0  0  0
  184.4990  178.4880  142.9020 C   0  0  0  0  0  0  0  0  0  0  0  0
  183.2410  178.8350  144.9560 C   0  0  0  0  0  3  0  0  0  0  0  0
  182.5080  177.4600  140.9660 C   0  0  0  0  0  2  0  0  0  0  0  0
  188.0660  177.6500  145.3120 C   0  0  0  0  0  0  0  0  0  0  0  0
  188.2060  177.2320  144.1010 N   0  0  0  0  0  0  0  0  0  0  0  0
  189.4960  177.4950  146.3840 S   0  0  0  0  0  0  0  0  0  0  0  0
  190.4380  176.7530  145.0070 C   0  0  0  0  0  2  0  0  0  0  0  0
  189.5010  176.7180  143.8580 C   0  0  0  0  0  0  0  0  0  0  0  0
  189.8300  176.2620  142.7330 O   0  0  0  0  0  0  0  0  0  0  0  0
  186.8410  178.2160  145.7960 N   0  0  0  0  0  2  0  0  0  0  0  0
  185.3960  177.1040  136.5400 C   0  0  0  0  0  0  0  0  0  0  0  0
  184.1380  178.2200  139.1370 C   0  0  0  0  0  0  0  0  0  0  0  0
  183.6050  177.3930  138.2360 C   0  0  0  0  0  3  0  0  0  0  0  0
  186.3990  177.6440  137.1780 N   0  0  0  0  0  0  0  0  0  0  0  0
  186.3300  178.6280  138.1880 N   0  0  0  0  0  2  0  0  0  0  0  0
  183.9630  177.5020  136.7880 C   0  0  0  0  0  2  0  0  0  0  0  0
  185.1080  179.2600  138.6690 C   0  0  0  0  0  2  0  0  0  0  0  0
  185.6830  176.1340  135.5780 O   0  0  0  0  0  0  0  0  0  0  0  0
  186.8710  175.3530  135.6060 C   0  0  0  0  0  1  0  0  0  0  0  0
  1 10  1  0  0  0  0
  3  5  2  0  0  0  0
  4 14  2  0  0  0  0
  5  2  1  0  0  0  0
  5  4  1  0  0  0  0
  7 15  1  0  0  0  0
  7  9  2  0  0  0  0
  8  6  1  6  0  0  0
  8  2  1  0  0  0  0
  9 13  1  0  0  0  0
 10 12  2  0  0  0  0
 10 22  1  0  0  0  0
 11  3  1  0  0  0  0
 11  8  1  0  0  0  0
 13  4  1  0  0  0  0
 13  1  2  0  0  0  0
 14 12  1  0  0  0  0
 15  3  1  0  0  0  0
 16 22  1  0  0  0  0
 16 18  1  0  0  0  0
 17 16  2  0  0  0  0
 19 18  1  0  0  0  0
 20 17  1  0  0  0  0
 20 19  1  0  0  0  0
 21 20  2  0  0  0  0
 23 28  1  0  0  0  0
 23 26  2  0  0  0  0
 24  7  1  0  0  0  0
 25 24  2  0  0  0  0
 26 27  1  0  0  0  0
 27 29  1  0  0  0  0
 28 25  1  0  0  0  0
 29 24  1  0  0  0  0
 30 31  1  0  0  0  0
 30 23  1  0  0  0  0
M  END
>  <MODEL>
4

>  <REMARK>
 VINA RESULT:      -8.1      3.397      7.217
  Name = 
  3 active torsions:
  status: ('A' for Active; 'I' for Inactive)
    1  A    between atoms: C_3  and  O_19
    2  A    between atoms: C_4  and  C_15
    3  A    between atoms: C_21  and  N_26
                            x       y       z     vdW  Elec       q    Type
                         _______ _______ _______ _____ _____    ______ ____

>  <TORSDO>
F 3

$$$$
=
 OpenBabel11042410493D

 31 35  0  0  1  0  0  0  0  0999 V2000
  190.3250  176.9760  139.1850 C   0  0  0  0  0  3  0  0  0  0  0  0
  185.5260  178.1710  138.4220 C   0  0  0  0  0  2  0  0  0  0  0  0
  186.4260  178.7110  140.4930 C   0  0  0  0  0  0  0  0  0  0  0  0
  188.0870  177.8710  138.8500 C   0  0  0  0  0  0  0  0  0  0  0  0
  186.7240  178.2310  139.3010 C   0  0  0  0  0  0  0  0  0  0  0  0
  183.4980  177.5560  139.5160 O   0  0  0  0  0  1  0  0  0  0  0  0
  188.1160  177.7250  141.9510 C   0  0  0  0  0  0  0  0  0  0  0  0
  184.3710  178.6230  139.3120 C   0  0  1  0  0  3  0  0  0  0  0  0
  188.8630  177.0670  141.1110 N   0  0  0  0  0  0  0  0  0  0  0  0
  190.6120  177.1340  137.8290 C   0  0  0  0  0  0  0  0  0  0  0  0
  184.9890  179.0350  140.6440 C   0  0  0  0  0  2  0  0  0  0  0  0
  189.6290  177.6520  136.9800 C   0  0  0  0  0  3  0  0  0  0  0  0
  189.0870  177.3510  139.7200 C   0  0  0  0  0  0  0  0  0  0  0  0
  188.3800  178.0090  137.4860 C   0  0  0  0  0  3  0  0  0  0  0  0
  187.4350  178.9940  141.5450 C   0  0  0  0  0  2  0  0  0  0  0  0
  192.2560  175.5180  136.6930 C   0  0  0  0  0  0  0  0  0  0  0  0
  191.3940  174.5910  136.4520 N   0  0  0  0  0  0  0  0  0  0  0  0
  193.9400  175.2040  136.1630 S   0  0  0  0  0  0  0  0  0  0  0  0
  193.4250  173.5760  135.5150 C   0  0  0  0  0  2  0  0  0  0  0  0
  191.9720  173.4780  135.7980 C   0  0  0  0  0  0  0  0  0  0  0  0
  191.2890  172.4710  135.4790 O   0  0  0  0  0  0  0  0  0  0  0  0
  191.9060  176.7450  137.3470 N   0  0  0  0  0  2  0  0  0  0  0  0
  187.8240  177.7700  146.3870 C   0  0  0  0  0  0  0  0  0  0  0  0
  187.9730  177.2440  143.3420 C   0  0  0  0  0  0  0  0  0  0  0  0
  186.9200  177.5940  144.0810 C   0  0  0  0  0  3  0  0  0  0  0  0
  189.1030  177.7180  146.1320 N   0  0  0  0  0  0  0  0  0  0  0  0
  189.7200  177.1100  145.0160 N   0  0  0  0  0  2  0  0  0  0  0  0
  186.7880  177.1320  145.4970 C   0  0  0  0  0  2  0  0  0  0  0  0
  189.0270  176.3800  143.9620 C   0  0  0  0  0  2  0  0  0  0  0  0
  187.4190  178.4340  147.5470 O   0  0  0  0  0  0  0  0  0  0  0  0
  188.0650  178.2530  148.8000 C   0  0  0  0  0  1  0  0  0  0  0  0
  1 13  1  0  0  0  0
  2  5  1  0  0  0  0
  2  8  1  0  0  0  0
  3 11  1  0  0  0  0
  3 15  1  0  0  0  0
  4  5  1  0  0  0  0
  4 13  2  0  0  0  0
  5  3  2  0  0  0  0
  7 24  1  0  0  0  0
  8  6  1  1  0  0  0
  8 11  1  0  0  0  0
  9  7  2  0  0  0  0
 10  1  2  0  0  0  0
 12 14  2  0  0  0  0
 12 10  1  0  0  0  0
 13  9  1  0  0  0  0
 14  4  1  0  0  0  0
 15  7  1  0  0  0  0
 16 22  1  0  0  0  0
 17 16  2  0  0  0  0
 18 16  1  0  0  0  0
 19 20  1  0  0  0  0
 19 18  1  0  0  0  0
 20 17  1  0  0  0  0
 21 20  2  0  0  0  0
 22 10  1  0  0  0  0
 23 30  1  0  0  0  0
 24 29  1  0  0  0  0
 24 25  2  0  0  0  0
 25 28  1  0  0  0  0
 26 23  2  0  0  0  0
 27 26  1  0  0  0  0
 28 23  1  0  0  0  0
 29 27  1  0  0  0  0
 30 31  1  0  0  0  0
M  END
>  <MODEL>
5

>  <REMARK>
 VINA RESULT:      -8.0      2.687      5.563
  Name = 
  3 active torsions:
  status: ('A' for Active; 'I' for Inactive)
    1  A    between atoms: C_3  and  O_19
    2  A    between atoms: C_4  and  C_15
    3  A    between atoms: C_21  and  N_26
                            x       y       z     vdW  Elec       q    Type
                         _______ _______ _______ _____ _____    ______ ____

>  <TORSDO>
F 3

$$$$
=
 OpenBabel11042410493D

 31 35  0  0  1  0  0  0  0  0999 V2000
  185.6620  178.5300  140.0730 C   0  0  0  0  0  3  0  0  0  0  0  0
  181.0570  178.5510  142.0320 C   0  0  0  0  0  2  0  0  0  0  0  0
  182.8030  179.1280  143.4490 C   0  0  0  0  0  0  0  0  0  0  0  0
  183.4680  178.8640  141.0710 C   0  0  0  0  0  0  0  0  0  0  0  0
  182.5070  178.8370  142.1970 C   0  0  0  0  0  0  0  0  0  0  0  0
  180.0470  177.3650  143.8380 O   0  0  0  0  0  1  0  0  0  0  0  0
  185.1470  178.4790  143.6540 C   0  0  0  0  0  0  0  0  0  0  0  0
  180.4850  178.6280  143.4450 C   0  0  1  0  0  3  0  0  0  0  0  0
  185.4400  178.0970  142.4430 N   0  0  0  0  0  0  0  0  0  0  0  0
  185.1610  178.8630  138.8140 C   0  0  0  0  0  0  0  0  0  0  0  0
  181.6300  179.0710  144.3500 C   0  0  0  0  0  2  0  0  0  0  0  0
  183.8060  179.1880  138.6830 C   0  0  0  0  0  3  0  0  0  0  0  0
  184.8470  178.5410  141.2100 C   0  0  0  0  0  0  0  0  0  0  0  0
  182.9710  179.1810  139.7990 C   0  0  0  0  0  3  0  0  0  0  0  0
  184.1490  179.5670  143.8980 C   0  0  0  0  0  2  0  0  0  0  0  0
  186.4880  177.7060  136.9430 C   0  0  0  0  0  0  0  0  0  0  0  0
  186.0960  176.5090  137.2160 N   0  0  0  0  0  0  0  0  0  0  0  0
  187.6190  177.8840  135.5620 S   0  0  0  0  0  0  0  0  0  0  0  0
  187.5690  176.0770  135.2990 C   0  0  0  0  0  2  0  0  0  0  0  0
  186.6570  175.5490  136.3420 C   0  0  0  0  0  0  0  0  0  0  0  0
  186.3940  174.3240  136.4500 O   0  0  0  0  0  0  0  0  0  0  0  0
  186.0520  178.8490  137.6900 N   0  0  0  0  0  2  0  0  0  0  0  0
  187.7800  178.0510  147.2100 C   0  0  0  0  0  0  0  0  0  0  0  0
  185.8400  177.8660  144.8060 C   0  0  0  0  0  0  0  0  0  0  0  0
  185.5960  178.2800  146.0500 C   0  0  0  0  0  3  0  0  0  0  0  0
  188.5590  177.8390  146.1830 N   0  0  0  0  0  0  0  0  0  0  0  0
  188.1890  177.2810  144.9410 N   0  0  0  0  0  2  0  0  0  0  0  0
  186.3180  177.6810  147.2140 C   0  0  0  0  0  2  0  0  0  0  0  0
  186.8600  176.7890  144.5980 C   0  0  0  0  0  2  0  0  0  0  0  0
  188.3470  178.6280  148.3480 O   0  0  0  0  0  0  0  0  0  0  0  0
  189.6260  178.2530  148.8430 C   0  0  0  0  0  1  0  0  0  0  0  0
  1 13  1  0  0  0  0
  2  5  1  0  0  0  0
  2  8  1  0  0  0  0
  3 15  1  0  0  0  0
  3 11  1  0  0  0  0
  4 13  2  0  0  0  0
  4  5  1  0  0  0  0
  5  3  2  0  0  0  0
  7 15  1  0  0  0  0
  7 24  1  0  0  0  0
  8  6  1  1  0  0  0
  8 11  1  0  0  0  0
  9  7  2  0  0  0  0
 10  1  2  0  0  0  0
 12 10  1  0  0  0  0
 12 14  2  0  0  0  0
 13  9  1  0  0  0  0
 14  4  1  0  0  0  0
 16 17  2  0  0  0  0
 16 22  1  0  0  0  0
 18 16  1  0  0  0  0
 19 18  1  0  0  0  0
 19 20  1  0  0  0  0
 20 21  2  0  0  0  0
 20 17  1  0  0  0  0
 22 10  1  0  0  0  0
 23 28  1  0  0  0  0
 23 30  1  0  0  0  0
 24 25  2  0  0  0  0
 25 28  1  0  0  0  0
 26 23  2  0  0  0  0
 27 26  1  0  0  0  0
 29 24  1  0  0  0  0
 29 27  1  0  0  0  0
 30 31  1  0  0  0  0
M  END
>  <MODEL>
6

>  <REMARK>
 VINA RESULT:      -7.9      3.293      6.486
  Name = 
  3 active torsions:
  status: ('A' for Active; 'I' for Inactive)
    1  A    between atoms: C_3  and  O_19
    2  A    between atoms: C_4  and  C_15
    3  A    between atoms: C_21  and  N_26
                            x       y       z     vdW  Elec       q    Type
                         _______ _______ _______ _____ _____    ______ ____

>  <TORSDO>
F 3

$$$$
=
 OpenBabel11042410493D

 31 35  0  0  1  0  0  0  0  0999 V2000
  184.5810  178.6510  142.3650 C   0  0  0  0  0  3  0  0  0  0  0  0
  188.8080  176.4610  143.9060 C   0  0  0  0  0  2  0  0  0  0  0  0
  188.9670  177.8720  142.0700 C   0  0  0  0  0  0  0  0  0  0  0  0
  186.7450  177.8910  143.1780 C   0  0  0  0  0  0  0  0  0  0  0  0
  188.1400  177.4310  142.9980 C   0  0  0  0  0  0  0  0  0  0  0  0
  190.3640  174.9920  142.8520 O   0  0  0  0  0  1  0  0  0  0  0  0
  187.4910  178.4720  140.2220 C   0  0  0  0  0  0  0  0  0  0  0  0
  190.2110  176.2930  143.3280 C   0  0  1  0  0  3  0  0  0  0  0  0
  186.3090  178.2450  140.7200 N   0  0  0  0  0  0  0  0  0  0  0  0
  184.0710  178.6510  143.6630 C   0  0  0  0  0  0  0  0  0  0  0  0
  190.3170  177.2740  142.1650 C   0  0  0  0  0  2  0  0  0  0  0  0
  184.8990  178.2590  144.7210 C   0  0  0  0  0  3  0  0  0  0  0  0
  185.9090  178.2950  142.1000 C   0  0  0  0  0  0  0  0  0  0  0  0
  186.2170  177.8780  144.4770 C   0  0  0  0  0  3  0  0  0  0  0  0
  188.6180  178.9340  141.0910 C   0  0  0  0  0  2  0  0  0  0  0  0
  181.6410  179.0100  142.9100 C   0  0  0  0  0  0  0  0  0  0  0  0
  181.8100  178.6000  141.7000 N   0  0  0  0  0  0  0  0  0  0  0  0
  179.9880  179.5470  143.3510 S   0  0  0  0  0  0  0  0  0  0  0  0
  179.4210  179.1700  141.6570 C   0  0  0  0  0  2  0  0  0  0  0  0
  180.6170  178.6610  140.9420 C   0  0  0  0  0  0  0  0  0  0  0  0
  180.5810  178.3030  139.7370 O   0  0  0  0  0  0  0  0  0  0  0  0
  182.7060  179.0400  143.8690 N   0  0  0  0  0  2  0  0  0  0  0  0
  187.9420  176.5620  136.2330 C   0  0  0  0  0  0  0  0  0  0  0  0
  187.7180  178.3210  138.7690 C   0  0  0  0  0  0  0  0  0  0  0  0
  186.7480  177.8780  137.9680 C   0  0  0  0  0  3  0  0  0  0  0  0
  189.1260  176.4920  136.7780 N   0  0  0  0  0  0  0  0  0  0  0  0
  189.6900  177.4030  137.6980 N   0  0  0  0  0  2  0  0  0  0  0  0
  186.9850  177.6970  136.5030 C   0  0  0  0  0  2  0  0  0  0  0  0
  189.0560  178.6280  138.1700 C   0  0  0  0  0  2  0  0  0  0  0  0
  187.5710  175.5450  135.3510 O   0  0  0  0  0  0  0  0  0  0  0  0
  187.9410  174.1870  135.5460 C   0  0  0  0  0  1  0  0  0  0  0  0
  1 10  1  0  0  0  0
  3 11  1  0  0  0  0
  3  5  2  0  0  0  0
  4 14  2  0  0  0  0
  5  4  1  0  0  0  0
  5  2  1  0  0  0  0
  7  9  2  0  0  0  0
  7 15  1  0  0  0  0
  8  6  1  6  0  0  0
  8  2  1  0  0  0  0
  9 13  1  0  0  0  0
 10 22  1  0  0  0  0
 10 12  2  0  0  0  0
 11  8  1  0  0  0  0
 13  1  2  0  0  0  0
 13  4  1  0  0  0  0
 14 12  1  0  0  0  0
 15  3  1  0  0  0  0
 16 18  1  0  0  0  0
 16 22  1  0  0  0  0
 17 16  2  0  0  0  0
 19 18  1  0  0  0  0
 20 19  1  0  0  0  0
 20 17  1  0  0  0  0
 21 20  2  0  0  0  0
 23 28  1  0  0  0  0
 23 26  2  0  0  0  0
 24  7  1  0  0  0  0
 25 24  2  0  0  0  0
 26 27  1  0  0  0  0
 27 29  1  0  0  0  0
 28 25  1  0  0  0  0
 29 24  1  0  0  0  0
 30 31  1  0  0  0  0
 30 23  1  0  0  0  0
M  END
>  <MODEL>
7

>  <REMARK>
 VINA RESULT:      -7.8      3.646      7.807
  Name = 
  3 active torsions:
  status: ('A' for Active; 'I' for Inactive)
    1  A    between atoms: C_3  and  O_19
    2  A    between atoms: C_4  and  C_15
    3  A    between atoms: C_21  and  N_26
                            x       y       z     vdW  Elec       q    Type
                         _______ _______ _______ _____ _____    ______ ____

>  <TORSDO>
F 3

$$$$
=
 OpenBabel11042410493D

 31 35  0  0  1  0  0  0  0  0999 V2000
  190.4650  177.2140  142.5790 C   0  0  0  0  0  3  0  0  0  0  0  0
  187.3100  178.4130  138.8840 C   0  0  0  0  0  2  0  0  0  0  0  0
  189.0050  176.9120  138.3710 C   0  0  0  0  0  0  0  0  0  0  0  0
  188.8440  177.4790  140.7830 C   0  0  0  0  0  0  0  0  0  0  0  0
  188.4490  177.5850  139.3600 C   0  0  0  0  0  0  0  0  0  0  0  0
  187.6120  179.4150  136.7400 O   0  0  0  0  0  1  0  0  0  0  0  0
  191.3050  176.5850  139.1160 C   0  0  0  0  0  0  0  0  0  0  0  0
  187.2930  178.2130  137.3710 C   0  0  1  0  0  3  0  0  0  0  0  0
  191.2930  177.1130  140.3070 N   0  0  0  0  0  0  0  0  0  0  0  0
  189.4660  177.4030  143.5340 C   0  0  0  0  0  0  0  0  0  0  0  0
  188.3680  177.1760  137.0610 C   0  0  0  0  0  2  0  0  0  0  0  0
  188.1530  177.6400  143.1110 C   0  0  0  0  0  3  0  0  0  0  0  0
  190.1790  177.2300  141.2090 C   0  0  0  0  0  0  0  0  0  0  0  0
  187.8500  177.6840  141.7510 C   0  0  0  0  0  3  0  0  0  0  0  0
  190.0900  175.9150  138.5580 C   0  0  0  0  0  2  0  0  0  0  0  0
  188.9630  177.5950  146.0470 C   0  0  0  0  0  0  0  0  0  0  0  0
  187.7120  177.8780  145.9160 N   0  0  0  0  0  0  0  0  0  0  0  0
  189.5930  177.5020  147.7230 S   0  0  0  0  0  0  0  0  0  0  0  0
  187.9300  177.9060  148.3620 C   0  0  0  0  0  2  0  0  0  0  0  0
  187.0720  178.0660  147.1630 C   0  0  0  0  0  0  0  0  0  0  0  0
  185.8490  178.3500  147.2420 O   0  0  0  0  0  0  0  0  0  0  0  0
  189.8220  177.3590  144.9230 N   0  0  0  0  0  2  0  0  0  0  0  0
  194.6470  175.1820  136.5410 C   0  0  0  0  0  0  0  0  0  0  0  0
  192.5490  176.6040  138.3170 C   0  0  0  0  0  0  0  0  0  0  0  0
  192.5200  176.3780  137.0030 C   0  0  0  0  0  3  0  0  0  0  0  0
  195.0230  174.9130  137.7620 N   0  0  0  0  0  0  0  0  0  0  0  0
  194.6810  175.6280  138.9310 N   0  0  0  0  0  2  0  0  0  0  0  0
  193.7800  176.3680  136.1980 C   0  0  0  0  0  2  0  0  0  0  0  0
  193.8740  176.8410  138.9730 C   0  0  0  0  0  2  0  0  0  0  0  0
  195.0910  174.3370  135.5230 O   0  0  0  0  0  0  0  0  0  0  0  0
  194.2290  173.4320  134.8450 C   0  0  0  0  0  1  0  0  0  0  0  0
  1 10  1  0  0  0  0
  2  5  1  0  0  0  0
  3 15  1  0  0  0  0
  3  5  2  0  0  0  0
  4 13  1  0  0  0  0
  4 14  2  0  0  0  0
  5  4  1  0  0  0  0
  7  9  2  0  0  0  0
  8  6  1  6  0  0  0
  8  2  1  0  0  0  0
  9 13  1  0  0  0  0
 10 22  1  0  0  0  0
 11  8  1  0  0  0  0
 11  3  1  0  0  0  0
 12 10  2  0  0  0  0
 13  1  2  0  0  0  0
 14 12  1  0  0  0  0
 15  7  1  0  0  0  0
 16 18  1  0  0  0  0
 17 16  2  0  0  0  0
 17 20  1  0  0  0  0
 18 19  1  0  0  0  0
 20 21  2  0  0  0  0
 20 19  1  0  0  0  0
 22 16  1  0  0  0  0
 23 26  2  0  0  0  0
 24 29  1  0  0  0  0
 24  7  1  0  0  0  0
 25 24  2  0  0  0  0
 26 27  1  0  0  0  0
 27 29  1  0  0  0  0
 28 23  1  0  0  0  0
 28 25  1  0  0  0  0
 30 23  1  0  0  0  0
 31 30  1  0  0  0  0
M  END
>  <MODEL>
8

>  <REMARK>
 VINA RESULT:      -7.8      3.855      9.495
  Name = 
  3 active torsions:
  status: ('A' for Active; 'I' for Inactive)
    1  A    between atoms: C_3  and  O_19
    2  A    between atoms: C_4  and  C_15
    3  A    between atoms: C_21  and  N_26
                            x       y       z     vdW  Elec       q    Type
                         _______ _______ _______ _____ _____    ______ ____

>  <TORSDO>
F 3

$$$$
=
 OpenBabel11042410493D

 31 35  0  0  1  0  0  0  0  0999 V2000
  189.9260  176.7030  138.4000 C   0  0  0  0  0  3  0  0  0  0  0  0
  185.3460  178.5010  139.3130 C   0  0  0  0  0  2  0  0  0  0  0  0
  186.9330  178.7720  140.9850 C   0  0  0  0  0  0  0  0  0  0  0  0
  187.8430  177.8740  138.8570 C   0  0  0  0  0  0  0  0  0  0  0  0
  186.7610  178.3550  139.7460 C   0  0  0  0  0  0  0  0  0  0  0  0
  183.7190  178.0430  140.9950 O   0  0  0  0  0  1  0  0  0  0  0  0
  188.8550  177.4890  141.7660 C   0  0  0  0  0  0  0  0  0  0  0  0
  184.6140  179.0140  140.5500 C   0  0  1  0  0  3  0  0  0  0  0  0
  189.1940  176.8140  140.7040 N   0  0  0  0  0  0  0  0  0  0  0  0
  189.7760  176.9300  137.0320 C   0  0  0  0  0  0  0  0  0  0  0  0
  185.6800  179.2480  141.6150 C   0  0  0  0  0  2  0  0  0  0  0  0
  188.6500  177.6220  136.5750 C   0  0  0  0  0  3  0  0  0  0  0  0
  188.9910  177.1770  139.3270 C   0  0  0  0  0  0  0  0  0  0  0  0
  187.6920  178.0810  137.4780 C   0  0  0  0  0  3  0  0  0  0  0  0
  188.2570  178.8550  141.6520 C   0  0  0  0  0  2  0  0  0  0  0  0
  192.1180  176.0390  136.4630 C   0  0  0  0  0  0  0  0  0  0  0  0
  192.5800  176.0890  137.6650 N   0  0  0  0  0  0  0  0  0  0  0  0
  193.2390  175.4420  135.1980 S   0  0  0  0  0  0  0  0  0  0  0  0
  194.5380  175.2230  136.4620 C   0  0  0  0  0  2  0  0  0  0  0  0
  193.9230  175.6500  137.7420 C   0  0  0  0  0  0  0  0  0  0  0  0
  194.5490  175.6270  138.8330 O   0  0  0  0  0  0  0  0  0  0  0  0
  190.7790  176.4310  136.1350 N   0  0  0  0  0  2  0  0  0  0  0  0
  189.9750  177.2380  146.0610 C   0  0  0  0  0  0  0  0  0  0  0  0
  189.1070  176.9220  143.1080 C   0  0  0  0  0  0  0  0  0  0  0  0
  188.3800  177.3040  144.1590 C   0  0  0  0  0  3  0  0  0  0  0  0
  191.0970  177.0990  145.4090 N   0  0  0  0  0  0  0  0  0  0  0  0
  191.2680  176.5240  144.1310 N   0  0  0  0  0  2  0  0  0  0  0  0
  188.6520  176.7530  145.5220 C   0  0  0  0  0  2  0  0  0  0  0  0
  190.2100  175.9310  143.3230 C   0  0  0  0  0  2  0  0  0  0  0  0
  190.0230  177.8480  147.3160 O   0  0  0  0  0  0  0  0  0  0  0  0
  188.9010  177.9030  148.1870 C   0  0  0  0  0  1  0  0  0  0  0  0
  1 13  1  0  0  0  0
  2  5  1  0  0  0  0
  2  8  1  0  0  0  0
  3 11  1  0  0  0  0
  3 15  1  0  0  0  0
  4 13  2  0  0  0  0
  4  5  1  0  0  0  0
  5  3  2  0  0  0  0
  7 24  1  0  0  0  0
  8  6  1  1  0  0  0
  8 11  1  0  0  0  0
  9  7  2  0  0  0  0
 10  1  2  0  0  0  0
 12 10  1  0  0  0  0
 12 14  2  0  0  0  0
 13  9  1  0  0  0  0
 14  4  1  0  0  0  0
 15  7  1  0  0  0  0
 16 17  2  0  0  0  0
 17 20  1  0  0  0  0
 18 19  1  0  0  0  0
 18 16  1  0  0  0  0
 19 20  1  0  0  0  0
 20 21  2  0  0  0  0
 22 16  1  0  0  0  0
 22 10  1  0  0  0  0
 23 30  1  0  0  0  0
 24 29  1  0  0  0  0
 24 25  2  0  0  0  0
 25 28  1  0  0  0  0
 26 23  2  0  0  0  0
 27 26  1  0  0  0  0
 28 23  1  0  0  0  0
 29 27  1  0  0  0  0
 30 31  1  0  0  0  0
M  END
>  <MODEL>
9

>  <REMARK>
 VINA RESULT:      -7.8      2.745      5.970
  Name = 
  3 active torsions:
  status: ('A' for Active; 'I' for Inactive)
    1  A    between atoms: C_3  and  O_19
    2  A    between atoms: C_4  and  C_15
    3  A    between atoms: C_21  and  N_26
                            x       y       z     vdW  Elec       q    Type
                         _______ _______ _______ _____ _____    ______ ____

>  <TORSDO>
F 3

$$$$
