=
 OpenBabel11042412553D

 43 46  0  0  1  0  0  0  0  0999 V2000
  181.7020  179.1060  140.6250 C   0  0  0  0  0  0  0  0  0  0  0  0
  181.5420  179.0390  143.4160 N   0  0  0  0  0  0  0  0  0  0  0  0
  183.9990  178.6560  140.6900 N   0  0  0  0  0  0  0  0  0  0  0  0
  185.2030  178.5410  142.7100 C   0  0  0  0  0  0  0  0  0  0  0  0
  180.5540  179.4510  142.7150 N   0  0  0  0  0  0  0  0  0  0  0  0
  182.7730  178.6710  142.7860 C   0  0  0  0  0  0  0  0  0  0  0  0
  182.7400  178.3200  141.3280 C   0  0  1  0  0  3  0  0  0  0  0  0
  183.9320  178.7040  143.4490 C   0  0  0  0  0  3  0  0  0  0  0  0
  185.2080  178.5830  141.4070 N   0  0  0  0  0  0  0  0  0  0  0  0
  182.1390  179.4840  138.9330 S   0  0  0  0  0  0  0  0  0  0  0  0
  180.6420  179.6050  141.2830 C   0  0  0  0  0  0  0  0  0  0  0  0
  183.9130  179.2860  139.3760 C   0  0  2  0  0  3  0  0  0  0  0  0
  179.5890  180.3810  140.5740 C   0  0  0  0  0  1  0  0  0  0  0  0
  184.6280  178.4620  138.3570 C   0  0  0  0  0  0  0  0  0  0  0  0
  184.0540  177.4780  137.8150 O   0  0  0  0  0  0  0  0  0  0  0  0
  185.9860  178.7760  138.0380 N   0  0  0  0  0  2  0  0  0  0  0  0
  186.7510  178.0410  137.0410 C   0  0  0  0  0  2  0  0  0  0  0  0
  189.1370  177.2530  137.4860 N   0  0  0  0  0  2  0  0  0  0  0  0
  188.2130  178.3100  137.2100 C   0  0  0  0  0  0  0  0  0  0  0  0
  188.6340  179.4930  137.1280 O   0  0  0  0  0  0  0  0  0  0  0  0
  188.7470  175.8530  137.5770 C   0  0  0  0  0  2  0  0  0  0  0  0
  190.3800  175.3590  135.7580 C   0  0  0  0  0  1  0  0  0  0  0  0
  189.8840  174.9480  137.1290 C   0  0  1  0  0  3  0  0  0  0  0  0
  190.9750  175.0360  138.0790 N   0  0  0  0  0  1  0  0  0  0  0  0
  186.4960  178.4910  143.4710 C   0  0  1  0  0  3  0  0  0  0  0  0
  186.1790  178.1210  144.9190 C   0  0  0  0  0  1  0  0  0  0  0  0
  187.4500  177.5440  142.8630 N   0  0  0  0  0  0  0  0  0  0  0  0
  189.0450  177.5400  141.0060 C   0  0  0  0  0  2  0  0  0  0  0  0
  188.0990  178.7000  140.8100 C   0  0  0  0  0  2  0  0  0  0  0  0
  188.5230  178.3020  142.2160 C   0  0  0  0  0  3  0  0  0  0  0  0
  188.0920  176.7890  143.9370 C   0  0  0  0  0  2  0  0  0  0  0  0
  189.2600  177.4450  144.3310 O   0  0  0  0  0  0  0  0  0  0  0  0
  190.0830  176.4370  144.8420 C   0  0  1  0  0  3  0  0  0  0  0  0
  191.5590  176.8920  143.0250 F   0  0  0  0  0  0  0  0  0  0  0  0
  190.9740  175.8630  143.7410 C   0  0  0  0  0  0  0  0  0  0  0  0
  190.2340  175.0720  142.8800 F   0  0  0  0  0  0  0  0  0  0  0  0
  191.9730  175.0980  144.3110 F   0  0  0  0  0  0  0  0  0  0  0  0
  192.1160  177.1990  145.8530 O   0  0  0  0  0  0  0  0  0  0  0  0
  190.8870  176.9650  145.9980 C   0  0  0  0  0  0  0  0  0  0  0  0
  190.2760  177.2020  147.2670 N   0  0  0  0  0  2  0  0  0  0  0  0
  188.8660  176.9460  147.5150 C   0  0  0  0  0  2  0  0  0  0  0  0
  187.0560  178.5050  148.2050 C   0  0  0  0  0  1  0  0  0  0  0  0
  188.3600  177.8560  148.6190 C   0  0  0  0  0  2  0  0  0  0  0  0
  1 11  2  0  0  0  0
  3  7  1  0  0  0  0
  3  9  1  0  0  0  0
  4  8  1  0  0  0  0
  4 25  1  0  0  0  0
  5  2  2  0  0  0  0
  6  2  1  0  0  0  0
  6  8  2  0  0  0  0
  7  1  1  6  0  0  0
  7  6  1  0  0  0  0
  9  4  2  0  0  0  0
 10 12  1  0  0  0  0
 10  1  1  0  0  0  0
 11  5  1  0  0  0  0
 12 14  1  6  0  0  0
 12  3  1  0  0  0  0
 13 11  1  0  0  0  0
 15 14  2  0  0  0  0
 16 14  1  0  0  0  0
 17 19  1  0  0  0  0
 17 16  1  0  0  0  0
 18 21  1  0  0  0  0
 19 18  1  0  0  0  0
 20 19  2  0  0  0  0
 23 22  1  6  0  0  0
 23 21  1  0  0  0  0
 23 24  1  0  0  0  0
 25 26  1  1  0  0  0
 27 25  1  0  0  0  0
 27 31  1  0  0  0  0
 28 30  1  0  0  0  0
 29 28  1  0  0  0  0
 29 30  1  0  0  0  0
 30 27  1  0  0  0  0
 31 32  1  0  0  0  0
 33 32  1  6  0  0  0
 33 39  1  0  0  0  0
 34 35  1  0  0  0  0
 35 37  1  0  0  0  0
 35 33  1  0  0  0  0
 36 35  1  0  0  0  0
 38 39  2  0  0  0  0
 39 40  1  0  0  0  0
 40 41  1  0  0  0  0
 41 43  1  0  0  0  0
 42 43  1  0  0  0  0
M  END
>  <MODEL>
1

>  <REMARK>
 VINA RESULT:      -7.9      0.000      0.000
  Name = 
  15 active torsions:
  status: ('A' for Active; 'I' for Inactive)
    1  A    between atoms: N_1  and  C_42
    2  A    between atoms: C_2  and  C_10
    3  A    between atoms: C_6  and  C_18
    4  A    between atoms: N_7  and  C_35
    5  A    between atoms: N_7  and  C_39
    6  A    between atoms: N_7  and  C_43
    7  A    between atoms: N_9  and  C_17
    8  A    between atoms: C_10  and  N_40
    9  A    between atoms: C_11  and  C_18
   10  A    between atoms: C_12  and  C_42
   11  A    between atoms: C_15  and  C_36
   12  A    between atoms: C_17  and  C_33
   13  A    between atoms: C_18  and  O_32
   14  A    between atoms: C_20  and  C_39
   15  A    between atoms: O_32  and  C_43
                            x       y       z     vdW  Elec       q    Type
                         _______ _______ _______ _____ _____    ______ ____

>  <TORSDO>
F 15

$$$$
=
 OpenBabel11042412553D

 43 46  0  0  1  0  0  0  0  0999 V2000
  186.4250  177.8760  144.3430 C   0  0  0  0  0  0  0  0  0  0  0  0
  189.0130  176.9450  144.8460 N   0  0  0  0  0  0  0  0  0  0  0  0
  186.8820  178.0770  142.0560 N   0  0  0  0  0  0  0  0  0  0  0  0
  189.0280  177.7040  141.1620 C   0  0  0  0  0  0  0  0  0  0  0  0
  188.2330  177.2580  145.8110 N   0  0  0  0  0  0  0  0  0  0  0  0
  188.5980  177.1340  143.4900 C   0  0  0  0  0  0  0  0  0  0  0  0
  187.1280  177.2350  143.2110 C   0  0  1  0  0  3  0  0  0  0  0  0
  189.4870  177.2850  142.5050 C   0  0  0  0  0  3  0  0  0  0  0  0
  187.8070  178.1300  140.9970 N   0  0  0  0  0  0  0  0  0  0  0  0
  185.0120  178.8440  143.8290 S   0  0  0  0  0  0  0  0  0  0  0  0
  186.9350  177.8470  145.5860 C   0  0  0  0  0  0  0  0  0  0  0  0
  185.7710  179.0180  142.1640 C   0  0  2  0  0  3  0  0  0  0  0  0
  186.2200  178.4780  146.7290 C   0  0  0  0  0  1  0  0  0  0  0  0
  184.7660  178.7640  141.0900 C   0  0  0  0  0  0  0  0  0  0  0  0
  184.0550  177.7220  141.1170 O   0  0  0  0  0  0  0  0  0  0  0  0
  184.6540  179.6910  140.0080 N   0  0  0  0  0  2  0  0  0  0  0  0
  183.6880  179.5330  138.9310 C   0  0  0  0  0  2  0  0  0  0  0  0
  181.3670  180.3450  139.6140 N   0  0  0  0  0  2  0  0  0  0  0  0
  182.6420  180.5980  139.0140 C   0  0  0  0  0  0  0  0  0  0  0  0
  182.8790  181.7340  138.5270 O   0  0  0  0  0  0  0  0  0  0  0  0
  181.0090  179.0710  140.2230 C   0  0  0  0  0  2  0  0  0  0  0  0
  181.1310  178.8990  142.7090 C   0  0  0  0  0  1  0  0  0  0  0  0
  180.2640  179.2910  141.5300 C   0  0  1  0  0  3  0  0  0  0  0  0
  179.8990  180.6890  141.6480 N   0  0  0  0  0  1  0  0  0  0  0  0
  190.0190  177.7880  140.0380 C   0  0  1  0  0  3  0  0  0  0  0  0
  191.4120  177.5390  140.6150 C   0  0  0  0  0  1  0  0  0  0  0  0
  189.6980  176.8360  138.9570 N   0  0  0  0  0  0  0  0  0  0  0  0
  188.1580  177.8230  137.3310 C   0  0  0  0  0  2  0  0  0  0  0  0
  188.9880  178.9350  137.9260 C   0  0  0  0  0  2  0  0  0  0  0  0
  189.6140  177.5690  137.6910 C   0  0  0  0  0  3  0  0  0  0  0  0
  190.8250  175.9180  138.8080 C   0  0  0  0  0  2  0  0  0  0  0  0
  191.5730  176.2790  137.6850 O   0  0  0  0  0  0  0  0  0  0  0  0
  192.4470  175.2090  137.4780 C   0  0  1  0  0  3  0  0  0  0  0  0
  193.0000  174.1170  135.4300 F   0  0  0  0  0  0  0  0  0  0  0  0
  191.9630  174.3380  136.3180 C   0  0  0  0  0  0  0  0  0  0  0  0
  190.9170  174.9540  135.6530 F   0  0  0  0  0  0  0  0  0  0  0  0
  191.5320  173.1200  136.8080 F   0  0  0  0  0  0  0  0  0  0  0  0
  194.0230  176.7970  136.6230 O   0  0  0  0  0  0  0  0  0  0  0  0
  193.8430  175.7200  137.2510 C   0  0  0  0  0  0  0  0  0  0  0  0
  194.9750  174.9970  137.7350 N   0  0  0  0  0  2  0  0  0  0  0  0
  194.8500  173.7420  138.4590 C   0  0  0  0  0  2  0  0  0  0  0  0
  196.0500  173.0480  136.3940 C   0  0  0  0  0  1  0  0  0  0  0  0
  195.7500  172.6920  137.8360 C   0  0  0  0  0  2  0  0  0  0  0  0
  1 11  2  0  0  0  0
  2  5  2  0  0  0  0
  3 12  1  0  0  0  0
  3  7  1  0  0  0  0
  4  8  1  0  0  0  0
  6  2  1  0  0  0  0
  7  6  1  1  0  0  0
  7  1  1  0  0  0  0
  8  6  2  0  0  0  0
  9  4  2  0  0  0  0
  9  3  1  0  0  0  0
 10  1  1  0  0  0  0
 11  5  1  0  0  0  0
 11 13  1  0  0  0  0
 12 14  1  6  0  0  0
 12 10  1  0  0  0  0
 14 15  2  0  0  0  0
 16 14  1  0  0  0  0
 17 19  1  0  0  0  0
 17 16  1  0  0  0  0
 18 21  1  0  0  0  0
 19 18  1  0  0  0  0
 20 19  2  0  0  0  0
 21 23  1  0  0  0  0
 23 24  1  0  0  0  0
 23 22  1  1  0  0  0
 25 26  1  1  0  0  0
 25  4  1  0  0  0  0
 27 25  1  0  0  0  0
 28 30  1  0  0  0  0
 28 29  1  0  0  0  0
 30 29  1  0  0  0  0
 30 27  1  0  0  0  0
 31 27  1  0  0  0  0
 32 31  1  0  0  0  0
 33 39  1  6  0  0  0
 33 32  1  0  0  0  0
 34 35  1  0  0  0  0
 35 37  1  0  0  0  0
 35 33  1  0  0  0  0
 36 35  1  0  0  0  0
 38 39  2  0  0  0  0
 39 40  1  0  0  0  0
 40 41  1  0  0  0  0
 42 43  1  0  0  0  0
 43 41  1  0  0  0  0
M  END
>  <MODEL>
2

>  <REMARK>
 VINA RESULT:      -7.8      3.407      7.780
  Name = 
  15 active torsions:
  status: ('A' for Active; 'I' for Inactive)
    1  A    between atoms: N_1  and  C_42
    2  A    between atoms: C_2  and  C_10
    3  A    between atoms: C_6  and  C_18
    4  A    between atoms: N_7  and  C_35
    5  A    between atoms: N_7  and  C_39
    6  A    between atoms: N_7  and  C_43
    7  A    between atoms: N_9  and  C_17
    8  A    between atoms: C_10  and  N_40
    9  A    between atoms: C_11  and  C_18
   10  A    between atoms: C_12  and  C_42
   11  A    between atoms: C_15  and  C_36
   12  A    between atoms: C_17  and  C_33
   13  A    between atoms: C_18  and  O_32
   14  A    between atoms: C_20  and  C_39
   15  A    between atoms: O_32  and  C_43
                            x       y       z     vdW  Elec       q    Type
                         _______ _______ _______ _____ _____    ______ ____

>  <TORSDO>
F 15

$$$$
=
 OpenBabel11042412553D

 43 46  0  0  1  0  0  0  0  0999 V2000
  181.6390  179.1200  140.5770 C   0  0  0  0  0  0  0  0  0  0  0  0
  180.9850  179.3260  143.2880 N   0  0  0  0  0  0  0  0  0  0  0  0
  183.8940  178.7590  141.0900 N   0  0  0  0  0  0  0  0  0  0  0  0
  184.7220  178.8860  143.2910 C   0  0  0  0  0  0  0  0  0  0  0  0
  180.1320  179.6320  142.3860 N   0  0  0  0  0  0  0  0  0  0  0  0
  182.3150  178.9400  142.9250 C   0  0  0  0  0  0  0  0  0  0  0  0
  182.5470  178.4450  141.5290 C   0  0  1  0  0  3  0  0  0  0  0  0
  183.3360  179.0780  143.7740 C   0  0  0  0  0  3  0  0  0  0  0  0
  184.9570  178.7990  142.0120 N   0  0  0  0  0  0  0  0  0  0  0  0
  182.3650  179.3440  138.9580 S   0  0  0  0  0  0  0  0  0  0  0  0
  180.4710  179.6470  140.9830 C   0  0  0  0  0  0  0  0  0  0  0  0
  184.0340  179.2510  139.7240 C   0  0  2  0  0  3  0  0  0  0  0  0
  179.5480  180.3120  140.0230 C   0  0  0  0  0  1  0  0  0  0  0  0
  184.9320  178.3560  138.9370 C   0  0  0  0  0  0  0  0  0  0  0  0
  184.4670  177.3380  138.3530 O   0  0  0  0  0  0  0  0  0  0  0  0
  186.3320  178.6400  138.8920 N   0  0  0  0  0  2  0  0  0  0  0  0
  187.2770  177.8340  138.1330 C   0  0  0  0  0  2  0  0  0  0  0  0
  189.7820  177.7760  137.6540 N   0  0  0  0  0  2  0  0  0  0  0  0
  188.6780  178.2760  138.4140 C   0  0  0  0  0  0  0  0  0  0  0  0
  188.8910  179.0870  139.3510 O   0  0  0  0  0  0  0  0  0  0  0  0
  189.6330  176.8530  136.5370 C   0  0  0  0  0  2  0  0  0  0  0  0
  191.9460  176.1650  137.1670 C   0  0  0  0  0  1  0  0  0  0  0  0
  190.5970  175.6850  136.6720 C   0  0  1  0  0  3  0  0  0  0  0  0
  190.0590  174.7200  137.6100 N   0  0  0  0  0  1  0  0  0  0  0  0
  185.8580  178.9560  144.2690 C   0  0  1  0  0  3  0  0  0  0  0  0
  185.3340  179.5790  145.5610 C   0  0  0  0  0  1  0  0  0  0  0  0
  186.4550  177.6270  144.5060 N   0  0  0  0  0  0  0  0  0  0  0  0
  188.0190  176.2500  143.2230 C   0  0  0  0  0  2  0  0  0  0  0  0
  187.6670  177.4600  142.3910 C   0  0  0  0  0  2  0  0  0  0  0  0
  187.7890  177.5930  143.9020 C   0  0  0  0  0  3  0  0  0  0  0  0
  186.6690  177.4730  145.9430 C   0  0  0  0  0  2  0  0  0  0  0  0
  187.8360  176.7370  146.1630 O   0  0  0  0  0  0  0  0  0  0  0  0
  188.7400  177.6530  146.7070 C   0  0  1  0  0  3  0  0  0  0  0  0
  189.4660  178.4670  148.8280 F   0  0  0  0  0  0  0  0  0  0  0  0
  188.3610  177.9880  148.1500 C   0  0  0  0  0  0  0  0  0  0  0  0
  187.8790  176.8650  148.7980 F   0  0  0  0  0  0  0  0  0  0  0  0
  187.3830  178.9650  148.1520 F   0  0  0  0  0  0  0  0  0  0  0  0
  190.5390  176.2410  147.4190 O   0  0  0  0  0  0  0  0  0  0  0  0
  190.1410  177.1160  146.6050 C   0  0  0  0  0  0  0  0  0  0  0  0
  191.0340  177.5900  145.5970 N   0  0  0  0  0  2  0  0  0  0  0  0
  190.6530  178.6060  144.6290 C   0  0  0  0  0  2  0  0  0  0  0  0
  191.5760  177.1760  142.8150 C   0  0  0  0  0  1  0  0  0  0  0  0
  191.5860  178.5590  143.4330 C   0  0  0  0  0  2  0  0  0  0  0  0
  1 11  2  0  0  0  0
  3  7  1  0  0  0  0
  3  9  1  0  0  0  0
  4  8  1  0  0  0  0
  4 25  1  0  0  0  0
  5  2  2  0  0  0  0
  6  2  1  0  0  0  0
  6  8  2  0  0  0  0
  7  1  1  6  0  0  0
  7  6  1  0  0  0  0
  9  4  2  0  0  0  0
 10 12  1  0  0  0  0
 10  1  1  0  0  0  0
 11  5  1  0  0  0  0
 12 14  1  6  0  0  0
 12  3  1  0  0  0  0
 13 11  1  0  0  0  0
 15 14  2  0  0  0  0
 16 14  1  0  0  0  0
 17 19  1  0  0  0  0
 17 16  1  0  0  0  0
 18 19  1  0  0  0  0
 19 20  2  0  0  0  0
 21 23  1  0  0  0  0
 21 18  1  0  0  0  0
 23 22  1  1  0  0  0
 23 24  1  0  0  0  0
 25 27  1  0  0  0  0
 25 26  1  1  0  0  0
 27 31  1  0  0  0  0
 28 30  1  0  0  0  0
 29 28  1  0  0  0  0
 29 30  1  0  0  0  0
 30 27  1  0  0  0  0
 31 32  1  0  0  0  0
 33 32  1  1  0  0  0
 33 35  1  0  0  0  0
 35 37  1  0  0  0  0
 35 36  1  0  0  0  0
 35 34  1  0  0  0  0
 39 33  1  0  0  0  0
 39 38  2  0  0  0  0
 40 39  1  0  0  0  0
 41 40  1  0  0  0  0
 42 43  1  0  0  0  0
 43 41  1  0  0  0  0
M  END
>  <MODEL>
3

>  <REMARK>
 VINA RESULT:      -7.8      2.138      2.843
  Name = 
  15 active torsions:
  status: ('A' for Active; 'I' for Inactive)
    1  A    between atoms: N_1  and  C_42
    2  A    between atoms: C_2  and  C_10
    3  A    between atoms: C_6  and  C_18
    4  A    between atoms: N_7  and  C_35
    5  A    between atoms: N_7  and  C_39
    6  A    between atoms: N_7  and  C_43
    7  A    between atoms: N_9  and  C_17
    8  A    between atoms: C_10  and  N_40
    9  A    between atoms: C_11  and  C_18
   10  A    between atoms: C_12  and  C_42
   11  A    between atoms: C_15  and  C_36
   12  A    between atoms: C_17  and  C_33
   13  A    between atoms: C_18  and  O_32
   14  A    between atoms: C_20  and  C_39
   15  A    between atoms: O_32  and  C_43
                            x       y       z     vdW  Elec       q    Type
                         _______ _______ _______ _____ _____    ______ ____

>  <TORSDO>
F 15

$$$$
=
 OpenBabel11042412553D

 43 46  0  0  1  0  0  0  0  0999 V2000
  186.6040  177.8420  144.2950 C   0  0  0  0  0  0  0  0  0  0  0  0
  189.1640  176.8050  144.7350 N   0  0  0  0  0  0  0  0  0  0  0  0
  187.0350  178.0890  142.0080 N   0  0  0  0  0  0  0  0  0  0  0  0
  189.1540  177.6650  141.0720 C   0  0  0  0  0  0  0  0  0  0  0  0
  188.4090  177.1200  145.7190 N   0  0  0  0  0  0  0  0  0  0  0  0
  188.7370  177.0460  143.3900 C   0  0  0  0  0  0  0  0  0  0  0  0
  187.2680  177.2070  143.1360 C   0  0  1  0  0  3  0  0  0  0  0  0
  189.6170  177.1930  142.3960 C   0  0  0  0  0  3  0  0  0  0  0  0
  187.9470  178.1380  140.9370 N   0  0  0  0  0  0  0  0  0  0  0  0
  185.2200  178.8730  143.8290 S   0  0  0  0  0  0  0  0  0  0  0  0
  187.1300  177.7610  145.5300 C   0  0  0  0  0  0  0  0  0  0  0  0
  185.9620  179.0660  142.1580 C   0  0  2  0  0  3  0  0  0  0  0  0
  186.4550  178.3850  146.7000 C   0  0  0  0  0  1  0  0  0  0  0  0
  184.9330  178.8770  141.0930 C   0  0  0  0  0  0  0  0  0  0  0  0
  184.9410  179.6050  140.0620 O   0  0  0  0  0  0  0  0  0  0  0  0
  183.9130  177.8930  141.2780 N   0  0  0  0  0  2  0  0  0  0  0  0
  182.8850  177.6270  140.2830 C   0  0  0  0  0  2  0  0  0  0  0  0
  181.3630  179.3890  139.2380 N   0  0  0  0  0  2  0  0  0  0  0  0
  181.7930  178.6440  140.3820 C   0  0  0  0  0  0  0  0  0  0  0  0
  181.2570  178.8640  141.4990 O   0  0  0  0  0  0  0  0  0  0  0  0
  181.9080  179.1890  137.9030 C   0  0  0  0  0  2  0  0  0  0  0  0
  181.3780  178.5950  135.5390 C   0  0  0  0  0  1  0  0  0  0  0  0
  180.8130  178.7710  136.9330 C   0  0  1  0  0  3  0  0  0  0  0  0
  180.2300  177.5190  137.3750 N   0  0  0  0  0  1  0  0  0  0  0  0
  190.1320  177.7440  139.9360 C   0  0  1  0  0  3  0  0  0  0  0  0
  191.5280  177.4680  140.4920 C   0  0  0  0  0  1  0  0  0  0  0  0
  189.7820  176.8090  138.8500 N   0  0  0  0  0  0  0  0  0  0  0  0
  188.2720  177.7560  137.1730 C   0  0  0  0  0  2  0  0  0  0  0  0
  189.0380  178.8910  137.8090 C   0  0  0  0  0  2  0  0  0  0  0  0
  189.7210  177.5500  137.5880 C   0  0  0  0  0  3  0  0  0  0  0  0
  190.8790  175.8560  138.6970 C   0  0  0  0  0  2  0  0  0  0  0  0
  191.5000  176.0580  137.4620 O   0  0  0  0  0  0  0  0  0  0  0  0
  192.4890  175.0730  137.3930 C   0  0  1  0  0  3  0  0  0  0  0  0
  191.2120  174.6520  135.4230 F   0  0  0  0  0  0  0  0  0  0  0  0
  192.2540  174.1620  136.1870 C   0  0  0  0  0  0  0  0  0  0  0  0
  191.9520  172.8770  136.6020 F   0  0  0  0  0  0  0  0  0  0  0  0
  193.3960  174.1280  135.4090 F   0  0  0  0  0  0  0  0  0  0  0  0
  193.9890  176.8690  136.8810 O   0  0  0  0  0  0  0  0  0  0  0  0
  193.8500  175.7120  137.3580 C   0  0  0  0  0  0  0  0  0  0  0  0
  194.9960  175.0190  137.8550 N   0  0  0  0  0  2  0  0  0  0  0  0
  194.9190  173.6760  138.4090 C   0  0  0  0  0  2  0  0  0  0  0  0
  194.9390  171.5130  137.1820 C   0  0  0  0  0  1  0  0  0  0  0  0
  195.7590  172.7240  137.5800 C   0  0  0  0  0  2  0  0  0  0  0  0
  1 11  2  0  0  0  0
  2  5  2  0  0  0  0
  3 12  1  0  0  0  0
  3  7  1  0  0  0  0
  4  8  1  0  0  0  0
  6  2  1  0  0  0  0
  7  6  1  1  0  0  0
  7  1  1  0  0  0  0
  8  6  2  0  0  0  0
  9  4  2  0  0  0  0
  9  3  1  0  0  0  0
 10  1  1  0  0  0  0
 11  5  1  0  0  0  0
 11 13  1  0  0  0  0
 12 14  1  6  0  0  0
 12 10  1  0  0  0  0
 14 16  1  0  0  0  0
 15 14  2  0  0  0  0
 17 19  1  0  0  0  0
 17 16  1  0  0  0  0
 18 19  1  0  0  0  0
 19 20  2  0  0  0  0
 21 18  1  0  0  0  0
 23 22  1  6  0  0  0
 23 24  1  0  0  0  0
 23 21  1  0  0  0  0
 25 26  1  1  0  0  0
 25  4  1  0  0  0  0
 27 25  1  0  0  0  0
 28 30  1  0  0  0  0
 28 29  1  0  0  0  0
 30 29  1  0  0  0  0
 30 27  1  0  0  0  0
 31 27  1  0  0  0  0
 32 31  1  0  0  0  0
 33 39  1  6  0  0  0
 33 32  1  0  0  0  0
 34 35  1  0  0  0  0
 35 36  1  0  0  0  0
 35 33  1  0  0  0  0
 37 35  1  0  0  0  0
 38 39  2  0  0  0  0
 39 40  1  0  0  0  0
 40 41  1  0  0  0  0
 42 43  1  0  0  0  0
 43 41  1  0  0  0  0
M  END
>  <MODEL>
4

>  <REMARK>
 VINA RESULT:      -7.6      3.648      7.686
  Name = 
  15 active torsions:
  status: ('A' for Active; 'I' for Inactive)
    1  A    between atoms: N_1  and  C_42
    2  A    between atoms: C_2  and  C_10
    3  A    between atoms: C_6  and  C_18
    4  A    between atoms: N_7  and  C_35
    5  A    between atoms: N_7  and  C_39
    6  A    between atoms: N_7  and  C_43
    7  A    between atoms: N_9  and  C_17
    8  A    between atoms: C_10  and  N_40
    9  A    between atoms: C_11  and  C_18
   10  A    between atoms: C_12  and  C_42
   11  A    between atoms: C_15  and  C_36
   12  A    between atoms: C_17  and  C_33
   13  A    between atoms: C_18  and  O_32
   14  A    between atoms: C_20  and  C_39
   15  A    between atoms: O_32  and  C_43
                            x       y       z     vdW  Elec       q    Type
                         _______ _______ _______ _____ _____    ______ ____

>  <TORSDO>
F 15

$$$$
=
 OpenBabel11042412553D

 43 46  0  0  1  0  0  0  0  0999 V2000
  191.1570  176.4080  137.7770 C   0  0  0  0  0  0  0  0  0  0  0  0
  192.8780  177.1050  139.8680 N   0  0  0  0  0  0  0  0  0  0  0  0
  189.2920  177.1180  139.0000 N   0  0  0  0  0  0  0  0  0  0  0  0
  189.4510  177.8370  141.2370 C   0  0  0  0  0  0  0  0  0  0  0  0
  193.3050  176.4310  138.8680 N   0  0  0  0  0  0  0  0  0  0  0  0
  191.4930  177.4520  139.9680 C   0  0  0  0  0  0  0  0  0  0  0  0
  190.6750  177.4480  138.7110 C   0  0  1  0  0  3  0  0  0  0  0  0
  190.9220  177.7070  141.1480 C   0  0  0  0  0  3  0  0  0  0  0  0
  188.7060  177.4920  140.2230 N   0  0  0  0  0  0  0  0  0  0  0  0
  189.8490  175.6970  136.7860 S   0  0  0  0  0  0  0  0  0  0  0  0
  192.4230  175.9580  137.8290 C   0  0  0  0  0  0  0  0  0  0  0  0
  188.6390  176.1940  138.0780 C   0  0  2  0  0  3  0  0  0  0  0  0
  192.9150  174.9240  136.8780 C   0  0  0  0  0  1  0  0  0  0  0  0
  187.4370  176.8330  137.4650 C   0  0  0  0  0  0  0  0  0  0  0  0
  187.4880  178.0240  137.0530 O   0  0  0  0  0  0  0  0  0  0  0  0
  186.2160  176.0920  137.3940 N   0  0  0  0  0  2  0  0  0  0  0  0
  185.0030  176.6290  136.7950 C   0  0  0  0  0  2  0  0  0  0  0  0
  182.9930  177.1140  138.2900 N   0  0  0  0  0  2  0  0  0  0  0  0
  183.8030  176.1820  137.5670 C   0  0  0  0  0  0  0  0  0  0  0  0
  183.5110  174.9580  137.5980 O   0  0  0  0  0  0  0  0  0  0  0  0
  183.2380  178.5500  138.2950 C   0  0  0  0  0  2  0  0  0  0  0  0
  183.4710  177.9140  140.6960 C   0  0  0  0  0  1  0  0  0  0  0  0
  183.6680  179.0170  139.6770 C   0  0  1  0  0  3  0  0  0  0  0  0
  185.0670  179.3950  139.6450 N   0  0  0  0  0  1  0  0  0  0  0  0
  188.8230  178.2090  142.5480 C   0  0  1  0  0  3  0  0  0  0  0  0
  187.3130  178.0140  142.4230 C   0  0  0  0  0  1  0  0  0  0  0  0
  189.3830  177.4210  143.6630 N   0  0  0  0  0  0  0  0  0  0  0  0
  191.3550  177.3880  145.1140 C   0  0  0  0  0  2  0  0  0  0  0  0
  191.7260  178.0970  143.8340 C   0  0  0  0  0  2  0  0  0  0  0  0
  190.3260  178.2590  144.4070 C   0  0  0  0  0  3  0  0  0  0  0  0
  188.3020  177.1190  144.5970 C   0  0  0  0  0  2  0  0  0  0  0  0
  188.1080  178.2060  145.4520 O   0  0  0  0  0  0  0  0  0  0  0  0
  187.4460  177.6760  146.5630 C   0  0  1  0  0  3  0  0  0  0  0  0
  189.1380  176.1560  147.2800 F   0  0  0  0  0  0  0  0  0  0  0  0
  188.4480  177.2950  147.6520 C   0  0  0  0  0  0  0  0  0  0  0  0
  187.7970  177.0630  148.8510 F   0  0  0  0  0  0  0  0  0  0  0  0
  189.3540  178.3250  147.8220 F   0  0  0  0  0  0  0  0  0  0  0  0
  186.6240  179.2950  148.1250 O   0  0  0  0  0  0  0  0  0  0  0  0
  186.4170  178.6520  147.0620 C   0  0  0  0  0  0  0  0  0  0  0  0
  185.1970  178.8570  146.3490 N   0  0  0  0  0  2  0  0  0  0  0  0
  184.8790  178.1450  145.1220 C   0  0  0  0  0  2  0  0  0  0  0  0
  182.6440  178.8480  144.2870 C   0  0  0  0  0  1  0  0  0  0  0  0
  184.1390  179.0620  144.1660 C   0  0  0  0  0  2  0  0  0  0  0  0
  1 11  2  0  0  0  0
  2  6  1  0  0  0  0
  3  9  1  0  0  0  0
  4 25  1  0  0  0  0
  5  2  2  0  0  0  0
  6  8  2  0  0  0  0
  7  1  1  6  0  0  0
  7  3  1  0  0  0  0
  7  6  1  0  0  0  0
  8  4  1  0  0  0  0
  9  4  2  0  0  0  0
 10  1  1  0  0  0  0
 10 12  1  0  0  0  0
 11  5  1  0  0  0  0
 12 14  1  6  0  0  0
 12  3  1  0  0  0  0
 13 11  1  0  0  0  0
 15 14  2  0  0  0  0
 16 14  1  0  0  0  0
 17 16  1  0  0  0  0
 17 19  1  0  0  0  0
 18 21  1  0  0  0  0
 19 20  2  0  0  0  0
 19 18  1  0  0  0  0
 21 23  1  0  0  0  0
 23 22  1  1  0  0  0
 24 23  1  0  0  0  0
 25 26  1  6  0  0  0
 25 27  1  0  0  0  0
 27 30  1  0  0  0  0
 27 31  1  0  0  0  0
 29 30  1  0  0  0  0
 29 28  1  0  0  0  0
 30 28  1  0  0  0  0
 31 32  1  0  0  0  0
 33 32  1  6  0  0  0
 33 39  1  0  0  0  0
 33 35  1  0  0  0  0
 34 35  1  0  0  0  0
 35 37  1  0  0  0  0
 35 36  1  0  0  0  0
 39 38  2  0  0  0  0
 40 39  1  0  0  0  0
 41 40  1  0  0  0  0
 43 42  1  0  0  0  0
 43 41  1  0  0  0  0
M  END
>  <MODEL>
5

>  <REMARK>
 VINA RESULT:      -7.6      2.881      6.810
  Name = 
  15 active torsions:
  status: ('A' for Active; 'I' for Inactive)
    1  A    between atoms: N_1  and  C_42
    2  A    between atoms: C_2  and  C_10
    3  A    between atoms: C_6  and  C_18
    4  A    between atoms: N_7  and  C_35
    5  A    between atoms: N_7  and  C_39
    6  A    between atoms: N_7  and  C_43
    7  A    between atoms: N_9  and  C_17
    8  A    between atoms: C_10  and  N_40
    9  A    between atoms: C_11  and  C_18
   10  A    between atoms: C_12  and  C_42
   11  A    between atoms: C_15  and  C_36
   12  A    between atoms: C_17  and  C_33
   13  A    between atoms: C_18  and  O_32
   14  A    between atoms: C_20  and  C_39
   15  A    between atoms: O_32  and  C_43
                            x       y       z     vdW  Elec       q    Type
                         _______ _______ _______ _____ _____    ______ ____

>  <TORSDO>
F 15

$$$$
=
 OpenBabel11042412553D

 43 46  0  0  1  0  0  0  0  0999 V2000
  186.4790  178.3630  144.9240 C   0  0  0  0  0  0  0  0  0  0  0  0
  183.8060  178.9760  145.4700 N   0  0  0  0  0  0  0  0  0  0  0  0
  186.0720  178.3850  142.6190 N   0  0  0  0  0  0  0  0  0  0  0  0
  183.9110  178.6500  141.7240 C   0  0  0  0  0  0  0  0  0  0  0  0
  184.6010  178.6300  146.4110 N   0  0  0  0  0  0  0  0  0  0  0  0
  184.2540  178.9860  144.1110 C   0  0  0  0  0  0  0  0  0  0  0  0
  185.7290  179.0600  143.8570 C   0  0  1  0  0  3  0  0  0  0  0  0
  183.3960  178.8640  143.0940 C   0  0  0  0  0  3  0  0  0  0  0  0
  185.1700  178.3660  141.5400 N   0  0  0  0  0  0  0  0  0  0  0  0
  187.9870  177.6010  144.3370 S   0  0  0  0  0  0  0  0  0  0  0  0
  185.9530  178.1980  146.1500 C   0  0  0  0  0  0  0  0  0  0  0  0
  187.2680  177.5490  142.6450 C   0  0  2  0  0  3  0  0  0  0  0  0
  186.7130  177.5120  147.2310 C   0  0  0  0  0  1  0  0  0  0  0  0
  188.2560  178.0220  141.6310 C   0  0  0  0  0  0  0  0  0  0  0  0
  188.1030  179.1390  141.0640 O   0  0  0  0  0  0  0  0  0  0  0  0
  189.3500  177.1730  141.2780 N   0  0  0  0  0  2  0  0  0  0  0  0
  190.3710  177.5620  140.3160 C   0  0  0  0  0  2  0  0  0  0  0  0
  189.5580  177.1060  137.9410 N   0  0  0  0  0  2  0  0  0  0  0  0
  190.2930  176.6960  139.0990 C   0  0  0  0  0  0  0  0  0  0  0  0
  190.8660  175.5760  139.1020 O   0  0  0  0  0  0  0  0  0  0  0  0
  188.8820  178.3910  137.8350 C   0  0  0  0  0  2  0  0  0  0  0  0
  187.1770  178.6310  136.0310 C   0  0  0  0  0  1  0  0  0  0  0  0
  187.4200  178.2010  137.4630 C   0  0  1  0  0  3  0  0  0  0  0  0
  187.0620  176.8040  137.6110 N   0  0  0  0  0  1  0  0  0  0  0  0
  182.9460  178.6020  140.5750 C   0  0  1  0  0  3  0  0  0  0  0  0
  183.7450  178.7330  139.2790 C   0  0  0  0  0  1  0  0  0  0  0  0
  182.1380  177.3670  140.5940 N   0  0  0  0  0  0  0  0  0  0  0  0
  179.8050  177.4880  141.3250 C   0  0  0  0  0  2  0  0  0  0  0  0
  180.2540  178.8810  140.9560 C   0  0  0  0  0  2  0  0  0  0  0  0
  180.7740  177.6880  140.1690 C   0  0  0  0  0  3  0  0  0  0  0  0
  182.6650  176.4600  139.5780 C   0  0  0  0  0  2  0  0  0  0  0  0
  181.6910  176.2370  138.6030 O   0  0  0  0  0  0  0  0  0  0  0  0
  182.1110  175.0850  137.9320 C   0  0  1  0  0  3  0  0  0  0  0  0
  179.8390  175.2040  137.2150 F   0  0  0  0  0  0  0  0  0  0  0  0
  180.9120  174.3410  137.3430 C   0  0  0  0  0  0  0  0  0  0  0  0
  180.5510  173.2820  138.1560 F   0  0  0  0  0  0  0  0  0  0  0  0
  181.2430  173.8580  136.0910 F   0  0  0  0  0  0  0  0  0  0  0  0
  182.9090  176.4120  136.1050 O   0  0  0  0  0  0  0  0  0  0  0  0
  183.1230  175.4420  136.8790 C   0  0  0  0  0  0  0  0  0  0  0  0
  184.3290  174.6910  136.7400 N   0  0  0  0  0  2  0  0  0  0  0  0
  184.6440  173.5510  137.5870 C   0  0  0  0  0  2  0  0  0  0  0  0
  183.3280  171.4910  137.1290 C   0  0  0  0  0  1  0  0  0  0  0  0
  184.5800  172.2700  136.7780 C   0  0  0  0  0  2  0  0  0  0  0  0
  1 11  2  0  0  0  0
  2  5  2  0  0  0  0
  3 12  1  0  0  0  0
  3  7  1  0  0  0  0
  4  8  1  0  0  0  0
  6  2  1  0  0  0  0
  7  6  1  1  0  0  0
  7  1  1  0  0  0  0
  8  6  2  0  0  0  0
  9  4  2  0  0  0  0
  9  3  1  0  0  0  0
 10  1  1  0  0  0  0
 11  5  1  0  0  0  0
 11 13  1  0  0  0  0
 12 14  1  6  0  0  0
 12 10  1  0  0  0  0
 15 14  2  0  0  0  0
 16 14  1  0  0  0  0
 17 16  1  0  0  0  0
 18 19  1  0  0  0  0
 19 20  2  0  0  0  0
 19 17  1  0  0  0  0
 21 18  1  0  0  0  0
 23 22  1  6  0  0  0
 23 24  1  0  0  0  0
 23 21  1  0  0  0  0
 25 26  1  6  0  0  0
 25 27  1  0  0  0  0
 25  4  1  0  0  0  0
 29 28  1  0  0  0  0
 30 27  1  0  0  0  0
 30 29  1  0  0  0  0
 30 28  1  0  0  0  0
 31 27  1  0  0  0  0
 32 31  1  0  0  0  0
 33 39  1  6  0  0  0
 33 32  1  0  0  0  0
 34 35  1  0  0  0  0
 35 33  1  0  0  0  0
 35 36  1  0  0  0  0
 37 35  1  0  0  0  0
 38 39  2  0  0  0  0
 40 39  1  0  0  0  0
 40 41  1  0  0  0  0
 43 42  1  0  0  0  0
 43 41  1  0  0  0  0
M  END
>  <MODEL>
6

>  <REMARK>
 VINA RESULT:      -7.5      4.251      7.953
  Name = 
  15 active torsions:
  status: ('A' for Active; 'I' for Inactive)
    1  A    between atoms: N_1  and  C_42
    2  A    between atoms: C_2  and  C_10
    3  A    between atoms: C_6  and  C_18
    4  A    between atoms: N_7  and  C_35
    5  A    between atoms: N_7  and  C_39
    6  A    between atoms: N_7  and  C_43
    7  A    between atoms: N_9  and  C_17
    8  A    between atoms: C_10  and  N_40
    9  A    between atoms: C_11  and  C_18
   10  A    between atoms: C_12  and  C_42
   11  A    between atoms: C_15  and  C_36
   12  A    between atoms: C_17  and  C_33
   13  A    between atoms: C_18  and  O_32
   14  A    between atoms: C_20  and  C_39
   15  A    between atoms: O_32  and  C_43
                            x       y       z     vdW  Elec       q    Type
                         _______ _______ _______ _____ _____    ______ ____

>  <TORSDO>
F 15

$$$$
=
 OpenBabel11042412553D

 43 46  0  0  1  0  0  0  0  0999 V2000
  188.8790  176.8780  137.1090 C   0  0  0  0  0  0  0  0  0  0  0  0
  186.4210  177.2150  135.8200 N   0  0  0  0  0  0  0  0  0  0  0  0
  187.9860  177.6420  139.1340 N   0  0  0  0  0  0  0  0  0  0  0  0
  185.7930  178.4810  139.3060 C   0  0  0  0  0  0  0  0  0  0  0  0
  187.4800  176.9590  135.1490 N   0  0  0  0  0  0  0  0  0  0  0  0
  186.4900  177.4040  137.2370 C   0  0  0  0  0  0  0  0  0  0  0  0
  187.6730  176.8410  137.9650 C   0  0  1  0  0  3  0  0  0  0  0  0
  185.5690  178.1170  137.8900 C   0  0  0  0  0  3  0  0  0  0  0  0
  186.9660  178.2980  139.8460 N   0  0  0  0  0  0  0  0  0  0  0  0
  190.3870  177.1310  138.0360 S   0  0  0  0  0  0  0  0  0  0  0  0
  188.7810  176.8920  135.7680 C   0  0  0  0  0  0  0  0  0  0  0  0
  189.3990  177.9130  139.3760 C   0  0  2  0  0  3  0  0  0  0  0  0
  189.9940  176.9120  134.9060 C   0  0  0  0  0  1  0  0  0  0  0  0
  189.8080  177.3920  140.7140 C   0  0  0  0  0  0  0  0  0  0  0  0
  190.5230  176.3560  140.8030 O   0  0  0  0  0  0  0  0  0  0  0  0
  189.3400  178.0550  141.8900 N   0  0  0  0  0  2  0  0  0  0  0  0
  189.7060  177.6290  143.2330 C   0  0  0  0  0  2  0  0  0  0  0  0
  188.2490  177.0520  145.2470 N   0  0  0  0  0  2  0  0  0  0  0  0
  188.5760  176.8800  143.8640 C   0  0  0  0  0  0  0  0  0  0  0  0
  187.9130  176.0660  143.1710 O   0  0  0  0  0  0  0  0  0  0  0  0
  188.9440  177.9860  146.1230 C   0  0  0  0  0  2  0  0  0  0  0  0
  190.8070  176.7490  147.2270 C   0  0  0  0  0  1  0  0  0  0  0  0
  189.4030  177.2900  147.3950 C   0  0  1  0  0  3  0  0  0  0  0  0
  189.3810  178.2330  148.4960 N   0  0  0  0  0  1  0  0  0  0  0  0
  184.7160  179.2060  140.0590 C   0  0  1  0  0  3  0  0  0  0  0  0
  183.7310  179.7810  139.0420 C   0  0  0  0  0  1  0  0  0  0  0  0
  184.0430  178.3240  141.0320 N   0  0  0  0  0  0  0  0  0  0  0  0
  184.8010  178.1390  143.3520 C   0  0  0  0  0  2  0  0  0  0  0  0
  185.4560  179.3530  142.7390 C   0  0  0  0  0  2  0  0  0  0  0  0
  184.0360  178.9820  142.3410 C   0  0  0  0  0  3  0  0  0  0  0  0
  182.6400  178.2030  140.6440 C   0  0  0  0  0  2  0  0  0  0  0  0
  182.3480  176.8650  140.3710 O   0  0  0  0  0  0  0  0  0  0  0  0
  181.1400  176.8980  139.6680 C   0  0  1  0  0  3  0  0  0  0  0  0
  180.0920  176.2340  137.6310 F   0  0  0  0  0  0  0  0  0  0  0  0
  181.3120  176.2820  138.2790 C   0  0  0  0  0  0  0  0  0  0  0  0
  181.8280  175.0020  138.3760 F   0  0  0  0  0  0  0  0  0  0  0  0
  182.1780  177.0620  137.5350 F   0  0  0  0  0  0  0  0  0  0  0  0
  180.0760  174.9520  140.5740 O   0  0  0  0  0  0  0  0  0  0  0  0
  180.0650  176.2070  140.4590 C   0  0  0  0  0  0  0  0  0  0  0  0
  179.0200  176.9550  141.0820 N   0  0  0  0  0  2  0  0  0  0  0  0
  178.9310  178.4030  140.9850 C   0  0  0  0  0  2  0  0  0  0  0  0
  180.0350  178.3950  143.2130 C   0  0  0  0  0  1  0  0  0  0  0  0
  178.9390  179.0170  142.3730 C   0  0  0  0  0  2  0  0  0  0  0  0
  1 10  1  0  0  0  0
  2  6  1  0  0  0  0
  3 12  1  0  0  0  0
  3  9  1  0  0  0  0
  4  9  2  0  0  0  0
  4 25  1  0  0  0  0
  5 11  1  0  0  0  0
  5  2  2  0  0  0  0
  6  8  2  0  0  0  0
  6  7  1  0  0  0  0
  7  1  1  6  0  0  0
  7  3  1  0  0  0  0
  8  4  1  0  0  0  0
 10 12  1  0  0  0  0
 11  1  2  0  0  0  0
 12 14  1  1  0  0  0
 13 11  1  0  0  0  0
 14 15  2  0  0  0  0
 14 16  1  0  0  0  0
 16 17  1  0  0  0  0
 17 19  1  0  0  0  0
 18 21  1  0  0  0  0
 19 18  1  0  0  0  0
 20 19  2  0  0  0  0
 21 23  1  0  0  0  0
 23 22  1  6  0  0  0
 23 24  1  0  0  0  0
 25 26  1  6  0  0  0
 25 27  1  0  0  0  0
 27 30  1  0  0  0  0
 29 28  1  0  0  0  0
 30 29  1  0  0  0  0
 30 28  1  0  0  0  0
 31 27  1  0  0  0  0
 32 31  1  0  0  0  0
 33 32  1  1  0  0  0
 33 39  1  0  0  0  0
 34 35  1  0  0  0  0
 35 36  1  0  0  0  0
 35 33  1  0  0  0  0
 37 35  1  0  0  0  0
 39 38  2  0  0  0  0
 39 40  1  0  0  0  0
 41 40  1  0  0  0  0
 41 43  1  0  0  0  0
 43 42  1  0  0  0  0
M  END
>  <MODEL>
7

>  <REMARK>
 VINA RESULT:      -7.4      3.777      8.686
  Name = 
  15 active torsions:
  status: ('A' for Active; 'I' for Inactive)
    1  A    between atoms: N_1  and  C_42
    2  A    between atoms: C_2  and  C_10
    3  A    between atoms: C_6  and  C_18
    4  A    between atoms: N_7  and  C_35
    5  A    between atoms: N_7  and  C_39
    6  A    between atoms: N_7  and  C_43
    7  A    between atoms: N_9  and  C_17
    8  A    between atoms: C_10  and  N_40
    9  A    between atoms: C_11  and  C_18
   10  A    between atoms: C_12  and  C_42
   11  A    between atoms: C_15  and  C_36
   12  A    between atoms: C_17  and  C_33
   13  A    between atoms: C_18  and  O_32
   14  A    between atoms: C_20  and  C_39
   15  A    between atoms: O_32  and  C_43
                            x       y       z     vdW  Elec       q    Type
                         _______ _______ _______ _____ _____    ______ ____

>  <TORSDO>
F 15

$$$$
=
 OpenBabel11042412553D

 43 46  0  0  1  0  0  0  0  0999 V2000
  185.8340  178.6980  144.5630 C   0  0  0  0  0  0  0  0  0  0  0  0
  183.0760  179.0970  144.8040 N   0  0  0  0  0  0  0  0  0  0  0  0
  185.6480  178.4260  142.2460 N   0  0  0  0  0  0  0  0  0  0  0  0
  183.5670  178.3730  141.1460 C   0  0  0  0  0  0  0  0  0  0  0  0
  183.8060  178.9380  145.8430 N   0  0  0  0  0  0  0  0  0  0  0  0
  183.6490  179.0030  143.4960 C   0  0  0  0  0  0  0  0  0  0  0  0
  185.1300  179.1950  143.3610 C   0  0  1  0  0  3  0  0  0  0  0  0
  182.9070  178.6850  142.4330 C   0  0  0  0  0  3  0  0  0  0  0  0
  184.8580  178.1980  141.1040 N   0  0  0  0  0  0  0  0  0  0  0  0
  187.4520  178.0310  144.2000 S   0  0  0  0  0  0  0  0  0  0  0  0
  185.2100  178.6180  145.7510 C   0  0  0  0  0  0  0  0  0  0  0  0
  186.9060  177.7210  142.4720 C   0  0  2  0  0  3  0  0  0  0  0  0
  185.9220  178.1330  146.9660 C   0  0  0  0  0  1  0  0  0  0  0  0
  187.9400  178.1760  141.4960 C   0  0  0  0  0  0  0  0  0  0  0  0
  188.3950  179.3510  141.5510 O   0  0  0  0  0  0  0  0  0  0  0  0
  188.3730  177.2770  140.4720 N   0  0  0  0  0  2  0  0  0  0  0  0
  189.3910  177.6290  139.4930 C   0  0  0  0  0  2  0  0  0  0  0  0
  191.5740  176.7790  140.5050 N   0  0  0  0  0  2  0  0  0  0  0  0
  190.5200  176.6500  139.5460 C   0  0  0  0  0  0  0  0  0  0  0  0
  190.5550  175.7050  138.7150 O   0  0  0  0  0  0  0  0  0  0  0  0
  191.6100  177.8250  141.5180 C   0  0  0  0  0  2  0  0  0  0  0  0
  191.5200  178.2990  143.9660 C   0  0  0  0  0  1  0  0  0  0  0  0
  191.6680  177.2200  142.9120 C   0  0  1  0  0  3  0  0  0  0  0  0
  190.6000  176.2520  143.0640 N   0  0  0  0  0  1  0  0  0  0  0  0
  182.7250  178.1030  139.9330 C   0  0  1  0  0  3  0  0  0  0  0  0
  183.2360  178.9830  138.7940 C   0  0  0  0  0  1  0  0  0  0  0  0
  182.7420  176.6730  139.5670 N   0  0  0  0  0  0  0  0  0  0  0  0
  180.7690  175.3110  140.0600 C   0  0  0  0  0  2  0  0  0  0  0  0
  180.3530  176.7620  140.0760 C   0  0  0  0  0  2  0  0  0  0  0  0
  181.4110  176.2910  139.0890 C   0  0  0  0  0  3  0  0  0  0  0  0
  183.6350  176.5050  138.4230 C   0  0  0  0  0  2  0  0  0  0  0  0
  183.3430  175.3010  137.7790 O   0  0  0  0  0  0  0  0  0  0  0  0
  184.5860  174.7840  137.4030 C   0  0  1  0  0  3  0  0  0  0  0  0
  183.2230  172.8280  137.4390 F   0  0  0  0  0  0  0  0  0  0  0  0
  184.5320  173.2580  137.3290 C   0  0  0  0  0  0  0  0  0  0  0  0
  185.2850  172.6960  138.3440 F   0  0  0  0  0  0  0  0  0  0  0  0
  185.0340  172.8410  136.1110 F   0  0  0  0  0  0  0  0  0  0  0  0
  184.1690  175.7020  135.2310 O   0  0  0  0  0  0  0  0  0  0  0  0
  185.0260  175.3950  136.1020 C   0  0  0  0  0  0  0  0  0  0  0  0
  186.4090  175.6290  135.8330 N   0  0  0  0  0  2  0  0  0  0  0  0
  187.4570  175.2920  136.7830 C   0  0  0  0  0  2  0  0  0  0  0  0
  188.4830  173.0270  136.8470 C   0  0  0  0  0  1  0  0  0  0  0  0
  188.4660  174.3630  136.1330 C   0  0  0  0  0  2  0  0  0  0  0  0
  1 11  2  0  0  0  0
  2  5  2  0  0  0  0
  3 12  1  0  0  0  0
  3  7  1  0  0  0  0
  4  8  1  0  0  0  0
  6  2  1  0  0  0  0
  7  6  1  1  0  0  0
  7  1  1  0  0  0  0
  8  6  2  0  0  0  0
  9  4  2  0  0  0  0
  9  3  1  0  0  0  0
 10  1  1  0  0  0  0
 11  5  1  0  0  0  0
 11 13  1  0  0  0  0
 12 14  1  6  0  0  0
 12 10  1  0  0  0  0
 14 15  2  0  0  0  0
 16 14  1  0  0  0  0
 17 19  1  0  0  0  0
 17 16  1  0  0  0  0
 18 21  1  0  0  0  0
 19 18  1  0  0  0  0
 20 19  2  0  0  0  0
 21 23  1  0  0  0  0
 23 24  1  0  0  0  0
 23 22  1  1  0  0  0
 25 26  1  6  0  0  0
 25  4  1  0  0  0  0
 27 25  1  0  0  0  0
 28 29  1  0  0  0  0
 30 27  1  0  0  0  0
 30 28  1  0  0  0  0
 30 29  1  0  0  0  0
 31 27  1  0  0  0  0
 32 31  1  0  0  0  0
 33 39  1  6  0  0  0
 33 32  1  0  0  0  0
 35 33  1  0  0  0  0
 35 34  1  0  0  0  0
 35 36  1  0  0  0  0
 37 35  1  0  0  0  0
 38 39  2  0  0  0  0
 40 39  1  0  0  0  0
 40 41  1  0  0  0  0
 43 41  1  0  0  0  0
 43 42  1  0  0  0  0
M  END
>  <MODEL>
8

>  <REMARK>
 VINA RESULT:      -7.4      3.478      7.496
  Name = 
  15 active torsions:
  status: ('A' for Active; 'I' for Inactive)
    1  A    between atoms: N_1  and  C_42
    2  A    between atoms: C_2  and  C_10
    3  A    between atoms: C_6  and  C_18
    4  A    between atoms: N_7  and  C_35
    5  A    between atoms: N_7  and  C_39
    6  A    between atoms: N_7  and  C_43
    7  A    between atoms: N_9  and  C_17
    8  A    between atoms: C_10  and  N_40
    9  A    between atoms: C_11  and  C_18
   10  A    between atoms: C_12  and  C_42
   11  A    between atoms: C_15  and  C_36
   12  A    between atoms: C_17  and  C_33
   13  A    between atoms: C_18  and  O_32
   14  A    between atoms: C_20  and  C_39
   15  A    between atoms: O_32  and  C_43
                            x       y       z     vdW  Elec       q    Type
                         _______ _______ _______ _____ _____    ______ ____

>  <TORSDO>
F 15

$$$$
=
 OpenBabel11042412553D

 43 46  0  0  1  0  0  0  0  0999 V2000
  186.4780  178.3450  144.9470 C   0  0  0  0  0  0  0  0  0  0  0  0
  183.8100  178.9500  145.5250 N   0  0  0  0  0  0  0  0  0  0  0  0
  186.0490  178.3930  142.6460 N   0  0  0  0  0  0  0  0  0  0  0  0
  183.8790  178.6670  141.7740 C   0  0  0  0  0  0  0  0  0  0  0  0
  184.6150  178.5930  146.4540 N   0  0  0  0  0  0  0  0  0  0  0  0
  184.2450  178.9760  144.1620 C   0  0  0  0  0  0  0  0  0  0  0  0
  185.7180  179.0540  143.8950 C   0  0  1  0  0  3  0  0  0  0  0  0
  183.3780  178.8650  143.1520 C   0  0  0  0  0  3  0  0  0  0  0  0
  185.1370  178.3860  141.5750 N   0  0  0  0  0  0  0  0  0  0  0  0
  187.9810  177.5920  144.3370 S   0  0  0  0  0  0  0  0  0  0  0  0
  185.9640  178.1660  146.1760 C   0  0  0  0  0  0  0  0  0  0  0  0
  187.2460  177.5580  142.6510 C   0  0  2  0  0  3  0  0  0  0  0  0
  186.7350  177.4680  147.2410 C   0  0  0  0  0  1  0  0  0  0  0  0
  188.2240  178.0430  141.6330 C   0  0  0  0  0  0  0  0  0  0  0  0
  188.0760  179.1760  141.0960 O   0  0  0  0  0  0  0  0  0  0  0  0
  189.3020  177.1900  141.2430 N   0  0  0  0  0  2  0  0  0  0  0  0
  190.3130  177.5900  140.2740 C   0  0  0  0  0  2  0  0  0  0  0  0
  189.5530  177.3060  137.8550 N   0  0  0  0  0  2  0  0  0  0  0  0
  190.1840  176.7780  139.0260 C   0  0  0  0  0  0  0  0  0  0  0  0
  190.6200  175.5970  139.0110 O   0  0  0  0  0  0  0  0  0  0  0  0
  189.0380  178.6660  137.7690 C   0  0  0  0  0  2  0  0  0  0  0  0
  187.6710  177.7700  135.8850 C   0  0  0  0  0  1  0  0  0  0  0  0
  187.6760  178.6840  137.0930 C   0  0  1  0  0  3  0  0  0  0  0  0
  186.6650  178.2420  138.0320 N   0  0  0  0  0  1  0  0  0  0  0  0
  182.9040  178.6310  140.6340 C   0  0  1  0  0  3  0  0  0  0  0  0
  183.5120  179.4040  139.4650 C   0  0  0  0  0  1  0  0  0  0  0  0
  182.5630  177.2460  140.2540 N   0  0  0  0  0  0  0  0  0  0  0  0
  180.2770  176.4900  140.6950 C   0  0  0  0  0  2  0  0  0  0  0  0
  180.2730  177.9990  140.6560 C   0  0  0  0  0  2  0  0  0  0  0  0
  181.1960  177.2230  139.7280 C   0  0  0  0  0  3  0  0  0  0  0  0
  183.4210  176.8540  139.1380 C   0  0  0  0  0  2  0  0  0  0  0  0
  183.1670  175.5230  138.8020 O   0  0  0  0  0  0  0  0  0  0  0  0
  183.4160  175.4450  137.4290 C   0  0  1  0  0  3  0  0  0  0  0  0
  184.3270  173.3040  137.9540 F   0  0  0  0  0  0  0  0  0  0  0  0
  184.5020  174.4080  137.1400 C   0  0  0  0  0  0  0  0  0  0  0  0
  185.7580  174.9450  137.3630 F   0  0  0  0  0  0  0  0  0  0  0  0
  184.4110  174.0050  135.8210 F   0  0  0  0  0  0  0  0  0  0  0  0
  181.6560  173.9850  136.7200 O   0  0  0  0  0  0  0  0  0  0  0  0
  182.1420  175.1460  136.6900 C   0  0  0  0  0  0  0  0  0  0  0  0
  181.4720  176.1640  135.9450 N   0  0  0  0  0  2  0  0  0  0  0  0
  181.9760  177.5250  135.8520 C   0  0  0  0  0  2  0  0  0  0  0  0
  180.8970  179.7590  136.0210 C   0  0  0  0  0  1  0  0  0  0  0  0
  180.9060  178.4370  135.2820 C   0  0  0  0  0  2  0  0  0  0  0  0
  1 11  2  0  0  0  0
  2  5  2  0  0  0  0
  3 12  1  0  0  0  0
  3  7  1  0  0  0  0
  4  8  1  0  0  0  0
  6  2  1  0  0  0  0
  7  6  1  1  0  0  0
  7  1  1  0  0  0  0
  8  6  2  0  0  0  0
  9  4  2  0  0  0  0
  9  3  1  0  0  0  0
 10  1  1  0  0  0  0
 11  5  1  0  0  0  0
 11 13  1  0  0  0  0
 12 14  1  6  0  0  0
 12 10  1  0  0  0  0
 15 14  2  0  0  0  0
 16 14  1  0  0  0  0
 17 16  1  0  0  0  0
 18 19  1  0  0  0  0
 19 17  1  0  0  0  0
 20 19  2  0  0  0  0
 21 18  1  0  0  0  0
 23 22  1  6  0  0  0
 23 21  1  0  0  0  0
 23 24  1  0  0  0  0
 25 26  1  6  0  0  0
 25  4  1  0  0  0  0
 27 25  1  0  0  0  0
 29 28  1  0  0  0  0
 30 27  1  0  0  0  0
 30 29  1  0  0  0  0
 30 28  1  0  0  0  0
 31 27  1  0  0  0  0
 32 31  1  0  0  0  0
 33 39  1  6  0  0  0
 33 32  1  0  0  0  0
 35 36  1  0  0  0  0
 35 33  1  0  0  0  0
 35 34  1  0  0  0  0
 37 35  1  0  0  0  0
 39 38  2  0  0  0  0
 40 39  1  0  0  0  0
 41 40  1  0  0  0  0
 43 41  1  0  0  0  0
 43 42  1  0  0  0  0
M  END
>  <MODEL>
9

>  <REMARK>
 VINA RESULT:      -7.3      3.581      7.799
  Name = 
  15 active torsions:
  status: ('A' for Active; 'I' for Inactive)
    1  A    between atoms: N_1  and  C_42
    2  A    between atoms: C_2  and  C_10
    3  A    between atoms: C_6  and  C_18
    4  A    between atoms: N_7  and  C_35
    5  A    between atoms: N_7  and  C_39
    6  A    between atoms: N_7  and  C_43
    7  A    between atoms: N_9  and  C_17
    8  A    between atoms: C_10  and  N_40
    9  A    between atoms: C_11  and  C_18
   10  A    between atoms: C_12  and  C_42
   11  A    between atoms: C_15  and  C_36
   12  A    between atoms: C_17  and  C_33
   13  A    between atoms: C_18  and  O_32
   14  A    between atoms: C_20  and  C_39
   15  A    between atoms: O_32  and  C_43
                            x       y       z     vdW  Elec       q    Type
                         _______ _______ _______ _____ _____    ______ ____

>  <TORSDO>
F 15

$$$$
