=
 OpenBabel11042412003D

 28 31  0  0  1  0  0  0  0  0999 V2000
  189.0570  178.1340  141.6520 C   0  0  0  0  0  2  0  0  0  0  0  0
  190.4940  176.1660  141.2370 O   0  0  0  0  0  0  0  0  0  0  0  0
  191.4640  177.2570  138.8760 O   0  0  0  0  0  0  0  0  0  0  0  0
  190.1660  177.6240  139.2720 C   0  0  2  0  0  3  0  0  0  0  0  0
  190.0480  177.4080  140.7590 C   0  0  1  0  0  0  0  0  0  0  0  0
  191.3940  177.2550  141.2830 C   0  0  2  0  0  3  0  0  0  0  0  0
  192.2620  177.2540  140.0390 C   0  0  0  0  0  2  0  0  0  0  0  0
  189.1320  176.7880  138.5320 C   0  0  0  0  0  2  0  0  0  0  0  0
  187.9920  177.6400  138.0970 C   0  0  0  0  0  0  0  0  0  0  0  0
  188.1300  178.8920  138.0520 O   0  0  0  0  0  0  0  0  0  0  0  0
  186.7620  177.0280  137.7030 N   0  0  0  0  0  2  0  0  0  0  0  0
  185.6370  177.7910  137.1830 C   0  0  0  0  0  2  0  0  0  0  0  0
  184.1830  177.5850  138.2600 S   0  0  0  0  0  0  0  0  0  0  0  0
  184.7970  178.7710  139.4920 C   0  0  0  0  0  2  0  0  0  0  0  0
  184.5220  180.0730  139.0730 O   0  0  0  0  0  1  0  0  0  0  0  0
  187.9930  177.1780  142.1650 C   0  0  0  0  0  2  0  0  0  0  0  0
  188.4700  177.5850  145.8400 C   0  0  0  0  0  0  0  0  0  0  0  0
  187.1990  178.0190  146.2730 C   0  0  0  0  0  0  0  0  0  0  0  0
  186.4340  177.8920  143.9820 C   0  0  0  0  0  3  0  0  0  0  0  0
  187.9810  178.1390  148.5150 C   0  0  0  0  0  3  0  0  0  0  0  0
  189.2520  177.7120  148.1210 C   0  0  0  0  0  3  0  0  0  0  0  0
  186.9900  178.2830  147.5940 N   0  0  0  0  0  0  0  0  0  0  0  0
  187.7060  177.4580  143.5980 C   0  0  0  0  0  0  0  0  0  0  0  0
  186.1740  178.1730  145.3260 C   0  0  0  0  0  0  0  0  0  0  0  0
  188.6920  177.3200  144.5260 N   0  0  0  0  0  0  0  0  0  0  0  0
  189.4950  177.4330  146.7750 C   0  0  0  0  0  3  0  0  0  0  0  0
  184.8590  178.6140  145.7070 C   0  0  0  0  0  0  0  0  0  0  0  0
  183.8000  178.9680  146.0120 N   0  0  0  0  0  0  0  0  0  0  0  0
  1 16  1  0  0  0  0
  2  6  1  0  0  0  0
  3  4  1  0  0  0  0
  3  7  1  0  0  0  0
  4  8  1  6  0  0  0
  4  5  1  0  0  0  0
  5  2  1  0  0  0  0
  5  6  1  0  0  0  0
  5  1  1  1  0  0  0
  6  7  1  6  0  0  0
  9  8  1  0  0  0  0
 10  9  2  0  0  0  0
 11  9  1  0  0  0  0
 12 11  1  0  0  0  0
 12 13  1  0  0  0  0
 13 14  1  0  0  0  0
 15 14  1  0  0  0  0
 16 23  1  0  0  0  0
 17 18  1  0  0  0  0
 17 26  1  0  0  0  0
 18 22  1  0  0  0  0
 19 24  1  0  0  0  0
 21 20  1  0  0  0  0
 22 20  2  0  0  0  0
 23 19  2  0  0  0  0
 23 25  1  0  0  0  0
 24 27  1  0  0  0  0
 24 18  2  0  0  0  0
 25 17  2  0  0  0  0
 26 21  2  0  0  0  0
 27 28  3  0  0  0  0
M  END
>  <MODEL>
1

>  <REMARK>
 VINA RESULT:      -7.8      0.000      0.000
  Name = 
  9 active torsions:
  status: ('A' for Active; 'I' for Inactive)
    1  A    between atoms: C_1  and  C_3
    2  A    between atoms: C_1  and  C_20
    3  A    between atoms: C_3  and  C_13
    4  A    between atoms: C_4  and  S_22
    5  A    between atoms: C_6  and  C_17
    6  A    between atoms: C_10  and  C_21
    7  A    between atoms: C_11  and  C_17
    8  A    between atoms: S_22  and  C_25
    9  A    between atoms: C_25  and  N_27
                            x       y       z     vdW  Elec       q    Type
                         _______ _______ _______ _____ _____    ______ ____

>  <TORSDO>
F 9

$$$$
=
 OpenBabel11042412003D

 28 31  0  0  1  0  0  0  0  0999 V2000
  188.1970  178.5130  140.9770 C   0  0  0  0  0  2  0  0  0  0  0  0
  189.5150  178.5680  138.8860 O   0  0  0  0  0  0  0  0  0  0  0  0
  190.5270  176.0250  139.3480 O   0  0  0  0  0  0  0  0  0  0  0  0
  190.1890  176.8010  140.4710 C   0  0  2  0  0  3  0  0  0  0  0  0
  189.1880  177.8420  140.0410 C   0  0  1  0  0  0  0  0  0  0  0  0
  188.6760  177.4400  138.7430 C   0  0  2  0  0  3  0  0  0  0  0  0
  189.5100  176.2230  138.3920 C   0  0  0  0  0  2  0  0  0  0  0  0
  191.4290  177.4660  141.0480 C   0  0  0  0  0  2  0  0  0  0  0  0
  191.4930  177.2560  142.5210 C   0  0  0  0  0  0  0  0  0  0  0  0
  191.7740  176.1150  142.9770 O   0  0  0  0  0  0  0  0  0  0  0  0
  191.2680  178.3570  143.4020 N   0  0  0  0  0  2  0  0  0  0  0  0
  191.4020  178.2460  144.8470 C   0  0  0  0  0  2  0  0  0  0  0  0
  189.8340  177.6860  145.5850 S   0  0  0  0  0  0  0  0  0  0  0  0
  190.6660  176.8010  146.9370 C   0  0  0  0  0  2  0  0  0  0  0  0
  192.0340  176.7200  146.6770 O   0  0  0  0  0  1  0  0  0  0  0  0
  187.8860  177.6170  142.1640 C   0  0  0  0  0  2  0  0  0  0  0  0
  184.2480  178.4060  142.3690 C   0  0  0  0  0  0  0  0  0  0  0  0
  184.0400  178.5590  143.7560 C   0  0  0  0  0  0  0  0  0  0  0  0
  186.3880  178.0970  144.1050 C   0  0  0  0  0  3  0  0  0  0  0  0
  181.7340  179.0050  143.3820 C   0  0  0  0  0  3  0  0  0  0  0  0
  181.9050  178.8600  142.0020 C   0  0  0  0  0  3  0  0  0  0  0  0
  182.7930  178.8540  144.2230 N   0  0  0  0  0  0  0  0  0  0  0  0
  186.5500  177.9600  142.7230 C   0  0  0  0  0  0  0  0  0  0  0  0
  185.1280  178.4010  144.6280 C   0  0  0  0  0  0  0  0  0  0  0  0
  185.4850  178.1110  141.8910 N   0  0  0  0  0  0  0  0  0  0  0  0
  183.1700  178.5590  141.4950 C   0  0  0  0  0  3  0  0  0  0  0  0
  184.9770  178.5420  146.0530 C   0  0  0  0  0  0  0  0  0  0  0  0
  184.8560  178.6580  147.1980 N   0  0  0  0  0  0  0  0  0  0  0  0
  1 16  1  0  0  0  0
  2  5  1  0  0  0  0
  3  4  1  0  0  0  0
  4  8  1  6  0  0  0
  5  4  1  0  0  0  0
  5  1  1  1  0  0  0
  6  7  1  6  0  0  0
  6  2  1  0  0  0  0
  6  5  1  0  0  0  0
  7  3  1  0  0  0  0
  8  9  1  0  0  0  0
  9 10  2  0  0  0  0
  9 11  1  0  0  0  0
 11 12  1  0  0  0  0
 12 13  1  0  0  0  0
 13 14  1  0  0  0  0
 15 14  1  0  0  0  0
 16 23  1  0  0  0  0
 17 18  1  0  0  0  0
 18 22  1  0  0  0  0
 18 24  2  0  0  0  0
 19 24  1  0  0  0  0
 20 22  2  0  0  0  0
 21 20  1  0  0  0  0
 23 19  2  0  0  0  0
 24 27  1  0  0  0  0
 25 17  2  0  0  0  0
 25 23  1  0  0  0  0
 26 21  2  0  0  0  0
 26 17  1  0  0  0  0
 27 28  3  0  0  0  0
M  END
>  <MODEL>
2

>  <REMARK>
 VINA RESULT:      -7.6      2.863      5.717
  Name = 
  9 active torsions:
  status: ('A' for Active; 'I' for Inactive)
    1  A    between atoms: C_1  and  C_3
    2  A    between atoms: C_1  and  C_20
    3  A    between atoms: C_3  and  C_13
    4  A    between atoms: C_4  and  S_22
    5  A    between atoms: C_6  and  C_17
    6  A    between atoms: C_10  and  C_21
    7  A    between atoms: C_11  and  C_17
    8  A    between atoms: S_22  and  C_25
    9  A    between atoms: C_25  and  N_27
                            x       y       z     vdW  Elec       q    Type
                         _______ _______ _______ _____ _____    ______ ____

>  <TORSDO>
F 9

$$$$
=
 OpenBabel11042412003D

 28 31  0  0  1  0  0  0  0  0999 V2000
  185.5230  177.5490  144.9640 C   0  0  0  0  0  2  0  0  0  0  0  0
  184.3430  179.7190  144.8490 O   0  0  0  0  0  0  0  0  0  0  0  0
  183.2250  179.0850  142.3880 O   0  0  0  0  0  0  0  0  0  0  0  0
  184.4700  178.5100  142.7000 C   0  0  2  0  0  3  0  0  0  0  0  0
  184.6250  178.5070  144.2000 C   0  0  1  0  0  0  0  0  0  0  0  0
  183.3130  178.7540  144.7710 C   0  0  2  0  0  3  0  0  0  0  0  0
  182.4430  179.0310  143.5600 C   0  0  0  0  0  2  0  0  0  0  0  0
  185.5960  179.3030  142.0530 C   0  0  0  0  0  2  0  0  0  0  0  0
  185.5860  179.1070  140.5780 C   0  0  0  0  0  0  0  0  0  0  0  0
  184.6530  179.6010  139.8890 O   0  0  0  0  0  0  0  0  0  0  0  0
  186.6530  178.3910  139.9530 N   0  0  0  0  0  2  0  0  0  0  0  0
  186.7550  178.2380  138.5090 C   0  0  0  0  0  2  0  0  0  0  0  0
  188.1340  177.1260  138.0880 S   0  0  0  0  0  0  0  0  0  0  0  0
  189.3640  178.4620  138.1320 C   0  0  0  0  0  2  0  0  0  0  0  0
  188.8320  179.6120  137.5470 O   0  0  0  0  0  1  0  0  0  0  0  0
  186.6160  178.3070  145.7000 C   0  0  0  0  0  2  0  0  0  0  0  0
  189.4040  177.6060  143.3250 C   0  0  0  0  0  0  0  0  0  0  0  0
  190.4520  177.2110  144.1820 C   0  0  0  0  0  0  0  0  0  0  0  0
  188.9630  177.5290  146.0620 C   0  0  0  0  0  3  0  0  0  0  0  0
  191.8940  176.9110  142.3160 C   0  0  0  0  0  3  0  0  0  0  0  0
  190.8780  177.2990  141.4380 C   0  0  0  0  0  3  0  0  0  0  0  0
  191.6640  176.8740  143.6570 N   0  0  0  0  0  0  0  0  0  0  0  0
  187.9510  177.9090  145.1750 C   0  0  0  0  0  0  0  0  0  0  0  0
  190.2200  177.1750  145.5670 C   0  0  0  0  0  0  0  0  0  0  0  0
  188.1920  177.9450  143.8360 N   0  0  0  0  0  0  0  0  0  0  0  0
  189.6270  177.6480  141.9480 C   0  0  0  0  0  3  0  0  0  0  0  0
  191.2510  176.7820  146.4920 C   0  0  0  0  0  0  0  0  0  0  0  0
  192.0810  176.4660  147.2340 N   0  0  0  0  0  0  0  0  0  0  0  0
  1 16  1  0  0  0  0
  3  4  1  0  0  0  0
  3  7  1  0  0  0  0
  4  8  1  6  0  0  0
  4  5  1  0  0  0  0
  5  6  1  0  0  0  0
  5  2  1  0  0  0  0
  5  1  1  1  0  0  0
  6  7  1  6  0  0  0
  6  2  1  0  0  0  0
  9  8  1  0  0  0  0
 10  9  2  0  0  0  0
 11  9  1  0  0  0  0
 12 11  1  0  0  0  0
 13 14  1  0  0  0  0
 13 12  1  0  0  0  0
 15 14  1  0  0  0  0
 17 25  2  0  0  0  0
 17 18  1  0  0  0  0
 18 24  2  0  0  0  0
 20 22  2  0  0  0  0
 21 26  2  0  0  0  0
 21 20  1  0  0  0  0
 22 18  1  0  0  0  0
 23 16  1  0  0  0  0
 23 19  2  0  0  0  0
 24 19  1  0  0  0  0
 24 27  1  0  0  0  0
 25 23  1  0  0  0  0
 26 17  1  0  0  0  0
 27 28  3  0  0  0  0
M  END
>  <MODEL>
3

>  <REMARK>
 VINA RESULT:      -7.5      2.374      5.789
  Name = 
  9 active torsions:
  status: ('A' for Active; 'I' for Inactive)
    1  A    between atoms: C_1  and  C_3
    2  A    between atoms: C_1  and  C_20
    3  A    between atoms: C_3  and  C_13
    4  A    between atoms: C_4  and  S_22
    5  A    between atoms: C_6  and  C_17
    6  A    between atoms: C_10  and  C_21
    7  A    between atoms: C_11  and  C_17
    8  A    between atoms: S_22  and  C_25
    9  A    between atoms: C_25  and  N_27
                            x       y       z     vdW  Elec       q    Type
                         _______ _______ _______ _____ _____    ______ ____

>  <TORSDO>
F 9

$$$$
=
 OpenBabel11042412003D

 28 31  0  0  1  0  0  0  0  0999 V2000
  185.0340  177.8140  144.8780 C   0  0  0  0  0  2  0  0  0  0  0  0
  183.7620  179.8690  144.3580 O   0  0  0  0  0  0  0  0  0  0  0  0
  183.0710  178.9160  141.8440 O   0  0  0  0  0  0  0  0  0  0  0  0
  184.2840  178.4680  142.3940 C   0  0  2  0  0  3  0  0  0  0  0  0
  184.2090  178.6240  143.8910 C   0  0  1  0  0  0  0  0  0  0  0  0
  182.8130  178.8280  144.2360 C   0  0  2  0  0  3  0  0  0  0  0  0
  182.1230  178.9200  142.8880 C   0  0  0  0  0  2  0  0  0  0  0  0
  185.4470  179.2740  141.8360 C   0  0  0  0  0  2  0  0  0  0  0  0
  185.5500  179.0860  140.3630 C   0  0  0  0  0  0  0  0  0  0  0  0
  184.6880  179.6100  139.6060 O   0  0  0  0  0  0  0  0  0  0  0  0
  186.6410  178.3420  139.8190 N   0  0  0  0  0  2  0  0  0  0  0  0
  186.8530  178.1930  138.3870 C   0  0  0  0  0  2  0  0  0  0  0  0
  188.2830  177.1120  138.0690 S   0  0  0  0  0  0  0  0  0  0  0  0
  189.1570  178.3760  137.1000 C   0  0  0  0  0  2  0  0  0  0  0  0
  188.8970  179.6400  137.6300 O   0  0  0  0  0  1  0  0  0  0  0  0
  186.0680  178.6920  145.5620 C   0  0  0  0  0  2  0  0  0  0  0  0
  189.4280  177.3450  146.4570 C   0  0  0  0  0  0  0  0  0  0  0  0
  189.9270  176.9020  145.2140 C   0  0  0  0  0  0  0  0  0  0  0  0
  187.8710  177.6510  144.1820 C   0  0  0  0  0  3  0  0  0  0  0  0
  191.9350  176.1720  146.2570 C   0  0  0  0  0  3  0  0  0  0  0  0
  191.4710  176.5990  147.5040 C   0  0  0  0  0  3  0  0  0  0  0  0
  191.1620  176.3300  145.1480 N   0  0  0  0  0  0  0  0  0  0  0  0
  187.4190  178.0810  145.4330 C   0  0  0  0  0  0  0  0  0  0  0  0
  189.1320  177.0600  144.0670 C   0  0  0  0  0  0  0  0  0  0  0  0
  188.1980  177.9160  146.5360 N   0  0  0  0  0  0  0  0  0  0  0  0
  190.2100  177.1890  147.6020 C   0  0  0  0  0  3  0  0  0  0  0  0
  189.5860  176.6250  142.7720 C   0  0  0  0  0  0  0  0  0  0  0  0
  189.9510  176.2770  141.7310 N   0  0  0  0  0  0  0  0  0  0  0  0
  1 16  1  0  0  0  0
  3  4  1  0  0  0  0
  3  7  1  0  0  0  0
  4  8  1  6  0  0  0
  4  5  1  0  0  0  0
  5  6  1  0  0  0  0
  5  2  1  0  0  0  0
  5  1  1  1  0  0  0
  6  7  1  6  0  0  0
  6  2  1  0  0  0  0
  9  8  1  0  0  0  0
 10  9  2  0  0  0  0
 11  9  1  0  0  0  0
 12 11  1  0  0  0  0
 13 12  1  0  0  0  0
 14 15  1  0  0  0  0
 14 13  1  0  0  0  0
 17 25  1  0  0  0  0
 17 26  1  0  0  0  0
 18 17  2  0  0  0  0
 19 23  1  0  0  0  0
 20 21  1  0  0  0  0
 21 26  2  0  0  0  0
 22 18  1  0  0  0  0
 22 20  2  0  0  0  0
 23 16  1  0  0  0  0
 23 25  2  0  0  0  0
 24 19  2  0  0  0  0
 24 18  1  0  0  0  0
 27 24  1  0  0  0  0
 28 27  3  0  0  0  0
M  END
>  <MODEL>
4

>  <REMARK>
 VINA RESULT:      -7.5      2.385      5.367
  Name = 
  9 active torsions:
  status: ('A' for Active; 'I' for Inactive)
    1  A    between atoms: C_1  and  C_3
    2  A    between atoms: C_1  and  C_20
    3  A    between atoms: C_3  and  C_13
    4  A    between atoms: C_4  and  S_22
    5  A    between atoms: C_6  and  C_17
    6  A    between atoms: C_10  and  C_21
    7  A    between atoms: C_11  and  C_17
    8  A    between atoms: S_22  and  C_25
    9  A    between atoms: C_25  and  N_27
                            x       y       z     vdW  Elec       q    Type
                         _______ _______ _______ _____ _____    ______ ____

>  <TORSDO>
F 9

$$$$
=
 OpenBabel11042412003D

 28 31  0  0  1  0  0  0  0  0999 V2000
  186.1590  177.5440  146.3110 C   0  0  0  0  0  2  0  0  0  0  0  0
  187.7900  176.5180  147.8600 O   0  0  0  0  0  0  0  0  0  0  0  0
  189.8030  178.2380  147.0250 O   0  0  0  0  0  0  0  0  0  0  0  0
  188.7990  177.9180  146.0950 C   0  0  2  0  0  3  0  0  0  0  0  0
  187.5760  177.4740  146.8550 C   0  0  1  0  0  0  0  0  0  0  0  0
  187.7540  177.8800  148.2380 C   0  0  2  0  0  3  0  0  0  0  0  0
  189.1640  178.4400  148.2660 C   0  0  0  0  0  2  0  0  0  0  0  0
  189.2730  176.8130  145.1640 C   0  0  0  0  0  2  0  0  0  0  0  0
  188.6890  176.9910  143.8060 C   0  0  0  0  0  0  0  0  0  0  0  0
  187.7770  176.2150  143.4120 O   0  0  0  0  0  0  0  0  0  0  0  0
  189.1450  178.0600  142.9750 N   0  0  0  0  0  2  0  0  0  0  0  0
  188.5590  178.3480  141.6750 C   0  0  0  0  0  2  0  0  0  0  0  0
  189.4720  177.4760  140.3630 S   0  0  0  0  0  0  0  0  0  0  0  0
  188.4150  178.1390  139.0420 C   0  0  0  0  0  2  0  0  0  0  0  0
  189.0570  179.2080  138.4160 O   0  0  0  0  0  1  0  0  0  0  0  0
  185.8260  178.9560  145.8580 C   0  0  0  0  0  2  0  0  0  0  0  0
  182.6040  178.7670  143.9910 C   0  0  0  0  0  0  0  0  0  0  0  0
  183.0170  178.8700  142.6460 C   0  0  0  0  0  0  0  0  0  0  0  0
  185.3050  179.0230  143.4150 C   0  0  0  0  0  3  0  0  0  0  0  0
  180.7580  178.7230  141.9190 C   0  0  0  0  0  3  0  0  0  0  0  0
  180.3140  178.6190  143.2400 C   0  0  0  0  0  3  0  0  0  0  0  0
  182.0870  178.8450  141.6500 N   0  0  0  0  0  0  0  0  0  0  0  0
  184.8520  178.9110  144.7340 C   0  0  0  0  0  0  0  0  0  0  0  0
  184.3860  179.0000  142.3630 C   0  0  0  0  0  0  0  0  0  0  0  0
  183.5210  178.7920  144.9920 N   0  0  0  0  0  0  0  0  0  0  0  0
  181.2450  178.6410  144.2800 C   0  0  0  0  0  3  0  0  0  0  0  0
  184.8680  179.1120  141.0110 C   0  0  0  0  0  0  0  0  0  0  0  0
  185.2550  179.2030  139.9240 N   0  0  0  0  0  0  0  0  0  0  0  0
  2  6  1  0  0  0  0
  3  7  1  0  0  0  0
  4  8  1  6  0  0  0
  4  5  1  0  0  0  0
  4  3  1  0  0  0  0
  5  1  1  6  0  0  0
  5  2  1  0  0  0  0
  5  6  1  0  0  0  0
  6  7  1  6  0  0  0
  9  8  1  0  0  0  0
 10  9  2  0  0  0  0
 11  9  1  0  0  0  0
 12 11  1  0  0  0  0
 13 12  1  0  0  0  0
 14 13  1  0  0  0  0
 15 14  1  0  0  0  0
 16  1  1  0  0  0  0
 17 26  1  0  0  0  0
 17 25  1  0  0  0  0
 18 17  2  0  0  0  0
 19 23  1  0  0  0  0
 20 21  1  0  0  0  0
 21 26  2  0  0  0  0
 22 20  2  0  0  0  0
 22 18  1  0  0  0  0
 23 25  2  0  0  0  0
 23 16  1  0  0  0  0
 24 18  1  0  0  0  0
 24 19  2  0  0  0  0
 27 24  1  0  0  0  0
 28 27  3  0  0  0  0
M  END
>  <MODEL>
5

>  <REMARK>
 VINA RESULT:      -7.4      3.170      6.478
  Name = 
  9 active torsions:
  status: ('A' for Active; 'I' for Inactive)
    1  A    between atoms: C_1  and  C_3
    2  A    between atoms: C_1  and  C_20
    3  A    between atoms: C_3  and  C_13
    4  A    between atoms: C_4  and  S_22
    5  A    between atoms: C_6  and  C_17
    6  A    between atoms: C_10  and  C_21
    7  A    between atoms: C_11  and  C_17
    8  A    between atoms: S_22  and  C_25
    9  A    between atoms: C_25  and  N_27
                            x       y       z     vdW  Elec       q    Type
                         _______ _______ _______ _____ _____    ______ ____

>  <TORSDO>
F 9

$$$$
=
 OpenBabel11042412003D

 28 31  0  0  1  0  0  0  0  0999 V2000
  188.3050  178.2830  141.1450 C   0  0  0  0  0  2  0  0  0  0  0  0
  188.5560  179.0360  138.8030 O   0  0  0  0  0  0  0  0  0  0  0  0
  188.7190  176.4220  137.8830 O   0  0  0  0  0  0  0  0  0  0  0  0
  189.1730  176.6770  139.1880 C   0  0  2  0  0  3  0  0  0  0  0  0
  188.5130  177.9410  139.6790 C   0  0  1  0  0  0  0  0  0  0  0  0
  187.4000  178.2220  138.7890 C   0  0  2  0  0  3  0  0  0  0  0  0
  187.5330  177.1650  137.7080 C   0  0  0  0  0  2  0  0  0  0  0  0
  190.6860  176.8310  139.2010 C   0  0  0  0  0  2  0  0  0  0  0  0
  191.3090  175.9270  138.1970 C   0  0  0  0  0  0  0  0  0  0  0  0
  191.1550  174.6800  138.3000 O   0  0  0  0  0  0  0  0  0  0  0  0
  192.0470  176.4810  137.1070 N   0  0  0  0  0  2  0  0  0  0  0  0
  192.6070  175.6640  136.0410 C   0  0  0  0  0  2  0  0  0  0  0  0
  194.4030  175.9330  135.9150 S   0  0  0  0  0  0  0  0  0  0  0  0
  194.7880  174.6450  137.1370 C   0  0  0  0  0  2  0  0  0  0  0  0
  194.9440  175.2220  138.3980 O   0  0  0  0  0  1  0  0  0  0  0  0
  188.5250  177.0600  142.0190 C   0  0  0  0  0  2  0  0  0  0  0  0
  188.6430  177.4760  145.7220 C   0  0  0  0  0  0  0  0  0  0  0  0
  187.3440  177.9350  146.0260 C   0  0  0  0  0  0  0  0  0  0  0  0
  186.8070  177.8110  143.6710 C   0  0  0  0  0  3  0  0  0  0  0  0
  187.9020  178.0520  148.3340 C   0  0  0  0  0  3  0  0  0  0  0  0
  189.1980  177.5990  148.0690 C   0  0  0  0  0  3  0  0  0  0  0  0
  187.0100  178.2090  147.3190 N   0  0  0  0  0  0  0  0  0  0  0  0
  188.1030  177.3520  143.4160 C   0  0  0  0  0  0  0  0  0  0  0  0
  186.4210  178.1030  144.9820 C   0  0  0  0  0  0  0  0  0  0  0  0
  188.9890  177.2000  144.4380 N   0  0  0  0  0  0  0  0  0  0  0  0
  189.5680  177.3100  146.7550 C   0  0  0  0  0  3  0  0  0  0  0  0
  185.0820  178.5700  145.2290 C   0  0  0  0  0  0  0  0  0  0  0  0
  184.0060  178.9460  145.4300 N   0  0  0  0  0  0  0  0  0  0  0  0
  1 16  1  0  0  0  0
  2  5  1  0  0  0  0
  3  4  1  0  0  0  0
  4  8  1  6  0  0  0
  4  5  1  0  0  0  0
  5  1  1  1  0  0  0
  6  7  1  6  0  0  0
  6  2  1  0  0  0  0
  6  5  1  0  0  0  0
  7  3  1  0  0  0  0
  9 10  2  0  0  0  0
  9  8  1  0  0  0  0
 11  9  1  0  0  0  0
 12 11  1  0  0  0  0
 13 12  1  0  0  0  0
 13 14  1  0  0  0  0
 14 15  1  0  0  0  0
 16 23  1  0  0  0  0
 17 18  1  0  0  0  0
 17 26  1  0  0  0  0
 18 22  1  0  0  0  0
 19 24  1  0  0  0  0
 21 20  1  0  0  0  0
 22 20  2  0  0  0  0
 23 19  2  0  0  0  0
 23 25  1  0  0  0  0
 24 27  1  0  0  0  0
 24 18  2  0  0  0  0
 25 17  2  0  0  0  0
 26 21  2  0  0  0  0
 27 28  3  0  0  0  0
M  END
>  <MODEL>
6

>  <REMARK>
 VINA RESULT:      -7.4      2.844      4.555
  Name = 
  9 active torsions:
  status: ('A' for Active; 'I' for Inactive)
    1  A    between atoms: C_1  and  C_3
    2  A    between atoms: C_1  and  C_20
    3  A    between atoms: C_3  and  C_13
    4  A    between atoms: C_4  and  S_22
    5  A    between atoms: C_6  and  C_17
    6  A    between atoms: C_10  and  C_21
    7  A    between atoms: C_11  and  C_17
    8  A    between atoms: S_22  and  C_25
    9  A    between atoms: C_25  and  N_27
                            x       y       z     vdW  Elec       q    Type
                         _______ _______ _______ _____ _____    ______ ____

>  <TORSDO>
F 9

$$$$
=
 OpenBabel11042412003D

 28 31  0  0  1  0  0  0  0  0999 V2000
  186.0410  177.8480  146.2660 C   0  0  0  0  0  2  0  0  0  0  0  0
  188.0190  176.4840  146.8480 O   0  0  0  0  0  0  0  0  0  0  0  0
  189.6140  177.8570  145.0390 O   0  0  0  0  0  0  0  0  0  0  0  0
  188.2420  177.7600  144.7480 C   0  0  2  0  0  3  0  0  0  0  0  0
  187.5030  177.5060  146.0370 C   0  0  1  0  0  0  0  0  0  0  0  0
  188.4140  177.8130  147.1250 C   0  0  2  0  0  3  0  0  0  0  0  0
  189.7230  178.1150  146.4210 C   0  0  0  0  0  2  0  0  0  0  0  0
  187.9890  176.6300  143.7610 C   0  0  0  0  0  2  0  0  0  0  0  0
  188.8010  176.8260  142.5290 C   0  0  0  0  0  0  0  0  0  0  0  0
  189.9000  176.2200  142.4030 O   0  0  0  0  0  0  0  0  0  0  0  0
  188.3130  177.6720  141.4870 N   0  0  0  0  0  2  0  0  0  0  0  0
  189.0090  177.8390  140.2200 C   0  0  0  0  0  2  0  0  0  0  0  0
  187.8250  177.7910  138.8370 S   0  0  0  0  0  0  0  0  0  0  0  0
  189.0550  178.3600  137.6270 C   0  0  0  0  0  2  0  0  0  0  0  0
  189.0550  179.7540  137.5720 O   0  0  0  0  0  1  0  0  0  0  0  0
  185.7160  179.2240  145.7070 C   0  0  0  0  0  2  0  0  0  0  0  0
  184.4330  178.9800  142.2150 C   0  0  0  0  0  0  0  0  0  0  0  0
  183.0440  178.8170  142.4040 C   0  0  0  0  0  0  0  0  0  0  0  0
  183.4100  178.9310  144.7930 C   0  0  0  0  0  3  0  0  0  0  0  0
  182.7160  178.7040  140.0520 C   0  0  0  0  0  3  0  0  0  0  0  0
  184.0860  178.8640  139.8280 C   0  0  0  0  0  3  0  0  0  0  0  0
  182.2260  178.6850  141.3210 N   0  0  0  0  0  0  0  0  0  0  0  0
  184.7780  179.0970  144.5590 C   0  0  0  0  0  0  0  0  0  0  0  0
  182.5340  178.7930  143.7120 C   0  0  0  0  0  0  0  0  0  0  0  0
  185.2580  179.1120  143.2850 N   0  0  0  0  0  0  0  0  0  0  0  0
  184.9470  179.0020  140.9180 C   0  0  0  0  0  3  0  0  0  0  0  0
  181.1280  178.6270  143.9680 C   0  0  0  0  0  0  0  0  0  0  0  0
  179.9970  178.4930  144.1730 N   0  0  0  0  0  0  0  0  0  0  0  0
  2  6  1  0  0  0  0
  3  7  1  0  0  0  0
  4  8  1  6  0  0  0
  4  3  1  0  0  0  0
  4  5  1  0  0  0  0
  5  1  1  1  0  0  0
  5  2  1  0  0  0  0
  5  6  1  0  0  0  0
  6  7  1  6  0  0  0
  9  8  1  0  0  0  0
 10  9  2  0  0  0  0
 11  9  1  0  0  0  0
 12 11  1  0  0  0  0
 13 12  1  0  0  0  0
 14 13  1  0  0  0  0
 15 14  1  0  0  0  0
 16  1  1  0  0  0  0
 17 18  1  0  0  0  0
 17 25  1  0  0  0  0
 18 24  1  0  0  0  0
 20 22  1  0  0  0  0
 21 20  2  0  0  0  0
 21 26  1  0  0  0  0
 22 18  2  0  0  0  0
 23 19  1  0  0  0  0
 23 16  1  0  0  0  0
 24 27  1  0  0  0  0
 24 19  2  0  0  0  0
 25 23  2  0  0  0  0
 26 17  2  0  0  0  0
 27 28  3  0  0  0  0
M  END
>  <MODEL>
7

>  <REMARK>
 VINA RESULT:      -7.2      2.694      5.786
  Name = 
  9 active torsions:
  status: ('A' for Active; 'I' for Inactive)
    1  A    between atoms: C_1  and  C_3
    2  A    between atoms: C_1  and  C_20
    3  A    between atoms: C_3  and  C_13
    4  A    between atoms: C_4  and  S_22
    5  A    between atoms: C_6  and  C_17
    6  A    between atoms: C_10  and  C_21
    7  A    between atoms: C_11  and  C_17
    8  A    between atoms: S_22  and  C_25
    9  A    between atoms: C_25  and  N_27
                            x       y       z     vdW  Elec       q    Type
                         _______ _______ _______ _____ _____    ______ ____

>  <TORSDO>
F 9

$$$$
=
 OpenBabel11042412003D

 28 31  0  0  1  0  0  0  0  0999 V2000
  187.9160  176.8150  143.0420 C   0  0  0  0  0  2  0  0  0  0  0  0
  189.0970  178.4940  141.6650 O   0  0  0  0  0  0  0  0  0  0  0  0
  191.5430  177.2440  142.0710 O   0  0  0  0  0  0  0  0  0  0  0  0
  190.5750  177.1160  143.0820 C   0  0  2  0  0  3  0  0  0  0  0  0
  189.2180  177.3520  142.4700 C   0  0  1  0  0  0  0  0  0  0  0  0
  189.3720  177.2620  141.0290 C   0  0  2  0  0  3  0  0  0  0  0  0
  190.8690  177.1070  140.8390 C   0  0  0  0  0  2  0  0  0  0  0  0
  190.8350  178.1210  144.1940 C   0  0  0  0  0  2  0  0  0  0  0  0
  190.6350  177.4860  145.5260 C   0  0  0  0  0  0  0  0  0  0  0  0
  191.5840  176.8560  146.0650 O   0  0  0  0  0  0  0  0  0  0  0  0
  189.3800  177.6240  146.1930 N   0  0  0  0  0  2  0  0  0  0  0  0
  189.1420  177.1070  147.5330 C   0  0  0  0  0  2  0  0  0  0  0  0
  188.0590  178.2370  148.4630 S   0  0  0  0  0  0  0  0  0  0  0  0
  186.7490  178.1850  147.2040 C   0  0  0  0  0  2  0  0  0  0  0  0
  185.9240  179.3020  147.3350 O   0  0  0  0  0  1  0  0  0  0  0  0
  187.2020  177.8850  143.8500 C   0  0  0  0  0  2  0  0  0  0  0  0
  183.5480  178.5470  143.5130 C   0  0  0  0  0  0  0  0  0  0  0  0
  183.3970  178.7670  142.1280 C   0  0  0  0  0  0  0  0  0  0  0  0
  185.7730  178.3960  141.8650 C   0  0  0  0  0  3  0  0  0  0  0  0
  181.0660  179.1320  142.4180 C   0  0  0  0  0  3  0  0  0  0  0  0
  181.1790  178.9200  143.7950 C   0  0  0  0  0  3  0  0  0  0  0  0
  182.1650  179.0530  141.6200 N   0  0  0  0  0  0  0  0  0  0  0  0
  185.8750  178.1780  143.2420 C   0  0  0  0  0  0  0  0  0  0  0  0
  184.5290  178.6900  141.3010 C   0  0  0  0  0  0  0  0  0  0  0  0
  184.7710  178.2630  144.0320 N   0  0  0  0  0  0  0  0  0  0  0  0
  182.4290  178.6250  144.3430 C   0  0  0  0  0  3  0  0  0  0  0  0
  184.4380  178.9080  139.8810 C   0  0  0  0  0  0  0  0  0  0  0  0
  184.3640  179.0820  138.7390 N   0  0  0  0  0  0  0  0  0  0  0  0
  1 16  1  0  0  0  0
  2  5  1  0  0  0  0
  3  4  1  0  0  0  0
  4  8  1  1  0  0  0
  5  1  1  1  0  0  0
  5  4  1  0  0  0  0
  6  7  1  1  0  0  0
  6  2  1  0  0  0  0
  6  5  1  0  0  0  0
  7  3  1  0  0  0  0
  8  9  1  0  0  0  0
  9 10  2  0  0  0  0
  9 11  1  0  0  0  0
 11 12  1  0  0  0  0
 12 13  1  0  0  0  0
 14 15  1  0  0  0  0
 14 13  1  0  0  0  0
 17 25  1  0  0  0  0
 17 26  1  0  0  0  0
 18 17  2  0  0  0  0
 19 23  1  0  0  0  0
 20 21  1  0  0  0  0
 21 26  2  0  0  0  0
 22 18  1  0  0  0  0
 22 20  2  0  0  0  0
 23 16  1  0  0  0  0
 23 25  2  0  0  0  0
 24 19  2  0  0  0  0
 24 18  1  0  0  0  0
 27 24  1  0  0  0  0
 28 27  3  0  0  0  0
M  END
>  <MODEL>
8

>  <REMARK>
 VINA RESULT:      -7.2      3.577      6.458
  Name = 
  9 active torsions:
  status: ('A' for Active; 'I' for Inactive)
    1  A    between atoms: C_1  and  C_3
    2  A    between atoms: C_1  and  C_20
    3  A    between atoms: C_3  and  C_13
    4  A    between atoms: C_4  and  S_22
    5  A    between atoms: C_6  and  C_17
    6  A    between atoms: C_10  and  C_21
    7  A    between atoms: C_11  and  C_17
    8  A    between atoms: S_22  and  C_25
    9  A    between atoms: C_25  and  N_27
                            x       y       z     vdW  Elec       q    Type
                         _______ _______ _______ _____ _____    ______ ____

>  <TORSDO>
F 9

$$$$
=
 OpenBabel11042412003D

 28 31  0  0  1  0  0  0  0  0999 V2000
  182.9270  178.4400  144.2390 C   0  0  0  0  0  2  0  0  0  0  0  0
  181.6540  179.9700  142.7720 O   0  0  0  0  0  0  0  0  0  0  0  0
  182.0660  178.3420  140.5610 O   0  0  0  0  0  0  0  0  0  0  0  0
  183.0470  178.3250  141.5690 C   0  0  2  0  0  3  0  0  0  0  0  0
  182.4110  178.7910  142.8530 C   0  0  1  0  0  0  0  0  0  0  0  0
  180.9720  178.7360  142.6690 C   0  0  2  0  0  3  0  0  0  0  0  0
  180.8130  178.3590  141.2080 C   0  0  0  0  0  2  0  0  0  0  0  0
  184.2070  179.2340  141.1920 C   0  0  0  0  0  2  0  0  0  0  0  0
  184.4150  179.2270  139.7180 C   0  0  0  0  0  0  0  0  0  0  0  0
  184.2320  180.2850  139.0580 O   0  0  0  0  0  0  0  0  0  0  0  0
  184.8510  178.0310  139.0710 N   0  0  0  0  0  2  0  0  0  0  0  0
  185.1590  177.9750  137.6500 C   0  0  0  0  0  2  0  0  0  0  0  0
  186.6530  176.9720  137.3660 S   0  0  0  0  0  0  0  0  0  0  0  0
  187.6520  177.9400  138.5350 C   0  0  0  0  0  2  0  0  0  0  0  0
  188.6270  177.1240  139.1110 O   0  0  0  0  0  1  0  0  0  0  0  0
  183.9020  179.4950  144.7340 C   0  0  0  0  0  2  0  0  0  0  0  0
  186.7770  178.4260  146.8530 C   0  0  0  0  0  0  0  0  0  0  0  0
  187.5300  177.6190  145.9730 C   0  0  0  0  0  0  0  0  0  0  0  0
  185.8860  178.0540  144.2530 C   0  0  0  0  0  3  0  0  0  0  0  0
  189.1260  177.2050  147.6860 C   0  0  0  0  0  3  0  0  0  0  0  0
  188.4060  177.9970  148.5830 C   0  0  0  0  0  3  0  0  0  0  0  0
  188.6800  177.0330  146.4120 N   0  0  0  0  0  0  0  0  0  0  0  0
  185.1750  178.8510  145.1560 C   0  0  0  0  0  0  0  0  0  0  0  0
  187.0710  177.4350  144.6590 C   0  0  0  0  0  0  0  0  0  0  0  0
  185.6290  179.0140  146.4290 N   0  0  0  0  0  0  0  0  0  0  0  0
  187.2250  178.6100  148.1620 C   0  0  0  0  0  3  0  0  0  0  0  0
  187.7940  176.6220  143.7170 C   0  0  0  0  0  0  0  0  0  0  0  0
  188.3750  175.9660  142.9610 N   0  0  0  0  0  0  0  0  0  0  0  0
  1 16  1  0  0  0  0
  2  5  1  0  0  0  0
  3  7  1  0  0  0  0
  3  4  1  0  0  0  0
  4  8  1  6  0  0  0
  4  5  1  0  0  0  0
  5  1  1  1  0  0  0
  6  7  1  6  0  0  0
  6  2  1  0  0  0  0
  6  5  1  0  0  0  0
  9  8  1  0  0  0  0
 10  9  2  0  0  0  0
 11  9  1  0  0  0  0
 12 11  1  0  0  0  0
 13 12  1  0  0  0  0
 13 14  1  0  0  0  0
 14 15  1  0  0  0  0
 16 23  1  0  0  0  0
 17 26  1  0  0  0  0
 18 22  1  0  0  0  0
 18 17  2  0  0  0  0
 19 24  2  0  0  0  0
 19 23  1  0  0  0  0
 20 21  1  0  0  0  0
 22 20  2  0  0  0  0
 23 25  2  0  0  0  0
 24 18  1  0  0  0  0
 25 17  1  0  0  0  0
 26 21  2  0  0  0  0
 27 24  1  0  0  0  0
 28 27  3  0  0  0  0
M  END
>  <MODEL>
9

>  <REMARK>
 VINA RESULT:      -7.2      2.289      5.537
  Name = 
  9 active torsions:
  status: ('A' for Active; 'I' for Inactive)
    1  A    between atoms: C_1  and  C_3
    2  A    between atoms: C_1  and  C_20
    3  A    between atoms: C_3  and  C_13
    4  A    between atoms: C_4  and  S_22
    5  A    between atoms: C_6  and  C_17
    6  A    between atoms: C_10  and  C_21
    7  A    between atoms: C_11  and  C_17
    8  A    between atoms: S_22  and  C_25
    9  A    between atoms: C_25  and  N_27
                            x       y       z     vdW  Elec       q    Type
                         _______ _______ _______ _____ _____    ______ ____

>  <TORSDO>
F 9

$$$$
