=
 OpenBabel11042413293D

 56 60  0  0  1  0  0  0  0  0999 V2000
  182.4560  176.3910  139.5570 O   0  0  0  0  0  0  0  0  0  0  0  0
  180.5760  177.6400  140.5860 C   0  0  1  0  0  3  0  0  0  0  0  0
  180.2670  178.4220  139.3020 C   0  0  2  0  0  3  0  0  0  0  0  0
  181.6500  179.2590  142.5340 C   0  0  1  0  0  3  0  0  0  0  0  0
  178.9440  178.8620  139.3170 O   0  0  0  0  0  1  0  0  0  0  0  0
  183.0060  178.3190  140.8480 C   0  0  1  0  0  3  0  0  0  0  0  0
  182.0350  177.1430  140.6790 C   0  0  2  0  0  3  0  0  0  0  0  0
  182.4720  179.5070  141.4110 O   0  0  0  0  0  0  0  0  0  0  0  0
  180.5060  177.6260  137.9960 C   0  0  2  0  0  3  0  0  0  0  0  0
  181.4390  175.4970  139.1860 C   0  0  0  0  0  2  0  0  0  0  0  0
  180.5840  176.0850  138.0520 C   0  0  0  0  0  2  0  0  0  0  0  0
  180.0430  178.5060  142.1050 S   0  0  0  0  0  0  0  0  0  0  0  0
  183.2930  179.1150  144.4440 C   0  0  0  0  0  0  0  0  0  0  0  0
  182.3340  178.5060  143.5770 N   0  0  0  0  0  2  0  0  0  0  0  0
  183.6970  180.2890  144.2320 O   0  0  0  0  0  0  0  0  0  0  0  0
  183.8000  178.3640  145.6280 C   0  0  0  0  0  2  0  0  0  0  0  0
  187.2960  177.6670  144.3500 C   0  0  0  0  0  3  0  0  0  0  0  0
  188.0740  177.9840  145.4740 C   0  0  0  0  0  0  0  0  0  0  0  0
  185.9060  177.7990  144.3970 C   0  0  0  0  0  3  0  0  0  0  0  0
  187.4510  178.4490  146.6380 C   0  0  0  0  0  3  0  0  0  0  0  0
  186.0600  178.5820  146.6840 C   0  0  0  0  0  3  0  0  0  0  0  0
  185.2860  178.2590  145.5640 C   0  0  0  0  0  0  0  0  0  0  0  0
  189.5670  177.8640  145.4480 C   0  0  2  0  0  3  0  0  0  0  0  0
  190.8080  178.2590  143.3640 N   0  0  0  0  0  0  0  0  0  0  0  0
  190.3580  176.2510  142.1990 C   0  0  0  0  0  3  0  0  0  0  0  0
  189.7490  176.2990  143.4760 O   0  0  0  0  0  0  0  0  0  0  0  0
  190.0500  177.5010  144.0740 C   0  0  0  0  0  0  0  0  0  0  0  0
  191.1090  177.5830  142.1080 C   0  0  0  0  0  3  0  0  0  0  0  0
  190.0640  176.9000  146.5190 C   0  0  0  0  0  2  0  0  0  0  0  0
  191.5760  176.7690  146.4600 C   0  0  0  0  0  2  0  0  0  0  0  0
  192.0080  175.4240  147.0200 C   0  0  0  0  0  2  0  0  0  0  0  0
  192.6930  176.9560  148.8000 N   0  0  0  0  0  1  0  0  0  0  0  0
  192.7610  175.5830  148.3350 C   0  0  0  0  0  2  0  0  0  0  0  0
  180.9520  179.5410  136.3620 C   0  0  0  0  0  1  0  0  0  0  0  0
  181.4810  178.2600  136.9950 C   0  0  2  0  0  3  0  0  0  0  0  0
  181.9650  177.2630  135.9410 C   0  0  1  0  0  3  0  0  0  0  0  0
  181.1740  177.3430  134.7840 O   0  0  0  0  0  1  0  0  0  0  0  0
  183.3650  177.5270  135.6180 N   0  0  0  0  0  2  0  0  0  0  0  0
  183.8310  176.5070  134.6900 C   0  0  0  0  0  2  0  0  0  0  0  0
  184.6900  175.4770  135.4080 C   0  0  0  0  0  2  0  0  0  0  0  0
  185.9490  175.3480  134.8010 O   0  0  0  0  0  0  0  0  0  0  0  0
  189.0240  175.7890  136.9660 C   0  0  0  0  0  0  0  0  0  0  0  0
  188.7060  174.7120  134.8560 O   0  0  0  0  0  1  0  0  0  0  0  0
  187.2610  177.3770  134.9670 C   0  0  0  0  0  2  0  0  0  0  0  0
  188.5890  176.5740  138.1830 C   0  0  0  0  0  2  0  0  0  0  0  0
  187.8290  178.6260  136.7910 C   0  0  1  0  0  3  0  0  0  0  0  0
  187.5000  173.8790  136.7160 C   0  0  0  0  0  1  0  0  0  0  0  0
  190.2240  175.6560  136.7760 O   0  0  0  0  0  0  0  0  0  0  0  0
  188.3320  178.0000  135.6340 O   0  0  0  0  0  0  0  0  0  0  0  0
  187.5040  177.6220  137.9130 C   0  0  0  0  0  2  0  0  0  0  0  0
  188.0400  175.1170  136.0170 C   0  0  1  0  0  0  0  0  0  0  0  0
  186.8580  176.0340  135.6220 C   0  0  2  0  0  3  0  0  0  0  0  0
  188.7610  179.5520  137.2550 O   0  0  0  0  0  1  0  0  0  0  0  0
  184.3290  177.9010  141.4830 C   0  0  0  0  0  2  0  0  0  0  0  0
  185.4820  178.6990  140.8990 C   0  0  0  0  0  2  0  0  0  0  0  0
  185.7510  179.8060  141.7070 O   0  0  0  0  0  1  0  0  0  0  0  0
  2  7  1  0  0  0  0
  2 12  1  1  0  0  0
  3  5  1  1  0  0  0
  3  2  1  0  0  0  0
  4 14  1  1  0  0  0
  6  8  1  0  0  0  0
  6 54  1  1  0  0  0
  7  1  1  6  0  0  0
  7  6  1  0  0  0  0
  8  4  1  0  0  0  0
  9 35  1  1  0  0  0
  9 11  1  0  0  0  0
  9  3  1  0  0  0  0
 10  1  1  0  0  0  0
 11 10  1  0  0  0  0
 12  4  1  0  0  0  0
 13 16  1  0  0  0  0
 14 13  1  0  0  0  0
 15 13  2  0  0  0  0
 17 19  2  0  0  0  0
 17 18  1  0  0  0  0
 18 20  2  0  0  0  0
 19 22  1  0  0  0  0
 20 21  1  0  0  0  0
 22 16  1  0  0  0  0
 22 21  2  0  0  0  0
 23 18  1  0  0  0  0
 23 29  1  1  0  0  0
 24 27  2  0  0  0  0
 25 26  1  0  0  0  0
 26 27  1  0  0  0  0
 27 23  1  0  0  0  0
 28 25  2  0  0  0  0
 28 24  1  0  0  0  0
 30 29  1  0  0  0  0
 30 31  1  0  0  0  0
 31 33  1  0  0  0  0
 33 32  1  0  0  0  0
 35 34  1  6  0  0  0
 36 37  1  6  0  0  0
 36 35  1  0  0  0  0
 38 36  1  0  0  0  0
 39 40  1  0  0  0  0
 39 38  1  0  0  0  0
 41 40  1  0  0  0  0
 42 45  1  0  0  0  0
 43 51  1  0  0  0  0
 44 52  1  0  0  0  0
 44 49  1  0  0  0  0
 46 53  1  1  0  0  0
 46 50  1  0  0  0  0
 48 42  2  0  0  0  0
 49 46  1  0  0  0  0
 50 45  1  0  0  0  0
 51 47  1  1  0  0  0
 51 42  1  0  0  0  0
 52 41  1  6  0  0  0
 52 51  1  0  0  0  0
 55 54  1  0  0  0  0
 55 56  1  0  0  0  0
M  END
>  <MODEL>
1

>  <REMARK>
 VINA RESULT:      -7.7      0.000      0.000
  Name = 
  18 active torsions:
  status: ('A' for Active; 'I' for Inactive)
    1  A    between atoms: C_5  and  C_31
    2  A    between atoms: N_7  and  C_29
    3  A    between atoms: C_11  and  C_27
    4  A    between atoms: C_12  and  C_33
    5  A    between atoms: C_12  and  N_50
    6  A    between atoms: C_16  and  N_50
    7  A    between atoms: C_16  and  C_53
    8  A    between atoms: C_19  and  C_22
    9  A    between atoms: C_19  and  C_38
   10  A    between atoms: C_22  and  C_37
   11  A    between atoms: C_25  and  C_37
   12  A    between atoms: C_27  and  C_41
   13  A    between atoms: C_31  and  C_52
   14  A    between atoms: C_32  and  C_37
   15  A    between atoms: C_33  and  C_46
   16  A    between atoms: C_38  and  C_42
   17  A    between atoms: C_47  and  O_56
   18  A    between atoms: C_53  and  O_56
                            x       y       z     vdW  Elec       q    Type
                         _______ _______ _______ _____ _____    ______ ____

>  <TORSDO>
F 18

$$$$
=
 OpenBabel11042413293D

 56 60  0  0  1  0  0  0  0  0999 V2000
  182.5100  176.9890  140.1190 O   0  0  0  0  0  0  0  0  0  0  0  0
  180.9650  178.2510  141.5940 C   0  0  1  0  0  3  0  0  0  0  0  0
  180.5600  179.2340  140.4870 C   0  0  2  0  0  3  0  0  0  0  0  0
  182.5020  179.4650  143.5270 C   0  0  1  0  0  3  0  0  0  0  0  0
  179.3150  179.7920  140.7750 O   0  0  0  0  0  1  0  0  0  0  0  0
  183.4700  178.6510  141.5350 C   0  0  1  0  0  3  0  0  0  0  0  0
  182.3540  177.6090  141.3820 C   0  0  2  0  0  3  0  0  0  0  0  0
  183.1680  179.7920  142.3240 O   0  0  0  0  0  0  0  0  0  0  0  0
  180.5060  178.6140  139.0700 C   0  0  2  0  0  3  0  0  0  0  0  0
  181.3520  176.2580  139.8110 C   0  0  0  0  0  2  0  0  0  0  0  0
  180.4110  177.0800  138.9180 C   0  0  0  0  0  2  0  0  0  0  0  0
  180.7710  178.9380  143.2770 S   0  0  0  0  0  0  0  0  0  0  0  0
  184.3070  178.9140  145.2010 C   0  0  0  0  0  0  0  0  0  0  0  0
  183.2420  178.5090  144.3400 N   0  0  0  0  0  2  0  0  0  0  0  0
  184.7470  180.0950  145.1690 O   0  0  0  0  0  0  0  0  0  0  0  0
  184.8850  177.9390  146.1700 C   0  0  0  0  0  2  0  0  0  0  0  0
  188.6550  177.8760  146.5230 C   0  0  0  0  0  3  0  0  0  0  0  0
  189.0460  177.3810  145.2690 C   0  0  0  0  0  0  0  0  0  0  0  0
  187.3000  178.0490  146.8190 C   0  0  0  0  0  3  0  0  0  0  0  0
  188.0690  177.0470  144.3220 C   0  0  0  0  0  3  0  0  0  0  0  0
  186.7140  177.2190  144.6200 C   0  0  0  0  0  3  0  0  0  0  0  0
  186.3280  177.7190  145.8690 C   0  0  0  0  0  0  0  0  0  0  0  0
  190.4890  177.1730  144.9270 C   0  0  2  0  0  3  0  0  0  0  0  0
  191.9360  175.5940  146.1330 N   0  0  0  0  0  0  0  0  0  0  0  0
  192.1250  176.6820  148.2240 C   0  0  0  0  0  3  0  0  0  0  0  0
  191.3220  177.3930  147.3010 O   0  0  0  0  0  0  0  0  0  0  0  0
  191.2550  176.6850  146.1230 C   0  0  0  0  0  0  0  0  0  0  0  0
  192.5750  175.4490  147.4350 C   0  0  0  0  0  3  0  0  0  0  0  0
  191.0990  178.4270  144.3120 C   0  0  0  0  0  2  0  0  0  0  0  0
  191.8040  178.0930  143.0070 C   0  0  0  0  0  2  0  0  0  0  0  0
  191.1710  176.8690  142.3680 C   0  0  0  0  0  2  0  0  0  0  0  0
  190.8910  176.8620  139.9380 N   0  0  0  0  0  1  0  0  0  0  0  0
  190.2770  177.2500  141.1950 C   0  0  0  0  0  2  0  0  0  0  0  0
  181.4570  180.8050  138.1550 C   0  0  0  0  0  1  0  0  0  0  0  0
  181.3860  179.2890  138.0100 C   0  0  2  0  0  3  0  0  0  0  0  0
  181.0100  178.8720  136.5870 C   0  0  1  0  0  3  0  0  0  0  0  0
  180.5690  179.9790  135.8470 O   0  0  0  0  0  1  0  0  0  0  0  0
  182.1610  178.2500  135.9360 N   0  0  0  0  0  2  0  0  0  0  0  0
  181.8400  176.8600  135.6480 C   0  0  0  0  0  2  0  0  0  0  0  0
  183.0620  175.9730  135.8410 C   0  0  0  0  0  2  0  0  0  0  0  0
  184.1950  176.5200  135.2180 O   0  0  0  0  0  0  0  0  0  0  0  0
  187.5580  176.1740  136.9220 C   0  0  0  0  0  0  0  0  0  0  0  0
  185.6540  177.5290  137.4220 O   0  0  0  0  0  1  0  0  0  0  0  0
  184.8370  174.7030  136.6850 C   0  0  0  0  0  2  0  0  0  0  0  0
  188.3380  175.1420  136.1380 C   0  0  0  0  0  2  0  0  0  0  0  0
  186.6040  173.2620  136.5690 C   0  0  1  0  0  3  0  0  0  0  0  0
  186.7290  177.8580  135.3380 C   0  0  0  0  0  1  0  0  0  0  0  0
  187.9980  176.5080  138.0120 O   0  0  0  0  0  0  0  0  0  0  0  0
  185.8980  174.1390  137.4160 O   0  0  0  0  0  0  0  0  0  0  0  0
  187.4890  174.0080  135.5530 C   0  0  0  0  0  2  0  0  0  0  0  0
  186.3000  176.8450  136.3870 C   0  0  1  0  0  0  0  0  0  0  0  0
  185.3040  175.8450  135.7510 C   0  0  2  0  0  3  0  0  0  0  0  0
  187.3980  172.4160  137.3410 O   0  0  0  0  0  1  0  0  0  0  0  0
  184.8150  178.0230  141.8850 C   0  0  0  0  0  2  0  0  0  0  0  0
  185.9490  179.0000  141.6300 C   0  0  0  0  0  2  0  0  0  0  0  0
  186.3390  178.9350  140.2900 O   0  0  0  0  0  1  0  0  0  0  0  0
  2 12  1  1  0  0  0
  3  5  1  1  0  0  0
  3  2  1  0  0  0  0
  4 14  1  6  0  0  0
  6 54  1  1  0  0  0
  6  8  1  0  0  0  0
  7  1  1  6  0  0  0
  7  6  1  0  0  0  0
  7  2  1  0  0  0  0
  8  4  1  0  0  0  0
  9 35  1  6  0  0  0
  9  3  1  0  0  0  0
 10  1  1  0  0  0  0
 11  9  1  0  0  0  0
 11 10  1  0  0  0  0
 12  4  1  0  0  0  0
 13 16  1  0  0  0  0
 14 13  1  0  0  0  0
 15 13  2  0  0  0  0
 17 19  1  0  0  0  0
 18 17  2  0  0  0  0
 20 21  2  0  0  0  0
 20 18  1  0  0  0  0
 21 22  1  0  0  0  0
 22 16  1  0  0  0  0
 22 19  2  0  0  0  0
 23 29  1  1  0  0  0
 23 18  1  0  0  0  0
 23 27  1  0  0  0  0
 24 28  1  0  0  0  0
 26 25  1  0  0  0  0
 27 24  2  0  0  0  0
 27 26  1  0  0  0  0
 28 25  2  0  0  0  0
 30 29  1  0  0  0  0
 31 30  1  0  0  0  0
 32 33  1  0  0  0  0
 33 31  1  0  0  0  0
 35 34  1  6  0  0  0
 36 37  1  6  0  0  0
 36 35  1  0  0  0  0
 38 36  1  0  0  0  0
 39 40  1  0  0  0  0
 39 38  1  0  0  0  0
 41 40  1  0  0  0  0
 42 48  2  0  0  0  0
 44 49  1  0  0  0  0
 45 42  1  0  0  0  0
 46 53  1  1  0  0  0
 46 49  1  0  0  0  0
 50 45  1  0  0  0  0
 50 46  1  0  0  0  0
 51 47  1  6  0  0  0
 51 42  1  0  0  0  0
 51 43  1  0  0  0  0
 52 41  1  1  0  0  0
 52 51  1  0  0  0  0
 52 44  1  0  0  0  0
 55 54  1  0  0  0  0
 56 55  1  0  0  0  0
M  END
>  <MODEL>
2

>  <REMARK>
 VINA RESULT:      -7.6      1.669      3.299
  Name = 
  18 active torsions:
  status: ('A' for Active; 'I' for Inactive)
    1  A    between atoms: C_5  and  C_31
    2  A    between atoms: N_7  and  C_29
    3  A    between atoms: C_11  and  C_27
    4  A    between atoms: C_12  and  C_33
    5  A    between atoms: C_12  and  N_50
    6  A    between atoms: C_16  and  N_50
    7  A    between atoms: C_16  and  C_53
    8  A    between atoms: C_19  and  C_22
    9  A    between atoms: C_19  and  C_38
   10  A    between atoms: C_22  and  C_37
   11  A    between atoms: C_25  and  C_37
   12  A    between atoms: C_27  and  C_41
   13  A    between atoms: C_31  and  C_52
   14  A    between atoms: C_32  and  C_37
   15  A    between atoms: C_33  and  C_46
   16  A    between atoms: C_38  and  C_42
   17  A    between atoms: C_47  and  O_56
   18  A    between atoms: C_53  and  O_56
                            x       y       z     vdW  Elec       q    Type
                         _______ _______ _______ _____ _____    ______ ____

>  <TORSDO>
F 18

$$$$
=
 OpenBabel11042413293D

 56 60  0  0  1  0  0  0  0  0999 V2000
  182.5400  176.4030  139.7800 O   0  0  0  0  0  0  0  0  0  0  0  0
  180.6850  177.7630  140.7120 C   0  0  1  0  0  3  0  0  0  0  0  0
  180.4500  178.5160  139.3950 C   0  0  2  0  0  3  0  0  0  0  0  0
  181.7700  179.3950  142.6430 C   0  0  1  0  0  3  0  0  0  0  0  0
  179.1470  179.0120  139.3550 O   0  0  0  0  0  1  0  0  0  0  0  0
  183.1340  178.3460  141.0290 C   0  0  1  0  0  3  0  0  0  0  0  0
  182.1180  177.2070  140.8660 C   0  0  2  0  0  3  0  0  0  0  0  0
  182.6350  179.5730  141.5390 O   0  0  0  0  0  0  0  0  0  0  0  0
  180.6930  177.6700  138.1220 C   0  0  2  0  0  3  0  0  0  0  0  0
  181.4960  175.5420  139.4050 C   0  0  0  0  0  2  0  0  0  0  0  0
  180.7030  176.1290  138.2280 C   0  0  0  0  0  2  0  0  0  0  0  0
  180.1450  178.6980  142.1860 S   0  0  0  0  0  0  0  0  0  0  0  0
  183.3710  179.2320  144.5860 C   0  0  0  0  0  0  0  0  0  0  0  0
  182.3880  178.6470  143.7290 N   0  0  0  0  0  2  0  0  0  0  0  0
  183.8510  180.3690  144.3320 O   0  0  0  0  0  0  0  0  0  0  0  0
  183.8110  178.5030  145.8100 C   0  0  0  0  0  2  0  0  0  0  0  0
  187.4770  178.3920  146.7530 C   0  0  0  0  0  3  0  0  0  0  0  0
  188.0470  177.8390  145.5960 C   0  0  0  0  0  0  0  0  0  0  0  0
  186.0970  178.6000  146.8260 C   0  0  0  0  0  3  0  0  0  0  0  0
  187.2240  177.4820  144.5210 C   0  0  0  0  0  3  0  0  0  0  0  0
  185.8430  177.6890  144.5960 C   0  0  0  0  0  3  0  0  0  0  0  0
  185.2780  178.2470  145.7480 C   0  0  0  0  0  0  0  0  0  0  0  0
  189.5210  177.5930  145.4940 C   0  0  2  0  0  3  0  0  0  0  0  0
  190.6500  176.4710  143.6200 N   0  0  0  0  0  0  0  0  0  0  0  0
  190.1000  177.9280  141.8410 C   0  0  0  0  0  3  0  0  0  0  0  0
  189.5610  178.3430  143.0830 O   0  0  0  0  0  0  0  0  0  0  0  0
  189.9400  177.4500  144.0590 C   0  0  0  0  0  0  0  0  0  0  0  0
  190.8370  176.6310  142.1840 C   0  0  0  0  0  3  0  0  0  0  0  0
  189.9450  176.4050  146.3490 C   0  0  0  0  0  2  0  0  0  0  0  0
  191.1000  176.7860  147.2590 C   0  0  0  0  0  2  0  0  0  0  0  0
  192.1500  175.6870  147.2620 C   0  0  0  0  0  2  0  0  0  0  0  0
  192.9490  177.0720  149.1130 N   0  0  0  0  0  1  0  0  0  0  0  0
  193.0260  175.7560  148.5070 C   0  0  0  0  0  2  0  0  0  0  0  0
  181.3380  179.5870  136.5580 C   0  0  0  0  0  1  0  0  0  0  0  0
  181.7250  178.2290  137.1340 C   0  0  2  0  0  3  0  0  0  0  0  0
  182.0840  177.2280  136.0350 C   0  0  1  0  0  3  0  0  0  0  0  0
  181.7500  177.7390  134.7710 O   0  0  0  0  0  1  0  0  0  0  0  0
  183.5100  176.9180  136.0980 N   0  0  0  0  0  2  0  0  0  0  0  0
  184.1140  177.7080  137.1610 C   0  0  0  0  0  2  0  0  0  0  0  0
  185.4140  177.0750  137.6320 C   0  0  0  0  0  2  0  0  0  0  0  0
  186.5200  177.8820  137.3180 O   0  0  0  0  0  0  0  0  0  0  0  0
  189.9610  176.3810  137.8100 C   0  0  0  0  0  0  0  0  0  0  0  0
  188.2700  177.0270  139.3710 O   0  0  0  0  0  1  0  0  0  0  0  0
  187.0830  175.5470  137.0040 C   0  0  0  0  0  2  0  0  0  0  0  0
  190.5500  176.1840  136.4310 C   0  0  0  0  0  2  0  0  0  0  0  0
  188.6630  174.5720  135.6750 C   0  0  1  0  0  3  0  0  0  0  0  0
  189.1870  178.7060  137.9750 C   0  0  0  0  0  1  0  0  0  0  0  0
  190.5290  175.8460  138.7500 O   0  0  0  0  0  0  0  0  0  0  0  0
  188.1360  174.6140  136.9800 O   0  0  0  0  0  0  0  0  0  0  0  0
  189.5320  175.8020  135.3500 C   0  0  0  0  0  2  0  0  0  0  0  0
  188.7420  177.2560  138.0740 C   0  0  1  0  0  0  0  0  0  0  0  0
  187.5900  177.0080  137.0710 C   0  0  2  0  0  3  0  0  0  0  0  0
  189.4230  173.4150  135.5220 O   0  0  0  0  0  1  0  0  0  0  0  0
  184.4170  177.8920  141.7180 C   0  0  0  0  0  2  0  0  0  0  0  0
  185.5460  178.8750  141.4560 C   0  0  0  0  0  2  0  0  0  0  0  0
  185.4220  179.4100  140.1720 O   0  0  0  0  0  1  0  0  0  0  0  0
  2  7  1  0  0  0  0
  2 12  1  1  0  0  0
  3  5  1  1  0  0  0
  3  2  1  0  0  0  0
  4 14  1  1  0  0  0
  6  8  1  0  0  0  0
  6 54  1  1  0  0  0
  7  1  1  6  0  0  0
  7  6  1  0  0  0  0
  8  4  1  0  0  0  0
  9 35  1  1  0  0  0
  9 11  1  0  0  0  0
  9  3  1  0  0  0  0
 10  1  1  0  0  0  0
 11 10  1  0  0  0  0
 12  4  1  0  0  0  0
 13 16  1  0  0  0  0
 14 13  1  0  0  0  0
 15 13  2  0  0  0  0
 17 19  1  0  0  0  0
 18 17  2  0  0  0  0
 20 21  2  0  0  0  0
 20 18  1  0  0  0  0
 21 22  1  0  0  0  0
 22 16  1  0  0  0  0
 22 19  2  0  0  0  0
 23 18  1  0  0  0  0
 23 29  1  1  0  0  0
 24 27  2  0  0  0  0
 25 28  2  0  0  0  0
 25 26  1  0  0  0  0
 26 27  1  0  0  0  0
 27 23  1  0  0  0  0
 28 24  1  0  0  0  0
 29 30  1  0  0  0  0
 30 31  1  0  0  0  0
 31 33  1  0  0  0  0
 33 32  1  0  0  0  0
 35 34  1  6  0  0  0
 36 37  1  6  0  0  0
 36 38  1  0  0  0  0
 36 35  1  0  0  0  0
 38 39  1  0  0  0  0
 39 40  1  0  0  0  0
 41 40  1  0  0  0  0
 42 51  1  0  0  0  0
 42 48  2  0  0  0  0
 44 52  1  0  0  0  0
 45 42  1  0  0  0  0
 46 53  1  1  0  0  0
 46 49  1  0  0  0  0
 49 44  1  0  0  0  0
 50 46  1  0  0  0  0
 50 45  1  0  0  0  0
 51 47  1  6  0  0  0
 51 43  1  0  0  0  0
 52 41  1  1  0  0  0
 52 51  1  0  0  0  0
 55 54  1  0  0  0  0
 56 55  1  0  0  0  0
M  END
>  <MODEL>
3

>  <REMARK>
 VINA RESULT:      -7.6      1.174      2.091
  Name = 
  18 active torsions:
  status: ('A' for Active; 'I' for Inactive)
    1  A    between atoms: C_5  and  C_31
    2  A    between atoms: N_7  and  C_29
    3  A    between atoms: C_11  and  C_27
    4  A    between atoms: C_12  and  C_33
    5  A    between atoms: C_12  and  N_50
    6  A    between atoms: C_16  and  N_50
    7  A    between atoms: C_16  and  C_53
    8  A    between atoms: C_19  and  C_22
    9  A    between atoms: C_19  and  C_38
   10  A    between atoms: C_22  and  C_37
   11  A    between atoms: C_25  and  C_37
   12  A    between atoms: C_27  and  C_41
   13  A    between atoms: C_31  and  C_52
   14  A    between atoms: C_32  and  C_37
   15  A    between atoms: C_33  and  C_46
   16  A    between atoms: C_38  and  C_42
   17  A    between atoms: C_47  and  O_56
   18  A    between atoms: C_53  and  O_56
                            x       y       z     vdW  Elec       q    Type
                         _______ _______ _______ _____ _____    ______ ____

>  <TORSDO>
F 18

$$$$
=
 OpenBabel11042413293D

 56 60  0  0  1  0  0  0  0  0999 V2000
  182.2210  176.8720  140.0940 O   0  0  0  0  0  0  0  0  0  0  0  0
  180.6830  178.1530  141.5600 C   0  0  1  0  0  3  0  0  0  0  0  0
  180.2450  179.0990  140.4340 C   0  0  2  0  0  3  0  0  0  0  0  0
  182.2340  179.4410  143.4320 C   0  0  1  0  0  3  0  0  0  0  0  0
  178.9960  179.6470  140.7280 O   0  0  0  0  0  1  0  0  0  0  0  0
  183.1800  178.5870  141.4470 C   0  0  1  0  0  3  0  0  0  0  0  0
  182.0770  177.5250  141.3420 C   0  0  2  0  0  3  0  0  0  0  0  0
  182.8750  179.7450  142.2090 O   0  0  0  0  0  0  0  0  0  0  0  0
  180.1750  178.4400  139.0350 C   0  0  2  0  0  3  0  0  0  0  0  0
  181.0680  176.1170  139.8260 C   0  0  0  0  0  2  0  0  0  0  0  0
  180.1000  176.9010  138.9270 C   0  0  0  0  0  2  0  0  0  0  0  0
  180.5070  178.8830  143.2270 S   0  0  0  0  0  0  0  0  0  0  0  0
  184.0790  178.9620  145.0860 C   0  0  0  0  0  0  0  0  0  0  0  0
  183.0020  178.5190  144.2580 N   0  0  0  0  0  2  0  0  0  0  0  0
  184.5030  180.1460  145.0090 O   0  0  0  0  0  0  0  0  0  0  0  0
  184.6870  178.0230  146.0710 C   0  0  0  0  0  2  0  0  0  0  0  0
  188.4570  177.9610  146.4240 C   0  0  0  0  0  3  0  0  0  0  0  0
  188.8510  177.5370  145.1460 C   0  0  0  0  0  0  0  0  0  0  0  0
  187.1010  178.1110  146.7280 C   0  0  0  0  0  3  0  0  0  0  0  0
  187.8780  177.2490  144.1820 C   0  0  0  0  0  3  0  0  0  0  0  0
  186.5220  177.3970  144.4870 C   0  0  0  0  0  3  0  0  0  0  0  0
  186.1320  177.8270  145.7600 C   0  0  0  0  0  0  0  0  0  0  0  0
  190.2960  177.3550  144.7960 C   0  0  2  0  0  3  0  0  0  0  0  0
  191.0750  177.4280  147.1260 N   0  0  0  0  0  0  0  0  0  0  0  0
  192.4130  175.4790  147.2010 C   0  0  0  0  0  3  0  0  0  0  0  0
  191.8170  175.6930  145.9350 O   0  0  0  0  0  0  0  0  0  0  0  0
  191.0720  176.8490  145.9770 C   0  0  0  0  0  0  0  0  0  0  0  0
  191.9000  176.6510  148.0430 C   0  0  0  0  0  3  0  0  0  0  0  0
  190.8880  178.6310  144.2090 C   0  0  0  0  0  2  0  0  0  0  0  0
  191.8290  178.3050  143.0600 C   0  0  0  0  0  2  0  0  0  0  0  0
  191.4010  177.0130  142.3840 C   0  0  0  0  0  2  0  0  0  0  0  0
  191.3550  177.4570  139.9790 N   0  0  0  0  0  1  0  0  0  0  0  0
  190.5320  177.2840  141.1620 C   0  0  0  0  0  2  0  0  0  0  0  0
  181.1040  180.6150  138.0630 C   0  0  0  0  0  1  0  0  0  0  0  0
  181.0280  179.0970  137.9420 C   0  0  2  0  0  3  0  0  0  0  0  0
  180.6130  178.6600  136.5360 C   0  0  1  0  0  3  0  0  0  0  0  0
  179.9080  179.6850  135.8870 O   0  0  0  0  0  1  0  0  0  0  0  0
  181.7970  178.2910  135.7660 N   0  0  0  0  0  2  0  0  0  0  0  0
  182.3290  177.0430  136.2950 C   0  0  0  0  0  2  0  0  0  0  0  0
  183.7520  177.2330  136.7990 C   0  0  0  0  0  2  0  0  0  0  0  0
  184.5280  176.0830  136.5870 O   0  0  0  0  0  0  0  0  0  0  0  0
  188.2940  175.6920  136.5420 C   0  0  0  0  0  0  0  0  0  0  0  0
  186.6210  175.1640  134.9180 O   0  0  0  0  0  1  0  0  0  0  0  0
  186.1140  177.8700  136.1910 C   0  0  0  0  0  2  0  0  0  0  0  0
  188.8010  176.2200  137.8650 C   0  0  0  0  0  2  0  0  0  0  0  0
  187.8640  178.6040  137.4590 C   0  0  1  0  0  3  0  0  0  0  0  0
  186.5180  174.0610  137.0120 C   0  0  0  0  0  1  0  0  0  0  0  0
  189.1170  175.4790  135.6640 O   0  0  0  0  0  0  0  0  0  0  0  0
  187.4790  178.2080  136.1640 O   0  0  0  0  0  0  0  0  0  0  0  0
  188.0130  177.4110  138.4230 C   0  0  0  0  0  2  0  0  0  0  0  0
  186.8290  175.3610  136.2880 C   0  0  1  0  0  0  0  0  0  0  0  0
  185.8650  176.4640  136.7860 C   0  0  2  0  0  3  0  0  0  0  0  0
  189.0710  179.2960  137.3910 O   0  0  0  0  0  1  0  0  0  0  0  0
  184.5400  177.9870  141.7910 C   0  0  0  0  0  2  0  0  0  0  0  0
  185.6440  178.6670  141.0000 C   0  0  0  0  0  2  0  0  0  0  0  0
  185.0900  179.5720  140.0920 O   0  0  0  0  0  1  0  0  0  0  0  0
  2 12  1  1  0  0  0
  3  5  1  1  0  0  0
  3  2  1  0  0  0  0
  4 14  1  6  0  0  0
  6 54  1  1  0  0  0
  6  8  1  0  0  0  0
  7  1  1  6  0  0  0
  7  6  1  0  0  0  0
  7  2  1  0  0  0  0
  8  4  1  0  0  0  0
  9 35  1  6  0  0  0
  9  3  1  0  0  0  0
 10  1  1  0  0  0  0
 11  9  1  0  0  0  0
 11 10  1  0  0  0  0
 12  4  1  0  0  0  0
 13 16  1  0  0  0  0
 14 13  1  0  0  0  0
 15 13  2  0  0  0  0
 17 19  1  0  0  0  0
 18 17  2  0  0  0  0
 20 21  2  0  0  0  0
 20 18  1  0  0  0  0
 21 22  1  0  0  0  0
 22 16  1  0  0  0  0
 22 19  2  0  0  0  0
 23 29  1  1  0  0  0
 23 18  1  0  0  0  0
 23 27  1  0  0  0  0
 24 28  1  0  0  0  0
 25 28  2  0  0  0  0
 26 27  1  0  0  0  0
 26 25  1  0  0  0  0
 27 24  2  0  0  0  0
 30 29  1  0  0  0  0
 31 30  1  0  0  0  0
 32 33  1  0  0  0  0
 33 31  1  0  0  0  0
 35 34  1  6  0  0  0
 36 37  1  6  0  0  0
 36 35  1  0  0  0  0
 38 39  1  0  0  0  0
 38 36  1  0  0  0  0
 39 40  1  0  0  0  0
 41 40  1  0  0  0  0
 42 45  1  0  0  0  0
 43 51  1  0  0  0  0
 44 52  1  0  0  0  0
 45 50  1  0  0  0  0
 46 53  1  6  0  0  0
 46 50  1  0  0  0  0
 48 42  2  0  0  0  0
 49 44  1  0  0  0  0
 49 46  1  0  0  0  0
 51 42  1  0  0  0  0
 51 52  1  0  0  0  0
 51 47  1  1  0  0  0
 52 41  1  6  0  0  0
 55 54  1  0  0  0  0
 56 55  1  0  0  0  0
M  END
>  <MODEL>
4

>  <REMARK>
 VINA RESULT:      -7.6      1.355      2.650
  Name = 
  18 active torsions:
  status: ('A' for Active; 'I' for Inactive)
    1  A    between atoms: C_5  and  C_31
    2  A    between atoms: N_7  and  C_29
    3  A    between atoms: C_11  and  C_27
    4  A    between atoms: C_12  and  C_33
    5  A    between atoms: C_12  and  N_50
    6  A    between atoms: C_16  and  N_50
    7  A    between atoms: C_16  and  C_53
    8  A    between atoms: C_19  and  C_22
    9  A    between atoms: C_19  and  C_38
   10  A    between atoms: C_22  and  C_37
   11  A    between atoms: C_25  and  C_37
   12  A    between atoms: C_27  and  C_41
   13  A    between atoms: C_31  and  C_52
   14  A    between atoms: C_32  and  C_37
   15  A    between atoms: C_33  and  C_46
   16  A    between atoms: C_38  and  C_42
   17  A    between atoms: C_47  and  O_56
   18  A    between atoms: C_53  and  O_56
                            x       y       z     vdW  Elec       q    Type
                         _______ _______ _______ _____ _____    ______ ____

>  <TORSDO>
F 18

$$$$
=
 OpenBabel11042413293D

 56 60  0  0  1  0  0  0  0  0999 V2000
  182.4410  177.0480  140.1130 O   0  0  0  0  0  0  0  0  0  0  0  0
  181.0180  178.3450  141.6780 C   0  0  1  0  0  3  0  0  0  0  0  0
  180.5880  179.3520  140.6030 C   0  0  2  0  0  3  0  0  0  0  0  0
  182.6930  179.4880  143.5380 C   0  0  1  0  0  3  0  0  0  0  0  0
  179.3780  179.9460  140.9610 O   0  0  0  0  0  1  0  0  0  0  0  0
  183.5280  178.6650  141.4910 C   0  0  1  0  0  3  0  0  0  0  0  0
  182.3710  177.6600  141.3880 C   0  0  2  0  0  3  0  0  0  0  0  0
  183.3050  179.8060  142.3040 O   0  0  0  0  0  0  0  0  0  0  0  0
  180.4380  178.7490  139.1850 C   0  0  2  0  0  3  0  0  0  0  0  0
  181.2440  176.3590  139.8610 C   0  0  0  0  0  2  0  0  0  0  0  0
  180.2850  177.2200  139.0250 C   0  0  0  0  0  2  0  0  0  0  0  0
  180.9350  179.0200  143.3750 S   0  0  0  0  0  0  0  0  0  0  0  0
  184.4930  178.8750  145.1950 C   0  0  0  0  0  0  0  0  0  0  0  0
  183.4430  178.5010  144.3020 N   0  0  0  0  0  2  0  0  0  0  0  0
  184.9120  180.0620  145.2340 O   0  0  0  0  0  0  0  0  0  0  0  0
  185.0800  177.8560  146.1130 C   0  0  0  0  0  2  0  0  0  0  0  0
  188.8510  178.0160  146.4180 C   0  0  0  0  0  3  0  0  0  0  0  0
  189.2550  177.4210  145.2130 C   0  0  0  0  0  0  0  0  0  0  0  0
  187.4920  178.1500  146.7140 C   0  0  0  0  0  3  0  0  0  0  0  0
  188.2890  176.9470  144.3170 C   0  0  0  0  0  3  0  0  0  0  0  0
  186.9300  177.0790  144.6150 C   0  0  0  0  0  3  0  0  0  0  0  0
  186.5300  177.6800  145.8140 C   0  0  0  0  0  0  0  0  0  0  0  0
  190.7040  177.2520  144.8730 C   0  0  2  0  0  3  0  0  0  0  0  0
  191.8570  177.8540  142.7870 N   0  0  0  0  0  0  0  0  0  0  0  0
  190.5510  176.6730  141.2090 C   0  0  0  0  0  3  0  0  0  0  0  0
  190.1010  176.5000  142.5400 O   0  0  0  0  0  0  0  0  0  0  0  0
  190.9040  177.2300  143.3860 C   0  0  0  0  0  0  0  0  0  0  0  0
  191.7720  177.5860  141.3570 C   0  0  0  0  0  3  0  0  0  0  0  0
  191.2960  176.0290  145.5630 C   0  0  0  0  0  2  0  0  0  0  0  0
  191.3480  176.2370  147.0680 C   0  0  0  0  0  2  0  0  0  0  0  0
  192.7130  175.8410  147.6050 C   0  0  0  0  0  2  0  0  0  0  0  0
  193.9700  176.8480  149.4460 N   0  0  0  0  0  1  0  0  0  0  0  0
  192.8030  176.0530  149.1110 C   0  0  0  0  0  2  0  0  0  0  0  0
  181.9920  180.6760  138.5430 C   0  0  0  0  0  1  0  0  0  0  0  0
  181.2830  179.4050  138.0860 C   0  0  2  0  0  3  0  0  0  0  0  0
  180.4920  179.6290  136.7960 C   0  0  1  0  0  3  0  0  0  0  0  0
  180.9950  180.7350  136.0930 O   0  0  0  0  0  1  0  0  0  0  0  0
  180.5530  178.4280  135.9660 N   0  0  0  0  0  2  0  0  0  0  0  0
  181.6440  178.5730  135.0140 C   0  0  0  0  0  2  0  0  0  0  0  0
  182.6000  177.3930  135.1040 C   0  0  0  0  0  2  0  0  0  0  0  0
  183.5760  177.5990  136.0920 O   0  0  0  0  0  0  0  0  0  0  0  0
  186.6210  175.3900  136.5170 C   0  0  0  0  0  0  0  0  0  0  0  0
  185.9290  177.3790  137.6480 O   0  0  0  0  0  1  0  0  0  0  0  0
  183.6070  175.4690  137.2440 C   0  0  0  0  0  2  0  0  0  0  0  0
  186.4890  174.2680  135.5110 C   0  0  0  0  0  2  0  0  0  0  0  0
  184.2610  173.4050  136.5220 C   0  0  1  0  0  3  0  0  0  0  0  0
  186.3380  177.5150  135.3190 C   0  0  0  0  0  1  0  0  0  0  0  0
  187.4740  175.2740  137.3850 O   0  0  0  0  0  0  0  0  0  0  0  0
  184.3940  174.3470  137.5600 O   0  0  0  0  0  0  0  0  0  0  0  0
  185.0500  173.8030  135.2590 C   0  0  0  0  0  2  0  0  0  0  0  0
  185.7900  176.6640  136.4530 C   0  0  1  0  0  0  0  0  0  0  0  0
  184.2860  176.3930  136.2050 C   0  0  2  0  0  3  0  0  0  0  0  0
  184.7010  172.1610  136.9690 O   0  0  0  0  0  1  0  0  0  0  0  0
  184.8680  177.9890  141.7640 C   0  0  0  0  0  2  0  0  0  0  0  0
  186.0010  178.9990  141.7110 C   0  0  0  0  0  2  0  0  0  0  0  0
  187.0400  178.5060  140.9180 O   0  0  0  0  0  1  0  0  0  0  0  0
  2 12  1  1  0  0  0
  3  5  1  1  0  0  0
  3  2  1  0  0  0  0
  4 14  1  6  0  0  0
  6 54  1  1  0  0  0
  6  8  1  0  0  0  0
  7  1  1  6  0  0  0
  7  6  1  0  0  0  0
  7  2  1  0  0  0  0
  8  4  1  0  0  0  0
  9 35  1  6  0  0  0
  9  3  1  0  0  0  0
 10  1  1  0  0  0  0
 11  9  1  0  0  0  0
 11 10  1  0  0  0  0
 12  4  1  0  0  0  0
 13 15  2  0  0  0  0
 13 16  1  0  0  0  0
 14 13  1  0  0  0  0
 17 19  1  0  0  0  0
 18 17  2  0  0  0  0
 20 21  2  0  0  0  0
 20 18  1  0  0  0  0
 21 22  1  0  0  0  0
 22 16  1  0  0  0  0
 22 19  2  0  0  0  0
 23 18  1  0  0  0  0
 23 29  1  6  0  0  0
 24 27  2  0  0  0  0
 25 28  2  0  0  0  0
 25 26  1  0  0  0  0
 26 27  1  0  0  0  0
 27 23  1  0  0  0  0
 28 24  1  0  0  0  0
 29 30  1  0  0  0  0
 30 31  1  0  0  0  0
 31 33  1  0  0  0  0
 33 32  1  0  0  0  0
 35 34  1  1  0  0  0
 36 37  1  6  0  0  0
 36 35  1  0  0  0  0
 38 36  1  0  0  0  0
 39 40  1  0  0  0  0
 39 38  1  0  0  0  0
 40 41  1  0  0  0  0
 42 48  2  0  0  0  0
 44 49  1  0  0  0  0
 45 42  1  0  0  0  0
 46 53  1  1  0  0  0
 46 49  1  0  0  0  0
 50 45  1  0  0  0  0
 50 46  1  0  0  0  0
 51 47  1  6  0  0  0
 51 42  1  0  0  0  0
 51 43  1  0  0  0  0
 52 41  1  1  0  0  0
 52 51  1  0  0  0  0
 52 44  1  0  0  0  0
 55 54  1  0  0  0  0
 56 55  1  0  0  0  0
M  END
>  <MODEL>
5

>  <REMARK>
 VINA RESULT:      -6.8      1.691      2.791
  Name = 
  18 active torsions:
  status: ('A' for Active; 'I' for Inactive)
    1  A    between atoms: C_5  and  C_31
    2  A    between atoms: N_7  and  C_29
    3  A    between atoms: C_11  and  C_27
    4  A    between atoms: C_12  and  C_33
    5  A    between atoms: C_12  and  N_50
    6  A    between atoms: C_16  and  N_50
    7  A    between atoms: C_16  and  C_53
    8  A    between atoms: C_19  and  C_22
    9  A    between atoms: C_19  and  C_38
   10  A    between atoms: C_22  and  C_37
   11  A    between atoms: C_25  and  C_37
   12  A    between atoms: C_27  and  C_41
   13  A    between atoms: C_31  and  C_52
   14  A    between atoms: C_32  and  C_37
   15  A    between atoms: C_33  and  C_46
   16  A    between atoms: C_38  and  C_42
   17  A    between atoms: C_47  and  O_56
   18  A    between atoms: C_53  and  O_56
                            x       y       z     vdW  Elec       q    Type
                         _______ _______ _______ _____ _____    ______ ____

>  <TORSDO>
F 18

$$$$
=
 OpenBabel11042413293D

 56 60  0  0  1  0  0  0  0  0999 V2000
  182.2620  177.7790  140.2160 O   0  0  0  0  0  0  0  0  0  0  0  0
  181.1340  178.3760  142.3440 C   0  0  1  0  0  3  0  0  0  0  0  0
  180.2940  179.4860  141.6970 C   0  0  2  0  0  3  0  0  0  0  0  0
  183.0600  179.3980  144.0220 C   0  0  1  0  0  3  0  0  0  0  0  0
  179.1500  179.7250  142.4590 O   0  0  0  0  0  1  0  0  0  0  0  0
  183.4310  179.2380  141.6980 C   0  0  1  0  0  3  0  0  0  0  0  0
  182.4460  178.0660  141.5900 C   0  0  2  0  0  3  0  0  0  0  0  0
  183.2710  180.1010  142.8130 O   0  0  0  0  0  0  0  0  0  0  0  0
  179.8620  179.1940  140.2400 C   0  0  2  0  0  3  0  0  0  0  0  0
  181.1530  176.9320  140.0610 C   0  0  0  0  0  2  0  0  0  0  0  0
  179.8940  177.7410  139.7170 C   0  0  0  0  0  2  0  0  0  0  0  0
  181.4090  178.6270  144.1340 S   0  0  0  0  0  0  0  0  0  0  0  0
  184.7640  178.3890  145.5850 C   0  0  0  0  0  0  0  0  0  0  0  0
  184.1200  178.4420  144.3110 N   0  0  0  0  0  2  0  0  0  0  0  0
  184.5440  179.2750  146.4540 O   0  0  0  0  0  0  0  0  0  0  0  0
  185.6820  177.2580  145.9020 C   0  0  0  0  0  2  0  0  0  0  0  0
  188.1410  176.4000  143.1530 C   0  0  0  0  0  3  0  0  0  0  0  0
  189.1540  177.3450  143.3780 C   0  0  0  0  0  0  0  0  0  0  0  0
  187.0070  176.3780  143.9690 C   0  0  0  0  0  3  0  0  0  0  0  0
  189.0140  178.2750  144.4140 C   0  0  0  0  0  3  0  0  0  0  0  0
  187.8790  178.2530  145.2300 C   0  0  0  0  0  3  0  0  0  0  0  0
  186.8740  177.3060  145.0070 C   0  0  0  0  0  0  0  0  0  0  0  0
  190.3750  177.4010  142.5110 C   0  0  2  0  0  3  0  0  0  0  0  0
  190.5810  176.3770  140.2860 N   0  0  0  0  0  0  0  0  0  0  0  0
  188.8960  177.5440  139.1080 C   0  0  0  0  0  3  0  0  0  0  0  0
  189.0020  177.9430  140.4620 O   0  0  0  0  0  0  0  0  0  0  0  0
  190.0110  177.2270  141.0650 C   0  0  0  0  0  0  0  0  0  0  0  0
  189.9600  176.4520  138.9700 C   0  0  0  0  0  3  0  0  0  0  0  0
  191.4290  176.4030  142.9740 C   0  0  0  0  0  2  0  0  0  0  0  0
  192.0650  176.8630  144.2760 C   0  0  0  0  0  2  0  0  0  0  0  0
  191.6410  175.9530  145.4160 C   0  0  0  0  0  2  0  0  0  0  0  0
  190.1980  176.3820  147.3450 N   0  0  0  0  0  1  0  0  0  0  0  0
  191.4570  176.7310  146.7130 C   0  0  0  0  0  2  0  0  0  0  0  0
  179.6520  181.6070  139.4200 C   0  0  0  0  0  1  0  0  0  0  0  0
  180.2820  180.2370  139.1960 C   0  0  2  0  0  3  0  0  0  0  0  0
  180.0750  179.7440  137.7630 C   0  0  1  0  0  3  0  0  0  0  0  0
  179.2760  180.6450  137.0410 O   0  0  0  0  0  1  0  0  0  0  0  0
  181.3690  179.5750  137.1080 N   0  0  0  0  0  2  0  0  0  0  0  0
  181.1580  178.9620  135.8050 C   0  0  0  0  0  2  0  0  0  0  0  0
  181.1590  177.4440  135.9160 C   0  0  0  0  0  2  0  0  0  0  0  0
  182.2290  176.9890  136.7020 O   0  0  0  0  0  0  0  0  0  0  0  0
  183.8710  173.5780  136.6970 C   0  0  0  0  0  0  0  0  0  0  0  0
  183.8000  175.3060  138.3470 O   0  0  0  0  0  1  0  0  0  0  0  0
  181.0830  174.8870  137.0660 C   0  0  0  0  0  2  0  0  0  0  0  0
  183.5470  172.9410  135.3640 C   0  0  0  0  0  2  0  0  0  0  0  0
  180.9860  173.0110  135.7690 C   0  0  1  0  0  3  0  0  0  0  0  0
  184.8050  175.8070  136.2620 C   0  0  0  0  0  1  0  0  0  0  0  0
  184.3490  172.8620  137.5650 O   0  0  0  0  0  0  0  0  0  0  0  0
  181.2270  173.4870  137.0720 O   0  0  0  0  0  0  0  0  0  0  0  0
  182.1600  173.2890  134.8110 C   0  0  0  0  0  2  0  0  0  0  0  0
  183.6870  175.0640  136.9730 C   0  0  1  0  0  0  0  0  0  0  0  0
  182.3230  175.6060  136.4820 C   0  0  2  0  0  3  0  0  0  0  0  0
  180.7430  171.6400  135.8170 O   0  0  0  0  0  1  0  0  0  0  0  0
  184.8780  178.8090  141.4780 C   0  0  0  0  0  2  0  0  0  0  0  0
  185.2850  179.0040  140.0280 C   0  0  0  0  0  2  0  0  0  0  0  0
  184.5560  180.0560  139.4680 O   0  0  0  0  0  1  0  0  0  0  0  0
  2 12  1  1  0  0  0
  3  2  1  0  0  0  0
  3  5  1  1  0  0  0
  4 12  1  0  0  0  0
  4 14  1  6  0  0  0
  6 54  1  1  0  0  0
  6  8  1  0  0  0  0
  7  1  1  6  0  0  0
  7  6  1  0  0  0  0
  7  2  1  0  0  0  0
  8  4  1  0  0  0  0
  9 35  1  6  0  0  0
  9  3  1  0  0  0  0
 10  1  1  0  0  0  0
 11 10  1  0  0  0  0
 11  9  1  0  0  0  0
 13 16  1  0  0  0  0
 13 15  2  0  0  0  0
 14 13  1  0  0  0  0
 17 18  2  0  0  0  0
 17 19  1  0  0  0  0
 18 20  1  0  0  0  0
 19 22  2  0  0  0  0
 20 21  2  0  0  0  0
 22 21  1  0  0  0  0
 22 16  1  0  0  0  0
 23 29  1  1  0  0  0
 23 18  1  0  0  0  0
 24 27  2  0  0  0  0
 25 26  1  0  0  0  0
 26 27  1  0  0  0  0
 27 23  1  0  0  0  0
 28 25  2  0  0  0  0
 28 24  1  0  0  0  0
 29 30  1  0  0  0  0
 30 31  1  0  0  0  0
 31 33  1  0  0  0  0
 33 32  1  0  0  0  0
 35 34  1  1  0  0  0
 36 37  1  6  0  0  0
 36 35  1  0  0  0  0
 38 36  1  0  0  0  0
 39 40  1  0  0  0  0
 39 38  1  0  0  0  0
 40 41  1  0  0  0  0
 42 51  1  0  0  0  0
 42 48  2  0  0  0  0
 44 49  1  0  0  0  0
 45 42  1  0  0  0  0
 46 53  1  1  0  0  0
 46 49  1  0  0  0  0
 50 45  1  0  0  0  0
 50 46  1  0  0  0  0
 51 47  1  6  0  0  0
 51 43  1  0  0  0  0
 52 41  1  1  0  0  0
 52 51  1  0  0  0  0
 52 44  1  0  0  0  0
 55 54  1  0  0  0  0
 56 55  1  0  0  0  0
M  END
>  <MODEL>
6

>  <REMARK>
 VINA RESULT:      -6.5      2.266      4.094
  Name = 
  18 active torsions:
  status: ('A' for Active; 'I' for Inactive)
    1  A    between atoms: C_5  and  C_31
    2  A    between atoms: N_7  and  C_29
    3  A    between atoms: C_11  and  C_27
    4  A    between atoms: C_12  and  C_33
    5  A    between atoms: C_12  and  N_50
    6  A    between atoms: C_16  and  N_50
    7  A    between atoms: C_16  and  C_53
    8  A    between atoms: C_19  and  C_22
    9  A    between atoms: C_19  and  C_38
   10  A    between atoms: C_22  and  C_37
   11  A    between atoms: C_25  and  C_37
   12  A    between atoms: C_27  and  C_41
   13  A    between atoms: C_31  and  C_52
   14  A    between atoms: C_32  and  C_37
   15  A    between atoms: C_33  and  C_46
   16  A    between atoms: C_38  and  C_42
   17  A    between atoms: C_47  and  O_56
   18  A    between atoms: C_53  and  O_56
                            x       y       z     vdW  Elec       q    Type
                         _______ _______ _______ _____ _____    ______ ____

>  <TORSDO>
F 18

$$$$
=
 OpenBabel11042413293D

 56 60  0  0  1  0  0  0  0  0999 V2000
  182.5290  176.8160  139.9590 O   0  0  0  0  0  0  0  0  0  0  0  0
  180.8880  177.9420  141.4390 C   0  0  1  0  0  3  0  0  0  0  0  0
  180.3900  178.8800  140.3310 C   0  0  2  0  0  3  0  0  0  0  0  0
  182.3230  179.2970  143.3570 C   0  0  1  0  0  3  0  0  0  0  0  0
  179.1010  179.3270  140.6260 O   0  0  0  0  0  1  0  0  0  0  0  0
  183.3470  178.5640  141.3620 C   0  0  1  0  0  3  0  0  0  0  0  0
  182.3260  177.4250  141.2210 C   0  0  2  0  0  3  0  0  0  0  0  0
  182.9500  179.6770  142.1480 O   0  0  0  0  0  0  0  0  0  0  0  0
  180.3810  178.2520  138.9170 C   0  0  2  0  0  3  0  0  0  0  0  0
  181.4380  175.9830  139.6620 C   0  0  0  0  0  2  0  0  0  0  0  0
  180.4220  176.7150  138.7720 C   0  0  0  0  0  2  0  0  0  0  0  0
  180.6450  178.6170  143.1210 S   0  0  0  0  0  0  0  0  0  0  0  0
  184.0350  178.9180  145.1710 C   0  0  0  0  0  0  0  0  0  0  0  0
  183.1500  178.4140  144.1680 N   0  0  0  0  0  2  0  0  0  0  0  0
  184.2460  180.1550  145.2800 O   0  0  0  0  0  0  0  0  0  0  0  0
  184.6930  177.9720  146.1180 C   0  0  0  0  0  2  0  0  0  0  0  0
  188.4450  178.4590  145.9640 C   0  0  0  0  0  3  0  0  0  0  0  0
  188.8090  177.5220  144.9850 C   0  0  0  0  0  0  0  0  0  0  0  0
  187.1060  178.5990  146.3380 C   0  0  0  0  0  3  0  0  0  0  0  0
  187.8260  176.7160  144.3980 C   0  0  0  0  0  3  0  0  0  0  0  0
  186.4870  176.8560  144.7740 C   0  0  0  0  0  3  0  0  0  0  0  0
  186.1260  177.7970  145.7460 C   0  0  0  0  0  0  0  0  0  0  0  0
  190.2380  177.3400  144.5720 C   0  0  2  0  0  3  0  0  0  0  0  0
  191.0120  177.1270  146.8950 N   0  0  0  0  0  0  0  0  0  0  0  0
  192.4420  175.2530  146.7100 C   0  0  0  0  0  3  0  0  0  0  0  0
  191.8360  175.6100  145.4820 O   0  0  0  0  0  0  0  0  0  0  0  0
  191.0370  176.7130  145.6770 C   0  0  0  0  0  0  0  0  0  0  0  0
  191.8730  176.2720  147.7020 C   0  0  0  0  0  3  0  0  0  0  0  0
  190.8430  178.6490  144.0810 C   0  0  0  0  0  2  0  0  0  0  0  0
  191.3700  178.4960  142.6640 C   0  0  0  0  0  2  0  0  0  0  0  0
  190.4360  177.6170  141.8490 C   0  0  0  0  0  2  0  0  0  0  0  0
  192.3630  177.4950  140.3480 N   0  0  0  0  0  1  0  0  0  0  0  0
  190.9140  177.4790  140.4090 C   0  0  0  0  0  2  0  0  0  0  0  0
  182.0450  180.1260  138.4130 C   0  0  0  0  0  1  0  0  0  0  0  0
  181.1910  178.9970  137.8490 C   0  0  2  0  0  3  0  0  0  0  0  0
  180.3220  179.4710  136.6820 C   0  0  1  0  0  3  0  0  0  0  0  0
  181.0690  180.2680  135.8010 O   0  0  0  0  0  1  0  0  0  0  0  0
  179.7690  178.3160  135.9790 N   0  0  0  0  0  2  0  0  0  0  0  0
  180.6620  177.9640  134.8840 C   0  0  0  0  0  2  0  0  0  0  0  0
  181.8220  177.1160  135.3850 C   0  0  0  0  0  2  0  0  0  0  0  0
  181.6600  175.7680  135.0300 O   0  0  0  0  0  0  0  0  0  0  0  0
  183.6230  172.8350  136.4000 C   0  0  0  0  0  0  0  0  0  0  0  0
  182.0610  173.0000  134.5980 O   0  0  0  0  0  1  0  0  0  0  0  0
  184.0030  175.3300  134.5980 C   0  0  0  0  0  2  0  0  0  0  0  0
  184.4570  173.3660  137.5450 C   0  0  0  0  0  2  0  0  0  0  0  0
  185.7460  175.0430  136.0440 C   0  0  1  0  0  3  0  0  0  0  0  0
  181.2960  173.5230  136.7770 C   0  0  0  0  0  1  0  0  0  0  0  0
  183.8810  171.7140  135.9840 O   0  0  0  0  0  0  0  0  0  0  0  0
  185.0940  174.5020  134.9190 O   0  0  0  0  0  0  0  0  0  0  0  0
  184.9690  174.7980  137.3520 C   0  0  0  0  0  2  0  0  0  0  0  0
  182.4550  173.6040  135.7980 C   0  0  1  0  0  0  0  0  0  0  0  0
  182.7860  175.0900  135.5240 C   0  0  2  0  0  3  0  0  0  0  0  0
  187.0180  174.4860  136.1510 O   0  0  0  0  0  1  0  0  0  0  0  0
  184.7440  178.0590  141.7050 C   0  0  0  0  0  2  0  0  0  0  0  0
  185.8060  178.9970  141.1580 C   0  0  0  0  0  2  0  0  0  0  0  0
  185.3700  179.5570  139.9550 O   0  0  0  0  0  1  0  0  0  0  0  0
  2 12  1  1  0  0  0
  3  5  1  1  0  0  0
  3  2  1  0  0  0  0
  4 14  1  6  0  0  0
  6 54  1  1  0  0  0
  6  8  1  0  0  0  0
  7  1  1  6  0  0  0
  7  6  1  0  0  0  0
  7  2  1  0  0  0  0
  8  4  1  0  0  0  0
  9 35  1  6  0  0  0
  9  3  1  0  0  0  0
 10  1  1  0  0  0  0
 11  9  1  0  0  0  0
 11 10  1  0  0  0  0
 12  4  1  0  0  0  0
 13 15  2  0  0  0  0
 13 16  1  0  0  0  0
 14 13  1  0  0  0  0
 17 19  1  0  0  0  0
 18 17  2  0  0  0  0
 20 21  2  0  0  0  0
 20 18  1  0  0  0  0
 21 22  1  0  0  0  0
 22 16  1  0  0  0  0
 22 19  2  0  0  0  0
 23 29  1  1  0  0  0
 23 18  1  0  0  0  0
 23 27  1  0  0  0  0
 24 28  1  0  0  0  0
 25 28  2  0  0  0  0
 26 27  1  0  0  0  0
 26 25  1  0  0  0  0
 27 24  2  0  0  0  0
 30 29  1  0  0  0  0
 31 30  1  0  0  0  0
 32 33  1  0  0  0  0
 33 31  1  0  0  0  0
 35 34  1  1  0  0  0
 36 37  1  6  0  0  0
 36 35  1  0  0  0  0
 38 36  1  0  0  0  0
 39 40  1  0  0  0  0
 39 38  1  0  0  0  0
 41 40  1  0  0  0  0
 42 45  1  0  0  0  0
 43 51  1  0  0  0  0
 44 49  1  0  0  0  0
 44 52  1  0  0  0  0
 46 53  1  1  0  0  0
 46 50  1  0  0  0  0
 48 42  2  0  0  0  0
 49 46  1  0  0  0  0
 50 45  1  0  0  0  0
 51 42  1  0  0  0  0
 51 47  1  1  0  0  0
 52 41  1  6  0  0  0
 52 51  1  0  0  0  0
 55 54  1  0  0  0  0
 56 55  1  0  0  0  0
M  END
>  <MODEL>
7

>  <REMARK>
 VINA RESULT:      -6.1      1.925      3.726
  Name = 
  18 active torsions:
  status: ('A' for Active; 'I' for Inactive)
    1  A    between atoms: C_5  and  C_31
    2  A    between atoms: N_7  and  C_29
    3  A    between atoms: C_11  and  C_27
    4  A    between atoms: C_12  and  C_33
    5  A    between atoms: C_12  and  N_50
    6  A    between atoms: C_16  and  N_50
    7  A    between atoms: C_16  and  C_53
    8  A    between atoms: C_19  and  C_22
    9  A    between atoms: C_19  and  C_38
   10  A    between atoms: C_22  and  C_37
   11  A    between atoms: C_25  and  C_37
   12  A    between atoms: C_27  and  C_41
   13  A    between atoms: C_31  and  C_52
   14  A    between atoms: C_32  and  C_37
   15  A    between atoms: C_33  and  C_46
   16  A    between atoms: C_38  and  C_42
   17  A    between atoms: C_47  and  O_56
   18  A    between atoms: C_53  and  O_56
                            x       y       z     vdW  Elec       q    Type
                         _______ _______ _______ _____ _____    ______ ____

>  <TORSDO>
F 18

$$$$
=
 OpenBabel11042413293D

 56 60  0  0  1  0  0  0  0  0999 V2000
  182.8530  177.7500  140.5140 O   0  0  0  0  0  0  0  0  0  0  0  0
  182.3350  178.2530  142.8870 C   0  0  1  0  0  3  0  0  0  0  0  0
  181.2640  179.2940  142.5310 C   0  0  2  0  0  3  0  0  0  0  0  0
  184.5750  179.4220  143.9750 C   0  0  1  0  0  3  0  0  0  0  0  0
  180.3700  179.4400  143.5920 O   0  0  0  0  0  1  0  0  0  0  0  0
  184.2820  179.2940  141.6380 C   0  0  1  0  0  3  0  0  0  0  0  0
  183.3980  178.0480  141.7850 C   0  0  2  0  0  3  0  0  0  0  0  0
  184.3810  180.1400  142.7730 O   0  0  0  0  0  0  0  0  0  0  0  0
  180.4590  178.9710  141.2500 C   0  0  2  0  0  3  0  0  0  0  0  0
  181.8130  176.8180  140.6580 C   0  0  0  0  0  2  0  0  0  0  0  0
  180.4500  177.5260  140.7050 C   0  0  0  0  0  2  0  0  0  0  0  0
  183.0870  178.5220  144.5320 S   0  0  0  0  0  0  0  0  0  0  0  0
  186.4660  178.1940  145.1080 C   0  0  0  0  0  0  0  0  0  0  0  0
  185.7430  178.5510  143.9290 N   0  0  0  0  0  2  0  0  0  0  0  0
  186.2130  178.7480  146.2110 O   0  0  0  0  0  0  0  0  0  0  0  0
  187.5130  177.1340  145.0400 C   0  0  0  0  0  2  0  0  0  0  0  0
  189.3900  176.1550  141.9000 C   0  0  0  0  0  3  0  0  0  0  0  0
  189.7000  177.4110  141.3560 C   0  0  0  0  0  0  0  0  0  0  0  0
  188.6710  176.0650  143.0950 C   0  0  0  0  0  3  0  0  0  0  0  0
  189.2700  178.5730  142.0080 C   0  0  0  0  0  3  0  0  0  0  0  0
  188.5490  178.4820  143.2020 C   0  0  0  0  0  3  0  0  0  0  0  0
  188.2470  177.2290  143.7460 C   0  0  0  0  0  0  0  0  0  0  0  0
  190.4590  177.5390  140.0710 C   0  0  2  0  0  3  0  0  0  0  0  0
  189.3500  178.8270  138.2950 N   0  0  0  0  0  0  0  0  0  0  0  0
  188.0160  177.1450  137.3020 C   0  0  0  0  0  3  0  0  0  0  0  0
  188.7890  176.6690  138.3880 O   0  0  0  0  0  0  0  0  0  0  0  0
  189.5200  177.7100  138.9120 C   0  0  0  0  0  0  0  0  0  0  0  0
  188.4010  178.6250  137.2080 C   0  0  0  0  0  3  0  0  0  0  0  0
  191.4210  176.3730  139.8780 C   0  0  0  0  0  2  0  0  0  0  0  0
  192.3740  176.6520  138.7270 C   0  0  0  0  0  2  0  0  0  0  0  0
  192.6450  175.3750  137.9500 C   0  0  0  0  0  2  0  0  0  0  0  0
  194.1550  176.7590  136.6130 N   0  0  0  0  0  1  0  0  0  0  0  0
  193.1940  175.6730  136.5600 C   0  0  0  0  0  2  0  0  0  0  0  0
  179.5250  181.2010  140.4160 C   0  0  0  0  0  1  0  0  0  0  0  0
  180.4850  180.0450  140.1550 C   0  0  2  0  0  3  0  0  0  0  0  0
  180.2990  179.4570  138.7550 C   0  0  1  0  0  3  0  0  0  0  0  0
  179.2670  180.1210  138.0730 O   0  0  0  0  0  1  0  0  0  0  0  0
  181.5500  179.5580  138.0080 N   0  0  0  0  0  2  0  0  0  0  0  0
  181.5010  178.6290  136.8880 C   0  0  0  0  0  2  0  0  0  0  0  0
  182.5150  177.5090  137.0720 C   0  0  0  0  0  2  0  0  0  0  0  0
  181.8810  176.2830  137.3320 O   0  0  0  0  0  0  0  0  0  0  0  0
  183.1310  173.0260  135.8610 C   0  0  0  0  0  0  0  0  0  0  0  0
  181.7330  174.7440  134.9620 O   0  0  0  0  0  1  0  0  0  0  0  0
  184.1050  175.9110  136.4480 C   0  0  0  0  0  2  0  0  0  0  0  0
  183.9930  172.3740  136.9190 C   0  0  0  0  0  2  0  0  0  0  0  0
  185.6740  174.3470  136.9990 C   0  0  1  0  0  3  0  0  0  0  0  0
  180.9760  173.5970  136.8910 C   0  0  0  0  0  1  0  0  0  0  0  0
  183.1770  172.5650  134.7300 O   0  0  0  0  0  0  0  0  0  0  0  0
  184.9860  174.9470  135.9260 O   0  0  0  0  0  0  0  0  0  0  0  0
  184.7950  173.3540  137.7830 C   0  0  0  0  0  2  0  0  0  0  0  0
  182.1770  174.1750  136.1610 C   0  0  1  0  0  0  0  0  0  0  0  0
  182.8180  175.2810  137.0320 C   0  0  2  0  0  3  0  0  0  0  0  0
  186.7990  173.6850  136.5120 O   0  0  0  0  0  1  0  0  0  0  0  0
  185.6350  178.9810  141.0070 C   0  0  0  0  0  2  0  0  0  0  0  0
  185.4800  178.6580  139.5310 C   0  0  0  0  0  2  0  0  0  0  0  0
  184.8710  179.7280  138.8720 O   0  0  0  0  0  1  0  0  0  0  0  0
  1 10  1  0  0  0  0
  2 12  1  1  0  0  0
  3  2  1  0  0  0  0
  3  5  1  1  0  0  0
  4 14  1  6  0  0  0
  4 12  1  0  0  0  0
  6 54  1  1  0  0  0
  6  7  1  0  0  0  0
  6  8  1  0  0  0  0
  7  1  1  6  0  0  0
  7  2  1  0  0  0  0
  8  4  1  0  0  0  0
  9 35  1  6  0  0  0
  9  3  1  0  0  0  0
 10 11  1  0  0  0  0
 11  9  1  0  0  0  0
 13 15  2  0  0  0  0
 14 13  1  0  0  0  0
 16 13  1  0  0  0  0
 17 19  1  0  0  0  0
 18 17  2  0  0  0  0
 18 20  1  0  0  0  0
 19 22  2  0  0  0  0
 20 21  2  0  0  0  0
 21 22  1  0  0  0  0
 22 16  1  0  0  0  0
 23 29  1  6  0  0  0
 23 18  1  0  0  0  0
 24 27  2  0  0  0  0
 25 26  1  0  0  0  0
 26 27  1  0  0  0  0
 27 23  1  0  0  0  0
 28 25  2  0  0  0  0
 28 24  1  0  0  0  0
 30 29  1  0  0  0  0
 31 30  1  0  0  0  0
 33 32  1  0  0  0  0
 33 31  1  0  0  0  0
 35 34  1  1  0  0  0
 36 37  1  6  0  0  0
 36 35  1  0  0  0  0
 38 36  1  0  0  0  0
 39 40  1  0  0  0  0
 39 38  1  0  0  0  0
 40 41  1  0  0  0  0
 42 51  1  0  0  0  0
 42 45  1  0  0  0  0
 43 51  1  0  0  0  0
 44 52  1  0  0  0  0
 45 50  1  0  0  0  0
 46 53  1  6  0  0  0
 46 50  1  0  0  0  0
 48 42  2  0  0  0  0
 49 44  1  0  0  0  0
 49 46  1  0  0  0  0
 51 47  1  1  0  0  0
 51 52  1  0  0  0  0
 52 41  1  6  0  0  0
 55 54  1  0  0  0  0
 56 55  1  0  0  0  0
M  END
>  <MODEL>
8

>  <REMARK>
 VINA RESULT:      -6.0      2.678      5.141
  Name = 
  18 active torsions:
  status: ('A' for Active; 'I' for Inactive)
    1  A    between atoms: C_5  and  C_31
    2  A    between atoms: N_7  and  C_29
    3  A    between atoms: C_11  and  C_27
    4  A    between atoms: C_12  and  C_33
    5  A    between atoms: C_12  and  N_50
    6  A    between atoms: C_16  and  N_50
    7  A    between atoms: C_16  and  C_53
    8  A    between atoms: C_19  and  C_22
    9  A    between atoms: C_19  and  C_38
   10  A    between atoms: C_22  and  C_37
   11  A    between atoms: C_25  and  C_37
   12  A    between atoms: C_27  and  C_41
   13  A    between atoms: C_31  and  C_52
   14  A    between atoms: C_32  and  C_37
   15  A    between atoms: C_33  and  C_46
   16  A    between atoms: C_38  and  C_42
   17  A    between atoms: C_47  and  O_56
   18  A    between atoms: C_53  and  O_56
                            x       y       z     vdW  Elec       q    Type
                         _______ _______ _______ _____ _____    ______ ____

>  <TORSDO>
F 18

$$$$
=
 OpenBabel11042413293D

 56 60  0  0  1  0  0  0  0  0999 V2000
  184.6380  177.7800  137.0270 O   0  0  0  0  0  0  0  0  0  0  0  0
  185.0090  175.3640  137.4510 C   0  0  1  0  0  3  0  0  0  0  0  0
  186.4800  175.4170  137.0170 C   0  0  2  0  0  3  0  0  0  0  0  0
  183.4600  173.9780  135.6470 C   0  0  1  0  0  3  0  0  0  0  0  0
  187.1870  174.3630  137.5960 O   0  0  0  0  0  1  0  0  0  0  0  0
  183.9690  176.2580  135.3160 C   0  0  1  0  0  3  0  0  0  0  0  0
  184.1330  176.4730  136.8270 C   0  0  2  0  0  3  0  0  0  0  0  0
  184.1300  174.9300  134.8430 O   0  0  0  0  0  0  0  0  0  0  0  0
  187.2010  176.7410  137.3620 C   0  0  2  0  0  3  0  0  0  0  0  0
  185.0860  177.9100  138.3520 C   0  0  0  0  0  2  0  0  0  0  0  0
  186.6010  177.6720  138.4390 C   0  0  0  0  0  2  0  0  0  0  0  0
  184.2600  173.7060  137.2660 S   0  0  0  0  0  0  0  0  0  0  0  0
  181.1660  173.3990  136.5230 C   0  0  0  0  0  0  0  0  0  0  0  0
  182.0390  174.2620  135.7910 N   0  0  0  0  0  2  0  0  0  0  0  0
  181.5680  172.2800  136.9370 O   0  0  0  0  0  0  0  0  0  0  0  0
  179.7750  173.8410  136.8270 C   0  0  0  0  0  2  0  0  0  0  0  0
  180.6790  176.3140  139.5480 C   0  0  0  0  0  3  0  0  0  0  0  0
  179.8030  177.3730  139.2670 C   0  0  0  0  0  0  0  0  0  0  0  0
  180.6750  175.1680  138.7490 C   0  0  0  0  0  3  0  0  0  0  0  0
  178.9360  177.2820  138.1710 C   0  0  0  0  0  3  0  0  0  0  0  0
  178.9350  176.1370  137.3700 C   0  0  0  0  0  3  0  0  0  0  0  0
  179.8050  175.0790  137.6570 C   0  0  0  0  0  0  0  0  0  0  0  0
  179.7920  178.6190  140.0990 C   0  0  2  0  0  3  0  0  0  0  0  0
  181.2210  179.8920  138.5560 N   0  0  0  0  0  0  0  0  0  0  0  0
  179.9480  181.8700  138.3110 C   0  0  0  0  0  3  0  0  0  0  0  0
  179.3420  180.9250  139.1740 O   0  0  0  0  0  0  0  0  0  0  0  0
  180.1520  179.8170  139.2690 C   0  0  0  0  0  0  0  0  0  0  0  0
  181.2340  181.1720  137.8590 C   0  0  0  0  0  3  0  0  0  0  0  0
  180.6780  178.4700  141.3300 C   0  0  0  0  0  2  0  0  0  0  0  0
  179.8510  178.5870  142.6000 C   0  0  0  0  0  2  0  0  0  0  0  0
  180.7630  178.6820  143.8120 C   0  0  0  0  0  2  0  0  0  0  0  0
  183.0220  179.5900  144.0570 N   0  0  0  0  0  1  0  0  0  0  0  0
  182.2300  178.5550  143.4180 C   0  0  0  0  0  2  0  0  0  0  0  0
  187.8790  176.6650  134.8980 C   0  0  0  0  0  1  0  0  0  0  0  0
  187.8320  177.4880  136.1800 C   0  0  2  0  0  3  0  0  0  0  0  0
  189.1990  178.0810  136.5260 C   0  0  1  0  0  3  0  0  0  0  0  0
  189.0560  179.3560  137.0940 O   0  0  0  0  0  1  0  0  0  0  0  0
  189.9040  177.1900  137.4440 N   0  0  0  0  0  2  0  0  0  0  0  0
  190.2340  177.9320  138.6530 C   0  0  0  0  0  2  0  0  0  0  0  0
  190.2710  177.0070  139.8610 C   0  0  0  0  0  2  0  0  0  0  0  0
  189.0780  177.0800  140.5970 O   0  0  0  0  0  0  0  0  0  0  0  0
  188.5660  177.6820  144.3000 C   0  0  0  0  0  0  0  0  0  0  0  0
  187.3410  176.3760  142.7170 O   0  0  0  0  0  1  0  0  0  0  0  0
  190.3320  176.0130  142.3730 C   0  0  0  0  0  2  0  0  0  0  0  0
  189.6830  178.5970  144.7500 C   0  0  0  0  0  2  0  0  0  0  0  0
  191.5460  176.9210  144.0800 C   0  0  1  0  0  3  0  0  0  0  0  0
  187.4910  178.7100  142.3450 C   0  0  0  0  0  1  0  0  0  0  0  0
  187.8940  177.1400  145.1650 O   0  0  0  0  0  0  0  0  0  0  0  0
  190.5510  175.9770  143.7620 O   0  0  0  0  0  0  0  0  0  0  0  0
  191.0210  178.3690  144.0380 C   0  0  0  0  0  2  0  0  0  0  0  0
  188.2120  177.4640  142.8350 C   0  0  1  0  0  0  0  0  0  0  0  0
  189.4520  177.2110  141.9440 C   0  0  2  0  0  3  0  0  0  0  0  0
  192.0510  176.6490  145.3500 O   0  0  0  0  0  1  0  0  0  0  0  0
  182.7270  176.9440  134.7590 C   0  0  0  0  0  2  0  0  0  0  0  0
  182.0920  177.8430  135.8050 C   0  0  0  0  0  2  0  0  0  0  0  0
  180.8590  178.3120  135.3450 O   0  0  0  0  0  1  0  0  0  0  0  0
  1 10  1  0  0  0  0
  2 12  1  6  0  0  0
  3  9  1  0  0  0  0
  3  2  1  0  0  0  0
  3  5  1  1  0  0  0
  4 14  1  1  0  0  0
  4 12  1  0  0  0  0
  6 54  1  1  0  0  0
  6  7  1  0  0  0  0
  7  1  1  6  0  0  0
  7  2  1  0  0  0  0
  8  6  1  0  0  0  0
  8  4  1  0  0  0  0
  9 35  1  6  0  0  0
  9 11  1  0  0  0  0
 10 11  1  0  0  0  0
 13 16  1  0  0  0  0
 13 15  2  0  0  0  0
 14 13  1  0  0  0  0
 16 22  1  0  0  0  0
 18 17  1  0  0  0  0
 18 23  1  0  0  0  0
 19 17  2  0  0  0  0
 20 18  2  0  0  0  0
 21 22  2  0  0  0  0
 21 20  1  0  0  0  0
 22 19  1  0  0  0  0
 23 29  1  1  0  0  0
 24 27  2  0  0  0  0
 25 26  1  0  0  0  0
 26 27  1  0  0  0  0
 27 23  1  0  0  0  0
 28 25  2  0  0  0  0
 28 24  1  0  0  0  0
 29 30  1  0  0  0  0
 30 31  1  0  0  0  0
 33 31  1  0  0  0  0
 33 32  1  0  0  0  0
 35 34  1  6  0  0  0
 35 36  1  0  0  0  0
 36 37  1  1  0  0  0
 36 38  1  0  0  0  0
 38 39  1  0  0  0  0
 39 40  1  0  0  0  0
 40 41  1  0  0  0  0
 42 45  1  0  0  0  0
 42 48  2  0  0  0  0
 43 51  1  0  0  0  0
 44 49  1  0  0  0  0
 46 53  1  1  0  0  0
 49 46  1  0  0  0  0
 50 46  1  0  0  0  0
 50 45  1  0  0  0  0
 51 47  1  6  0  0  0
 51 42  1  0  0  0  0
 52 41  1  6  0  0  0
 52 44  1  0  0  0  0
 52 51  1  0  0  0  0
 54 55  1  0  0  0  0
 56 55  1  0  0  0  0
M  END
>  <MODEL>
9

>  <REMARK>
 VINA RESULT:      -5.7      3.024      8.897
  Name = 
  18 active torsions:
  status: ('A' for Active; 'I' for Inactive)
    1  A    between atoms: C_5  and  C_31
    2  A    between atoms: N_7  and  C_29
    3  A    between atoms: C_11  and  C_27
    4  A    between atoms: C_12  and  C_33
    5  A    between atoms: C_12  and  N_50
    6  A    between atoms: C_16  and  N_50
    7  A    between atoms: C_16  and  C_53
    8  A    between atoms: C_19  and  C_22
    9  A    between atoms: C_19  and  C_38
   10  A    between atoms: C_22  and  C_37
   11  A    between atoms: C_25  and  C_37
   12  A    between atoms: C_27  and  C_41
   13  A    between atoms: C_31  and  C_52
   14  A    between atoms: C_32  and  C_37
   15  A    between atoms: C_33  and  C_46
   16  A    between atoms: C_38  and  C_42
   17  A    between atoms: C_47  and  O_56
   18  A    between atoms: C_53  and  O_56
                            x       y       z     vdW  Elec       q    Type
                         _______ _______ _______ _____ _____    ______ ____

>  <TORSDO>
F 18

$$$$
