=
 OpenBabel11032421313D

 60 65  0  0  1  0  0  0  0  0999 V2000
  183.4590  178.9470  143.2670 C   0  0  0  0  0  0  0  0  0  0  0  0
  182.0280  178.5680  143.0600 C   0  0  1  0  0  3  0  0  0  0  0  0
  181.1350  179.5560  143.7950 C   0  0  0  0  0  1  0  0  0  0  0  0
  186.3990  178.1460  138.3580 C   0  0  0  0  0  0  0  0  0  0  0  0
  180.2410  178.3400  141.2210 C   0  0  0  0  0  3  0  0  0  0  0  0
  181.9700  178.0150  138.2080 N   0  0  0  0  0  0  0  0  0  0  0  0
  183.3550  178.2670  138.3570 N   0  0  2  0  0  0  0  0  0  0  0  0
  185.4140  178.0640  137.2190 C   0  0  0  0  0  2  0  0  0  0  0  0
  185.0470  178.8030  141.5900 O   0  0  0  0  0  0  0  0  0  0  0  0
  184.0450  178.5850  144.3660 N   0  0  0  0  0  0  0  0  0  0  0  0
  184.1400  177.3330  137.5850 C   0  0  0  0  0  2  0  0  0  0  0  0
  181.5850  178.3890  141.6260 C   0  0  0  0  0  0  0  0  0  0  0  0
  184.2070  179.7100  142.2260 C   0  0  0  0  0  2  0  0  0  0  0  0
  184.8290  178.9280  140.2140 C   0  0  2  0  0  3  0  0  0  0  0  0
  180.1780  178.1730  139.9110 O   0  0  0  0  0  0  0  0  0  0  0  0
  182.3160  178.2030  140.4550 C   0  0  0  0  0  0  0  0  0  0  0  0
  183.6560  178.0270  139.7870 C   0  0  1  0  0  3  0  0  0  0  0  0
  181.4120  178.0940  139.4970 C   0  0  0  0  0  0  0  0  0  0  0  0
  186.0860  178.5110  139.5730 N   0  0  0  0  0  0  0  0  0  0  0  0
  180.6670  177.1790  136.2830 C   0  0  0  0  0  3  0  0  0  0  0  0
  179.8160  178.7090  134.6100 C   0  0  0  0  0  3  0  0  0  0  0  0
  180.3860  179.7790  135.3030 C   0  0  0  0  0  3  0  0  0  0  0  0
  179.9560  177.4080  135.1010 C   0  0  0  0  0  3  0  0  0  0  0  0
  181.2400  178.2480  136.9890 C   0  0  0  0  0  0  0  0  0  0  0  0
  181.0950  179.5500  136.4860 C   0  0  0  0  0  3  0  0  0  0  0  0
  187.7420  177.8450  138.1160 O   0  0  0  0  0  0  0  0  0  0  0  0
  188.5160  178.4390  137.0790 C   0  0  1  0  0  3  0  0  0  0  0  0
  189.0260  179.6690  137.5040 O   0  0  0  0  0  1  0  0  0  0  0  0
  189.6600  177.5070  136.6960 C   0  0  0  0  0  2  0  0  0  0  0  0
  189.9910  176.5510  137.8380 C   0  0  0  0  0  2  0  0  0  0  0  0
  190.4210  175.2610  137.3070 N   0  0  0  0  0  0  0  0  0  0  0  0
  192.5220  174.1890  136.7750 C   0  0  0  0  0  3  0  0  0  0  0  0
  191.6740  174.6700  137.6820 C   0  0  0  0  0  3  0  0  0  0  0  0
  193.8160  173.5600  137.1690 C   0  0  1  0  0  3  0  0  0  0  0  0
  193.9430  172.2070  136.5310 C   0  0  0  0  0  0  0  0  0  0  0  0
  192.9690  171.7680  135.7350 C   0  0  0  0  0  2  0  0  0  0  0  0
  195.2320  171.4550  136.5820 C   0  0  0  0  0  1  0  0  0  0  0  0
  194.9330  174.4110  136.7820 N   0  0  0  0  0  2  0  0  0  0  0  0
  196.1480  175.1390  140.0770 O   0  0  0  0  0  0  0  0  0  0  0  0
  195.8160  174.4770  139.0590 C   0  0  0  0  0  3  0  0  0  0  0  0
  195.2950  175.1470  137.9170 N   0  0  0  0  0  2  0  0  0  0  0  0
  189.6920  174.7070  136.1800 C   0  0  0  0  0  2  0  0  0  0  0  0
  188.7190  173.6340  136.6440 C   0  0  0  0  0  2  0  0  0  0  0  0
  187.8220  173.3290  135.6210 O   0  0  0  0  0  1  0  0  0  0  0  0
  185.3730  178.8630  144.6120 O   0  0  0  0  0  0  0  0  0  0  0  0
  186.0040  178.3910  145.7630 C   0  0  0  0  0  0  0  0  0  0  0  0
  185.6780  178.9050  146.9400 C   0  0  0  0  0  2  0  0  0  0  0  0
  187.0450  177.3200  145.6950 C   0  0  0  0  0  2  0  0  0  0  0  0
  188.4410  177.9080  145.8720 C   0  0  2  0  0  3  0  0  0  0  0  0
  190.4640  178.5180  144.4440 C   0  0  0  0  0  2  0  0  0  0  0  0
  187.7190  176.1070  143.6380 O   0  0  0  0  0  1  0  0  0  0  0  0
  188.5780  177.1900  143.4370 C   0  0  1  0  0  3  0  0  0  0  0  0
  189.3630  177.4920  144.7190 C   0  0  2  0  0  3  0  0  0  0  0  0
  190.1860  175.6660  142.4310 O   0  0  0  0  0  1  0  0  0  0  0  0
  189.5400  176.8990  142.2750 C   0  0  2  0  0  3  0  0  0  0  0  0
  191.2860  178.0490  143.2470 C   0  0  0  0  0  2  0  0  0  0  0  0
  190.4730  177.9480  142.0960 O   0  0  0  0  0  0  0  0  0  0  0  0
  189.6870  176.4190  147.4460 O   0  0  0  0  0  0  0  0  0  0  0  0
  188.8480  178.4180  148.1860 O   0  0  0  0  0  1  0  0  0  0  0  0
  189.0110  177.6140  147.2310 C   0  0  0  0  0  0  0  0  0  0  0  0
  1 10  2  0  0  0  0
  2  1  1  0  0  0  0
  2  3  1  6  0  0  0
  4 19  2  0  0  0  0
  5 12  2  0  0  0  0
  6  7  1  0  0  0  0
  6 18  1  0  0  0  0
  7 11  1  6  0  0  0
  7 17  1  0  0  0  0
  8 11  1  0  0  0  0
  8  4  1  0  0  0  0
  9 13  1  0  0  0  0
 10 45  1  0  0  0  0
 12  2  1  0  0  0  0
 13  1  1  0  0  0  0
 14 19  1  6  0  0  0
 14  9  1  0  0  0  0
 15  5  1  0  0  0  0
 16 12  1  0  0  0  0
 17 14  1  0  0  0  0
 17 16  1  1  0  0  0
 18 15  1  0  0  0  0
 18 16  2  0  0  0  0
 20 24  1  0  0  0  0
 21 23  1  0  0  0  0
 21 22  2  0  0  0  0
 22 25  1  0  0  0  0
 23 20  2  0  0  0  0
 24  6  1  0  0  0  0
 25 24  2  0  0  0  0
 26  4  1  0  0  0  0
 27 28  1  1  0  0  0
 27 26  1  0  0  0  0
 29 27  1  0  0  0  0
 29 30  1  0  0  0  0
 31 33  1  0  0  0  0
 31 30  1  0  0  0  0
 32 33  2  0  0  0  0
 34 32  1  6  0  0  0
 35 37  1  0  0  0  0
 35 34  1  0  0  0  0
 36 35  2  0  0  0  0
 38 34  1  0  0  0  0
 38 41  1  0  0  0  0
 40 39  2  0  0  0  0
 41 40  1  0  0  0  0
 42 43  1  0  0  0  0
 42 31  1  0  0  0  0
 44 43  1  0  0  0  0
 45 46  1  0  0  0  0
 46 47  2  0  0  0  0
 48 46  1  0  0  0  0
 49 48  1  6  0  0  0
 49 60  1  0  0  0  0
 50 53  1  0  0  0  0
 52 51  1  1  0  0  0
 52 53  1  0  0  0  0
 53 49  1  1  0  0  0
 55 54  1  1  0  0  0
 55 52  1  0  0  0  0
 56 50  1  0  0  0  0
 57 55  1  0  0  0  0
 57 56  1  0  0  0  0
 60 58  2  0  0  0  0
 60 59  1  0  0  0  0
M  END
>  <MODEL>
1

>  <REMARK>
 VINA RESULT:      -8.1      0.000      0.000
  Name = 
  19 active torsions:
  status: ('A' for Active; 'I' for Inactive)
    1  A    between atoms: C_1  and  C_12
    2  A    between atoms: N_5  and  C_12
    3  A    between atoms: N_5  and  N_58
    4  A    between atoms: C_8  and  C_32
    5  A    between atoms: C_8  and  C_50
    6  A    between atoms: C_9  and  C_12
    7  A    between atoms: C_10  and  O_57
    8  A    between atoms: N_15  and  C_51
    9  A    between atoms: C_16  and  C_42
   10  A    between atoms: O_18  and  N_27
   11  A    between atoms: O_18  and  C_32
   12  A    between atoms: C_19  and  C_49
   13  A    between atoms: C_19  and  O_57
   14  A    between atoms: N_24  and  C_37
   15  A    between atoms: N_24  and  C_38
   16  A    between atoms: N_24  and  C_42
   17  A    between atoms: C_28  and  C_50
   18  A    between atoms: C_36  and  C_50
   19  A    between atoms: C_37  and  C_49
                            x       y       z     vdW  Elec       q    Type
                         _______ _______ _______ _____ _____    ______ ____

>  <TORSDO>
F 19

$$$$
=
 OpenBabel11032421313D

 60 65  0  0  1  0  0  0  0  0999 V2000
  190.2500  177.5240  139.4030 C   0  0  0  0  0  0  0  0  0  0  0  0
  191.0850  176.8680  140.4540 C   0  0  1  0  0  3  0  0  0  0  0  0
  192.4980  177.4270  140.3940 C   0  0  0  0  0  1  0  0  0  0  0  0
  184.9640  178.5510  141.4970 C   0  0  0  0  0  0  0  0  0  0  0  0
  191.3020  176.6290  143.0080 C   0  0  0  0  0  3  0  0  0  0  0  0
  188.1690  177.3980  144.3350 N   0  0  0  0  0  0  0  0  0  0  0  0
  187.2930  177.9360  143.3610 N   0  0  2  0  0  0  0  0  0  0  0  0
  185.0260  178.4880  143.0030 C   0  0  0  0  0  2  0  0  0  0  0  0
  188.0460  178.1380  139.7570 O   0  0  0  0  0  0  0  0  0  0  0  0
  190.3210  177.0810  138.1860 N   0  0  0  0  0  0  0  0  0  0  0  0
  185.9570  177.4110  143.5150 C   0  0  0  0  0  2  0  0  0  0  0  0
  190.5390  176.9070  141.8620 C   0  0  0  0  0  0  0  0  0  0  0  0
  189.3370  178.6540  139.7440 C   0  0  0  0  0  2  0  0  0  0  0  0
  187.4630  178.5050  140.9730 C   0  0  2  0  0  3  0  0  0  0  0  0
  190.5450  176.7440  144.0850 O   0  0  0  0  0  0  0  0  0  0  0  0
  189.2570  177.1650  142.3440 C   0  0  0  0  0  0  0  0  0  0  0  0
  187.8080  177.4670  142.0550 C   0  0  1  0  0  3  0  0  0  0  0  0
  189.3530  177.0560  143.6570 C   0  0  0  0  0  0  0  0  0  0  0  0
  186.0140  178.5540  140.7200 N   0  0  0  0  0  0  0  0  0  0  0  0
  189.2250  177.5780  146.5610 C   0  0  0  0  0  3  0  0  0  0  0  0
  187.9470  178.3260  148.4770 C   0  0  0  0  0  3  0  0  0  0  0  0
  186.8160  178.4580  147.6680 C   0  0  0  0  0  3  0  0  0  0  0  0
  189.1520  177.8860  147.9230 C   0  0  0  0  0  3  0  0  0  0  0  0
  188.0950  177.7120  145.7380 C   0  0  0  0  0  0  0  0  0  0  0  0
  186.8900  178.1520  146.3060 C   0  0  0  0  0  3  0  0  0  0  0  0
  183.7160  178.6420  140.8730 O   0  0  0  0  0  0  0  0  0  0  0  0
  183.4330  179.5140  139.7850 C   0  0  1  0  0  3  0  0  0  0  0  0
  184.6210  179.9300  139.1780 O   0  0  0  0  0  1  0  0  0  0  0  0
  182.5540  178.7950  138.7680 C   0  0  0  0  0  2  0  0  0  0  0  0
  183.4020  178.1120  137.7000 C   0  0  0  0  0  2  0  0  0  0  0  0
  182.6020  177.1320  136.9720 N   0  0  0  0  0  0  0  0  0  0  0  0
  184.0270  175.2040  137.2870 C   0  0  0  0  0  3  0  0  0  0  0  0
  183.1520  175.8760  136.5430 C   0  0  0  0  0  3  0  0  0  0  0  0
  184.6090  173.9080  136.8310 C   0  0  1  0  0  3  0  0  0  0  0  0
  186.0700  173.8550  137.1720 C   0  0  0  0  0  0  0  0  0  0  0  0
  186.6760  172.6730  137.2630 C   0  0  0  0  0  2  0  0  0  0  0  0
  186.9010  175.0970  137.1760 C   0  0  0  0  0  1  0  0  0  0  0  0
  183.9030  172.7900  137.4450 N   0  0  0  0  0  2  0  0  0  0  0  0
  181.1990  171.0450  135.8640 O   0  0  0  0  0  0  0  0  0  0  0  0
  181.8970  171.5700  136.7700 C   0  0  0  0  0  3  0  0  0  0  0  0
  183.1300  172.1990  136.4390 N   0  0  0  0  0  2  0  0  0  0  0  0
  181.3180  177.5540  136.4410 C   0  0  0  0  0  2  0  0  0  0  0  0
  181.5080  178.4660  135.2380 C   0  0  0  0  0  2  0  0  0  0  0  0
  180.5950  179.5190  135.2890 O   0  0  0  0  0  1  0  0  0  0  0  0
  189.5530  177.6080  137.1690 O   0  0  0  0  0  0  0  0  0  0  0  0
  189.6570  177.1240  135.8650 C   0  0  0  0  0  0  0  0  0  0  0  0
  188.6440  177.2930  135.0270 C   0  0  0  0  0  2  0  0  0  0  0  0
  190.8870  176.4170  135.3940 C   0  0  0  0  0  2  0  0  0  0  0  0
  191.2930  175.3230  136.3770 C   0  0  2  0  0  3  0  0  0  0  0  0
  192.9490  173.4320  135.9500 C   0  0  0  0  0  2  0  0  0  0  0  0
  193.6330  176.8000  137.4270 O   0  0  0  0  0  1  0  0  0  0  0  0
  193.6410  175.4050  137.3490 C   0  0  1  0  0  3  0  0  0  0  0  0
  192.7630  174.9310  136.1850 C   0  0  2  0  0  3  0  0  0  0  0  0
  195.7440  175.5330  136.1330 O   0  0  0  0  0  1  0  0  0  0  0  0
  195.0780  174.8890  137.1830 C   0  0  2  0  0  3  0  0  0  0  0  0
  194.4400  173.1310  135.8330 C   0  0  0  0  0  2  0  0  0  0  0  0
  195.1120  173.4820  137.0260 O   0  0  0  0  0  0  0  0  0  0  0  0
  189.7690  173.7770  135.1390 O   0  0  0  0  0  0  0  0  0  0  0  0
  190.0520  173.5360  137.4000 O   0  0  0  0  0  1  0  0  0  0  0  0
  190.3510  174.1530  136.3430 C   0  0  0  0  0  0  0  0  0  0  0  0
  1 13  1  0  0  0  0
  1  2  1  0  0  0  0
  2  3  1  1  0  0  0
  2 12  1  0  0  0  0
  4  8  1  0  0  0  0
  5 15  1  0  0  0  0
  6 24  1  0  0  0  0
  7 11  1  1  0  0  0
  7  6  1  0  0  0  0
  8 11  1  0  0  0  0
 10  1  2  0  0  0  0
 12 16  1  0  0  0  0
 12  5  2  0  0  0  0
 13  9  1  0  0  0  0
 14  9  1  6  0  0  0
 14 17  1  0  0  0  0
 16 18  2  0  0  0  0
 17 16  1  1  0  0  0
 17  7  1  0  0  0  0
 18 15  1  0  0  0  0
 18  6  1  0  0  0  0
 19 14  1  0  0  0  0
 19  4  2  0  0  0  0
 20 23  1  0  0  0  0
 22 21  1  0  0  0  0
 23 21  2  0  0  0  0
 24 25  1  0  0  0  0
 24 20  2  0  0  0  0
 25 22  2  0  0  0  0
 26  4  1  0  0  0  0
 27 28  1  6  0  0  0
 27 26  1  0  0  0  0
 29 27  1  0  0  0  0
 30 29  1  0  0  0  0
 31 30  1  0  0  0  0
 33 31  1  0  0  0  0
 33 32  2  0  0  0  0
 34 35  1  0  0  0  0
 34 32  1  1  0  0  0
 34 38  1  0  0  0  0
 35 37  1  0  0  0  0
 35 36  2  0  0  0  0
 39 40  2  0  0  0  0
 41 40  1  0  0  0  0
 41 38  1  0  0  0  0
 42 31  1  0  0  0  0
 43 44  1  0  0  0  0
 43 42  1  0  0  0  0
 45 10  1  0  0  0  0
 46 45  1  0  0  0  0
 47 46  2  0  0  0  0
 48 46  1  0  0  0  0
 49 48  1  6  0  0  0
 50 53  1  0  0  0  0
 52 51  1  6  0  0  0
 53 49  1  1  0  0  0
 53 52  1  0  0  0  0
 55 54  1  6  0  0  0
 55 52  1  0  0  0  0
 56 50  1  0  0  0  0
 56 57  1  0  0  0  0
 57 55  1  0  0  0  0
 58 60  2  0  0  0  0
 60 49  1  0  0  0  0
 60 59  1  0  0  0  0
M  END
>  <MODEL>
2

>  <REMARK>
 VINA RESULT:      -7.7      2.655      9.627
  Name = 
  19 active torsions:
  status: ('A' for Active; 'I' for Inactive)
    1  A    between atoms: C_1  and  C_12
    2  A    between atoms: N_5  and  C_12
    3  A    between atoms: N_5  and  N_58
    4  A    between atoms: C_8  and  C_32
    5  A    between atoms: C_8  and  C_50
    6  A    between atoms: C_9  and  C_12
    7  A    between atoms: C_10  and  O_57
    8  A    between atoms: N_15  and  C_51
    9  A    between atoms: C_16  and  C_42
   10  A    between atoms: O_18  and  N_27
   11  A    between atoms: O_18  and  C_32
   12  A    between atoms: C_19  and  C_49
   13  A    between atoms: C_19  and  O_57
   14  A    between atoms: N_24  and  C_37
   15  A    between atoms: N_24  and  C_38
   16  A    between atoms: N_24  and  C_42
   17  A    between atoms: C_28  and  C_50
   18  A    between atoms: C_36  and  C_50
   19  A    between atoms: C_37  and  C_49
                            x       y       z     vdW  Elec       q    Type
                         _______ _______ _______ _____ _____    ______ ____

>  <TORSDO>
F 19

$$$$
=
 OpenBabel11032421313D

 60 65  0  0  1  0  0  0  0  0999 V2000
  190.2520  177.4400  139.4700 C   0  0  0  0  0  0  0  0  0  0  0  0
  191.0830  176.7860  140.5270 C   0  0  1  0  0  3  0  0  0  0  0  0
  192.5000  177.3350  140.4620 C   0  0  0  0  0  1  0  0  0  0  0  0
  184.9730  178.5210  141.5540 C   0  0  0  0  0  0  0  0  0  0  0  0
  191.2970  176.5670  143.0830 C   0  0  0  0  0  3  0  0  0  0  0  0
  188.1690  177.3680  144.4020 N   0  0  0  0  0  0  0  0  0  0  0  0
  187.2970  177.9040  143.4240 N   0  0  2  0  0  0  0  0  0  0  0  0
  185.0340  178.4690  143.0600 C   0  0  0  0  0  2  0  0  0  0  0  0
  188.0530  178.0710  139.8180 O   0  0  0  0  0  0  0  0  0  0  0  0
  190.3210  176.9860  138.2570 N   0  0  0  0  0  0  0  0  0  0  0  0
  185.9580  177.3900  143.5820 C   0  0  0  0  0  2  0  0  0  0  0  0
  190.5360  176.8410  141.9350 C   0  0  0  0  0  0  0  0  0  0  0  0
  189.3470  178.5790  139.8020 C   0  0  0  0  0  2  0  0  0  0  0  0
  187.4720  178.4530  141.0310 C   0  0  2  0  0  3  0  0  0  0  0  0
  190.5400  176.6960  144.1590 O   0  0  0  0  0  0  0  0  0  0  0  0
  189.2560  177.1110  142.4140 C   0  0  0  0  0  0  0  0  0  0  0  0
  187.8100  177.4210  142.1210 C   0  0  1  0  0  3  0  0  0  0  0  0
  189.3510  177.0120  143.7280 C   0  0  0  0  0  0  0  0  0  0  0  0
  186.0230  178.5090  140.7770 N   0  0  0  0  0  0  0  0  0  0  0  0
  186.9060  178.1830  146.3630 C   0  0  0  0  0  3  0  0  0  0  0  0
  187.9610  178.3280  148.5380 C   0  0  0  0  0  3  0  0  0  0  0  0
  189.1520  177.8470  147.9890 C   0  0  0  0  0  3  0  0  0  0  0  0
  186.8370  178.4950  147.7240 C   0  0  0  0  0  3  0  0  0  0  0  0
  188.0970  177.6940  145.8030 C   0  0  0  0  0  0  0  0  0  0  0  0
  189.2200  177.5320  146.6290 C   0  0  0  0  0  3  0  0  0  0  0  0
  183.7260  178.6150  140.9290 O   0  0  0  0  0  0  0  0  0  0  0  0
  183.4640  179.4360  139.7960 C   0  0  1  0  0  3  0  0  0  0  0  0
  184.6610  179.9370  139.2770 O   0  0  0  0  0  1  0  0  0  0  0  0
  182.7360  178.6230  138.7320 C   0  0  0  0  0  2  0  0  0  0  0  0
  183.2620  177.1920  138.6840 C   0  0  0  0  0  2  0  0  0  0  0  0
  183.3830  176.7460  137.3000 N   0  0  0  0  0  0  0  0  0  0  0  0
  182.2680  174.6280  137.6410 C   0  0  0  0  0  3  0  0  0  0  0  0
  182.6920  175.5840  136.8170 C   0  0  0  0  0  3  0  0  0  0  0  0
  181.5650  173.4130  137.1350 C   0  0  1  0  0  3  0  0  0  0  0  0
  180.0860  173.5470  137.3560 C   0  0  0  0  0  0  0  0  0  0  0  0
  179.3330  172.4500  137.4070 C   0  0  0  0  0  2  0  0  0  0  0  0
  179.4870  174.8570  137.7510 C   0  0  0  0  0  1  0  0  0  0  0  0
  181.8520  173.2140  135.7200 N   0  0  0  0  0  2  0  0  0  0  0  0
  183.6260  170.2210  136.5910 O   0  0  0  0  0  0  0  0  0  0  0  0
  182.8110  171.1770  136.6700 C   0  0  0  0  0  3  0  0  0  0  0  0
  182.7640  172.1540  135.6370 N   0  0  0  0  0  2  0  0  0  0  0  0
  184.4310  177.3300  136.4820 C   0  0  0  0  0  2  0  0  0  0  0  0
  185.7700  177.2720  137.2020 C   0  0  0  0  0  2  0  0  0  0  0  0
  186.3840  178.5240  137.1670 O   0  0  0  0  0  1  0  0  0  0  0  0
  189.5570  177.5100  137.2350 O   0  0  0  0  0  0  0  0  0  0  0  0
  189.6870  177.0430  135.9280 C   0  0  0  0  0  0  0  0  0  0  0  0
  188.6960  177.2310  135.0680 C   0  0  0  0  0  2  0  0  0  0  0  0
  190.9220  176.3320  135.4760 C   0  0  0  0  0  2  0  0  0  0  0  0
  191.3200  175.2500  136.4750 C   0  0  2  0  0  3  0  0  0  0  0  0
  193.0170  173.3700  136.1750 C   0  0  0  0  0  2  0  0  0  0  0  0
  193.6200  176.8320  137.4590 O   0  0  0  0  0  1  0  0  0  0  0  0
  193.6560  175.4360  137.4630 C   0  0  1  0  0  3  0  0  0  0  0  0
  192.8000  174.8770  136.3200 C   0  0  2  0  0  3  0  0  0  0  0  0
  195.7680  175.5340  136.2600 O   0  0  0  0  0  1  0  0  0  0  0  0
  195.1040  174.9400  137.3400 C   0  0  2  0  0  3  0  0  0  0  0  0
  194.5160  173.0940  136.0890 C   0  0  0  0  0  2  0  0  0  0  0  0
  195.1680  173.5270  137.2660 O   0  0  0  0  0  0  0  0  0  0  0  0
  189.8820  173.6470  135.2060 O   0  0  0  0  0  0  0  0  0  0  0  0
  190.0490  173.4760  137.4850 O   0  0  0  0  0  1  0  0  0  0  0  0
  190.3960  174.0660  136.4270 C   0  0  0  0  0  0  0  0  0  0  0  0
  1 13  1  0  0  0  0
  1  2  1  0  0  0  0
  2  3  1  1  0  0  0
  2 12  1  0  0  0  0
  4  8  1  0  0  0  0
  5 15  1  0  0  0  0
  6 24  1  0  0  0  0
  7 11  1  1  0  0  0
  7  6  1  0  0  0  0
  8 11  1  0  0  0  0
 10  1  2  0  0  0  0
 12 16  1  0  0  0  0
 12  5  2  0  0  0  0
 13  9  1  0  0  0  0
 14  9  1  6  0  0  0
 14 17  1  0  0  0  0
 16 18  2  0  0  0  0
 17 16  1  1  0  0  0
 17  7  1  0  0  0  0
 18 15  1  0  0  0  0
 18  6  1  0  0  0  0
 19 14  1  0  0  0  0
 19  4  2  0  0  0  0
 20 23  1  0  0  0  0
 22 21  1  0  0  0  0
 23 21  2  0  0  0  0
 24 20  2  0  0  0  0
 24 25  1  0  0  0  0
 25 22  2  0  0  0  0
 26  4  1  0  0  0  0
 27 28  1  6  0  0  0
 27 26  1  0  0  0  0
 29 27  1  0  0  0  0
 30 29  1  0  0  0  0
 31 30  1  0  0  0  0
 33 31  1  0  0  0  0
 33 32  2  0  0  0  0
 34 35  1  0  0  0  0
 34 32  1  6  0  0  0
 35 36  2  0  0  0  0
 35 37  1  0  0  0  0
 38 34  1  0  0  0  0
 39 40  2  0  0  0  0
 41 38  1  0  0  0  0
 41 40  1  0  0  0  0
 42 43  1  0  0  0  0
 42 31  1  0  0  0  0
 44 43  1  0  0  0  0
 45 10  1  0  0  0  0
 46 45  1  0  0  0  0
 47 46  2  0  0  0  0
 48 46  1  0  0  0  0
 49 48  1  6  0  0  0
 50 53  1  0  0  0  0
 52 51  1  6  0  0  0
 53 49  1  1  0  0  0
 53 52  1  0  0  0  0
 55 54  1  6  0  0  0
 55 52  1  0  0  0  0
 56 50  1  0  0  0  0
 56 57  1  0  0  0  0
 57 55  1  0  0  0  0
 58 60  2  0  0  0  0
 60 49  1  0  0  0  0
 60 59  1  0  0  0  0
M  END
>  <MODEL>
3

>  <REMARK>
 VINA RESULT:      -7.6      2.674      9.928
  Name = 
  19 active torsions:
  status: ('A' for Active; 'I' for Inactive)
    1  A    between atoms: C_1  and  C_12
    2  A    between atoms: N_5  and  C_12
    3  A    between atoms: N_5  and  N_58
    4  A    between atoms: C_8  and  C_32
    5  A    between atoms: C_8  and  C_50
    6  A    between atoms: C_9  and  C_12
    7  A    between atoms: C_10  and  O_57
    8  A    between atoms: N_15  and  C_51
    9  A    between atoms: C_16  and  C_42
   10  A    between atoms: O_18  and  N_27
   11  A    between atoms: O_18  and  C_32
   12  A    between atoms: C_19  and  C_49
   13  A    between atoms: C_19  and  O_57
   14  A    between atoms: N_24  and  C_37
   15  A    between atoms: N_24  and  C_38
   16  A    between atoms: N_24  and  C_42
   17  A    between atoms: C_28  and  C_50
   18  A    between atoms: C_36  and  C_50
   19  A    between atoms: C_37  and  C_49
                            x       y       z     vdW  Elec       q    Type
                         _______ _______ _______ _____ _____    ______ ____

>  <TORSDO>
F 19

$$$$
=
 OpenBabel11032421313D

 60 65  0  0  1  0  0  0  0  0999 V2000
  189.5750  177.5720  139.3300 C   0  0  0  0  0  0  0  0  0  0  0  0
  190.4570  176.7500  140.2140 C   0  0  1  0  0  3  0  0  0  0  0  0
  191.9070  177.1450  139.9820 C   0  0  0  0  0  1  0  0  0  0  0  0
  184.7920  179.0530  142.2120 C   0  0  0  0  0  0  0  0  0  0  0  0
  190.9870  176.3080  142.6940 C   0  0  0  0  0  3  0  0  0  0  0  0
  188.1830  177.3380  144.4950 N   0  0  0  0  0  0  0  0  0  0  0  0
  187.2570  178.0410  143.6870 N   0  0  2  0  0  0  0  0  0  0  0  0
  185.0490  178.8760  143.6880 C   0  0  0  0  0  2  0  0  0  0  0  0
  187.5340  178.4100  140.0280 O   0  0  0  0  0  0  0  0  0  0  0  0
  189.4250  177.2100  138.0940 N   0  0  0  0  0  0  0  0  0  0  0  0
  185.8990  177.6650  144.0030 C   0  0  0  0  0  2  0  0  0  0  0  0
  190.1160  176.7530  141.6860 C   0  0  0  0  0  0  0  0  0  0  0  0
  188.8650  178.7730  139.8590 C   0  0  0  0  0  2  0  0  0  0  0  0
  187.1710  178.7550  141.3340 C   0  0  2  0  0  3  0  0  0  0  0  0
  190.4030  176.4330  143.8730 O   0  0  0  0  0  0  0  0  0  0  0  0
  188.9540  177.1220  142.3590 C   0  0  0  0  0  0  0  0  0  0  0  0
  187.5280  177.6090  142.2970 C   0  0  1  0  0  3  0  0  0  0  0  0
  189.2120  176.9100  143.6380 C   0  0  0  0  0  0  0  0  0  0  0  0
  185.7190  178.9890  141.2930 N   0  0  0  0  0  0  0  0  0  0  0  0
  189.5840  177.3650  146.5300 C   0  0  0  0  0  3  0  0  0  0  0  0
  188.6420  177.9900  148.6700 C   0  0  0  0  0  3  0  0  0  0  0  0
  187.3980  178.1810  148.0640 C   0  0  0  0  0  3  0  0  0  0  0  0
  189.7360  177.5820  147.9020 C   0  0  0  0  0  3  0  0  0  0  0  0
  188.3400  177.5580  145.9100 C   0  0  0  0  0  0  0  0  0  0  0  0
  187.2480  177.9660  146.6910 C   0  0  0  0  0  3  0  0  0  0  0  0
  183.4920  179.3310  141.7790 O   0  0  0  0  0  0  0  0  0  0  0  0
  182.3380  178.6220  142.2180 C   0  0  1  0  0  3  0  0  0  0  0  0
  182.0250  178.9780  143.5330 O   0  0  0  0  0  1  0  0  0  0  0  0
  181.1630  178.9380  141.3000 C   0  0  0  0  0  2  0  0  0  0  0  0
  180.4160  177.6650  140.9120 C   0  0  0  0  0  2  0  0  0  0  0  0
  179.8710  177.7920  139.5640 N   0  0  0  0  0  0  0  0  0  0  0  0
  180.9940  179.1340  137.8960 C   0  0  0  0  0  3  0  0  0  0  0  0
  180.0240  178.9950  138.7970 C   0  0  0  0  0  3  0  0  0  0  0  0
  181.1610  180.3930  137.1140 C   0  0  1  0  0  3  0  0  0  0  0  0
  180.4360  180.2830  135.8040 C   0  0  0  0  0  0  0  0  0  0  0  0
  180.8650  179.4120  134.8920 C   0  0  0  0  0  2  0  0  0  0  0  0
  179.1160  180.9530  135.6020 C   0  0  0  0  0  1  0  0  0  0  0  0
  180.6660  181.5340  137.8750 N   0  0  0  0  0  2  0  0  0  0  0  0
  181.8530  184.8520  137.2100 O   0  0  0  0  0  0  0  0  0  0  0  0
  181.0530  183.9010  137.4090 C   0  0  0  0  0  3  0  0  0  0  0  0
  181.5550  182.5910  137.6450 N   0  0  0  0  0  2  0  0  0  0  0  0
  178.9310  176.7830  139.1090 C   0  0  0  0  0  2  0  0  0  0  0  0
  179.6650  175.5310  138.6530 C   0  0  0  0  0  2  0  0  0  0  0  0
  179.6060  174.5550  139.6480 O   0  0  0  0  0  1  0  0  0  0  0  0
  188.5970  177.8930  137.2270 O   0  0  0  0  0  0  0  0  0  0  0  0
  188.5130  177.5360  135.8810 C   0  0  0  0  0  0  0  0  0  0  0  0
  189.5990  177.1120  135.2520 C   0  0  0  0  0  2  0  0  0  0  0  0
  187.2210  177.6240  135.1340 C   0  0  0  0  0  2  0  0  0  0  0  0
  186.4310  176.3260  135.2620 C   0  0  2  0  0  3  0  0  0  0  0  0
  185.3470  177.1870  137.4040 C   0  0  0  0  0  2  0  0  0  0  0  0
  183.9190  174.8030  134.8990 O   0  0  0  0  0  1  0  0  0  0  0  0
  184.3010  175.2650  136.1610 C   0  0  1  0  0  3  0  0  0  0  0  0
  185.1220  176.5530  136.0300 C   0  0  2  0  0  3  0  0  0  0  0  0
  182.1130  176.3040  136.3910 O   0  0  0  0  0  1  0  0  0  0  0  0
  183.0640  175.5040  137.0380 C   0  0  2  0  0  3  0  0  0  0  0  0
  184.0010  177.3160  138.1130 C   0  0  0  0  0  2  0  0  0  0  0  0
  183.4150  176.0440  138.3000 O   0  0  0  0  0  0  0  0  0  0  0  0
  187.9310  174.3520  134.9490 O   0  0  0  0  0  0  0  0  0  0  0  0
  187.3330  175.0090  137.0610 O   0  0  0  0  0  1  0  0  0  0  0  0
  187.2650  175.2070  135.8190 C   0  0  0  0  0  0  0  0  0  0  0  0
  1 13  1  0  0  0  0
  1  2  1  0  0  0  0
  2  3  1  1  0  0  0
  2 12  1  0  0  0  0
  4  8  1  0  0  0  0
  5 15  1  0  0  0  0
  6 24  1  0  0  0  0
  7 11  1  1  0  0  0
  7  6  1  0  0  0  0
  8 11  1  0  0  0  0
 10  1  2  0  0  0  0
 12 16  1  0  0  0  0
 12  5  2  0  0  0  0
 13  9  1  0  0  0  0
 14  9  1  6  0  0  0
 14 17  1  0  0  0  0
 16 18  2  0  0  0  0
 17 16  1  1  0  0  0
 17  7  1  0  0  0  0
 18 15  1  0  0  0  0
 18  6  1  0  0  0  0
 19 14  1  0  0  0  0
 19  4  2  0  0  0  0
 20 23  1  0  0  0  0
 22 21  1  0  0  0  0
 23 21  2  0  0  0  0
 24 20  2  0  0  0  0
 24 25  1  0  0  0  0
 25 22  2  0  0  0  0
 26  4  1  0  0  0  0
 26 27  1  0  0  0  0
 27 28  1  1  0  0  0
 29 27  1  0  0  0  0
 30 29  1  0  0  0  0
 31 30  1  0  0  0  0
 32 33  2  0  0  0  0
 33 31  1  0  0  0  0
 34 38  1  0  0  0  0
 34 32  1  1  0  0  0
 35 34  1  0  0  0  0
 36 35  2  0  0  0  0
 37 35  1  0  0  0  0
 39 40  2  0  0  0  0
 40 41  1  0  0  0  0
 41 38  1  0  0  0  0
 42 31  1  0  0  0  0
 43 42  1  0  0  0  0
 43 44  1  0  0  0  0
 45 10  1  0  0  0  0
 46 45  1  0  0  0  0
 47 46  2  0  0  0  0
 48 46  1  0  0  0  0
 49 48  1  1  0  0  0
 49 60  1  0  0  0  0
 50 56  1  0  0  0  0
 52 51  1  6  0  0  0
 52 55  1  0  0  0  0
 53 49  1  1  0  0  0
 53 52  1  0  0  0  0
 53 50  1  0  0  0  0
 55 54  1  6  0  0  0
 55 57  1  0  0  0  0
 56 57  1  0  0  0  0
 58 60  2  0  0  0  0
 60 59  1  0  0  0  0
M  END
>  <MODEL>
4

>  <REMARK>
 VINA RESULT:      -7.5      3.033     10.959
  Name = 
  19 active torsions:
  status: ('A' for Active; 'I' for Inactive)
    1  A    between atoms: C_1  and  C_12
    2  A    between atoms: N_5  and  C_12
    3  A    between atoms: N_5  and  N_58
    4  A    between atoms: C_8  and  C_32
    5  A    between atoms: C_8  and  C_50
    6  A    between atoms: C_9  and  C_12
    7  A    between atoms: C_10  and  O_57
    8  A    between atoms: N_15  and  C_51
    9  A    between atoms: C_16  and  C_42
   10  A    between atoms: O_18  and  N_27
   11  A    between atoms: O_18  and  C_32
   12  A    between atoms: C_19  and  C_49
   13  A    between atoms: C_19  and  O_57
   14  A    between atoms: N_24  and  C_37
   15  A    between atoms: N_24  and  C_38
   16  A    between atoms: N_24  and  C_42
   17  A    between atoms: C_28  and  C_50
   18  A    between atoms: C_36  and  C_50
   19  A    between atoms: C_37  and  C_49
                            x       y       z     vdW  Elec       q    Type
                         _______ _______ _______ _____ _____    ______ ____

>  <TORSDO>
F 19

$$$$
=
 OpenBabel11032421313D

 60 65  0  0  1  0  0  0  0  0999 V2000
  190.0170  177.5620  139.2880 C   0  0  0  0  0  0  0  0  0  0  0  0
  190.8650  176.7990  140.2540 C   0  0  1  0  0  3  0  0  0  0  0  0
  192.3080  177.2610  140.1300 C   0  0  0  0  0  1  0  0  0  0  0  0
  184.9530  178.8470  141.7530 C   0  0  0  0  0  0  0  0  0  0  0  0
  191.2150  176.4200  142.7760 C   0  0  0  0  0  3  0  0  0  0  0  0
  188.2290  177.3370  144.3300 N   0  0  0  0  0  0  0  0  0  0  0  0
  187.3380  177.9810  143.4380 N   0  0  2  0  0  0  0  0  0  0  0  0
  185.0990  178.7050  143.2480 C   0  0  0  0  0  2  0  0  0  0  0  0
  187.8890  178.3080  139.8060 O   0  0  0  0  0  0  0  0  0  0  0  0
  189.9840  177.1750  138.0500 N   0  0  0  0  0  0  0  0  0  0  0  0
  185.9790  177.5420  143.6520 C   0  0  0  0  0  2  0  0  0  0  0  0
  190.4070  176.8070  141.6940 C   0  0  0  0  0  0  0  0  0  0  0  0
  189.2100  178.7340  139.7360 C   0  0  0  0  0  2  0  0  0  0  0  0
  187.4060  178.6550  141.0720 C   0  0  2  0  0  3  0  0  0  0  0  0
  190.5330  176.5340  143.9030 O   0  0  0  0  0  0  0  0  0  0  0  0
  189.1780  177.1270  142.2660 C   0  0  0  0  0  0  0  0  0  0  0  0
  187.7400  177.5420  142.0820 C   0  0  1  0  0  3  0  0  0  0  0  0
  189.3430  176.9480  143.5650 C   0  0  0  0  0  0  0  0  0  0  0  0
  185.9520  178.8150  140.9120 N   0  0  0  0  0  0  0  0  0  0  0  0
  187.1540  178.1480  146.4010 C   0  0  0  0  0  3  0  0  0  0  0  0
  188.3290  178.0690  148.5150 C   0  0  0  0  0  3  0  0  0  0  0  0
  189.4390  177.5130  147.8750 C   0  0  0  0  0  3  0  0  0  0  0  0
  187.1860  178.3860  147.7780 C   0  0  0  0  0  3  0  0  0  0  0  0
  188.2620  177.5860  145.7480 C   0  0  0  0  0  0  0  0  0  0  0  0
  189.4060  177.2730  146.4990 C   0  0  0  0  0  3  0  0  0  0  0  0
  183.6800  179.0540  141.2130 O   0  0  0  0  0  0  0  0  0  0  0  0
  183.2900  178.6330  139.9110 C   0  0  1  0  0  3  0  0  0  0  0  0
  182.9960  177.2670  139.9140 O   0  0  0  0  0  1  0  0  0  0  0  0
  182.0700  179.4270  139.4600 C   0  0  0  0  0  2  0  0  0  0  0  0
  180.8250  178.5450  139.4310 C   0  0  0  0  0  2  0  0  0  0  0  0
  180.2340  178.5510  138.0960 N   0  0  0  0  0  0  0  0  0  0  0  0
  179.9830  176.1490  137.9800 C   0  0  0  0  0  3  0  0  0  0  0  0
  179.9820  177.3360  137.3760 C   0  0  0  0  0  3  0  0  0  0  0  0
  179.7380  174.8860  137.2250 C   0  0  1  0  0  3  0  0  0  0  0  0
  181.0460  174.2520  136.8500 C   0  0  0  0  0  0  0  0  0  0  0  0
  181.0450  173.1400  136.1180 C   0  0  0  0  0  2  0  0  0  0  0  0
  182.3370  174.9680  137.0790 C   0  0  0  0  0  1  0  0  0  0  0  0
  178.9370  173.9650  138.0230 N   0  0  0  0  0  2  0  0  0  0  0  0
  179.7000  173.6130  141.5090 O   0  0  0  0  0  0  0  0  0  0  0  0
  179.0470  173.8570  140.4610 C   0  0  0  0  0  3  0  0  0  0  0  0
  179.6650  173.7010  139.1890 N   0  0  0  0  0  2  0  0  0  0  0  0
  180.1560  179.8170  137.3880 C   0  0  0  0  0  2  0  0  0  0  0  0
  180.3980  179.6150  135.9000 C   0  0  0  0  0  2  0  0  0  0  0  0
  180.3950  180.8470  135.2450 O   0  0  0  0  0  1  0  0  0  0  0  0
  189.1970  177.8030  137.1080 O   0  0  0  0  0  0  0  0  0  0  0  0
  188.8530  177.1640  135.9170 C   0  0  0  0  0  0  0  0  0  0  0  0
  187.6820  177.4250  135.3540 C   0  0  0  0  0  2  0  0  0  0  0  0
  189.7770  176.1880  135.2640 C   0  0  0  0  0  2  0  0  0  0  0  0
  189.9370  174.9360  136.1200 C   0  0  2  0  0  3  0  0  0  0  0  0
  190.9520  172.7260  135.3520 C   0  0  0  0  0  2  0  0  0  0  0  0
  192.6640  175.5660  137.0840 O   0  0  0  0  0  1  0  0  0  0  0  0
  192.2670  174.2440  136.8680 C   0  0  1  0  0  3  0  0  0  0  0  0
  191.2190  174.1780  135.7510 C   0  0  2  0  0  3  0  0  0  0  0  0
  194.2370  173.9310  135.4750 O   0  0  0  0  0  1  0  0  0  0  0  0
  193.4830  173.3740  136.5150 C   0  0  2  0  0  3  0  0  0  0  0  0
  192.2850  172.0410  135.0650 C   0  0  0  0  0  2  0  0  0  0  0  0
  193.1020  172.0430  136.2170 O   0  0  0  0  0  0  0  0  0  0  0  0
  188.2890  173.4510  137.2710 O   0  0  0  0  0  1  0  0  0  0  0  0
  188.0720  173.8800  135.0310 O   0  0  0  0  0  0  0  0  0  0  0  0
  188.7060  174.0750  136.1020 C   0  0  0  0  0  0  0  0  0  0  0  0
  1 13  1  0  0  0  0
  1  2  1  0  0  0  0
  2  3  1  1  0  0  0
  2 12  1  0  0  0  0
  4  8  1  0  0  0  0
  5 15  1  0  0  0  0
  6 24  1  0  0  0  0
  7 11  1  1  0  0  0
  7  6  1  0  0  0  0
  8 11  1  0  0  0  0
 10  1  2  0  0  0  0
 12 16  1  0  0  0  0
 12  5  2  0  0  0  0
 13  9  1  0  0  0  0
 14  9  1  6  0  0  0
 14 17  1  0  0  0  0
 16 18  2  0  0  0  0
 17 16  1  1  0  0  0
 17  7  1  0  0  0  0
 18 15  1  0  0  0  0
 18  6  1  0  0  0  0
 19 14  1  0  0  0  0
 19  4  2  0  0  0  0
 20 23  1  0  0  0  0
 22 21  1  0  0  0  0
 23 21  2  0  0  0  0
 24 20  2  0  0  0  0
 24 25  1  0  0  0  0
 25 22  2  0  0  0  0
 26  4  1  0  0  0  0
 27 28  1  1  0  0  0
 27 26  1  0  0  0  0
 29 27  1  0  0  0  0
 30 29  1  0  0  0  0
 31 30  1  0  0  0  0
 33 32  2  0  0  0  0
 33 31  1  0  0  0  0
 34 32  1  1  0  0  0
 34 38  1  0  0  0  0
 35 37  1  0  0  0  0
 35 34  1  0  0  0  0
 36 35  2  0  0  0  0
 38 41  1  0  0  0  0
 40 39  2  0  0  0  0
 41 40  1  0  0  0  0
 42 31  1  0  0  0  0
 43 42  1  0  0  0  0
 44 43  1  0  0  0  0
 45 10  1  0  0  0  0
 46 45  1  0  0  0  0
 47 46  2  0  0  0  0
 48 46  1  0  0  0  0
 49 48  1  6  0  0  0
 50 53  1  0  0  0  0
 52 51  1  6  0  0  0
 53 49  1  1  0  0  0
 53 52  1  0  0  0  0
 55 54  1  6  0  0  0
 55 52  1  0  0  0  0
 56 50  1  0  0  0  0
 56 57  1  0  0  0  0
 57 55  1  0  0  0  0
 59 60  2  0  0  0  0
 60 49  1  0  0  0  0
 60 58  1  0  0  0  0
M  END
>  <MODEL>
5

>  <REMARK>
 VINA RESULT:      -7.1      2.579     10.583
  Name = 
  19 active torsions:
  status: ('A' for Active; 'I' for Inactive)
    1  A    between atoms: C_1  and  C_12
    2  A    between atoms: N_5  and  C_12
    3  A    between atoms: N_5  and  N_58
    4  A    between atoms: C_8  and  C_32
    5  A    between atoms: C_8  and  C_50
    6  A    between atoms: C_9  and  C_12
    7  A    between atoms: C_10  and  O_57
    8  A    between atoms: N_15  and  C_51
    9  A    between atoms: C_16  and  C_42
   10  A    between atoms: O_18  and  N_27
   11  A    between atoms: O_18  and  C_32
   12  A    between atoms: C_19  and  C_49
   13  A    between atoms: C_19  and  O_57
   14  A    between atoms: N_24  and  C_37
   15  A    between atoms: N_24  and  C_38
   16  A    between atoms: N_24  and  C_42
   17  A    between atoms: C_28  and  C_50
   18  A    between atoms: C_36  and  C_50
   19  A    between atoms: C_37  and  C_49
                            x       y       z     vdW  Elec       q    Type
                         _______ _______ _______ _____ _____    ______ ____

>  <TORSDO>
F 19

$$$$
=
 OpenBabel11032421313D

 60 65  0  0  1  0  0  0  0  0999 V2000
  189.6060  177.6330  141.0730 C   0  0  0  0  0  0  0  0  0  0  0  0
  191.0800  177.8260  141.2260 C   0  0  1  0  0  3  0  0  0  0  0  0
  191.5210  177.2770  142.5740 C   0  0  0  0  0  1  0  0  0  0  0  0
  188.4110  176.1030  135.6310 C   0  0  0  0  0  0  0  0  0  0  0  0
  193.3310  177.1020  140.2080 C   0  0  0  0  0  3  0  0  0  0  0  0
  192.6380  176.0150  136.9660 N   0  0  0  0  0  0  0  0  0  0  0  0
  191.2470  175.9050  136.7250 N   0  0  2  0  0  0  0  0  0  0  0  0
  189.6800  175.6070  134.9850 C   0  0  0  0  0  2  0  0  0  0  0  0
  188.6250  177.0140  139.0700 O   0  0  0  0  0  0  0  0  0  0  0  0
  188.8060  178.4890  141.6290 N   0  0  0  0  0  0  0  0  0  0  0  0
  190.9070  176.3860  135.4070 C   0  0  0  0  0  2  0  0  0  0  0  0
  191.9430  177.2920  140.1060 C   0  0  0  0  0  0  0  0  0  0  0  0
  189.0610  176.4910  140.2830 C   0  0  0  0  0  2  0  0  0  0  0  0
  189.2040  176.2470  138.0540 C   0  0  2  0  0  3  0  0  0  0  0  0
  193.8000  176.6270  139.0660 O   0  0  0  0  0  0  0  0  0  0  0  0
  191.6300  176.9230  138.8000 C   0  0  0  0  0  0  0  0  0  0  0  0
  190.5970  176.8020  137.7080 C   0  0  1  0  0  3  0  0  0  0  0  0
  192.7750  176.5390  138.2650 C   0  0  0  0  0  0  0  0  0  0  0  0
  188.2860  176.3490  136.9090 N   0  0  0  0  0  0  0  0  0  0  0  0
  193.3750  173.8640  136.0000 C   0  0  0  0  0  3  0  0  0  0  0  0
  195.5730  173.6450  135.0090 C   0  0  0  0  0  3  0  0  0  0  0  0
  195.8400  174.9820  135.3100 C   0  0  0  0  0  3  0  0  0  0  0  0
  194.3390  173.0860  135.3530 C   0  0  0  0  0  3  0  0  0  0  0  0
  193.6310  175.2110  136.3030 C   0  0  0  0  0  0  0  0  0  0  0  0
  194.8740  175.7610  135.9540 C   0  0  0  0  0  3  0  0  0  0  0  0
  187.2760  176.2950  134.8380 O   0  0  0  0  0  0  0  0  0  0  0  0
  185.9920  176.6300  135.3540 C   0  0  1  0  0  3  0  0  0  0  0  0
  185.4200  177.6530  134.5940 O   0  0  0  0  0  1  0  0  0  0  0  0
  185.0940  175.3990  135.3290 C   0  0  0  0  0  2  0  0  0  0  0  0
  184.8180  174.8960  136.7430 C   0  0  0  0  0  2  0  0  0  0  0  0
  183.4080  174.5450  136.8870 N   0  0  0  0  0  0  0  0  0  0  0  0
  183.0380  175.8780  138.8710 C   0  0  0  0  0  3  0  0  0  0  0  0
  182.5520  175.2270  137.8160 C   0  0  0  0  0  3  0  0  0  0  0  0
  182.1430  176.5700  139.8430 C   0  0  1  0  0  3  0  0  0  0  0  0
  182.3500  178.0550  139.7620 C   0  0  0  0  0  0  0  0  0  0  0  0
  183.0370  178.5630  138.7390 C   0  0  0  0  0  2  0  0  0  0  0  0
  181.6070  178.9820  140.6680 C   0  0  0  0  0  1  0  0  0  0  0  0
  180.7500  176.2360  139.5780 N   0  0  0  0  0  2  0  0  0  0  0  0
  178.9340  173.8470  141.5420 O   0  0  0  0  0  0  0  0  0  0  0  0
  179.1890  174.8980  140.8990 C   0  0  0  0  0  3  0  0  0  0  0  0
  180.4680  175.0700  140.3010 N   0  0  0  0  0  2  0  0  0  0  0  0
  182.9440  173.3110  136.2790 C   0  0  0  0  0  2  0  0  0  0  0  0
  183.8330  172.1440  136.6860 C   0  0  0  0  0  2  0  0  0  0  0  0
  183.0550  171.1150  137.2140 O   0  0  0  0  0  1  0  0  0  0  0  0
  187.4360  178.4020  141.5010 O   0  0  0  0  0  0  0  0  0  0  0  0
  186.6370  178.0060  142.5730 C   0  0  0  0  0  0  0  0  0  0  0  0
  185.3310  178.2250  142.5260 C   0  0  0  0  0  2  0  0  0  0  0  0
  187.2240  177.3410  143.7760 C   0  0  0  0  0  2  0  0  0  0  0  0
  187.2090  178.2820  144.9760 C   0  0  2  0  0  3  0  0  0  0  0  0
  189.4950  177.1720  145.1990 C   0  0  0  0  0  2  0  0  0  0  0  0
  187.2680  178.4250  147.9320 O   0  0  0  0  0  1  0  0  0  0  0  0
  188.0650  177.5080  147.2430 C   0  0  1  0  0  3  0  0  0  0  0  0
  188.4420  178.0610  145.8630 C   0  0  2  0  0  3  0  0  0  0  0  0
  189.9980  178.3450  148.4600 O   0  0  0  0  0  1  0  0  0  0  0  0
  189.3280  177.1840  148.0540 C   0  0  2  0  0  3  0  0  0  0  0  0
  190.6480  176.9600  146.1760 C   0  0  0  0  0  2  0  0  0  0  0  0
  190.1930  176.3130  147.3470 O   0  0  0  0  0  0  0  0  0  0  0  0
  185.3650  179.3850  146.2510 O   0  0  0  0  0  1  0  0  0  0  0  0
  185.3340  177.1170  145.9290 O   0  0  0  0  0  0  0  0  0  0  0  0
  185.9110  178.2190  145.7290 C   0  0  0  0  0  0  0  0  0  0  0  0
  1  2  1  0  0  0  0
  1 10  2  0  0  0  0
  2  3  1  1  0  0  0
  4 19  2  0  0  0  0
  6 18  1  0  0  0  0
  7 11  1  6  0  0  0
  7  6  1  0  0  0  0
  7 17  1  0  0  0  0
  8 11  1  0  0  0  0
  8  4  1  0  0  0  0
  9 13  1  0  0  0  0
 12  5  2  0  0  0  0
 12  2  1  0  0  0  0
 13  1  1  0  0  0  0
 14 19  1  6  0  0  0
 14  9  1  0  0  0  0
 15  5  1  0  0  0  0
 16 12  1  0  0  0  0
 17 14  1  0  0  0  0
 17 16  1  1  0  0  0
 18 16  2  0  0  0  0
 18 15  1  0  0  0  0
 20 24  1  0  0  0  0
 21 22  2  0  0  0  0
 21 23  1  0  0  0  0
 22 25  1  0  0  0  0
 23 20  2  0  0  0  0
 24  6  1  0  0  0  0
 25 24  2  0  0  0  0
 26 27  1  0  0  0  0
 26  4  1  0  0  0  0
 27 28  1  6  0  0  0
 29 27  1  0  0  0  0
 29 30  1  0  0  0  0
 30 31  1  0  0  0  0
 31 33  1  0  0  0  0
 33 32  2  0  0  0  0
 34 32  1  6  0  0  0
 35 34  1  0  0  0  0
 35 37  1  0  0  0  0
 36 35  2  0  0  0  0
 38 34  1  0  0  0  0
 38 41  1  0  0  0  0
 40 39  2  0  0  0  0
 41 40  1  0  0  0  0
 42 43  1  0  0  0  0
 42 31  1  0  0  0  0
 43 44  1  0  0  0  0
 45 10  1  0  0  0  0
 45 46  1  0  0  0  0
 46 48  1  0  0  0  0
 47 46  2  0  0  0  0
 49 48  1  6  0  0  0
 49 60  1  0  0  0  0
 50 53  1  0  0  0  0
 50 56  1  0  0  0  0
 52 51  1  1  0  0  0
 52 55  1  0  0  0  0
 53 49  1  6  0  0  0
 53 52  1  0  0  0  0
 55 54  1  6  0  0  0
 56 57  1  0  0  0  0
 57 55  1  0  0  0  0
 60 59  2  0  0  0  0
 60 58  1  0  0  0  0
M  END
>  <MODEL>
6

>  <REMARK>
 VINA RESULT:      -6.7      2.556      9.311
  Name = 
  19 active torsions:
  status: ('A' for Active; 'I' for Inactive)
    1  A    between atoms: C_1  and  C_12
    2  A    between atoms: N_5  and  C_12
    3  A    between atoms: N_5  and  N_58
    4  A    between atoms: C_8  and  C_32
    5  A    between atoms: C_8  and  C_50
    6  A    between atoms: C_9  and  C_12
    7  A    between atoms: C_10  and  O_57
    8  A    between atoms: N_15  and  C_51
    9  A    between atoms: C_16  and  C_42
   10  A    between atoms: O_18  and  N_27
   11  A    between atoms: O_18  and  C_32
   12  A    between atoms: C_19  and  C_49
   13  A    between atoms: C_19  and  O_57
   14  A    between atoms: N_24  and  C_37
   15  A    between atoms: N_24  and  C_38
   16  A    between atoms: N_24  and  C_42
   17  A    between atoms: C_28  and  C_50
   18  A    between atoms: C_36  and  C_50
   19  A    between atoms: C_37  and  C_49
                            x       y       z     vdW  Elec       q    Type
                         _______ _______ _______ _____ _____    ______ ____

>  <TORSDO>
F 19

$$$$
=
 OpenBabel11032421313D

 60 65  0  0  1  0  0  0  0  0999 V2000
  189.4680  177.5020  141.3850 C   0  0  0  0  0  0  0  0  0  0  0  0
  190.9080  177.8820  141.5080 C   0  0  1  0  0  3  0  0  0  0  0  0
  191.4400  177.4070  142.8510 C   0  0  0  0  0  1  0  0  0  0  0  0
  188.3790  175.7800  135.9790 C   0  0  0  0  0  0  0  0  0  0  0  0
  193.2140  177.4400  140.4520 C   0  0  0  0  0  3  0  0  0  0  0  0
  192.6060  176.2420  137.2330 N   0  0  0  0  0  0  0  0  0  0  0  0
  191.2360  175.9540  137.0200 N   0  0  2  0  0  0  0  0  0  0  0  0
  189.6890  175.4420  135.3120 C   0  0  0  0  0  2  0  0  0  0  0  0
  188.5380  176.7440  139.4060 O   0  0  0  0  0  0  0  0  0  0  0  0
  188.5760  178.2560  141.9500 N   0  0  0  0  0  0  0  0  0  0  0  0
  190.8140  176.3740  135.7050 C   0  0  0  0  0  2  0  0  0  0  0  0
  191.8120  177.4510  140.3760 C   0  0  0  0  0  0  0  0  0  0  0  0
  189.0580  176.2930  140.6140 C   0  0  0  0  0  2  0  0  0  0  0  0
  189.1910  176.0470  138.3850 C   0  0  2  0  0  3  0  0  0  0  0  0
  193.7180  177.0170  139.3060 O   0  0  0  0  0  0  0  0  0  0  0  0
  191.5240  177.0330  139.0790 C   0  0  0  0  0  0  0  0  0  0  0  0
  190.4950  176.7710  138.0070 C   0  0  1  0  0  3  0  0  0  0  0  0
  192.6990  176.7910  138.5250 C   0  0  0  0  0  0  0  0  0  0  0  0
  188.2470  176.0200  137.2560 N   0  0  0  0  0  0  0  0  0  0  0  0
  193.7200  174.1610  136.5020 C   0  0  0  0  0  3  0  0  0  0  0  0
  195.7820  174.2440  135.2370 C   0  0  0  0  0  3  0  0  0  0  0  0
  195.7560  175.6390  135.2900 C   0  0  0  0  0  3  0  0  0  0  0  0
  194.7630  173.5050  135.8430 C   0  0  0  0  0  3  0  0  0  0  0  0
  193.6810  175.5640  136.5580 C   0  0  0  0  0  0  0  0  0  0  0  0
  194.7120  176.2950  135.9470 C   0  0  0  0  0  3  0  0  0  0  0  0
  187.2150  175.8170  135.2060 O   0  0  0  0  0  0  0  0  0  0  0  0
  186.0500  176.5560  135.5580 C   0  0  1  0  0  3  0  0  0  0  0  0
  185.7890  177.5330  134.5940 O   0  0  0  0  0  1  0  0  0  0  0  0
  184.8600  175.6090  135.6740 C   0  0  0  0  0  2  0  0  0  0  0  0
  184.4400  175.4390  137.1310 C   0  0  0  0  0  2  0  0  0  0  0  0
  183.0360  175.0440  137.2080 N   0  0  0  0  0  0  0  0  0  0  0  0
  182.1920  176.7150  138.7380 C   0  0  0  0  0  3  0  0  0  0  0  0
  182.0200  175.9520  137.6610 C   0  0  0  0  0  3  0  0  0  0  0  0
  181.1270  177.6440  139.2170 C   0  0  1  0  0  3  0  0  0  0  0  0
  180.3130  176.9810  140.2900 C   0  0  0  0  0  0  0  0  0  0  0  0
  180.2110  175.6530  140.3040 C   0  0  0  0  0  2  0  0  0  0  0  0
  179.8170  177.7590  141.4640 C   0  0  0  0  0  1  0  0  0  0  0  0
  181.7190  178.8790  139.7170 N   0  0  0  0  0  2  0  0  0  0  0  0
  185.2710  179.1710  139.3170 O   0  0  0  0  0  0  0  0  0  0  0  0
  184.0420  179.3890  139.1560 C   0  0  0  0  0  3  0  0  0  0  0  0
  183.0860  178.6320  139.8900 N   0  0  0  0  0  2  0  0  0  0  0  0
  182.7140  173.6340  137.0830 C   0  0  0  0  0  2  0  0  0  0  0  0
  181.3380  173.4510  136.4590 C   0  0  0  0  0  2  0  0  0  0  0  0
  181.1930  172.1420  136.0000 O   0  0  0  0  0  1  0  0  0  0  0  0
  187.2260  177.9940  141.8480 O   0  0  0  0  0  0  0  0  0  0  0  0
  186.3420  178.3670  142.8600 C   0  0  0  0  0  0  0  0  0  0  0  0
  185.6220  179.4710  142.7200 C   0  0  0  0  0  2  0  0  0  0  0  0
  186.1930  177.5490  144.1020 C   0  0  0  0  0  2  0  0  0  0  0  0
  186.1970  178.4380  145.3410 C   0  0  2  0  0  3  0  0  0  0  0  0
  187.1500  178.7190  147.6900 C   0  0  0  0  0  2  0  0  0  0  0  0
  188.6780  176.9220  144.7860 O   0  0  0  0  0  1  0  0  0  0  0  0
  188.6140  177.8290  145.8470 C   0  0  1  0  0  3  0  0  0  0  0  0
  187.1830  177.9110  146.3920 C   0  0  2  0  0  3  0  0  0  0  0  0
  189.4200  176.0780  147.3310 O   0  0  0  0  0  1  0  0  0  0  0  0
  189.5890  177.4180  146.9600 C   0  0  2  0  0  3  0  0  0  0  0  0
  188.2020  178.1610  148.6450 C   0  0  0  0  0  2  0  0  0  0  0  0
  189.4930  178.2760  148.0820 O   0  0  0  0  0  0  0  0  0  0  0  0
  183.9160  179.4410  145.1560 O   0  0  0  0  0  0  0  0  0  0  0  0
  184.4720  178.1990  146.9990 O   0  0  0  0  0  1  0  0  0  0  0  0
  184.8130  178.6660  145.8800 C   0  0  0  0  0  0  0  0  0  0  0  0
  1  2  1  0  0  0  0
  1 10  2  0  0  0  0
  2  3  1  1  0  0  0
  4 19  2  0  0  0  0
  6 18  1  0  0  0  0
  7 11  1  6  0  0  0
  7  6  1  0  0  0  0
  7 17  1  0  0  0  0
  8 11  1  0  0  0  0
  8  4  1  0  0  0  0
  9 13  1  0  0  0  0
 12  5  2  0  0  0  0
 12  2  1  0  0  0  0
 13  1  1  0  0  0  0
 14 19  1  6  0  0  0
 14  9  1  0  0  0  0
 15  5  1  0  0  0  0
 16 12  1  0  0  0  0
 17 14  1  0  0  0  0
 17 16  1  1  0  0  0
 18 16  2  0  0  0  0
 18 15  1  0  0  0  0
 20 24  1  0  0  0  0
 21 22  2  0  0  0  0
 21 23  1  0  0  0  0
 22 25  1  0  0  0  0
 23 20  2  0  0  0  0
 24  6  1  0  0  0  0
 25 24  2  0  0  0  0
 26 27  1  0  0  0  0
 26  4  1  0  0  0  0
 27 28  1  6  0  0  0
 27 29  1  0  0  0  0
 29 30  1  0  0  0  0
 30 31  1  0  0  0  0
 31 33  1  0  0  0  0
 33 32  2  0  0  0  0
 34 32  1  1  0  0  0
 34 38  1  0  0  0  0
 34 35  1  0  0  0  0
 35 36  2  0  0  0  0
 35 37  1  0  0  0  0
 38 41  1  0  0  0  0
 40 39  2  0  0  0  0
 40 41  1  0  0  0  0
 42 31  1  0  0  0  0
 43 42  1  0  0  0  0
 44 43  1  0  0  0  0
 45 10  1  0  0  0  0
 45 46  1  0  0  0  0
 46 48  1  0  0  0  0
 47 46  2  0  0  0  0
 49 48  1  6  0  0  0
 49 60  1  0  0  0  0
 50 56  1  0  0  0  0
 52 51  1  6  0  0  0
 52 53  1  0  0  0  0
 52 55  1  0  0  0  0
 53 49  1  6  0  0  0
 53 50  1  0  0  0  0
 55 54  1  1  0  0  0
 55 57  1  0  0  0  0
 57 56  1  0  0  0  0
 58 60  2  0  0  0  0
 60 59  1  0  0  0  0
M  END
>  <MODEL>
7

>  <REMARK>
 VINA RESULT:      -6.6      2.401      9.196
  Name = 
  19 active torsions:
  status: ('A' for Active; 'I' for Inactive)
    1  A    between atoms: C_1  and  C_12
    2  A    between atoms: N_5  and  C_12
    3  A    between atoms: N_5  and  N_58
    4  A    between atoms: C_8  and  C_32
    5  A    between atoms: C_8  and  C_50
    6  A    between atoms: C_9  and  C_12
    7  A    between atoms: C_10  and  O_57
    8  A    between atoms: N_15  and  C_51
    9  A    between atoms: C_16  and  C_42
   10  A    between atoms: O_18  and  N_27
   11  A    between atoms: O_18  and  C_32
   12  A    between atoms: C_19  and  C_49
   13  A    between atoms: C_19  and  O_57
   14  A    between atoms: N_24  and  C_37
   15  A    between atoms: N_24  and  C_38
   16  A    between atoms: N_24  and  C_42
   17  A    between atoms: C_28  and  C_50
   18  A    between atoms: C_36  and  C_50
   19  A    between atoms: C_37  and  C_49
                            x       y       z     vdW  Elec       q    Type
                         _______ _______ _______ _____ _____    ______ ____

>  <TORSDO>
F 19

$$$$
=
 OpenBabel11032421313D

 60 65  0  0  1  0  0  0  0  0999 V2000
  189.8540  175.9080  136.5400 C   0  0  0  0  0  0  0  0  0  0  0  0
  188.8170  176.4210  135.5950 C   0  0  1  0  0  3  0  0  0  0  0  0
  188.4450  175.3220  134.6120 C   0  0  0  0  0  1  0  0  0  0  0  0
  188.7840  177.9030  141.8560 C   0  0  0  0  0  0  0  0  0  0  0  0
  186.3920  177.2840  135.5270 C   0  0  0  0  0  3  0  0  0  0  0  0
  185.6410  178.3550  138.7610 N   0  0  0  0  0  0  0  0  0  0  0  0
  186.6400  177.9830  139.6930 N   0  0  2  0  0  0  0  0  0  0  0  0
  187.3520  178.3740  141.9100 C   0  0  0  0  0  2  0  0  0  0  0  0
  189.8620  176.4290  138.7950 O   0  0  0  0  0  0  0  0  0  0  0  0
  191.0940  175.8990  136.1570 N   0  0  0  0  0  0  0  0  0  0  0  0
  186.8980  179.0480  140.6330 C   0  0  0  0  0  2  0  0  0  0  0  0
  187.5870  177.0350  136.2230 C   0  0  0  0  0  0  0  0  0  0  0  0
  189.4810  175.4320  137.9040 C   0  0  0  0  0  2  0  0  0  0  0  0
  188.7510  176.7210  139.5920 C   0  0  2  0  0  3  0  0  0  0  0  0
  185.5060  177.8260  136.3460 O   0  0  0  0  0  0  0  0  0  0  0  0
  187.3500  177.5040  137.5130 C   0  0  0  0  0  0  0  0  0  0  0  0
  187.8740  177.7800  138.9000 C   0  0  1  0  0  3  0  0  0  0  0  0
  186.1040  177.9430  137.4990 C   0  0  0  0  0  0  0  0  0  0  0  0
  189.2960  177.2240  140.8630 N   0  0  0  0  0  0  0  0  0  0  0  0
  183.6750  179.8100  139.1100 C   0  0  0  0  0  3  0  0  0  0  0  0
  181.5440  178.8690  139.7700 C   0  0  0  0  0  3  0  0  0  0  0  0
  182.1110  177.5920  139.7700 C   0  0  0  0  0  3  0  0  0  0  0  0
  182.3270  179.9780  139.4380 C   0  0  0  0  0  3  0  0  0  0  0  0
  184.2540  178.5300  139.1030 C   0  0  0  0  0  0  0  0  0  0  0  0
  183.4580  177.4240  139.4390 C   0  0  0  0  0  3  0  0  0  0  0  0
  189.6290  178.1750  142.9360 O   0  0  0  0  0  0  0  0  0  0  0  0
  191.0470  178.2470  142.8380 C   0  0  1  0  0  3  0  0  0  0  0  0
  191.5270  179.3240  143.5890 O   0  0  0  0  0  1  0  0  0  0  0  0
  191.6620  176.9470  143.3420 C   0  0  0  0  0  2  0  0  0  0  0  0
  190.6170  176.0870  144.0470 C   0  0  0  0  0  2  0  0  0  0  0  0
  190.7510  176.2180  145.4950 N   0  0  0  0  0  0  0  0  0  0  0  0
  188.5140  177.0880  145.7900 C   0  0  0  0  0  3  0  0  0  0  0  0
  189.7000  176.7690  146.3040 C   0  0  0  0  0  3  0  0  0  0  0  0
  187.4310  177.6770  146.6300 C   0  0  1  0  0  3  0  0  0  0  0  0
  187.8460  177.6820  148.0720 C   0  0  0  0  0  0  0  0  0  0  0  0
  187.3780  176.7390  148.8890 C   0  0  0  0  0  2  0  0  0  0  0  0
  188.9460  178.5730  148.5490 C   0  0  0  0  0  1  0  0  0  0  0  0
  187.1220  179.0300  146.1840 N   0  0  0  0  0  2  0  0  0  0  0  0
  183.5630  178.7800  145.8270 O   0  0  0  0  0  0  0  0  0  0  0  0
  184.7880  178.6010  145.6030 C   0  0  0  0  0  3  0  0  0  0  0  0
  185.7590  179.2350  146.4280 N   0  0  0  0  0  2  0  0  0  0  0  0
  192.0680  176.0400  146.0800 C   0  0  0  0  0  2  0  0  0  0  0  0
  192.0220  176.2630  147.5840 C   0  0  0  0  0  2  0  0  0  0  0  0
  193.2280  175.8670  148.1620 O   0  0  0  0  0  1  0  0  0  0  0  0
  192.1130  175.4780  136.9850 O   0  0  0  0  0  0  0  0  0  0  0  0
  193.4480  175.5980  136.6010 C   0  0  0  0  0  0  0  0  0  0  0  0
  194.0840  176.7420  136.8090 C   0  0  0  0  0  2  0  0  0  0  0  0
  194.1760  174.4620  135.9570 C   0  0  0  0  0  2  0  0  0  0  0  0
  194.5130  173.3830  136.9810 C   0  0  2  0  0  3  0  0  0  0  0  0
  195.9100  174.3820  138.8660 C   0  0  0  0  0  2  0  0  0  0  0  0
  197.0350  173.4140  135.4320 O   0  0  0  0  0  1  0  0  0  0  0  0
  196.8640  174.2450  136.5420 C   0  0  1  0  0  3  0  0  0  0  0  0
  195.9190  173.5920  137.5570 C   0  0  2  0  0  3  0  0  0  0  0  0
  198.9510  173.3810  137.4480 O   0  0  0  0  0  1  0  0  0  0  0  0
  198.2220  174.5500  137.1920 C   0  0  2  0  0  3  0  0  0  0  0  0
  197.3490  174.5910  139.3260 C   0  0  0  0  0  2  0  0  0  0  0  0
  198.0750  175.3300  138.3650 O   0  0  0  0  0  0  0  0  0  0  0  0
  194.0860  171.8200  135.0780 O   0  0  0  0  0  0  0  0  0  0  0  0
  194.2310  171.0070  137.2150 O   0  0  0  0  0  1  0  0  0  0  0  0
  194.2850  171.9990  136.4420 C   0  0  0  0  0  0  0  0  0  0  0  0
  1 13  1  0  0  0  0
  2  3  1  1  0  0  0
  2 12  1  0  0  0  0
  2  1  1  0  0  0  0
  4  8  1  0  0  0  0
  4 26  1  0  0  0  0
  5 12  2  0  0  0  0
  5 15  1  0  0  0  0
  6 24  1  0  0  0  0
  6  7  1  0  0  0  0
  7 11  1  1  0  0  0
 10  1  2  0  0  0  0
 10 45  1  0  0  0  0
 11  8  1  0  0  0  0
 12 16  1  0  0  0  0
 13  9  1  0  0  0  0
 14  9  1  6  0  0  0
 14 19  1  0  0  0  0
 15 18  1  0  0  0  0
 17 16  1  6  0  0  0
 17 14  1  0  0  0  0
 17  7  1  0  0  0  0
 18 16  2  0  0  0  0
 18  6  1  0  0  0  0
 19  4  2  0  0  0  0
 20 23  1  0  0  0  0
 21 22  1  0  0  0  0
 23 21  2  0  0  0  0
 24 20  2  0  0  0  0
 24 25  1  0  0  0  0
 25 22  2  0  0  0  0
 27 26  1  0  0  0  0
 27 29  1  0  0  0  0
 27 28  1  1  0  0  0
 29 30  1  0  0  0  0
 30 31  1  0  0  0  0
 31 42  1  0  0  0  0
 31 33  1  0  0  0  0
 32 33  2  0  0  0  0
 34 32  1  6  0  0  0
 34 35  1  0  0  0  0
 35 37  1  0  0  0  0
 35 36  2  0  0  0  0
 38 41  1  0  0  0  0
 38 34  1  0  0  0  0
 40 39  2  0  0  0  0
 40 41  1  0  0  0  0
 42 43  1  0  0  0  0
 43 44  1  0  0  0  0
 46 47  2  0  0  0  0
 46 45  1  0  0  0  0
 48 46  1  0  0  0  0
 49 48  1  6  0  0  0
 50 56  1  0  0  0  0
 52 51  1  6  0  0  0
 52 55  1  0  0  0  0
 52 53  1  0  0  0  0
 53 49  1  6  0  0  0
 53 50  1  0  0  0  0
 55 54  1  1  0  0  0
 55 57  1  0  0  0  0
 57 56  1  0  0  0  0
 58 60  2  0  0  0  0
 60 49  1  0  0  0  0
 60 59  1  0  0  0  0
M  END
>  <MODEL>
8

>  <REMARK>
 VINA RESULT:      -6.5      2.759      9.731
  Name = 
  19 active torsions:
  status: ('A' for Active; 'I' for Inactive)
    1  A    between atoms: C_1  and  C_12
    2  A    between atoms: N_5  and  C_12
    3  A    between atoms: N_5  and  N_58
    4  A    between atoms: C_8  and  C_32
    5  A    between atoms: C_8  and  C_50
    6  A    between atoms: C_9  and  C_12
    7  A    between atoms: C_10  and  O_57
    8  A    between atoms: N_15  and  C_51
    9  A    between atoms: C_16  and  C_42
   10  A    between atoms: O_18  and  N_27
   11  A    between atoms: O_18  and  C_32
   12  A    between atoms: C_19  and  C_49
   13  A    between atoms: C_19  and  O_57
   14  A    between atoms: N_24  and  C_37
   15  A    between atoms: N_24  and  C_38
   16  A    between atoms: N_24  and  C_42
   17  A    between atoms: C_28  and  C_50
   18  A    between atoms: C_36  and  C_50
   19  A    between atoms: C_37  and  C_49
                            x       y       z     vdW  Elec       q    Type
                         _______ _______ _______ _____ _____    ______ ____

>  <TORSDO>
F 19

$$$$
=
 OpenBabel11032421313D

 60 65  0  0  1  0  0  0  0  0999 V2000
  188.7340  176.8270  136.7270 C   0  0  0  0  0  0  0  0  0  0  0  0
  187.9530  176.6700  135.4630 C   0  0  1  0  0  3  0  0  0  0  0  0
  188.3550  175.3710  134.7820 C   0  0  0  0  0  1  0  0  0  0  0  0
  185.3270  179.0150  140.8480 C   0  0  0  0  0  0  0  0  0  0  0  0
  185.5480  176.3650  134.5970 C   0  0  0  0  0  3  0  0  0  0  0  0
  183.4410  177.5270  137.1220 N   0  0  0  0  0  0  0  0  0  0  0  0
  184.1410  177.7890  138.3240 N   0  0  2  0  0  0  0  0  0  0  0  0
  183.8900  178.8170  140.4350 C   0  0  0  0  0  2  0  0  0  0  0  0
  187.8100  177.6680  138.6750 O   0  0  0  0  0  0  0  0  0  0  0  0
  189.9420  177.2950  136.6570 N   0  0  0  0  0  0  0  0  0  0  0  0
  183.6670  179.0010  138.9500 C   0  0  0  0  0  2  0  0  0  0  0  0
  186.4510  176.7820  135.5880 C   0  0  0  0  0  0  0  0  0  0  0  0
  188.1360  176.4720  138.0470 C   0  0  0  0  0  2  0  0  0  0  0  0
  186.4740  177.5760  139.0770 C   0  0  2  0  0  3  0  0  0  0  0  0
  184.3090  176.5950  134.9980 O   0  0  0  0  0  0  0  0  0  0  0  0
  185.6500  177.3100  136.5980 C   0  0  0  0  0  0  0  0  0  0  0  0
  185.5490  178.0150  137.9280 C   0  0  1  0  0  3  0  0  0  0  0  0
  184.4090  177.1520  136.1730 C   0  0  0  0  0  0  0  0  0  0  0  0
  186.3470  178.4720  140.2380 N   0  0  0  0  0  0  0  0  0  0  0  0
  181.5170  176.2860  138.0520 C   0  0  0  0  0  3  0  0  0  0  0  0
  179.3530  176.3720  136.9690 C   0  0  0  0  0  3  0  0  0  0  0  0
  179.8800  177.2130  135.9870 C   0  0  0  0  0  3  0  0  0  0  0  0
  180.1710  175.9090  138.0030 C   0  0  0  0  0  3  0  0  0  0  0  0
  182.0560  177.1340  137.0720 C   0  0  0  0  0  0  0  0  0  0  0  0
  181.2250  177.5920  136.0370 C   0  0  0  0  0  3  0  0  0  0  0  0
  185.6080  179.8050  141.9660 O   0  0  0  0  0  0  0  0  0  0  0  0
  185.9480  179.2810  143.2450 C   0  0  1  0  0  3  0  0  0  0  0  0
  184.7920  179.0630  144.0000 O   0  0  0  0  0  1  0  0  0  0  0  0
  186.7120  177.9730  143.0750 C   0  0  0  0  0  2  0  0  0  0  0  0
  188.2140  178.2260  142.9880 C   0  0  0  0  0  2  0  0  0  0  0  0
  188.9500  177.0690  143.4900 N   0  0  0  0  0  0  0  0  0  0  0  0
  189.6690  177.4700  145.7630 C   0  0  0  0  0  3  0  0  0  0  0  0
  188.9810  176.7410  144.8870 C   0  0  0  0  0  3  0  0  0  0  0  0
  189.7140  177.1170  147.2120 C   0  0  1  0  0  3  0  0  0  0  0  0
  191.1270  176.8260  147.6250 C   0  0  0  0  0  0  0  0  0  0  0  0
  191.6670  177.5130  148.6300 C   0  0  0  0  0  2  0  0  0  0  0  0
  191.8490  175.6310  147.0930 C   0  0  0  0  0  1  0  0  0  0  0  0
  189.1620  178.2000  148.0150 N   0  0  0  0  0  2  0  0  0  0  0  0
  185.6670  178.2660  147.2110 O   0  0  0  0  0  0  0  0  0  0  0  0
  186.9040  178.4810  147.1240 C   0  0  0  0  0  3  0  0  0  0  0  0
  187.7840  177.9680  148.1170 N   0  0  0  0  0  2  0  0  0  0  0  0
  189.8810  176.4080  142.5920 C   0  0  0  0  0  2  0  0  0  0  0  0
  191.2550  177.0560  142.6720 C   0  0  0  0  0  2  0  0  0  0  0  0
  192.1780  176.1530  143.2010 O   0  0  0  0  0  1  0  0  0  0  0  0
  190.7120  177.5050  137.7810 O   0  0  0  0  0  0  0  0  0  0  0  0
  191.8820  176.7780  137.9980 C   0  0  0  0  0  0  0  0  0  0  0  0
  192.4430  176.7920  139.1990 C   0  0  0  0  0  2  0  0  0  0  0  0
  192.5180  175.9850  136.9030 C   0  0  0  0  0  2  0  0  0  0  0  0
  192.8580  174.5760  137.3800 C   0  0  2  0  0  3  0  0  0  0  0  0
  195.1540  174.3710  138.4710 C   0  0  0  0  0  2  0  0  0  0  0  0
  194.3630  174.8980  134.8520 O   0  0  0  0  0  1  0  0  0  0  0  0
  194.9690  175.1510  136.0850 C   0  0  1  0  0  3  0  0  0  0  0  0
  194.3470  174.2710  137.1750 C   0  0  2  0  0  3  0  0  0  0  0  0
  196.7730  173.6460  135.4520 O   0  0  0  0  0  1  0  0  0  0  0  0
  196.4830  174.9040  135.9950 C   0  0  2  0  0  3  0  0  0  0  0  0
  196.6240  174.1130  138.1570 C   0  0  0  0  0  2  0  0  0  0  0  0
  197.1150  175.0800  137.2500 O   0  0  0  0  0  0  0  0  0  0  0  0
  190.5910  173.5650  137.0890 O   0  0  0  0  0  1  0  0  0  0  0  0
  192.4030  172.6280  136.0460 O   0  0  0  0  0  0  0  0  0  0  0  0
  191.9460  173.5410  136.7840 C   0  0  0  0  0  0  0  0  0  0  0  0
  1 13  1  0  0  0  0
  2  3  1  1  0  0  0
  2 12  1  0  0  0  0
  2  1  1  0  0  0  0
  4 26  1  0  0  0  0
  5 15  1  0  0  0  0
  5 12  2  0  0  0  0
  6  7  1  0  0  0  0
  7 11  1  6  0  0  0
  8  4  1  0  0  0  0
 10  1  2  0  0  0  0
 10 45  1  0  0  0  0
 11  8  1  0  0  0  0
 12 16  1  0  0  0  0
 13  9  1  0  0  0  0
 14  9  1  6  0  0  0
 14 19  1  0  0  0  0
 15 18  1  0  0  0  0
 17 16  1  6  0  0  0
 17  7  1  0  0  0  0
 17 14  1  0  0  0  0
 18 16  2  0  0  0  0
 18  6  1  0  0  0  0
 19  4  2  0  0  0  0
 21 23  2  0  0  0  0
 22 25  2  0  0  0  0
 22 21  1  0  0  0  0
 23 20  1  0  0  0  0
 24  6  1  0  0  0  0
 24 20  2  0  0  0  0
 25 24  1  0  0  0  0
 26 27  1  0  0  0  0
 27 28  1  1  0  0  0
 29 27  1  0  0  0  0
 30 29  1  0  0  0  0
 30 31  1  0  0  0  0
 31 33  1  0  0  0  0
 33 32  2  0  0  0  0
 34 32  1  6  0  0  0
 34 35  1  0  0  0  0
 34 38  1  0  0  0  0
 35 36  2  0  0  0  0
 37 35  1  0  0  0  0
 38 41  1  0  0  0  0
 40 39  2  0  0  0  0
 40 41  1  0  0  0  0
 42 43  1  0  0  0  0
 42 31  1  0  0  0  0
 43 44  1  0  0  0  0
 45 46  1  0  0  0  0
 46 47  2  0  0  0  0
 48 46  1  0  0  0  0
 49 48  1  6  0  0  0
 52 51  1  6  0  0  0
 52 53  1  0  0  0  0
 53 49  1  1  0  0  0
 53 50  1  0  0  0  0
 55 54  1  1  0  0  0
 55 52  1  0  0  0  0
 55 57  1  0  0  0  0
 56 50  1  0  0  0  0
 57 56  1  0  0  0  0
 59 60  2  0  0  0  0
 60 58  1  0  0  0  0
 60 49  1  0  0  0  0
M  END
>  <MODEL>
9

>  <REMARK>
 VINA RESULT:      -6.5      2.499      8.518
  Name = 
  19 active torsions:
  status: ('A' for Active; 'I' for Inactive)
    1  A    between atoms: C_1  and  C_12
    2  A    between atoms: N_5  and  C_12
    3  A    between atoms: N_5  and  N_58
    4  A    between atoms: C_8  and  C_32
    5  A    between atoms: C_8  and  C_50
    6  A    between atoms: C_9  and  C_12
    7  A    between atoms: C_10  and  O_57
    8  A    between atoms: N_15  and  C_51
    9  A    between atoms: C_16  and  C_42
   10  A    between atoms: O_18  and  N_27
   11  A    between atoms: O_18  and  C_32
   12  A    between atoms: C_19  and  C_49
   13  A    between atoms: C_19  and  O_57
   14  A    between atoms: N_24  and  C_37
   15  A    between atoms: N_24  and  C_38
   16  A    between atoms: N_24  and  C_42
   17  A    between atoms: C_28  and  C_50
   18  A    between atoms: C_36  and  C_50
   19  A    between atoms: C_37  and  C_49
                            x       y       z     vdW  Elec       q    Type
                         _______ _______ _______ _____ _____    ______ ____

>  <TORSDO>
F 19

$$$$
