=
 OpenBabel11042413153D

 61 68  0  0  1  0  0  0  0  0999 V2000
  192.5640  176.0120  138.9370 O   0  0  0  0  0  0  0  0  0  0  0  0
  189.0420  176.7900  138.7520 C   0  0  2  0  0  3  0  0  0  0  0  0
  188.8050  177.4230  140.1750 C   0  0  1  0  0  3  0  0  0  0  0  0
  190.4330  176.8130  138.0930 C   0  0  1  0  0  0  0  0  0  0  0  0
  191.6270  177.0440  139.1470 C   0  0  1  0  0  3  0  0  0  0  0  0
  190.7940  175.6140  137.1770 C   0  0  0  0  0  2  0  0  0  0  0  0
  190.5750  176.8550  144.4340 C   0  0  0  0  0  1  0  0  0  0  0  0
  191.0920  177.6820  143.2200 C   0  0  2  0  0  0  0  0  0  0  0  0
  192.2860  175.4260  137.6030 C   0  0  2  0  0  3  0  0  0  0  0  0
  189.7930  177.9650  142.3870 C   0  0  1  0  0  3  0  0  0  0  0  0
  190.0440  178.0190  140.8780 C   0  0  1  0  0  3  0  0  0  0  0  0
  187.6170  178.4430  140.3880 C   0  0  0  0  0  1  0  0  0  0  0  0
  191.3470  177.2280  140.6900 C   0  0  2  0  0  3  0  0  0  0  0  0
  192.0380  176.9240  142.1370 C   0  0  0  0  0  2  0  0  0  0  0  0
  189.3660  178.0260  138.0030 C   0  0  1  0  0  3  0  0  0  0  0  0
  186.9840  178.7530  136.6750 C   0  0  0  0  0  2  0  0  0  0  0  0
  188.0420  177.9320  135.7940 C   0  0  1  0  0  3  0  0  0  0  0  0
  188.0900  177.9260  137.3690 C   0  0  1  0  0  3  0  0  0  0  0  0
  187.7240  176.5780  135.2330 C   0  0  0  0  0  2  0  0  0  0  0  0
  187.5640  174.3210  136.9900 O   0  0  0  0  0  1  0  0  0  0  0  0
  186.4110  174.9440  134.8050 N   0  0  0  0  0  2  0  0  0  0  0  0
  187.4430  174.2460  135.6980 C   0  0  2  0  0  0  0  0  0  0  0  0
  186.9000  175.6310  135.9130 C   0  0  1  0  0  3  0  0  0  0  0  0
  186.6150  173.0300  135.7570 C   0  0  1  0  0  3  0  0  0  0  0  0
  187.1090  171.8260  135.2560 O   0  0  0  0  0  1  0  0  0  0  0  0
  185.6000  172.6990  136.8930 C   0  0  0  0  0  2  0  0  0  0  0  0
  183.1020  172.2400  137.0490 C   0  0  0  0  0  1  0  0  0  0  0  0
  184.4400  171.8490  136.3890 C   0  0  0  0  0  2  0  0  0  0  0  0
  188.0970  175.9270  142.4820 O   0  0  0  0  0  0  0  0  0  0  0  0
  188.4250  177.1170  142.7650 C   0  0  0  0  0  0  0  0  0  0  0  0
  187.4380  178.0300  142.8990 O   0  0  0  0  0  0  0  0  0  0  0  0
  186.0180  178.0510  145.1180 C   0  0  0  0  0  1  0  0  0  0  0  0
  186.1720  177.7790  143.6320 C   0  0  1  0  0  3  0  0  0  0  0  0
  185.0540  178.3530  142.8720 C   0  0  0  0  0  2  0  0  0  0  0  0
  183.9220  178.2400  143.7140 O   0  0  0  0  0  0  0  0  0  0  0  0
  182.8470  178.9880  143.2440 C   0  0  2  0  0  3  0  0  0  0  0  0
  181.5040  178.7970  143.9890 C   0  0  0  0  0  1  0  0  0  0  0  0
  182.7600  178.9230  141.7340 C   0  0  0  0  0  2  0  0  0  0  0  0
  180.8640  179.4250  140.5100 C   0  0  0  0  0  2  0  0  0  0  0  0
  181.8950  177.2060  140.2980 O   0  0  0  0  0  0  0  0  0  0  0  0
  181.1720  177.3780  139.1830 N   0  0  0  0  0  0  0  0  0  0  0  0
  181.4690  178.2110  141.2580 C   0  0  1  0  0  3  0  0  0  0  0  0
  180.9630  178.8490  139.0770 C   0  0  0  0  0  2  0  0  0  0  0  0
  183.4790  176.4210  137.9100 C   0  0  0  0  0  1  0  0  0  0  0  0
  181.1860  175.0660  138.5620 C   0  0  0  0  0  1  0  0  0  0  0  0
  181.8490  176.4690  138.1010 C   0  0  0  0  0  0  0  0  0  0  0  0
  181.9910  177.7250  135.8120 C   0  0  1  0  0  3  0  0  0  0  0  0
  181.1480  176.7360  136.7020 C   0  0  1  0  0  3  0  0  0  0  0  0
  181.8270  176.2480  135.4100 C   0  0  0  0  0  2  0  0  0  0  0  0
  181.0350  178.8740  135.3460 C   0  0  0  0  0  2  0  0  0  0  0  0
  181.1440  180.1220  135.9680 O   0  0  0  0  0  1  0  0  0  0  0  0
  191.8440  178.9550  143.7030 C   0  0  0  0  0  3  0  0  0  0  0  0
  191.2760  179.8820  144.5480 C   0  0  0  0  0  2  0  0  0  0  0  0
  192.8240  173.9410  137.3860 C   0  0  0  0  0  2  0  0  0  0  0  0
  194.3440  173.4530  136.3210 S   0  0  0  0  0  0  0  0  0  0  0  0
  195.2620  172.4750  137.2190 N   0  0  0  0  0  2  0  0  0  0  0  0
  197.2870  169.8170  135.6460 O   0  0  0  0  0  0  0  0  0  0  0  0
  196.3260  170.4050  136.1740 C   0  0  0  0  0  3  0  0  0  0  0  0
  196.4540  171.7130  136.7360 N   0  0  0  0  0  0  0  0  0  0  0  0
  197.8050  172.4210  136.8400 C   0  0  0  0  0  2  0  0  0  0  0  0
  197.8740  173.8040  136.4500 O   0  0  0  0  0  1  0  0  0  0  0  0
  1  5  1  0  0  0  0
  2  3  1  0  0  0  0
  3 12  1  0  0  0  0
  3 11  1  0  0  0  0
  4  2  1  0  0  0  0
  4  5  1  0  0  0  0
  5 13  1  0  0  0  0
  6  9  1  0  0  0  0
  6  4  1  0  0  0  0
  8 52  1  0  0  0  0
  8  7  1  0  0  0  0
  9  1  1  0  0  0  0
 10 30  1  0  0  0  0
 10  8  1  0  0  0  0
 11 10  1  0  0  0  0
 13 11  1  0  0  0  0
 13 14  1  0  0  0  0
 14  8  1  0  0  0  0
 15  4  1  0  0  0  0
 15  2  1  0  0  0  0
 16 18  1  0  0  0  0
 17 16  1  0  0  0  0
 17 18  1  0  0  0  0
 18 15  1  0  0  0  0
 19 17  1  0  0  0  0
 19 23  1  0  0  0  0
 21 22  1  0  0  0  0
 21 23  1  0  0  0  0
 22 24  1  0  0  0  0
 22 23  1  0  0  0  0
 22 20  1  0  0  0  0
 24 26  1  0  0  0  0
 25 24  1  0  0  0  0
 28 26  1  0  0  0  0
 28 27  1  0  0  0  0
 29 30  2  0  0  0  0
 30 31  1  0  0  0  0
 31 33  1  0  0  0  0
 33 32  1  0  0  0  0
 34 33  1  0  0  0  0
 34 35  1  0  0  0  0
 36 35  1  0  0  0  0
 36 37  1  0  0  0  0
 38 36  1  0  0  0  0
 39 42  1  0  0  0  0
 40 42  1  0  0  0  0
 41 40  1  0  0  0  0
 42 38  1  0  0  0  0
 43 41  1  0  0  0  0
 43 39  1  0  0  0  0
 44 46  1  0  0  0  0
 46 45  1  0  0  0  0
 46 41  1  0  0  0  0
 47 48  1  0  0  0  0
 48 46  1  0  0  0  0
 49 47  1  0  0  0  0
 49 48  1  0  0  0  0
 50 47  1  0  0  0  0
 50 51  1  0  0  0  0
 52 53  2  0  0  0  0
 54  9  1  0  0  0  0
 55 56  1  0  0  0  0
 55 54  1  0  0  0  0
 57 58  2  0  0  0  0
 58 59  1  0  0  0  0
 59 60  1  0  0  0  0
 59 56  1  0  0  0  0
 61 60  1  0  0  0  0
M  END
>  <MODEL>
1

>  <REMARK>
 VINA RESULT:      -5.8      0.000      0.000
  Name = 
  22 active torsions:
  status: ('A' for Active; 'I' for Inactive)
    1  A    between atoms: O_5  and  C_10
    2  A    between atoms: O_5  and  C_22
    3  A    between atoms: C_8  and  C_48
    4  A    between atoms: C_8  and  C_58
    5  A    between atoms: C_9  and  C_18
    6  A    between atoms: C_10  and  C_26
    7  A    between atoms: C_11  and  C_25
    8  A    between atoms: C_11  and  C_59
    9  A    between atoms: C_13  and  C_33
   10  A    between atoms: C_13  and  S_46
   11  A    between atoms: O_14  and  C_35
   12  A    between atoms: O_14  and  C_50
   13  A    between atoms: C_19  and  C_60
   14  A    between atoms: C_22  and  C_50
   15  A    between atoms: C_26  and  C_34
   16  A    between atoms: C_27  and  C_32
   17  A    between atoms: N_30  and  C_60
   18  A    between atoms: C_31  and  N_45
   19  A    between atoms: C_35  and  C_37
   20  A    between atoms: N_45  and  N_54
   21  A    between atoms: C_51  and  C_57
   22  A    between atoms: C_55  and  C_58
                            x       y       z     vdW  Elec       q    Type
                         _______ _______ _______ _____ _____    ______ ____

>  <TORSDO>
F 22

$$$$
=
 OpenBabel11042413153D

 61 68  0  0  1  0  0  0  0  0999 V2000
  192.3170  176.1930  139.1050 O   0  0  0  0  0  0  0  0  0  0  0  0
  188.7740  176.8920  139.0340 C   0  0  2  0  0  3  0  0  0  0  0  0
  188.5620  177.4820  140.4790 C   0  0  1  0  0  3  0  0  0  0  0  0
  190.1460  176.9650  138.3390 C   0  0  1  0  0  0  0  0  0  0  0  0
  191.3620  177.1970  139.3670 C   0  0  1  0  0  3  0  0  0  0  0  0
  190.5090  175.7990  137.3820 C   0  0  0  0  0  2  0  0  0  0  0  0
  190.4580  176.8460  144.6730 C   0  0  0  0  0  1  0  0  0  0  0  0
  190.9230  177.7170  143.4680 C   0  0  2  0  0  0  0  0  0  0  0  0
  192.0160  175.6340  137.7640 C   0  0  2  0  0  3  0  0  0  0  0  0
  189.5960  177.9900  142.6780 C   0  0  1  0  0  3  0  0  0  0  0  0
  189.8050  178.0890  141.1650 C   0  0  1  0  0  3  0  0  0  0  0  0
  187.3570  178.4690  140.7490 C   0  0  0  0  0  1  0  0  0  0  0  0
  191.1200  177.3340  140.9210 C   0  0  2  0  0  3  0  0  0  0  0  0
  191.8570  177.0090  142.3410 C   0  0  0  0  0  2  0  0  0  0  0  0
  189.0500  178.1550  138.3090 C   0  0  1  0  0  3  0  0  0  0  0  0
  186.6250  178.8570  137.0470 C   0  0  0  0  0  2  0  0  0  0  0  0
  187.6720  178.0590  136.1340 C   0  0  1  0  0  3  0  0  0  0  0  0
  187.7590  178.0410  137.7070 C   0  0  1  0  0  3  0  0  0  0  0  0
  187.3600  176.7050  135.5690 C   0  0  0  0  0  2  0  0  0  0  0  0
  188.0470  173.9390  135.8600 O   0  0  0  0  0  1  0  0  0  0  0  0
  185.9370  175.2920  136.3150 N   0  0  0  0  0  2  0  0  0  0  0  0
  186.8640  174.3630  135.5250 C   0  0  2  0  0  0  0  0  0  0  0  0
  187.3080  175.5240  136.3690 C   0  0  1  0  0  3  0  0  0  0  0  0
  186.1870  173.1740  136.0690 C   0  0  1  0  0  3  0  0  0  0  0  0
  186.8430  171.9440  136.0820 O   0  0  0  0  0  1  0  0  0  0  0  0
  185.1730  173.1930  137.2530 C   0  0  0  0  0  2  0  0  0  0  0  0
  182.7810  172.5690  136.6480 C   0  0  0  0  0  1  0  0  0  0  0  0
  184.1520  172.0650  137.1430 C   0  0  0  0  0  2  0  0  0  0  0  0
  188.0020  175.8780  142.8640 O   0  0  0  0  0  0  0  0  0  0  0  0
  188.2580  177.1020  143.0690 C   0  0  0  0  0  0  0  0  0  0  0  0
  187.2220  177.9680  143.0990 O   0  0  0  0  0  0  0  0  0  0  0  0
  186.0730  177.9670  145.4700 C   0  0  0  0  0  1  0  0  0  0  0  0
  186.0260  177.7990  143.9620 C   0  0  1  0  0  3  0  0  0  0  0  0
  184.9050  178.5500  143.3820 C   0  0  0  0  0  2  0  0  0  0  0  0
  183.9760  178.7230  144.4350 O   0  0  0  0  0  0  0  0  0  0  0  0
  182.7020  179.0200  143.9610 C   0  0  2  0  0  3  0  0  0  0  0  0
  181.5480  178.1500  144.5150 C   0  0  0  0  0  1  0  0  0  0  0  0
  182.7100  179.1980  142.4580 C   0  0  0  0  0  2  0  0  0  0  0  0
  180.5410  179.8370  141.9750 C   0  0  0  0  0  2  0  0  0  0  0  0
  181.7710  178.4210  140.3900 O   0  0  0  0  0  0  0  0  0  0  0  0
  180.8020  179.0090  139.6750 N   0  0  0  0  0  0  0  0  0  0  0  0
  181.4460  178.5920  141.7970 C   0  0  1  0  0  3  0  0  0  0  0  0
  180.3910  180.1950  140.4770 C   0  0  0  0  0  2  0  0  0  0  0  0
  180.3450  178.7540  136.9210 C   0  0  0  0  0  1  0  0  0  0  0  0
  181.9670  180.5290  138.2390 C   0  0  0  0  0  1  0  0  0  0  0  0
  181.3320  179.0410  138.2000 C   0  0  0  0  0  0  0  0  0  0  0  0
  182.2780  176.7020  137.5150 C   0  0  1  0  0  3  0  0  0  0  0  0
  182.6220  178.1210  138.1050 C   0  0  1  0  0  3  0  0  0  0  0  0
  183.1460  177.6940  136.7220 C   0  0  0  0  0  2  0  0  0  0  0  0
  182.8480  175.6270  138.5010 C   0  0  0  0  0  2  0  0  0  0  0  0
  182.2660  175.5130  139.7670 O   0  0  0  0  0  1  0  0  0  0  0  0
  191.6580  178.9940  143.9640 C   0  0  0  0  0  3  0  0  0  0  0  0
  191.0000  180.1650  144.2680 C   0  0  0  0  0  2  0  0  0  0  0  0
  192.5820  174.1690  137.4940 C   0  0  0  0  0  2  0  0  0  0  0  0
  194.1110  173.7480  136.4120 S   0  0  0  0  0  0  0  0  0  0  0  0
  195.4230  174.0310  137.3100 N   0  0  0  0  0  2  0  0  0  0  0  0
  198.5910  172.1450  137.0840 O   0  0  0  0  0  0  0  0  0  0  0  0
  197.4780  172.5290  137.4870 C   0  0  0  0  0  3  0  0  0  0  0  0
  196.8260  173.6760  136.9360 N   0  0  0  0  0  0  0  0  0  0  0  0
  197.5090  174.5790  135.9100 C   0  0  0  0  0  2  0  0  0  0  0  0
  197.8240  175.9280  136.3010 O   0  0  0  0  0  1  0  0  0  0  0  0
  1  5  1  0  0  0  0
  2  3  1  0  0  0  0
  3 12  1  0  0  0  0
  3 11  1  0  0  0  0
  4  2  1  0  0  0  0
  4  5  1  0  0  0  0
  5 13  1  0  0  0  0
  6  9  1  0  0  0  0
  6  4  1  0  0  0  0
  8 52  1  0  0  0  0
  8  7  1  0  0  0  0
  9  1  1  0  0  0  0
 10 30  1  0  0  0  0
 10  8  1  0  0  0  0
 11 10  1  0  0  0  0
 13 11  1  0  0  0  0
 13 14  1  0  0  0  0
 14  8  1  0  0  0  0
 15  4  1  0  0  0  0
 15  2  1  0  0  0  0
 16 18  1  0  0  0  0
 17 16  1  0  0  0  0
 17 18  1  0  0  0  0
 18 15  1  0  0  0  0
 19 17  1  0  0  0  0
 19 23  1  0  0  0  0
 21 23  1  0  0  0  0
 22 20  1  0  0  0  0
 22 24  1  0  0  0  0
 22 21  1  0  0  0  0
 22 23  1  0  0  0  0
 24 25  1  0  0  0  0
 24 26  1  0  0  0  0
 27 28  1  0  0  0  0
 28 26  1  0  0  0  0
 29 30  2  0  0  0  0
 30 31  1  0  0  0  0
 31 33  1  0  0  0  0
 33 32  1  0  0  0  0
 34 33  1  0  0  0  0
 34 35  1  0  0  0  0
 36 35  1  0  0  0  0
 36 37  1  0  0  0  0
 38 36  1  0  0  0  0
 40 42  1  0  0  0  0
 41 40  1  0  0  0  0
 41 43  1  0  0  0  0
 42 39  1  0  0  0  0
 42 38  1  0  0  0  0
 43 39  1  0  0  0  0
 44 46  1  0  0  0  0
 46 45  1  0  0  0  0
 46 41  1  0  0  0  0
 47 48  1  0  0  0  0
 47 50  1  0  0  0  0
 48 46  1  0  0  0  0
 49 47  1  0  0  0  0
 49 48  1  0  0  0  0
 50 51  1  0  0  0  0
 52 53  2  0  0  0  0
 54  9  1  0  0  0  0
 55 56  1  0  0  0  0
 55 54  1  0  0  0  0
 57 58  2  0  0  0  0
 59 56  1  0  0  0  0
 59 58  1  0  0  0  0
 60 61  1  0  0  0  0
 60 59  1  0  0  0  0
M  END
>  <MODEL>
2

>  <REMARK>
 VINA RESULT:      -5.7      1.208      1.765
  Name = 
  22 active torsions:
  status: ('A' for Active; 'I' for Inactive)
    1  A    between atoms: O_5  and  C_10
    2  A    between atoms: O_5  and  C_22
    3  A    between atoms: C_8  and  C_48
    4  A    between atoms: C_8  and  C_58
    5  A    between atoms: C_9  and  C_18
    6  A    between atoms: C_10  and  C_26
    7  A    between atoms: C_11  and  C_25
    8  A    between atoms: C_11  and  C_59
    9  A    between atoms: C_13  and  C_33
   10  A    between atoms: C_13  and  S_46
   11  A    between atoms: O_14  and  C_35
   12  A    between atoms: O_14  and  C_50
   13  A    between atoms: C_19  and  C_60
   14  A    between atoms: C_22  and  C_50
   15  A    between atoms: C_26  and  C_34
   16  A    between atoms: C_27  and  C_32
   17  A    between atoms: N_30  and  C_60
   18  A    between atoms: C_31  and  N_45
   19  A    between atoms: C_35  and  C_37
   20  A    between atoms: N_45  and  N_54
   21  A    between atoms: C_51  and  C_57
   22  A    between atoms: C_55  and  C_58
                            x       y       z     vdW  Elec       q    Type
                         _______ _______ _______ _____ _____    ______ ____

>  <TORSDO>
F 22

$$$$
=
 OpenBabel11042413153D

 61 68  0  0  1  0  0  0  0  0999 V2000
  192.2550  176.1420  138.9460 O   0  0  0  0  0  0  0  0  0  0  0  0
  188.6950  176.6840  138.6690 C   0  0  2  0  0  3  0  0  0  0  0  0
  188.4020  177.4180  140.0310 C   0  0  1  0  0  3  0  0  0  0  0  0
  190.0910  176.7360  138.0210 C   0  0  1  0  0  0  0  0  0  0  0  0
  191.2550  177.1280  139.0610 C   0  0  1  0  0  3  0  0  0  0  0  0
  190.5350  175.4880  137.2130 C   0  0  0  0  0  2  0  0  0  0  0  0
  190.1490  177.3230  144.3360 C   0  0  0  0  0  1  0  0  0  0  0  0
  190.6300  178.0750  143.0610 C   0  0  2  0  0  0  0  0  0  0  0  0
  192.0300  175.4290  137.6650 C   0  0  2  0  0  3  0  0  0  0  0  0
  189.3270  178.2050  142.1970 C   0  0  1  0  0  3  0  0  0  0  0  0
  189.5930  178.1470  140.6900 C   0  0  1  0  0  3  0  0  0  0  0  0
  187.1520  178.3780  140.1470 C   0  0  0  0  0  1  0  0  0  0  0  0
  190.9450  177.4240  140.5800 C   0  0  2  0  0  3  0  0  0  0  0  0
  191.6340  177.2870  142.0530 C   0  0  0  0  0  2  0  0  0  0  0  0
  188.9530  177.8700  137.8190 C   0  0  1  0  0  3  0  0  0  0  0  0
  186.5910  178.3130  136.3400 C   0  0  0  0  0  2  0  0  0  0  0  0
  187.6820  177.3760  135.6340 C   0  0  1  0  0  3  0  0  0  0  0  0
  187.6940  177.6380  137.1870 C   0  0  1  0  0  3  0  0  0  0  0  0
  187.3990  175.9390  135.3040 C   0  0  0  0  0  2  0  0  0  0  0  0
  186.7670  173.3540  136.3650 O   0  0  0  0  0  1  0  0  0  0  0  0
  185.4040  175.1730  135.2130 N   0  0  0  0  0  2  0  0  0  0  0  0
  186.2000  173.8670  135.3140 C   0  0  2  0  0  0  0  0  0  0  0  0
  186.5030  175.1320  136.0670 C   0  0  1  0  0  3  0  0  0  0  0  0
  184.9630  173.0900  135.4920 C   0  0  1  0  0  3  0  0  0  0  0  0
  184.6430  172.0730  134.5940 O   0  0  0  0  0  1  0  0  0  0  0  0
  184.3280  172.7320  136.8710 C   0  0  0  0  0  2  0  0  0  0  0  0
  182.4870  174.3820  137.4740 C   0  0  0  0  0  1  0  0  0  0  0  0
  182.8270  172.9950  136.8910 C   0  0  0  0  0  2  0  0  0  0  0  0
  187.8240  176.0580  142.6030 O   0  0  0  0  0  0  0  0  0  0  0  0
  188.0080  177.3110  142.6350 C   0  0  0  0  0  0  0  0  0  0  0  0
  186.9330  178.1110  142.4680 O   0  0  0  0  0  0  0  0  0  0  0  0
  186.1380  178.2390  144.9770 C   0  0  0  0  0  1  0  0  0  0  0  0
  185.8650  178.2870  143.4840 C   0  0  1  0  0  3  0  0  0  0  0  0
  185.0560  179.4620  143.1330 C   0  0  0  0  0  2  0  0  0  0  0  0
  184.0990  179.5890  144.1680 O   0  0  0  0  0  0  0  0  0  0  0  0
  182.8110  179.3080  143.7220 C   0  0  2  0  0  3  0  0  0  0  0  0
  182.0560  178.1890  144.4790 C   0  0  0  0  0  1  0  0  0  0  0  0
  182.7700  179.2030  142.2130 C   0  0  0  0  0  2  0  0  0  0  0  0
  180.5260  179.6990  142.4630 C   0  0  0  0  0  2  0  0  0  0  0  0
  181.3680  178.9570  140.2790 O   0  0  0  0  0  0  0  0  0  0  0  0
  180.2270  179.6100  140.0250 N   0  0  0  0  0  0  0  0  0  0  0  0
  181.4050  178.6740  141.7050 C   0  0  1  0  0  3  0  0  0  0  0  0
  179.9860  180.4560  141.2270 C   0  0  0  0  0  2  0  0  0  0  0  0
  181.6550  179.7450  137.6160 C   0  0  0  0  0  1  0  0  0  0  0  0
  178.9460  179.5690  138.0030 C   0  0  0  0  0  1  0  0  0  0  0  0
  180.3620  180.1290  138.5520 C   0  0  0  0  0  0  0  0  0  0  0  0
  180.5850  182.3420  137.1780 C   0  0  1  0  0  3  0  0  0  0  0  0
  180.1360  181.7000  138.5440 C   0  0  1  0  0  3  0  0  0  0  0  0
  179.1000  182.3100  137.5830 C   0  0  0  0  0  2  0  0  0  0  0  0
  181.5610  183.5210  137.5070 C   0  0  0  0  0  2  0  0  0  0  0  0
  181.6600  184.5750  136.5930 O   0  0  0  0  0  1  0  0  0  0  0  0
  191.2970  179.4270  143.4380 C   0  0  0  0  0  2  0  0  0  0  0  0
  191.8380  179.6720  144.6820 C   0  0  0  0  0  1  0  0  0  0  0  0
  192.6610  173.9670  137.5800 C   0  0  0  0  0  2  0  0  0  0  0  0
  194.4900  173.5660  137.1600 S   0  0  0  0  0  0  0  0  0  0  0  0
  195.2750  174.9740  137.0570 N   0  0  0  0  0  2  0  0  0  0  0  0
  198.8840  174.7090  137.7930 O   0  0  0  0  0  0  0  0  0  0  0  0
  197.6500  174.7050  137.9480 C   0  0  0  0  0  3  0  0  0  0  0  0
  196.7550  175.1370  136.9220 N   0  0  0  0  0  0  0  0  0  0  0  0
  197.2570  175.7540  135.6170 C   0  0  0  0  0  2  0  0  0  0  0  0
  196.2940  176.3820  134.7510 O   0  0  0  0  0  1  0  0  0  0  0  0
  1  5  1  0  0  0  0
  2  3  1  0  0  0  0
  3 12  1  0  0  0  0
  3 11  1  0  0  0  0
  4  2  1  0  0  0  0
  4  5  1  0  0  0  0
  5 13  1  0  0  0  0
  6  9  1  0  0  0  0
  6  4  1  0  0  0  0
  8 52  1  0  0  0  0
  8  7  1  0  0  0  0
  9  1  1  0  0  0  0
 10 30  1  0  0  0  0
 10  8  1  0  0  0  0
 11 10  1  0  0  0  0
 13 11  1  0  0  0  0
 13 14  1  0  0  0  0
 14  8  1  0  0  0  0
 15  4  1  0  0  0  0
 15  2  1  0  0  0  0
 16 18  1  0  0  0  0
 17 16  1  0  0  0  0
 17 18  1  0  0  0  0
 18 15  1  0  0  0  0
 19 17  1  0  0  0  0
 19 23  1  0  0  0  0
 21 22  1  0  0  0  0
 21 23  1  0  0  0  0
 22 24  1  0  0  0  0
 22 23  1  0  0  0  0
 22 20  1  0  0  0  0
 24 26  1  0  0  0  0
 25 24  1  0  0  0  0
 26 28  1  0  0  0  0
 28 27  1  0  0  0  0
 29 30  2  0  0  0  0
 31 30  1  0  0  0  0
 31 33  1  0  0  0  0
 33 32  1  0  0  0  0
 34 33  1  0  0  0  0
 34 35  1  0  0  0  0
 36 35  1  0  0  0  0
 36 37  1  0  0  0  0
 38 36  1  0  0  0  0
 40 42  1  0  0  0  0
 41 40  1  0  0  0  0
 41 43  1  0  0  0  0
 42 38  1  0  0  0  0
 42 39  1  0  0  0  0
 43 39  1  0  0  0  0
 44 46  1  0  0  0  0
 45 46  1  0  0  0  0
 46 41  1  0  0  0  0
 47 50  1  0  0  0  0
 47 49  1  0  0  0  0
 47 48  1  0  0  0  0
 48 46  1  0  0  0  0
 49 48  1  0  0  0  0
 51 50  1  0  0  0  0
 52 53  1  0  0  0  0
 54  9  1  0  0  0  0
 55 54  1  0  0  0  0
 56 55  1  0  0  0  0
 57 58  2  0  0  0  0
 59 56  1  0  0  0  0
 59 58  1  0  0  0  0
 60 59  1  0  0  0  0
 61 60  1  0  0  0  0
M  END
>  <MODEL>
3

>  <REMARK>
 VINA RESULT:      -5.0      1.802      2.445
  Name = 
  22 active torsions:
  status: ('A' for Active; 'I' for Inactive)
    1  A    between atoms: O_5  and  C_10
    2  A    between atoms: O_5  and  C_22
    3  A    between atoms: C_8  and  C_48
    4  A    between atoms: C_8  and  C_58
    5  A    between atoms: C_9  and  C_18
    6  A    between atoms: C_10  and  C_26
    7  A    between atoms: C_11  and  C_25
    8  A    between atoms: C_11  and  C_59
    9  A    between atoms: C_13  and  C_33
   10  A    between atoms: C_13  and  S_46
   11  A    between atoms: O_14  and  C_35
   12  A    between atoms: O_14  and  C_50
   13  A    between atoms: C_19  and  C_60
   14  A    between atoms: C_22  and  C_50
   15  A    between atoms: C_26  and  C_34
   16  A    between atoms: C_27  and  C_32
   17  A    between atoms: N_30  and  C_60
   18  A    between atoms: C_31  and  N_45
   19  A    between atoms: C_35  and  C_37
   20  A    between atoms: N_45  and  N_54
   21  A    between atoms: C_51  and  C_57
   22  A    between atoms: C_55  and  C_58
                            x       y       z     vdW  Elec       q    Type
                         _______ _______ _______ _____ _____    ______ ____

>  <TORSDO>
F 22

$$$$
=
 OpenBabel11042413153D

 61 68  0  0  1  0  0  0  0  0999 V2000
  187.7860  172.9680  134.7100 O   0  0  0  0  0  0  0  0  0  0  0  0
  186.9880  175.5120  137.1460 C   0  0  2  0  0  3  0  0  0  0  0  0
  188.4150  176.1250  137.4110 C   0  0  1  0  0  3  0  0  0  0  0  0
  186.6570  174.8110  135.8170 C   0  0  1  0  0  0  0  0  0  0  0  0
  187.9670  174.3330  135.0120 C   0  0  1  0  0  3  0  0  0  0  0  0
  185.6450  173.6360  135.8760 C   0  0  0  0  0  2  0  0  0  0  0  0
  192.7890  174.5570  137.4180 C   0  0  0  0  0  1  0  0  0  0  0  0
  191.8780  175.0210  136.2430 C   0  0  2  0  0  0  0  0  0  0  0  0
  186.3430  172.6660  134.8680 C   0  0  2  0  0  3  0  0  0  0  0  0
  190.8470  175.9810  136.9350 C   0  0  1  0  0  3  0  0  0  0  0  0
  189.4600  175.9440  136.2890 C   0  0  1  0  0  3  0  0  0  0  0  0
  188.5420  177.6140  137.9240 C   0  0  0  0  0  1  0  0  0  0  0  0
  189.4210  174.5860  135.5710 C   0  0  2  0  0  3  0  0  0  0  0  0
  190.9070  173.9110  135.5560 C   0  0  0  0  0  2  0  0  0  0  0  0
  186.5520  176.4090  136.0510 C   0  0  1  0  0  3  0  0  0  0  0  0
  185.1760  178.3960  137.5070 C   0  0  0  0  0  2  0  0  0  0  0  0
  184.3070  177.6200  136.4070 C   0  0  1  0  0  3  0  0  0  0  0  0
  185.6520  177.0260  136.9720 C   0  0  1  0  0  3  0  0  0  0  0  0
  183.1180  176.7840  136.7810 C   0  0  0  0  0  2  0  0  0  0  0  0
  182.3730  175.7300  139.3390 O   0  0  0  0  0  1  0  0  0  0  0  0
  181.1030  176.9310  137.4840 N   0  0  0  0  0  2  0  0  0  0  0  0
  181.5950  175.7280  138.2970 C   0  0  2  0  0  0  0  0  0  0  0  0
  182.3960  176.9640  137.9990 C   0  0  1  0  0  3  0  0  0  0  0  0
  180.3650  175.7310  139.1050 C   0  0  1  0  0  3  0  0  0  0  0  0
  179.4260  174.7120  138.9480 O   0  0  0  0  0  1  0  0  0  0  0  0
  180.2630  176.2600  140.5680 C   0  0  0  0  0  2  0  0  0  0  0  0
  179.2930  178.2530  141.8160 C   0  0  0  0  0  1  0  0  0  0  0  0
  179.0430  177.1520  140.7660 C   0  0  0  0  0  2  0  0  0  0  0  0
  189.8710  175.5400  139.3620 O   0  0  0  0  0  0  0  0  0  0  0  0
  190.7690  175.9830  138.5860 C   0  0  0  0  0  0  0  0  0  0  0  0
  191.4940  177.0440  138.9990 O   0  0  0  0  0  0  0  0  0  0  0  0
  193.4980  177.8430  140.5120 C   0  0  0  0  0  1  0  0  0  0  0  0
  192.1770  177.1200  140.3150 C   0  0  1  0  0  3  0  0  0  0  0  0
  191.2030  177.5110  141.3420 C   0  0  0  0  0  2  0  0  0  0  0  0
  191.9460  178.1960  142.3320 O   0  0  0  0  0  0  0  0  0  0  0  0
  191.2900  178.2070  143.5590 C   0  0  2  0  0  3  0  0  0  0  0  0
  190.8490  179.5950  144.0850 C   0  0  0  0  0  1  0  0  0  0  0  0
  192.0070  177.3360  144.5670 C   0  0  0  0  0  2  0  0  0  0  0  0
  191.9960  175.8330  146.3230 C   0  0  0  0  0  2  0  0  0  0  0  0
  189.8980  176.9010  145.6270 O   0  0  0  0  0  0  0  0  0  0  0  0
  189.6990  176.5010  146.8900 N   0  0  0  0  0  0  0  0  0  0  0  0
  191.0870  176.2250  145.1330 C   0  0  1  0  0  3  0  0  0  0  0  0
  191.0630  176.3170  147.4590 C   0  0  0  0  0  2  0  0  0  0  0  0
  187.4500  176.9160  148.5120 C   0  0  0  0  0  1  0  0  0  0  0  0
  189.5770  178.5870  148.0580 C   0  0  0  0  0  1  0  0  0  0  0  0
  188.5900  177.4510  147.4600 C   0  0  0  0  0  0  0  0  0  0  0  0
  186.8500  177.2830  145.5160 C   0  0  1  0  0  3  0  0  0  0  0  0
  187.8970  178.2050  146.2470 C   0  0  1  0  0  3  0  0  0  0  0  0
  186.3910  178.5170  146.3130 C   0  0  0  0  0  2  0  0  0  0  0  0
  187.1900  177.3000  143.9880 C   0  0  0  0  0  2  0  0  0  0  0  0
  186.3070  177.9460  143.1170 O   0  0  0  0  0  1  0  0  0  0  0  0
  192.7240  175.6790  135.1170 C   0  0  0  0  0  3  0  0  0  0  0  0
  193.8430  176.4410  135.3720 C   0  0  0  0  0  2  0  0  0  0  0  0
  185.9920  171.1320  135.1190 C   0  0  0  0  0  2  0  0  0  0  0  0
  184.2540  170.3410  134.9250 S   0  0  0  0  0  0  0  0  0  0  0  0
  183.1830  171.3880  135.5310 N   0  0  0  0  0  2  0  0  0  0  0  0
  179.8530  170.0810  134.6130 O   0  0  0  0  0  0  0  0  0  0  0  0
  181.0810  170.2820  134.6000 C   0  0  0  0  0  3  0  0  0  0  0  0
  181.6960  171.2680  135.4330 N   0  0  0  0  0  0  0  0  0  0  0  0
  180.8760  172.2260  136.2950 C   0  0  0  0  0  2  0  0  0  0  0  0
  180.4300  171.7620  137.5830 O   0  0  0  0  0  1  0  0  0  0  0  0
  1  9  1  0  0  0  0
  1  5  1  0  0  0  0
  2  3  1  0  0  0  0
  3 12  1  0  0  0  0
  4  6  1  0  0  0  0
  4 15  1  0  0  0  0
  4  2  1  0  0  0  0
  5 13  1  0  0  0  0
  5  4  1  0  0  0  0
  8 10  1  0  0  0  0
  8  7  1  0  0  0  0
  9 54  1  0  0  0  0
  9  6  1  0  0  0  0
 10 30  1  0  0  0  0
 11 10  1  0  0  0  0
 11  3  1  0  0  0  0
 13 11  1  0  0  0  0
 14 13  1  0  0  0  0
 14  8  1  0  0  0  0
 15 18  1  0  0  0  0
 15  2  1  0  0  0  0
 17 19  1  0  0  0  0
 17 18  1  0  0  0  0
 17 16  1  0  0  0  0
 18 16  1  0  0  0  0
 19 23  1  0  0  0  0
 21 23  1  0  0  0  0
 21 22  1  0  0  0  0
 22 24  1  0  0  0  0
 22 20  1  0  0  0  0
 23 22  1  0  0  0  0
 24 26  1  0  0  0  0
 25 24  1  0  0  0  0
 26 28  1  0  0  0  0
 28 27  1  0  0  0  0
 30 31  1  0  0  0  0
 30 29  2  0  0  0  0
 31 33  1  0  0  0  0
 33 32  1  0  0  0  0
 33 34  1  0  0  0  0
 34 35  1  0  0  0  0
 35 36  1  0  0  0  0
 36 37  1  0  0  0  0
 36 38  1  0  0  0  0
 38 42  1  0  0  0  0
 39 43  1  0  0  0  0
 40 41  1  0  0  0  0
 41 43  1  0  0  0  0
 41 46  1  0  0  0  0
 42 40  1  0  0  0  0
 42 39  1  0  0  0  0
 46 45  1  0  0  0  0
 46 44  1  0  0  0  0
 47 48  1  0  0  0  0
 47 49  1  0  0  0  0
 48 49  1  0  0  0  0
 48 46  1  0  0  0  0
 50 47  1  0  0  0  0
 51 50  1  0  0  0  0
 52 53  2  0  0  0  0
 52  8  1  0  0  0  0
 55 54  1  0  0  0  0
 55 56  1  0  0  0  0
 58 57  2  0  0  0  0
 58 59  1  0  0  0  0
 59 56  1  0  0  0  0
 59 60  1  0  0  0  0
 60 61  1  0  0  0  0
M  END
>  <MODEL>
4

>  <REMARK>
 VINA RESULT:      -4.8      3.793      9.217
  Name = 
  22 active torsions:
  status: ('A' for Active; 'I' for Inactive)
    1  A    between atoms: O_5  and  C_10
    2  A    between atoms: O_5  and  C_22
    3  A    between atoms: C_8  and  C_48
    4  A    between atoms: C_8  and  C_58
    5  A    between atoms: C_9  and  C_18
    6  A    between atoms: C_10  and  C_26
    7  A    between atoms: C_11  and  C_25
    8  A    between atoms: C_11  and  C_59
    9  A    between atoms: C_13  and  C_33
   10  A    between atoms: C_13  and  S_46
   11  A    between atoms: O_14  and  C_35
   12  A    between atoms: O_14  and  C_50
   13  A    between atoms: C_19  and  C_60
   14  A    between atoms: C_22  and  C_50
   15  A    between atoms: C_26  and  C_34
   16  A    between atoms: C_27  and  C_32
   17  A    between atoms: N_30  and  C_60
   18  A    between atoms: C_31  and  N_45
   19  A    between atoms: C_35  and  C_37
   20  A    between atoms: N_45  and  N_54
   21  A    between atoms: C_51  and  C_57
   22  A    between atoms: C_55  and  C_58
                            x       y       z     vdW  Elec       q    Type
                         _______ _______ _______ _____ _____    ______ ____

>  <TORSDO>
F 22

$$$$
=
 OpenBabel11042413153D

 61 68  0  0  1  0  0  0  0  0999 V2000
  184.2480  177.7460  134.7220 O   0  0  0  0  0  0  0  0  0  0  0  0
  183.3400  175.1610  137.0750 C   0  0  2  0  0  3  0  0  0  0  0  0
  181.9410  175.6910  137.5690 C   0  0  1  0  0  3  0  0  0  0  0  0
  183.8940  175.5490  135.6930 C   0  0  1  0  0  0  0  0  0  0  0  0
  183.2040  176.8700  135.0840 C   0  0  1  0  0  3  0  0  0  0  0  0
  185.4350  175.6800  135.5670 C   0  0  0  0  0  2  0  0  0  0  0  0
  179.9610  179.8470  138.1990 C   0  0  0  0  0  1  0  0  0  0  0  0
  180.1290  178.9860  136.9130 C   0  0  2  0  0  0  0  0  0  0  0  0
  185.4950  176.9450  134.6510 C   0  0  2  0  0  3  0  0  0  0  0  0
  180.2700  177.5240  137.4650 C   0  0  1  0  0  3  0  0  0  0  0  0
  181.1890  176.6440  136.6150 C   0  0  1  0  0  3  0  0  0  0  0  0
  180.8760  174.6700  138.1350 C   0  0  0  0  0  1  0  0  0  0  0  0
  182.0760  177.6500  135.8640 C   0  0  2  0  0  3  0  0  0  0  0  0
  181.5000  179.1650  136.0570 C   0  0  0  0  0  2  0  0  0  0  0  0
  182.8800  174.3140  135.9500 C   0  0  1  0  0  3  0  0  0  0  0  0
  182.7040  171.7540  137.1270 C   0  0  0  0  0  2  0  0  0  0  0  0
  183.8460  171.9260  136.0170 C   0  0  1  0  0  3  0  0  0  0  0  0
  183.1980  173.1670  136.7400 C   0  0  1  0  0  3  0  0  0  0  0  0
  185.3020  171.7760  136.3480 C   0  0  0  0  0  2  0  0  0  0  0  0
  187.8860  171.0640  135.3360 O   0  0  0  0  0  1  0  0  0  0  0  0
  186.7430  173.2800  135.8590 N   0  0  0  0  0  2  0  0  0  0  0  0
  187.6650  172.0820  136.1130 C   0  0  2  0  0  0  0  0  0  0  0  0
  186.3420  172.0280  135.4030 C   0  0  1  0  0  3  0  0  0  0  0  0
  188.8280  172.8320  135.6100 C   0  0  1  0  0  3  0  0  0  0  0  0
  188.6630  173.7730  134.5940 O   0  0  0  0  0  1  0  0  0  0  0  0
  190.0480  173.2670  136.4770 C   0  0  0  0  0  2  0  0  0  0  0  0
  191.3110  171.4960  135.1580 C   0  0  0  0  0  1  0  0  0  0  0  0
  191.3730  172.8840  135.8260 C   0  0  0  0  0  2  0  0  0  0  0  0
  179.7930  176.8110  139.9760 O   0  0  0  0  0  0  0  0  0  0  0  0
  180.5330  177.3240  139.0840 C   0  0  0  0  0  0  0  0  0  0  0  0
  181.3780  178.3100  139.4560 O   0  0  0  0  0  0  0  0  0  0  0  0
  180.4730  179.2390  141.7490 C   0  0  0  0  0  1  0  0  0  0  0  0
  181.5960  178.7280  140.8640 C   0  0  1  0  0  3  0  0  0  0  0  0
  182.3870  177.7020  141.5540 C   0  0  0  0  0  2  0  0  0  0  0  0
  183.6610  177.7220  140.9360 O   0  0  0  0  0  0  0  0  0  0  0  0
  184.5470  178.5650  141.6000 C   0  0  2  0  0  3  0  0  0  0  0  0
  185.9430  178.7330  140.9530 C   0  0  0  0  0  1  0  0  0  0  0  0
  184.5580  178.2800  143.0860 C   0  0  0  0  0  2  0  0  0  0  0  0
  184.5180  179.5020  145.0480 C   0  0  0  0  0  2  0  0  0  0  0  0
  186.6190  178.4730  144.3010 O   0  0  0  0  0  0  0  0  0  0  0  0
  186.7610  178.6720  145.6180 N   0  0  0  0  0  0  0  0  0  0  0  0
  185.4790  179.2590  143.8580 C   0  0  1  0  0  3  0  0  0  0  0  0
  185.3750  178.8190  146.1410 C   0  0  0  0  0  2  0  0  0  0  0  0
  188.4640  177.6460  147.5950 C   0  0  0  0  0  1  0  0  0  0  0  0
  186.9230  176.2890  145.7780 C   0  0  0  0  0  1  0  0  0  0  0  0
  187.8100  177.6070  146.0900 C   0  0  0  0  0  0  0  0  0  0  0  0
  190.2950  178.1740  145.5110 C   0  0  1  0  0  3  0  0  0  0  0  0
  188.9610  177.5110  145.0010 C   0  0  1  0  0  3  0  0  0  0  0  0
  190.2060  176.6540  145.2910 C   0  0  0  0  0  2  0  0  0  0  0  0
  190.7640  179.1950  144.4200 C   0  0  0  0  0  2  0  0  0  0  0  0
  192.0540  179.0630  143.8980 O   0  0  0  0  0  1  0  0  0  0  0  0
  178.9310  179.2020  135.9460 C   0  0  0  0  0  3  0  0  0  0  0  0
  179.0060  178.9470  134.5940 C   0  0  0  0  0  2  0  0  0  0  0  0
  186.8460  177.7760  134.8050 C   0  0  0  0  0  2  0  0  0  0  0  0
  188.4030  177.2000  135.7670 S   0  0  0  0  0  0  0  0  0  0  0  0
  188.2910  177.8040  137.2610 N   0  0  0  0  0  2  0  0  0  0  0  0
  189.7340  177.7820  140.6600 O   0  0  0  0  0  0  0  0  0  0  0  0
  189.0870  178.1420  139.6610 C   0  0  0  0  0  3  0  0  0  0  0  0
  189.1920  177.4680  138.4060 N   0  0  0  0  0  0  0  0  0  0  0  0
  190.2010  176.3430  138.1730 C   0  0  0  0  0  2  0  0  0  0  0  0
  191.5920  176.6960  138.0590 O   0  0  0  0  0  1  0  0  0  0  0  0
  1  5  1  0  0  0  0
  2  3  1  0  0  0  0
  3 12  1  0  0  0  0
  4 15  1  0  0  0  0
  4  2  1  0  0  0  0
  5  4  1  0  0  0  0
  5 13  1  0  0  0  0
  6  4  1  0  0  0  0
  8 10  1  0  0  0  0
  8  7  1  0  0  0  0
  9  1  1  0  0  0  0
  9 54  1  0  0  0  0
  9  6  1  0  0  0  0
 10 30  1  0  0  0  0
 11 10  1  0  0  0  0
 11  3  1  0  0  0  0
 13 14  1  0  0  0  0
 13 11  1  0  0  0  0
 14  8  1  0  0  0  0
 15 18  1  0  0  0  0
 15  2  1  0  0  0  0
 17 19  1  0  0  0  0
 17 18  1  0  0  0  0
 17 16  1  0  0  0  0
 18 16  1  0  0  0  0
 20 22  1  0  0  0  0
 21 22  1  0  0  0  0
 23 21  1  0  0  0  0
 23 22  1  0  0  0  0
 23 19  1  0  0  0  0
 24 22  1  0  0  0  0
 24 26  1  0  0  0  0
 25 24  1  0  0  0  0
 27 28  1  0  0  0  0
 28 26  1  0  0  0  0
 30 31  1  0  0  0  0
 30 29  2  0  0  0  0
 31 33  1  0  0  0  0
 33 34  1  0  0  0  0
 33 32  1  0  0  0  0
 35 34  1  0  0  0  0
 35 36  1  0  0  0  0
 36 38  1  0  0  0  0
 37 36  1  0  0  0  0
 38 42  1  0  0  0  0
 39 43  1  0  0  0  0
 40 41  1  0  0  0  0
 41 46  1  0  0  0  0
 41 43  1  0  0  0  0
 42 40  1  0  0  0  0
 42 39  1  0  0  0  0
 45 46  1  0  0  0  0
 46 44  1  0  0  0  0
 48 49  1  0  0  0  0
 48 47  1  0  0  0  0
 48 46  1  0  0  0  0
 49 47  1  0  0  0  0
 50 47  1  0  0  0  0
 51 50  1  0  0  0  0
 52  8  1  0  0  0  0
 53 52  2  0  0  0  0
 54 55  1  0  0  0  0
 55 56  1  0  0  0  0
 56 59  1  0  0  0  0
 58 57  2  0  0  0  0
 59 58  1  0  0  0  0
 60 59  1  0  0  0  0
 61 60  1  0  0  0  0
M  END
>  <MODEL>
5

>  <REMARK>
 VINA RESULT:      -4.3      3.220      8.654
  Name = 
  22 active torsions:
  status: ('A' for Active; 'I' for Inactive)
    1  A    between atoms: O_5  and  C_10
    2  A    between atoms: O_5  and  C_22
    3  A    between atoms: C_8  and  C_48
    4  A    between atoms: C_8  and  C_58
    5  A    between atoms: C_9  and  C_18
    6  A    between atoms: C_10  and  C_26
    7  A    between atoms: C_11  and  C_25
    8  A    between atoms: C_11  and  C_59
    9  A    between atoms: C_13  and  C_33
   10  A    between atoms: C_13  and  S_46
   11  A    between atoms: O_14  and  C_35
   12  A    between atoms: O_14  and  C_50
   13  A    between atoms: C_19  and  C_60
   14  A    between atoms: C_22  and  C_50
   15  A    between atoms: C_26  and  C_34
   16  A    between atoms: C_27  and  C_32
   17  A    between atoms: N_30  and  C_60
   18  A    between atoms: C_31  and  N_45
   19  A    between atoms: C_35  and  C_37
   20  A    between atoms: N_45  and  N_54
   21  A    between atoms: C_51  and  C_57
   22  A    between atoms: C_55  and  C_58
                            x       y       z     vdW  Elec       q    Type
                         _______ _______ _______ _____ _____    ______ ____

>  <TORSDO>
F 22

$$$$
=
 OpenBabel11042413153D

 61 68  0  0  1  0  0  0  0  0999 V2000
  189.8380  174.5120  135.6500 O   0  0  0  0  0  0  0  0  0  0  0  0
  188.7490  177.2370  137.7550 C   0  0  2  0  0  3  0  0  0  0  0  0
  187.1860  177.0440  137.7010 C   0  0  1  0  0  3  0  0  0  0  0  0
  189.7050  176.0540  137.5210 C   0  0  1  0  0  0  0  0  0  0  0  0
  189.0110  174.8250  136.7470 C   0  0  1  0  0  3  0  0  0  0  0  0
  191.0630  176.3740  136.8430 C   0  0  0  0  0  2  0  0  0  0  0  0
  184.1070  175.4720  134.5970 C   0  0  0  0  0  1  0  0  0  0  0  0
  185.0150  174.7080  135.6050 C   0  0  2  0  0  0  0  0  0  0  0  0
  191.1640  175.1280  135.9040 C   0  0  2  0  0  3  0  0  0  0  0  0
  185.2930  175.7680  136.7280 C   0  0  1  0  0  3  0  0  0  0  0  0
  186.6790  175.6260  137.3610 C   0  0  1  0  0  3  0  0  0  0  0  0
  186.2930  177.5820  138.8890 C   0  0  0  0  0  1  0  0  0  0  0  0
  187.4980  174.8760  136.2990 C   0  0  2  0  0  3  0  0  0  0  0  0
  186.5180  174.3160  135.1200 C   0  0  0  0  0  2  0  0  0  0  0  0
  189.0410  176.4140  138.9520 C   0  0  1  0  0  3  0  0  0  0  0  0
  188.6110  178.7250  140.5150 C   0  0  0  0  0  2  0  0  0  0  0  0
  189.4140  177.5420  141.2380 C   0  0  1  0  0  3  0  0  0  0  0  0
  189.2910  177.6240  139.6700 C   0  0  1  0  0  3  0  0  0  0  0  0
  190.8290  177.7150  141.7050 C   0  0  0  0  0  2  0  0  0  0  0  0
  190.3270  176.0490  143.9800 O   0  0  0  0  0  1  0  0  0  0  0  0
  191.4540  178.3110  143.6620 N   0  0  0  0  0  2  0  0  0  0  0  0
  190.3150  177.3480  144.0140 C   0  0  2  0  0  0  0  0  0  0  0  0
  191.3210  177.1430  142.9170 C   0  0  1  0  0  3  0  0  0  0  0  0
  190.6690  177.4040  145.4420 C   0  0  1  0  0  3  0  0  0  0  0  0
  189.6830  177.2190  146.4110 O   0  0  0  0  0  1  0  0  0  0  0  0
  192.0280  176.9300  146.0400 C   0  0  0  0  0  2  0  0  0  0  0  0
  192.0600  175.1320  147.8400 C   0  0  0  0  0  1  0  0  0  0  0  0
  191.9210  176.6370  147.5320 C   0  0  0  0  0  2  0  0  0  0  0  0
  185.6370  178.3210  136.0960 O   0  0  0  0  0  0  0  0  0  0  0  0
  184.9000  177.3440  136.4260 C   0  0  0  0  0  0  0  0  0  0  0  0
  183.7930  177.6060  137.1530 O   0  0  0  0  0  0  0  0  0  0  0  0
  181.8700  178.1020  135.4200 C   0  0  0  0  0  1  0  0  0  0  0  0
  182.6630  178.4400  136.6710 C   0  0  1  0  0  3  0  0  0  0  0  0
  181.7690  178.7370  137.7980 C   0  0  0  0  0  2  0  0  0  0  0  0
  181.7780  177.5770  138.6090 O   0  0  0  0  0  0  0  0  0  0  0  0
  180.8200  177.6400  139.6160 C   0  0  2  0  0  3  0  0  0  0  0  0
  179.7750  178.7750  139.4940 C   0  0  0  0  0  1  0  0  0  0  0  0
  181.4580  177.4970  140.9810 C   0  0  0  0  0  2  0  0  0  0  0  0
  181.3880  178.7210  142.9410 C   0  0  0  0  0  2  0  0  0  0  0  0
  183.4340  178.7200  141.5820 O   0  0  0  0  0  0  0  0  0  0  0  0
  183.8190  179.0710  142.8170 N   0  0  0  0  0  0  0  0  0  0  0  0
  181.9870  178.8510  141.5190 C   0  0  1  0  0  3  0  0  0  0  0  0
  182.7240  178.6040  143.7130 C   0  0  0  0  0  2  0  0  0  0  0  0
  185.8160  177.1100  142.6490 C   0  0  0  0  0  1  0  0  0  0  0  0
  185.9130  179.7370  141.8700 C   0  0  0  0  0  1  0  0  0  0  0  0
  185.3260  178.6530  142.9190 C   0  0  0  0  0  0  0  0  0  0  0  0
  185.6680  178.1220  145.4560 C   0  0  1  0  0  3  0  0  0  0  0  0
  185.9030  179.1700  144.3040 C   0  0  1  0  0  3  0  0  0  0  0  0
  187.0880  178.4320  144.9520 C   0  0  0  0  0  2  0  0  0  0  0  0
  184.9720  178.8700  146.6420 C   0  0  0  0  0  2  0  0  0  0  0  0
  185.7450  179.2110  147.7570 O   0  0  0  0  0  1  0  0  0  0  0  0
  184.3180  173.4080  136.0970 C   0  0  0  0  0  2  0  0  0  0  0  0
  184.4500  172.9300  137.3830 C   0  0  0  0  0  1  0  0  0  0  0  0
  192.0570  175.3810  134.6090 C   0  0  0  0  0  2  0  0  0  0  0  0
  193.9410  175.7490  134.6100 S   0  0  0  0  0  0  0  0  0  0  0  0
  194.6060  174.8290  135.7580 N   0  0  0  0  0  2  0  0  0  0  0  0
  198.1900  175.6440  136.1100 O   0  0  0  0  0  0  0  0  0  0  0  0
  196.9920  175.7300  135.7880 C   0  0  0  0  0  3  0  0  0  0  0  0
  196.0720  174.6570  135.9960 N   0  0  0  0  0  0  0  0  0  0  0  0
  196.5250  173.2900  136.5080 C   0  0  0  0  0  2  0  0  0  0  0  0
  197.2720  173.2420  137.7370 O   0  0  0  0  0  1  0  0  0  0  0  0
  1  9  1  0  0  0  0
  1  5  1  0  0  0  0
  2 15  1  0  0  0  0
  3  2  1  0  0  0  0
  3 12  1  0  0  0  0
  4  2  1  0  0  0  0
  4 15  1  0  0  0  0
  5  4  1  0  0  0  0
  6  4  1  0  0  0  0
  7  8  1  0  0  0  0
  8 52  1  0  0  0  0
  8 10  1  0  0  0  0
  9  6  1  0  0  0  0
 10 11  1  0  0  0  0
 11  3  1  0  0  0  0
 13  5  1  0  0  0  0
 13 11  1  0  0  0  0
 14  8  1  0  0  0  0
 14 13  1  0  0  0  0
 15 18  1  0  0  0  0
 16 17  1  0  0  0  0
 17 19  1  0  0  0  0
 18 16  1  0  0  0  0
 18 17  1  0  0  0  0
 19 23  1  0  0  0  0
 20 22  1  0  0  0  0
 21 22  1  0  0  0  0
 22 24  1  0  0  0  0
 23 21  1  0  0  0  0
 23 22  1  0  0  0  0
 24 26  1  0  0  0  0
 24 25  1  0  0  0  0
 26 28  1  0  0  0  0
 28 27  1  0  0  0  0
 29 30  2  0  0  0  0
 30 10  1  0  0  0  0
 30 31  1  0  0  0  0
 32 33  1  0  0  0  0
 33 31  1  0  0  0  0
 33 34  1  0  0  0  0
 34 35  1  0  0  0  0
 35 36  1  0  0  0  0
 36 38  1  0  0  0  0
 37 36  1  0  0  0  0
 38 42  1  0  0  0  0
 39 43  1  0  0  0  0
 40 41  1  0  0  0  0
 41 46  1  0  0  0  0
 41 43  1  0  0  0  0
 42 40  1  0  0  0  0
 42 39  1  0  0  0  0
 44 46  1  0  0  0  0
 45 46  1  0  0  0  0
 46 48  1  0  0  0  0
 47 50  1  0  0  0  0
 48 49  1  0  0  0  0
 48 47  1  0  0  0  0
 49 47  1  0  0  0  0
 50 51  1  0  0  0  0
 52 53  1  0  0  0  0
 54 55  1  0  0  0  0
 54  9  1  0  0  0  0
 55 56  1  0  0  0  0
 56 59  1  0  0  0  0
 58 59  1  0  0  0  0
 58 57  2  0  0  0  0
 59 60  1  0  0  0  0
 60 61  1  0  0  0  0
M  END
>  <MODEL>
6

>  <REMARK>
 VINA RESULT:      -4.2      2.452      7.512
  Name = 
  22 active torsions:
  status: ('A' for Active; 'I' for Inactive)
    1  A    between atoms: O_5  and  C_10
    2  A    between atoms: O_5  and  C_22
    3  A    between atoms: C_8  and  C_48
    4  A    between atoms: C_8  and  C_58
    5  A    between atoms: C_9  and  C_18
    6  A    between atoms: C_10  and  C_26
    7  A    between atoms: C_11  and  C_25
    8  A    between atoms: C_11  and  C_59
    9  A    between atoms: C_13  and  C_33
   10  A    between atoms: C_13  and  S_46
   11  A    between atoms: O_14  and  C_35
   12  A    between atoms: O_14  and  C_50
   13  A    between atoms: C_19  and  C_60
   14  A    between atoms: C_22  and  C_50
   15  A    between atoms: C_26  and  C_34
   16  A    between atoms: C_27  and  C_32
   17  A    between atoms: N_30  and  C_60
   18  A    between atoms: C_31  and  N_45
   19  A    between atoms: C_35  and  C_37
   20  A    between atoms: N_45  and  N_54
   21  A    between atoms: C_51  and  C_57
   22  A    between atoms: C_55  and  C_58
                            x       y       z     vdW  Elec       q    Type
                         _______ _______ _______ _____ _____    ______ ____

>  <TORSDO>
F 22

$$$$
=
 OpenBabel11042413153D

 61 68  0  0  1  0  0  0  0  0999 V2000
  188.6850  177.8000  142.6340 O   0  0  0  0  0  0  0  0  0  0  0  0
  187.0160  177.6900  139.4340 C   0  0  2  0  0  3  0  0  0  0  0  0
  185.5730  178.1770  139.8370 C   0  0  1  0  0  3  0  0  0  0  0  0
  188.2500  178.0870  140.2630 C   0  0  1  0  0  0  0  0  0  0  0  0
  187.8810  178.5570  141.7580 C   0  0  1  0  0  3  0  0  0  0  0  0
  189.4100  177.0590  140.3290 C   0  0  0  0  0  2  0  0  0  0  0  0
  182.8580  177.8660  143.5950 C   0  0  0  0  0  1  0  0  0  0  0  0
  184.0140  178.8510  143.2560 C   0  0  2  0  0  0  0  0  0  0  0  0
  189.7950  177.2260  141.8350 C   0  0  2  0  0  3  0  0  0  0  0  0
  184.0570  178.8430  141.6870 C   0  0  1  0  0  3  0  0  0  0  0  0
  185.4670  179.0280  141.1210 C   0  0  1  0  0  3  0  0  0  0  0  0
  184.6490  178.8610  138.7530 C   0  0  0  0  0  1  0  0  0  0  0  0
  186.3890  178.5930  142.2710 C   0  0  2  0  0  3  0  0  0  0  0  0
  185.5280  178.4020  143.6440 C   0  0  0  0  0  2  0  0  0  0  0  0
  187.6130  179.0020  139.0900 C   0  0  1  0  0  3  0  0  0  0  0  0
  187.5990  179.1740  136.2730 C   0  0  0  0  0  2  0  0  0  0  0  0
  188.9140  178.5250  136.9180 C   0  0  1  0  0  3  0  0  0  0  0  0
  187.5590  178.6190  137.7150 C   0  0  1  0  0  3  0  0  0  0  0  0
  189.3130  177.1040  136.6450 C   0  0  0  0  0  2  0  0  0  0  0  0
  190.9080  175.1230  135.3280 O   0  0  0  0  0  1  0  0  0  0  0  0
  191.3350  176.7460  137.2460 N   0  0  0  0  0  2  0  0  0  0  0  0
  190.9940  175.4000  136.5950 C   0  0  2  0  0  0  0  0  0  0  0  0
  190.5740  176.7480  136.0800 C   0  0  1  0  0  3  0  0  0  0  0  0
  192.3970  174.9660  136.6860 C   0  0  1  0  0  3  0  0  0  0  0  0
  192.8160  174.1870  137.7640 O   0  0  0  0  0  1  0  0  0  0  0  0
  193.3050  174.6270  135.4650 C   0  0  0  0  0  2  0  0  0  0  0  0
  194.7040  172.6800  134.6130 C   0  0  0  0  0  1  0  0  0  0  0  0
  194.3610  173.5840  135.8140 C   0  0  0  0  0  2  0  0  0  0  0  0
  183.6250  176.6490  140.2590 O   0  0  0  0  0  0  0  0  0  0  0  0
  183.2120  177.6670  140.8910 C   0  0  0  0  0  0  0  0  0  0  0  0
  182.0590  178.2380  140.4820 O   0  0  0  0  0  0  0  0  0  0  0  0
  179.9190  176.7050  140.6030 C   0  0  0  0  0  1  0  0  0  0  0  0
  180.9540  177.4970  139.8230 C   0  0  1  0  0  3  0  0  0  0  0  0
  180.3130  178.3700  138.8310 C   0  0  0  0  0  2  0  0  0  0  0  0
  181.2540  178.5120  137.7830 O   0  0  0  0  0  0  0  0  0  0  0  0
  181.4000  177.3360  137.0540 C   0  0  2  0  0  3  0  0  0  0  0  0
  182.5330  177.3240  135.9990 C   0  0  0  0  0  1  0  0  0  0  0  0
  180.0610  176.8290  136.5650 C   0  0  0  0  0  2  0  0  0  0  0  0
  179.6090  174.9350  135.3190 C   0  0  0  0  0  2  0  0  0  0  0  0
  181.2130  174.8140  137.1750 O   0  0  0  0  0  0  0  0  0  0  0  0
  181.5070  173.7810  136.3730 N   0  0  0  0  0  0  0  0  0  0  0  0
  179.8980  175.3050  136.7950 C   0  0  1  0  0  3  0  0  0  0  0  0
  180.9010  174.1250  135.0570 C   0  0  0  0  0  2  0  0  0  0  0  0
  183.8830  174.2630  137.7800 C   0  0  0  0  0  1  0  0  0  0  0  0
  182.8660  171.8790  136.8870 C   0  0  0  0  0  1  0  0  0  0  0  0
  183.0210  173.4700  136.6310 C   0  0  0  0  0  0  0  0  0  0  0  0
  185.3530  173.5530  135.4530 C   0  0  1  0  0  3  0  0  0  0  0  0
  183.7920  173.5200  135.2440 C   0  0  1  0  0  3  0  0  0  0  0  0
  184.6690  172.3270  134.8240 C   0  0  0  0  0  2  0  0  0  0  0  0
  185.9140  174.7640  134.6330 C   0  0  0  0  0  2  0  0  0  0  0  0
  185.7380  176.0520  135.1460 O   0  0  0  0  0  1  0  0  0  0  0  0
  183.7520  180.2460  143.8900 C   0  0  0  0  0  2  0  0  0  0  0  0
  184.6810  180.8980  144.6720 C   0  0  0  0  0  1  0  0  0  0  0  0
  190.4860  175.9330  142.4590 C   0  0  0  0  0  2  0  0  0  0  0  0
  191.6310  175.9160  143.9990 S   0  0  0  0  0  0  0  0  0  0  0  0
  190.7520  176.4340  145.2520 N   0  0  0  0  0  2  0  0  0  0  0  0
  192.8170  175.8360  148.2560 O   0  0  0  0  0  0  0  0  0  0  0  0
  192.3750  175.7440  147.0960 C   0  0  0  0  0  3  0  0  0  0  0  0
  191.1830  176.4170  146.6840 N   0  0  0  0  0  0  0  0  0  0  0  0
  190.3060  177.1870  147.6700 C   0  0  0  0  0  2  0  0  0  0  0  0
  188.9490  177.4750  147.2850 O   0  0  0  0  0  1  0  0  0  0  0  0
  2  3  1  0  0  0  0
  2  4  1  0  0  0  0
  3 11  1  0  0  0  0
  4  6  1  0  0  0  0
  4  5  1  0  0  0  0
  5 13  1  0  0  0  0
  5  1  1  0  0  0  0
  6  9  1  0  0  0  0
  8  7  1  0  0  0  0
  8 14  1  0  0  0  0
  8 52  1  0  0  0  0
  9 54  1  0  0  0  0
  9  1  1  0  0  0  0
 10  8  1  0  0  0  0
 11 10  1  0  0  0  0
 11 13  1  0  0  0  0
 12  3  1  0  0  0  0
 13 14  1  0  0  0  0
 15  2  1  0  0  0  0
 15  4  1  0  0  0  0
 16 17  1  0  0  0  0
 16 18  1  0  0  0  0
 17 18  1  0  0  0  0
 18 15  1  0  0  0  0
 19 17  1  0  0  0  0
 20 22  1  0  0  0  0
 22 24  1  0  0  0  0
 22 21  1  0  0  0  0
 23 22  1  0  0  0  0
 23 19  1  0  0  0  0
 23 21  1  0  0  0  0
 24 25  1  0  0  0  0
 26 28  1  0  0  0  0
 26 24  1  0  0  0  0
 27 28  1  0  0  0  0
 29 30  2  0  0  0  0
 30 10  1  0  0  0  0
 31 30  1  0  0  0  0
 33 31  1  0  0  0  0
 33 32  1  0  0  0  0
 34 33  1  0  0  0  0
 35 34  1  0  0  0  0
 36 35  1  0  0  0  0
 37 36  1  0  0  0  0
 38 42  1  0  0  0  0
 38 36  1  0  0  0  0
 39 42  1  0  0  0  0
 41 46  1  0  0  0  0
 41 40  1  0  0  0  0
 42 40  1  0  0  0  0
 43 39  1  0  0  0  0
 43 41  1  0  0  0  0
 46 45  1  0  0  0  0
 46 44  1  0  0  0  0
 48 47  1  0  0  0  0
 48 46  1  0  0  0  0
 49 48  1  0  0  0  0
 49 47  1  0  0  0  0
 50 51  1  0  0  0  0
 50 47  1  0  0  0  0
 52 53  1  0  0  0  0
 54 55  1  0  0  0  0
 55 56  1  0  0  0  0
 56 59  1  0  0  0  0
 58 57  2  0  0  0  0
 59 58  1  0  0  0  0
 59 60  1  0  0  0  0
 61 60  1  0  0  0  0
M  END
>  <MODEL>
7

>  <REMARK>
 VINA RESULT:      -3.9      3.213      6.869
  Name = 
  22 active torsions:
  status: ('A' for Active; 'I' for Inactive)
    1  A    between atoms: O_5  and  C_10
    2  A    between atoms: O_5  and  C_22
    3  A    between atoms: C_8  and  C_48
    4  A    between atoms: C_8  and  C_58
    5  A    between atoms: C_9  and  C_18
    6  A    between atoms: C_10  and  C_26
    7  A    between atoms: C_11  and  C_25
    8  A    between atoms: C_11  and  C_59
    9  A    between atoms: C_13  and  C_33
   10  A    between atoms: C_13  and  S_46
   11  A    between atoms: O_14  and  C_35
   12  A    between atoms: O_14  and  C_50
   13  A    between atoms: C_19  and  C_60
   14  A    between atoms: C_22  and  C_50
   15  A    between atoms: C_26  and  C_34
   16  A    between atoms: C_27  and  C_32
   17  A    between atoms: N_30  and  C_60
   18  A    between atoms: C_31  and  N_45
   19  A    between atoms: C_35  and  C_37
   20  A    between atoms: N_45  and  N_54
   21  A    between atoms: C_51  and  C_57
   22  A    between atoms: C_55  and  C_58
                            x       y       z     vdW  Elec       q    Type
                         _______ _______ _______ _____ _____    ______ ____

>  <TORSDO>
F 22

$$$$
=
 OpenBabel11042413153D

 61 68  0  0  1  0  0  0  0  0999 V2000
  188.4660  175.0460  136.0670 O   0  0  0  0  0  0  0  0  0  0  0  0
  186.6670  177.6250  137.8430 C   0  0  2  0  0  3  0  0  0  0  0  0
  185.1890  177.0930  137.7170 C   0  0  1  0  0  3  0  0  0  0  0  0
  187.8670  176.6630  137.7760 C   0  0  1  0  0  0  0  0  0  0  0  0
  187.5090  175.2560  137.0800 C   0  0  1  0  0  3  0  0  0  0  0  0
  189.1750  177.2160  137.1520 C   0  0  0  0  0  2  0  0  0  0  0  0
  182.7590  174.6530  134.5980 C   0  0  0  0  0  1  0  0  0  0  0  0
  183.7290  174.1840  135.7230 C   0  0  2  0  0  0  0  0  0  0  0  0
  189.6080  175.9530  136.3400 C   0  0  2  0  0  3  0  0  0  0  0  0
  183.6890  175.3640  136.7570 C   0  0  1  0  0  3  0  0  0  0  0  0
  185.0210  175.5770  137.4810 C   0  0  1  0  0  3  0  0  0  0  0  0
  184.1140  177.5150  138.7950 C   0  0  0  0  0  1  0  0  0  0  0  0
  186.0590  174.9420  136.5420 C   0  0  2  0  0  3  0  0  0  0  0  0
  185.3130  174.0920  135.3660 C   0  0  0  0  0  2  0  0  0  0  0  0
  187.0340  176.9810  139.1260 C   0  0  1  0  0  3  0  0  0  0  0  0
  186.1040  179.1520  140.6710 C   0  0  0  0  0  2  0  0  0  0  0  0
  187.3840  178.3870  141.2570 C   0  0  1  0  0  3  0  0  0  0  0  0
  186.9670  178.2680  139.7420 C   0  0  1  0  0  3  0  0  0  0  0  0
  188.7080  179.0720  141.4260 C   0  0  0  0  0  2  0  0  0  0  0  0
  190.9930  177.3460  141.4930 O   0  0  0  0  0  1  0  0  0  0  0  0
  189.0290  177.7390  143.0680 N   0  0  0  0  0  2  0  0  0  0  0  0
  189.8270  177.0260  141.9700 C   0  0  2  0  0  0  0  0  0  0  0  0
  189.7790  178.5130  142.1860 C   0  0  1  0  0  3  0  0  0  0  0  0
  190.3860  176.0800  142.9480 C   0  0  1  0  0  3  0  0  0  0  0  0
  190.1070  174.7180  142.8380 O   0  0  0  0  0  1  0  0  0  0  0  0
  191.7760  176.2320  143.6380 C   0  0  0  0  0  2  0  0  0  0  0  0
  190.8930  177.3940  145.7220 C   0  0  0  0  0  1  0  0  0  0  0  0
  191.6640  176.1830  145.1580 C   0  0  0  0  0  2  0  0  0  0  0  0
  183.4880  177.7650  135.6460 O   0  0  0  0  0  0  0  0  0  0  0  0
  182.9960  176.7890  136.2880 C   0  0  0  0  0  0  0  0  0  0  0  0
  182.0210  177.0510  137.1850 O   0  0  0  0  0  0  0  0  0  0  0  0
  179.6920  176.3320  136.1840 C   0  0  0  0  0  1  0  0  0  0  0  0
  180.6160  177.3580  136.8160 C   0  0  1  0  0  3  0  0  0  0  0  0
  179.9610  178.0380  137.9400 C   0  0  0  0  0  2  0  0  0  0  0  0
  180.3770  177.3430  139.1010 O   0  0  0  0  0  0  0  0  0  0  0  0
  180.3680  178.1600  140.2270 C   0  0  2  0  0  3  0  0  0  0  0  0
  180.0240  179.6500  139.9860 C   0  0  0  0  0  1  0  0  0  0  0  0
  181.5880  177.9130  141.0870 C   0  0  0  0  0  2  0  0  0  0  0  0
  180.9740  178.5470  143.2230 C   0  0  0  0  0  2  0  0  0  0  0  0
  183.2580  178.9900  142.4350 O   0  0  0  0  0  0  0  0  0  0  0  0
  183.3280  179.0000  143.7730 N   0  0  0  0  0  0  0  0  0  0  0  0
  181.8540  179.0840  142.0670 C   0  0  1  0  0  3  0  0  0  0  0  0
  182.1150  178.2680  144.2320 C   0  0  0  0  0  2  0  0  0  0  0  0
  185.5430  177.3120  143.4540 C   0  0  0  0  0  1  0  0  0  0  0  0
  185.4830  180.0400  143.7200 C   0  0  0  0  0  1  0  0  0  0  0  0
  184.8100  178.6220  144.1160 C   0  0  0  0  0  0  0  0  0  0  0  0
  186.4870  178.6930  146.1200 C   0  0  1  0  0  3  0  0  0  0  0  0
  184.9740  178.5950  145.6940 C   0  0  1  0  0  3  0  0  0  0  0  0
  185.5080  179.8410  146.4210 C   0  0  0  0  0  2  0  0  0  0  0  0
  186.7820  177.5090  147.1000 C   0  0  0  0  0  2  0  0  0  0  0  0
  187.2120  177.8110  148.3960 O   0  0  0  0  0  1  0  0  0  0  0  0
  183.2870  172.8070  136.2930 C   0  0  0  0  0  3  0  0  0  0  0  0
  181.9860  172.5290  136.6520 C   0  0  0  0  0  2  0  0  0  0  0  0
  190.5240  176.2910  135.0810 C   0  0  0  0  0  2  0  0  0  0  0  0
  192.4410  176.2110  135.0460 S   0  0  0  0  0  0  0  0  0  0  0  0
  192.8700  174.7750  135.6480 N   0  0  0  0  0  2  0  0  0  0  0  0
  195.7190  172.5540  134.8820 O   0  0  0  0  0  0  0  0  0  0  0  0
  194.5530  172.9680  135.0070 C   0  0  0  0  0  3  0  0  0  0  0  0
  194.2540  174.2100  135.6490 N   0  0  0  0  0  0  0  0  0  0  0  0
  195.3320  175.0450  136.3370 C   0  0  0  0  0  2  0  0  0  0  0  0
  195.7250  174.6750  137.6710 O   0  0  0  0  0  1  0  0  0  0  0  0
  1  9  1  0  0  0  0
  1  5  1  0  0  0  0
  2 15  1  0  0  0  0
  3  2  1  0  0  0  0
  3 12  1  0  0  0  0
  4  2  1  0  0  0  0
  4 15  1  0  0  0  0
  5  4  1  0  0  0  0
  6  4  1  0  0  0  0
  7  8  1  0  0  0  0
  8 52  1  0  0  0  0
  8 10  1  0  0  0  0
  9  6  1  0  0  0  0
 10 11  1  0  0  0  0
 11  3  1  0  0  0  0
 13  5  1  0  0  0  0
 13 11  1  0  0  0  0
 14  8  1  0  0  0  0
 14 13  1  0  0  0  0
 15 18  1  0  0  0  0
 16 17  1  0  0  0  0
 17 19  1  0  0  0  0
 18 16  1  0  0  0  0
 18 17  1  0  0  0  0
 19 23  1  0  0  0  0
 20 22  1  0  0  0  0
 22 23  1  0  0  0  0
 22 24  1  0  0  0  0
 22 21  1  0  0  0  0
 23 21  1  0  0  0  0
 24 26  1  0  0  0  0
 25 24  1  0  0  0  0
 26 28  1  0  0  0  0
 28 27  1  0  0  0  0
 29 30  2  0  0  0  0
 30 10  1  0  0  0  0
 30 31  1  0  0  0  0
 32 33  1  0  0  0  0
 33 31  1  0  0  0  0
 33 34  1  0  0  0  0
 34 35  1  0  0  0  0
 35 36  1  0  0  0  0
 36 38  1  0  0  0  0
 37 36  1  0  0  0  0
 38 42  1  0  0  0  0
 39 43  1  0  0  0  0
 40 41  1  0  0  0  0
 41 46  1  0  0  0  0
 41 43  1  0  0  0  0
 42 40  1  0  0  0  0
 42 39  1  0  0  0  0
 44 46  1  0  0  0  0
 45 46  1  0  0  0  0
 46 48  1  0  0  0  0
 47 49  1  0  0  0  0
 47 50  1  0  0  0  0
 48 47  1  0  0  0  0
 48 49  1  0  0  0  0
 50 51  1  0  0  0  0
 52 53  2  0  0  0  0
 54  9  1  0  0  0  0
 55 54  1  0  0  0  0
 55 56  1  0  0  0  0
 56 59  1  0  0  0  0
 57 58  2  0  0  0  0
 58 59  1  0  0  0  0
 59 60  1  0  0  0  0
 60 61  1  0  0  0  0
M  END
>  <MODEL>
8

>  <REMARK>
 VINA RESULT:      -3.7      2.384      7.610
  Name = 
  22 active torsions:
  status: ('A' for Active; 'I' for Inactive)
    1  A    between atoms: O_5  and  C_10
    2  A    between atoms: O_5  and  C_22
    3  A    between atoms: C_8  and  C_48
    4  A    between atoms: C_8  and  C_58
    5  A    between atoms: C_9  and  C_18
    6  A    between atoms: C_10  and  C_26
    7  A    between atoms: C_11  and  C_25
    8  A    between atoms: C_11  and  C_59
    9  A    between atoms: C_13  and  C_33
   10  A    between atoms: C_13  and  S_46
   11  A    between atoms: O_14  and  C_35
   12  A    between atoms: O_14  and  C_50
   13  A    between atoms: C_19  and  C_60
   14  A    between atoms: C_22  and  C_50
   15  A    between atoms: C_26  and  C_34
   16  A    between atoms: C_27  and  C_32
   17  A    between atoms: N_30  and  C_60
   18  A    between atoms: C_31  and  N_45
   19  A    between atoms: C_35  and  C_37
   20  A    between atoms: N_45  and  N_54
   21  A    between atoms: C_51  and  C_57
   22  A    between atoms: C_55  and  C_58
                            x       y       z     vdW  Elec       q    Type
                         _______ _______ _______ _____ _____    ______ ____

>  <TORSDO>
F 22

$$$$
=
 OpenBabel11042413153D

 61 68  0  0  1  0  0  0  0  0999 V2000
  185.5510  178.8060  142.7500 O   0  0  0  0  0  0  0  0  0  0  0  0
  185.1070  177.5930  139.3770 C   0  0  2  0  0  3  0  0  0  0  0  0
  183.5420  177.6980  139.2300 C   0  0  1  0  0  3  0  0  0  0  0  0
  185.8750  178.4900  140.3640 C   0  0  1  0  0  0  0  0  0  0  0  0
  184.9370  179.1070  141.5170 C   0  0  1  0  0  3  0  0  0  0  0  0
  187.1460  177.8850  141.0180 C   0  0  0  0  0  2  0  0  0  0  0  0
  179.8760  177.3240  142.0600 C   0  0  0  0  0  1  0  0  0  0  0  0
  180.8290  178.5240  141.7850 C   0  0  2  0  0  0  0  0  0  0  0  0
  186.9610  178.4450  142.4660 C   0  0  2  0  0  3  0  0  0  0  0  0
  181.3910  178.2270  140.3500 C   0  0  1  0  0  3  0  0  0  0  0  0
  182.8300  178.7100  140.1540 C   0  0  1  0  0  3  0  0  0  0  0  0
  182.9020  177.8560  137.7940 C   0  0  0  0  0  1  0  0  0  0  0  0
  183.3900  178.7980  141.5820 C   0  0  2  0  0  3  0  0  0  0  0  0
  182.1880  178.6280  142.6730 C   0  0  0  0  0  2  0  0  0  0  0  0
  185.4770  178.9320  138.8590 C   0  0  1  0  0  3  0  0  0  0  0  0
  185.7930  178.2220  136.1460 C   0  0  0  0  0  2  0  0  0  0  0  0
  186.9850  179.0870  136.7760 C   0  0  1  0  0  3  0  0  0  0  0  0
  185.9680  178.2930  137.6800 C   0  0  1  0  0  3  0  0  0  0  0  0
  188.3810  178.5480  136.8890 C   0  0  0  0  0  2  0  0  0  0  0  0
  189.5250  176.0650  137.7420 O   0  0  0  0  0  1  0  0  0  0  0  0
  189.7000  177.4500  135.6110 N   0  0  0  0  0  2  0  0  0  0  0  0
  190.1380  176.9240  136.9820 C   0  0  2  0  0  0  0  0  0  0  0  0
  188.7200  177.1990  136.5670 C   0  0  1  0  0  3  0  0  0  0  0  0
  190.9840  175.8980  136.3530 C   0  0  1  0  0  3  0  0  0  0  0  0
  192.2600  176.2310  135.8980 O   0  0  0  0  0  1  0  0  0  0  0  0
  190.9910  174.3880  136.7410 C   0  0  0  0  0  2  0  0  0  0  0  0
  193.3390  174.4030  137.7190 C   0  0  0  0  0  1  0  0  0  0  0  0
  192.3910  173.7890  136.6700 C   0  0  0  0  0  2  0  0  0  0  0  0
  181.9650  175.9030  139.2060 O   0  0  0  0  0  0  0  0  0  0  0  0
  181.1420  176.7230  139.7120 C   0  0  0  0  0  0  0  0  0  0  0  0
  179.8740  176.7140  139.2460 O   0  0  0  0  0  0  0  0  0  0  0  0
  179.6990  179.1110  138.1660 C   0  0  0  0  0  1  0  0  0  0  0  0
  179.3730  177.6280  138.1890 C   0  0  1  0  0  3  0  0  0  0  0  0
  179.6030  177.0160  136.8740 C   0  0  0  0  0  2  0  0  0  0  0  0
  179.3360  175.6360  137.0430 O   0  0  0  0  0  0  0  0  0  0  0  0
  179.6340  174.9060  135.8970 C   0  0  2  0  0  3  0  0  0  0  0  0
  178.9310  175.3610  134.5950 C   0  0  0  0  0  1  0  0  0  0  0  0
  179.5770  173.4180  136.1710 C   0  0  0  0  0  2  0  0  0  0  0  0
  180.2590  171.4820  137.2340 C   0  0  0  0  0  2  0  0  0  0  0  0
  181.8750  173.2920  136.8550 O   0  0  0  0  0  0  0  0  0  0  0  0
  182.6070  172.1820  137.0170 N   0  0  0  0  0  0  0  0  0  0  0  0
  180.5280  173.0050  137.3230 C   0  0  1  0  0  3  0  0  0  0  0  0
  181.6670  171.0550  136.7550 C   0  0  0  0  0  2  0  0  0  0  0  0
  184.6900  171.2840  135.3700 C   0  0  0  0  0  1  0  0  0  0  0  0
  183.4470  173.7270  135.3940 C   0  0  0  0  0  1  0  0  0  0  0  0
  183.9490  172.4510  136.2540 C   0  0  0  0  0  0  0  0  0  0  0  0
  186.1730  173.8030  136.5020 C   0  0  1  0  0  3  0  0  0  0  0  0
  184.9840  173.1050  137.2640 C   0  0  1  0  0  3  0  0  0  0  0  0
  185.1480  174.6350  137.2940 C   0  0  0  0  0  2  0  0  0  0  0  0
  187.5090  173.2510  137.1020 C   0  0  0  0  0  2  0  0  0  0  0  0
  187.9350  171.9770  136.7150 O   0  0  0  0  0  1  0  0  0  0  0  0
  180.0680  179.8730  141.9180 C   0  0  0  0  0  3  0  0  0  0  0  0
  179.1560  180.1210  142.9200 C   0  0  0  0  0  2  0  0  0  0  0  0
  187.6760  177.5600  143.5830 C   0  0  0  0  0  2  0  0  0  0  0  0
  189.3440  177.9770  144.4340 S   0  0  0  0  0  0  0  0  0  0  0  0
  189.7990  176.6660  145.2600 N   0  0  0  0  0  2  0  0  0  0  0  0
  192.3500  176.4750  147.9240 O   0  0  0  0  0  0  0  0  0  0  0  0
  191.2980  176.7570  147.3220 C   0  0  0  0  0  3  0  0  0  0  0  0
  191.1210  176.4750  145.9330 N   0  0  0  0  0  0  0  0  0  0  0  0
  192.2550  175.9300  145.0660 C   0  0  0  0  0  2  0  0  0  0  0  0
  192.1620  174.5680  144.6100 O   0  0  0  0  0  1  0  0  0  0  0  0
  2  4  1  0  0  0  0
  3  2  1  0  0  0  0
  3 11  1  0  0  0  0
  4  6  1  0  0  0  0
  4  5  1  0  0  0  0
  5 13  1  0  0  0  0
  5  1  1  0  0  0  0
  6  9  1  0  0  0  0
  8 52  1  0  0  0  0
  8  7  1  0  0  0  0
  8 14  1  0  0  0  0
  9  1  1  0  0  0  0
  9 54  1  0  0  0  0
 10  8  1  0  0  0  0
 11 10  1  0  0  0  0
 11 13  1  0  0  0  0
 12  3  1  0  0  0  0
 13 14  1  0  0  0  0
 15  2  1  0  0  0  0
 15  4  1  0  0  0  0
 16 17  1  0  0  0  0
 16 18  1  0  0  0  0
 17 19  1  0  0  0  0
 17 18  1  0  0  0  0
 18 15  1  0  0  0  0
 21 23  1  0  0  0  0
 21 22  1  0  0  0  0
 22 20  1  0  0  0  0
 23 19  1  0  0  0  0
 23 22  1  0  0  0  0
 24 26  1  0  0  0  0
 24 22  1  0  0  0  0
 25 24  1  0  0  0  0
 28 26  1  0  0  0  0
 28 27  1  0  0  0  0
 29 30  2  0  0  0  0
 30 10  1  0  0  0  0
 31 30  1  0  0  0  0
 32 33  1  0  0  0  0
 33 31  1  0  0  0  0
 34 35  1  0  0  0  0
 34 33  1  0  0  0  0
 36 38  1  0  0  0  0
 36 35  1  0  0  0  0
 37 36  1  0  0  0  0
 38 42  1  0  0  0  0
 39 42  1  0  0  0  0
 40 41  1  0  0  0  0
 40 42  1  0  0  0  0
 43 41  1  0  0  0  0
 43 39  1  0  0  0  0
 44 46  1  0  0  0  0
 45 46  1  0  0  0  0
 46 41  1  0  0  0  0
 46 48  1  0  0  0  0
 47 50  1  0  0  0  0
 47 48  1  0  0  0  0
 47 49  1  0  0  0  0
 48 49  1  0  0  0  0
 51 50  1  0  0  0  0
 52 53  2  0  0  0  0
 54 55  1  0  0  0  0
 55 56  1  0  0  0  0
 56 59  1  0  0  0  0
 58 57  2  0  0  0  0
 59 58  1  0  0  0  0
 60 59  1  0  0  0  0
 61 60  1  0  0  0  0
M  END
>  <MODEL>
9

>  <REMARK>
 VINA RESULT:      -3.6      3.375      7.992
  Name = 
  22 active torsions:
  status: ('A' for Active; 'I' for Inactive)
    1  A    between atoms: O_5  and  C_10
    2  A    between atoms: O_5  and  C_22
    3  A    between atoms: C_8  and  C_48
    4  A    between atoms: C_8  and  C_58
    5  A    between atoms: C_9  and  C_18
    6  A    between atoms: C_10  and  C_26
    7  A    between atoms: C_11  and  C_25
    8  A    between atoms: C_11  and  C_59
    9  A    between atoms: C_13  and  C_33
   10  A    between atoms: C_13  and  S_46
   11  A    between atoms: O_14  and  C_35
   12  A    between atoms: O_14  and  C_50
   13  A    between atoms: C_19  and  C_60
   14  A    between atoms: C_22  and  C_50
   15  A    between atoms: C_26  and  C_34
   16  A    between atoms: C_27  and  C_32
   17  A    between atoms: N_30  and  C_60
   18  A    between atoms: C_31  and  N_45
   19  A    between atoms: C_35  and  C_37
   20  A    between atoms: N_45  and  N_54
   21  A    between atoms: C_51  and  C_57
   22  A    between atoms: C_55  and  C_58
                            x       y       z     vdW  Elec       q    Type
                         _______ _______ _______ _____ _____    ______ ____

>  <TORSDO>
F 22

$$$$
