=
 OpenBabel11042410513D

 63 67  0  0  1  0  0  0  0  0999 V2000
  184.0360  178.1960  141.7340 C   0  0  2  0  0  3  0  0  0  0  0  0
  185.4970  178.6120  143.6940 C   0  0  0  0  0  0  0  0  0  0  0  0
  186.2080  177.6480  141.4730 C   0  0  0  0  0  2  0  0  0  0  0  0
  185.1150  178.9820  146.1380 C   0  0  0  0  0  3  0  0  0  0  0  0
  186.6660  178.2180  142.8180 C   0  0  2  0  0  3  0  0  0  0  0  0
  184.2360  178.6190  143.1830 C   0  0  0  0  0  0  0  0  0  0  0  0
  183.0170  178.9710  143.9580 C   0  0  0  0  0  3  0  0  0  0  0  0
  182.8420  178.8050  145.2710 C   0  0  0  0  0  3  0  0  0  0  0  0
  185.1840  178.4470  140.9510 O   0  0  0  0  0  0  0  0  0  0  0  0
  183.8660  178.1750  146.1520 C   0  0  0  0  0  2  0  0  0  0  0  0
  185.8420  179.1470  145.0310 C   0  0  0  0  0  3  0  0  0  0  0  0
  182.9370  179.6420  139.9310 C   0  0  0  0  0  0  0  0  0  0  0  0
  184.0360  179.8270  139.3410 O   0  0  0  0  0  0  0  0  0  0  0  0
  181.7350  180.2050  139.4060 N   0  0  0  0  0  2  0  0  0  0  0  0
  182.8790  178.8590  141.1260 N   0  0  0  0  0  2  0  0  0  0  0  0
  181.7120  180.9450  138.1560 C   0  0  0  0  0  2  0  0  0  0  0  0
  181.0090  180.1510  137.0710 C   0  0  0  0  0  2  0  0  0  0  0  0
  181.5490  178.7210  137.0060 C   0  0  0  0  0  2  0  0  0  0  0  0
  180.4370  177.6660  137.0130 C   0  0  1  0  0  3  0  0  0  0  0  0
  180.1610  177.1820  135.5940 C   0  0  0  0  0  1  0  0  0  0  0  0
  179.8320  176.4110  138.9920 O   0  0  0  0  0  1  0  0  0  0  0  0
  180.7590  176.4850  137.9470 C   0  0  1  0  0  3  0  0  0  0  0  0
  180.8460  175.1270  137.2450 C   0  0  2  0  0  3  0  0  0  0  0  0
  179.7630  174.3060  137.5800 O   0  0  0  0  0  0  0  0  0  0  0  0
  179.8920  173.1870  136.7570 C   0  0  0  0  0  1  0  0  0  0  0  0
  182.1830  174.4100  137.4610 C   0  0  0  0  0  2  0  0  0  0  0  0
  183.1550  174.8860  136.5770 O   0  0  0  0  0  0  0  0  0  0  0  0
  186.1120  173.1560  137.4290 C   0  0  0  0  0  2  0  0  0  0  0  0
  185.4190  175.2300  136.4730 O   0  0  0  0  0  0  0  0  0  0  0  0
  186.5540  174.4800  136.8410 C   0  0  0  0  0  2  0  0  0  0  0  0
  184.6210  173.2660  137.5060 C   0  0  0  0  0  2  0  0  0  0  0  0
  184.3650  174.7290  137.2560 C   0  0  2  0  0  3  0  0  0  0  0  0
  187.6050  177.2470  143.5360 C   0  0  0  0  0  2  0  0  0  0  0  0
  188.9460  177.8880  143.8640 C   0  0  0  0  0  2  0  0  0  0  0  0
  191.3530  177.5360  143.0700 C   0  0  0  0  0  0  0  0  0  0  0  0
  190.4210  177.5270  140.4010 C   0  0  0  0  0  0  0  0  0  0  0  0
  189.9720  177.6580  142.7970 C   0  0  0  0  0  0  0  0  0  0  0  0
  189.5270  177.6700  141.4730 C   0  0  0  0  0  3  0  0  0  0  0  0
  192.2460  177.3790  142.0000 C   0  0  0  0  0  3  0  0  0  0  0  0
  191.7860  177.3770  140.6810 C   0  0  0  0  0  3  0  0  0  0  0  0
  192.4240  176.7560  146.6300 O   0  0  0  0  0  1  0  0  0  0  0  0
  191.8570  176.5330  145.3870 C   0  0  0  0  0  0  0  0  0  0  0  0
  191.8220  177.5980  144.4280 N   0  0  0  0  0  2  0  0  0  0  0  0
  191.4190  175.3860  145.1050 O   0  0  0  0  0  0  0  0  0  0  0  0
  190.5510  176.9810  137.9130 C   0  0  0  0  0  0  0  0  0  0  0  0
  189.9330  177.6320  139.0460 N   0  0  0  0  0  0  0  0  0  0  0  0
  189.8760  176.7780  136.8650 O   0  0  0  0  0  0  0  0  0  0  0  0
  188.7320  178.4310  138.8060 C   0  0  0  0  0  2  0  0  0  0  0  0
  189.0040  179.4320  137.8710 O   0  0  0  0  0  1  0  0  0  0  0  0
  191.9850  176.5570  137.9180 C   0  0  0  0  0  2  0  0  0  0  0  0
  192.3720  175.9500  136.5820 C   0  0  0  0  0  2  0  0  0  0  0  0
  192.4290  174.4300  136.7350 C   0  0  1  0  0  3  0  0  0  0  0  0
  191.1060  174.6330  134.5960 C   0  0  0  0  0  1  0  0  0  0  0  0
  190.2720  173.2050  136.4050 C   0  0  0  0  0  1  0  0  0  0  0  0
  191.5300  173.7050  135.7220 C   0  0  0  0  0  3  0  0  0  0  0  0
  194.2010  173.5000  135.3900 O   0  0  0  0  0  1  0  0  0  0  0  0
  193.8760  173.9170  136.6850 C   0  0  1  0  0  3  0  0  0  0  0  0
  194.8800  174.9640  137.1820 C   0  0  2  0  0  3  0  0  0  0  0  0
  198.1880  175.1300  138.3090 N   0  0  0  0  0  1  0  0  0  0  0  0
  197.0370  174.1400  136.4770 N   0  0  0  0  0  2  0  0  0  0  0  0
  196.0150  175.1330  136.1900 C   0  0  0  0  0  2  0  0  0  0  0  0
  197.2190  174.1200  137.9210 C   0  0  2  0  0  3  0  0  0  0  0  0
  195.6310  174.4380  138.7480 S   0  0  0  0  0  0  0  0  0  0  0  0
  1 15  1  6  0  0  0
  1  6  1  0  0  0  0
  2 11  1  0  0  0  0
  3  5  1  0  0  0  0
  4 10  1  0  0  0  0
  5 33  1  1  0  0  0
  5  2  1  0  0  0  0
  6  2  2  0  0  0  0
  6  7  1  0  0  0  0
  7  8  2  0  0  0  0
  8 10  1  0  0  0  0
  9  3  1  0  0  0  0
  9  1  1  0  0  0  0
 11  4  2  0  0  0  0
 12 15  1  0  0  0  0
 13 12  2  0  0  0  0
 14 12  1  0  0  0  0
 16 14  1  0  0  0  0
 17 16  1  0  0  0  0
 18 19  1  0  0  0  0
 18 17  1  0  0  0  0
 19 20  1  6  0  0  0
 19 22  1  0  0  0  0
 22 21  1  1  0  0  0
 23 26  1  1  0  0  0
 23 24  1  0  0  0  0
 23 22  1  0  0  0  0
 25 24  1  0  0  0  0
 27 26  1  0  0  0  0
 28 31  1  0  0  0  0
 29 30  1  0  0  0  0
 29 32  1  0  0  0  0
 30 28  1  0  0  0  0
 32 27  1  6  0  0  0
 32 31  1  0  0  0  0
 33 34  1  0  0  0  0
 35 43  1  0  0  0  0
 36 40  2  0  0  0  0
 36 38  1  0  0  0  0
 37 35  1  0  0  0  0
 37 34  1  0  0  0  0
 38 37  2  0  0  0  0
 39 35  2  0  0  0  0
 40 39  1  0  0  0  0
 42 41  1  0  0  0  0
 43 42  1  0  0  0  0
 44 42  2  0  0  0  0
 45 50  1  0  0  0  0
 45 46  1  0  0  0  0
 46 36  1  0  0  0  0
 47 45  2  0  0  0  0
 48 46  1  0  0  0  0
 49 48  1  0  0  0  0
 51 50  1  0  0  0  0
 52 51  1  6  0  0  0
 53 55  1  0  0  0  0
 55 54  1  0  0  0  0
 55 52  1  0  0  0  0
 57 56  1  6  0  0  0
 57 52  1  0  0  0  0
 58 57  1  6  0  0  0
 58 63  1  0  0  0  0
 60 62  1  0  0  0  0
 61 60  1  0  0  0  0
 61 58  1  0  0  0  0
 62 59  1  6  0  0  0
 62 63  1  0  0  0  0
M  END
>  <MODEL>
1

>  <REMARK>
 VINA RESULT:      -6.5      0.000      0.000
  Name = 
  23 active torsions:
  status: ('A' for Active; 'I' for Inactive)
    1  A    between atoms: C_1  and  N_60
    2  A    between atoms: C_2  and  C_22
    3  A    between atoms: C_2  and  C_49
    4  A    between atoms: O_3  and  C_10
    5  A    between atoms: C_6  and  C_43
    6  A    between atoms: C_6  and  C_63
    7  A    between atoms: C_9  and  N_56
    8  A    between atoms: C_10  and  C_26
    9  A    between atoms: C_10  and  C_34
   10  A    between atoms: C_11  and  N_50
   11  A    between atoms: C_12  and  C_14
   12  A    between atoms: C_12  and  C_34
   13  A    between atoms: C_14  and  C_53
   14  A    between atoms: C_15  and  N_50
   15  A    between atoms: C_16  and  N_47
   16  A    between atoms: C_16  and  C_53
   17  A    between atoms: C_21  and  C_49
   18  A    between atoms: C_24  and  C_58
   19  A    between atoms: C_26  and  O_30
   20  A    between atoms: C_29  and  C_43
   21  A    between atoms: O_30  and  C_46
   22  A    between atoms: C_31  and  C_63
   23  A    between atoms: C_58  and  C_63
                            x       y       z     vdW  Elec       q    Type
                         _______ _______ _______ _____ _____    ______ ____

>  <TORSDO>
F 23

$$$$
=
 OpenBabel11042410513D

 63 67  0  0  1  0  0  0  0  0999 V2000
  184.4050  178.4340  140.9170 C   0  0  2  0  0  3  0  0  0  0  0  0
  185.5550  178.9890  143.0420 C   0  0  0  0  0  0  0  0  0  0  0  0
  186.6450  178.1680  140.9190 C   0  0  0  0  0  2  0  0  0  0  0  0
  184.8390  179.2570  145.4240 C   0  0  0  0  0  3  0  0  0  0  0  0
  186.8620  178.7630  142.3130 C   0  0  2  0  0  3  0  0  0  0  0  0
  184.3740  178.8480  142.3820 C   0  0  0  0  0  0  0  0  0  0  0  0
  183.0370  179.0290  143.0050 C   0  0  0  0  0  3  0  0  0  0  0  0
  182.7280  178.8150  144.2860 C   0  0  0  0  0  3  0  0  0  0  0  0
  185.5970  178.8430  140.2800 O   0  0  0  0  0  0  0  0  0  0  0  0
  183.7100  178.3000  145.2810 C   0  0  0  0  0  2  0  0  0  0  0  0
  185.6670  179.5350  144.4140 C   0  0  0  0  0  3  0  0  0  0  0  0
  182.0320  178.2450  139.9770 C   0  0  0  0  0  0  0  0  0  0  0  0
  181.8970  177.0730  140.4240 O   0  0  0  0  0  0  0  0  0  0  0  0
  180.9610  178.8760  139.2760 N   0  0  0  0  0  2  0  0  0  0  0  0
  183.2550  178.9590  140.1760 N   0  0  0  0  0  2  0  0  0  0  0  0
  179.6680  178.2360  139.1060 C   0  0  0  0  0  2  0  0  0  0  0  0
  179.6080  177.4780  137.7930 C   0  0  0  0  0  2  0  0  0  0  0  0
  180.9020  177.6620  136.9980 C   0  0  0  0  0  2  0  0  0  0  0  0
  181.3200  176.3970  136.2430 C   0  0  1  0  0  3  0  0  0  0  0  0
  180.2220  175.9730  135.2740 C   0  0  0  0  0  1  0  0  0  0  0  0
  182.8740  177.9090  135.1660 O   0  0  0  0  0  1  0  0  0  0  0  0
  182.6650  176.5700  135.5130 C   0  0  1  0  0  3  0  0  0  0  0  0
  183.8790  176.0480  136.2870 C   0  0  2  0  0  3  0  0  0  0  0  0
  183.6660  176.0990  137.6700 O   0  0  0  0  0  0  0  0  0  0  0  0
  183.5170  174.7670  138.0590 C   0  0  0  0  0  1  0  0  0  0  0  0
  185.1940  176.7280  135.8960 C   0  0  0  0  0  2  0  0  0  0  0  0
  186.2590  176.2360  136.6550 O   0  0  0  0  0  0  0  0  0  0  0  0
  188.3370  173.8070  135.1580 C   0  0  0  0  0  2  0  0  0  0  0  0
  187.0250  174.1280  137.1260 O   0  0  0  0  0  0  0  0  0  0  0  0
  187.8640  173.2080  136.4660 C   0  0  0  0  0  2  0  0  0  0  0  0
  187.5810  175.0950  135.0480 C   0  0  0  0  0  2  0  0  0  0  0  0
  186.5300  174.9760  136.1200 C   0  0  2  0  0  3  0  0  0  0  0  0
  187.8230  177.9020  143.1350 C   0  0  0  0  0  2  0  0  0  0  0  0
  188.2600  176.6560  142.3780 C   0  0  0  0  0  2  0  0  0  0  0  0
  190.7780  177.0600  142.1660 C   0  0  0  0  0  0  0  0  0  0  0  0
  190.4610  177.2650  139.3640 C   0  0  0  0  0  0  0  0  0  0  0  0
  189.5070  176.8740  141.5770 C   0  0  0  0  0  0  0  0  0  0  0  0
  189.3620  176.9960  140.1930 C   0  0  0  0  0  3  0  0  0  0  0  0
  191.8810  177.3150  141.3370 C   0  0  0  0  0  3  0  0  0  0  0  0
  191.7240  177.4190  139.9530 C   0  0  0  0  0  3  0  0  0  0  0  0
  191.3590  177.8590  145.8340 O   0  0  0  0  0  1  0  0  0  0  0  0
  191.3680  178.0590  144.4640 C   0  0  0  0  0  0  0  0  0  0  0  0
  190.9180  177.0100  143.5960 N   0  0  0  0  0  2  0  0  0  0  0  0
  191.7310  179.1750  144.0060 O   0  0  0  0  0  0  0  0  0  0  0  0
  190.8880  176.6760  136.9200 C   0  0  0  0  0  0  0  0  0  0  0  0
  190.2550  177.4690  137.9500 N   0  0  0  0  0  0  0  0  0  0  0  0
  190.3760  176.6310  135.7660 O   0  0  0  0  0  0  0  0  0  0  0  0
  189.3390  178.5300  137.5330 C   0  0  0  0  0  2  0  0  0  0  0  0
  189.0530  179.3660  138.6140 O   0  0  0  0  0  1  0  0  0  0  0  0
  192.1550  175.9210  137.1560 C   0  0  0  0  0  2  0  0  0  0  0  0
  191.8910  174.4270  137.2090 C   0  0  0  0  0  2  0  0  0  0  0  0
  193.1990  173.6910  136.9160 C   0  0  1  0  0  3  0  0  0  0  0  0
  192.2080  173.6750  134.5950 C   0  0  0  0  0  1  0  0  0  0  0  0
  192.7680  171.5540  135.6870 C   0  0  0  0  0  1  0  0  0  0  0  0
  193.1880  173.0040  135.5420 C   0  0  0  0  0  3  0  0  0  0  0  0
  194.7380  174.7570  138.4350 O   0  0  0  0  0  1  0  0  0  0  0  0
  194.4120  174.6190  137.0820 C   0  0  1  0  0  3  0  0  0  0  0  0
  195.6260  174.1350  136.2810 C   0  0  2  0  0  3  0  0  0  0  0  0
  198.6220  175.4050  134.9940 N   0  0  0  0  0  1  0  0  0  0  0  0
  197.4680  175.4790  137.0740 N   0  0  0  0  0  2  0  0  0  0  0  0
  196.8770  174.1530  137.1390 C   0  0  0  0  0  2  0  0  0  0  0  0
  197.4370  175.8930  135.6790 C   0  0  2  0  0  3  0  0  0  0  0  0
  195.9450  175.2350  134.8740 S   0  0  0  0  0  0  0  0  0  0  0  0
  1 15  1  6  0  0  0
  1  6  1  0  0  0  0
  2 11  1  0  0  0  0
  3  5  1  0  0  0  0
  5  2  1  0  0  0  0
  5 33  1  1  0  0  0
  6  7  1  0  0  0  0
  6  2  2  0  0  0  0
  7  8  2  0  0  0  0
  8 10  1  0  0  0  0
  9  1  1  0  0  0  0
  9  3  1  0  0  0  0
 10  4  1  0  0  0  0
 11  4  2  0  0  0  0
 12 15  1  0  0  0  0
 12 13  2  0  0  0  0
 14 12  1  0  0  0  0
 16 14  1  0  0  0  0
 17 16  1  0  0  0  0
 18 17  1  0  0  0  0
 19 20  1  6  0  0  0
 19 18  1  0  0  0  0
 22 21  1  1  0  0  0
 22 19  1  0  0  0  0
 22 23  1  0  0  0  0
 23 26  1  1  0  0  0
 23 24  1  0  0  0  0
 24 25  1  0  0  0  0
 26 27  1  0  0  0  0
 28 30  1  0  0  0  0
 30 29  1  0  0  0  0
 31 28  1  0  0  0  0
 31 32  1  0  0  0  0
 32 27  1  1  0  0  0
 32 29  1  0  0  0  0
 34 33  1  0  0  0  0
 35 43  1  0  0  0  0
 36 40  2  0  0  0  0
 36 38  1  0  0  0  0
 37 35  1  0  0  0  0
 37 34  1  0  0  0  0
 38 37  2  0  0  0  0
 39 35  2  0  0  0  0
 40 39  1  0  0  0  0
 42 41  1  0  0  0  0
 43 42  1  0  0  0  0
 44 42  2  0  0  0  0
 45 50  1  0  0  0  0
 45 46  1  0  0  0  0
 46 36  1  0  0  0  0
 47 45  2  0  0  0  0
 48 46  1  0  0  0  0
 48 49  1  0  0  0  0
 50 51  1  0  0  0  0
 52 57  1  0  0  0  0
 52 51  1  6  0  0  0
 53 55  1  0  0  0  0
 55 54  1  0  0  0  0
 55 52  1  0  0  0  0
 57 56  1  1  0  0  0
 58 57  1  1  0  0  0
 58 61  1  0  0  0  0
 60 61  1  0  0  0  0
 62 59  1  6  0  0  0
 62 60  1  0  0  0  0
 63 62  1  0  0  0  0
 63 58  1  0  0  0  0
M  END
>  <MODEL>
2

>  <REMARK>
 VINA RESULT:      -6.4      1.647      2.277
  Name = 
  23 active torsions:
  status: ('A' for Active; 'I' for Inactive)
    1  A    between atoms: C_1  and  N_60
    2  A    between atoms: C_2  and  C_22
    3  A    between atoms: C_2  and  C_49
    4  A    between atoms: O_3  and  C_10
    5  A    between atoms: C_6  and  C_43
    6  A    between atoms: C_6  and  C_63
    7  A    between atoms: C_9  and  N_56
    8  A    between atoms: C_10  and  C_26
    9  A    between atoms: C_10  and  C_34
   10  A    between atoms: C_11  and  N_50
   11  A    between atoms: C_12  and  C_14
   12  A    between atoms: C_12  and  C_34
   13  A    between atoms: C_14  and  C_53
   14  A    between atoms: C_15  and  N_50
   15  A    between atoms: C_16  and  N_47
   16  A    between atoms: C_16  and  C_53
   17  A    between atoms: C_21  and  C_49
   18  A    between atoms: C_24  and  C_58
   19  A    between atoms: C_26  and  O_30
   20  A    between atoms: C_29  and  C_43
   21  A    between atoms: O_30  and  C_46
   22  A    between atoms: C_31  and  C_63
   23  A    between atoms: C_58  and  C_63
                            x       y       z     vdW  Elec       q    Type
                         _______ _______ _______ _____ _____    ______ ____

>  <TORSDO>
F 23

$$$$
=
 OpenBabel11042410513D

 63 67  0  0  1  0  0  0  0  0999 V2000
  185.9630  178.6420  140.1430 C   0  0  2  0  0  3  0  0  0  0  0  0
  183.6020  178.9220  140.8480 C   0  0  0  0  0  0  0  0  0  0  0  0
  184.5430  179.3720  138.5490 C   0  0  0  0  0  2  0  0  0  0  0  0
  182.4250  179.1410  143.0440 C   0  0  0  0  0  3  0  0  0  0  0  0
  183.2790  179.2230  139.4000 C   0  0  2  0  0  3  0  0  0  0  0  0
  184.8790  178.6290  141.2130 C   0  0  0  0  0  0  0  0  0  0  0  0
  185.3080  178.3370  142.6060 C   0  0  0  0  0  3  0  0  0  0  0  0
  184.7440  178.8080  143.7200 C   0  0  0  0  0  3  0  0  0  0  0  0
  185.4420  178.3450  138.8650 O   0  0  0  0  0  0  0  0  0  0  0  0
  183.6000  179.7630  143.7090 C   0  0  0  0  0  2  0  0  0  0  0  0
  182.4390  178.7910  141.7560 C   0  0  0  0  0  3  0  0  0  0  0  0
  188.4380  178.0230  140.3400 C   0  0  0  0  0  0  0  0  0  0  0  0
  188.8040  179.1550  139.9220 O   0  0  0  0  0  0  0  0  0  0  0  0
  189.4090  177.0450  140.7140 N   0  0  0  0  0  2  0  0  0  0  0  0
  187.0480  177.7080  140.4540 N   0  0  0  0  0  2  0  0  0  0  0  0
  190.8340  177.3270  140.6940 C   0  0  0  0  0  2  0  0  0  0  0  0
  191.4070  177.3090  142.0990 C   0  0  0  0  0  2  0  0  0  0  0  0
  190.4840  178.0420  143.0740 C   0  0  0  0  0  2  0  0  0  0  0  0
  189.8130  177.0990  144.0780 C   0  0  1  0  0  3  0  0  0  0  0  0
  188.7690  176.2380  143.3770 C   0  0  0  0  0  1  0  0  0  0  0  0
  191.9880  176.0350  144.0640 O   0  0  0  0  0  1  0  0  0  0  0  0
  190.8340  176.2260  144.8320 C   0  0  1  0  0  3  0  0  0  0  0  0
  191.2240  176.7580  146.2140 C   0  0  2  0  0  3  0  0  0  0  0  0
  192.4310  176.2020  146.6550 O   0  0  0  0  0  0  0  0  0  0  0  0
  192.2200  175.9080  148.0020 C   0  0  0  0  0  1  0  0  0  0  0  0
  190.1190  176.6050  147.2640 C   0  0  0  0  0  2  0  0  0  0  0  0
  189.5810  177.8470  147.6100 O   0  0  0  0  0  0  0  0  0  0  0  0
  186.1870  178.7600  147.2800 C   0  0  0  0  0  2  0  0  0  0  0  0
  187.7140  177.0930  146.5150 O   0  0  0  0  0  0  0  0  0  0  0  0
  186.3730  177.5180  146.4330 C   0  0  0  0  0  2  0  0  0  0  0  0
  187.5010  178.9310  147.9770 C   0  0  0  0  0  2  0  0  0  0  0  0
  188.2070  177.6260  147.7180 C   0  0  2  0  0  3  0  0  0  0  0  0
  182.3800  180.4540  139.2680 C   0  0  0  0  0  2  0  0  0  0  0  0
  180.9600  180.1740  139.7370 C   0  0  0  0  0  2  0  0  0  0  0  0
  179.6400  177.9930  139.9610 C   0  0  0  0  0  0  0  0  0  0  0  0
  180.3780  177.3320  137.3130 C   0  0  0  0  0  0  0  0  0  0  0  0
  180.4130  178.8910  139.1910 C   0  0  0  0  0  0  0  0  0  0  0  0
  180.7860  178.5430  137.8910 C   0  0  0  0  0  3  0  0  0  0  0  0
  179.2190  176.7870  139.3800 C   0  0  0  0  0  3  0  0  0  0  0  0
  179.5860  176.4590  138.0730 C   0  0  0  0  0  3  0  0  0  0  0  0
  179.0650  177.9340  143.7150 O   0  0  0  0  0  1  0  0  0  0  0  0
  179.3210  177.4290  142.4520 C   0  0  0  0  0  0  0  0  0  0  0  0
  179.3180  178.3150  141.3250 N   0  0  0  0  0  2  0  0  0  0  0  0
  179.5950  176.2060  142.3210 O   0  0  0  0  0  0  0  0  0  0  0  0
  181.8140  175.9180  135.7510 C   0  0  0  0  0  0  0  0  0  0  0  0
  180.8550  176.9700  136.0000 N   0  0  0  0  0  0  0  0  0  0  0  0
  181.8800  175.3920  134.6040 O   0  0  0  0  0  0  0  0  0  0  0  0
  180.3250  177.7000  134.8490 C   0  0  0  0  0  2  0  0  0  0  0  0
  178.9310  177.6240  134.8370 O   0  0  0  0  0  1  0  0  0  0  0  0
  182.7650  175.4370  136.7990 C   0  0  0  0  0  2  0  0  0  0  0  0
  184.0740  176.2040  136.7320 C   0  0  0  0  0  2  0  0  0  0  0  0
  185.2280  175.2080  136.8470 C   0  0  1  0  0  3  0  0  0  0  0  0
  184.8910  172.7900  137.4880 C   0  0  0  0  0  1  0  0  0  0  0  0
  185.8030  173.3420  135.2820 C   0  0  0  0  0  1  0  0  0  0  0  0
  184.8400  173.8040  136.3580 C   0  0  0  0  0  3  0  0  0  0  0  0
  186.1630  176.7730  135.2700 O   0  0  0  0  0  1  0  0  0  0  0  0
  186.4890  175.7300  136.1430 C   0  0  1  0  0  3  0  0  0  0  0  0
  187.5660  176.1780  137.1390 C   0  0  2  0  0  3  0  0  0  0  0  0
  191.0150  176.7640  137.2180 N   0  0  0  0  0  1  0  0  0  0  0  0
  189.1950  177.3570  135.8030 N   0  0  0  0  0  2  0  0  0  0  0  0
  188.1160  177.5390  136.7600 C   0  0  0  0  0  2  0  0  0  0  0  0
  190.0170  176.2590  136.2910 C   0  0  2  0  0  3  0  0  0  0  0  0
  188.9690  175.0270  137.1230 S   0  0  0  0  0  0  0  0  0  0  0  0
  1 15  1  1  0  0  0
  1  6  1  0  0  0  0
  2  6  2  0  0  0  0
  2 11  1  0  0  0  0
  3  9  1  0  0  0  0
  3  5  1  0  0  0  0
  4 10  1  0  0  0  0
  5 33  1  1  0  0  0
  5  2  1  0  0  0  0
  6  7  1  0  0  0  0
  7  8  2  0  0  0  0
  9  1  1  0  0  0  0
 10  8  1  0  0  0  0
 11  4  2  0  0  0  0
 12 15  1  0  0  0  0
 12 14  1  0  0  0  0
 13 12  2  0  0  0  0
 16 14  1  0  0  0  0
 16 17  1  0  0  0  0
 17 18  1  0  0  0  0
 18 19  1  0  0  0  0
 19 20  1  6  0  0  0
 19 22  1  0  0  0  0
 22 21  1  6  0  0  0
 22 23  1  0  0  0  0
 23 24  1  0  0  0  0
 23 26  1  1  0  0  0
 24 25  1  0  0  0  0
 26 27  1  0  0  0  0
 28 31  1  0  0  0  0
 29 32  1  0  0  0  0
 30 29  1  0  0  0  0
 30 28  1  0  0  0  0
 32 27  1  6  0  0  0
 32 31  1  0  0  0  0
 33 34  1  0  0  0  0
 35 43  1  0  0  0  0
 36 38  2  0  0  0  0
 36 40  1  0  0  0  0
 37 34  1  0  0  0  0
 37 35  2  0  0  0  0
 38 37  1  0  0  0  0
 39 35  1  0  0  0  0
 40 39  2  0  0  0  0
 42 41  1  0  0  0  0
 43 42  1  0  0  0  0
 44 42  2  0  0  0  0
 45 46  1  0  0  0  0
 45 50  1  0  0  0  0
 46 36  1  0  0  0  0
 47 45  2  0  0  0  0
 48 46  1  0  0  0  0
 49 48  1  0  0  0  0
 51 50  1  0  0  0  0
 52 51  1  6  0  0  0
 54 55  1  0  0  0  0
 55 52  1  0  0  0  0
 55 53  1  0  0  0  0
 57 56  1  6  0  0  0
 57 52  1  0  0  0  0
 58 57  1  6  0  0  0
 60 62  1  0  0  0  0
 60 61  1  0  0  0  0
 61 58  1  0  0  0  0
 62 63  1  0  0  0  0
 62 59  1  1  0  0  0
 63 58  1  0  0  0  0
M  END
>  <MODEL>
3

>  <REMARK>
 VINA RESULT:      -6.1      3.090      9.572
  Name = 
  23 active torsions:
  status: ('A' for Active; 'I' for Inactive)
    1  A    between atoms: C_1  and  N_60
    2  A    between atoms: C_2  and  C_22
    3  A    between atoms: C_2  and  C_49
    4  A    between atoms: O_3  and  C_10
    5  A    between atoms: C_6  and  C_43
    6  A    between atoms: C_6  and  C_63
    7  A    between atoms: C_9  and  N_56
    8  A    between atoms: C_10  and  C_26
    9  A    between atoms: C_10  and  C_34
   10  A    between atoms: C_11  and  N_50
   11  A    between atoms: C_12  and  C_14
   12  A    between atoms: C_12  and  C_34
   13  A    between atoms: C_14  and  C_53
   14  A    between atoms: C_15  and  N_50
   15  A    between atoms: C_16  and  N_47
   16  A    between atoms: C_16  and  C_53
   17  A    between atoms: C_21  and  C_49
   18  A    between atoms: C_24  and  C_58
   19  A    between atoms: C_26  and  O_30
   20  A    between atoms: C_29  and  C_43
   21  A    between atoms: O_30  and  C_46
   22  A    between atoms: C_31  and  C_63
   23  A    between atoms: C_58  and  C_63
                            x       y       z     vdW  Elec       q    Type
                         _______ _______ _______ _____ _____    ______ ____

>  <TORSDO>
F 23

$$$$
=
 OpenBabel11042410513D

 63 67  0  0  1  0  0  0  0  0999 V2000
  184.4370  178.4080  141.3840 C   0  0  2  0  0  3  0  0  0  0  0  0
  185.4360  178.7890  143.6210 C   0  0  0  0  0  0  0  0  0  0  0  0
  186.6310  177.9230  141.5740 C   0  0  0  0  0  2  0  0  0  0  0  0
  184.5350  179.0610  145.9390 C   0  0  0  0  0  3  0  0  0  0  0  0
  186.7770  178.4560  143.0020 C   0  0  2  0  0  3  0  0  0  0  0  0
  184.3120  178.7840  142.8550 C   0  0  0  0  0  0  0  0  0  0  0  0
  182.9470  179.0780  143.3640 C   0  0  0  0  0  3  0  0  0  0  0  0
  182.5040  178.8600  144.6040 C   0  0  0  0  0  3  0  0  0  0  0  0
  185.7160  178.7160  140.8700 O   0  0  0  0  0  0  0  0  0  0  0  0
  183.3370  178.2240  145.6630 C   0  0  0  0  0  2  0  0  0  0  0  0
  185.4740  179.2840  145.0170 C   0  0  0  0  0  3  0  0  0  0  0  0
  183.3670  179.0050  139.1370 C   0  0  0  0  0  0  0  0  0  0  0  0
  184.2570  178.3830  138.4940 O   0  0  0  0  0  0  0  0  0  0  0  0
  182.2970  179.6480  138.4460 N   0  0  0  0  0  2  0  0  0  0  0  0
  183.4140  179.0650  140.5650 N   0  0  0  0  0  2  0  0  0  0  0  0
  182.1470  179.5610  137.0030 C   0  0  0  0  0  2  0  0  0  0  0  0
  181.3730  178.3150  136.6150 C   0  0  0  0  0  2  0  0  0  0  0  0
  180.3550  177.9460  137.6950 C   0  0  0  0  0  2  0  0  0  0  0  0
  179.9730  176.4630  137.6690 C   0  0  1  0  0  3  0  0  0  0  0  0
  180.2520  175.8710  136.2920 C   0  0  0  0  0  1  0  0  0  0  0  0
  181.6860  176.4230  139.3800 O   0  0  0  0  0  1  0  0  0  0  0  0
  180.6840  175.6580  138.7720 C   0  0  1  0  0  3  0  0  0  0  0  0
  179.7500  175.0940  139.8480 C   0  0  2  0  0  3  0  0  0  0  0  0
  178.9320  174.0800  139.3360 O   0  0  0  0  0  0  0  0  0  0  0  0
  179.8120  173.1620  138.7650 C   0  0  0  0  0  1  0  0  0  0  0  0
  178.9310  176.1670  140.5710 C   0  0  0  0  0  2  0  0  0  0  0  0
  179.2560  176.2160  141.9300 O   0  0  0  0  0  0  0  0  0  0  0  0
  178.9570  179.7330  141.8960 C   0  0  0  0  0  2  0  0  0  0  0  0
  179.3530  177.9470  143.4290 O   0  0  0  0  0  0  0  0  0  0  0  0
  179.2230  179.3470  143.3360 C   0  0  0  0  0  2  0  0  0  0  0  0
  179.0910  178.4480  141.1390 C   0  0  0  0  0  2  0  0  0  0  0  0
  179.7180  177.5150  142.1420 C   0  0  2  0  0  3  0  0  0  0  0  0
  187.5720  177.4820  143.8740 C   0  0  0  0  0  2  0  0  0  0  0  0
  188.2140  176.3750  143.0500 C   0  0  0  0  0  2  0  0  0  0  0  0
  190.5820  177.2880  143.3680 C   0  0  0  0  0  0  0  0  0  0  0  0
  191.0080  177.0210  140.5870 C   0  0  0  0  0  0  0  0  0  0  0  0
  189.5730  176.7460  142.5420 C   0  0  0  0  0  0  0  0  0  0  0  0
  189.7900  176.6370  141.1670 C   0  0  0  0  0  3  0  0  0  0  0  0
  191.8070  177.6600  142.7930 C   0  0  0  0  0  3  0  0  0  0  0  0
  192.0160  177.5310  141.4180 C   0  0  0  0  0  3  0  0  0  0  0  0
  190.7250  177.2470  147.1640 O   0  0  0  0  0  1  0  0  0  0  0  0
  191.0510  176.8870  145.8680 C   0  0  0  0  0  0  0  0  0  0  0  0
  190.3350  177.4730  144.7730 N   0  0  0  0  0  2  0  0  0  0  0  0
  192.0010  176.0840  145.6710 O   0  0  0  0  0  0  0  0  0  0  0  0
  190.0780  177.1690  138.2170 C   0  0  0  0  0  0  0  0  0  0  0  0
  191.1630  176.9730  139.1520 N   0  0  0  0  0  0  0  0  0  0  0  0
  190.3340  177.5120  137.0280 O   0  0  0  0  0  0  0  0  0  0  0  0
  192.4980  176.7300  138.6110 C   0  0  0  0  0  2  0  0  0  0  0  0
  193.4650  177.2560  139.4700 O   0  0  0  0  0  1  0  0  0  0  0  0
  188.6480  176.9510  138.5930 C   0  0  0  0  0  2  0  0  0  0  0  0
  188.1170  175.6680  137.9760 C   0  0  0  0  0  2  0  0  0  0  0  0
  188.2220  175.7800  136.4550 C   0  0  1  0  0  3  0  0  0  0  0  0
  189.4460  173.6170  136.8920 C   0  0  0  0  0  1  0  0  0  0  0  0
  190.1220  175.0310  135.0090 C   0  0  0  0  0  1  0  0  0  0  0  0
  188.9320  174.5700  135.8270 C   0  0  0  0  0  3  0  0  0  0  0  0
  186.7390  175.3400  134.6060 O   0  0  0  0  0  1  0  0  0  0  0  0
  186.8470  176.0310  135.8170 C   0  0  1  0  0  3  0  0  0  0  0  0
  185.6950  175.6560  136.7560 C   0  0  2  0  0  3  0  0  0  0  0  0
  182.8670  173.5960  136.7800 N   0  0  0  0  0  1  0  0  0  0  0  0
  185.1640  173.3670  136.2030 N   0  0  0  0  0  2  0  0  0  0  0  0
  185.8100  174.2090  137.1960 C   0  0  0  0  0  2  0  0  0  0  0  0
  183.9060  174.0090  135.8520 C   0  0  2  0  0  3  0  0  0  0  0  0
  184.1000  175.8160  135.9070 S   0  0  0  0  0  0  0  0  0  0  0  0
  1 15  1  6  0  0  0
  1  6  1  0  0  0  0
  2 11  1  0  0  0  0
  3  5  1  0  0  0  0
  5  2  1  0  0  0  0
  5 33  1  1  0  0  0
  6  7  1  0  0  0  0
  6  2  2  0  0  0  0
  7  8  2  0  0  0  0
  8 10  1  0  0  0  0
  9  1  1  0  0  0  0
  9  3  1  0  0  0  0
 10  4  1  0  0  0  0
 11  4  2  0  0  0  0
 12 15  1  0  0  0  0
 13 12  2  0  0  0  0
 14 12  1  0  0  0  0
 16 14  1  0  0  0  0
 17 16  1  0  0  0  0
 17 18  1  0  0  0  0
 19 20  1  6  0  0  0
 19 18  1  0  0  0  0
 19 22  1  0  0  0  0
 22 21  1  1  0  0  0
 22 23  1  0  0  0  0
 23 26  1  6  0  0  0
 24 23  1  0  0  0  0
 25 24  1  0  0  0  0
 26 27  1  0  0  0  0
 28 30  1  0  0  0  0
 30 29  1  0  0  0  0
 31 28  1  0  0  0  0
 31 32  1  0  0  0  0
 32 27  1  6  0  0  0
 32 29  1  0  0  0  0
 34 33  1  0  0  0  0
 35 43  1  0  0  0  0
 36 38  2  0  0  0  0
 36 40  1  0  0  0  0
 37 34  1  0  0  0  0
 37 35  2  0  0  0  0
 38 37  1  0  0  0  0
 39 35  1  0  0  0  0
 40 39  2  0  0  0  0
 42 41  1  0  0  0  0
 43 42  1  0  0  0  0
 44 42  2  0  0  0  0
 45 50  1  0  0  0  0
 45 46  1  0  0  0  0
 46 36  1  0  0  0  0
 47 45  2  0  0  0  0
 48 46  1  0  0  0  0
 48 49  1  0  0  0  0
 51 50  1  0  0  0  0
 52 51  1  1  0  0  0
 54 55  1  0  0  0  0
 55 52  1  0  0  0  0
 55 53  1  0  0  0  0
 57 56  1  6  0  0  0
 57 52  1  0  0  0  0
 58 57  1  6  0  0  0
 58 61  1  0  0  0  0
 60 61  1  0  0  0  0
 62 63  1  0  0  0  0
 62 60  1  0  0  0  0
 62 59  1  1  0  0  0
 63 58  1  0  0  0  0
M  END
>  <MODEL>
4

>  <REMARK>
 VINA RESULT:      -5.8      2.697      5.213
  Name = 
  23 active torsions:
  status: ('A' for Active; 'I' for Inactive)
    1  A    between atoms: C_1  and  N_60
    2  A    between atoms: C_2  and  C_22
    3  A    between atoms: C_2  and  C_49
    4  A    between atoms: O_3  and  C_10
    5  A    between atoms: C_6  and  C_43
    6  A    between atoms: C_6  and  C_63
    7  A    between atoms: C_9  and  N_56
    8  A    between atoms: C_10  and  C_26
    9  A    between atoms: C_10  and  C_34
   10  A    between atoms: C_11  and  N_50
   11  A    between atoms: C_12  and  C_14
   12  A    between atoms: C_12  and  C_34
   13  A    between atoms: C_14  and  C_53
   14  A    between atoms: C_15  and  N_50
   15  A    between atoms: C_16  and  N_47
   16  A    between atoms: C_16  and  C_53
   17  A    between atoms: C_21  and  C_49
   18  A    between atoms: C_24  and  C_58
   19  A    between atoms: C_26  and  O_30
   20  A    between atoms: C_29  and  C_43
   21  A    between atoms: O_30  and  C_46
   22  A    between atoms: C_31  and  C_63
   23  A    between atoms: C_58  and  C_63
                            x       y       z     vdW  Elec       q    Type
                         _______ _______ _______ _____ _____    ______ ____

>  <TORSDO>
F 23

$$$$
=
 OpenBabel11042410513D

 63 67  0  0  1  0  0  0  0  0999 V2000
  189.3770  176.6840  139.1660 C   0  0  2  0  0  3  0  0  0  0  0  0
  188.8530  176.8190  136.7460 C   0  0  0  0  0  0  0  0  0  0  0  0
  187.3280  177.4730  138.6490 C   0  0  0  0  0  2  0  0  0  0  0  0
  189.7940  175.7870  134.6720 C   0  0  0  0  0  3  0  0  0  0  0  0
  187.5610  177.5070  137.1360 C   0  0  2  0  0  3  0  0  0  0  0  0
  189.7350  176.4330  137.7070 C   0  0  0  0  0  0  0  0  0  0  0  0
  191.0200  175.7370  137.4360 C   0  0  0  0  0  3  0  0  0  0  0  0
  191.2770  174.9280  136.4070 C   0  0  0  0  0  3  0  0  0  0  0  0
  188.5190  177.7960  139.3120 O   0  0  0  0  0  0  0  0  0  0  0  0
  190.2530  174.5660  135.3850 C   0  0  0  0  0  2  0  0  0  0  0  0
  189.1490  176.7740  135.2960 C   0  0  0  0  0  3  0  0  0  0  0  0
  190.5980  177.6610  141.1920 C   0  0  0  0  0  0  0  0  0  0  0  0
  189.5620  178.2630  141.5860 O   0  0  0  0  0  0  0  0  0  0  0  0
  191.8090  177.7440  141.9430 N   0  0  0  0  0  2  0  0  0  0  0  0
  190.5700  176.8800  139.9950 N   0  0  0  0  0  2  0  0  0  0  0  0
  191.8850  178.4570  143.2070 C   0  0  0  0  0  2  0  0  0  0  0  0
  190.5030  178.6440  143.8060 C   0  0  0  0  0  2  0  0  0  0  0  0
  190.5490  178.5250  145.3300 C   0  0  0  0  0  2  0  0  0  0  0  0
  190.2240  177.1130  145.8260 C   0  0  1  0  0  3  0  0  0  0  0  0
  191.5050  176.3020  145.9850 C   0  0  0  0  0  1  0  0  0  0  0  0
  190.2240  177.4660  148.2210 O   0  0  0  0  0  1  0  0  0  0  0  0
  189.4120  177.1260  147.1340 C   0  0  1  0  0  3  0  0  0  0  0  0
  188.1840  178.0420  147.1080 C   0  0  2  0  0  3  0  0  0  0  0  0
  187.6520  178.2230  148.3900 O   0  0  0  0  0  0  0  0  0  0  0  0
  187.4770  176.9330  148.8910 C   0  0  0  0  0  1  0  0  0  0  0  0
  187.1090  177.5980  146.1110 C   0  0  0  0  0  2  0  0  0  0  0  0
  186.5170  178.7000  145.4870 O   0  0  0  0  0  0  0  0  0  0  0  0
  183.4870  178.9100  143.6890 C   0  0  0  0  0  2  0  0  0  0  0  0
  185.7530  178.2280  143.3790 O   0  0  0  0  0  0  0  0  0  0  0  0
  184.5090  178.3400  142.7270 C   0  0  0  0  0  2  0  0  0  0  0  0
  184.2120  178.9790  144.9980 C   0  0  0  0  0  2  0  0  0  0  0  0
  185.4570  178.1690  144.7510 C   0  0  2  0  0  3  0  0  0  0  0  0
  186.3640  176.9250  136.3820 C   0  0  0  0  0  2  0  0  0  0  0  0
  185.0780  177.0310  137.1880 C   0  0  0  0  0  2  0  0  0  0  0  0
  184.5170  174.5380  137.0550 C   0  0  0  0  0  0  0  0  0  0  0  0
  181.9400  175.2170  136.1130 C   0  0  0  0  0  0  0  0  0  0  0  0
  184.1380  175.8930  136.9290 C   0  0  0  0  0  0  0  0  0  0  0  0
  182.8680  176.2140  136.4460 C   0  0  0  0  0  3  0  0  0  0  0  0
  183.5860  173.5390  136.7360 C   0  0  0  0  0  3  0  0  0  0  0  0
  182.3130  173.8740  136.2680 C   0  0  0  0  0  3  0  0  0  0  0  0
  188.1250  173.3680  137.2670 O   0  0  0  0  0  1  0  0  0  0  0  0
  186.8630  173.5310  136.7220 C   0  0  0  0  0  0  0  0  0  0  0  0
  185.8500  174.2040  137.4800 N   0  0  0  0  0  2  0  0  0  0  0  0
  186.6390  173.1230  135.5510 O   0  0  0  0  0  0  0  0  0  0  0  0
  179.9860  176.8290  135.8190 C   0  0  0  0  0  0  0  0  0  0  0  0
  180.6700  175.5870  135.5350 N   0  0  0  0  0  0  0  0  0  0  0  0
  179.1210  177.2640  135.0060 O   0  0  0  0  0  0  0  0  0  0  0  0
  180.0440  174.6600  134.5940 C   0  0  0  0  0  2  0  0  0  0  0  0
  179.0640  173.9080  135.2440 O   0  0  0  0  0  1  0  0  0  0  0  0
  180.2400  177.6160  137.0630 C   0  0  0  0  0  2  0  0  0  0  0  0
  179.7330  179.0400  136.9140 C   0  0  0  0  0  2  0  0  0  0  0  0
  180.7980  179.9950  137.4530 C   0  0  1  0  0  3  0  0  0  0  0  0
  178.9730  181.7330  137.5710 C   0  0  0  0  0  1  0  0  0  0  0  0
  180.6350  181.8430  135.7740 C   0  0  0  0  0  1  0  0  0  0  0  0
  180.4290  181.4690  137.2290 C   0  0  0  0  0  3  0  0  0  0  0  0
  181.8020  180.7780  139.5010 O   0  0  0  0  0  1  0  0  0  0  0  0
  181.1160  179.7020  138.9270 C   0  0  1  0  0  3  0  0  0  0  0  0
  179.8560  179.3730  139.7380 C   0  0  2  0  0  3  0  0  0  0  0  0
  178.9580  178.5860  143.0270 N   0  0  0  0  0  1  0  0  0  0  0  0
  180.3000  180.2300  141.9500 N   0  0  0  0  0  2  0  0  0  0  0  0
  179.5510  180.4790  140.7290 C   0  0  0  0  0  2  0  0  0  0  0  0
  180.1660  178.8120  142.2520 C   0  0  2  0  0  3  0  0  0  0  0  0
  180.0960  177.8570  140.7060 S   0  0  0  0  0  0  0  0  0  0  0  0
  1  9  1  0  0  0  0
  1 15  1  1  0  0  0
  2  5  1  0  0  0  0
  2  6  2  0  0  0  0
  3  9  1  0  0  0  0
  4 11  2  0  0  0  0
  4 10  1  0  0  0  0
  5 33  1  6  0  0  0
  5  3  1  0  0  0  0
  6  1  1  0  0  0  0
  7  6  1  0  0  0  0
  8  7  2  0  0  0  0
 10  8  1  0  0  0  0
 11  2  1  0  0  0  0
 12 13  2  0  0  0  0
 12 14  1  0  0  0  0
 14 16  1  0  0  0  0
 15 12  1  0  0  0  0
 16 17  1  0  0  0  0
 17 18  1  0  0  0  0
 18 19  1  0  0  0  0
 19 20  1  1  0  0  0
 19 22  1  0  0  0  0
 22 21  1  1  0  0  0
 23 26  1  6  0  0  0
 23 22  1  0  0  0  0
 23 24  1  0  0  0  0
 24 25  1  0  0  0  0
 27 26  1  0  0  0  0
 28 31  1  0  0  0  0
 29 32  1  0  0  0  0
 30 29  1  0  0  0  0
 30 28  1  0  0  0  0
 32 31  1  0  0  0  0
 32 27  1  1  0  0  0
 33 34  1  0  0  0  0
 35 43  1  0  0  0  0
 36 40  2  0  0  0  0
 36 38  1  0  0  0  0
 37 35  1  0  0  0  0
 37 34  1  0  0  0  0
 38 37  2  0  0  0  0
 39 35  2  0  0  0  0
 40 39  1  0  0  0  0
 42 41  1  0  0  0  0
 42 43  1  0  0  0  0
 44 42  2  0  0  0  0
 45 50  1  0  0  0  0
 46 45  1  0  0  0  0
 46 36  1  0  0  0  0
 47 45  2  0  0  0  0
 48 49  1  0  0  0  0
 48 46  1  0  0  0  0
 51 50  1  0  0  0  0
 52 51  1  1  0  0  0
 52 57  1  0  0  0  0
 54 55  1  0  0  0  0
 55 52  1  0  0  0  0
 55 53  1  0  0  0  0
 57 56  1  1  0  0  0
 58 57  1  1  0  0  0
 58 63  1  0  0  0  0
 58 61  1  0  0  0  0
 60 62  1  0  0  0  0
 61 60  1  0  0  0  0
 62 59  1  6  0  0  0
 63 62  1  0  0  0  0
M  END
>  <MODEL>
5

>  <REMARK>
 VINA RESULT:      -5.3      3.349     11.705
  Name = 
  23 active torsions:
  status: ('A' for Active; 'I' for Inactive)
    1  A    between atoms: C_1  and  N_60
    2  A    between atoms: C_2  and  C_22
    3  A    between atoms: C_2  and  C_49
    4  A    between atoms: O_3  and  C_10
    5  A    between atoms: C_6  and  C_43
    6  A    between atoms: C_6  and  C_63
    7  A    between atoms: C_9  and  N_56
    8  A    between atoms: C_10  and  C_26
    9  A    between atoms: C_10  and  C_34
   10  A    between atoms: C_11  and  N_50
   11  A    between atoms: C_12  and  C_14
   12  A    between atoms: C_12  and  C_34
   13  A    between atoms: C_14  and  C_53
   14  A    between atoms: C_15  and  N_50
   15  A    between atoms: C_16  and  N_47
   16  A    between atoms: C_16  and  C_53
   17  A    between atoms: C_21  and  C_49
   18  A    between atoms: C_24  and  C_58
   19  A    between atoms: C_26  and  O_30
   20  A    between atoms: C_29  and  C_43
   21  A    between atoms: O_30  and  C_46
   22  A    between atoms: C_31  and  C_63
   23  A    between atoms: C_58  and  C_63
                            x       y       z     vdW  Elec       q    Type
                         _______ _______ _______ _____ _____    ______ ____

>  <TORSDO>
F 23

$$$$
=
 OpenBabel11042410513D

 63 67  0  0  1  0  0  0  0  0999 V2000
  189.4430  176.3120  139.0090 C   0  0  2  0  0  3  0  0  0  0  0  0
  188.9770  176.1950  136.5760 C   0  0  0  0  0  0  0  0  0  0  0  0
  187.4760  177.1920  138.3430 C   0  0  0  0  0  2  0  0  0  0  0  0
  189.8700  174.8490  134.6660 C   0  0  0  0  0  3  0  0  0  0  0  0
  187.7400  177.0250  136.8440 C   0  0  2  0  0  3  0  0  0  0  0  0
  189.8070  175.8600  137.6010 C   0  0  0  0  0  0  0  0  0  0  0  0
  191.0350  175.0360  137.4520 C   0  0  0  0  0  3  0  0  0  0  0  0
  191.2440  174.0910  136.5330 C   0  0  0  0  0  3  0  0  0  0  0  0
  188.6760  177.4980  138.9970 O   0  0  0  0  0  0  0  0  0  0  0  0
  190.2140  173.6900  135.5330 C   0  0  0  0  0  2  0  0  0  0  0  0
  189.2960  175.9520  135.1500 C   0  0  0  0  0  3  0  0  0  0  0  0
  190.6960  177.4150  140.9480 C   0  0  0  0  0  0  0  0  0  0  0  0
  189.7010  178.1300  141.2470 O   0  0  0  0  0  0  0  0  0  0  0  0
  191.8960  177.4930  141.7170 N   0  0  0  0  0  2  0  0  0  0  0  0
  190.6320  176.5110  139.8420 N   0  0  0  0  0  2  0  0  0  0  0  0
  192.0020  178.3330  142.8980 C   0  0  0  0  0  2  0  0  0  0  0  0
  190.6580  178.4640  143.5900 C   0  0  0  0  0  2  0  0  0  0  0  0
  190.7910  178.2050  145.0920 C   0  0  0  0  0  2  0  0  0  0  0  0
  190.4720  176.7570  145.4740 C   0  0  1  0  0  3  0  0  0  0  0  0
  191.7440  175.9170  145.4680 C   0  0  0  0  0  1  0  0  0  0  0  0
  190.6490  176.8390  147.8880 O   0  0  0  0  0  1  0  0  0  0  0  0
  189.7500  176.6570  146.8310 C   0  0  1  0  0  3  0  0  0  0  0  0
  188.5700  177.6210  146.9950 C   0  0  2  0  0  3  0  0  0  0  0  0
  187.8950  177.4050  148.2010 O   0  0  0  0  0  0  0  0  0  0  0  0
  187.9460  178.6310  148.8660 C   0  0  0  0  0  1  0  0  0  0  0  0
  187.6080  177.6170  145.8030 C   0  0  0  0  0  2  0  0  0  0  0  0
  186.2780  177.6640  146.2320 O   0  0  0  0  0  0  0  0  0  0  0  0
  183.7170  179.1720  144.3280 C   0  0  0  0  0  2  0  0  0  0  0  0
  186.0900  178.9150  144.3200 O   0  0  0  0  0  0  0  0  0  0  0  0
  185.0140  179.4880  143.6120 C   0  0  0  0  0  2  0  0  0  0  0  0
  184.1200  178.2430  145.4300 C   0  0  0  0  0  2  0  0  0  0  0  0
  185.5330  177.8640  145.0690 C   0  0  2  0  0  3  0  0  0  0  0  0
  186.5130  176.4530  136.1300 C   0  0  0  0  0  2  0  0  0  0  0  0
  185.2270  176.7370  136.8930 C   0  0  0  0  0  2  0  0  0  0  0  0
  184.5670  174.2650  136.8920 C   0  0  0  0  0  0  0  0  0  0  0  0
  181.9290  175.0190  136.2110 C   0  0  0  0  0  0  0  0  0  0  0  0
  184.2250  175.6300  136.7690 C   0  0  0  0  0  0  0  0  0  0  0  0
  182.9230  175.9880  136.4140 C   0  0  0  0  0  3  0  0  0  0  0  0
  183.5710  173.2950  136.7040 C   0  0  0  0  0  3  0  0  0  0  0  0
  182.2680  173.6680  136.3650 C   0  0  0  0  0  3  0  0  0  0  0  0
  187.9330  172.5180  137.1140 O   0  0  0  0  0  1  0  0  0  0  0  0
  186.5890  172.6730  136.8220 C   0  0  0  0  0  0  0  0  0  0  0  0
  185.9240  173.8910  137.1830 N   0  0  0  0  0  2  0  0  0  0  0  0
  185.9820  171.7570  136.2040 O   0  0  0  0  0  0  0  0  0  0  0  0
  179.8490  176.4860  136.3690 C   0  0  0  0  0  0  0  0  0  0  0  0
  180.6180  175.4240  135.7620 N   0  0  0  0  0  0  0  0  0  0  0  0
  178.9310  177.0480  135.7080 O   0  0  0  0  0  0  0  0  0  0  0  0
  180.0400  174.7310  134.6120 C   0  0  0  0  0  2  0  0  0  0  0  0
  179.0910  173.8020  135.0430 O   0  0  0  0  0  1  0  0  0  0  0  0
  180.0760  176.9350  137.7770 C   0  0  0  0  0  2  0  0  0  0  0  0
  179.1280  178.0620  138.1440 C   0  0  0  0  0  2  0  0  0  0  0  0
  179.9200  179.1470  138.8740 C   0  0  1  0  0  3  0  0  0  0  0  0
  180.3390  178.6130  141.3040 C   0  0  0  0  0  1  0  0  0  0  0  0
  182.1960  179.3610  139.8910 C   0  0  0  0  0  1  0  0  0  0  0  0
  180.9070  178.5630  139.8960 C   0  0  0  0  0  3  0  0  0  0  0  0
  181.2100  179.3620  136.8480 O   0  0  0  0  0  1  0  0  0  0  0  0
  180.6160  180.0920  137.8820 C   0  0  1  0  0  3  0  0  0  0  0  0
  179.6570  181.1460  137.3160 C   0  0  2  0  0  3  0  0  0  0  0  0
  179.7910  184.2480  135.7040 N   0  0  0  0  0  1  0  0  0  0  0  0
  180.8430  182.1280  135.4570 N   0  0  0  0  0  2  0  0  0  0  0  0
  179.7670  181.2150  135.8050 C   0  0  0  0  0  2  0  0  0  0  0  0
  180.7050  183.2970  136.3130 C   0  0  2  0  0  3  0  0  0  0  0  0
  180.0760  182.7960  137.9440 S   0  0  0  0  0  0  0  0  0  0  0  0
  1 15  1  1  0  0  0
  2  5  1  0  0  0  0
  2  6  2  0  0  0  0
  3  9  1  0  0  0  0
  4 11  2  0  0  0  0
  4 10  1  0  0  0  0
  5 33  1  6  0  0  0
  5  3  1  0  0  0  0
  6  1  1  0  0  0  0
  7  6  1  0  0  0  0
  8  7  2  0  0  0  0
  9  1  1  0  0  0  0
 10  8  1  0  0  0  0
 11  2  1  0  0  0  0
 12 13  2  0  0  0  0
 12 14  1  0  0  0  0
 14 16  1  0  0  0  0
 15 12  1  0  0  0  0
 16 17  1  0  0  0  0
 17 18  1  0  0  0  0
 18 19  1  0  0  0  0
 19 20  1  1  0  0  0
 19 22  1  0  0  0  0
 22 23  1  0  0  0  0
 22 21  1  1  0  0  0
 23 26  1  6  0  0  0
 23 24  1  0  0  0  0
 24 25  1  0  0  0  0
 26 27  1  0  0  0  0
 28 31  1  0  0  0  0
 29 32  1  0  0  0  0
 30 29  1  0  0  0  0
 30 28  1  0  0  0  0
 32 31  1  0  0  0  0
 32 27  1  1  0  0  0
 33 34  1  0  0  0  0
 35 43  1  0  0  0  0
 36 40  2  0  0  0  0
 36 38  1  0  0  0  0
 37 35  1  0  0  0  0
 37 34  1  0  0  0  0
 38 37  2  0  0  0  0
 39 35  2  0  0  0  0
 40 39  1  0  0  0  0
 42 41  1  0  0  0  0
 42 43  1  0  0  0  0
 44 42  2  0  0  0  0
 45 50  1  0  0  0  0
 46 36  1  0  0  0  0
 46 45  1  0  0  0  0
 47 45  2  0  0  0  0
 48 49  1  0  0  0  0
 48 46  1  0  0  0  0
 50 51  1  0  0  0  0
 52 51  1  6  0  0  0
 52 55  1  0  0  0  0
 54 55  1  0  0  0  0
 55 53  1  0  0  0  0
 57 56  1  6  0  0  0
 57 52  1  0  0  0  0
 58 57  1  1  0  0  0
 58 63  1  0  0  0  0
 60 61  1  0  0  0  0
 60 62  1  0  0  0  0
 61 58  1  0  0  0  0
 62 59  1  6  0  0  0
 62 63  1  0  0  0  0
M  END
>  <MODEL>
6

>  <REMARK>
 VINA RESULT:      -4.9      3.612     11.826
  Name = 
  23 active torsions:
  status: ('A' for Active; 'I' for Inactive)
    1  A    between atoms: C_1  and  N_60
    2  A    between atoms: C_2  and  C_22
    3  A    between atoms: C_2  and  C_49
    4  A    between atoms: O_3  and  C_10
    5  A    between atoms: C_6  and  C_43
    6  A    between atoms: C_6  and  C_63
    7  A    between atoms: C_9  and  N_56
    8  A    between atoms: C_10  and  C_26
    9  A    between atoms: C_10  and  C_34
   10  A    between atoms: C_11  and  N_50
   11  A    between atoms: C_12  and  C_14
   12  A    between atoms: C_12  and  C_34
   13  A    between atoms: C_14  and  C_53
   14  A    between atoms: C_15  and  N_50
   15  A    between atoms: C_16  and  N_47
   16  A    between atoms: C_16  and  C_53
   17  A    between atoms: C_21  and  C_49
   18  A    between atoms: C_24  and  C_58
   19  A    between atoms: C_26  and  O_30
   20  A    between atoms: C_29  and  C_43
   21  A    between atoms: O_30  and  C_46
   22  A    between atoms: C_31  and  C_63
   23  A    between atoms: C_58  and  C_63
                            x       y       z     vdW  Elec       q    Type
                         _______ _______ _______ _____ _____    ______ ____

>  <TORSDO>
F 23

$$$$
=
 OpenBabel11042410513D

 63 67  0  0  1  0  0  0  0  0999 V2000
  189.8710  176.1540  138.5920 C   0  0  2  0  0  3  0  0  0  0  0  0
  189.8220  175.7030  136.1540 C   0  0  0  0  0  0  0  0  0  0  0  0
  187.9590  176.7050  137.5310 C   0  0  0  0  0  2  0  0  0  0  0  0
  191.1470  174.2660  134.5940 C   0  0  0  0  0  3  0  0  0  0  0  0
  188.4790  176.4000  136.1240 C   0  0  2  0  0  3  0  0  0  0  0  0
  190.5040  175.5910  137.3260 C   0  0  0  0  0  0  0  0  0  0  0  0
  191.8180  174.9120  137.4720 C   0  0  0  0  0  3  0  0  0  0  0  0
  192.2700  173.9010  136.7280 C   0  0  0  0  0  3  0  0  0  0  0  0
  188.9980  177.2270  138.3100 O   0  0  0  0  0  0  0  0  0  0  0  0
  191.4630  173.2650  135.6480 C   0  0  0  0  0  2  0  0  0  0  0  0
  190.3920  175.3390  134.8360 C   0  0  0  0  0  3  0  0  0  0  0  0
  190.5970  177.3710  140.7240 C   0  0  0  0  0  0  0  0  0  0  0  0
  189.4200  177.7560  140.9610 O   0  0  0  0  0  0  0  0  0  0  0  0
  191.6570  177.7010  141.6190 N   0  0  0  0  0  2  0  0  0  0  0  0
  190.8820  176.5910  139.5590 N   0  0  0  0  0  2  0  0  0  0  0  0
  191.4230  178.4250  142.8580 C   0  0  0  0  0  2  0  0  0  0  0  0
  189.9800  178.2810  143.3030 C   0  0  0  0  0  2  0  0  0  0  0  0
  189.8820  178.2400  144.8290 C   0  0  0  0  0  2  0  0  0  0  0  0
  189.7290  176.8180  145.3760 C   0  0  1  0  0  3  0  0  0  0  0  0
  191.0310  176.0440  145.2030 C   0  0  0  0  0  1  0  0  0  0  0  0
  190.3320  176.4820  147.6980 O   0  0  0  0  0  1  0  0  0  0  0  0
  189.2690  176.8050  146.8460 C   0  0  1  0  0  3  0  0  0  0  0  0
  188.6150  178.1070  147.3180 C   0  0  2  0  0  3  0  0  0  0  0  0
  189.1490  178.5360  148.5390 O   0  0  0  0  0  0  0  0  0  0  0  0
  188.3070  177.9930  149.5090 C   0  0  0  0  0  1  0  0  0  0  0  0
  187.0860  178.0420  147.3650 C   0  0  0  0  0  2  0  0  0  0  0  0
  186.5230  179.3050  147.1560 O   0  0  0  0  0  0  0  0  0  0  0  0
  185.1150  177.5190  144.4570 C   0  0  0  0  0  2  0  0  0  0  0  0
  184.4660  179.0370  146.1810 O   0  0  0  0  0  0  0  0  0  0  0  0
  183.9770  178.2950  145.0870 C   0  0  0  0  0  2  0  0  0  0  0  0
  186.3330  177.9900  145.1890 C   0  0  0  0  0  2  0  0  0  0  0  0
  185.8420  179.1990  145.9430 C   0  0  2  0  0  3  0  0  0  0  0  0
  187.4500  175.6040  135.3180 C   0  0  0  0  0  2  0  0  0  0  0  0
  186.0970  176.3000  135.2760 C   0  0  0  0  0  2  0  0  0  0  0  0
  185.1340  173.9860  135.7900 C   0  0  0  0  0  0  0  0  0  0  0  0
  182.5370  175.0360  135.4110 C   0  0  0  0  0  0  0  0  0  0  0  0
  184.9550  175.3560  135.4950 C   0  0  0  0  0  0  0  0  0  0  0  0
  183.6670  175.8580  135.2930 C   0  0  0  0  0  3  0  0  0  0  0  0
  184.0030  173.1660  135.9230 C   0  0  0  0  0  3  0  0  0  0  0  0
  182.7200  173.6840  135.7330 C   0  0  0  0  0  3  0  0  0  0  0  0
  188.3010  172.2670  136.9900 O   0  0  0  0  0  0  0  0  0  0  0  0
  187.0260  172.7980  137.0700 C   0  0  0  0  0  0  0  0  0  0  0  0
  186.4610  173.4510  135.9240 N   0  0  0  0  0  2  0  0  0  0  0  0
  186.3650  172.6610  138.1340 O   0  0  0  0  0  1  0  0  0  0  0  0
  180.8810  176.9690  135.2380 C   0  0  0  0  0  0  0  0  0  0  0  0
  181.2300  175.5720  135.1100 N   0  0  0  0  0  0  0  0  0  0  0  0
  179.8940  177.4260  134.5970 O   0  0  0  0  0  0  0  0  0  0  0  0
  180.2020  174.6500  134.6290 C   0  0  0  0  0  2  0  0  0  0  0  0
  179.3780  174.2600  135.6870 O   0  0  0  0  0  1  0  0  0  0  0  0
  181.6310  177.9020  136.1340 C   0  0  0  0  0  2  0  0  0  0  0  0
  180.9300  178.0450  137.4730 C   0  0  0  0  0  2  0  0  0  0  0  0
  181.5080  179.2600  138.1980 C   0  0  1  0  0  3  0  0  0  0  0  0
  181.1810  181.5420  137.1710 C   0  0  0  0  0  1  0  0  0  0  0  0
  180.4220  181.1250  139.4640 C   0  0  0  0  0  1  0  0  0  0  0  0
  180.5940  180.4910  138.0970 C   0  0  0  0  0  3  0  0  0  0  0  0
  180.8230  178.2020  140.2530 O   0  0  0  0  0  1  0  0  0  0  0  0
  181.8600  178.9260  139.6550 C   0  0  1  0  0  3  0  0  0  0  0  0
  183.1850  178.1640  139.7720 C   0  0  2  0  0  3  0  0  0  0  0  0
  186.3980  178.6320  141.0770 N   0  0  0  0  0  1  0  0  0  0  0  0
  184.1640  178.9340  141.8400 N   0  0  0  0  0  2  0  0  0  0  0  0
  183.4780  177.8140  141.2180 C   0  0  0  0  0  2  0  0  0  0  0  0
  185.1730  179.3940  140.8970 C   0  0  2  0  0  3  0  0  0  0  0  0
  184.5660  179.1910  139.1950 S   0  0  0  0  0  0  0  0  0  0  0  0
  1 15  1  1  0  0  0
  2  6  2  0  0  0  0
  3  9  1  0  0  0  0
  4 11  2  0  0  0  0
  4 10  1  0  0  0  0
  5 33  1  1  0  0  0
  5  2  1  0  0  0  0
  5  3  1  0  0  0  0
  6  7  1  0  0  0  0
  6  1  1  0  0  0  0
  8  7  2  0  0  0  0
  9  1  1  0  0  0  0
 10  8  1  0  0  0  0
 11  2  1  0  0  0  0
 12 13  2  0  0  0  0
 12 14  1  0  0  0  0
 14 16  1  0  0  0  0
 15 12  1  0  0  0  0
 16 17  1  0  0  0  0
 17 18  1  0  0  0  0
 18 19  1  0  0  0  0
 19 20  1  1  0  0  0
 19 22  1  0  0  0  0
 22 23  1  0  0  0  0
 22 21  1  1  0  0  0
 23 26  1  1  0  0  0
 23 24  1  0  0  0  0
 24 25  1  0  0  0  0
 27 26  1  0  0  0  0
 28 30  1  0  0  0  0
 28 31  1  0  0  0  0
 30 29  1  0  0  0  0
 31 32  1  0  0  0  0
 32 29  1  0  0  0  0
 32 27  1  1  0  0  0
 34 33  1  0  0  0  0
 34 37  1  0  0  0  0
 35 39  1  0  0  0  0
 35 43  1  0  0  0  0
 36 40  1  0  0  0  0
 37 35  2  0  0  0  0
 38 36  2  0  0  0  0
 38 37  1  0  0  0  0
 40 39  2  0  0  0  0
 41 42  2  0  0  0  0
 42 44  1  0  0  0  0
 43 42  1  0  0  0  0
 45 50  1  0  0  0  0
 46 45  1  0  0  0  0
 46 36  1  0  0  0  0
 47 45  2  0  0  0  0
 48 46  1  0  0  0  0
 48 49  1  0  0  0  0
 50 51  1  0  0  0  0
 52 51  1  1  0  0  0
 52 57  1  0  0  0  0
 53 55  1  0  0  0  0
 55 52  1  0  0  0  0
 55 54  1  0  0  0  0
 57 56  1  6  0  0  0
 58 57  1  1  0  0  0
 58 61  1  0  0  0  0
 61 60  1  0  0  0  0
 62 59  1  6  0  0  0
 62 60  1  0  0  0  0
 63 58  1  0  0  0  0
 63 62  1  0  0  0  0
M  END
>  <MODEL>
7

>  <REMARK>
 VINA RESULT:      -4.6      2.990     11.239
  Name = 
  23 active torsions:
  status: ('A' for Active; 'I' for Inactive)
    1  A    between atoms: C_1  and  N_60
    2  A    between atoms: C_2  and  C_22
    3  A    between atoms: C_2  and  C_49
    4  A    between atoms: O_3  and  C_10
    5  A    between atoms: C_6  and  C_43
    6  A    between atoms: C_6  and  C_63
    7  A    between atoms: C_9  and  N_56
    8  A    between atoms: C_10  and  C_26
    9  A    between atoms: C_10  and  C_34
   10  A    between atoms: C_11  and  N_50
   11  A    between atoms: C_12  and  C_14
   12  A    between atoms: C_12  and  C_34
   13  A    between atoms: C_14  and  C_53
   14  A    between atoms: C_15  and  N_50
   15  A    between atoms: C_16  and  N_47
   16  A    between atoms: C_16  and  C_53
   17  A    between atoms: C_21  and  C_49
   18  A    between atoms: C_24  and  C_58
   19  A    between atoms: C_26  and  O_30
   20  A    between atoms: C_29  and  C_43
   21  A    between atoms: O_30  and  C_46
   22  A    between atoms: C_31  and  C_63
   23  A    between atoms: C_58  and  C_63
                            x       y       z     vdW  Elec       q    Type
                         _______ _______ _______ _____ _____    ______ ____

>  <TORSDO>
F 23

$$$$
=
 OpenBabel11042410513D

 63 67  0  0  1  0  0  0  0  0999 V2000
  190.6370  176.4110  138.8060 C   0  0  2  0  0  3  0  0  0  0  0  0
  190.4740  176.0370  136.3590 C   0  0  0  0  0  0  0  0  0  0  0  0
  188.5730  176.6130  137.9180 C   0  0  0  0  0  2  0  0  0  0  0  0
  191.9160  174.9360  134.6380 C   0  0  0  0  0  3  0  0  0  0  0  0
  189.0240  176.4610  136.4620 C   0  0  2  0  0  3  0  0  0  0  0  0
  191.2590  176.0230  137.4710 C   0  0  0  0  0  0  0  0  0  0  0  0
  192.6860  175.6080  137.4850 C   0  0  0  0  0  3  0  0  0  0  0  0
  193.2600  174.7280  136.6620 C   0  0  0  0  0  3  0  0  0  0  0  0
  189.5550  177.3030  138.6410 O   0  0  0  0  0  0  0  0  0  0  0  0
  192.5030  173.9830  135.6160 C   0  0  0  0  0  2  0  0  0  0  0  0
  190.9920  175.8340  134.9870 C   0  0  0  0  0  3  0  0  0  0  0  0
  191.3130  177.5120  141.0150 C   0  0  0  0  0  0  0  0  0  0  0  0
  190.1260  177.4950  141.4410 O   0  0  0  0  0  0  0  0  0  0  0  0
  192.3640  178.0280  141.8310 N   0  0  0  0  0  2  0  0  0  0  0  0
  191.6210  177.0050  139.7140 N   0  0  0  0  0  2  0  0  0  0  0  0
  192.1300  178.4870  143.1890 C   0  0  0  0  0  2  0  0  0  0  0  0
  190.9490  177.7640  143.8090 C   0  0  0  0  0  2  0  0  0  0  0  0
  190.9350  177.9430  145.3280 C   0  0  0  0  0  2  0  0  0  0  0  0
  190.7150  176.6260  146.0780 C   0  0  1  0  0  3  0  0  0  0  0  0
  192.0520  176.0330  146.5070 C   0  0  0  0  0  1  0  0  0  0  0  0
  190.5010  176.9710  148.4660 O   0  0  0  0  0  1  0  0  0  0  0  0
  189.7720  176.7930  147.2850 C   0  0  1  0  0  3  0  0  0  0  0  0
  188.7520  177.9270  147.1400 C   0  0  2  0  0  3  0  0  0  0  0  0
  188.5800  178.6190  148.3450 O   0  0  0  0  0  0  0  0  0  0  0  0
  187.6070  177.8980  149.0370 C   0  0  0  0  0  1  0  0  0  0  0  0
  187.4100  177.4720  146.5570 C   0  0  0  0  0  2  0  0  0  0  0  0
  187.4580  177.4340  145.1600 O   0  0  0  0  0  0  0  0  0  0  0  0
  184.1900  178.6570  145.6920 C   0  0  0  0  0  2  0  0  0  0  0  0
  186.1780  179.2150  144.4950 O   0  0  0  0  0  0  0  0  0  0  0  0
  184.8590  179.6400  144.7540 C   0  0  0  0  0  2  0  0  0  0  0  0
  185.1860  177.5480  145.8360 C   0  0  0  0  0  2  0  0  0  0  0  0
  186.1860  177.8320  144.7470 C   0  0  2  0  0  3  0  0  0  0  0  0
  188.1040  175.5070  135.6990 C   0  0  0  0  0  2  0  0  0  0  0  0
  186.6380  175.8890  135.8470 C   0  0  0  0  0  2  0  0  0  0  0  0
  186.3200  173.4870  136.6700 C   0  0  0  0  0  0  0  0  0  0  0  0
  183.5580  174.0080  136.9740 C   0  0  0  0  0  0  0  0  0  0  0  0
  185.8020  174.7730  136.3940 C   0  0  0  0  0  0  0  0  0  0  0  0
  184.4330  175.0110  136.5310 C   0  0  0  0  0  3  0  0  0  0  0  0
  185.4480  172.4870  137.1260 C   0  0  0  0  0  3  0  0  0  0  0  0
  184.0830  172.7440  137.2740 C   0  0  0  0  0  3  0  0  0  0  0  0
  189.6770  172.3240  135.3270 O   0  0  0  0  0  1  0  0  0  0  0  0
  188.2990  172.4030  135.4310 C   0  0  0  0  0  0  0  0  0  0  0  0
  187.7160  173.2170  136.4570 N   0  0  0  0  0  2  0  0  0  0  0  0
  187.5810  171.7930  134.5950 O   0  0  0  0  0  0  0  0  0  0  0  0
  181.5650  175.5780  137.2320 C   0  0  0  0  0  0  0  0  0  0  0  0
  182.1390  174.2690  137.0200 N   0  0  0  0  0  0  0  0  0  0  0  0
  180.3770  175.8050  136.8660 O   0  0  0  0  0  0  0  0  0  0  0  0
  181.2250  173.1440  136.8240 C   0  0  0  0  0  2  0  0  0  0  0  0
  180.2860  173.4580  135.8400 O   0  0  0  0  0  1  0  0  0  0  0  0
  182.3170  176.6830  137.9000 C   0  0  0  0  0  2  0  0  0  0  0  0
  182.5730  176.3560  139.3600 C   0  0  0  0  0  2  0  0  0  0  0  0
  182.2670  177.5970  140.1980 C   0  0  1  0  0  3  0  0  0  0  0  0
  184.4770  178.2980  139.2020 C   0  0  0  0  0  1  0  0  0  0  0  0
  184.1970  178.2810  141.6370 C   0  0  0  0  0  1  0  0  0  0  0  0
  183.4800  178.5320  140.3240 C   0  0  0  0  0  3  0  0  0  0  0  0
  179.8830  177.9240  140.3610 O   0  0  0  0  0  1  0  0  0  0  0  0
  181.0280  178.3360  139.6700 C   0  0  1  0  0  3  0  0  0  0  0  0
  181.1850  179.8590  139.7480 C   0  0  2  0  0  3  0  0  0  0  0  0
  179.4470  182.7480  138.8100 N   0  0  0  0  0  1  0  0  0  0  0  0
  178.9310  180.7070  139.9200 N   0  0  0  0  0  2  0  0  0  0  0  0
  180.1470  180.4590  140.6770 C   0  0  0  0  0  2  0  0  0  0  0  0
  179.3300  181.3080  138.6560 C   0  0  2  0  0  3  0  0  0  0  0  0
  180.9220  180.6140  138.1190 S   0  0  0  0  0  0  0  0  0  0  0  0
  1 15  1  1  0  0  0
  2  5  1  0  0  0  0
  2  6  2  0  0  0  0
  3  9  1  0  0  0  0
  4 11  2  0  0  0  0
  4 10  1  0  0  0  0
  5 33  1  1  0  0  0
  5  3  1  0  0  0  0
  6  7  1  0  0  0  0
  6  1  1  0  0  0  0
  8  7  2  0  0  0  0
  9  1  1  0  0  0  0
 10  8  1  0  0  0  0
 11  2  1  0  0  0  0
 12 13  2  0  0  0  0
 12 14  1  0  0  0  0
 14 16  1  0  0  0  0
 15 12  1  0  0  0  0
 16 17  1  0  0  0  0
 17 18  1  0  0  0  0
 18 19  1  0  0  0  0
 19 20  1  1  0  0  0
 19 22  1  0  0  0  0
 22 21  1  1  0  0  0
 23 26  1  1  0  0  0
 23 22  1  0  0  0  0
 23 24  1  0  0  0  0
 24 25  1  0  0  0  0
 27 26  1  0  0  0  0
 28 31  1  0  0  0  0
 29 32  1  0  0  0  0
 29 30  1  0  0  0  0
 30 28  1  0  0  0  0
 32 27  1  1  0  0  0
 32 31  1  0  0  0  0
 33 34  1  0  0  0  0
 34 37  1  0  0  0  0
 35 39  1  0  0  0  0
 36 46  1  0  0  0  0
 36 40  1  0  0  0  0
 37 38  1  0  0  0  0
 37 35  2  0  0  0  0
 38 36  2  0  0  0  0
 39 40  2  0  0  0  0
 41 42  1  0  0  0  0
 42 43  1  0  0  0  0
 43 35  1  0  0  0  0
 44 42  2  0  0  0  0
 45 50  1  0  0  0  0
 46 45  1  0  0  0  0
 47 45  2  0  0  0  0
 48 46  1  0  0  0  0
 49 48  1  0  0  0  0
 50 51  1  0  0  0  0
 52 51  1  6  0  0  0
 52 55  1  0  0  0  0
 53 55  1  0  0  0  0
 55 54  1  0  0  0  0
 57 52  1  0  0  0  0
 57 56  1  1  0  0  0
 58 57  1  6  0  0  0
 58 61  1  0  0  0  0
 60 61  1  0  0  0  0
 62 59  1  1  0  0  0
 62 60  1  0  0  0  0
 63 62  1  0  0  0  0
 63 58  1  0  0  0  0
M  END
>  <MODEL>
8

>  <REMARK>
 VINA RESULT:      -4.6      3.192     11.703
  Name = 
  23 active torsions:
  status: ('A' for Active; 'I' for Inactive)
    1  A    between atoms: C_1  and  N_60
    2  A    between atoms: C_2  and  C_22
    3  A    between atoms: C_2  and  C_49
    4  A    between atoms: O_3  and  C_10
    5  A    between atoms: C_6  and  C_43
    6  A    between atoms: C_6  and  C_63
    7  A    between atoms: C_9  and  N_56
    8  A    between atoms: C_10  and  C_26
    9  A    between atoms: C_10  and  C_34
   10  A    between atoms: C_11  and  N_50
   11  A    between atoms: C_12  and  C_14
   12  A    between atoms: C_12  and  C_34
   13  A    between atoms: C_14  and  C_53
   14  A    between atoms: C_15  and  N_50
   15  A    between atoms: C_16  and  N_47
   16  A    between atoms: C_16  and  C_53
   17  A    between atoms: C_21  and  C_49
   18  A    between atoms: C_24  and  C_58
   19  A    between atoms: C_26  and  O_30
   20  A    between atoms: C_29  and  C_43
   21  A    between atoms: O_30  and  C_46
   22  A    between atoms: C_31  and  C_63
   23  A    between atoms: C_58  and  C_63
                            x       y       z     vdW  Elec       q    Type
                         _______ _______ _______ _____ _____    ______ ____

>  <TORSDO>
F 23

$$$$
=
 OpenBabel11042410513D

 63 67  0  0  1  0  0  0  0  0999 V2000
  185.5620  177.0850  137.3850 C   0  0  2  0  0  3  0  0  0  0  0  0
  183.0940  177.1580  137.6100 C   0  0  0  0  0  0  0  0  0  0  0  0
  184.7570  178.5760  138.8730 C   0  0  0  0  0  2  0  0  0  0  0  0
  181.2160  175.6150  137.0190 C   0  0  0  0  0  3  0  0  0  0  0  0
  183.2830  178.3480  138.5270 C   0  0  2  0  0  3  0  0  0  0  0  0
  184.1750  176.5540  137.0470 C   0  0  0  0  0  0  0  0  0  0  0  0
  184.1030  175.3720  136.1490 C   0  0  0  0  0  3  0  0  0  0  0  0
  183.1660  174.4220  136.1700 C   0  0  0  0  0  3  0  0  0  0  0  0
  185.5330  178.4580  137.7140 O   0  0  0  0  0  0  0  0  0  0  0  0
  182.0580  174.3980  137.1660 C   0  0  0  0  0  2  0  0  0  0  0  0
  181.6940  176.8410  137.2440 C   0  0  0  0  0  3  0  0  0  0  0  0
  187.9040  176.6040  136.4720 C   0  0  0  0  0  0  0  0  0  0  0  0
  188.4010  176.5730  137.6310 O   0  0  0  0  0  0  0  0  0  0  0  0
  188.7250  176.3640  135.3290 N   0  0  0  0  0  2  0  0  0  0  0  0
  186.5110  176.8680  136.2890 N   0  0  0  0  0  2  0  0  0  0  0  0
  190.1300  176.0150  135.4490 C   0  0  0  0  0  2  0  0  0  0  0  0
  190.3070  174.5100  135.5320 C   0  0  0  0  0  2  0  0  0  0  0  0
  191.6080  174.0760  134.8550 C   0  0  0  0  0  2  0  0  0  0  0  0
  192.6220  173.4860  135.8400 C   0  0  1  0  0  3  0  0  0  0  0  0
  193.1890  172.1800  135.2950 C   0  0  0  0  0  1  0  0  0  0  0  0
  193.6070  175.6630  135.4530 O   0  0  0  0  0  1  0  0  0  0  0  0
  193.7490  174.4770  136.1820 C   0  0  1  0  0  3  0  0  0  0  0  0
  193.8730  174.8070  137.6730 C   0  0  2  0  0  3  0  0  0  0  0  0
  193.9780  176.1870  137.8860 O   0  0  0  0  0  0  0  0  0  0  0  0
  192.6770  176.6090  138.1590 C   0  0  0  0  0  1  0  0  0  0  0  0
  194.9960  174.0420  138.3790 C   0  0  0  0  0  2  0  0  0  0  0  0
  196.0470  174.8970  138.7240 O   0  0  0  0  0  0  0  0  0  0  0  0
  198.1150  172.8230  136.7540 C   0  0  0  0  0  2  0  0  0  0  0  0
  198.1410  174.9710  137.7950 O   0  0  0  0  0  0  0  0  0  0  0  0
  198.9080  174.0880  137.0100 C   0  0  0  0  0  2  0  0  0  0  0  0
  196.8790  172.9900  137.5820 C   0  0  0  0  0  2  0  0  0  0  0  0
  197.2060  174.1640  138.4670 C   0  0  2  0  0  3  0  0  0  0  0  0
  182.4330  178.2240  139.7930 C   0  0  0  0  0  2  0  0  0  0  0  0
  182.6610  179.3870  140.7470 C   0  0  0  0  0  2  0  0  0  0  0  0
  183.1070  179.0400  143.2430 C   0  0  0  0  0  0  0  0  0  0  0  0
  185.8080  178.4720  142.6320 C   0  0  0  0  0  0  0  0  0  0  0  0
  183.5460  179.0240  141.9000 C   0  0  0  0  0  0  0  0  0  0  0  0
  184.8870  178.7590  141.6140 C   0  0  0  0  0  3  0  0  0  0  0  0
  184.0240  178.7390  144.2620 C   0  0  0  0  0  3  0  0  0  0  0  0
  185.3590  178.4610  143.9600 C   0  0  0  0  0  3  0  0  0  0  0  0
  179.3480  179.0420  143.7860 O   0  0  0  0  0  1  0  0  0  0  0  0
  180.5770  178.5760  143.3550 C   0  0  0  0  0  0  0  0  0  0  0  0
  181.7450  179.3850  143.5460 N   0  0  0  0  0  2  0  0  0  0  0  0
  180.6560  177.4280  142.8400 O   0  0  0  0  0  0  0  0  0  0  0  0
  188.1650  177.6730  143.1870 C   0  0  0  0  0  0  0  0  0  0  0  0
  187.2020  178.2900  142.3030 N   0  0  0  0  0  0  0  0  0  0  0  0
  189.2290  177.1870  142.7080 O   0  0  0  0  0  0  0  0  0  0  0  0
  187.6650  178.7410  140.9920 C   0  0  0  0  0  2  0  0  0  0  0  0
  187.8570  177.6430  140.1500 O   0  0  0  0  0  1  0  0  0  0  0  0
  187.9680  177.6090  144.6670 C   0  0  0  0  0  2  0  0  0  0  0  0
  189.0910  178.3300  145.3920 C   0  0  0  0  0  2  0  0  0  0  0  0
  188.9250  178.1030  146.8940 C   0  0  1  0  0  3  0  0  0  0  0  0
  186.7750  179.2960  147.4630 C   0  0  0  0  0  1  0  0  0  0  0  0
  187.3540  177.2210  148.6310 C   0  0  0  0  0  1  0  0  0  0  0  0
  187.4520  177.9450  147.3030 C   0  0  0  0  0  3  0  0  0  0  0  0
  189.4880  175.7720  146.6410 O   0  0  0  0  0  1  0  0  0  0  0  0
  189.7820  176.9230  147.3790 C   0  0  1  0  0  3  0  0  0  0  0  0
  191.2820  177.2340  147.3200 C   0  0  2  0  0  3  0  0  0  0  0  0
  194.2930  175.9860  148.5920 N   0  0  0  0  0  1  0  0  0  0  0  0
  192.3680  175.0870  147.5190 N   0  0  0  0  0  2  0  0  0  0  0  0
  192.0270  176.1410  146.5780 C   0  0  0  0  0  2  0  0  0  0  0  0
  192.8680  175.7350  148.7230 C   0  0  2  0  0  3  0  0  0  0  0  0
  191.9880  177.3040  148.9900 S   0  0  0  0  0  0  0  0  0  0  0  0
  1 15  1  6  0  0  0
  1  9  1  0  0  0  0
  2  5  1  0  0  0  0
  4 10  1  0  0  0  0
  4 11  2  0  0  0  0
  5  3  1  0  0  0  0
  5 33  1  1  0  0  0
  6  1  1  0  0  0  0
  6  2  2  0  0  0  0
  7  8  2  0  0  0  0
  7  6  1  0  0  0  0
  8 10  1  0  0  0  0
  9  3  1  0  0  0  0
 11  2  1  0  0  0  0
 12 13  2  0  0  0  0
 14 16  1  0  0  0  0
 14 12  1  0  0  0  0
 15 12  1  0  0  0  0
 16 17  1  0  0  0  0
 18 17  1  0  0  0  0
 18 19  1  0  0  0  0
 19 20  1  6  0  0  0
 19 22  1  0  0  0  0
 22 21  1  6  0  0  0
 22 23  1  0  0  0  0
 23 24  1  0  0  0  0
 23 26  1  6  0  0  0
 24 25  1  0  0  0  0
 26 27  1  0  0  0  0
 28 30  1  0  0  0  0
 28 31  1  0  0  0  0
 29 32  1  0  0  0  0
 30 29  1  0  0  0  0
 31 32  1  0  0  0  0
 32 27  1  6  0  0  0
 33 34  1  0  0  0  0
 34 37  1  0  0  0  0
 35 43  1  0  0  0  0
 35 39  1  0  0  0  0
 36 40  1  0  0  0  0
 37 35  2  0  0  0  0
 38 37  1  0  0  0  0
 38 36  2  0  0  0  0
 40 39  2  0  0  0  0
 42 43  1  0  0  0  0
 42 41  1  0  0  0  0
 44 42  2  0  0  0  0
 45 50  1  0  0  0  0
 46 36  1  0  0  0  0
 46 45  1  0  0  0  0
 47 45  2  0  0  0  0
 48 46  1  0  0  0  0
 49 48  1  0  0  0  0
 50 51  1  0  0  0  0
 52 51  1  6  0  0  0
 52 55  1  0  0  0  0
 52 57  1  0  0  0  0
 55 53  1  0  0  0  0
 55 54  1  0  0  0  0
 57 56  1  6  0  0  0
 58 57  1  1  0  0  0
 58 63  1  0  0  0  0
 60 62  1  0  0  0  0
 61 58  1  0  0  0  0
 61 60  1  0  0  0  0
 62 59  1  6  0  0  0
 62 63  1  0  0  0  0
M  END
>  <MODEL>
9

>  <REMARK>
 VINA RESULT:      -4.6      3.234     10.180
  Name = 
  23 active torsions:
  status: ('A' for Active; 'I' for Inactive)
    1  A    between atoms: C_1  and  N_60
    2  A    between atoms: C_2  and  C_22
    3  A    between atoms: C_2  and  C_49
    4  A    between atoms: O_3  and  C_10
    5  A    between atoms: C_6  and  C_43
    6  A    between atoms: C_6  and  C_63
    7  A    between atoms: C_9  and  N_56
    8  A    between atoms: C_10  and  C_26
    9  A    between atoms: C_10  and  C_34
   10  A    between atoms: C_11  and  N_50
   11  A    between atoms: C_12  and  C_14
   12  A    between atoms: C_12  and  C_34
   13  A    between atoms: C_14  and  C_53
   14  A    between atoms: C_15  and  N_50
   15  A    between atoms: C_16  and  N_47
   16  A    between atoms: C_16  and  C_53
   17  A    between atoms: C_21  and  C_49
   18  A    between atoms: C_24  and  C_58
   19  A    between atoms: C_26  and  O_30
   20  A    between atoms: C_29  and  C_43
   21  A    between atoms: O_30  and  C_46
   22  A    between atoms: C_31  and  C_63
   23  A    between atoms: C_58  and  C_63
                            x       y       z     vdW  Elec       q    Type
                         _______ _______ _______ _____ _____    ______ ____

>  <TORSDO>
F 23

$$$$
