=
 OpenBabel11042410343D

 38 41  0  0  1  0  0  0  0  0999 V2000
  185.9990  178.2560  145.3180 C   0  0  0  0  0  0  0  0  0  0  0  0
  186.9850  177.5700  145.9130 C   0  0  0  0  0  3  0  0  0  0  0  0
  182.0740  178.7510  142.0440 C   0  0  0  0  0  3  0  0  0  0  0  0
  187.0500  177.7380  143.0660 C   0  0  0  0  0  0  0  0  0  0  0  0
  184.4530  178.3840  141.8290 C   0  0  0  0  0  3  0  0  0  0  0  0
  182.2290  178.9320  143.4210 C   0  0  0  0  0  3  0  0  0  0  0  0
  186.0170  178.5550  143.8250 C   0  0  1  0  0  3  0  0  0  0  0  0
  184.8360  178.6970  146.1010 C   0  0  0  0  0  0  0  0  0  0  0  0
  183.4920  178.8300  144.0090 C   0  0  0  0  0  0  0  0  0  0  0  0
  183.6160  178.9990  145.4240 N   0  0  0  0  0  2  0  0  0  0  0  0
  184.6250  178.5380  143.2130 C   0  0  0  0  0  0  0  0  0  0  0  0
  188.1720  177.0700  145.1460 C   0  0  0  0  0  2  0  0  0  0  0  0
  183.1830  178.4680  141.2460 C   0  0  0  0  0  0  0  0  0  0  0  0
  187.3860  178.0940  141.8710 N   0  0  0  0  0  0  0  0  0  0  0  0
  184.8900  178.7770  147.3580 O   0  0  0  0  0  0  0  0  0  0  0  0
  187.7320  176.5930  143.7680 C   0  0  0  0  0  2  0  0  0  0  0  0
  188.3680  177.3950  141.0760 C   0  0  0  0  0  2  0  0  0  0  0  0
  189.7140  178.0930  141.1830 C   0  0  0  0  0  2  0  0  0  0  0  0
  190.8250  177.0680  141.3420 C   0  0  0  0  0  2  0  0  0  0  0  0
  190.9460  178.3100  143.2440 O   0  0  0  0  0  1  0  0  0  0  0  0
  191.5920  177.3360  142.5570 N   0  0  0  0  0  0  0  0  0  0  0  0
  191.5470  176.4590  144.9000 C   0  0  0  0  0  1  0  0  0  0  0  0
  191.6470  176.1410  143.4090 C   0  0  1  0  0  3  0  0  0  0  0  0
  190.6500  175.2360  143.0430 O   0  0  0  0  0  1  0  0  0  0  0  0
  183.0030  178.2990  139.7680 C   0  0  1  0  0  3  0  0  0  0  0  0
  184.9940  177.9380  138.2650 N   0  0  0  0  0  2  0  0  0  0  0  0
  184.4330  180.0700  139.0310 O   0  0  0  0  0  0  0  0  0  0  0  0
  184.1810  178.8350  139.0180 C   0  0  0  0  0  0  0  0  0  0  0  0
  186.1430  178.3980  137.5010 C   0  0  0  0  0  2  0  0  0  0  0  0
  187.3670  177.5720  137.8530 C   0  0  2  0  0  3  0  0  0  0  0  0
  188.6270  178.2830  137.4400 C   0  0  0  0  0  3  0  0  0  0  0  0
  189.7790  176.1560  137.8070 C   0  0  0  0  0  2  0  0  0  0  0  0
  189.7790  177.6070  137.4200 C   0  0  0  0  0  3  0  0  0  0  0  0
  187.2750  176.1920  137.1850 C   0  0  0  0  0  2  0  0  0  0  0  0
  188.6140  175.4260  137.1260 C   0  0  0  0  0  2  0  0  0  0  0  0
  182.7860  176.9530  139.4450 O   0  0  0  0  0  0  0  0  0  0  0  0
  181.0740  175.6640  139.6270 C   0  0  0  0  0  1  0  0  0  0  0  0
  181.5140  176.8840  139.1100 O   0  0  0  0  0  0  0  0  0  0  0  0
  1  2  2  0  0  0  0
  1  8  1  0  0  0  0
  3  6  1  0  0  0  0
  4 16  1  0  0  0  0
  5 11  2  0  0  0  0
  6  9  2  0  0  0  0
  7  4  1  6  0  0  0
  7  1  1  0  0  0  0
  8 15  2  0  0  0  0
  9 10  1  0  0  0  0
 10  8  1  0  0  0  0
 11  7  1  0  0  0  0
 11  9  1  0  0  0  0
 12  2  1  0  0  0  0
 13  5  1  0  0  0  0
 13  3  2  0  0  0  0
 14  4  2  0  0  0  0
 16 12  1  0  0  0  0
 17 18  1  0  0  0  0
 17 14  1  0  0  0  0
 18 19  1  0  0  0  0
 19 21  1  0  0  0  0
 21 20  1  0  0  0  0
 21 23  1  0  0  0  0
 23 22  1  1  0  0  0
 24 23  1  0  0  0  0
 25 28  1  6  0  0  0
 25 13  1  0  0  0  0
 26 28  1  0  0  0  0
 28 27  2  0  0  0  0
 29 26  1  0  0  0  0
 30 29  1  6  0  0  0
 31 30  1  0  0  0  0
 33 31  2  0  0  0  0
 33 32  1  0  0  0  0
 34 30  1  0  0  0  0
 35 34  1  0  0  0  0
 35 32  1  0  0  0  0
 36 25  1  0  0  0  0
 38 36  1  0  0  0  0
 38 37  1  0  0  0  0
M  END
>  <MODEL>
1

>  <REMARK>
 VINA RESULT:      -9.1      0.000      0.000
  Name = 
  11 active torsions:
  status: ('A' for Active; 'I' for Inactive)
    1  A    between atoms: C_1  and  C_38
    2  A    between atoms: C_5  and  C_16
    3  A    between atoms: C_5  and  N_33
    4  A    between atoms: C_8  and  C_16
    5  A    between atoms: C_8  and  N_31
    6  A    between atoms: N_12  and  C_38
    7  A    between atoms: C_20  and  C_32
    8  A    between atoms: C_22  and  N_33
    9  A    between atoms: O_25  and  O_28
   10  A    between atoms: O_25  and  C_32
   11  A    between atoms: C_30  and  C_32
                            x       y       z     vdW  Elec       q    Type
                         _______ _______ _______ _____ _____    ______ ____

>  <TORSDO>
F 11

$$$$
=
 OpenBabel11042410343D

 38 41  0  0  1  0  0  0  0  0999 V2000
  189.6870  177.1290  146.8280 C   0  0  0  0  0  0  0  0  0  0  0  0
  189.3760  177.4870  148.0820 C   0  0  0  0  0  3  0  0  0  0  0  0
  190.2990  178.0330  141.8100 C   0  0  0  0  0  3  0  0  0  0  0  0
  187.3760  177.8710  146.0840 C   0  0  0  0  0  0  0  0  0  0  0  0
  188.4190  177.9800  143.3290 C   0  0  0  0  0  3  0  0  0  0  0  0
  191.1300  177.5590  142.8280 C   0  0  0  0  0  3  0  0  0  0  0  0
  188.6500  177.1300  145.7130 C   0  0  1  0  0  3  0  0  0  0  0  0
  191.0720  176.7700  146.4890 C   0  0  0  0  0  0  0  0  0  0  0  0
  190.6150  177.3040  144.1010 C   0  0  0  0  0  0  0  0  0  0  0  0
  191.4950  176.8410  145.1280 N   0  0  0  0  0  2  0  0  0  0  0  0
  189.2440  177.5280  144.3700 C   0  0  0  0  0  0  0  0  0  0  0  0
  187.9850  177.8950  148.4630 C   0  0  0  0  0  2  0  0  0  0  0  0
  188.9430  178.2530  142.0590 C   0  0  0  0  0  0  0  0  0  0  0  0
  186.3130  177.6990  145.3720 N   0  0  0  0  0  0  0  0  0  0  0  0
  191.8950  176.4350  147.3840 O   0  0  0  0  0  0  0  0  0  0  0  0
  187.3590  178.7070  147.3370 C   0  0  0  0  0  2  0  0  0  0  0  0
  185.0520  178.3440  145.6530 C   0  0  0  0  0  2  0  0  0  0  0  0
  184.5210  179.0140  144.3960 C   0  0  0  0  0  2  0  0  0  0  0  0
  183.0020  178.9990  144.3950 C   0  0  0  0  0  2  0  0  0  0  0  0
  183.0190  178.3580  142.2130 O   0  0  0  0  0  1  0  0  0  0  0  0
  182.4920  179.2820  143.0540 N   0  0  0  0  0  0  0  0  0  0  0  0
  180.4670  178.3560  144.1930 C   0  0  0  0  0  1  0  0  0  0  0  0
  181.0310  179.1490  143.0160 C   0  0  1  0  0  3  0  0  0  0  0  0
  180.4300  180.4070  142.9530 O   0  0  0  0  0  1  0  0  0  0  0  0
  188.0600  178.7390  140.9520 C   0  0  1  0  0  3  0  0  0  0  0  0
  188.5910  176.9180  139.2920 N   0  0  0  0  0  2  0  0  0  0  0  0
  188.9810  179.1630  138.7840 O   0  0  0  0  0  0  0  0  0  0  0  0
  188.5810  178.3060  139.6190 C   0  0  0  0  0  0  0  0  0  0  0  0
  189.0700  176.4340  138.0060 C   0  0  0  0  0  2  0  0  0  0  0  0
  190.3980  175.7210  138.1800 C   0  0  2  0  0  3  0  0  0  0  0  0
  191.5410  176.6970  138.1070 C   0  0  0  0  0  3  0  0  0  0  0  0
  193.0050  174.7500  137.8870 C   0  0  0  0  0  2  0  0  0  0  0  0
  192.7860  176.2330  137.9690 C   0  0  0  0  0  3  0  0  0  0  0  0
  190.5460  174.6260  137.1130 C   0  0  0  0  0  2  0  0  0  0  0  0
  191.9920  174.1170  136.9250 C   0  0  0  0  0  2  0  0  0  0  0  0
  186.7440  178.2930  141.1320 O   0  0  0  0  0  0  0  0  0  0  0  0
  185.1280  178.7750  139.7980 C   0  0  0  0  0  1  0  0  0  0  0  0
  185.9870  179.3060  140.7620 O   0  0  0  0  0  0  0  0  0  0  0  0
  1  2  2  0  0  0  0
  2 12  1  0  0  0  0
  3 13  2  0  0  0  0
  3  6  1  0  0  0  0
  4 16  1  0  0  0  0
  5 11  2  0  0  0  0
  6  9  2  0  0  0  0
  7 11  1  6  0  0  0
  7  4  1  0  0  0  0
  7  1  1  0  0  0  0
  8  1  1  0  0  0  0
  8 15  2  0  0  0  0
  9 11  1  0  0  0  0
  9 10  1  0  0  0  0
 10  8  1  0  0  0  0
 13  5  1  0  0  0  0
 14 17  1  0  0  0  0
 14  4  2  0  0  0  0
 16 12  1  0  0  0  0
 18 17  1  0  0  0  0
 19 18  1  0  0  0  0
 20 21  1  0  0  0  0
 21 19  1  0  0  0  0
 23 21  1  0  0  0  0
 23 22  1  1  0  0  0
 24 23  1  0  0  0  0
 25 28  1  6  0  0  0
 25 36  1  0  0  0  0
 25 13  1  0  0  0  0
 26 28  1  0  0  0  0
 27 28  2  0  0  0  0
 29 26  1  0  0  0  0
 30 29  1  6  0  0  0
 31 30  1  0  0  0  0
 32 33  1  0  0  0  0
 33 31  2  0  0  0  0
 34 30  1  0  0  0  0
 35 34  1  0  0  0  0
 35 32  1  0  0  0  0
 37 38  1  0  0  0  0
 38 36  1  0  0  0  0
M  END
>  <MODEL>
2

>  <REMARK>
 VINA RESULT:      -8.8      2.460      6.190
  Name = 
  11 active torsions:
  status: ('A' for Active; 'I' for Inactive)
    1  A    between atoms: C_1  and  C_38
    2  A    between atoms: C_5  and  C_16
    3  A    between atoms: C_5  and  N_33
    4  A    between atoms: C_8  and  C_16
    5  A    between atoms: C_8  and  N_31
    6  A    between atoms: N_12  and  C_38
    7  A    between atoms: C_20  and  C_32
    8  A    between atoms: C_22  and  N_33
    9  A    between atoms: O_25  and  O_28
   10  A    between atoms: O_25  and  C_32
   11  A    between atoms: C_30  and  C_32
                            x       y       z     vdW  Elec       q    Type
                         _______ _______ _______ _____ _____    ______ ____

>  <TORSDO>
F 11

$$$$
=
 OpenBabel11042410343D

 38 41  0  0  1  0  0  0  0  0999 V2000
  186.1260  178.2450  145.2820 C   0  0  0  0  0  0  0  0  0  0  0  0
  187.1570  177.5490  145.7820 C   0  0  0  0  0  3  0  0  0  0  0  0
  182.0140  178.8340  142.2630 C   0  0  0  0  0  3  0  0  0  0  0  0
  187.0580  177.8750  142.9490 C   0  0  0  0  0  0  0  0  0  0  0  0
  184.3840  178.5310  141.8970 C   0  0  0  0  0  3  0  0  0  0  0  0
  182.2430  178.9420  143.6370 C   0  0  0  0  0  3  0  0  0  0  0  0
  186.0550  178.6260  143.8090 C   0  0  1  0  0  3  0  0  0  0  0  0
  185.0010  178.6170  146.1510 C   0  0  0  0  0  0  0  0  0  0  0  0
  183.5390  178.8360  144.1480 C   0  0  0  0  0  0  0  0  0  0  0  0
  183.7400  178.9290  145.5610 N   0  0  0  0  0  2  0  0  0  0  0  0
  184.6300  178.6130  143.2760 C   0  0  0  0  0  0  0  0  0  0  0  0
  188.3070  177.1190  144.9230 C   0  0  0  0  0  2  0  0  0  0  0  0
  183.0810  178.6200  141.3900 C   0  0  0  0  0  0  0  0  0  0  0  0
  187.3200  178.3040  141.7600 N   0  0  0  0  0  0  0  0  0  0  0  0
  185.1250  178.6290  147.4060 O   0  0  0  0  0  0  0  0  0  0  0  0
  187.8000  176.7090  143.5470 C   0  0  0  0  0  2  0  0  0  0  0  0
  188.2670  177.6700  140.8740 C   0  0  0  0  0  2  0  0  0  0  0  0
  188.2850  178.3890  139.5340 C   0  0  0  0  0  2  0  0  0  0  0  0
  187.0120  178.0880  138.7610 C   0  0  0  0  0  2  0  0  0  0  0  0
  188.3320  179.1710  137.2580 O   0  0  0  0  0  1  0  0  0  0  0  0
  187.0820  178.6690  137.4220 N   0  0  0  0  0  0  0  0  0  0  0  0
  187.6640  177.8880  135.1170 C   0  0  0  0  0  1  0  0  0  0  0  0
  186.8700  177.6390  136.3980 C   0  0  1  0  0  3  0  0  0  0  0  0
  187.1680  176.3760  136.9100 O   0  0  0  0  0  1  0  0  0  0  0  0
  182.8220  178.5290  139.9180 C   0  0  1  0  0  3  0  0  0  0  0  0
  181.8560  180.6420  138.9400 N   0  0  0  0  0  2  0  0  0  0  0  0
  184.1630  180.2880  139.0070 O   0  0  0  0  0  0  0  0  0  0  0  0
  183.0040  179.8570  139.2560 C   0  0  0  0  0  0  0  0  0  0  0  0
  181.9670  181.9490  138.3120 C   0  0  0  0  0  2  0  0  0  0  0  0
  180.8150  182.1620  137.3470 C   0  0  2  0  0  3  0  0  0  0  0  0
  180.7840  181.0760  136.3060 C   0  0  0  0  0  3  0  0  0  0  0  0
  179.2150  182.4940  135.0770 C   0  0  0  0  0  2  0  0  0  0  0  0
  180.0170  181.2340  135.2230 C   0  0  0  0  0  3  0  0  0  0  0  0
  180.9340  183.5450  136.6890 C   0  0  0  0  0  2  0  0  0  0  0  0
  180.0800  183.7150  135.4150 C   0  0  0  0  0  2  0  0  0  0  0  0
  183.6510  177.5670  139.3250 O   0  0  0  0  0  0  0  0  0  0  0  0
  183.6880  176.0810  137.7710 C   0  0  0  0  0  1  0  0  0  0  0  0
  182.8430  176.8200  138.6010 O   0  0  0  0  0  0  0  0  0  0  0  0
  1  2  2  0  0  0  0
  1  8  1  0  0  0  0
  3  6  1  0  0  0  0
  4 16  1  0  0  0  0
  5 11  2  0  0  0  0
  6  9  2  0  0  0  0
  7  4  1  6  0  0  0
  7  1  1  0  0  0  0
  8 15  2  0  0  0  0
  9 10  1  0  0  0  0
 10  8  1  0  0  0  0
 11  7  1  0  0  0  0
 11  9  1  0  0  0  0
 12  2  1  0  0  0  0
 13  5  1  0  0  0  0
 13  3  2  0  0  0  0
 14  4  2  0  0  0  0
 16 12  1  0  0  0  0
 17 14  1  0  0  0  0
 18 17  1  0  0  0  0
 19 18  1  0  0  0  0
 20 21  1  0  0  0  0
 21 19  1  0  0  0  0
 23 22  1  6  0  0  0
 23 24  1  0  0  0  0
 23 21  1  0  0  0  0
 25 28  1  6  0  0  0
 25 13  1  0  0  0  0
 26 28  1  0  0  0  0
 27 28  2  0  0  0  0
 29 26  1  0  0  0  0
 30 29  1  1  0  0  0
 31 30  1  0  0  0  0
 32 33  1  0  0  0  0
 32 35  1  0  0  0  0
 33 31  2  0  0  0  0
 34 30  1  0  0  0  0
 35 34  1  0  0  0  0
 36 25  1  0  0  0  0
 37 38  1  0  0  0  0
 38 36  1  0  0  0  0
M  END
>  <MODEL>
3

>  <REMARK>
 VINA RESULT:      -8.5      3.006      5.304
  Name = 
  11 active torsions:
  status: ('A' for Active; 'I' for Inactive)
    1  A    between atoms: C_1  and  C_38
    2  A    between atoms: C_5  and  C_16
    3  A    between atoms: C_5  and  N_33
    4  A    between atoms: C_8  and  C_16
    5  A    between atoms: C_8  and  N_31
    6  A    between atoms: N_12  and  C_38
    7  A    between atoms: C_20  and  C_32
    8  A    between atoms: C_22  and  N_33
    9  A    between atoms: O_25  and  O_28
   10  A    between atoms: O_25  and  C_32
   11  A    between atoms: C_30  and  C_32
                            x       y       z     vdW  Elec       q    Type
                         _______ _______ _______ _____ _____    ______ ____

>  <TORSDO>
F 11

$$$$
=
 OpenBabel11042410343D

 38 41  0  0  1  0  0  0  0  0999 V2000
  186.0750  178.2380  145.2800 C   0  0  0  0  0  0  0  0  0  0  0  0
  187.0810  177.5460  145.8330 C   0  0  0  0  0  3  0  0  0  0  0  0
  182.0960  178.8010  142.0840 C   0  0  0  0  0  3  0  0  0  0  0  0
  187.1020  177.8330  142.9940 C   0  0  0  0  0  0  0  0  0  0  0  0
  184.4780  178.4840  141.8210 C   0  0  0  0  0  3  0  0  0  0  0  0
  182.2680  178.9280  143.4640 C   0  0  0  0  0  3  0  0  0  0  0  0
  186.0670  178.5990  143.8010 C   0  0  1  0  0  3  0  0  0  0  0  0
  184.9160  178.6270  146.0960 C   0  0  0  0  0  0  0  0  0  0  0  0
  183.5410  178.8230  144.0310 C   0  0  0  0  0  0  0  0  0  0  0  0
  183.6820  178.9350  145.4490 N   0  0  0  0  0  2  0  0  0  0  0  0
  184.6660  178.5840  143.2080 C   0  0  0  0  0  0  0  0  0  0  0  0
  188.2650  177.0990  145.0290 C   0  0  0  0  0  2  0  0  0  0  0  0
  183.1980  178.5700  141.2590 C   0  0  0  0  0  0  0  0  0  0  0  0
  187.4160  178.2430  141.8110 N   0  0  0  0  0  0  0  0  0  0  0  0
  184.9870  178.6570  147.3550 O   0  0  0  0  0  0  0  0  0  0  0  0
  187.8130  176.6710  143.6390 C   0  0  0  0  0  2  0  0  0  0  0  0
  188.3970  177.5940  140.9750 C   0  0  0  0  0  2  0  0  0  0  0  0
  188.5840  178.3820  139.6880 C   0  0  0  0  0  2  0  0  0  0  0  0
  188.3210  177.4920  138.4850 C   0  0  0  0  0  2  0  0  0  0  0  0
  188.7740  179.5320  137.5870 O   0  0  0  0  0  1  0  0  0  0  0  0
  188.4370  178.2620  137.2480 N   0  0  0  0  0  0  0  0  0  0  0  0
  189.9820  176.3380  136.8360 C   0  0  0  0  0  1  0  0  0  0  0  0
  189.5060  177.7220  136.3990 C   0  0  1  0  0  3  0  0  0  0  0  0
  189.0980  177.6900  135.0650 O   0  0  0  0  0  1  0  0  0  0  0  0
  183.0000  178.4590  139.7790 C   0  0  1  0  0  3  0  0  0  0  0  0
  183.4860  176.3210  138.5350 N   0  0  0  0  0  2  0  0  0  0  0  0
  181.5620  176.5480  139.8380 O   0  0  0  0  0  0  0  0  0  0  0  0
  182.6210  177.0660  139.3900 C   0  0  0  0  0  0  0  0  0  0  0  0
  183.1840  174.9560  138.1340 C   0  0  0  0  0  2  0  0  0  0  0  0
  184.2510  174.4440  137.1860 C   0  0  2  0  0  3  0  0  0  0  0  0
  184.9670  173.2590  137.7770 C   0  0  0  0  0  3  0  0  0  0  0  0
  186.6390  173.5700  136.0190 C   0  0  0  0  0  2  0  0  0  0  0  0
  186.1060  172.8410  137.2180 C   0  0  0  0  0  3  0  0  0  0  0  0
  185.2420  175.5720  136.8570 C   0  0  0  0  0  2  0  0  0  0  0  0
  186.5750  175.0860  136.2490 C   0  0  0  0  0  2  0  0  0  0  0  0
  182.0330  179.3720  139.3370 O   0  0  0  0  0  0  0  0  0  0  0  0
  181.7600  181.2950  138.4120 C   0  0  0  0  0  1  0  0  0  0  0  0
  182.7160  180.3350  138.7520 O   0  0  0  0  0  0  0  0  0  0  0  0
  1  2  2  0  0  0  0
  1  8  1  0  0  0  0
  3  6  1  0  0  0  0
  4 16  1  0  0  0  0
  5 11  2  0  0  0  0
  6  9  2  0  0  0  0
  7  4  1  6  0  0  0
  7  1  1  0  0  0  0
  8 15  2  0  0  0  0
  9 10  1  0  0  0  0
 10  8  1  0  0  0  0
 11  7  1  0  0  0  0
 11  9  1  0  0  0  0
 12  2  1  0  0  0  0
 13  5  1  0  0  0  0
 13  3  2  0  0  0  0
 14  4  2  0  0  0  0
 16 12  1  0  0  0  0
 17 14  1  0  0  0  0
 18 17  1  0  0  0  0
 19 18  1  0  0  0  0
 21 20  1  0  0  0  0
 21 19  1  0  0  0  0
 23 22  1  1  0  0  0
 23 21  1  0  0  0  0
 24 23  1  0  0  0  0
 25 36  1  1  0  0  0
 25 13  1  0  0  0  0
 26 28  1  0  0  0  0
 28 25  1  0  0  0  0
 28 27  2  0  0  0  0
 29 26  1  0  0  0  0
 30 31  1  0  0  0  0
 30 29  1  1  0  0  0
 32 35  1  0  0  0  0
 32 33  1  0  0  0  0
 33 31  2  0  0  0  0
 34 30  1  0  0  0  0
 35 34  1  0  0  0  0
 37 38  1  0  0  0  0
 38 36  1  0  0  0  0
M  END
>  <MODEL>
4

>  <REMARK>
 VINA RESULT:      -8.3      2.163      3.708
  Name = 
  11 active torsions:
  status: ('A' for Active; 'I' for Inactive)
    1  A    between atoms: C_1  and  C_38
    2  A    between atoms: C_5  and  C_16
    3  A    between atoms: C_5  and  N_33
    4  A    between atoms: C_8  and  C_16
    5  A    between atoms: C_8  and  N_31
    6  A    between atoms: N_12  and  C_38
    7  A    between atoms: C_20  and  C_32
    8  A    between atoms: C_22  and  N_33
    9  A    between atoms: O_25  and  O_28
   10  A    between atoms: O_25  and  C_32
   11  A    between atoms: C_30  and  C_32
                            x       y       z     vdW  Elec       q    Type
                         _______ _______ _______ _____ _____    ______ ____

>  <TORSDO>
F 11

$$$$
=
 OpenBabel11042410343D

 38 41  0  0  1  0  0  0  0  0999 V2000
  186.3340  178.2400  145.3780 C   0  0  0  0  0  0  0  0  0  0  0  0
  187.3610  177.5250  145.8610 C   0  0  0  0  0  3  0  0  0  0  0  0
  182.1390  178.8810  142.4860 C   0  0  0  0  0  3  0  0  0  0  0  0
  187.1740  177.7860  143.0260 C   0  0  0  0  0  0  0  0  0  0  0  0
  184.4850  178.4980  142.0480 C   0  0  0  0  0  3  0  0  0  0  0  0
  182.4190  179.0150  143.8480 C   0  0  0  0  0  3  0  0  0  0  0  0
  186.2230  178.5880  143.9000 C   0  0  1  0  0  3  0  0  0  0  0  0
  185.2510  178.6660  146.2750 C   0  0  0  0  0  0  0  0  0  0  0  0
  183.7280  178.8820  144.3180 C   0  0  0  0  0  0  0  0  0  0  0  0
  183.9800  179.0020  145.7200 N   0  0  0  0  0  2  0  0  0  0  0  0
  184.7810  178.6050  143.4150 C   0  0  0  0  0  0  0  0  0  0  0  0
  188.4670  177.0390  144.9750 C   0  0  0  0  0  2  0  0  0  0  0  0
  183.1700  178.6140  141.5830 C   0  0  0  0  0  0  0  0  0  0  0  0
  187.4070  178.1780  141.8180 N   0  0  0  0  0  0  0  0  0  0  0  0
  185.4180  178.7050  147.5240 O   0  0  0  0  0  0  0  0  0  0  0  0
  187.9010  176.6120  143.6270 C   0  0  0  0  0  2  0  0  0  0  0  0
  188.3050  177.4950  140.9170 C   0  0  0  0  0  2  0  0  0  0  0  0
  189.7380  177.9220  141.1900 C   0  0  0  0  0  2  0  0  0  0  0  0
  190.6950  177.1460  140.3020 C   0  0  0  0  0  2  0  0  0  0  0  0
  190.0110  178.2520  138.4350 O   0  0  0  0  0  1  0  0  0  0  0  0
  190.1390  177.0060  138.9570 N   0  0  0  0  0  0  0  0  0  0  0  0
  192.5110  176.6760  138.2330 C   0  0  0  0  0  1  0  0  0  0  0  0
  191.0520  176.2460  138.0950 C   0  0  1  0  0  3  0  0  0  0  0  0
  190.9290  174.8780  138.3430 O   0  0  0  0  0  1  0  0  0  0  0  0
  182.8570  178.4950  140.1230 C   0  0  1  0  0  3  0  0  0  0  0  0
  184.8430  177.9120  138.6840 N   0  0  0  0  0  2  0  0  0  0  0  0
  184.2640  180.1360  139.0960 O   0  0  0  0  0  0  0  0  0  0  0  0
  184.0250  178.9120  139.2870 C   0  0  0  0  0  0  0  0  0  0  0  0
  185.9830  178.2520  137.8470 C   0  0  0  0  0  2  0  0  0  0  0  0
  186.1640  177.2040  136.7650 C   0  0  2  0  0  3  0  0  0  0  0  0
  184.8500  176.5510  136.4290 C   0  0  0  0  0  3  0  0  0  0  0  0
  186.1570  174.8540  135.2480 C   0  0  0  0  0  2  0  0  0  0  0  0
  184.8480  175.4290  135.7030 C   0  0  0  0  0  3  0  0  0  0  0  0
  187.1940  176.1580  137.2190 C   0  0  0  0  0  2  0  0  0  0  0  0
  187.1640  174.8460  136.4050 C   0  0  0  0  0  2  0  0  0  0  0  0
  182.4660  177.1890  139.8030 O   0  0  0  0  0  0  0  0  0  0  0  0
  181.1610  176.3970  138.2870 C   0  0  0  0  0  1  0  0  0  0  0  0
  181.2350  177.3030  139.3470 O   0  0  0  0  0  0  0  0  0  0  0  0
  1  2  2  0  0  0  0
  1  8  1  0  0  0  0
  3  6  1  0  0  0  0
  4 16  1  0  0  0  0
  5 11  2  0  0  0  0
  6  9  2  0  0  0  0
  7  4  1  6  0  0  0
  7  1  1  0  0  0  0
  8 15  2  0  0  0  0
  9 10  1  0  0  0  0
 10  8  1  0  0  0  0
 11  7  1  0  0  0  0
 11  9  1  0  0  0  0
 12  2  1  0  0  0  0
 13  5  1  0  0  0  0
 13  3  2  0  0  0  0
 14  4  2  0  0  0  0
 16 12  1  0  0  0  0
 17 18  1  0  0  0  0
 17 14  1  0  0  0  0
 19 18  1  0  0  0  0
 20 21  1  0  0  0  0
 21 19  1  0  0  0  0
 23 22  1  1  0  0  0
 23 24  1  0  0  0  0
 23 21  1  0  0  0  0
 25 28  1  6  0  0  0
 25 13  1  0  0  0  0
 26 28  1  0  0  0  0
 27 28  2  0  0  0  0
 29 26  1  0  0  0  0
 30 34  1  0  0  0  0
 30 29  1  1  0  0  0
 31 30  1  0  0  0  0
 32 33  1  0  0  0  0
 32 35  1  0  0  0  0
 33 31  2  0  0  0  0
 35 34  1  0  0  0  0
 36 25  1  0  0  0  0
 37 38  1  0  0  0  0
 38 36  1  0  0  0  0
M  END
>  <MODEL>
5

>  <REMARK>
 VINA RESULT:      -8.0      1.678      2.405
  Name = 
  11 active torsions:
  status: ('A' for Active; 'I' for Inactive)
    1  A    between atoms: C_1  and  C_38
    2  A    between atoms: C_5  and  C_16
    3  A    between atoms: C_5  and  N_33
    4  A    between atoms: C_8  and  C_16
    5  A    between atoms: C_8  and  N_31
    6  A    between atoms: N_12  and  C_38
    7  A    between atoms: C_20  and  C_32
    8  A    between atoms: C_22  and  N_33
    9  A    between atoms: O_25  and  O_28
   10  A    between atoms: O_25  and  C_32
   11  A    between atoms: C_30  and  C_32
                            x       y       z     vdW  Elec       q    Type
                         _______ _______ _______ _____ _____    ______ ____

>  <TORSDO>
F 11

$$$$
=
 OpenBabel11042410343D

 38 41  0  0  1  0  0  0  0  0999 V2000
  190.8130  176.7700  145.8460 C   0  0  0  0  0  0  0  0  0  0  0  0
  191.6820  175.8760  145.3530 C   0  0  0  0  0  3  0  0  0  0  0  0
  186.0880  178.5580  146.7710 C   0  0  0  0  0  3  0  0  0  0  0  0
  189.8240  177.0320  143.5230 C   0  0  0  0  0  0  0  0  0  0  0  0
  187.4270  178.1850  144.7920 C   0  0  0  0  0  3  0  0  0  0  0  0
  187.1870  178.2360  147.5710 C   0  0  0  0  0  3  0  0  0  0  0  0
  189.8890  177.5750  144.9400 C   0  0  1  0  0  3  0  0  0  0  0  0
  190.6980  176.9590  147.2990 C   0  0  0  0  0  0  0  0  0  0  0  0
  188.4060  177.8790  146.9880 C   0  0  0  0  0  0  0  0  0  0  0  0
  189.5060  177.5330  147.8340 N   0  0  0  0  0  2  0  0  0  0  0  0
  188.5340  177.8360  145.5800 C   0  0  0  0  0  0  0  0  0  0  0  0
  191.8060  175.6270  143.8810 C   0  0  0  0  0  2  0  0  0  0  0  0
  186.2020  178.5250  145.3790 C   0  0  0  0  0  0  0  0  0  0  0  0
  189.3340  177.7700  142.5830 N   0  0  0  0  0  0  0  0  0  0  0  0
  191.6190  176.5900  148.0780 O   0  0  0  0  0  0  0  0  0  0  0  0
  190.4300  175.6840  143.2300 C   0  0  0  0  0  2  0  0  0  0  0  0
  189.2440  177.3520  141.2040 C   0  0  0  0  0  2  0  0  0  0  0  0
  188.6420  178.4660  140.3630 C   0  0  0  0  0  2  0  0  0  0  0  0
  189.0100  178.2760  138.9010 C   0  0  0  0  0  2  0  0  0  0  0  0
  188.2910  179.6180  137.2110 O   0  0  0  0  0  1  0  0  0  0  0  0
  187.8800  178.6300  138.0440 N   0  0  0  0  0  0  0  0  0  0  0  0
  186.5950  177.8730  136.0350 C   0  0  0  0  0  1  0  0  0  0  0  0
  187.4750  177.4830  137.2210 C   0  0  1  0  0  3  0  0  0  0  0  0
  188.5970  176.7830  136.7760 O   0  0  0  0  0  1  0  0  0  0  0  0
  185.0210  178.8940  144.5350 C   0  0  1  0  0  3  0  0  0  0  0  0
  185.0360  179.3840  142.0630 N   0  0  0  0  0  2  0  0  0  0  0  0
  185.5460  177.2550  142.8730 O   0  0  0  0  0  0  0  0  0  0  0  0
  185.2090  178.4450  143.1210 C   0  0  0  0  0  0  0  0  0  0  0  0
  185.2210  179.0150  140.6680 C   0  0  0  0  0  2  0  0  0  0  0  0
  183.9890  179.3860  139.8640 C   0  0  2  0  0  3  0  0  0  0  0  0
  182.7350  179.0740  140.6350 C   0  0  0  0  0  3  0  0  0  0  0  0
  181.5300  179.3890  138.5300 C   0  0  0  0  0  2  0  0  0  0  0  0
  181.5610  179.0780  139.9980 C   0  0  0  0  0  3  0  0  0  0  0  0
  184.0010  178.6440  138.5190 C   0  0  0  0  0  2  0  0  0  0  0  0
  182.6340  178.6130  137.8010 C   0  0  0  0  0  2  0  0  0  0  0  0
  183.8420  178.3570  145.0680 O   0  0  0  0  0  0  0  0  0  0  0  0
  181.9950  178.7050  144.0210 C   0  0  0  0  0  1  0  0  0  0  0  0
  182.9290  179.2880  144.8810 O   0  0  0  0  0  0  0  0  0  0  0  0
  1  8  1  0  0  0  0
  2  1  2  0  0  0  0
  3  6  1  0  0  0  0
  5 13  1  0  0  0  0
  5 11  2  0  0  0  0
  7  4  1  6  0  0  0
  7 11  1  0  0  0  0
  7  1  1  0  0  0  0
  8 10  1  0  0  0  0
  8 15  2  0  0  0  0
  9  6  2  0  0  0  0
  9 10  1  0  0  0  0
 11  9  1  0  0  0  0
 12  2  1  0  0  0  0
 13  3  2  0  0  0  0
 14  4  2  0  0  0  0
 16  4  1  0  0  0  0
 16 12  1  0  0  0  0
 17 14  1  0  0  0  0
 18 17  1  0  0  0  0
 19 18  1  0  0  0  0
 20 21  1  0  0  0  0
 21 19  1  0  0  0  0
 23 22  1  6  0  0  0
 23 21  1  0  0  0  0
 24 23  1  0  0  0  0
 25 28  1  6  0  0  0
 25 36  1  0  0  0  0
 25 13  1  0  0  0  0
 26 28  1  0  0  0  0
 27 28  2  0  0  0  0
 29 26  1  0  0  0  0
 30 31  1  0  0  0  0
 30 29  1  1  0  0  0
 32 33  1  0  0  0  0
 33 31  2  0  0  0  0
 34 30  1  0  0  0  0
 35 34  1  0  0  0  0
 35 32  1  0  0  0  0
 37 38  1  0  0  0  0
 38 36  1  0  0  0  0
M  END
>  <MODEL>
6

>  <REMARK>
 VINA RESULT:      -8.0      2.431      5.638
  Name = 
  11 active torsions:
  status: ('A' for Active; 'I' for Inactive)
    1  A    between atoms: C_1  and  C_38
    2  A    between atoms: C_5  and  C_16
    3  A    between atoms: C_5  and  N_33
    4  A    between atoms: C_8  and  C_16
    5  A    between atoms: C_8  and  N_31
    6  A    between atoms: N_12  and  C_38
    7  A    between atoms: C_20  and  C_32
    8  A    between atoms: C_22  and  N_33
    9  A    between atoms: O_25  and  O_28
   10  A    between atoms: O_25  and  C_32
   11  A    between atoms: C_30  and  C_32
                            x       y       z     vdW  Elec       q    Type
                         _______ _______ _______ _____ _____    ______ ____

>  <TORSDO>
F 11

$$$$
=
 OpenBabel11042410343D

 38 41  0  0  1  0  0  0  0  0999 V2000
  186.9450  177.8800  146.7320 C   0  0  0  0  0  0  0  0  0  0  0  0
  185.9200  178.6290  147.1620 C   0  0  0  0  0  3  0  0  0  0  0  0
  191.0590  176.9740  143.7950 C   0  0  0  0  0  3  0  0  0  0  0  0
  186.0230  178.0430  144.3720 C   0  0  0  0  0  0  0  0  0  0  0  0
  188.6930  177.2650  143.3940 C   0  0  0  0  0  3  0  0  0  0  0  0
  190.8250  176.9950  145.1720 C   0  0  0  0  0  3  0  0  0  0  0  0
  187.0160  177.3640  145.3000 C   0  0  1  0  0  3  0  0  0  0  0  0
  188.0640  177.5780  147.6360 C   0  0  0  0  0  0  0  0  0  0  0  0
  189.5290  177.1610  145.6660 C   0  0  0  0  0  0  0  0  0  0  0  0
  189.3230  177.2010  147.0810 N   0  0  0  0  0  2  0  0  0  0  0  0
  188.4420  177.3130  144.7730 C   0  0  0  0  0  0  0  0  0  0  0  0
  184.7770  178.9900  146.2630 C   0  0  0  0  0  2  0  0  0  0  0  0
  189.9960  177.1180  142.9020 C   0  0  0  0  0  0  0  0  0  0  0  0
  185.7600  177.5090  143.2260 N   0  0  0  0  0  0  0  0  0  0  0  0
  187.9370  177.6830  148.8860 O   0  0  0  0  0  0  0  0  0  0  0  0
  185.2920  179.2670  144.8570 C   0  0  0  0  0  2  0  0  0  0  0  0
  184.8210  178.0680  142.2820 C   0  0  0  0  0  2  0  0  0  0  0  0
  185.5700  178.7530  141.1500 C   0  0  0  0  0  2  0  0  0  0  0  0
  184.7750  178.6530  139.8600 C   0  0  0  0  0  2  0  0  0  0  0  0
  184.1740  180.5960  138.8400 O   0  0  0  0  0  1  0  0  0  0  0  0
  183.7760  179.7190  139.7950 N   0  0  0  0  0  0  0  0  0  0  0  0
  181.6340  178.6920  140.5810 C   0  0  0  0  0  1  0  0  0  0  0  0
  182.4690  179.1810  139.3990 C   0  0  1  0  0  3  0  0  0  0  0  0
  181.7540  180.1300  138.6660 O   0  0  0  0  0  1  0  0  0  0  0  0
  190.2610  177.0700  141.4280 C   0  0  1  0  0  3  0  0  0  0  0  0
  188.7630  177.3490  139.4200 N   0  0  0  0  0  2  0  0  0  0  0  0
  188.7610  178.9140  141.1520 O   0  0  0  0  0  0  0  0  0  0  0  0
  189.2300  177.8470  140.6720 C   0  0  0  0  0  0  0  0  0  0  0  0
  187.7510  178.0480  138.6430 C   0  0  0  0  0  2  0  0  0  0  0  0
  187.4470  177.2780  137.3720 C   0  0  2  0  0  3  0  0  0  0  0  0
  188.5760  176.3420  137.0330 C   0  0  0  0  0  3  0  0  0  0  0  0
  187.5340  176.1090  134.8320 C   0  0  0  0  0  2  0  0  0  0  0  0
  188.6160  175.7820  135.8200 C   0  0  0  0  0  3  0  0  0  0  0  0
  187.1860  178.2580  136.2180 C   0  0  0  0  0  2  0  0  0  0  0  0
  187.2710  177.6200  134.8140 C   0  0  0  0  0  2  0  0  0  0  0  0
  191.5450  177.5480  141.1390 O   0  0  0  0  0  0  0  0  0  0  0  0
  193.1710  177.1230  139.7960 C   0  0  0  0  0  1  0  0  0  0  0  0
  191.7790  177.1660  139.9000 O   0  0  0  0  0  0  0  0  0  0  0  0
  1  2  2  0  0  0  0
  1  8  1  0  0  0  0
  3  6  1  0  0  0  0
  4 16  1  0  0  0  0
  5 11  2  0  0  0  0
  6  9  2  0  0  0  0
  7  4  1  6  0  0  0
  7  1  1  0  0  0  0
  8 15  2  0  0  0  0
  9 10  1  0  0  0  0
 10  8  1  0  0  0  0
 11  7  1  0  0  0  0
 11  9  1  0  0  0  0
 12  2  1  0  0  0  0
 13  5  1  0  0  0  0
 13  3  2  0  0  0  0
 14  4  2  0  0  0  0
 16 12  1  0  0  0  0
 17 14  1  0  0  0  0
 18 17  1  0  0  0  0
 19 18  1  0  0  0  0
 20 21  1  0  0  0  0
 21 19  1  0  0  0  0
 23 21  1  0  0  0  0
 23 22  1  1  0  0  0
 24 23  1  0  0  0  0
 25 28  1  6  0  0  0
 25 13  1  0  0  0  0
 26 28  1  0  0  0  0
 28 27  2  0  0  0  0
 29 26  1  0  0  0  0
 30 29  1  1  0  0  0
 31 30  1  0  0  0  0
 32 33  1  0  0  0  0
 33 31  2  0  0  0  0
 34 30  1  0  0  0  0
 35 32  1  0  0  0  0
 35 34  1  0  0  0  0
 36 25  1  0  0  0  0
 37 38  1  0  0  0  0
 38 36  1  0  0  0  0
M  END
>  <MODEL>
7

>  <REMARK>
 VINA RESULT:      -7.9      1.983      6.274
  Name = 
  11 active torsions:
  status: ('A' for Active; 'I' for Inactive)
    1  A    between atoms: C_1  and  C_38
    2  A    between atoms: C_5  and  C_16
    3  A    between atoms: C_5  and  N_33
    4  A    between atoms: C_8  and  C_16
    5  A    between atoms: C_8  and  N_31
    6  A    between atoms: N_12  and  C_38
    7  A    between atoms: C_20  and  C_32
    8  A    between atoms: C_22  and  N_33
    9  A    between atoms: O_25  and  O_28
   10  A    between atoms: O_25  and  C_32
   11  A    between atoms: C_30  and  C_32
                            x       y       z     vdW  Elec       q    Type
                         _______ _______ _______ _____ _____    ______ ____

>  <TORSDO>
F 11

$$$$
=
 OpenBabel11042410343D

 38 41  0  0  1  0  0  0  0  0999 V2000
  188.5980  177.2820  146.5470 C   0  0  0  0  0  0  0  0  0  0  0  0
  188.2120  177.7350  147.7480 C   0  0  0  0  0  3  0  0  0  0  0  0
  189.7230  177.8460  141.5680 C   0  0  0  0  0  3  0  0  0  0  0  0
  186.4360  178.1710  145.5580 C   0  0  0  0  0  0  0  0  0  0  0  0
  187.7210  178.0370  142.9090 C   0  0  0  0  0  3  0  0  0  0  0  0
  190.4180  177.3630  142.6800 C   0  0  0  0  0  3  0  0  0  0  0  0
  187.6670  177.3070  145.3420 C   0  0  1  0  0  3  0  0  0  0  0  0
  189.9700  176.7900  146.3550 C   0  0  0  0  0  0  0  0  0  0  0  0
  189.7720  177.2250  143.9110 C   0  0  0  0  0  0  0  0  0  0  0  0
  190.5150  176.7490  145.0370 N   0  0  0  0  0  2  0  0  0  0  0  0
  188.4090  177.5770  144.0420 C   0  0  0  0  0  0  0  0  0  0  0  0
  186.8350  178.2790  147.9790 C   0  0  0  0  0  2  0  0  0  0  0  0
  188.3760  178.1920  141.6810 C   0  0  0  0  0  0  0  0  0  0  0  0
  185.4280  178.0490  144.7610 N   0  0  0  0  0  0  0  0  0  0  0  0
  190.6790  176.4390  147.3360 O   0  0  0  0  0  0  0  0  0  0  0  0
  186.3830  179.0750  146.7620 C   0  0  0  0  0  2  0  0  0  0  0  0
  184.2090  178.8110  144.8930 C   0  0  0  0  0  2  0  0  0  0  0  0
  183.3320  178.6020  143.6690 C   0  0  0  0  0  2  0  0  0  0  0  0
  181.8990  179.0020  143.9760 C   0  0  0  0  0  2  0  0  0  0  0  0
  181.9790  178.9550  141.7030 O   0  0  0  0  0  1  0  0  0  0  0  0
  181.1830  179.3150  142.7400 N   0  0  0  0  0  0  0  0  0  0  0  0
  179.9380  177.5390  141.4940 C   0  0  0  0  0  1  0  0  0  0  0  0
  179.9410  178.5380  142.6490 C   0  0  1  0  0  3  0  0  0  0  0  0
  179.6890  177.8800  143.8540 O   0  0  0  0  0  1  0  0  0  0  0  0
  187.6390  178.6870  140.4740 C   0  0  1  0  0  3  0  0  0  0  0  0
  188.2990  176.8150  138.9190 N   0  0  0  0  0  2  0  0  0  0  0  0
  188.7980  179.0390  138.4100 O   0  0  0  0  0  0  0  0  0  0  0  0
  188.2900  178.2100  139.2140 C   0  0  0  0  0  0  0  0  0  0  0  0
  188.9000  176.2900  137.7030 C   0  0  0  0  0  2  0  0  0  0  0  0
  190.2660  175.7040  138.0090 C   0  0  2  0  0  3  0  0  0  0  0  0
  191.3340  176.7580  137.9030 C   0  0  0  0  0  3  0  0  0  0  0  0
  192.9510  174.9230  137.9390 C   0  0  0  0  0  2  0  0  0  0  0  0
  192.6170  176.3840  137.8710 C   0  0  0  0  0  3  0  0  0  0  0  0
  190.5570  174.5340  137.0570 C   0  0  0  0  0  2  0  0  0  0  0  0
  192.0450  174.1280  136.9900 C   0  0  0  0  0  2  0  0  0  0  0  0
  186.2960  178.2890  140.5130 O   0  0  0  0  0  0  0  0  0  0  0  0
  184.7170  178.2790  139.0530 C   0  0  0  0  0  1  0  0  0  0  0  0
  185.6800  179.0850  139.6640 O   0  0  0  0  0  0  0  0  0  0  0  0
  1  2  2  0  0  0  0
  2 12  1  0  0  0  0
  3 13  2  0  0  0  0
  3  6  1  0  0  0  0
  4 16  1  0  0  0  0
  5 11  2  0  0  0  0
  6  9  2  0  0  0  0
  7 11  1  6  0  0  0
  7  4  1  0  0  0  0
  7  1  1  0  0  0  0
  8  1  1  0  0  0  0
  8 15  2  0  0  0  0
  9 11  1  0  0  0  0
  9 10  1  0  0  0  0
 10  8  1  0  0  0  0
 13  5  1  0  0  0  0
 14 17  1  0  0  0  0
 14  4  2  0  0  0  0
 16 12  1  0  0  0  0
 18 19  1  0  0  0  0
 18 17  1  0  0  0  0
 20 21  1  0  0  0  0
 21 19  1  0  0  0  0
 23 22  1  6  0  0  0
 23 21  1  0  0  0  0
 23 24  1  0  0  0  0
 25 28  1  6  0  0  0
 25 36  1  0  0  0  0
 25 13  1  0  0  0  0
 26 28  1  0  0  0  0
 27 28  2  0  0  0  0
 29 26  1  0  0  0  0
 30 29  1  6  0  0  0
 31 30  1  0  0  0  0
 33 31  2  0  0  0  0
 33 32  1  0  0  0  0
 34 30  1  0  0  0  0
 35 34  1  0  0  0  0
 35 32  1  0  0  0  0
 37 38  1  0  0  0  0
 38 36  1  0  0  0  0
M  END
>  <MODEL>
8

>  <REMARK>
 VINA RESULT:      -7.9      2.362      6.102
  Name = 
  11 active torsions:
  status: ('A' for Active; 'I' for Inactive)
    1  A    between atoms: C_1  and  C_38
    2  A    between atoms: C_5  and  C_16
    3  A    between atoms: C_5  and  N_33
    4  A    between atoms: C_8  and  C_16
    5  A    between atoms: C_8  and  N_31
    6  A    between atoms: N_12  and  C_38
    7  A    between atoms: C_20  and  C_32
    8  A    between atoms: C_22  and  N_33
    9  A    between atoms: O_25  and  O_28
   10  A    between atoms: O_25  and  C_32
   11  A    between atoms: C_30  and  C_32
                            x       y       z     vdW  Elec       q    Type
                         _______ _______ _______ _____ _____    ______ ____

>  <TORSDO>
F 11

$$$$
=
 OpenBabel11042410343D

 38 41  0  0  1  0  0  0  0  0999 V2000
  185.9450  178.2420  145.2520 C   0  0  0  0  0  0  0  0  0  0  0  0
  186.9420  177.5250  145.7900 C   0  0  0  0  0  3  0  0  0  0  0  0
  181.9210  178.8950  142.1290 C   0  0  0  0  0  3  0  0  0  0  0  0
  186.9160  177.7960  142.9500 C   0  0  0  0  0  0  0  0  0  0  0  0
  184.2880  178.5120  141.8230 C   0  0  0  0  0  3  0  0  0  0  0  0
  182.1230  179.0240  143.5050 C   0  0  0  0  0  3  0  0  0  0  0  0
  185.9180  178.5950  143.7710 C   0  0  1  0  0  3  0  0  0  0  0  0
  184.8120  178.6660  146.0880 C   0  0  0  0  0  0  0  0  0  0  0  0
  183.4030  178.8890  144.0480 C   0  0  0  0  0  0  0  0  0  0  0  0
  183.5750  179.0040  145.4630 N   0  0  0  0  0  2  0  0  0  0  0  0
  184.5060  178.6150  143.2050 C   0  0  0  0  0  0  0  0  0  0  0  0
  188.0970  177.0420  144.9660 C   0  0  0  0  0  2  0  0  0  0  0  0
  183.0010  178.6300  141.2840 C   0  0  0  0  0  0  0  0  0  0  0  0
  187.2180  178.1920  141.7590 N   0  0  0  0  0  0  0  0  0  0  0  0
  184.9080  178.7000  147.3450 O   0  0  0  0  0  0  0  0  0  0  0  0
  187.6080  176.6200  143.5880 C   0  0  0  0  0  2  0  0  0  0  0  0
  188.1660  177.5120  140.9070 C   0  0  0  0  0  2  0  0  0  0  0  0
  189.4310  178.3430  140.7730 C   0  0  0  0  0  2  0  0  0  0  0  0
  190.6440  177.5190  141.1700 C   0  0  0  0  0  2  0  0  0  0  0  0
  190.5750  175.6260  142.4300 O   0  0  0  0  0  1  0  0  0  0  0  0
  190.4700  176.9760  142.5160 N   0  0  0  0  0  0  0  0  0  0  0  0
  191.2960  178.8780  143.9150 C   0  0  0  0  0  1  0  0  0  0  0  0
  191.5310  177.4560  143.4100 C   0  0  1  0  0  3  0  0  0  0  0  0
  191.6910  176.5840  144.4880 O   0  0  0  0  0  1  0  0  0  0  0  0
  182.7720  178.5170  139.8090 C   0  0  1  0  0  3  0  0  0  0  0  0
  183.1640  176.4760  138.3810 N   0  0  0  0  0  2  0  0  0  0  0  0
  181.5180  176.4920  140.0370 O   0  0  0  0  0  0  0  0  0  0  0  0
  182.4290  177.1130  139.4240 C   0  0  0  0  0  0  0  0  0  0  0  0
  182.8910  175.1080  137.9720 C   0  0  0  0  0  2  0  0  0  0  0  0
  184.1830  174.3140  137.9170 C   0  0  2  0  0  3  0  0  0  0  0  0
  185.2530  175.0850  137.1920 C   0  0  0  0  0  3  0  0  0  0  0  0
  186.5110  172.9890  137.1090 C   0  0  0  0  0  2  0  0  0  0  0  0
  186.3650  174.4530  136.8090 C   0  0  0  0  0  3  0  0  0  0  0  0
  183.9330  172.9580  137.2380 C   0  0  0  0  0  2  0  0  0  0  0  0
  185.2160  172.2450  136.7580 C   0  0  0  0  0  2  0  0  0  0  0  0
  181.7660  179.3990  139.3930 O   0  0  0  0  0  0  0  0  0  0  0  0
  181.6290  181.2910  138.3790 C   0  0  0  0  0  1  0  0  0  0  0  0
  182.2910  180.0620  138.3820 O   0  0  0  0  0  0  0  0  0  0  0  0
  1  2  2  0  0  0  0
  1  8  1  0  0  0  0
  3  6  1  0  0  0  0
  4 16  1  0  0  0  0
  5 11  2  0  0  0  0
  6  9  2  0  0  0  0
  7  4  1  6  0  0  0
  7  1  1  0  0  0  0
  8 15  2  0  0  0  0
  9 10  1  0  0  0  0
 10  8  1  0  0  0  0
 11  7  1  0  0  0  0
 11  9  1  0  0  0  0
 12  2  1  0  0  0  0
 13  5  1  0  0  0  0
 13  3  2  0  0  0  0
 14  4  2  0  0  0  0
 16 12  1  0  0  0  0
 17 14  1  0  0  0  0
 18 17  1  0  0  0  0
 18 19  1  0  0  0  0
 19 21  1  0  0  0  0
 20 21  1  0  0  0  0
 21 23  1  0  0  0  0
 23 22  1  1  0  0  0
 23 24  1  0  0  0  0
 25 36  1  1  0  0  0
 25 13  1  0  0  0  0
 26 28  1  0  0  0  0
 28 25  1  0  0  0  0
 28 27  2  0  0  0  0
 29 26  1  0  0  0  0
 30 29  1  6  0  0  0
 31 30  1  0  0  0  0
 33 32  1  0  0  0  0
 33 31  2  0  0  0  0
 34 30  1  0  0  0  0
 35 32  1  0  0  0  0
 35 34  1  0  0  0  0
 37 38  1  0  0  0  0
 38 36  1  0  0  0  0
M  END
>  <MODEL>
9

>  <REMARK>
 VINA RESULT:      -7.9      1.851      2.619
  Name = 
  11 active torsions:
  status: ('A' for Active; 'I' for Inactive)
    1  A    between atoms: C_1  and  C_38
    2  A    between atoms: C_5  and  C_16
    3  A    between atoms: C_5  and  N_33
    4  A    between atoms: C_8  and  C_16
    5  A    between atoms: C_8  and  N_31
    6  A    between atoms: N_12  and  C_38
    7  A    between atoms: C_20  and  C_32
    8  A    between atoms: C_22  and  N_33
    9  A    between atoms: O_25  and  O_28
   10  A    between atoms: O_25  and  C_32
   11  A    between atoms: C_30  and  C_32
                            x       y       z     vdW  Elec       q    Type
                         _______ _______ _______ _____ _____    ______ ____

>  <TORSDO>
F 11

$$$$
