=
 OpenBabel11032419433D

 45 49  0  0  1  0  0  0  0  0999 V2000
  188.7270  177.4450  138.2110 C   0  0  2  0  0  3  0  0  0  0  0  0
  189.0410  175.4020  135.8480 F   0  0  0  0  0  0  0  0  0  0  0  0
  194.0200  176.8920  139.7460 N   0  0  0  0  0  1  0  0  0  0  0  0
  191.3510  175.6400  136.0180 N   0  0  0  0  0  0  0  0  0  0  0  0
  194.3810  175.8230  137.5690 N   0  0  0  0  0  0  0  0  0  0  0  0
  189.8360  176.4160  137.9010 C   0  0  2  0  0  3  0  0  0  0  0  0
  191.1410  176.7490  138.6050 C   0  0  0  0  0  3  0  0  0  0  0  0
  193.6330  175.4440  136.5340 N   0  0  0  0  0  2  0  0  0  0  0  0
  190.0370  176.2090  136.3650 C   0  0  2  0  0  3  0  0  0  0  0  0
  193.5750  176.4070  138.4840 C   0  0  0  0  0  0  0  0  0  0  0  0
  192.3640  175.7910  136.8120 C   0  0  0  0  0  0  0  0  0  0  0  0
  192.2790  176.3770  138.0370 C   0  0  0  0  0  0  0  0  0  0  0  0
  188.9520  179.7870  137.5250 O   0  0  0  0  0  1  0  0  0  0  0  0
  188.6000  178.5030  137.0900 C   0  0  2  0  0  3  0  0  0  0  0  0
  187.1720  178.5350  136.5740 C   0  0  0  0  0  2  0  0  0  0  0  0
  186.3830  177.5080  137.2320 N   0  0  0  0  0  2  0  0  0  0  0  0
  184.5250  177.8660  138.7340 C   0  0  1  0  0  3  0  0  0  0  0  0
  184.0860  176.8810  137.6690 C   0  0  0  0  0  2  0  0  0  0  0  0
  185.0240  178.0130  137.3110 C   0  0  2  0  0  3  0  0  0  0  0  0
  183.4170  178.8720  138.9630 C   0  0  0  0  0  2  0  0  0  0  0  0
  182.4290  178.3050  139.8680 N   0  0  0  0  0  2  0  0  0  0  0  0
  183.7160  178.7560  143.3360 C   0  0  0  0  0  3  0  0  0  0  0  0
  183.6730  178.5360  141.9550 C   0  0  0  0  0  3  0  0  0  0  0  0
  181.3050  178.9780  143.3770 C   0  0  0  0  0  3  0  0  0  0  0  0
  182.4470  178.5340  141.2790 C   0  0  0  0  0  0  0  0  0  0  0  0
  181.2610  178.7570  141.9970 C   0  0  0  0  0  3  0  0  0  0  0  0
  182.5320  178.9770  144.0470 C   0  0  0  0  0  3  0  0  0  0  0  0
  188.3160  177.6650  140.6360 C   0  0  0  0  0  3  0  0  0  0  0  0
  188.9780  178.0760  139.5530 C   0  0  0  0  0  3  0  0  0  0  0  0
  188.5610  178.2870  141.9710 C   0  0  0  0  0  2  0  0  0  0  0  0
  188.8710  177.2200  143.0050 C   0  0  0  0  0  2  0  0  0  0  0  0
  188.9820  177.8650  144.3920 C   0  0  1  0  0  3  0  0  0  0  0  0
  188.2830  177.7560  146.6760 C   0  0  0  0  0  2  0  0  0  0  0  0
  187.9850  177.2930  145.3220 N   0  0  0  0  0  0  0  0  0  0  0  0
  185.9110  177.9380  146.3460 C   0  0  0  0  0  2  0  0  0  0  0  0
  186.6530  177.8280  145.0380 C   0  0  0  0  0  2  0  0  0  0  0  0
  186.9940  178.1790  147.3570 C   0  0  0  0  0  2  0  0  0  0  0  0
  190.4250  177.6600  144.9190 C   0  0  2  0  0  3  0  0  0  0  0  0
  191.4930  178.3390  144.0570 C   0  0  0  0  0  2  0  0  0  0  0  0
  191.3140  179.8490  144.0140 C   0  0  0  0  0  1  0  0  0  0  0  0
  190.7490  176.2430  145.0590 N   0  0  0  0  0  2  0  0  0  0  0  0
  192.0220  176.1550  145.7570 C   0  0  0  0  0  2  0  0  0  0  0  0
  191.4370  174.9540  147.7320 O   0  0  0  0  0  0  0  0  0  0  0  0
  191.7880  176.0530  147.2250 C   0  0  0  0  0  0  0  0  0  0  0  0
  191.9890  177.1600  148.0400 O   0  0  0  0  0  1  0  0  0  0  0  0
  1 29  1  1  0  0  0
  4  9  1  0  0  0  0
  4 11  2  0  0  0  0
  5 10  2  0  0  0  0
  6  1  1  6  0  0  0
  6  7  1  0  0  0  0
  8 11  1  0  0  0  0
  8  5  1  0  0  0  0
  9  2  1  1  0  0  0
  9  6  1  0  0  0  0
 10  3  1  0  0  0  0
 11 12  1  0  0  0  0
 12 10  1  0  0  0  0
 12  7  2  0  0  0  0
 14 13  1  1  0  0  0
 14  1  1  0  0  0  0
 15 14  1  0  0  0  0
 15 16  1  0  0  0  0
 17 20  1  6  0  0  0
 18 17  1  0  0  0  0
 19 16  1  1  0  0  0
 19 18  1  0  0  0  0
 19 17  1  0  0  0  0
 20 21  1  0  0  0  0
 21 25  1  0  0  0  0
 22 27  1  0  0  0  0
 23 22  2  0  0  0  0
 24 27  2  0  0  0  0
 25 23  1  0  0  0  0
 25 26  2  0  0  0  0
 26 24  1  0  0  0  0
 28 30  1  0  0  0  0
 29 28  2  0  0  0  0
 30 31  1  0  0  0  0
 32 31  1  6  0  0  0
 32 38  1  0  0  0  0
 32 34  1  0  0  0  0
 33 37  1  0  0  0  0
 34 33  1  0  0  0  0
 35 37  1  0  0  0  0
 36 34  1  0  0  0  0
 36 35  1  0  0  0  0
 38 39  1  6  0  0  0
 38 41  1  0  0  0  0
 40 39  1  0  0  0  0
 41 42  1  0  0  0  0
 42 44  1  0  0  0  0
 44 43  2  0  0  0  0
 44 45  1  0  0  0  0
M  END
>  <MODEL>
1

>  <REMARK>
 VINA RESULT:      -7.7      0.000      0.000
  Name = 
  18 active torsions:
  status: ('A' for Active; 'I' for Inactive)
    1  A    between atoms: C_6  and  C_12
    2  A    between atoms: C_6  and  C_17
    3  A    between atoms: C_6  and  C_30
    4  A    between atoms: N_8  and  C_23
    5  A    between atoms: N_8  and  C_44
    6  A    between atoms: C_9  and  C_13
    7  A    between atoms: C_10  and  C_39
    8  A    between atoms: C_13  and  C_45
    9  A    between atoms: N_14  and  C_21
   10  A    between atoms: N_14  and  C_39
   11  A    between atoms: C_18  and  C_44
   12  A    between atoms: C_20  and  C_21
   13  A    between atoms: C_22  and  N_27
   14  A    between atoms: C_22  and  C_39
   15  A    between atoms: C_22  and  C_45
   16  A    between atoms: C_30  and  C_41
   17  A    between atoms: C_38  and  N_40
   18  A    between atoms: N_40  and  C_41
                            x       y       z     vdW  Elec       q    Type
                         _______ _______ _______ _____ _____    ______ ____

>  <TORSDO>
F 18

$$$$
=
 OpenBabel11032419433D

 45 49  0  0  1  0  0  0  0  0999 V2000
  188.4410  177.3920  136.5910 C   0  0  2  0  0  3  0  0  0  0  0  0
  187.8840  174.4330  137.4820 F   0  0  0  0  0  0  0  0  0  0  0  0
  193.9080  176.8600  137.3010 N   0  0  0  0  0  1  0  0  0  0  0  0
  190.1410  173.9650  137.1530 N   0  0  0  0  0  0  0  0  0  0  0  0
  193.5090  174.4410  137.3740 N   0  0  0  0  0  0  0  0  0  0  0  0
  189.3370  176.3670  137.3200 C   0  0  2  0  0  3  0  0  0  0  0  0
  190.8130  176.7060  137.1970 C   0  0  0  0  0  3  0  0  0  0  0  0
  192.4550  173.6270  137.3620 N   0  0  0  0  0  2  0  0  0  0  0  0
  189.0360  174.8990  136.8760 C   0  0  2  0  0  3  0  0  0  0  0  0
  193.0640  175.7130  137.2710 C   0  0  0  0  0  0  0  0  0  0  0  0
  191.3580  174.3980  137.2560 C   0  0  0  0  0  0  0  0  0  0  0  0
  191.6940  175.7160  137.2200 C   0  0  0  0  0  0  0  0  0  0  0  0
  188.9920  179.4840  137.7420 O   0  0  0  0  0  1  0  0  0  0  0  0
  187.9890  178.5300  137.5360 C   0  0  2  0  0  3  0  0  0  0  0  0
  187.5820  177.9500  138.8800 C   0  0  0  0  0  2  0  0  0  0  0  0
  188.3430  178.5800  139.9440 N   0  0  0  0  0  2  0  0  0  0  0  0
  188.1870  177.9830  142.2800 C   0  0  1  0  0  3  0  0  0  0  0  0
  189.6540  178.0650  141.9130 C   0  0  0  0  0  2  0  0  0  0  0  0
  188.6530  177.5390  140.9070 C   0  0  2  0  0  3  0  0  0  0  0  0
  187.9580  176.7530  143.1320 C   0  0  0  0  0  2  0  0  0  0  0  0
  188.8750  176.7710  144.2620 N   0  0  0  0  0  2  0  0  0  0  0  0
  189.0980  177.6810  147.8690 C   0  0  0  0  0  3  0  0  0  0  0  0
  189.4440  177.2290  146.5910 C   0  0  0  0  0  3  0  0  0  0  0  0
  186.8550  178.1620  147.0930 C   0  0  0  0  0  3  0  0  0  0  0  0
  188.4980  177.2400  145.5590 C   0  0  0  0  0  0  0  0  0  0  0  0
  187.2000  177.7100  145.8150 C   0  0  0  0  0  3  0  0  0  0  0  0
  187.8040  178.1480  148.1200 C   0  0  0  0  0  3  0  0  0  0  0  0
  186.1740  177.3620  135.6130 C   0  0  0  0  0  3  0  0  0  0  0  0
  187.2730  176.6880  135.9590 C   0  0  0  0  0  3  0  0  0  0  0  0
  185.0110  176.6680  134.9840 C   0  0  0  0  0  2  0  0  0  0  0  0
  183.7300  176.9990  135.7270 C   0  0  0  0  0  2  0  0  0  0  0  0
  183.3280  175.8130  136.6130 C   0  0  1  0  0  3  0  0  0  0  0  0
  184.8020  174.1240  137.4420 C   0  0  0  0  0  2  0  0  0  0  0  0
  184.0970  174.6020  136.2550 N   0  0  0  0  0  0  0  0  0  0  0  0
  183.8320  172.2180  136.3490 C   0  0  0  0  0  2  0  0  0  0  0  0
  183.1920  173.5070  135.9010 C   0  0  0  0  0  2  0  0  0  0  0  0
  184.6540  172.6150  137.5410 C   0  0  0  0  0  2  0  0  0  0  0  0
  183.5540  176.2050  138.0960 C   0  0  2  0  0  3  0  0  0  0  0  0
  182.3620  175.8810  139.0010 C   0  0  0  0  0  2  0  0  0  0  0  0
  181.1240  175.5080  138.2000 C   0  0  0  0  0  1  0  0  0  0  0  0
  183.8930  177.6180  138.2330 N   0  0  0  0  0  2  0  0  0  0  0  0
  183.6980  177.9790  139.6280 C   0  0  0  0  0  2  0  0  0  0  0  0
  185.0720  179.3970  140.9640 O   0  0  0  0  0  1  0  0  0  0  0  0
  184.3830  179.2700  139.9170 C   0  0  0  0  0  0  0  0  0  0  0  0
  184.2890  180.3230  139.0160 O   0  0  0  0  0  0  0  0  0  0  0  0
  1 29  1  1  0  0  0
  1 14  1  0  0  0  0
  4 11  2  0  0  0  0
  6  1  1  6  0  0  0
  7 12  2  0  0  0  0
  7  6  1  0  0  0  0
  8  5  1  0  0  0  0
  9  4  1  0  0  0  0
  9  6  1  0  0  0  0
  9  2  1  1  0  0  0
 10  3  1  0  0  0  0
 10  5  2  0  0  0  0
 11  8  1  0  0  0  0
 12 11  1  0  0  0  0
 12 10  1  0  0  0  0
 14 13  1  1  0  0  0
 14 15  1  0  0  0  0
 15 16  1  0  0  0  0
 17 20  1  1  0  0  0
 18 17  1  0  0  0  0
 19 16  1  6  0  0  0
 19 18  1  0  0  0  0
 19 17  1  0  0  0  0
 20 21  1  0  0  0  0
 21 25  1  0  0  0  0
 22 27  1  0  0  0  0
 23 22  2  0  0  0  0
 24 27  2  0  0  0  0
 25 26  2  0  0  0  0
 25 23  1  0  0  0  0
 26 24  1  0  0  0  0
 28 29  2  0  0  0  0
 30 28  1  0  0  0  0
 30 31  1  0  0  0  0
 32 31  1  6  0  0  0
 32 38  1  0  0  0  0
 33 37  1  0  0  0  0
 34 32  1  0  0  0  0
 34 33  1  0  0  0  0
 35 37  1  0  0  0  0
 36 34  1  0  0  0  0
 36 35  1  0  0  0  0
 38 41  1  0  0  0  0
 38 39  1  1  0  0  0
 40 39  1  0  0  0  0
 41 42  1  0  0  0  0
 42 44  1  0  0  0  0
 44 43  1  0  0  0  0
 45 44  2  0  0  0  0
M  END
>  <MODEL>
2

>  <REMARK>
 VINA RESULT:      -7.5      2.953      7.314
  Name = 
  18 active torsions:
  status: ('A' for Active; 'I' for Inactive)
    1  A    between atoms: C_6  and  C_12
    2  A    between atoms: C_6  and  C_17
    3  A    between atoms: C_6  and  C_30
    4  A    between atoms: N_8  and  C_23
    5  A    between atoms: N_8  and  C_44
    6  A    between atoms: C_9  and  C_13
    7  A    between atoms: C_10  and  C_39
    8  A    between atoms: C_13  and  C_45
    9  A    between atoms: N_14  and  C_21
   10  A    between atoms: N_14  and  C_39
   11  A    between atoms: C_18  and  C_44
   12  A    between atoms: C_20  and  C_21
   13  A    between atoms: C_22  and  N_27
   14  A    between atoms: C_22  and  C_39
   15  A    between atoms: C_22  and  C_45
   16  A    between atoms: C_30  and  C_41
   17  A    between atoms: C_38  and  N_40
   18  A    between atoms: N_40  and  C_41
                            x       y       z     vdW  Elec       q    Type
                         _______ _______ _______ _____ _____    ______ ____

>  <TORSDO>
F 18

$$$$
=
 OpenBabel11032419433D

 45 49  0  0  1  0  0  0  0  0999 V2000
  187.6080  177.3100  142.6490 C   0  0  2  0  0  3  0  0  0  0  0  0
  190.1250  175.9330  143.9260 F   0  0  0  0  0  0  0  0  0  0  0  0
  185.5750  178.7810  147.5860 N   0  0  0  0  0  1  0  0  0  0  0  0
  189.6810  177.0770  145.9040 N   0  0  0  0  0  0  0  0  0  0  0  0
  187.8010  178.2740  148.4830 N   0  0  0  0  0  0  0  0  0  0  0  0
  187.9020  176.8840  144.1040 C   0  0  2  0  0  3  0  0  0  0  0  0
  187.0300  177.6240  145.1050 C   0  0  0  0  0  3  0  0  0  0  0  0
  188.9450  177.7700  148.0240 N   0  0  0  0  0  2  0  0  0  0  0  0
  189.4210  176.9970  144.4570 C   0  0  2  0  0  3  0  0  0  0  0  0
  186.9230  178.3380  147.4580 C   0  0  0  0  0  0  0  0  0  0  0  0
  188.7710  177.5190  146.7130 C   0  0  0  0  0  0  0  0  0  0  0  0
  187.5080  177.8390  146.3220 C   0  0  0  0  0  0  0  0  0  0  0  0
  188.6730  179.0250  141.2610 O   0  0  0  0  0  1  0  0  0  0  0  0
  188.8820  177.8150  141.9320 C   0  0  2  0  0  3  0  0  0  0  0  0
  189.3540  176.7740  140.9310 C   0  0  0  0  0  2  0  0  0  0  0  0
  190.0440  177.4230  139.8290 N   0  0  0  0  0  2  0  0  0  0  0  0
  191.3430  176.4870  138.0200 C   0  0  1  0  0  3  0  0  0  0  0  0
  190.1950  177.2700  137.4180 C   0  0  0  0  0  2  0  0  0  0  0  0
  189.9920  176.5040  138.7070 C   0  0  2  0  0  3  0  0  0  0  0  0
  191.4900  175.1760  137.2780 C   0  0  0  0  0  2  0  0  0  0  0  0
  192.8200  175.0990  136.6920 N   0  0  0  0  0  2  0  0  0  0  0  0
  195.6680  173.6970  138.6450 C   0  0  0  0  0  3  0  0  0  0  0  0
  194.6820  174.5750  138.1810 C   0  0  0  0  0  3  0  0  0  0  0  0
  194.9340  172.0280  137.0530 C   0  0  0  0  0  3  0  0  0  0  0  0
  193.8190  174.1840  137.1510 C   0  0  0  0  0  0  0  0  0  0  0  0
  193.9480  172.9040  136.5880 C   0  0  0  0  0  3  0  0  0  0  0  0
  195.7930  172.4240  138.0810 C   0  0  0  0  0  3  0  0  0  0  0  0
  185.2750  178.0090  142.2410 C   0  0  0  0  0  3  0  0  0  0  0  0
  186.5090  178.3350  142.6300 C   0  0  0  0  0  3  0  0  0  0  0  0
  184.1800  179.0230  142.2210 C   0  0  0  0  0  2  0  0  0  0  0  0
  182.8920  178.4040  141.7110 C   0  0  0  0  0  2  0  0  0  0  0  0
  183.0320  178.0820  140.2190 C   0  0  1  0  0  3  0  0  0  0  0  0
  181.9580  176.0990  139.4220 C   0  0  0  0  0  2  0  0  0  0  0  0
  181.7720  177.5260  139.6770 N   0  0  0  0  0  0  0  0  0  0  0  0
  179.8240  176.3820  140.4870 C   0  0  0  0  0  2  0  0  0  0  0  0
  180.7120  177.5830  140.6850 C   0  0  0  0  0  2  0  0  0  0  0  0
  180.7450  175.3380  139.9260 C   0  0  0  0  0  2  0  0  0  0  0  0
  183.4430  179.3750  139.4700 C   0  0  2  0  0  3  0  0  0  0  0  0
  182.5020  179.7400  138.3200 C   0  0  0  0  0  2  0  0  0  0  0  0
  181.7930  181.0650  138.5620 C   0  0  0  0  0  1  0  0  0  0  0  0
  184.8110  179.2910  138.9650 N   0  0  0  0  0  2  0  0  0  0  0  0
  184.8770  178.1380  138.0810 C   0  0  0  0  0  2  0  0  0  0  0  0
  186.7380  176.7780  137.4730 O   0  0  0  0  0  1  0  0  0  0  0  0
  186.2770  177.9420  137.6110 C   0  0  0  0  0  0  0  0  0  0  0  0
  187.0640  179.0420  137.2930 O   0  0  0  0  0  0  0  0  0  0  0  0
  1 29  1  1  0  0  0
  4 11  2  0  0  0  0
  6  1  1  6  0  0  0
  6  9  1  0  0  0  0
  6  7  1  0  0  0  0
  7 12  2  0  0  0  0
  8  5  1  0  0  0  0
  9  2  1  1  0  0  0
  9  4  1  0  0  0  0
 10  3  1  0  0  0  0
 10  5  2  0  0  0  0
 11  8  1  0  0  0  0
 12 11  1  0  0  0  0
 12 10  1  0  0  0  0
 14 13  1  6  0  0  0
 14  1  1  0  0  0  0
 15 14  1  0  0  0  0
 16 15  1  0  0  0  0
 17 20  1  6  0  0  0
 17 19  1  0  0  0  0
 18 17  1  0  0  0  0
 18 19  1  0  0  0  0
 19 16  1  1  0  0  0
 21 25  1  0  0  0  0
 21 20  1  0  0  0  0
 23 22  1  0  0  0  0
 24 27  1  0  0  0  0
 25 23  2  0  0  0  0
 26 24  2  0  0  0  0
 26 25  1  0  0  0  0
 27 22  2  0  0  0  0
 28 29  2  0  0  0  0
 30 28  1  0  0  0  0
 31 30  1  0  0  0  0
 32 31  1  1  0  0  0
 33 34  1  0  0  0  0
 33 37  1  0  0  0  0
 34 32  1  0  0  0  0
 34 36  1  0  0  0  0
 35 36  1  0  0  0  0
 37 35  1  0  0  0  0
 38 39  1  6  0  0  0
 38 32  1  0  0  0  0
 39 40  1  0  0  0  0
 41 38  1  0  0  0  0
 42 41  1  0  0  0  0
 43 44  1  0  0  0  0
 44 42  1  0  0  0  0
 45 44  2  0  0  0  0
M  END
>  <MODEL>
3

>  <REMARK>
 VINA RESULT:      -7.2      2.695      9.753
  Name = 
  18 active torsions:
  status: ('A' for Active; 'I' for Inactive)
    1  A    between atoms: C_6  and  C_12
    2  A    between atoms: C_6  and  C_17
    3  A    between atoms: C_6  and  C_30
    4  A    between atoms: N_8  and  C_23
    5  A    between atoms: N_8  and  C_44
    6  A    between atoms: C_9  and  C_13
    7  A    between atoms: C_10  and  C_39
    8  A    between atoms: C_13  and  C_45
    9  A    between atoms: N_14  and  C_21
   10  A    between atoms: N_14  and  C_39
   11  A    between atoms: C_18  and  C_44
   12  A    between atoms: C_20  and  C_21
   13  A    between atoms: C_22  and  N_27
   14  A    between atoms: C_22  and  C_39
   15  A    between atoms: C_22  and  C_45
   16  A    between atoms: C_30  and  C_41
   17  A    between atoms: C_38  and  N_40
   18  A    between atoms: N_40  and  C_41
                            x       y       z     vdW  Elec       q    Type
                         _______ _______ _______ _____ _____    ______ ____

>  <TORSDO>
F 18

$$$$
=
 OpenBabel11032419433D

 45 49  0  0  1  0  0  0  0  0999 V2000
  187.7400  177.3480  142.4580 C   0  0  2  0  0  3  0  0  0  0  0  0
  190.1630  175.9070  143.8400 F   0  0  0  0  0  0  0  0  0  0  0  0
  185.4710  178.7630  147.3080 N   0  0  0  0  0  1  0  0  0  0  0  0
  189.6330  177.0230  145.8140 N   0  0  0  0  0  0  0  0  0  0  0  0
  187.6370  178.2040  148.3110 N   0  0  0  0  0  0  0  0  0  0  0  0
  187.9490  176.8920  143.9190 C   0  0  2  0  0  3  0  0  0  0  0  0
  187.0370  177.6270  144.8850 C   0  0  0  0  0  3  0  0  0  0  0  0
  188.7960  177.6900  147.9040 N   0  0  0  0  0  2  0  0  0  0  0  0
  189.4490  176.9730  144.3530 C   0  0  2  0  0  3  0  0  0  0  0  0
  186.8160  178.3010  147.2430 C   0  0  0  0  0  0  0  0  0  0  0  0
  188.6880  177.4650  146.5810 C   0  0  0  0  0  0  0  0  0  0  0  0
  187.4530  177.8130  146.1300 C   0  0  0  0  0  0  0  0  0  0  0  0
  188.8000  179.3270  141.4770 O   0  0  0  0  0  1  0  0  0  0  0  0
  189.0140  178.0020  141.8750 C   0  0  2  0  0  3  0  0  0  0  0  0
  189.4980  177.2020  140.6770 C   0  0  0  0  0  2  0  0  0  0  0  0
  189.1290  177.8800  139.4460 N   0  0  0  0  0  2  0  0  0  0  0  0
  188.4640  177.3260  137.1910 C   0  0  1  0  0  3  0  0  0  0  0  0
  187.2120  177.6110  137.9940 C   0  0  0  0  0  2  0  0  0  0  0  0
  188.3880  176.9200  138.6490 C   0  0  2  0  0  3  0  0  0  0  0  0
  188.2350  176.0990  136.3350 C   0  0  0  0  0  2  0  0  0  0  0  0
  186.8290  176.0230  135.9650 N   0  0  0  0  0  2  0  0  0  0  0  0
  185.5260  172.8960  137.5200 C   0  0  0  0  0  3  0  0  0  0  0  0
  186.2910  174.0450  137.2910 C   0  0  0  0  0  3  0  0  0  0  0  0
  184.2330  173.3590  135.5250 C   0  0  0  0  0  3  0  0  0  0  0  0
  186.0320  174.8550  136.1790 C   0  0  0  0  0  0  0  0  0  0  0  0
  184.9980  174.5080  135.2960 C   0  0  0  0  0  3  0  0  0  0  0  0
  184.4970  172.5540  136.6370 C   0  0  0  0  0  3  0  0  0  0  0  0
  185.7200  178.2150  141.3330 C   0  0  0  0  0  3  0  0  0  0  0  0
  186.5500  178.2640  142.3760 C   0  0  0  0  0  3  0  0  0  0  0  0
  184.5370  179.1220  141.2470 C   0  0  0  0  0  2  0  0  0  0  0  0
  183.2490  178.3280  141.3650 C   0  0  0  0  0  2  0  0  0  0  0  0
  182.2460  178.8160  140.3120 C   0  0  1  0  0  3  0  0  0  0  0  0
  182.5620  178.1540  138.0360 C   0  0  0  0  0  2  0  0  0  0  0  0
  181.9710  177.7600  139.3140 N   0  0  0  0  0  0  0  0  0  0  0  0
  183.0690  175.8330  138.3940 C   0  0  0  0  0  2  0  0  0  0  0  0
  182.6670  176.5230  139.6730 C   0  0  0  0  0  2  0  0  0  0  0  0
  183.2720  176.9600  137.4230 C   0  0  0  0  0  2  0  0  0  0  0  0
  180.9480  179.2600  141.0340 C   0  0  2  0  0  3  0  0  0  0  0  0
  180.3690  178.1880  141.9610 C   0  0  0  0  0  2  0  0  0  0  0  0
  179.5550  178.7950  143.0940 C   0  0  0  0  0  1  0  0  0  0  0  0
  179.9220  179.6790  140.0830 N   0  0  0  0  0  2  0  0  0  0  0  0
  179.8780  181.1330  140.1050 C   0  0  0  0  0  2  0  0  0  0  0  0
  181.5640  181.8010  138.5570 O   0  0  0  0  0  1  0  0  0  0  0  0
  180.3330  181.6720  138.7920 C   0  0  0  0  0  0  0  0  0  0  0  0
  179.4020  182.0000  137.8150 O   0  0  0  0  0  0  0  0  0  0  0  0
  1 29  1  1  0  0  0
  4 11  2  0  0  0  0
  6  1  1  6  0  0  0
  6  9  1  0  0  0  0
  6  7  1  0  0  0  0
  7 12  2  0  0  0  0
  8  5  1  0  0  0  0
  9  2  1  1  0  0  0
  9  4  1  0  0  0  0
 10  3  1  0  0  0  0
 10  5  2  0  0  0  0
 11  8  1  0  0  0  0
 12 11  1  0  0  0  0
 12 10  1  0  0  0  0
 14 13  1  6  0  0  0
 14  1  1  0  0  0  0
 15 14  1  0  0  0  0
 16 15  1  0  0  0  0
 17 20  1  6  0  0  0
 17 18  1  0  0  0  0
 17 19  1  0  0  0  0
 18 19  1  0  0  0  0
 19 16  1  1  0  0  0
 21 25  1  0  0  0  0
 21 20  1  0  0  0  0
 23 22  1  0  0  0  0
 24 27  1  0  0  0  0
 25 23  2  0  0  0  0
 26 24  2  0  0  0  0
 26 25  1  0  0  0  0
 27 22  2  0  0  0  0
 28 29  2  0  0  0  0
 30 28  1  0  0  0  0
 30 31  1  0  0  0  0
 32 38  1  0  0  0  0
 32 31  1  1  0  0  0
 33 34  1  0  0  0  0
 34 36  1  0  0  0  0
 34 32  1  0  0  0  0
 35 36  1  0  0  0  0
 37 33  1  0  0  0  0
 37 35  1  0  0  0  0
 38 39  1  6  0  0  0
 39 40  1  0  0  0  0
 41 42  1  0  0  0  0
 41 38  1  0  0  0  0
 43 44  1  0  0  0  0
 44 42  1  0  0  0  0
 45 44  2  0  0  0  0
M  END
>  <MODEL>
4

>  <REMARK>
 VINA RESULT:      -7.1      3.275      9.210
  Name = 
  18 active torsions:
  status: ('A' for Active; 'I' for Inactive)
    1  A    between atoms: C_6  and  C_12
    2  A    between atoms: C_6  and  C_17
    3  A    between atoms: C_6  and  C_30
    4  A    between atoms: N_8  and  C_23
    5  A    between atoms: N_8  and  C_44
    6  A    between atoms: C_9  and  C_13
    7  A    between atoms: C_10  and  C_39
    8  A    between atoms: C_13  and  C_45
    9  A    between atoms: N_14  and  C_21
   10  A    between atoms: N_14  and  C_39
   11  A    between atoms: C_18  and  C_44
   12  A    between atoms: C_20  and  C_21
   13  A    between atoms: C_22  and  N_27
   14  A    between atoms: C_22  and  C_39
   15  A    between atoms: C_22  and  C_45
   16  A    between atoms: C_30  and  C_41
   17  A    between atoms: C_38  and  N_40
   18  A    between atoms: N_40  and  C_41
                            x       y       z     vdW  Elec       q    Type
                         _______ _______ _______ _____ _____    ______ ____

>  <TORSDO>
F 18

$$$$
=
 OpenBabel11032419433D

 45 49  0  0  1  0  0  0  0  0999 V2000
  188.8200  177.3880  138.2010 C   0  0  2  0  0  3  0  0  0  0  0  0
  189.1150  175.4410  135.7550 F   0  0  0  0  0  0  0  0  0  0  0  0
  194.1000  176.7020  139.7250 N   0  0  0  0  0  1  0  0  0  0  0  0
  191.4270  175.6420  135.9410 N   0  0  0  0  0  0  0  0  0  0  0  0
  194.4540  175.7200  137.5060 N   0  0  0  0  0  0  0  0  0  0  0  0
  189.9170  176.3570  137.8510 C   0  0  2  0  0  3  0  0  0  0  0  0
  191.2230  176.6440  138.5720 C   0  0  0  0  0  3  0  0  0  0  0  0
  193.7050  175.3940  136.4550 N   0  0  0  0  0  2  0  0  0  0  0  0
  190.1200  176.2120  136.3080 C   0  0  2  0  0  3  0  0  0  0  0  0
  193.6530  176.2760  138.4420 C   0  0  0  0  0  0  0  0  0  0  0  0
  192.4390  175.7460  136.7440 C   0  0  0  0  0  0  0  0  0  0  0  0
  192.3580  176.2820  137.9910 C   0  0  0  0  0  0  0  0  0  0  0  0
  189.0110  179.8030  137.8400 O   0  0  0  0  0  1  0  0  0  0  0  0
  188.8100  178.5720  137.2050 C   0  0  2  0  0  3  0  0  0  0  0  0
  187.4820  178.6110  136.4680 C   0  0  0  0  0  2  0  0  0  0  0  0
  186.6680  177.4700  136.8510 N   0  0  0  0  0  2  0  0  0  0  0  0
  184.4980  176.4810  136.4670 C   0  0  1  0  0  3  0  0  0  0  0  0
  185.4230  176.0310  135.3560 C   0  0  0  0  0  2  0  0  0  0  0  0
  185.5510  177.4270  135.9250 C   0  0  2  0  0  3  0  0  0  0  0  0
  183.1580  176.8600  135.8730 C   0  0  0  0  0  2  0  0  0  0  0  0
  182.4370  177.7090  136.8100 N   0  0  0  0  0  2  0  0  0  0  0  0
  183.9880  179.2470  139.8310 C   0  0  0  0  0  3  0  0  0  0  0  0
  183.5700  179.0450  138.5100 C   0  0  0  0  0  3  0  0  0  0  0  0
  182.9690  177.1470  140.4750 C   0  0  0  0  0  3  0  0  0  0  0  0
  182.8510  177.8940  138.1670 C   0  0  0  0  0  0  0  0  0  0  0  0
  182.5510  176.9440  139.1560 C   0  0  0  0  0  3  0  0  0  0  0  0
  183.6870  178.2980  140.8130 C   0  0  0  0  0  3  0  0  0  0  0  0
  187.9550  177.8620  140.4640 C   0  0  0  0  0  3  0  0  0  0  0  0
  188.9890  177.8490  139.6220 C   0  0  0  0  0  3  0  0  0  0  0  0
  188.1180  178.3190  141.8770 C   0  0  0  0  0  2  0  0  0  0  0  0
  187.9250  177.1590  142.8360 C   0  0  0  0  0  2  0  0  0  0  0  0
  187.8500  177.6870  144.2740 C   0  0  1  0  0  3  0  0  0  0  0  0
  186.3950  178.2650  146.0800 C   0  0  0  0  0  2  0  0  0  0  0  0
  186.4930  177.5100  144.8320 N   0  0  0  0  0  0  0  0  0  0  0  0
  184.3860  178.6620  144.8240 C   0  0  0  0  0  2  0  0  0  0  0  0
  185.4940  178.1220  143.9550 C   0  0  0  0  0  2  0  0  0  0  0  0
  185.0740  179.0140  146.1110 C   0  0  0  0  0  2  0  0  0  0  0  0
  188.9110  176.9470  145.1280 C   0  0  2  0  0  3  0  0  0  0  0  0
  189.5420  177.8240  146.2120 C   0  0  0  0  0  2  0  0  0  0  0  0
  189.2430  177.3050  147.6110 C   0  0  0  0  0  1  0  0  0  0  0  0
  189.9660  176.3740  144.2970 N   0  0  0  0  0  2  0  0  0  0  0  0
  191.1930  177.0980  144.5930 C   0  0  0  0  0  2  0  0  0  0  0  0
  191.5900  179.2760  143.7100 O   0  0  0  0  0  1  0  0  0  0  0  0
  191.5040  178.0400  143.4820 C   0  0  0  0  0  0  0  0  0  0  0  0
  191.7330  177.5530  142.2010 O   0  0  0  0  0  0  0  0  0  0  0  0
  1 29  1  1  0  0  0
  4  9  1  0  0  0  0
  4 11  2  0  0  0  0
  5 10  2  0  0  0  0
  6  1  1  6  0  0  0
  6  7  1  0  0  0  0
  8 11  1  0  0  0  0
  8  5  1  0  0  0  0
  9  2  1  1  0  0  0
  9  6  1  0  0  0  0
 10  3  1  0  0  0  0
 11 12  1  0  0  0  0
 12 10  1  0  0  0  0
 12  7  2  0  0  0  0
 14 13  1  1  0  0  0
 14  1  1  0  0  0  0
 15 16  1  0  0  0  0
 15 14  1  0  0  0  0
 17 20  1  6  0  0  0
 18 19  1  0  0  0  0
 18 17  1  0  0  0  0
 19 17  1  0  0  0  0
 19 16  1  1  0  0  0
 20 21  1  0  0  0  0
 21 25  1  0  0  0  0
 22 27  1  0  0  0  0
 23 22  2  0  0  0  0
 24 27  2  0  0  0  0
 25 23  1  0  0  0  0
 25 26  2  0  0  0  0
 26 24  1  0  0  0  0
 28 30  1  0  0  0  0
 29 28  2  0  0  0  0
 30 31  1  0  0  0  0
 32 31  1  6  0  0  0
 32 34  1  0  0  0  0
 32 38  1  0  0  0  0
 33 37  1  0  0  0  0
 34 33  1  0  0  0  0
 35 37  1  0  0  0  0
 36 35  1  0  0  0  0
 36 34  1  0  0  0  0
 38 39  1  1  0  0  0
 39 40  1  0  0  0  0
 41 42  1  0  0  0  0
 41 38  1  0  0  0  0
 44 43  1  0  0  0  0
 44 42  1  0  0  0  0
 45 44  2  0  0  0  0
M  END
>  <MODEL>
5

>  <REMARK>
 VINA RESULT:      -7.1      1.719      2.432
  Name = 
  18 active torsions:
  status: ('A' for Active; 'I' for Inactive)
    1  A    between atoms: C_6  and  C_12
    2  A    between atoms: C_6  and  C_17
    3  A    between atoms: C_6  and  C_30
    4  A    between atoms: N_8  and  C_23
    5  A    between atoms: N_8  and  C_44
    6  A    between atoms: C_9  and  C_13
    7  A    between atoms: C_10  and  C_39
    8  A    between atoms: C_13  and  C_45
    9  A    between atoms: N_14  and  C_21
   10  A    between atoms: N_14  and  C_39
   11  A    between atoms: C_18  and  C_44
   12  A    between atoms: C_20  and  C_21
   13  A    between atoms: C_22  and  N_27
   14  A    between atoms: C_22  and  C_39
   15  A    between atoms: C_22  and  C_45
   16  A    between atoms: C_30  and  C_41
   17  A    between atoms: C_38  and  N_40
   18  A    between atoms: N_40  and  C_41
                            x       y       z     vdW  Elec       q    Type
                         _______ _______ _______ _____ _____    ______ ____

>  <TORSDO>
F 18

$$$$
=
 OpenBabel11032419433D

 45 49  0  0  1  0  0  0  0  0999 V2000
  186.6060  177.4540  144.7640 C   0  0  2  0  0  3  0  0  0  0  0  0
  186.8910  178.6830  147.6390 F   0  0  0  0  0  0  0  0  0  0  0  0
  191.9910  176.1920  144.4790 N   0  0  0  0  0  1  0  0  0  0  0  0
  188.9420  177.6000  147.8420 N   0  0  0  0  0  0  0  0  0  0  0  0
  192.0510  176.5660  146.9020 N   0  0  0  0  0  0  0  0  0  0  0  0
  187.8560  177.8810  145.5650 C   0  0  2  0  0  3  0  0  0  0  0  0
  189.1210  177.2150  145.0510 C   0  0  0  0  0  3  0  0  0  0  0  0
  191.2090  176.9880  147.8430 N   0  0  0  0  0  2  0  0  0  0  0  0
  187.6700  177.6750  147.1040 C   0  0  2  0  0  3  0  0  0  0  0  0
  191.3920  176.5440  145.7220 C   0  0  0  0  0  0  0  0  0  0  0  0
  190.0300  177.2300  147.2430 C   0  0  0  0  0  0  0  0  0  0  0  0
  190.1080  176.9870  145.9070 C   0  0  0  0  0  0  0  0  0  0  0  0
  187.7830  175.9660  143.2150 O   0  0  0  0  0  1  0  0  0  0  0  0
  186.9590  177.0940  143.3020 C   0  0  2  0  0  3  0  0  0  0  0  0
  187.6620  178.2670  142.6400 C   0  0  0  0  0  2  0  0  0  0  0  0
  187.4200  178.2470  141.2080 N   0  0  0  0  0  2  0  0  0  0  0  0
  188.8170  177.5360  139.3700 C   0  0  1  0  0  3  0  0  0  0  0  0
  189.5320  177.1990  140.6620 C   0  0  0  0  0  2  0  0  0  0  0  0
  188.7030  178.4610  140.5650 C   0  0  2  0  0  3  0  0  0  0  0  0
  189.8110  178.1280  138.3950 C   0  0  0  0  0  2  0  0  0  0  0  0
  190.0920  177.1600  137.3450 N   0  0  0  0  0  2  0  0  0  0  0  0
  192.0840  174.0340  136.9490 C   0  0  0  0  0  3  0  0  0  0  0  0
  191.0270  174.9500  136.8950 C   0  0  0  0  0  3  0  0  0  0  0  0
  193.4720  175.6980  138.0310 C   0  0  0  0  0  3  0  0  0  0  0  0
  191.1880  176.2420  137.4090 C   0  0  0  0  0  0  0  0  0  0  0  0
  192.4160  176.6130  137.9780 C   0  0  0  0  0  3  0  0  0  0  0  0
  193.3060  174.4090  137.5160 C   0  0  0  0  0  3  0  0  0  0  0  0
  184.3870  178.3900  144.2210 C   0  0  0  0  0  3  0  0  0  0  0  0
  185.5600  178.5310  144.8410 C   0  0  0  0  0  3  0  0  0  0  0  0
  183.3440  179.4570  144.2950 C   0  0  0  0  0  2  0  0  0  0  0  0
  182.7640  179.7270  142.9190 C   0  0  0  0  0  2  0  0  0  0  0  0
  182.1240  178.4470  142.3690 C   0  0  1  0  0  3  0  0  0  0  0  0
  180.3840  178.2690  143.9990 C   0  0  0  0  0  2  0  0  0  0  0  0
  180.6590  178.4570  142.5760 N   0  0  0  0  0  0  0  0  0  0  0  0
  178.9480  180.0200  143.2000 C   0  0  0  0  0  2  0  0  0  0  0  0
  180.1070  179.7760  142.2680 C   0  0  0  0  0  2  0  0  0  0  0  0
  179.3060  179.2450  144.4350 C   0  0  0  0  0  2  0  0  0  0  0  0
  182.4780  178.3230  140.8650 C   0  0  2  0  0  3  0  0  0  0  0  0
  181.8610  177.0950  140.1920 C   0  0  0  0  0  2  0  0  0  0  0  0
  180.7820  177.4760  139.1890 C   0  0  0  0  0  1  0  0  0  0  0  0
  183.9220  178.3150  140.6520 N   0  0  0  0  0  2  0  0  0  0  0  0
  184.2040  179.2140  139.5440 C   0  0  0  0  0  2  0  0  0  0  0  0
  186.0720  179.0100  138.0780 O   0  0  0  0  0  1  0  0  0  0  0  0
  185.0010  178.5040  138.5060 C   0  0  0  0  0  0  0  0  0  0  0  0
  184.5820  177.2660  138.0340 O   0  0  0  0  0  0  0  0  0  0  0  0
  1 29  1  6  0  0  0
  3 10  1  0  0  0  0
  5  8  1  0  0  0  0
  6  1  1  6  0  0  0
  6  9  1  0  0  0  0
  7  6  1  0  0  0  0
  7 12  2  0  0  0  0
  9  2  1  1  0  0  0
  9  4  1  0  0  0  0
 10 12  1  0  0  0  0
 10  5  2  0  0  0  0
 11  4  2  0  0  0  0
 11  8  1  0  0  0  0
 12 11  1  0  0  0  0
 14 13  1  1  0  0  0
 14  1  1  0  0  0  0
 15 14  1  0  0  0  0
 16 15  1  0  0  0  0
 17 20  1  6  0  0  0
 17 19  1  0  0  0  0
 17 18  1  0  0  0  0
 19 18  1  0  0  0  0
 19 16  1  1  0  0  0
 21 25  1  0  0  0  0
 21 20  1  0  0  0  0
 22 27  1  0  0  0  0
 23 22  2  0  0  0  0
 23 25  1  0  0  0  0
 25 26  2  0  0  0  0
 26 24  1  0  0  0  0
 27 24  2  0  0  0  0
 28 30  1  0  0  0  0
 28 29  2  0  0  0  0
 31 30  1  0  0  0  0
 32 34  1  0  0  0  0
 32 31  1  6  0  0  0
 33 37  1  0  0  0  0
 34 33  1  0  0  0  0
 35 37  1  0  0  0  0
 36 34  1  0  0  0  0
 36 35  1  0  0  0  0
 38 39  1  1  0  0  0
 38 32  1  0  0  0  0
 40 39  1  0  0  0  0
 41 38  1  0  0  0  0
 42 41  1  0  0  0  0
 43 44  1  0  0  0  0
 44 42  1  0  0  0  0
 45 44  2  0  0  0  0
M  END
>  <MODEL>
6

>  <REMARK>
 VINA RESULT:      -7.0      2.987      9.066
  Name = 
  18 active torsions:
  status: ('A' for Active; 'I' for Inactive)
    1  A    between atoms: C_6  and  C_12
    2  A    between atoms: C_6  and  C_17
    3  A    between atoms: C_6  and  C_30
    4  A    between atoms: N_8  and  C_23
    5  A    between atoms: N_8  and  C_44
    6  A    between atoms: C_9  and  C_13
    7  A    between atoms: C_10  and  C_39
    8  A    between atoms: C_13  and  C_45
    9  A    between atoms: N_14  and  C_21
   10  A    between atoms: N_14  and  C_39
   11  A    between atoms: C_18  and  C_44
   12  A    between atoms: C_20  and  C_21
   13  A    between atoms: C_22  and  N_27
   14  A    between atoms: C_22  and  C_39
   15  A    between atoms: C_22  and  C_45
   16  A    between atoms: C_30  and  C_41
   17  A    between atoms: C_38  and  N_40
   18  A    between atoms: N_40  and  C_41
                            x       y       z     vdW  Elec       q    Type
                         _______ _______ _______ _____ _____    ______ ____

>  <TORSDO>
F 18

$$$$
=
 OpenBabel11032419433D

 45 49  0  0  1  0  0  0  0  0999 V2000
  188.3350  177.8970  142.9300 C   0  0  2  0  0  3  0  0  0  0  0  0
  191.0660  179.3150  143.5540 F   0  0  0  0  0  0  0  0  0  0  0  0
  190.1280  176.0020  138.0450 N   0  0  0  0  0  1  0  0  0  0  0  0
  192.0570  178.0220  141.8910 N   0  0  0  0  0  0  0  0  0  0  0  0
  192.3840  176.5630  138.8280 N   0  0  0  0  0  0  0  0  0  0  0  0
  189.5310  178.2400  142.0160 C   0  0  2  0  0  3  0  0  0  0  0  0
  189.5510  177.3930  140.7550 C   0  0  0  0  0  3  0  0  0  0  0  0
  192.9270  177.1540  139.8900 N   0  0  0  0  0  2  0  0  0  0  0  0
  190.8940  178.1830  142.7800 C   0  0  2  0  0  3  0  0  0  0  0  0
  191.0440  176.5210  139.0040 C   0  0  0  0  0  0  0  0  0  0  0  0
  191.9210  177.4810  140.7210 C   0  0  0  0  0  0  0  0  0  0  0  0
  190.7200  177.1230  140.1930 C   0  0  0  0  0  0  0  0  0  0  0  0
  187.9100  175.5450  143.4670 O   0  0  0  0  0  1  0  0  0  0  0  0
  188.6390  176.6810  143.8370 C   0  0  2  0  0  3  0  0  0  0  0  0
  188.3130  177.0240  145.2810 C   0  0  0  0  0  2  0  0  0  0  0  0
  187.5760  178.2740  145.3410 N   0  0  0  0  0  2  0  0  0  0  0  0
  185.3130  179.1180  145.3920 C   0  0  1  0  0  3  0  0  0  0  0  0
  185.7440  178.8420  146.8180 C   0  0  0  0  0  2  0  0  0  0  0  0
  186.2110  177.9360  145.6990 C   0  0  2  0  0  3  0  0  0  0  0  0
  183.9000  178.6120  145.1970 C   0  0  0  0  0  2  0  0  0  0  0  0
  183.2370  179.4130  144.1780 N   0  0  0  0  0  2  0  0  0  0  0  0
  180.8430  178.2450  141.5710 C   0  0  0  0  0  3  0  0  0  0  0  0
  182.0270  178.6360  142.2050 C   0  0  0  0  0  3  0  0  0  0  0  0
  179.6200  178.6060  143.6290 C   0  0  0  0  0  3  0  0  0  0  0  0
  182.0130  179.0150  143.5520 C   0  0  0  0  0  0  0  0  0  0  0  0
  180.8030  178.9980  144.2640 C   0  0  0  0  0  3  0  0  0  0  0  0
  179.6400  178.2290  142.2830 C   0  0  0  0  0  3  0  0  0  0  0  0
  186.2260  178.6700  141.9050 C   0  0  0  0  0  3  0  0  0  0  0  0
  187.1020  177.6830  142.0970 C   0  0  0  0  0  3  0  0  0  0  0  0
  185.0000  178.4630  141.0780 C   0  0  0  0  0  2  0  0  0  0  0  0
  185.2070  179.0060  139.6760 C   0  0  0  0  0  2  0  0  0  0  0  0
  184.3150  178.2400  138.6920 C   0  0  1  0  0  3  0  0  0  0  0  0
  182.0690  178.4270  137.8920 C   0  0  0  0  0  2  0  0  0  0  0  0
  183.3330  179.1440  138.0550 N   0  0  0  0  0  0  0  0  0  0  0  0
  181.5640  180.6240  138.7200 C   0  0  0  0  0  2  0  0  0  0  0  0
  183.0090  180.2580  138.9460 C   0  0  0  0  0  2  0  0  0  0  0  0
  180.9220  179.3310  138.3080 C   0  0  0  0  0  2  0  0  0  0  0  0
  185.2190  177.5570  137.6330 C   0  0  2  0  0  3  0  0  0  0  0  0
  185.0220  176.0410  137.5490 C   0  0  0  0  0  2  0  0  0  0  0  0
  184.8360  175.5700  136.1150 C   0  0  0  0  0  1  0  0  0  0  0  0
  186.6310  177.8470  137.8660 N   0  0  0  0  0  2  0  0  0  0  0  0
  187.1080  178.6220  136.7310 C   0  0  0  0  0  2  0  0  0  0  0  0
  189.0480  179.5240  137.7830 O   0  0  0  0  0  1  0  0  0  0  0  0
  188.5790  178.8290  136.8430 C   0  0  0  0  0  0  0  0  0  0  0  0
  189.4360  178.2290  135.9300 O   0  0  0  0  0  0  0  0  0  0  0  0
  1 29  1  6  0  0  0
  1 14  1  0  0  0  0
  3 10  1  0  0  0  0
  4  9  1  0  0  0  0
  5 10  2  0  0  0  0
  5  8  1  0  0  0  0
  6  9  1  0  0  0  0
  6  1  1  1  0  0  0
  7  6  1  0  0  0  0
  8 11  1  0  0  0  0
  9  2  1  6  0  0  0
 10 12  1  0  0  0  0
 11  4  2  0  0  0  0
 12 11  1  0  0  0  0
 12  7  2  0  0  0  0
 14 13  1  6  0  0  0
 14 15  1  0  0  0  0
 15 16  1  0  0  0  0
 17 20  1  1  0  0  0
 17 19  1  0  0  0  0
 17 18  1  0  0  0  0
 19 16  1  6  0  0  0
 19 18  1  0  0  0  0
 21 20  1  0  0  0  0
 22 23  2  0  0  0  0
 22 27  1  0  0  0  0
 23 25  1  0  0  0  0
 24 26  1  0  0  0  0
 25 21  1  0  0  0  0
 25 26  2  0  0  0  0
 27 24  2  0  0  0  0
 28 29  2  0  0  0  0
 30 28  1  0  0  0  0
 31 30  1  0  0  0  0
 32 31  1  1  0  0  0
 33 34  1  0  0  0  0
 33 37  1  0  0  0  0
 34 32  1  0  0  0  0
 34 36  1  0  0  0  0
 35 36  1  0  0  0  0
 37 35  1  0  0  0  0
 38 39  1  1  0  0  0
 38 41  1  0  0  0  0
 38 32  1  0  0  0  0
 40 39  1  0  0  0  0
 42 44  1  0  0  0  0
 42 41  1  0  0  0  0
 44 43  1  0  0  0  0
 45 44  2  0  0  0  0
M  END
>  <MODEL>
7

>  <REMARK>
 VINA RESULT:      -7.0      2.542      7.143
  Name = 
  18 active torsions:
  status: ('A' for Active; 'I' for Inactive)
    1  A    between atoms: C_6  and  C_12
    2  A    between atoms: C_6  and  C_17
    3  A    between atoms: C_6  and  C_30
    4  A    between atoms: N_8  and  C_23
    5  A    between atoms: N_8  and  C_44
    6  A    between atoms: C_9  and  C_13
    7  A    between atoms: C_10  and  C_39
    8  A    between atoms: C_13  and  C_45
    9  A    between atoms: N_14  and  C_21
   10  A    between atoms: N_14  and  C_39
   11  A    between atoms: C_18  and  C_44
   12  A    between atoms: C_20  and  C_21
   13  A    between atoms: C_22  and  N_27
   14  A    between atoms: C_22  and  C_39
   15  A    between atoms: C_22  and  C_45
   16  A    between atoms: C_30  and  C_41
   17  A    between atoms: C_38  and  N_40
   18  A    between atoms: N_40  and  C_41
                            x       y       z     vdW  Elec       q    Type
                         _______ _______ _______ _____ _____    ______ ____

>  <TORSDO>
F 18

$$$$
=
 OpenBabel11032419433D

 45 49  0  0  1  0  0  0  0  0999 V2000
  184.1730  178.0550  140.7080 C   0  0  2  0  0  3  0  0  0  0  0  0
  181.8650  179.5910  142.1810 F   0  0  0  0  0  0  0  0  0  0  0  0
  187.3650  177.9680  145.2330 N   0  0  0  0  0  1  0  0  0  0  0  0
  182.8410  179.0030  144.2120 N   0  0  0  0  0  0  0  0  0  0  0  0
  185.3460  178.5810  146.4830 N   0  0  0  0  0  0  0  0  0  0  0  0
  184.1590  178.8190  142.0510 C   0  0  2  0  0  3  0  0  0  0  0  0
  185.2980  178.3960  142.9630 C   0  0  0  0  0  3  0  0  0  0  0  0
  184.0850  178.9000  146.2010 N   0  0  0  0  0  2  0  0  0  0  0  0
  182.7720  178.7280  142.7660 C   0  0  2  0  0  3  0  0  0  0  0  0
  185.9840  178.3020  145.3250 C   0  0  0  0  0  0  0  0  0  0  0  0
  183.9450  178.8210  144.8650 C   0  0  0  0  0  0  0  0  0  0  0  0
  185.1190  178.4720  144.2740 C   0  0  0  0  0  0  0  0  0  0  0  0
  183.5370  179.4600  138.8050 O   0  0  0  0  0  1  0  0  0  0  0  0
  184.6210  178.9620  139.5390 C   0  0  2  0  0  3  0  0  0  0  0  0
  185.5300  178.1830  138.6030 C   0  0  0  0  0  2  0  0  0  0  0  0
  186.8590  178.7680  138.6010 N   0  0  0  0  0  2  0  0  0  0  0  0
  189.1930  178.1550  138.7200 C   0  0  1  0  0  3  0  0  0  0  0  0
  188.7510  178.0480  137.2750 C   0  0  0  0  0  2  0  0  0  0  0  0
  187.7930  177.6780  138.3860 C   0  0  2  0  0  3  0  0  0  0  0  0
  190.0420  176.9510  139.0680 C   0  0  0  0  0  2  0  0  0  0  0  0
  191.0480  177.3370  140.0470 N   0  0  0  0  0  2  0  0  0  0  0  0
  189.6380  176.1090  143.2710 C   0  0  0  0  0  3  0  0  0  0  0  0
  189.8110  176.3450  141.9030 C   0  0  0  0  0  3  0  0  0  0  0  0
  191.6330  177.3980  143.7460 C   0  0  0  0  0  3  0  0  0  0  0  0
  190.8940  177.1080  141.4500 C   0  0  0  0  0  0  0  0  0  0  0  0
  191.8060  177.6350  142.3790 C   0  0  0  0  0  3  0  0  0  0  0  0
  190.5490  176.6360  144.1920 C   0  0  0  0  0  3  0  0  0  0  0  0
  182.7020  176.3330  139.7230 C   0  0  0  0  0  3  0  0  0  0  0  0
  182.8240  177.4400  140.4580 C   0  0  0  0  0  3  0  0  0  0  0  0
  181.3650  175.7180  139.4720 C   0  0  0  0  0  2  0  0  0  0  0  0
  181.0890  175.6370  137.9820 C   0  0  0  0  0  2  0  0  0  0  0  0
  182.3850  175.2960  137.2370 C   0  0  1  0  0  3  0  0  0  0  0  0
  183.3090  173.1150  136.9130 C   0  0  0  0  0  2  0  0  0  0  0  0
  182.2470  174.0260  136.4910 N   0  0  0  0  0  0  0  0  0  0  0  0
  181.2650  171.8590  136.8080 C   0  0  0  0  0  2  0  0  0  0  0  0
  181.0090  173.3430  136.8660 C   0  0  0  0  0  2  0  0  0  0  0  0
  182.7250  171.7300  137.1290 C   0  0  0  0  0  2  0  0  0  0  0  0
  182.7330  176.4710  136.2870 C   0  0  2  0  0  3  0  0  0  0  0  0
  181.5020  177.1700  135.7050 C   0  0  0  0  0  2  0  0  0  0  0  0
  181.4460  178.6400  136.0930 C   0  0  0  0  0  1  0  0  0  0  0  0
  183.6030  176.0390  135.1960 N   0  0  0  0  0  2  0  0  0  0  0  0
  184.7740  176.9020  135.2070 C   0  0  0  0  0  2  0  0  0  0  0  0
  185.9920  175.3140  136.5020 O   0  0  0  0  0  1  0  0  0  0  0  0
  185.9900  176.0990  135.5170 C   0  0  0  0  0  0  0  0  0  0  0  0
  187.1100  176.1910  134.7010 O   0  0  0  0  0  0  0  0  0  0  0  0
  1 29  1  6  0  0  0
  3 10  1  0  0  0  0
  4 11  2  0  0  0  0
  6  1  1  6  0  0  0
  6  9  1  0  0  0  0
  6  7  1  0  0  0  0
  7 12  2  0  0  0  0
  8  5  1  0  0  0  0
  9  2  1  6  0  0  0
  9  4  1  0  0  0  0
 10  5  2  0  0  0  0
 11  8  1  0  0  0  0
 12 11  1  0  0  0  0
 12 10  1  0  0  0  0
 14 13  1  6  0  0  0
 14  1  1  0  0  0  0
 15 14  1  0  0  0  0
 16 15  1  0  0  0  0
 17 20  1  6  0  0  0
 18 19  1  0  0  0  0
 18 17  1  0  0  0  0
 19 16  1  1  0  0  0
 19 17  1  0  0  0  0
 20 21  1  0  0  0  0
 21 25  1  0  0  0  0
 22 27  1  0  0  0  0
 23 22  2  0  0  0  0
 24 27  2  0  0  0  0
 25 23  1  0  0  0  0
 25 26  2  0  0  0  0
 26 24  1  0  0  0  0
 28 29  2  0  0  0  0
 30 28  1  0  0  0  0
 31 30  1  0  0  0  0
 32 31  1  6  0  0  0
 33 37  1  0  0  0  0
 34 36  1  0  0  0  0
 34 33  1  0  0  0  0
 34 32  1  0  0  0  0
 35 36  1  0  0  0  0
 35 37  1  0  0  0  0
 38 39  1  6  0  0  0
 38 32  1  0  0  0  0
 39 40  1  0  0  0  0
 41 42  1  0  0  0  0
 41 38  1  0  0  0  0
 42 44  1  0  0  0  0
 44 43  1  0  0  0  0
 45 44  2  0  0  0  0
M  END
>  <MODEL>
8

>  <REMARK>
 VINA RESULT:      -6.9      3.889      9.787
  Name = 
  18 active torsions:
  status: ('A' for Active; 'I' for Inactive)
    1  A    between atoms: C_6  and  C_12
    2  A    between atoms: C_6  and  C_17
    3  A    between atoms: C_6  and  C_30
    4  A    between atoms: N_8  and  C_23
    5  A    between atoms: N_8  and  C_44
    6  A    between atoms: C_9  and  C_13
    7  A    between atoms: C_10  and  C_39
    8  A    between atoms: C_13  and  C_45
    9  A    between atoms: N_14  and  C_21
   10  A    between atoms: N_14  and  C_39
   11  A    between atoms: C_18  and  C_44
   12  A    between atoms: C_20  and  C_21
   13  A    between atoms: C_22  and  N_27
   14  A    between atoms: C_22  and  C_39
   15  A    between atoms: C_22  and  C_45
   16  A    between atoms: C_30  and  C_41
   17  A    between atoms: C_38  and  N_40
   18  A    between atoms: N_40  and  C_41
                            x       y       z     vdW  Elec       q    Type
                         _______ _______ _______ _____ _____    ______ ____

>  <TORSDO>
F 18

$$$$
=
 OpenBabel11032419433D

 45 49  0  0  1  0  0  0  0  0999 V2000
  187.6520  177.3440  142.4860 C   0  0  2  0  0  3  0  0  0  0  0  0
  190.1380  176.0060  143.8610 F   0  0  0  0  0  0  0  0  0  0  0  0
  185.3390  178.6630  147.3420 N   0  0  0  0  0  1  0  0  0  0  0  0
  189.5670  177.0980  145.8360 N   0  0  0  0  0  0  0  0  0  0  0  0
  187.5300  178.1950  148.3400 N   0  0  0  0  0  0  0  0  0  0  0  0
  187.8850  176.8970  143.9460 C   0  0  2  0  0  3  0  0  0  0  0  0
  186.9450  177.5940  144.9150 C   0  0  0  0  0  3  0  0  0  0  0  0
  188.7080  177.7290  147.9290 N   0  0  0  0  0  2  0  0  0  0  0  0
  189.3810  177.0410  144.3760 C   0  0  2  0  0  3  0  0  0  0  0  0
  186.7020  178.2580  147.2730 C   0  0  0  0  0  0  0  0  0  0  0  0
  188.6060  177.5010  146.6070 C   0  0  0  0  0  0  0  0  0  0  0  0
  187.3560  177.7960  146.1590 C   0  0  0  0  0  0  0  0  0  0  0  0
  188.6690  179.2750  141.3730 O   0  0  0  0  0  1  0  0  0  0  0  0
  188.9170  177.9940  141.8790 C   0  0  2  0  0  3  0  0  0  0  0  0
  189.4550  177.1200  140.7580 C   0  0  0  0  0  2  0  0  0  0  0  0
  189.5340  177.8860  139.5260 N   0  0  0  0  0  2  0  0  0  0  0  0
  189.0990  177.7410  137.1540 C   0  0  1  0  0  3  0  0  0  0  0  0
  187.7790  177.9700  137.8610 C   0  0  0  0  0  2  0  0  0  0  0  0
  188.8440  177.1130  138.5100 C   0  0  2  0  0  3  0  0  0  0  0  0
  188.9120  176.6810  136.0890 C   0  0  0  0  0  2  0  0  0  0  0  0
  190.1870  176.4250  135.4340 N   0  0  0  0  0  2  0  0  0  0  0  0
  193.2000  175.1470  137.2170 C   0  0  0  0  0  3  0  0  0  0  0  0
  192.2360  176.0180  136.6970 C   0  0  0  0  0  3  0  0  0  0  0  0
  192.0180  173.2640  136.2600 C   0  0  0  0  0  3  0  0  0  0  0  0
  191.1590  175.5160  135.9560 C   0  0  0  0  0  0  0  0  0  0  0  0
  191.0530  174.1330  135.7390 C   0  0  0  0  0  3  0  0  0  0  0  0
  193.0910  173.7710  136.9980 C   0  0  0  0  0  3  0  0  0  0  0  0
  185.5260  178.0960  141.4820 C   0  0  0  0  0  3  0  0  0  0  0  0
  186.4620  178.2600  142.4180 C   0  0  0  0  0  3  0  0  0  0  0  0
  184.3410  179.0030  141.4090 C   0  0  0  0  0  2  0  0  0  0  0  0
  183.0940  178.2190  141.0460 C   0  0  0  0  0  2  0  0  0  0  0  0
  182.5140  178.7550  139.7320 C   0  0  1  0  0  3  0  0  0  0  0  0
  183.6890  177.8570  137.8540 C   0  0  0  0  0  2  0  0  0  0  0  0
  182.5020  177.7030  138.6920 N   0  0  0  0  0  0  0  0  0  0  0  0
  183.4320  175.5190  138.3400 C   0  0  0  0  0  2  0  0  0  0  0  0
  182.6500  176.3800  139.2990 C   0  0  0  0  0  2  0  0  0  0  0  0
  184.3110  176.4930  137.6110 C   0  0  0  0  0  2  0  0  0  0  0  0
  181.0850  179.2930  140.0040 C   0  0  2  0  0  3  0  0  0  0  0  0
  180.7100  180.4960  139.1350 C   0  0  0  0  0  2  0  0  0  0  0  0
  181.9320  181.2970  138.7140 C   0  0  0  0  0  1  0  0  0  0  0  0
  180.9010  179.6380  141.4110 N   0  0  0  0  0  2  0  0  0  0  0  0
  179.5370  179.2810  141.7700 C   0  0  0  0  0  2  0  0  0  0  0  0
  179.2990  176.9090  141.8040 O   0  0  0  0  0  0  0  0  0  0  0  0
  179.5260  177.9600  142.4600 C   0  0  0  0  0  0  0  0  0  0  0  0
  179.7990  177.8840  143.8210 O   0  0  0  0  0  1  0  0  0  0  0  0
  1 29  1  1  0  0  0
  4 11  2  0  0  0  0
  6  1  1  6  0  0  0
  6  9  1  0  0  0  0
  6  7  1  0  0  0  0
  7 12  2  0  0  0  0
  8  5  1  0  0  0  0
  9  2  1  1  0  0  0
  9  4  1  0  0  0  0
 10  3  1  0  0  0  0
 10  5  2  0  0  0  0
 11  8  1  0  0  0  0
 12 11  1  0  0  0  0
 12 10  1  0  0  0  0
 14 13  1  6  0  0  0
 14  1  1  0  0  0  0
 15 14  1  0  0  0  0
 16 15  1  0  0  0  0
 17 20  1  6  0  0  0
 17 18  1  0  0  0  0
 17 19  1  0  0  0  0
 18 19  1  0  0  0  0
 19 16  1  1  0  0  0
 21 25  1  0  0  0  0
 21 20  1  0  0  0  0
 23 22  2  0  0  0  0
 24 27  2  0  0  0  0
 25 23  1  0  0  0  0
 26 25  2  0  0  0  0
 26 24  1  0  0  0  0
 27 22  1  0  0  0  0
 28 29  2  0  0  0  0
 30 28  1  0  0  0  0
 31 30  1  0  0  0  0
 32 38  1  0  0  0  0
 32 31  1  1  0  0  0
 33 34  1  0  0  0  0
 34 36  1  0  0  0  0
 34 32  1  0  0  0  0
 35 36  1  0  0  0  0
 37 33  1  0  0  0  0
 37 35  1  0  0  0  0
 38 39  1  6  0  0  0
 38 41  1  0  0  0  0
 40 39  1  0  0  0  0
 41 42  1  0  0  0  0
 42 44  1  0  0  0  0
 43 44  2  0  0  0  0
 44 45  1  0  0  0  0
M  END
>  <MODEL>
9

>  <REMARK>
 VINA RESULT:      -6.9      3.228      9.513
  Name = 
  18 active torsions:
  status: ('A' for Active; 'I' for Inactive)
    1  A    between atoms: C_6  and  C_12
    2  A    between atoms: C_6  and  C_17
    3  A    between atoms: C_6  and  C_30
    4  A    between atoms: N_8  and  C_23
    5  A    between atoms: N_8  and  C_44
    6  A    between atoms: C_9  and  C_13
    7  A    between atoms: C_10  and  C_39
    8  A    between atoms: C_13  and  C_45
    9  A    between atoms: N_14  and  C_21
   10  A    between atoms: N_14  and  C_39
   11  A    between atoms: C_18  and  C_44
   12  A    between atoms: C_20  and  C_21
   13  A    between atoms: C_22  and  N_27
   14  A    between atoms: C_22  and  C_39
   15  A    between atoms: C_22  and  C_45
   16  A    between atoms: C_30  and  C_41
   17  A    between atoms: C_38  and  N_40
   18  A    between atoms: N_40  and  C_41
                            x       y       z     vdW  Elec       q    Type
                         _______ _______ _______ _____ _____    ______ ____

>  <TORSDO>
F 18

$$$$
