=
 OpenBabel11042412333D

 68 79  0  0  1  0  0  0  0  0999 V2000
  185.8660  177.4030  135.5130 S   0  0  0  0  0  0  0  0  0  0  0  0
  185.5450  177.0380  137.2970 C   0  0  1  0  0  3  0  0  0  0  0  0
  188.0970  174.8330  136.6370 C   0  0  0  0  0  0  0  0  0  0  0  0
  191.9060  176.1210  136.8580 C   0  0  0  0  0  1  0  0  0  0  0  0
  186.3210  175.6370  135.2690 C   0  0  0  0  0  2  0  0  0  0  0  0
  189.4100  174.6070  136.7060 C   0  0  0  0  0  0  0  0  0  0  0  0
  190.6080  173.6710  137.1020 N   0  0  0  0  0  0  0  0  0  0  0  0
  186.2790  175.8720  137.6910 N   0  0  0  0  0  2  0  0  0  0  0  0
  190.6420  175.1080  137.1900 C   0  0  1  0  0  0  0  0  0  0  0  0
  186.8470  175.1730  136.5750 C   0  0  0  0  0  0  0  0  0  0  0  0
  190.6740  174.3120  135.6350 C   0  0  1  0  0  0  0  0  0  0  0  0
  190.6480  175.6660  134.6690 C   0  0  0  0  0  1  0  0  0  0  0  0
  191.6020  173.3160  134.8350 C   0  0  2  0  0  3  0  0  0  0  0  0
  190.1170  173.3170  134.5940 C   0  0  0  0  0  2  0  0  0  0  0  0
  192.6660  171.2190  134.6640 C   0  0  0  0  0  2  0  0  0  0  0  0
  194.8240  172.7740  137.5880 N   0  0  0  0  0  0  0  0  0  0  0  0
  193.9740  172.9890  136.3780 C   0  0  2  0  0  3  0  0  0  0  0  0
  197.4260  170.3470  136.9980 C   0  0  0  0  0  2  0  0  0  0  0  0
  195.4600  173.8790  138.2150 C   0  0  0  0  0  0  0  0  0  0  0  0
  191.8750  172.0530  135.5630 N   0  0  1  0  0  0  0  0  0  0  0  0
  195.1180  175.1770  137.8360 O   0  0  0  0  0  0  0  0  0  0  0  0
  195.9610  170.7020  136.7000 C   0  0  2  0  0  3  0  0  0  0  0  0
  197.0020  172.3830  135.1850 N   0  0  0  0  0  2  0  0  0  0  0  0
  193.2910  171.6660  135.9120 C   0  0  2  0  0  0  0  0  0  0  0  0
  198.2470  170.2700  135.7130 C   0  0  0  0  0  2  0  0  0  0  0  0
  196.2450  173.7310  139.2010 O   0  0  0  0  0  1  0  0  0  0  0  0
  195.8350  171.4960  135.3690 C   0  0  2  0  0  3  0  0  0  0  0  0
  198.2200  171.6050  134.9430 C   0  0  0  0  0  2  0  0  0  0  0  0
  195.3860  171.4640  137.8350 C   0  0  0  0  0  0  0  0  0  0  0  0
  194.4950  172.2960  135.1700 C   0  0  2  0  0  3  0  0  0  0  0  0
  195.2940  170.9590  138.9870 O   0  0  0  0  0  0  0  0  0  0  0  0
  190.4200  177.0020  138.9640 C   0  0  1  0  0  3  0  0  0  0  0  0
  191.4820  176.0840  139.2550 O   0  0  0  0  0  0  0  0  0  0  0  0
  190.3140  175.5180  138.6890 C   0  0  2  0  0  3  0  0  0  0  0  0
  191.9670  177.7300  141.3570 O   0  0  0  0  0  0  0  0  0  0  0  0
  189.9010  177.4220  140.2850 N   0  0  0  0  0  2  0  0  0  0  0  0
  190.7990  177.2440  141.3880 C   0  0  0  0  0  0  0  0  0  0  0  0
  190.3690  176.3660  142.5500 C   0  0  0  0  0  2  0  0  0  0  0  0
  190.8860  176.8530  143.8110 N   0  0  0  0  0  2  0  0  0  0  0  0
  189.9540  177.8610  144.3570 C   0  0  1  0  0  3  0  0  0  0  0  0
  189.5140  178.7650  143.3590 O   0  0  0  0  0  1  0  0  0  0  0  0
  187.4580  177.2360  144.4580 C   0  0  0  0  0  2  0  0  0  0  0  0
  188.8340  177.1530  145.1650 C   0  0  2  0  0  3  0  0  0  0  0  0
  187.6100  177.4950  147.3870 C   0  0  0  0  0  2  0  0  0  0  0  0
  186.3290  177.8670  146.6450 C   0  0  2  0  0  3  0  0  0  0  0  0
  188.8330  177.8550  146.5410 C   0  0  0  0  0  2  0  0  0  0  0  0
  186.3020  176.9770  145.3950 C   0  0  0  0  0  2  0  0  0  0  0  0
  185.3040  179.4190  145.3900 C   0  0  0  0  0  1  0  0  0  0  0  0
  186.3270  179.2260  146.3300 O   0  0  0  0  0  0  0  0  0  0  0  0
  185.6980  178.1630  138.2640 C   0  0  0  0  0  0  0  0  0  0  0  0
  186.8010  178.6600  138.4750 O   0  0  0  0  0  0  0  0  0  0  0  0
  184.4340  178.8450  138.6840 C   0  0  0  0  0  2  0  0  0  0  0  0
  183.5260  178.1130  139.6150 C   0  0  0  0  0  0  0  0  0  0  0  0
  183.8910  177.9310  140.8600 C   0  0  0  0  0  2  0  0  0  0  0  0
  182.7050  177.1030  138.9930 N   0  0  0  0  0  2  0  0  0  0  0  0
  182.1510  176.0090  139.6950 N   0  0  0  0  0  2  0  0  0  0  0  0
  181.1440  174.1100  137.4760 C   0  0  0  0  0  2  0  0  0  0  0  0
  181.5580  171.7440  136.8220 C   0  0  0  0  0  1  0  0  0  0  0  0
  179.8310  174.7260  140.2780 S   0  0  0  0  0  0  0  0  0  0  0  0
  180.6980  176.2300  139.7690 C   0  0  2  0  0  3  0  0  0  0  0  0
  180.0700  176.3250  138.3890 C   0  0  1  0  0  0  0  0  0  0  0  0
  179.4650  172.8120  136.2980 O   0  0  0  0  0  0  0  0  0  0  0  0
  178.9360  173.8910  135.5400 C   0  0  0  0  0  2  0  0  0  0  0  0
  179.2150  177.5540  138.0950 C   0  0  0  0  0  1  0  0  0  0  0  0
  180.0050  175.1280  137.4600 C   0  0  1  0  0  0  0  0  0  0  0  0
  179.2280  175.2680  136.1700 C   0  0  0  0  0  2  0  0  0  0  0  0
  180.8670  173.0400  136.4170 C   0  0  1  0  0  3  0  0  0  0  0  0
  179.1040  175.1490  138.6650 C   0  0  1  0  0  3  0  0  0  0  0  0
  1  2  1  0  0  0  0
  2  8  1  0  0  0  0
  2 50  1  1  0  0  0
  3  6  2  0  0  0  0
  5  1  1  0  0  0  0
  5 10  1  0  0  0  0
  6  7  1  0  0  0  0
  6  9  1  0  0  0  0
  7  9  1  0  0  0  0
  9  4  1  6  0  0  0
  9 34  1  0  0  0  0
 10  3  2  0  0  0  0
 10  8  1  0  0  0  0
 11 12  1  6  0  0  0
 11  7  1  0  0  0  0
 13 14  1  6  0  0  0
 13 20  1  0  0  0  0
 13 11  1  0  0  0  0
 14 11  1  0  0  0  0
 16 29  1  0  0  0  0
 16 19  1  0  0  0  0
 17 16  1  1  0  0  0
 19 26  1  0  0  0  0
 20 15  1  6  0  0  0
 20 24  1  0  0  0  0
 21 19  2  0  0  0  0
 22 18  1  1  0  0  0
 22 29  1  0  0  0  0
 24 15  1  1  0  0  0
 24 17  1  0  0  0  0
 25 18  1  0  0  0  0
 27 23  1  1  0  0  0
 27 22  1  0  0  0  0
 28 23  1  0  0  0  0
 28 25  1  0  0  0  0
 29 31  2  0  0  0  0
 30 27  1  0  0  0  0
 30 24  1  0  0  0  0
 30 17  1  0  0  0  0
 32 33  1  0  0  0  0
 32 36  1  0  0  0  0
 34 32  1  0  0  0  0
 34 33  1  0  0  0  0
 35 37  2  0  0  0  0
 36 37  1  0  0  0  0
 37 38  1  0  0  0  0
 38 39  1  0  0  0  0
 39 40  1  0  0  0  0
 40 43  1  0  0  0  0
 41 40  1  0  0  0  0
 42 43  1  0  0  0  0
 42 47  1  0  0  0  0
 43 46  1  0  0  0  0
 45 44  1  0  0  0  0
 46 44  1  0  0  0  0
 47 45  1  0  0  0  0
 48 49  1  0  0  0  0
 49 45  1  0  0  0  0
 50 51  2  0  0  0  0
 50 52  1  0  0  0  0
 52 53  1  0  0  0  0
 53 54  2  0  0  0  0
 55 53  1  0  0  0  0
 55 56  1  0  0  0  0
 56 60  1  0  0  0  0
 60 59  1  0  0  0  0
 61 68  1  0  0  0  0
 61 60  1  0  0  0  0
 62 67  1  0  0  0  0
 63 66  1  0  0  0  0
 63 62  1  0  0  0  0
 64 61  1  0  0  0  0
 65 57  1  0  0  0  0
 65 61  1  0  0  0  0
 65 68  1  0  0  0  0
 66 65  1  0  0  0  0
 67 58  1  0  0  0  0
 67 57  1  0  0  0  0
 68 59  1  0  0  0  0
M  END
>  <MODEL>
1

>  <REMARK>
 VINA RESULT:      -7.9      0.000      0.000
  Name = 
  15 active torsions:
  status: ('A' for Active; 'I' for Inactive)
    1  A    between atoms: C_7  and  N_29
    2  A    between atoms: C_8  and  C_12
    3  A    between atoms: C_8  and  N_38
    4  A    between atoms: C_9  and  C_17
    5  A    between atoms: C_16  and  N_39
    6  A    between atoms: C_17  and  C_47
    7  A    between atoms: N_22  and  C_28
    8  A    between atoms: O_23  and  C_57
    9  A    between atoms: C_30  and  N_36
   10  A    between atoms: C_30  and  C_47
   11  A    between atoms: N_31  and  C_35
   12  A    between atoms: N_31  and  N_36
   13  A    between atoms: N_38  and  C_50
   14  A    between atoms: C_43  and  C_64
   15  A    between atoms: C_50  and  C_51
                            x       y       z     vdW  Elec       q    Type
                         _______ _______ _______ _____ _____    ______ ____

>  <TORSDO>
F 15

$$$$
=
 OpenBabel11042412333D

 68 79  0  0  1  0  0  0  0  0999 V2000
  184.3140  176.0520  135.2280 S   0  0  0  0  0  0  0  0  0  0  0  0
  184.0640  175.6630  137.0180 C   0  0  1  0  0  3  0  0  0  0  0  0
  187.2290  174.4190  136.5240 C   0  0  0  0  0  0  0  0  0  0  0  0
  190.3790  176.9150  136.7800 C   0  0  0  0  0  1  0  0  0  0  0  0
  185.3420  174.5330  135.0760 C   0  0  0  0  0  2  0  0  0  0  0  0
  188.5380  174.6480  136.6360 C   0  0  0  0  0  0  0  0  0  0  0  0
  189.9640  174.1830  137.1050 N   0  0  0  0  0  0  0  0  0  0  0  0
  185.1290  174.8250  137.4840 N   0  0  0  0  0  2  0  0  0  0  0  0
  189.5130  175.5510  137.1280 C   0  0  1  0  0  0  0  0  0  0  0  0
  185.9410  174.3190  136.4160 C   0  0  0  0  0  0  0  0  0  0  0  0
  189.8700  174.7570  135.6120 C   0  0  1  0  0  0  0  0  0  0  0  0
  189.5630  176.0360  134.5940 C   0  0  0  0  0  1  0  0  0  0  0  0
  190.9480  173.9160  134.8220 C   0  0  2  0  0  3  0  0  0  0  0  0
  189.4820  173.6280  134.6310 C   0  0  0  0  0  2  0  0  0  0  0  0
  192.4360  172.0900  134.7220 C   0  0  0  0  0  2  0  0  0  0  0  0
  194.1710  174.1520  137.6160 N   0  0  0  0  0  0  0  0  0  0  0  0
  193.3120  174.1470  136.3920 C   0  0  2  0  0  3  0  0  0  0  0  0
  197.2380  172.3210  137.1210 C   0  0  0  0  0  2  0  0  0  0  0  0
  194.5480  175.3840  138.2140 C   0  0  0  0  0  0  0  0  0  0  0  0
  191.4720  172.7620  135.5890 N   0  0  1  0  0  0  0  0  0  0  0  0
  193.9420  176.5680  137.7930 O   0  0  0  0  0  0  0  0  0  0  0  0
  195.7360  172.3460  136.8000 C   0  0  2  0  0  3  0  0  0  0  0  0
  196.4160  174.1680  135.2430 N   0  0  0  0  0  2  0  0  0  0  0  0
  192.9330  172.6960  135.9610 C   0  0  2  0  0  0  0  0  0  0  0  0
  198.0760  172.3850  135.8460 C   0  0  0  0  0  2  0  0  0  0  0  0
  195.3320  175.4350  139.2100 O   0  0  0  0  0  1  0  0  0  0  0  0
  195.4630  173.0580  135.4440 C   0  0  2  0  0  3  0  0  0  0  0  0
  197.7750  173.6610  135.0340 C   0  0  0  0  0  2  0  0  0  0  0  0
  194.9960  172.9990  137.9070 C   0  0  0  0  0  0  0  0  0  0  0  0
  193.9860  173.5470  135.2110 C   0  0  2  0  0  3  0  0  0  0  0  0
  194.9970  172.5190  139.0730 O   0  0  0  0  0  0  0  0  0  0  0  0
  189.5730  177.1580  139.1750 C   0  0  1  0  0  3  0  0  0  0  0  0
  190.1320  175.8690  139.4580 O   0  0  0  0  0  0  0  0  0  0  0  0
  189.0090  175.8790  138.5970 C   0  0  2  0  0  3  0  0  0  0  0  0
  190.9110  177.9960  141.6560 O   0  0  0  0  0  0  0  0  0  0  0  0
  188.9430  177.5920  140.4420 N   0  0  0  0  0  2  0  0  0  0  0  0
  189.7600  177.4720  141.6130 C   0  0  0  0  0  0  0  0  0  0  0  0
  189.2710  176.6080  142.7630 C   0  0  0  0  0  2  0  0  0  0  0  0
  188.7060  177.4050  143.8310 N   0  0  0  0  0  2  0  0  0  0  0  0
  187.2720  177.0750  143.9690 C   0  0  1  0  0  3  0  0  0  0  0  0
  187.0750  175.8880  144.7160 O   0  0  0  0  0  1  0  0  0  0  0  0
  185.4500  177.9660  145.5560 C   0  0  0  0  0  2  0  0  0  0  0  0
  186.4960  178.3230  144.4720 C   0  0  2  0  0  3  0  0  0  0  0  0
  184.8080  179.9990  143.5250 C   0  0  0  0  0  2  0  0  0  0  0  0
  183.7080  179.4170  144.4090 C   0  0  2  0  0  3  0  0  0  0  0  0
  185.8500  178.9240  143.2040 C   0  0  0  0  0  2  0  0  0  0  0  0
  184.3950  179.0330  145.7270 C   0  0  0  0  0  2  0  0  0  0  0  0
  182.1070  178.8360  142.9490 C   0  0  0  0  0  1  0  0  0  0  0  0
  183.1100  178.3220  143.7850 O   0  0  0  0  0  0  0  0  0  0  0  0
  183.7950  176.8080  137.9360 C   0  0  0  0  0  0  0  0  0  0  0  0
  184.7110  177.5310  138.3180 O   0  0  0  0  0  0  0  0  0  0  0  0
  182.3610  177.2120  138.0800 C   0  0  0  0  0  2  0  0  0  0  0  0
  181.7390  177.0940  139.4310 C   0  0  0  0  0  0  0  0  0  0  0  0
  181.9240  176.0020  140.1320 C   0  0  0  0  0  2  0  0  0  0  0  0
  180.4900  177.7990  139.5880 N   0  0  0  0  0  2  0  0  0  0  0  0
  180.2770  179.1160  139.1220 N   0  0  0  0  0  2  0  0  0  0  0  0
  179.4860  181.9660  138.2320 C   0  0  0  0  0  2  0  0  0  0  0  0
  178.9350  184.1090  139.3720 C   0  0  0  0  0  1  0  0  0  0  0  0
  182.3760  180.7440  138.5640 S   0  0  0  0  0  0  0  0  0  0  0  0
  181.2870  179.3800  138.0860 C   0  0  2  0  0  3  0  0  0  0  0  0
  180.6840  180.0660  136.8720 C   0  0  1  0  0  0  0  0  0  0  0  0
  179.8600  184.1070  137.1500 O   0  0  0  0  0  0  0  0  0  0  0  0
  179.5630  183.6700  135.8310 C   0  0  0  0  0  2  0  0  0  0  0  0
  180.9340  179.4230  135.5110 C   0  0  0  0  0  1  0  0  0  0  0  0
  180.1490  181.4840  136.9430 C   0  0  1  0  0  0  0  0  0  0  0  0
  179.7090  182.1460  135.6560 C   0  0  0  0  0  2  0  0  0  0  0  0
  178.9870  183.3990  138.0260 C   0  0  1  0  0  3  0  0  0  0  0  0
  181.6390  181.2780  136.9880 C   0  0  1  0  0  3  0  0  0  0  0  0
  1  2  1  0  0  0  0
  2  8  1  0  0  0  0
  2 50  1  1  0  0  0
  3  6  2  0  0  0  0
  5  1  1  0  0  0  0
  5 10  1  0  0  0  0
  6  7  1  0  0  0  0
  6  9  1  0  0  0  0
  7  9  1  0  0  0  0
  9  4  1  6  0  0  0
  9 34  1  0  0  0  0
 10  3  2  0  0  0  0
 10  8  1  0  0  0  0
 11 12  1  6  0  0  0
 11  7  1  0  0  0  0
 13 14  1  6  0  0  0
 13 20  1  0  0  0  0
 13 11  1  0  0  0  0
 14 11  1  0  0  0  0
 16 29  1  0  0  0  0
 16 19  1  0  0  0  0
 17 16  1  1  0  0  0
 19 26  1  0  0  0  0
 20 15  1  6  0  0  0
 20 24  1  0  0  0  0
 21 19  2  0  0  0  0
 22 18  1  1  0  0  0
 22 29  1  0  0  0  0
 24 15  1  1  0  0  0
 24 17  1  0  0  0  0
 25 18  1  0  0  0  0
 27 23  1  1  0  0  0
 27 22  1  0  0  0  0
 28 23  1  0  0  0  0
 28 25  1  0  0  0  0
 29 31  2  0  0  0  0
 30 27  1  0  0  0  0
 30 24  1  0  0  0  0
 30 17  1  0  0  0  0
 32 33  1  0  0  0  0
 32 36  1  0  0  0  0
 34 32  1  0  0  0  0
 34 33  1  0  0  0  0
 36 37  1  0  0  0  0
 37 35  2  0  0  0  0
 37 38  1  0  0  0  0
 38 39  1  0  0  0  0
 39 40  1  0  0  0  0
 40 43  1  0  0  0  0
 40 41  1  0  0  0  0
 42 47  1  0  0  0  0
 43 42  1  0  0  0  0
 44 45  1  0  0  0  0
 45 47  1  0  0  0  0
 46 44  1  0  0  0  0
 46 43  1  0  0  0  0
 48 49  1  0  0  0  0
 49 45  1  0  0  0  0
 50 52  1  0  0  0  0
 50 51  2  0  0  0  0
 52 53  1  0  0  0  0
 53 55  1  0  0  0  0
 53 54  2  0  0  0  0
 56 55  1  0  0  0  0
 60 59  1  0  0  0  0
 60 56  1  0  0  0  0
 61 65  1  0  0  0  0
 61 68  1  0  0  0  0
 61 60  1  0  0  0  0
 62 67  1  0  0  0  0
 63 62  1  0  0  0  0
 64 61  1  0  0  0  0
 65 68  1  0  0  0  0
 65 57  1  0  0  0  0
 66 63  1  0  0  0  0
 66 65  1  0  0  0  0
 67 57  1  0  0  0  0
 67 58  1  0  0  0  0
 68 59  1  0  0  0  0
M  END
>  <MODEL>
2

>  <REMARK>
 VINA RESULT:      -5.7      2.746      3.970
  Name = 
  15 active torsions:
  status: ('A' for Active; 'I' for Inactive)
    1  A    between atoms: C_7  and  N_29
    2  A    between atoms: C_8  and  C_12
    3  A    between atoms: C_8  and  N_38
    4  A    between atoms: C_9  and  C_17
    5  A    between atoms: C_16  and  N_39
    6  A    between atoms: C_17  and  C_47
    7  A    between atoms: N_22  and  C_28
    8  A    between atoms: O_23  and  C_57
    9  A    between atoms: C_30  and  N_36
   10  A    between atoms: C_30  and  C_47
   11  A    between atoms: N_31  and  C_35
   12  A    between atoms: N_31  and  N_36
   13  A    between atoms: N_38  and  C_50
   14  A    between atoms: C_43  and  C_64
   15  A    between atoms: C_50  and  C_51
                            x       y       z     vdW  Elec       q    Type
                         _______ _______ _______ _____ _____    ______ ____

>  <TORSDO>
F 15

$$$$
=
 OpenBabel11042412333D

 68 79  0  0  1  0  0  0  0  0999 V2000
  183.6600  176.8520  135.7000 S   0  0  0  0  0  0  0  0  0  0  0  0
  183.5000  176.4800  137.5040 C   0  0  1  0  0  3  0  0  0  0  0  0
  186.4100  174.8110  136.7600 C   0  0  0  0  0  0  0  0  0  0  0  0
  189.8900  176.8380  136.7670 C   0  0  0  0  0  1  0  0  0  0  0  0
  184.4500  175.2050  135.4660 C   0  0  0  0  0  2  0  0  0  0  0  0
  187.7430  174.8520  136.7680 C   0  0  0  0  0  0  0  0  0  0  0  0
  189.1220  174.1860  137.1220 N   0  0  0  0  0  0  0  0  0  0  0  0
  184.4700  175.4950  137.8830 N   0  0  0  0  0  2  0  0  0  0  0  0
  188.8710  175.6030  137.1810 C   0  0  1  0  0  0  0  0  0  0  0  0
  185.1160  174.8930  136.7540 C   0  0  0  0  0  0  0  0  0  0  0  0
  188.9920  174.7860  135.6410 C   0  0  1  0  0  0  0  0  0  0  0  0
  188.6080  176.0660  134.6510 C   0  0  0  0  0  1  0  0  0  0  0  0
  190.1190  174.0310  134.8340 C   0  0  2  0  0  3  0  0  0  0  0  0
  188.6750  173.6570  134.6350 C   0  0  0  0  0  2  0  0  0  0  0  0
  191.6300  172.2290  134.6550 C   0  0  0  0  0  2  0  0  0  0  0  0
  193.5160  174.3530  137.4050 N   0  0  0  0  0  0  0  0  0  0  0  0
  192.5780  174.3190  136.2410 C   0  0  2  0  0  3  0  0  0  0  0  0
  196.5760  172.5680  136.7260 C   0  0  0  0  0  2  0  0  0  0  0  0
  193.9110  175.5980  137.9630 C   0  0  0  0  0  0  0  0  0  0  0  0
  190.7140  172.8940  135.5770 N   0  0  1  0  0  0  0  0  0  0  0  0
  193.2580  176.7660  137.5710 O   0  0  0  0  0  0  0  0  0  0  0  0
  195.0550  172.5640  136.5050 C   0  0  2  0  0  3  0  0  0  0  0  0
  195.5990  174.3790  134.8880 N   0  0  0  0  0  2  0  0  0  0  0  0
  192.1970  172.8570  135.8520 C   0  0  2  0  0  0  0  0  0  0  0  0
  197.3260  172.6300  135.3970 C   0  0  0  0  0  2  0  0  0  0  0  0
  194.7580  175.6730  138.9050 O   0  0  0  0  0  1  0  0  0  0  0  0
  194.6800  173.2550  135.1640 C   0  0  2  0  0  3  0  0  0  0  0  0
  196.9500  173.8920  134.5940 C   0  0  0  0  0  2  0  0  0  0  0  0
  194.3790  173.2170  137.6520 C   0  0  0  0  0  0  0  0  0  0  0  0
  193.1830  173.7160  135.0240 C   0  0  2  0  0  3  0  0  0  0  0  0
  194.4660  172.7500  138.8200 O   0  0  0  0  0  0  0  0  0  0  0  0
  188.1230  177.4240  138.8870 C   0  0  1  0  0  3  0  0  0  0  0  0
  189.4620  176.9630  139.1090 O   0  0  0  0  0  0  0  0  0  0  0  0
  188.5350  175.9810  138.6860 C   0  0  2  0  0  3  0  0  0  0  0  0
  188.7090  179.7690  140.5610 O   0  0  0  0  0  0  0  0  0  0  0  0
  187.5910  177.7310  140.2340 N   0  0  0  0  0  2  0  0  0  0  0  0
  188.3780  178.6360  141.0170 C   0  0  0  0  0  0  0  0  0  0  0  0
  188.9070  178.1720  142.3640 C   0  0  0  0  0  2  0  0  0  0  0  0
  188.4940  176.8170  142.6650 N   0  0  0  0  0  2  0  0  0  0  0  0
  189.6100  176.1100  143.3260 C   0  0  1  0  0  3  0  0  0  0  0  0
  190.5270  175.5810  142.3860 O   0  0  0  0  0  1  0  0  0  0  0  0
  191.1460  176.2290  145.3890 C   0  0  0  0  0  2  0  0  0  0  0  0
  190.2220  177.0160  144.4280 C   0  0  2  0  0  3  0  0  0  0  0  0
  189.3920  178.3400  146.4560 C   0  0  0  0  0  2  0  0  0  0  0  0
  190.0800  177.3570  147.4010 C   0  0  2  0  0  3  0  0  0  0  0  0
  189.0070  177.6350  145.1530 C   0  0  0  0  0  2  0  0  0  0  0  0
  191.3820  176.9480  146.6960 C   0  0  0  0  0  2  0  0  0  0  0  0
  188.0220  176.7900  148.0900 C   0  0  0  0  0  1  0  0  0  0  0  0
  189.2500  176.2670  147.6570 O   0  0  0  0  0  0  0  0  0  0  0  0
  183.4670  177.6400  138.4410 C   0  0  0  0  0  0  0  0  0  0  0  0
  184.4920  178.0170  139.0050 O   0  0  0  0  0  0  0  0  0  0  0  0
  182.2380  178.4920  138.3910 C   0  0  0  0  0  2  0  0  0  0  0  0
  180.9300  177.8420  138.6990 C   0  0  0  0  0  0  0  0  0  0  0  0
  180.5600  176.7860  138.0180 C   0  0  0  0  0  2  0  0  0  0  0  0
  179.9050  178.7380  139.1750 N   0  0  0  0  0  2  0  0  0  0  0  0
  179.8150  180.0940  138.7890 N   0  0  0  0  0  2  0  0  0  0  0  0
  179.3400  183.0710  138.1160 C   0  0  0  0  0  2  0  0  0  0  0  0
  178.9310  185.1560  139.4130 C   0  0  0  0  0  1  0  0  0  0  0  0
  182.0830  181.5520  138.4670 S   0  0  0  0  0  0  0  0  0  0  0  0
  180.8990  180.3440  137.8250 C   0  0  2  0  0  3  0  0  0  0  0  0
  180.4260  181.1830  136.6500 C   0  0  1  0  0  0  0  0  0  0  0  0
  179.9660  185.2480  137.2430 O   0  0  0  0  0  0  0  0  0  0  0  0
  179.6990  184.9520  135.8780 C   0  0  0  0  0  2  0  0  0  0  0  0
  180.6850  180.6330  135.2500 C   0  0  0  0  0  1  0  0  0  0  0  0
  180.0210  182.6360  136.8200 C   0  0  1  0  0  0  0  0  0  0  0  0
  179.7120  183.4400  135.5780 C   0  0  0  0  0  2  0  0  0  0  0  0
  178.9870  184.5580  138.0140 C   0  0  1  0  0  3  0  0  0  0  0  0
  181.4820  182.2830  136.9130 C   0  0  1  0  0  3  0  0  0  0  0  0
  1  2  1  0  0  0  0
  2  8  1  0  0  0  0
  2 50  1  1  0  0  0
  3  6  2  0  0  0  0
  5  1  1  0  0  0  0
  5 10  1  0  0  0  0
  6  7  1  0  0  0  0
  6  9  1  0  0  0  0
  7  9  1  0  0  0  0
  9  4  1  6  0  0  0
  9 34  1  0  0  0  0
 10  3  2  0  0  0  0
 10  8  1  0  0  0  0
 11 12  1  6  0  0  0
 11  7  1  0  0  0  0
 13 14  1  6  0  0  0
 13 20  1  0  0  0  0
 13 11  1  0  0  0  0
 14 11  1  0  0  0  0
 16 29  1  0  0  0  0
 16 19  1  0  0  0  0
 17 16  1  1  0  0  0
 19 26  1  0  0  0  0
 20 15  1  6  0  0  0
 20 24  1  0  0  0  0
 21 19  2  0  0  0  0
 22 18  1  1  0  0  0
 22 29  1  0  0  0  0
 24 15  1  1  0  0  0
 24 17  1  0  0  0  0
 25 18  1  0  0  0  0
 27 23  1  1  0  0  0
 27 22  1  0  0  0  0
 28 23  1  0  0  0  0
 28 25  1  0  0  0  0
 29 31  2  0  0  0  0
 30 27  1  0  0  0  0
 30 24  1  0  0  0  0
 30 17  1  0  0  0  0
 32 33  1  0  0  0  0
 32 36  1  0  0  0  0
 34 32  1  0  0  0  0
 34 33  1  0  0  0  0
 35 37  2  0  0  0  0
 36 37  1  0  0  0  0
 37 38  1  0  0  0  0
 38 39  1  0  0  0  0
 39 40  1  0  0  0  0
 40 43  1  0  0  0  0
 41 40  1  0  0  0  0
 42 47  1  0  0  0  0
 43 46  1  0  0  0  0
 43 42  1  0  0  0  0
 44 45  1  0  0  0  0
 45 49  1  0  0  0  0
 46 44  1  0  0  0  0
 47 45  1  0  0  0  0
 49 48  1  0  0  0  0
 50 51  2  0  0  0  0
 52 50  1  0  0  0  0
 52 53  1  0  0  0  0
 53 55  1  0  0  0  0
 54 53  2  0  0  0  0
 56 55  1  0  0  0  0
 60 59  1  0  0  0  0
 60 56  1  0  0  0  0
 61 65  1  0  0  0  0
 61 68  1  0  0  0  0
 61 60  1  0  0  0  0
 62 67  1  0  0  0  0
 63 62  1  0  0  0  0
 64 61  1  0  0  0  0
 65 68  1  0  0  0  0
 65 57  1  0  0  0  0
 66 63  1  0  0  0  0
 66 65  1  0  0  0  0
 67 57  1  0  0  0  0
 67 58  1  0  0  0  0
 68 59  1  0  0  0  0
M  END
>  <MODEL>
3

>  <REMARK>
 VINA RESULT:      -5.2      3.208      4.513
  Name = 
  15 active torsions:
  status: ('A' for Active; 'I' for Inactive)
    1  A    between atoms: C_7  and  N_29
    2  A    between atoms: C_8  and  C_12
    3  A    between atoms: C_8  and  N_38
    4  A    between atoms: C_9  and  C_17
    5  A    between atoms: C_16  and  N_39
    6  A    between atoms: C_17  and  C_47
    7  A    between atoms: N_22  and  C_28
    8  A    between atoms: O_23  and  C_57
    9  A    between atoms: C_30  and  N_36
   10  A    between atoms: C_30  and  C_47
   11  A    between atoms: N_31  and  C_35
   12  A    between atoms: N_31  and  N_36
   13  A    between atoms: N_38  and  C_50
   14  A    between atoms: C_43  and  C_64
   15  A    between atoms: C_50  and  C_51
                            x       y       z     vdW  Elec       q    Type
                         _______ _______ _______ _____ _____    ______ ____

>  <TORSDO>
F 15

$$$$
=
 OpenBabel11042412333D

 68 79  0  0  1  0  0  0  0  0999 V2000
  188.2310  176.3780  142.5860 S   0  0  0  0  0  0  0  0  0  0  0  0
  187.9950  178.1660  142.1800 C   0  0  1  0  0  3  0  0  0  0  0  0
  189.5740  177.0620  139.3340 C   0  0  0  0  0  0  0  0  0  0  0  0
  187.3840  175.3810  136.4030 C   0  0  0  0  0  1  0  0  0  0  0  0
  189.7920  176.3980  141.6110 C   0  0  0  0  0  2  0  0  0  0  0  0
  189.4240  176.6370  138.0790 C   0  0  0  0  0  0  0  0  0  0  0  0
  189.8210  176.7150  136.5610 N   0  0  0  0  0  0  0  0  0  0  0  0
  188.7160  178.4890  140.9840 N   0  0  0  0  0  2  0  0  0  0  0  0
  188.4890  176.4360  137.0340 C   0  0  1  0  0  0  0  0  0  0  0  0
  189.6040  177.4410  140.5740 C   0  0  0  0  0  0  0  0  0  0  0  0
  189.7580  175.2450  137.1940 C   0  0  1  0  0  0  0  0  0  0  0  0
  188.8600  173.9050  137.6010 C   0  0  0  0  0  1  0  0  0  0  0  0
  191.1810  174.6410  136.8720 C   0  0  2  0  0  3  0  0  0  0  0  0
  190.8520  175.0830  138.2730 C   0  0  0  0  0  2  0  0  0  0  0  0
  192.7810  176.2390  137.5400 C   0  0  0  0  0  2  0  0  0  0  0  0
  195.1650  173.7330  135.6250 N   0  0  0  0  0  0  0  0  0  0  0  0
  193.9040  173.9550  136.3960 C   0  0  2  0  0  3  0  0  0  0  0  0
  198.0350  175.1430  137.2940 C   0  0  0  0  0  2  0  0  0  0  0  0
  195.5450  172.4180  135.2480 C   0  0  0  0  0  0  0  0  0  0  0  0
  192.1460  175.6460  136.3670 N   0  0  1  0  0  0  0  0  0  0  0  0
  194.6390  171.3680  135.4040 O   0  0  0  0  0  1  0  0  0  0  0  0
  196.5460  175.3570  136.9790 C   0  0  2  0  0  3  0  0  0  0  0  0
  196.2480  173.5830  138.7030 N   0  0  0  0  0  2  0  0  0  0  0  0
  193.6250  175.4740  136.6170 C   0  0  2  0  0  0  0  0  0  0  0  0
  198.2740  175.0610  138.7990 C   0  0  0  0  0  2  0  0  0  0  0  0
  196.6400  172.1780  134.6550 O   0  0  0  0  0  0  0  0  0  0  0  0
  195.6460  174.7980  138.1180 C   0  0  2  0  0  3  0  0  0  0  0  0
  197.4750  173.9070  139.4370 C   0  0  0  0  0  2  0  0  0  0  0  0
  196.2120  174.7310  135.6770 C   0  0  0  0  0  0  0  0  0  0  0  0
  194.1400  174.5440  137.7410 C   0  0  2  0  0  3  0  0  0  0  0  0
  196.7540  175.1140  134.6050 O   0  0  0  0  0  0  0  0  0  0  0  0
  186.2360  177.6570  137.4950 C   0  0  1  0  0  3  0  0  0  0  0  0
  186.5850  177.6300  136.1050 O   0  0  0  0  0  0  0  0  0  0  0  0
  187.6620  177.7910  137.0080 C   0  0  2  0  0  3  0  0  0  0  0  0
  184.2940  178.3400  139.5940 O   0  0  0  0  0  0  0  0  0  0  0  0
  185.5280  178.9420  137.6910 N   0  0  0  0  0  2  0  0  0  0  0  0
  184.3130  178.8710  138.4460 C   0  0  0  0  0  0  0  0  0  0  0  0
  183.0200  179.3390  137.8000 C   0  0  0  0  0  2  0  0  0  0  0  0
  182.1820  180.0580  138.7370 N   0  0  0  0  0  2  0  0  0  0  0  0
  180.8560  179.4100  138.7910 C   0  0  1  0  0  3  0  0  0  0  0  0
  180.6660  178.7000  140.0020 O   0  0  0  0  0  1  0  0  0  0  0  0
  179.7590  180.8190  136.9360 C   0  0  0  0  0  2  0  0  0  0  0  0
  179.7540  180.4450  138.4380 C   0  0  2  0  0  3  0  0  0  0  0  0
  179.2390  182.8990  138.9550 C   0  0  0  0  0  2  0  0  0  0  0  0
  179.5450  183.2850  137.5100 C   0  0  2  0  0  3  0  0  0  0  0  0
  180.0430  181.6580  139.3500 C   0  0  0  0  0  2  0  0  0  0  0  0
  179.0390  182.1170  136.6530 C   0  0  0  0  0  2  0  0  0  0  0  0
  181.0410  184.4750  136.3350 C   0  0  0  0  0  1  0  0  0  0  0  0
  180.9120  183.5120  137.3460 O   0  0  0  0  0  0  0  0  0  0  0  0
  186.5970  178.6850  142.1610 C   0  0  0  0  0  0  0  0  0  0  0  0
  186.2300  179.4630  141.2840 O   0  0  0  0  0  0  0  0  0  0  0  0
  185.6170  177.9660  143.0350 C   0  0  0  0  0  2  0  0  0  0  0  0
  185.0990  178.6860  144.2360 C   0  0  0  0  0  0  0  0  0  0  0  0
  184.3650  179.7590  144.0760 C   0  0  0  0  0  2  0  0  0  0  0  0
  185.9460  178.6090  145.4010 N   0  0  0  0  0  2  0  0  0  0  0  0
  186.6170  177.4300  145.7990 N   0  0  0  0  0  2  0  0  0  0  0  0
  189.6870  177.2390  145.5170 C   0  0  0  0  0  2  0  0  0  0  0  0
  191.4100  178.2230  144.0150 C   0  0  0  0  0  1  0  0  0  0  0  0
  188.0020  179.1450  147.3840 S   0  0  0  0  0  0  0  0  0  0  0  0
  187.0420  177.6220  147.1950 C   0  0  2  0  0  3  0  0  0  0  0  0
  188.1630  176.6710  147.5790 C   0  0  1  0  0  0  0  0  0  0  0  0
  191.9790  177.5490  146.2540 O   0  0  0  0  0  0  0  0  0  0  0  0
  192.0360  176.3920  147.0780 C   0  0  0  0  0  2  0  0  0  0  0  0
  187.9580  175.8200  148.8280 C   0  0  0  0  0  1  0  0  0  0  0  0
  189.5480  176.7840  146.9690 C   0  0  1  0  0  0  0  0  0  0  0  0
  190.6430  175.8990  147.5180 C   0  0  0  0  0  2  0  0  0  0  0  0
  191.1680  177.2160  145.1310 C   0  0  1  0  0  3  0  0  0  0  0  0
  189.1150  177.8280  147.9630 C   0  0  1  0  0  3  0  0  0  0  0  0
  2 50  1  6  0  0  0
  2  1  1  0  0  0  0
  3 10  2  0  0  0  0
  5  1  1  0  0  0  0
  6  3  2  0  0  0  0
  7  9  1  0  0  0  0
  7 11  1  0  0  0  0
  7  6  1  0  0  0  0
  8  2  1  0  0  0  0
  9  4  1  6  0  0  0
  9  6  1  0  0  0  0
 10  8  1  0  0  0  0
 10  5  1  0  0  0  0
 11 12  1  6  0  0  0
 11 14  1  0  0  0  0
 13 11  1  0  0  0  0
 13 14  1  1  0  0  0
 16 29  1  0  0  0  0
 17 16  1  6  0  0  0
 17 24  1  0  0  0  0
 17 30  1  0  0  0  0
 18 25  1  0  0  0  0
 19 21  1  0  0  0  0
 19 16  1  0  0  0  0
 20 24  1  0  0  0  0
 20 13  1  0  0  0  0
 20 15  1  1  0  0  0
 22 18  1  1  0  0  0
 22 27  1  0  0  0  0
 23 28  1  0  0  0  0
 24 15  1  6  0  0  0
 24 30  1  0  0  0  0
 25 28  1  0  0  0  0
 26 19  2  0  0  0  0
 27 23  1  6  0  0  0
 29 22  1  0  0  0  0
 30 27  1  0  0  0  0
 31 29  2  0  0  0  0
 32 36  1  0  0  0  0
 33 34  1  0  0  0  0
 33 32  1  0  0  0  0
 34  9  1  0  0  0  0
 34 32  1  0  0  0  0
 36 37  1  0  0  0  0
 37 35  2  0  0  0  0
 38 37  1  0  0  0  0
 38 39  1  0  0  0  0
 39 40  1  0  0  0  0
 40 41  1  0  0  0  0
 42 43  1  0  0  0  0
 43 40  1  0  0  0  0
 43 46  1  0  0  0  0
 44 46  1  0  0  0  0
 45 44  1  0  0  0  0
 47 42  1  0  0  0  0
 47 45  1  0  0  0  0
 48 49  1  0  0  0  0
 49 45  1  0  0  0  0
 50 52  1  0  0  0  0
 51 50  2  0  0  0  0
 52 53  1  0  0  0  0
 53 55  1  0  0  0  0
 54 53  2  0  0  0  0
 55 56  1  0  0  0  0
 56 60  1  0  0  0  0
 57 65  1  0  0  0  0
 58 67  1  0  0  0  0
 59 68  1  0  0  0  0
 60 59  1  0  0  0  0
 60 61  1  0  0  0  0
 61 68  1  0  0  0  0
 61 64  1  0  0  0  0
 62 63  1  0  0  0  0
 63 66  1  0  0  0  0
 65 66  1  0  0  0  0
 65 61  1  0  0  0  0
 65 68  1  0  0  0  0
 67 57  1  0  0  0  0
 67 62  1  0  0  0  0
M  END
>  <MODEL>
4

>  <REMARK>
 VINA RESULT:      -5.0      3.468      8.513
  Name = 
  15 active torsions:
  status: ('A' for Active; 'I' for Inactive)
    1  A    between atoms: C_7  and  N_29
    2  A    between atoms: C_8  and  C_12
    3  A    between atoms: C_8  and  N_38
    4  A    between atoms: C_9  and  C_17
    5  A    between atoms: C_16  and  N_39
    6  A    between atoms: C_17  and  C_47
    7  A    between atoms: N_22  and  C_28
    8  A    between atoms: O_23  and  C_57
    9  A    between atoms: C_30  and  N_36
   10  A    between atoms: C_30  and  C_47
   11  A    between atoms: N_31  and  C_35
   12  A    between atoms: N_31  and  N_36
   13  A    between atoms: N_38  and  C_50
   14  A    between atoms: C_43  and  C_64
   15  A    between atoms: C_50  and  C_51
                            x       y       z     vdW  Elec       q    Type
                         _______ _______ _______ _____ _____    ______ ____

>  <TORSDO>
F 15

$$$$
=
 OpenBabel11042412333D

 68 79  0  0  1  0  0  0  0  0999 V2000
  188.0050  176.5000  142.7240 S   0  0  0  0  0  0  0  0  0  0  0  0
  187.8110  178.2980  142.3410 C   0  0  1  0  0  3  0  0  0  0  0  0
  189.3410  177.1890  139.4700 C   0  0  0  0  0  0  0  0  0  0  0  0
  187.0870  175.5980  136.5360 C   0  0  0  0  0  1  0  0  0  0  0  0
  189.5580  176.4920  141.7370 C   0  0  0  0  0  2  0  0  0  0  0  0
  189.1710  176.7820  138.2110 C   0  0  0  0  0  0  0  0  0  0  0  0
  189.5580  176.8690  136.6910 N   0  0  0  0  0  0  0  0  0  0  0  0
  188.5310  178.6170  141.1430 N   0  0  0  0  0  2  0  0  0  0  0  0
  188.2230  176.6170  137.1710 C   0  0  1  0  0  0  0  0  0  0  0  0
  189.3890  177.5520  140.7140 C   0  0  0  0  0  0  0  0  0  0  0  0
  189.4630  175.3930  137.3070 C   0  0  1  0  0  0  0  0  0  0  0  0
  188.5340  174.0740  137.7090 C   0  0  0  0  0  1  0  0  0  0  0  0
  190.8650  174.7550  136.9600 C   0  0  2  0  0  3  0  0  0  0  0  0
  190.5650  175.1880  138.3700 C   0  0  0  0  0  2  0  0  0  0  0  0
  192.5250  176.2910  137.6250 C   0  0  0  0  0  2  0  0  0  0  0  0
  194.7950  173.7500  135.6200 N   0  0  0  0  0  0  0  0  0  0  0  0
  193.5560  173.9960  136.4190 C   0  0  2  0  0  3  0  0  0  0  0  0
  197.7380  175.0410  137.2580 C   0  0  0  0  0  2  0  0  0  0  0  0
  195.1270  172.4310  135.2120 C   0  0  0  0  0  0  0  0  0  0  0  0
  191.8510  175.7390  136.4540 N   0  0  1  0  0  0  0  0  0  0  0  0
  194.1930  171.4060  135.3670 O   0  0  0  0  0  1  0  0  0  0  0  0
  196.2510  175.3050  136.9760 C   0  0  2  0  0  3  0  0  0  0  0  0
  195.9310  173.5100  138.6730 N   0  0  0  0  0  2  0  0  0  0  0  0
  193.3270  175.5180  136.6720 C   0  0  2  0  0  0  0  0  0  0  0  0
  198.0030  174.9230  138.7570 C   0  0  0  0  0  2  0  0  0  0  0  0
  196.2040  172.1690  134.5940 O   0  0  0  0  0  0  0  0  0  0  0  0
  195.3550  174.7540  138.1220 C   0  0  2  0  0  3  0  0  0  0  0  0
  197.1800  173.7830  139.3890 C   0  0  0  0  0  2  0  0  0  0  0  0
  195.8730  174.7140  135.6690 C   0  0  0  0  0  0  0  0  0  0  0  0
  193.8350  174.5520  137.7690 C   0  0  2  0  0  3  0  0  0  0  0  0
  196.4060  175.1010  134.5940 O   0  0  0  0  0  0  0  0  0  0  0  0
  185.9700  177.8680  137.5430 C   0  0  1  0  0  3  0  0  0  0  0  0
  186.4180  177.9130  136.1820 O   0  0  0  0  0  0  0  0  0  0  0  0
  187.4310  177.9930  137.1680 C   0  0  2  0  0  3  0  0  0  0  0  0
  184.2690  178.6310  139.8170 O   0  0  0  0  0  0  0  0  0  0  0  0
  185.2790  179.1580  137.7640 N   0  0  0  0  0  2  0  0  0  0  0  0
  184.1560  179.1140  138.6520 C   0  0  0  0  0  0  0  0  0  0  0  0
  182.7950  179.5510  138.1370 C   0  0  0  0  0  2  0  0  0  0  0  0
  181.8510  179.7500  139.2160 N   0  0  0  0  0  2  0  0  0  0  0  0
  180.4810  179.5530  138.6980 C   0  0  1  0  0  3  0  0  0  0  0  0
  180.2940  180.1950  137.4500 O   0  0  0  0  0  1  0  0  0  0  0  0
  180.7690  177.3170  139.9430 C   0  0  0  0  0  2  0  0  0  0  0  0
  180.1190  178.0440  138.7400 C   0  0  2  0  0  3  0  0  0  0  0  0
  180.5890  175.9540  137.3390 C   0  0  0  0  0  2  0  0  0  0  0  0
  181.4790  175.3910  138.4440 C   0  0  2  0  0  3  0  0  0  0  0  0
  180.5980  177.4840  137.3820 C   0  0  0  0  0  2  0  0  0  0  0  0
  180.8190  175.8180  139.7630 C   0  0  0  0  0  2  0  0  0  0  0  0
  183.5830  174.7920  137.9470 C   0  0  0  0  0  1  0  0  0  0  0  0
  182.7790  175.8800  138.3180 O   0  0  0  0  0  0  0  0  0  0  0  0
  186.4260  178.8520  142.3390 C   0  0  0  0  0  0  0  0  0  0  0  0
  186.1020  179.7220  141.5350 O   0  0  0  0  0  0  0  0  0  0  0  0
  185.4060  178.0750  143.1100 C   0  0  0  0  0  2  0  0  0  0  0  0
  184.9200  178.6540  144.3970 C   0  0  0  0  0  0  0  0  0  0  0  0
  184.0390  179.6230  144.3750 C   0  0  0  0  0  2  0  0  0  0  0  0
  185.8810  178.6320  145.4730 N   0  0  0  0  0  2  0  0  0  0  0  0
  186.7050  177.5200  145.7590 N   0  0  0  0  0  2  0  0  0  0  0  0
  189.7680  177.2660  145.4610 C   0  0  0  0  0  2  0  0  0  0  0  0
  191.5120  178.2650  143.9920 C   0  0  0  0  0  1  0  0  0  0  0  0
  188.1340  179.1380  147.4040 S   0  0  0  0  0  0  0  0  0  0  0  0
  187.1380  177.6480  147.1600 C   0  0  2  0  0  3  0  0  0  0  0  0
  188.2360  176.6550  147.5030 C   0  0  1  0  0  0  0  0  0  0  0  0
  192.0690  177.4920  146.2020 O   0  0  0  0  0  0  0  0  0  0  0  0
  192.1000  176.3030  146.9810 C   0  0  0  0  0  2  0  0  0  0  0  0
  188.0130  175.7620  148.7200 C   0  0  0  0  0  1  0  0  0  0  0  0
  189.6210  176.7590  146.8940 C   0  0  1  0  0  0  0  0  0  0  0  0
  190.6970  175.8270  147.4060 C   0  0  0  0  0  2  0  0  0  0  0  0
  191.2480  177.2210  145.0690 C   0  0  1  0  0  3  0  0  0  0  0  0
  189.2160  177.7740  147.9290 C   0  0  1  0  0  3  0  0  0  0  0  0
  2 50  1  6  0  0  0
  2  1  1  0  0  0  0
  3 10  2  0  0  0  0
  5  1  1  0  0  0  0
  6  3  2  0  0  0  0
  7  9  1  0  0  0  0
  7 11  1  0  0  0  0
  7  6  1  0  0  0  0
  8  2  1  0  0  0  0
  9  4  1  6  0  0  0
  9  6  1  0  0  0  0
 10  8  1  0  0  0  0
 10  5  1  0  0  0  0
 11 12  1  6  0  0  0
 11 14  1  0  0  0  0
 13 11  1  0  0  0  0
 13 14  1  1  0  0  0
 16 29  1  0  0  0  0
 17 16  1  6  0  0  0
 17 24  1  0  0  0  0
 17 30  1  0  0  0  0
 18 25  1  0  0  0  0
 19 21  1  0  0  0  0
 19 16  1  0  0  0  0
 20 24  1  0  0  0  0
 20 13  1  0  0  0  0
 20 15  1  1  0  0  0
 22 18  1  1  0  0  0
 22 27  1  0  0  0  0
 23 28  1  0  0  0  0
 24 15  1  6  0  0  0
 24 30  1  0  0  0  0
 25 28  1  0  0  0  0
 26 19  2  0  0  0  0
 27 23  1  6  0  0  0
 29 22  1  0  0  0  0
 30 27  1  0  0  0  0
 31 29  2  0  0  0  0
 32 36  1  0  0  0  0
 33 34  1  0  0  0  0
 33 32  1  0  0  0  0
 34  9  1  0  0  0  0
 34 32  1  0  0  0  0
 36 37  1  0  0  0  0
 37 35  2  0  0  0  0
 38 37  1  0  0  0  0
 38 39  1  0  0  0  0
 40 43  1  0  0  0  0
 40 39  1  0  0  0  0
 41 40  1  0  0  0  0
 43 42  1  0  0  0  0
 44 46  1  0  0  0  0
 44 45  1  0  0  0  0
 45 47  1  0  0  0  0
 46 43  1  0  0  0  0
 47 42  1  0  0  0  0
 48 49  1  0  0  0  0
 49 45  1  0  0  0  0
 50 52  1  0  0  0  0
 51 50  2  0  0  0  0
 52 53  1  0  0  0  0
 53 55  1  0  0  0  0
 54 53  2  0  0  0  0
 55 56  1  0  0  0  0
 56 60  1  0  0  0  0
 57 65  1  0  0  0  0
 58 67  1  0  0  0  0
 59 68  1  0  0  0  0
 60 59  1  0  0  0  0
 60 61  1  0  0  0  0
 61 68  1  0  0  0  0
 61 64  1  0  0  0  0
 62 63  1  0  0  0  0
 63 66  1  0  0  0  0
 65 66  1  0  0  0  0
 65 61  1  0  0  0  0
 65 68  1  0  0  0  0
 67 57  1  0  0  0  0
 67 62  1  0  0  0  0
M  END
>  <MODEL>
5

>  <REMARK>
 VINA RESULT:      -4.9      2.983      8.289
  Name = 
  15 active torsions:
  status: ('A' for Active; 'I' for Inactive)
    1  A    between atoms: C_7  and  N_29
    2  A    between atoms: C_8  and  C_12
    3  A    between atoms: C_8  and  N_38
    4  A    between atoms: C_9  and  C_17
    5  A    between atoms: C_16  and  N_39
    6  A    between atoms: C_17  and  C_47
    7  A    between atoms: N_22  and  C_28
    8  A    between atoms: O_23  and  C_57
    9  A    between atoms: C_30  and  N_36
   10  A    between atoms: C_30  and  C_47
   11  A    between atoms: N_31  and  C_35
   12  A    between atoms: N_31  and  N_36
   13  A    between atoms: N_38  and  C_50
   14  A    between atoms: C_43  and  C_64
   15  A    between atoms: C_50  and  C_51
                            x       y       z     vdW  Elec       q    Type
                         _______ _______ _______ _____ _____    ______ ____

>  <TORSDO>
F 15

$$$$
