=
 OpenBabel11042412253D

 60 65  0  0  1  0  0  0  0  0999 V2000
  189.4200  176.7560  139.1870 C   0  0  1  0  0  3  0  0  0  0  0  0
  190.8030  177.3010  141.1600 C   0  0  0  0  0  0  0  0  0  0  0  0
  190.8460  178.9050  142.9590 C   0  0  0  0  0  1  0  0  0  0  0  0
  190.7170  177.0850  139.8720 C   0  0  0  0  0  3  0  0  0  0  0  0
  190.8970  177.5150  142.4430 C   0  0  0  0  0  0  0  0  0  0  0  0
  191.1960  176.3930  143.3840 C   0  0  0  0  0  2  0  0  0  0  0  0
  190.6410  176.6490  144.7470 C   0  0  0  0  0  0  0  0  0  0  0  0
  189.2860  176.9510  144.9360 C   0  0  0  0  0  3  0  0  0  0  0  0
  188.7970  177.2470  146.2140 C   0  0  0  0  0  0  0  0  0  0  0  0
  189.6680  177.1920  147.3200 C   0  0  0  0  0  0  0  0  0  0  0  0
  191.5010  176.6140  145.8480 C   0  0  0  0  0  3  0  0  0  0  0  0
  189.2130  177.3970  148.5780 F   0  0  0  0  0  0  0  0  0  0  0  0
  191.0160  176.8790  147.1300 C   0  0  0  0  0  3  0  0  0  0  0  0
  187.4100  177.5730  146.3640 N   0  0  0  0  0  2  0  0  0  0  0  0
  185.9270  178.0050  142.9430 C   0  0  0  0  0  3  0  0  0  0  0  0
  184.3580  178.7930  144.6070 C   0  0  0  0  0  0  0  0  0  0  0  0
  185.2730  178.4900  145.6180 C   0  0  0  0  0  3  0  0  0  0  0  0
  184.6850  178.5520  143.2690 C   0  0  0  0  0  3  0  0  0  0  0  0
  186.5220  177.9470  145.2990 C   0  0  0  0  0  0  0  0  0  0  0  0
  183.0840  179.3190  144.9440 N   0  0  0  0  0  1  0  0  0  0  0  0
  186.8410  177.6960  143.9550 C   0  0  0  0  0  3  0  0  0  0  0  0
  188.8280  177.9830  138.4840 C   0  0  2  0  0  3  0  0  0  0  0  0
  189.0710  179.1510  139.2170 O   0  0  0  0  0  1  0  0  0  0  0  0
  182.4530  177.9840  138.5490 C   0  0  0  0  0  0  0  0  0  0  0  0
  186.4950  178.5230  139.0300 N   0  0  0  0  0  0  0  0  0  0  0  0
  185.6350  176.9230  136.8630 C   0  0  0  0  0  0  0  0  0  0  0  0
  184.7040  177.9430  137.4730 C   0  0  1  0  0  3  0  0  0  0  0  0
  182.1120  179.5050  140.4460 F   0  0  0  0  0  0  0  0  0  0  0  0
  184.2820  179.1650  139.6860 C   0  0  0  0  0  3  0  0  0  0  0  0
  183.2740  177.4840  137.6080 C   0  0  0  0  0  3  0  0  0  0  0  0
  182.9700  178.9260  139.5690 C   0  0  0  0  0  0  0  0  0  0  0  0
  186.9320  176.9580  137.1720 C   0  0  0  0  0  3  0  0  0  0  0  0
  185.2250  178.5370  138.7610 C   0  0  0  0  0  0  0  0  0  0  0  0
  187.4040  177.8350  138.2070 N   0  0  0  0  0  0  0  0  0  0  0  0
  181.1020  177.6190  138.6150 O   0  0  0  0  0  0  0  0  0  0  0  0
  180.5140  176.2430  139.4740 P   0  0  0  0  0  0  0  0  0  0  0  0
  179.3750  175.4330  138.5240 O   0  0  0  0  0  0  0  0  0  0  0  0
  179.7840  176.7570  140.9130 O   0  0  0  0  0  1  0  0  0  0  0  0
  181.6580  175.3100  139.7950 O   0  0  0  0  0  1  0  0  0  0  0  0
  185.1950  176.0250  135.7500 C   0  0  0  0  0  2  0  0  0  0  0  0
  183.1410  172.8550  136.1870 C   0  0  0  0  0  3  0  0  0  0  0  0
  183.5440  174.1180  135.7430 C   0  0  0  0  0  3  0  0  0  0  0  0
  184.7180  174.6970  136.2440 C   0  0  0  0  0  0  0  0  0  0  0  0
  183.9180  172.1580  137.1230 C   0  0  0  0  0  3  0  0  0  0  0  0
  185.5020  173.9880  137.1670 C   0  0  0  0  0  3  0  0  0  0  0  0
  185.1000  172.7230  137.6090 C   0  0  0  0  0  3  0  0  0  0  0  0
  189.5360  175.6580  138.3150 O   0  0  0  0  0  0  0  0  0  0  0  0
  190.7500  175.8630  137.6500 C   0  0  2  0  0  3  0  0  0  0  0  0
  190.4970  176.3350  136.3620 O   0  0  0  0  0  1  0  0  0  0  0  0
  191.5000  174.5420  137.5520 C   0  0  0  0  0  2  0  0  0  0  0  0
  192.9160  174.7780  137.3060 N   0  0  0  0  0  0  0  0  0  0  0  0
  195.3800  172.0660  136.9230 C   0  0  0  0  0  0  0  0  0  0  0  0
  194.9040  172.1030  135.3140 S   0  0  0  0  0  0  0  0  0  0  0  0
  193.7370  173.7040  136.8120 C   0  0  0  0  0  0  0  0  0  0  0  0
  193.7490  173.3180  135.4690 C   0  0  0  0  0  3  0  0  0  0  0  0
  194.6480  173.0060  137.6300 C   0  0  0  0  0  3  0  0  0  0  0  0
  196.4680  171.2160  137.4820 C   0  0  0  0  0  2  0  0  0  0  0  0
  197.6860  171.8630  137.3610 F   0  0  0  0  0  0  0  0  0  0  0  0
  193.5330  175.9240  137.9730 C   0  0  0  0  0  2  0  0  0  0  0  0
  194.0060  176.8340  137.0200 O   0  0  0  0  0  1  0  0  0  0  0  0
  1  4  1  6  0  0  0
  2  5  2  0  0  0  0
  4  2  2  0  0  0  0
  5  3  1  0  0  0  0
  5  6  1  0  0  0  0
  6  7  1  0  0  0  0
  7  8  2  0  0  0  0
  7 11  1  0  0  0  0
  8  9  1  0  0  0  0
  9 14  1  0  0  0  0
  9 10  2  0  0  0  0
 10 12  1  0  0  0  0
 11 13  2  0  0  0  0
 13 10  1  0  0  0  0
 15 18  2  0  0  0  0
 15 21  1  0  0  0  0
 16 20  1  0  0  0  0
 16 17  2  0  0  0  0
 18 16  1  0  0  0  0
 19 17  1  0  0  0  0
 19 14  1  0  0  0  0
 21 19  2  0  0  0  0
 22  1  1  0  0  0  0
 22 23  1  1  0  0  0
 24 35  1  0  0  0  0
 24 31  1  0  0  0  0
 26 32  2  0  0  0  0
 26 27  1  0  0  0  0
 27 30  1  1  0  0  0
 27 33  1  0  0  0  0
 30 24  2  0  0  0  0
 31 29  2  0  0  0  0
 31 28  1  0  0  0  0
 32 34  1  0  0  0  0
 33 25  2  0  0  0  0
 33 29  1  0  0  0  0
 34 22  1  0  0  0  0
 34 25  1  0  0  0  0
 35 36  1  0  0  0  0
 36 39  1  0  0  0  0
 36 38  1  0  0  0  0
 37 36  2  0  0  0  0
 40 43  1  0  0  0  0
 40 26  1  0  0  0  0
 41 44  1  0  0  0  0
 42 41  2  0  0  0  0
 42 43  1  0  0  0  0
 43 45  2  0  0  0  0
 44 46  2  0  0  0  0
 45 46  1  0  0  0  0
 47  1  1  0  0  0  0
 48 49  1  6  0  0  0
 48 47  1  0  0  0  0
 50 48  1  0  0  0  0
 51 50  1  0  0  0  0
 51 59  1  0  0  0  0
 52 57  1  0  0  0  0
 52 56  2  0  0  0  0
 53 55  1  0  0  0  0
 53 52  1  0  0  0  0
 54 51  1  0  0  0  0
 54 56  1  0  0  0  0
 55 54  2  0  0  0  0
 58 57  1  0  0  0  0
 60 59  1  0  0  0  0
M  END
>  <MODEL>
1

>  <REMARK>
 VINA RESULT:      -9.1      0.000      0.000
  Name = 
  18 active torsions:
  status: ('A' for Active; 'I' for Inactive)
    1  A    between atoms: C_2  and  O_38
    2  A    between atoms: C_6  and  C_9
    3  A    between atoms: C_10  and  C_55
    4  A    between atoms: C_12  and  C_47
    5  A    between atoms: C_13  and  C_44
    6  A    between atoms: C_13  and  O_54
    7  A    between atoms: C_14  and  C_29
    8  A    between atoms: P_15  and  O_38
    9  A    between atoms: C_17  and  C_55
   10  A    between atoms: C_17  and  N_60
   11  A    between atoms: C_23  and  C_29
   12  A    between atoms: N_24  and  C_26
   13  A    between atoms: N_24  and  C_34
   14  A    between atoms: N_24  and  C_44
   15  A    between atoms: C_28  and  N_59
   16  A    between atoms: C_31  and  C_47
   17  A    between atoms: C_36  and  N_59
   18  A    between atoms: O_54  and  C_55
                            x       y       z     vdW  Elec       q    Type
                         _______ _______ _______ _____ _____    ______ ____

>  <TORSDO>
F 18

$$$$
=
 OpenBabel11042412253D

 60 65  0  0  1  0  0  0  0  0999 V2000
  183.7140  178.2790  142.4470 C   0  0  1  0  0  3  0  0  0  0  0  0
  185.2990  178.8280  140.6330 C   0  0  0  0  0  0  0  0  0  0  0  0
  187.6320  178.5260  140.1070 C   0  0  0  0  0  1  0  0  0  0  0  0
  184.4010  179.2230  141.5000 C   0  0  0  0  0  3  0  0  0  0  0  0
  186.1910  178.4410  139.7640 C   0  0  0  0  0  0  0  0  0  0  0  0
  185.7880  178.0480  138.3800 C   0  0  0  0  0  2  0  0  0  0  0  0
  186.9600  177.6060  137.5650 C   0  0  0  0  0  0  0  0  0  0  0  0
  187.8150  176.5910  138.0130 C   0  0  0  0  0  3  0  0  0  0  0  0
  188.9420  176.2320  137.2640 C   0  0  0  0  0  0  0  0  0  0  0  0
  189.1850  176.8650  136.0300 C   0  0  0  0  0  0  0  0  0  0  0  0
  187.2190  178.2410  136.3470 C   0  0  0  0  0  3  0  0  0  0  0  0
  190.2220  176.4900  135.2440 F   0  0  0  0  0  0  0  0  0  0  0  0
  188.3240  177.8680  135.5790 C   0  0  0  0  0  3  0  0  0  0  0  0
  189.8060  175.2050  137.7660 N   0  0  0  0  0  2  0  0  0  0  0  0
  193.3310  176.2930  138.4570 C   0  0  0  0  0  3  0  0  0  0  0  0
  193.3550  174.1670  137.3040 C   0  0  0  0  0  0  0  0  0  0  0  0
  191.9600  174.1820  137.2380 C   0  0  0  0  0  3  0  0  0  0  0  0
  194.0410  175.2220  137.9110 C   0  0  0  0  0  3  0  0  0  0  0  0
  191.2410  175.2540  137.7780 C   0  0  0  0  0  0  0  0  0  0  0  0
  194.0720  173.0620  136.7770 N   0  0  0  0  0  1  0  0  0  0  0  0
  191.9340  176.3060  138.3970 C   0  0  0  0  0  3  0  0  0  0  0  0
  183.9110  178.7070  143.9070 C   0  0  2  0  0  3  0  0  0  0  0  0
  183.7920  180.0940  144.0470 O   0  0  0  0  0  1  0  0  0  0  0  0
  189.1000  177.5230  147.4170 C   0  0  0  0  0  0  0  0  0  0  0  0
  185.4610  178.5320  145.8040 N   0  0  0  0  0  0  0  0  0  0  0  0
  187.2430  177.0430  144.1900 C   0  0  0  0  0  0  0  0  0  0  0  0
  187.3690  177.0100  145.6950 C   0  0  1  0  0  3  0  0  0  0  0  0
  188.3620  178.5660  149.5140 F   0  0  0  0  0  0  0  0  0  0  0  0
  186.8460  178.4390  147.7580 C   0  0  0  0  0  3  0  0  0  0  0  0
  188.7890  177.0330  146.2030 C   0  0  0  0  0  3  0  0  0  0  0  0
  188.0610  178.1720  148.2520 C   0  0  0  0  0  0  0  0  0  0  0  0
  186.1430  177.5600  143.6400 C   0  0  0  0  0  3  0  0  0  0  0  0
  186.5070  178.0370  146.3920 C   0  0  0  0  0  0  0  0  0  0  0  0
  185.1770  178.2390  144.4590 N   0  0  0  0  0  0  0  0  0  0  0  0
  190.4060  177.4630  147.9220 O   0  0  0  0  0  0  0  0  0  0  0  0
  191.5860  176.3130  147.4090 P   0  0  0  0  0  0  0  0  0  0  0  0
  190.9200  174.7610  147.4660 O   0  0  0  0  0  1  0  0  0  0  0  0
  192.9230  176.3910  148.4450 O   0  0  0  0  0  1  0  0  0  0  0  0
  192.0250  176.6230  145.9970 O   0  0  0  0  0  0  0  0  0  0  0  0
  188.2010  176.3090  143.3060 C   0  0  0  0  0  2  0  0  0  0  0  0
  190.8940  178.9880  143.4890 C   0  0  0  0  0  3  0  0  0  0  0  0
  189.6560  178.3470  143.6060 C   0  0  0  0  0  3  0  0  0  0  0  0
  189.5000  177.0320  143.1490 C   0  0  0  0  0  0  0  0  0  0  0  0
  191.9840  178.3110  142.9260 C   0  0  0  0  0  3  0  0  0  0  0  0
  190.6000  176.3520  142.6030 C   0  0  0  0  0  3  0  0  0  0  0  0
  191.8380  176.9930  142.4870 C   0  0  0  0  0  3  0  0  0  0  0  0
  182.3560  178.0970  142.1330 O   0  0  0  0  0  0  0  0  0  0  0  0
  181.9170  179.3600  141.7210 C   0  0  2  0  0  3  0  0  0  0  0  0
  180.9480  179.8250  142.6110 O   0  0  0  0  0  1  0  0  0  0  0  0
  181.2990  179.2520  140.3340 C   0  0  0  0  0  2  0  0  0  0  0  0
  180.9620  177.8670  140.0340 N   0  0  0  0  0  0  0  0  0  0  0  0
  182.8570  176.6150  137.1330 C   0  0  0  0  0  0  0  0  0  0  0  0
  183.1700  175.3020  138.1300 S   0  0  0  0  0  0  0  0  0  0  0  0
  181.8030  177.1120  139.1410 C   0  0  0  0  0  0  0  0  0  0  0  0
  182.3380  175.8660  139.4800 C   0  0  0  0  0  3  0  0  0  0  0  0
  182.0910  177.5360  137.8290 C   0  0  0  0  0  3  0  0  0  0  0  0
  183.2710  176.7340  135.7070 C   0  0  0  0  0  2  0  0  0  0  0  0
  184.5860  176.3270  135.5590 F   0  0  0  0  0  0  0  0  0  0  0  0
  179.5850  177.4410  140.2780 C   0  0  0  0  0  2  0  0  0  0  0  0
  179.4660  176.9300  141.5770 O   0  0  0  0  0  1  0  0  0  0  0  0
  1  4  1  6  0  0  0
  1 22  1  0  0  0  0
  2  4  2  0  0  0  0
  5  3  1  0  0  0  0
  5  2  2  0  0  0  0
  6  5  1  0  0  0  0
  7  8  1  0  0  0  0
  7  6  1  0  0  0  0
  9 14  1  0  0  0  0
  9  8  2  0  0  0  0
 10  9  1  0  0  0  0
 11  7  2  0  0  0  0
 12 10  1  0  0  0  0
 13 10  2  0  0  0  0
 13 11  1  0  0  0  0
 14 19  1  0  0  0  0
 16 18  1  0  0  0  0
 17 16  2  0  0  0  0
 17 19  1  0  0  0  0
 18 15  2  0  0  0  0
 19 21  2  0  0  0  0
 20 16  1  0  0  0  0
 21 15  1  0  0  0  0
 22 23  1  6  0  0  0
 22 34  1  0  0  0  0
 24 35  1  0  0  0  0
 24 31  1  0  0  0  0
 25 33  2  0  0  0  0
 26 27  1  0  0  0  0
 27 30  1  6  0  0  0
 27 33  1  0  0  0  0
 29 31  2  0  0  0  0
 30 24  2  0  0  0  0
 31 28  1  0  0  0  0
 32 26  2  0  0  0  0
 32 34  1  0  0  0  0
 33 29  1  0  0  0  0
 34 25  1  0  0  0  0
 36 37  1  0  0  0  0
 36 35  1  0  0  0  0
 36 38  1  0  0  0  0
 39 36  2  0  0  0  0
 40 26  1  0  0  0  0
 41 42  1  0  0  0  0
 43 40  1  0  0  0  0
 43 42  2  0  0  0  0
 44 41  2  0  0  0  0
 45 43  1  0  0  0  0
 46 45  2  0  0  0  0
 46 44  1  0  0  0  0
 47  1  1  0  0  0  0
 48 47  1  0  0  0  0
 48 49  1  1  0  0  0
 50 48  1  0  0  0  0
 51 59  1  0  0  0  0
 51 50  1  0  0  0  0
 52 56  2  0  0  0  0
 52 53  1  0  0  0  0
 53 55  1  0  0  0  0
 54 55  2  0  0  0  0
 54 51  1  0  0  0  0
 56 54  1  0  0  0  0
 57 52  1  0  0  0  0
 58 57  1  0  0  0  0
 59 60  1  0  0  0  0
M  END
>  <MODEL>
2

>  <REMARK>
 VINA RESULT:      -8.9      4.142     10.659
  Name = 
  18 active torsions:
  status: ('A' for Active; 'I' for Inactive)
    1  A    between atoms: C_2  and  O_38
    2  A    between atoms: C_6  and  C_9
    3  A    between atoms: C_10  and  C_55
    4  A    between atoms: C_12  and  C_47
    5  A    between atoms: C_13  and  C_44
    6  A    between atoms: C_13  and  O_54
    7  A    between atoms: C_14  and  C_29
    8  A    between atoms: P_15  and  O_38
    9  A    between atoms: C_17  and  C_55
   10  A    between atoms: C_17  and  N_60
   11  A    between atoms: C_23  and  C_29
   12  A    between atoms: N_24  and  C_26
   13  A    between atoms: N_24  and  C_34
   14  A    between atoms: N_24  and  C_44
   15  A    between atoms: C_28  and  N_59
   16  A    between atoms: C_31  and  C_47
   17  A    between atoms: C_36  and  N_59
   18  A    between atoms: O_54  and  C_55
                            x       y       z     vdW  Elec       q    Type
                         _______ _______ _______ _____ _____    ______ ____

>  <TORSDO>
F 18

$$$$
=
 OpenBabel11042412253D

 60 65  0  0  1  0  0  0  0  0999 V2000
  189.5130  177.2660  139.0610 C   0  0  1  0  0  3  0  0  0  0  0  0
  189.9710  175.8290  137.1030 C   0  0  0  0  0  0  0  0  0  0  0  0
  189.1050  175.4540  134.8850 C   0  0  0  0  0  1  0  0  0  0  0  0
  189.7240  175.9400  138.3840 C   0  0  0  0  0  3  0  0  0  0  0  0
  190.2210  175.7120  135.8290 C   0  0  0  0  0  0  0  0  0  0  0  0
  191.6270  175.6930  135.3250 C   0  0  0  0  0  2  0  0  0  0  0  0
  192.3100  174.4000  135.6330 C   0  0  0  0  0  0  0  0  0  0  0  0
  193.2040  174.2870  136.7050 C   0  0  0  0  0  3  0  0  0  0  0  0
  193.8790  173.0830  136.9410 C   0  0  0  0  0  0  0  0  0  0  0  0
  193.6170  171.9690  136.1200 C   0  0  0  0  0  0  0  0  0  0  0  0
  192.0700  173.2930  134.8130 C   0  0  0  0  0  3  0  0  0  0  0  0
  194.1950  170.7690  136.3660 F   0  0  0  0  0  0  0  0  0  0  0  0
  192.7170  172.0810  135.0590 C   0  0  0  0  0  3  0  0  0  0  0  0
  194.8020  173.0130  138.0350 N   0  0  0  0  0  2  0  0  0  0  0  0
  198.4100  172.8110  137.0190 C   0  0  0  0  0  3  0  0  0  0  0  0
  198.0960  174.6890  138.5110 C   0  0  0  0  0  0  0  0  0  0  0  0
  196.7410  174.3710  138.6330 C   0  0  0  0  0  3  0  0  0  0  0  0
  198.9310  173.9100  137.7050 C   0  0  0  0  0  3  0  0  0  0  0  0
  196.2120  173.2690  137.9530 C   0  0  0  0  0  0  0  0  0  0  0  0
  198.6160  175.8250  139.1840 N   0  0  0  0  0  1  0  0  0  0  0  0
  197.0530  172.4950  137.1360 C   0  0  0  0  0  3  0  0  0  0  0  0
  188.6870  178.2170  138.1870 C   0  0  2  0  0  3  0  0  0  0  0  0
  189.0620  179.5490  138.3970 O   0  0  0  0  0  1  0  0  0  0  0  0
  182.7120  177.8820  140.3890 C   0  0  0  0  0  0  0  0  0  0  0  0
  186.6840  178.5320  139.5750 N   0  0  0  0  0  0  0  0  0  0  0  0
  185.1190  177.3010  137.5680 C   0  0  0  0  0  0  0  0  0  0  0  0
  184.4640  178.1480  138.6320 C   0  0  1  0  0  3  0  0  0  0  0  0
  183.0550  179.0230  142.5360 F   0  0  0  0  0  0  0  0  0  0  0  0
  184.8340  178.9350  141.0430 C   0  0  0  0  0  3  0  0  0  0  0  0
  183.1590  177.6000  139.1520 C   0  0  0  0  0  3  0  0  0  0  0  0
  183.5570  178.6530  141.3310 C   0  0  0  0  0  0  0  0  0  0  0  0
  186.4450  177.3460  137.4240 C   0  0  0  0  0  3  0  0  0  0  0  0
  185.3990  178.5290  139.7550 C   0  0  0  0  0  0  0  0  0  0  0  0
  187.2510  178.0480  138.3830 N   0  0  0  0  0  0  0  0  0  0  0  0
  181.4590  177.4440  140.8370 O   0  0  0  0  0  0  0  0  0  0  0  0
  180.0410  178.4260  140.8490 P   0  0  0  0  0  0  0  0  0  0  0  0
  179.5540  178.7290  139.2600 O   0  0  0  0  0  0  0  0  0  0  0  0
  180.3870  179.8920  141.6220 O   0  0  0  0  0  1  0  0  0  0  0  0
  178.9320  177.7150  141.5900 O   0  0  0  0  0  1  0  0  0  0  0  0
  184.3160  176.5940  136.5220 C   0  0  0  0  0  2  0  0  0  0  0  0
  185.5650  173.2020  135.3390 C   0  0  0  0  0  3  0  0  0  0  0  0
  185.2530  174.5660  135.3510 C   0  0  0  0  0  3  0  0  0  0  0  0
  184.6160  175.1300  136.4650 C   0  0  0  0  0  0  0  0  0  0  0  0
  185.2530  172.4010  136.4450 C   0  0  0  0  0  3  0  0  0  0  0  0
  184.3230  174.3270  137.5780 C   0  0  0  0  0  3  0  0  0  0  0  0
  184.6370  172.9640  137.5650 C   0  0  0  0  0  3  0  0  0  0  0  0
  188.9670  177.1300  140.3500 O   0  0  0  0  0  0  0  0  0  0  0  0
  190.0690  177.1980  141.2090 C   0  0  2  0  0  3  0  0  0  0  0  0
  190.2060  175.9830  141.8820 O   0  0  0  0  0  1  0  0  0  0  0  0
  189.8450  178.3030  142.2310 C   0  0  0  0  0  2  0  0  0  0  0  0
  190.1320  177.8210  143.5740 N   0  0  0  0  0  0  0  0  0  0  0  0
  188.1680  177.8110  146.6910 C   0  0  0  0  0  0  0  0  0  0  0  0
  186.8780  177.4880  145.6670 S   0  0  0  0  0  0  0  0  0  0  0  0
  189.0790  177.7890  144.5550 C   0  0  0  0  0  0  0  0  0  0  0  0
  187.7470  177.5190  144.2260 C   0  0  0  0  0  3  0  0  0  0  0  0
  189.3190  177.9530  145.9330 C   0  0  0  0  0  3  0  0  0  0  0  0
  188.0980  177.8590  148.1780 C   0  0  0  0  0  2  0  0  0  0  0  0
  189.3410  178.1710  148.7020 F   0  0  0  0  0  0  0  0  0  0  0  0
  191.5310  177.8110  144.0020 C   0  0  0  0  0  2  0  0  0  0  0  0
  192.0020  179.1240  144.1270 O   0  0  0  0  0  1  0  0  0  0  0  0
  1  4  1  6  0  0  0
  1 47  1  0  0  0  0
  2  4  2  0  0  0  0
  3  5  1  0  0  0  0
  5  2  2  0  0  0  0
  6  7  1  0  0  0  0
  6  5  1  0  0  0  0
  7  8  1  0  0  0  0
  8  9  2  0  0  0  0
  9 14  1  0  0  0  0
 10 12  1  0  0  0  0
 10  9  1  0  0  0  0
 11 13  1  0  0  0  0
 11  7  2  0  0  0  0
 13 10  2  0  0  0  0
 15 21  2  0  0  0  0
 15 18  1  0  0  0  0
 16 17  1  0  0  0  0
 16 20  1  0  0  0  0
 18 16  2  0  0  0  0
 19 14  1  0  0  0  0
 19 17  2  0  0  0  0
 21 19  1  0  0  0  0
 22 34  1  0  0  0  0
 22 23  1  1  0  0  0
 22  1  1  0  0  0  0
 24 35  1  0  0  0  0
 24 31  1  0  0  0  0
 25 33  2  0  0  0  0
 26 27  1  0  0  0  0
 27 30  1  1  0  0  0
 27 33  1  0  0  0  0
 29 31  2  0  0  0  0
 30 24  2  0  0  0  0
 31 28  1  0  0  0  0
 32 26  2  0  0  0  0
 32 34  1  0  0  0  0
 33 29  1  0  0  0  0
 34 25  1  0  0  0  0
 35 36  1  0  0  0  0
 36 39  1  0  0  0  0
 36 38  1  0  0  0  0
 37 36  2  0  0  0  0
 40 26  1  0  0  0  0
 41 42  2  0  0  0  0
 41 44  1  0  0  0  0
 42 43  1  0  0  0  0
 43 40  1  0  0  0  0
 43 45  2  0  0  0  0
 44 46  2  0  0  0  0
 46 45  1  0  0  0  0
 47 48  1  0  0  0  0
 48 49  1  1  0  0  0
 48 50  1  0  0  0  0
 50 51  1  0  0  0  0
 51 59  1  0  0  0  0
 51 54  1  0  0  0  0
 52 57  1  0  0  0  0
 53 52  1  0  0  0  0
 54 56  1  0  0  0  0
 55 54  2  0  0  0  0
 55 53  1  0  0  0  0
 56 52  2  0  0  0  0
 57 58  1  0  0  0  0
 59 60  1  0  0  0  0
M  END
>  <MODEL>
3

>  <REMARK>
 VINA RESULT:      -8.9      2.820      8.611
  Name = 
  18 active torsions:
  status: ('A' for Active; 'I' for Inactive)
    1  A    between atoms: C_2  and  O_38
    2  A    between atoms: C_6  and  C_9
    3  A    between atoms: C_10  and  C_55
    4  A    between atoms: C_12  and  C_47
    5  A    between atoms: C_13  and  C_44
    6  A    between atoms: C_13  and  O_54
    7  A    between atoms: C_14  and  C_29
    8  A    between atoms: P_15  and  O_38
    9  A    between atoms: C_17  and  C_55
   10  A    between atoms: C_17  and  N_60
   11  A    between atoms: C_23  and  C_29
   12  A    between atoms: N_24  and  C_26
   13  A    between atoms: N_24  and  C_34
   14  A    between atoms: N_24  and  C_44
   15  A    between atoms: C_28  and  N_59
   16  A    between atoms: C_31  and  C_47
   17  A    between atoms: C_36  and  N_59
   18  A    between atoms: O_54  and  C_55
                            x       y       z     vdW  Elec       q    Type
                         _______ _______ _______ _____ _____    ______ ____

>  <TORSDO>
F 18

$$$$
=
 OpenBabel11042412253D

 60 65  0  0  1  0  0  0  0  0999 V2000
  183.7010  178.1950  142.2640 C   0  0  1  0  0  3  0  0  0  0  0  0
  185.2330  178.7370  140.4030 C   0  0  0  0  0  0  0  0  0  0  0  0
  187.5770  178.5580  139.8700 C   0  0  0  0  0  1  0  0  0  0  0  0
  184.3180  179.1240  141.2550 C   0  0  0  0  0  3  0  0  0  0  0  0
  186.1420  178.3580  139.5480 C   0  0  0  0  0  0  0  0  0  0  0  0
  185.7570  177.8580  138.1950 C   0  0  0  0  0  2  0  0  0  0  0  0
  186.9530  177.4990  137.3740 C   0  0  0  0  0  0  0  0  0  0  0  0
  187.7480  176.3910  137.6930 C   0  0  0  0  0  3  0  0  0  0  0  0
  188.8980  176.1060  136.9480 C   0  0  0  0  0  0  0  0  0  0  0  0
  189.2270  176.9150  135.8430 C   0  0  0  0  0  0  0  0  0  0  0  0
  187.2970  178.3070  136.2860 C   0  0  0  0  0  3  0  0  0  0  0  0
  190.2890  176.6240  135.0550 F   0  0  0  0  0  0  0  0  0  0  0  0
  188.4270  178.0130  135.5200 C   0  0  0  0  0  3  0  0  0  0  0  0
  189.6980  174.9760  137.3180 N   0  0  0  0  0  2  0  0  0  0  0  0
  193.3510  174.1570  137.0400 C   0  0  0  0  0  3  0  0  0  0  0  0
  193.0630  176.0860  138.4710 C   0  0  0  0  0  0  0  0  0  0  0  0
  191.6780  176.0010  138.3150 C   0  0  0  0  0  3  0  0  0  0  0  0
  193.9000  175.1650  137.8350 C   0  0  0  0  0  3  0  0  0  0  0  0
  191.1190  174.9920  137.5240 C   0  0  0  0  0  0  0  0  0  0  0  0
  193.6200  177.1300  139.2540 N   0  0  0  0  0  1  0  0  0  0  0  0
  191.9650  174.0750  136.8780 C   0  0  0  0  0  3  0  0  0  0  0  0
  183.9140  178.7000  143.6960 C   0  0  2  0  0  3  0  0  0  0  0  0
  183.8330  180.0960  143.7570 O   0  0  0  0  0  1  0  0  0  0  0  0
  189.0220  177.4850  147.3130 C   0  0  0  0  0  0  0  0  0  0  0  0
  185.4170  178.4980  145.6280 N   0  0  0  0  0  0  0  0  0  0  0  0
  187.2520  177.0570  144.0310 C   0  0  0  0  0  0  0  0  0  0  0  0
  187.3400  176.9940  145.5370 C   0  0  1  0  0  3  0  0  0  0  0  0
  188.2220  178.4780  149.4110 F   0  0  0  0  0  0  0  0  0  0  0  0
  186.7520  178.3750  147.6140 C   0  0  0  0  0  3  0  0  0  0  0  0
  188.7460  177.0180  146.0820 C   0  0  0  0  0  3  0  0  0  0  0  0
  187.9570  178.1080  148.1340 C   0  0  0  0  0  0  0  0  0  0  0  0
  186.1630  177.5770  143.4630 C   0  0  0  0  0  3  0  0  0  0  0  0
  186.4520  177.9990  146.2320 C   0  0  0  0  0  0  0  0  0  0  0  0
  185.1700  178.2310  144.2700 N   0  0  0  0  0  0  0  0  0  0  0  0
  190.3150  177.4240  147.8500 O   0  0  0  0  0  0  0  0  0  0  0  0
  191.4870  176.2360  147.4130 P   0  0  0  0  0  0  0  0  0  0  0  0
  192.8400  176.3880  148.4130 O   0  0  0  0  0  1  0  0  0  0  0  0
  191.9470  176.4760  145.8020 O   0  0  0  0  0  0  0  0  0  0  0  0
  190.8970  174.8530  147.5680 O   0  0  0  0  0  1  0  0  0  0  0  0
  188.2380  176.3490  143.1560 C   0  0  0  0  0  2  0  0  0  0  0  0
  190.9100  179.0360  143.4880 C   0  0  0  0  0  3  0  0  0  0  0  0
  189.6770  178.3800  143.5680 C   0  0  0  0  0  3  0  0  0  0  0  0
  189.5330  177.0900  143.0410 C   0  0  0  0  0  0  0  0  0  0  0  0
  192.0070  178.3980  142.8930 C   0  0  0  0  0  3  0  0  0  0  0  0
  190.6390  176.4480  142.4620 C   0  0  0  0  0  3  0  0  0  0  0  0
  191.8720  177.1040  142.3840 C   0  0  0  0  0  3  0  0  0  0  0  0
  182.3450  177.9350  141.9960 O   0  0  0  0  0  0  0  0  0  0  0  0
  181.9410  178.9890  141.1680 C   0  0  2  0  0  3  0  0  0  0  0  0
  181.2230  179.9190  141.9220 O   0  0  0  0  0  1  0  0  0  0  0  0
  181.0400  178.4480  140.0670 C   0  0  0  0  0  2  0  0  0  0  0  0
  181.7090  178.5300  138.7760 N   0  0  0  0  0  0  0  0  0  0  0  0
  181.0820  181.8710  137.3560 C   0  0  0  0  0  0  0  0  0  0  0  0
  180.7440  181.0150  135.9530 S   0  0  0  0  0  0  0  0  0  0  0  0
  181.4330  179.6420  137.9050 C   0  0  0  0  0  0  0  0  0  0  0  0
  181.0560  179.4800  136.5680 C   0  0  0  0  0  3  0  0  0  0  0  0
  181.4500  180.9780  138.3500 C   0  0  0  0  0  3  0  0  0  0  0  0
  180.9350  183.3440  137.5260 C   0  0  0  0  0  2  0  0  0  0  0  0
  181.5080  184.0040  136.4540 F   0  0  0  0  0  0  0  0  0  0  0  0
  182.2740  177.2950  138.2310 C   0  0  0  0  0  2  0  0  0  0  0  0
  182.1990  176.2730  139.1860 O   0  0  0  0  0  1  0  0  0  0  0  0
  1  4  1  6  0  0  0
  1 22  1  0  0  0  0
  2  4  2  0  0  0  0
  5  3  1  0  0  0  0
  5  2  2  0  0  0  0
  6  5  1  0  0  0  0
  7  8  1  0  0  0  0
  7  6  1  0  0  0  0
  9 14  1  0  0  0  0
  9  8  2  0  0  0  0
 10  9  1  0  0  0  0
 11  7  2  0  0  0  0
 12 10  1  0  0  0  0
 13 10  2  0  0  0  0
 13 11  1  0  0  0  0
 14 19  1  0  0  0  0
 15 18  1  0  0  0  0
 16 20  1  0  0  0  0
 17 16  1  0  0  0  0
 18 16  2  0  0  0  0
 19 17  2  0  0  0  0
 21 15  2  0  0  0  0
 21 19  1  0  0  0  0
 22 23  1  6  0  0  0
 22 34  1  0  0  0  0
 24 35  1  0  0  0  0
 24 31  1  0  0  0  0
 25 33  2  0  0  0  0
 26 27  1  0  0  0  0
 27 30  1  6  0  0  0
 27 33  1  0  0  0  0
 29 31  2  0  0  0  0
 30 24  2  0  0  0  0
 31 28  1  0  0  0  0
 32 26  2  0  0  0  0
 32 34  1  0  0  0  0
 33 29  1  0  0  0  0
 34 25  1  0  0  0  0
 36 39  1  0  0  0  0
 36 35  1  0  0  0  0
 36 37  1  0  0  0  0
 38 36  2  0  0  0  0
 40 26  1  0  0  0  0
 41 42  1  0  0  0  0
 43 40  1  0  0  0  0
 43 42  2  0  0  0  0
 44 41  2  0  0  0  0
 45 43  1  0  0  0  0
 46 45  2  0  0  0  0
 46 44  1  0  0  0  0
 47  1  1  0  0  0  0
 48 49  1  1  0  0  0
 48 47  1  0  0  0  0
 50 48  1  0  0  0  0
 51 50  1  0  0  0  0
 52 57  1  0  0  0  0
 52 56  2  0  0  0  0
 53 55  1  0  0  0  0
 53 52  1  0  0  0  0
 54 56  1  0  0  0  0
 54 51  1  0  0  0  0
 55 54  2  0  0  0  0
 58 57  1  0  0  0  0
 59 51  1  0  0  0  0
 59 60  1  0  0  0  0
M  END
>  <MODEL>
4

>  <REMARK>
 VINA RESULT:      -8.8      4.419     11.039
  Name = 
  18 active torsions:
  status: ('A' for Active; 'I' for Inactive)
    1  A    between atoms: C_2  and  O_38
    2  A    between atoms: C_6  and  C_9
    3  A    between atoms: C_10  and  C_55
    4  A    between atoms: C_12  and  C_47
    5  A    between atoms: C_13  and  C_44
    6  A    between atoms: C_13  and  O_54
    7  A    between atoms: C_14  and  C_29
    8  A    between atoms: P_15  and  O_38
    9  A    between atoms: C_17  and  C_55
   10  A    between atoms: C_17  and  N_60
   11  A    between atoms: C_23  and  C_29
   12  A    between atoms: N_24  and  C_26
   13  A    between atoms: N_24  and  C_34
   14  A    between atoms: N_24  and  C_44
   15  A    between atoms: C_28  and  N_59
   16  A    between atoms: C_31  and  C_47
   17  A    between atoms: C_36  and  N_59
   18  A    between atoms: O_54  and  C_55
                            x       y       z     vdW  Elec       q    Type
                         _______ _______ _______ _____ _____    ______ ____

>  <TORSDO>
F 18

$$$$
=
 OpenBabel11042412253D

 60 65  0  0  1  0  0  0  0  0999 V2000
  184.1470  178.7030  139.4520 C   0  0  1  0  0  3  0  0  0  0  0  0
  184.2400  177.2650  137.4450 C   0  0  0  0  0  0  0  0  0  0  0  0
  183.1880  177.0960  135.2830 C   0  0  0  0  0  1  0  0  0  0  0  0
  184.0950  177.3790  138.7410 C   0  0  0  0  0  3  0  0  0  0  0  0
  184.3880  177.1430  136.1550 C   0  0  0  0  0  0  0  0  0  0  0  0
  185.7370  176.9090  135.5600 C   0  0  0  0  0  2  0  0  0  0  0  0
  186.3390  175.6260  136.0340 C   0  0  0  0  0  0  0  0  0  0  0  0
  187.6670  175.5660  136.4760 C   0  0  0  0  0  3  0  0  0  0  0  0
  188.2300  174.3430  136.8600 C   0  0  0  0  0  0  0  0  0  0  0  0
  187.4390  173.1790  136.8460 C   0  0  0  0  0  0  0  0  0  0  0  0
  185.5650  174.4620  136.0070 C   0  0  0  0  0  3  0  0  0  0  0  0
  187.9290  171.9950  137.2830 F   0  0  0  0  0  0  0  0  0  0  0  0
  186.1110  173.2440  136.4170 C   0  0  0  0  0  3  0  0  0  0  0  0
  189.5990  174.3180  137.2850 N   0  0  0  0  0  2  0  0  0  0  0  0
  190.3330  177.2220  139.5470 C   0  0  0  0  0  3  0  0  0  0  0  0
  192.3700  176.5220  138.4460 C   0  0  0  0  0  0  0  0  0  0  0  0
  191.6620  175.5360  137.7540 C   0  0  0  0  0  3  0  0  0  0  0  0
  191.7070  177.3650  139.3410 C   0  0  0  0  0  3  0  0  0  0  0  0
  190.2850  175.3890  137.9500 C   0  0  0  0  0  0  0  0  0  0  0  0
  193.7720  176.6440  138.2590 N   0  0  0  0  0  1  0  0  0  0  0  0
  189.6250  176.2320  138.8590 C   0  0  0  0  0  3  0  0  0  0  0  0
  185.5840  179.0810  139.8310 C   0  0  2  0  0  3  0  0  0  0  0  0
  186.4910  178.6620  138.8510 O   0  0  0  0  0  1  0  0  0  0  0  0
  186.2670  177.7690  146.0330 C   0  0  0  0  0  0  0  0  0  0  0  0
  185.1610  178.9020  142.2440 N   0  0  0  0  0  0  0  0  0  0  0  0
  187.4460  177.2570  142.5060 C   0  0  0  0  0  0  0  0  0  0  0  0
  186.3950  177.2780  143.5900 C   0  0  1  0  0  3  0  0  0  0  0  0
  184.2740  178.9330  146.8690 F   0  0  0  0  0  0  0  0  0  0  0  0
  184.5930  178.8150  144.5700 C   0  0  0  0  0  3  0  0  0  0  0  0
  186.9440  177.2480  144.9940 C   0  0  0  0  0  3  0  0  0  0  0  0
  185.0010  178.5050  145.8070 C   0  0  0  0  0  0  0  0  0  0  0  0
  187.1730  177.8090  141.3230 C   0  0  0  0  0  3  0  0  0  0  0  0
  185.3730  178.3770  143.4120 C   0  0  0  0  0  0  0  0  0  0  0  0
  185.9680  178.5700  141.1410 N   0  0  0  0  0  0  0  0  0  0  0  0
  186.7400  177.6600  147.3470 O   0  0  0  0  0  0  0  0  0  0  0  0
  188.4090  177.7060  147.7800 P   0  0  0  0  0  0  0  0  0  0  0  0
  189.2310  178.7530  146.7390 O   0  0  0  0  0  0  0  0  0  0  0  0
  189.0610  176.1490  147.6430 O   0  0  0  0  0  1  0  0  0  0  0  0
  188.5570  178.1910  149.2040 O   0  0  0  0  0  1  0  0  0  0  0  0
  188.6920  176.4380  142.6360 C   0  0  0  0  0  2  0  0  0  0  0  0
  191.0080  179.2570  143.7110 C   0  0  0  0  0  3  0  0  0  0  0  0
  189.9880  178.5620  143.0520 C   0  0  0  0  0  3  0  0  0  0  0  0
  189.8040  177.1930  143.2910 C   0  0  0  0  0  0  0  0  0  0  0  0
  191.8390  178.5890  144.6210 C   0  0  0  0  0  3  0  0  0  0  0  0
  190.6270  176.5330  144.2180 C   0  0  0  0  0  3  0  0  0  0  0  0
  191.6450  177.2290  144.8770 C   0  0  0  0  0  3  0  0  0  0  0  0
  183.5080  179.7270  138.7300 O   0  0  0  0  0  0  0  0  0  0  0  0
  182.1720  179.3190  138.6470 C   0  0  2  0  0  3  0  0  0  0  0  0
  181.5400  180.0150  137.6150 O   0  0  0  0  0  1  0  0  0  0  0  0
  181.4670  179.6370  139.9580 C   0  0  0  0  0  2  0  0  0  0  0  0
  180.6920  178.4900  140.4100 N   0  0  0  0  0  0  0  0  0  0  0  0
  180.5560  175.4830  138.2850 C   0  0  0  0  0  0  0  0  0  0  0  0
  179.2220  176.2420  137.6050 S   0  0  0  0  0  0  0  0  0  0  0  0
  180.3200  177.4700  139.4650 C   0  0  0  0  0  0  0  0  0  0  0  0
  179.2430  177.6110  138.5840 C   0  0  0  0  0  3  0  0  0  0  0  0
  181.0580  176.2800  139.3000 C   0  0  0  0  0  3  0  0  0  0  0  0
  181.1490  174.1990  137.8190 C   0  0  0  0  0  2  0  0  0  0  0  0
  181.9600  174.4220  136.7200 F   0  0  0  0  0  0  0  0  0  0  0  0
  179.9550  178.6280  141.6660 C   0  0  0  0  0  2  0  0  0  0  0  0
  179.4630  177.3810  142.0710 O   0  0  0  0  0  1  0  0  0  0  0  0
  1  4  1  6  0  0  0
  1 22  1  0  0  0  0
  2  4  2  0  0  0  0
  3  5  1  0  0  0  0
  5  2  2  0  0  0  0
  6  7  1  0  0  0  0
  6  5  1  0  0  0  0
  7  8  1  0  0  0  0
  8  9  2  0  0  0  0
  9 14  1  0  0  0  0
 10  9  1  0  0  0  0
 10 12  1  0  0  0  0
 11  7  2  0  0  0  0
 11 13  1  0  0  0  0
 13 10  2  0  0  0  0
 14 19  1  0  0  0  0
 16 18  2  0  0  0  0
 17 19  2  0  0  0  0
 17 16  1  0  0  0  0
 18 15  1  0  0  0  0
 19 21  1  0  0  0  0
 20 16  1  0  0  0  0
 21 15  2  0  0  0  0
 22 23  1  6  0  0  0
 22 34  1  0  0  0  0
 24 35  1  0  0  0  0
 25 33  2  0  0  0  0
 26 40  1  0  0  0  0
 26 27  1  0  0  0  0
 27 30  1  1  0  0  0
 29 31  2  0  0  0  0
 30 24  2  0  0  0  0
 31 24  1  0  0  0  0
 31 28  1  0  0  0  0
 32 26  2  0  0  0  0
 33 27  1  0  0  0  0
 33 29  1  0  0  0  0
 34 32  1  0  0  0  0
 34 25  1  0  0  0  0
 35 36  1  0  0  0  0
 36 39  1  0  0  0  0
 37 36  2  0  0  0  0
 38 36  1  0  0  0  0
 40 43  1  0  0  0  0
 41 44  1  0  0  0  0
 42 43  1  0  0  0  0
 42 41  2  0  0  0  0
 43 45  2  0  0  0  0
 44 46  2  0  0  0  0
 45 46  1  0  0  0  0
 47  1  1  0  0  0  0
 48 49  1  6  0  0  0
 48 47  1  0  0  0  0
 48 50  1  0  0  0  0
 50 51  1  0  0  0  0
 51 59  1  0  0  0  0
 52 56  2  0  0  0  0
 53 52  1  0  0  0  0
 53 55  1  0  0  0  0
 54 51  1  0  0  0  0
 55 54  2  0  0  0  0
 56 54  1  0  0  0  0
 57 52  1  0  0  0  0
 58 57  1  0  0  0  0
 59 60  1  0  0  0  0
M  END
>  <MODEL>
5

>  <REMARK>
 VINA RESULT:      -8.4      4.250     10.380
  Name = 
  18 active torsions:
  status: ('A' for Active; 'I' for Inactive)
    1  A    between atoms: C_2  and  O_38
    2  A    between atoms: C_6  and  C_9
    3  A    between atoms: C_10  and  C_55
    4  A    between atoms: C_12  and  C_47
    5  A    between atoms: C_13  and  C_44
    6  A    between atoms: C_13  and  O_54
    7  A    between atoms: C_14  and  C_29
    8  A    between atoms: P_15  and  O_38
    9  A    between atoms: C_17  and  C_55
   10  A    between atoms: C_17  and  N_60
   11  A    between atoms: C_23  and  C_29
   12  A    between atoms: N_24  and  C_26
   13  A    between atoms: N_24  and  C_34
   14  A    between atoms: N_24  and  C_44
   15  A    between atoms: C_28  and  N_59
   16  A    between atoms: C_31  and  C_47
   17  A    between atoms: C_36  and  N_59
   18  A    between atoms: O_54  and  C_55
                            x       y       z     vdW  Elec       q    Type
                         _______ _______ _______ _____ _____    ______ ____

>  <TORSDO>
F 18

$$$$
=
 OpenBabel11042412253D

 60 65  0  0  1  0  0  0  0  0999 V2000
  183.0440  179.3380  142.8940 C   0  0  1  0  0  3  0  0  0  0  0  0
  183.9920  178.8880  145.1310 C   0  0  0  0  0  0  0  0  0  0  0  0
  184.9240  177.0430  146.3710 C   0  0  0  0  0  1  0  0  0  0  0  0
  183.0090  179.3450  144.3970 C   0  0  0  0  0  3  0  0  0  0  0  0
  184.9680  178.4380  145.8690 C   0  0  0  0  0  0  0  0  0  0  0  0
  186.0580  179.3490  146.3320 C   0  0  0  0  0  2  0  0  0  0  0  0
  187.3050  178.5980  146.6690 C   0  0  0  0  0  0  0  0  0  0  0  0
  188.2080  178.2030  145.6740 C   0  0  0  0  0  3  0  0  0  0  0  0
  189.3390  177.4480  146.0030 C   0  0  0  0  0  0  0  0  0  0  0  0
  189.5910  177.1270  147.3510 C   0  0  0  0  0  0  0  0  0  0  0  0
  187.5540  178.2600  148.0020 C   0  0  0  0  0  3  0  0  0  0  0  0
  190.7150  176.4640  147.7130 F   0  0  0  0  0  0  0  0  0  0  0  0
  188.6960  177.5320  148.3430 C   0  0  0  0  0  3  0  0  0  0  0  0
  190.2280  177.0440  144.9540 N   0  0  0  0  0  2  0  0  0  0  0  0
  188.4050  177.3930  141.6920 C   0  0  0  0  0  3  0  0  0  0  0  0
  190.7900  177.3900  141.2860 C   0  0  0  0  0  0  0  0  0  0  0  0
  191.0260  177.2230  142.6530 C   0  0  0  0  0  3  0  0  0  0  0  0
  189.4800  177.4740  140.8050 C   0  0  0  0  0  3  0  0  0  0  0  0
  189.9540  177.1360  143.5480 C   0  0  0  0  0  0  0  0  0  0  0  0
  191.8850  177.5040  140.3910 N   0  0  0  0  0  1  0  0  0  0  0  0
  188.6400  177.2320  143.0600 C   0  0  0  0  0  3  0  0  0  0  0  0
  184.3460  178.7230  142.3660 C   0  0  2  0  0  3  0  0  0  0  0  0
  185.4000  179.6420  142.4290 O   0  0  0  0  0  1  0  0  0  0  0  0
  182.9300  175.4040  137.1100 C   0  0  0  0  0  0  0  0  0  0  0  0
  183.2490  177.1860  140.7950 N   0  0  0  0  0  0  0  0  0  0  0  0
  184.8410  178.2180  138.6990 C   0  0  0  0  0  0  0  0  0  0  0  0
  183.5810  177.4450  138.3890 C   0  0  1  0  0  3  0  0  0  0  0  0
  181.1780  173.9660  138.0530 F   0  0  0  0  0  0  0  0  0  0  0  0
  182.0670  175.6390  139.3980 C   0  0  0  0  0  3  0  0  0  0  0  0
  183.6960  176.5050  137.2160 C   0  0  0  0  0  3  0  0  0  0  0  0
  182.0220  175.0150  138.2140 C   0  0  0  0  0  0  0  0  0  0  0  0
  185.0610  178.6310  139.9480 C   0  0  0  0  0  3  0  0  0  0  0  0
  182.9840  176.7630  139.5980 C   0  0  0  0  0  0  0  0  0  0  0  0
  184.2050  178.1940  141.0150 N   0  0  0  0  0  0  0  0  0  0  0  0
  182.9780  174.5810  135.9770 O   0  0  0  0  0  0  0  0  0  0  0  0
  183.6860  173.0080  135.9550 P   0  0  0  0  0  0  0  0  0  0  0  0
  182.4630  171.8420  135.9770 O   0  0  0  0  0  1  0  0  0  0  0  0
  184.6670  172.8220  137.3230 O   0  0  0  0  0  1  0  0  0  0  0  0
  184.5230  172.8390  134.7080 O   0  0  0  0  0  0  0  0  0  0  0  0
  185.7330  178.7320  137.6130 C   0  0  0  0  0  2  0  0  0  0  0  0
  189.4440  177.9280  137.4120 C   0  0  0  0  0  3  0  0  0  0  0  0
  188.2480  178.6520  137.4440 C   0  0  0  0  0  3  0  0  0  0  0  0
  187.0220  177.9790  137.5290 C   0  0  0  0  0  0  0  0  0  0  0  0
  189.4190  176.5280  137.4780 C   0  0  0  0  0  3  0  0  0  0  0  0
  187.0030  176.5780  137.6140 C   0  0  0  0  0  3  0  0  0  0  0  0
  188.2000  175.8540  137.5830 C   0  0  0  0  0  3  0  0  0  0  0  0
  181.9100  178.7240  142.3330 O   0  0  0  0  0  0  0  0  0  0  0  0
  180.8290  179.2770  143.0290 C   0  0  2  0  0  3  0  0  0  0  0  0
  180.3110  178.3260  143.9090 O   0  0  0  0  0  1  0  0  0  0  0  0
  179.7430  179.6760  142.0410 C   0  0  0  0  0  2  0  0  0  0  0  0
  179.7950  178.8280  140.8580 N   0  0  0  0  0  0  0  0  0  0  0  0
  180.8000  179.3680  137.3550 C   0  0  0  0  0  0  0  0  0  0  0  0
  181.5460  180.7410  137.9680 S   0  0  0  0  0  0  0  0  0  0  0  0
  180.3120  179.3620  139.6260 C   0  0  0  0  0  0  0  0  0  0  0  0
  181.0730  180.5340  139.5700 C   0  0  0  0  0  3  0  0  0  0  0  0
  180.1570  178.7060  138.3890 C   0  0  0  0  0  3  0  0  0  0  0  0
  180.8820  178.8980  135.9440 C   0  0  0  0  0  2  0  0  0  0  0  0
  180.7370  177.5220  135.8930 F   0  0  0  0  0  0  0  0  0  0  0  0
  178.9320  177.6470  140.8390 C   0  0  0  0  0  2  0  0  0  0  0  0
  179.5490  176.5930  141.5240 O   0  0  0  0  0  1  0  0  0  0  0  0
  1  4  1  1  0  0  0
  2  5  2  0  0  0  0
  4  2  2  0  0  0  0
  5  6  1  0  0  0  0
  5  3  1  0  0  0  0
  6  7  1  0  0  0  0
  7 11  1  0  0  0  0
  8  9  1  0  0  0  0
  8  7  2  0  0  0  0
  9 10  2  0  0  0  0
 10 12  1  0  0  0  0
 10 13  1  0  0  0  0
 11 13  2  0  0  0  0
 14  9  1  0  0  0  0
 15 21  1  0  0  0  0
 16 17  2  0  0  0  0
 17 19  1  0  0  0  0
 18 16  1  0  0  0  0
 18 15  2  0  0  0  0
 19 14  1  0  0  0  0
 20 16  1  0  0  0  0
 21 19  2  0  0  0  0
 22 23  1  6  0  0  0
 22  1  1  0  0  0  0
 24 30  2  0  0  0  0
 24 31  1  0  0  0  0
 25 34  1  0  0  0  0
 26 32  2  0  0  0  0
 27 30  1  6  0  0  0
 27 26  1  0  0  0  0
 27 33  1  0  0  0  0
 28 31  1  0  0  0  0
 29 33  1  0  0  0  0
 31 29  2  0  0  0  0
 32 34  1  0  0  0  0
 33 25  2  0  0  0  0
 34 22  1  0  0  0  0
 35 24  1  0  0  0  0
 36 35  1  0  0  0  0
 36 37  1  0  0  0  0
 36 38  1  0  0  0  0
 39 36  2  0  0  0  0
 40 26  1  0  0  0  0
 41 42  2  0  0  0  0
 41 44  1  0  0  0  0
 42 43  1  0  0  0  0
 43 40  1  0  0  0  0
 43 45  2  0  0  0  0
 44 46  2  0  0  0  0
 46 45  1  0  0  0  0
 47  1  1  0  0  0  0
 47 48  1  0  0  0  0
 48 49  1  1  0  0  0
 50 48  1  0  0  0  0
 51 50  1  0  0  0  0
 52 53  1  0  0  0  0
 52 56  2  0  0  0  0
 53 55  1  0  0  0  0
 54 51  1  0  0  0  0
 55 54  2  0  0  0  0
 56 54  1  0  0  0  0
 57 52  1  0  0  0  0
 58 57  1  0  0  0  0
 59 51  1  0  0  0  0
 59 60  1  0  0  0  0
M  END
>  <MODEL>
6

>  <REMARK>
 VINA RESULT:      -8.1      4.424      8.514
  Name = 
  18 active torsions:
  status: ('A' for Active; 'I' for Inactive)
    1  A    between atoms: C_2  and  O_38
    2  A    between atoms: C_6  and  C_9
    3  A    between atoms: C_10  and  C_55
    4  A    between atoms: C_12  and  C_47
    5  A    between atoms: C_13  and  C_44
    6  A    between atoms: C_13  and  O_54
    7  A    between atoms: C_14  and  C_29
    8  A    between atoms: P_15  and  O_38
    9  A    between atoms: C_17  and  C_55
   10  A    between atoms: C_17  and  N_60
   11  A    between atoms: C_23  and  C_29
   12  A    between atoms: N_24  and  C_26
   13  A    between atoms: N_24  and  C_34
   14  A    between atoms: N_24  and  C_44
   15  A    between atoms: C_28  and  N_59
   16  A    between atoms: C_31  and  C_47
   17  A    between atoms: C_36  and  N_59
   18  A    between atoms: O_54  and  C_55
                            x       y       z     vdW  Elec       q    Type
                         _______ _______ _______ _____ _____    ______ ____

>  <TORSDO>
F 18

$$$$
=
 OpenBabel11042412253D

 60 65  0  0  1  0  0  0  0  0999 V2000
  183.2760  178.5160  139.7420 C   0  0  1  0  0  3  0  0  0  0  0  0
  183.6660  177.2470  137.6590 C   0  0  0  0  0  0  0  0  0  0  0  0
  182.6800  176.9990  135.4730 C   0  0  0  0  0  1  0  0  0  0  0  0
  183.4950  177.2530  138.9560 C   0  0  0  0  0  3  0  0  0  0  0  0
  183.8410  177.2330  136.3660 C   0  0  0  0  0  0  0  0  0  0  0  0
  185.2130  177.3100  135.7810 C   0  0  0  0  0  2  0  0  0  0  0  0
  185.9800  176.0450  135.9950 C   0  0  0  0  0  0  0  0  0  0  0  0
  185.6000  174.8500  135.3700 C   0  0  0  0  0  3  0  0  0  0  0  0
  186.2950  173.6630  135.6300 C   0  0  0  0  0  0  0  0  0  0  0  0
  187.4110  173.6860  136.4890 C   0  0  0  0  0  0  0  0  0  0  0  0
  187.0780  176.0550  136.8590 C   0  0  0  0  0  3  0  0  0  0  0  0
  188.1510  172.5730  136.7020 F   0  0  0  0  0  0  0  0  0  0  0  0
  187.7950  174.8820  137.1010 C   0  0  0  0  0  3  0  0  0  0  0  0
  185.8630  172.4560  134.9890 N   0  0  0  0  0  2  0  0  0  0  0  0
  183.5120  169.6360  135.7660 C   0  0  0  0  0  3  0  0  0  0  0  0
  182.3560  171.7450  136.0310 C   0  0  0  0  0  0  0  0  0  0  0  0
  183.5100  172.4300  135.6420 C   0  0  0  0  0  3  0  0  0  0  0  0
  182.3560  170.3480  136.0930 C   0  0  0  0  0  3  0  0  0  0  0  0
  184.6700  171.7240  135.3090 C   0  0  0  0  0  0  0  0  0  0  0  0
  181.1940  172.4730  136.3930 N   0  0  0  0  0  1  0  0  0  0  0  0
  184.6680  170.3210  135.3830 C   0  0  0  0  0  3  0  0  0  0  0  0
  184.5780  179.3100  139.9020 C   0  0  2  0  0  3  0  0  0  0  0  0
  185.3840  179.1930  138.7640 O   0  0  0  0  0  1  0  0  0  0  0  0
  186.6640  178.1790  145.8200 C   0  0  0  0  0  0  0  0  0  0  0  0
  184.6400  178.9490  142.3310 N   0  0  0  0  0  0  0  0  0  0  0  0
  187.3490  178.1670  142.1290 C   0  0  0  0  0  0  0  0  0  0  0  0
  186.5430  177.8100  143.3550 C   0  0  1  0  0  3  0  0  0  0  0  0
  184.5640  178.5850  147.0260 F   0  0  0  0  0  0  0  0  0  0  0  0
  184.5220  178.6290  144.7030 C   0  0  0  0  0  3  0  0  0  0  0  0
  187.2940  177.9370  144.6560 C   0  0  0  0  0  3  0  0  0  0  0  0
  185.2070  178.4490  145.8390 C   0  0  0  0  0  0  0  0  0  0  0  0
  186.7200  178.6180  141.0440 C   0  0  0  0  0  3  0  0  0  0  0  0
  185.2010  178.5030  143.4120 C   0  0  0  0  0  0  0  0  0  0  0  0
  185.3190  178.9320  141.1000 N   0  0  0  0  0  0  0  0  0  0  0  0
  187.3540  178.2090  147.0390 O   0  0  0  0  0  0  0  0  0  0  0  0
  188.9790  177.6640  147.2410 P   0  0  0  0  0  0  0  0  0  0  0  0
  189.6170  178.3200  148.6620 O   0  0  0  0  0  1  0  0  0  0  0  0
  189.9050  178.1750  145.9190 O   0  0  0  0  0  0  0  0  0  0  0  0
  189.0080  176.1560  147.3230 O   0  0  0  0  0  1  0  0  0  0  0  0
  188.7990  177.8130  142.0130 C   0  0  0  0  0  2  0  0  0  0  0  0
  189.1930  178.5610  138.3050 C   0  0  0  0  0  3  0  0  0  0  0  0
  188.7150  178.6040  139.6190 C   0  0  0  0  0  3  0  0  0  0  0  0
  189.2600  177.7540  140.5920 C   0  0  0  0  0  0  0  0  0  0  0  0
  190.2270  177.6790  137.9620 C   0  0  0  0  0  3  0  0  0  0  0  0
  190.3070  176.8850  140.2470 C   0  0  0  0  0  3  0  0  0  0  0  0
  190.7860  176.8450  138.9330 C   0  0  0  0  0  3  0  0  0  0  0  0
  182.2410  179.3070  139.2120 O   0  0  0  0  0  0  0  0  0  0  0  0
  181.4670  179.6640  140.3210 C   0  0  2  0  0  3  0  0  0  0  0  0
  180.9560  178.5100  140.9180 O   0  0  0  0  0  1  0  0  0  0  0  0
  180.3060  180.5370  139.8670 C   0  0  0  0  0  2  0  0  0  0  0  0
  179.9310  180.2120  138.4980 N   0  0  0  0  0  0  0  0  0  0  0  0
  180.7780  183.2220  136.5500 C   0  0  0  0  0  0  0  0  0  0  0  0
  180.2620  182.3040  135.2430 S   0  0  0  0  0  0  0  0  0  0  0  0
  180.1870  181.1640  137.4490 C   0  0  0  0  0  0  0  0  0  0  0  0
  179.8980  180.9050  136.1060 C   0  0  0  0  0  3  0  0  0  0  0  0
  180.6800  182.4600  137.7020 C   0  0  0  0  0  3  0  0  0  0  0  0
  181.1980  184.6500  136.4890 C   0  0  0  0  0  2  0  0  0  0  0  0
  181.7190  185.0440  137.7090 F   0  0  0  0  0  0  0  0  0  0  0  0
  178.9310  179.1610  138.3050 C   0  0  0  0  0  2  0  0  0  0  0  0
  179.5360  178.0200  137.7650 O   0  0  0  0  0  1  0  0  0  0  0  0
  1  4  1  6  0  0  0
  1 22  1  0  0  0  0
  2  4  2  0  0  0  0
  3  5  1  0  0  0  0
  5  2  2  0  0  0  0
  6  7  1  0  0  0  0
  6  5  1  0  0  0  0
  7 11  1  0  0  0  0
  8  9  1  0  0  0  0
  8  7  2  0  0  0  0
  9 10  2  0  0  0  0
 10 12  1  0  0  0  0
 10 13  1  0  0  0  0
 11 13  2  0  0  0  0
 14 19  1  0  0  0  0
 14  9  1  0  0  0  0
 15 18  1  0  0  0  0
 16 18  2  0  0  0  0
 16 20  1  0  0  0  0
 17 16  1  0  0  0  0
 19 21  1  0  0  0  0
 19 17  2  0  0  0  0
 21 15  2  0  0  0  0
 22 23  1  6  0  0  0
 22 34  1  0  0  0  0
 24 31  1  0  0  0  0
 24 35  1  0  0  0  0
 25 33  2  0  0  0  0
 26 27  1  0  0  0  0
 27 33  1  0  0  0  0
 27 30  1  1  0  0  0
 29 31  2  0  0  0  0
 30 24  2  0  0  0  0
 31 28  1  0  0  0  0
 32 34  1  0  0  0  0
 32 26  2  0  0  0  0
 33 29  1  0  0  0  0
 34 25  1  0  0  0  0
 35 36  1  0  0  0  0
 36 39  1  0  0  0  0
 36 37  1  0  0  0  0
 38 36  2  0  0  0  0
 40 26  1  0  0  0  0
 41 42  1  0  0  0  0
 42 43  2  0  0  0  0
 43 40  1  0  0  0  0
 44 41  2  0  0  0  0
 44 46  1  0  0  0  0
 45 43  1  0  0  0  0
 46 45  2  0  0  0  0
 47  1  1  0  0  0  0
 47 48  1  0  0  0  0
 48 49  1  6  0  0  0
 50 48  1  0  0  0  0
 51 50  1  0  0  0  0
 52 56  2  0  0  0  0
 53 55  1  0  0  0  0
 53 52  1  0  0  0  0
 54 56  1  0  0  0  0
 54 51  1  0  0  0  0
 55 54  2  0  0  0  0
 57 52  1  0  0  0  0
 57 58  1  0  0  0  0
 59 51  1  0  0  0  0
 60 59  1  0  0  0  0
M  END
>  <MODEL>
7

>  <REMARK>
 VINA RESULT:      -8.0      4.700     11.027
  Name = 
  18 active torsions:
  status: ('A' for Active; 'I' for Inactive)
    1  A    between atoms: C_2  and  O_38
    2  A    between atoms: C_6  and  C_9
    3  A    between atoms: C_10  and  C_55
    4  A    between atoms: C_12  and  C_47
    5  A    between atoms: C_13  and  C_44
    6  A    between atoms: C_13  and  O_54
    7  A    between atoms: C_14  and  C_29
    8  A    between atoms: P_15  and  O_38
    9  A    between atoms: C_17  and  C_55
   10  A    between atoms: C_17  and  N_60
   11  A    between atoms: C_23  and  C_29
   12  A    between atoms: N_24  and  C_26
   13  A    between atoms: N_24  and  C_34
   14  A    between atoms: N_24  and  C_44
   15  A    between atoms: C_28  and  N_59
   16  A    between atoms: C_31  and  C_47
   17  A    between atoms: C_36  and  N_59
   18  A    between atoms: O_54  and  C_55
                            x       y       z     vdW  Elec       q    Type
                         _______ _______ _______ _____ _____    ______ ____

>  <TORSDO>
F 18

$$$$
=
 OpenBabel11042412253D

 60 65  0  0  1  0  0  0  0  0999 V2000
  183.6520  178.4600  142.2130 C   0  0  1  0  0  3  0  0  0  0  0  0
  184.2500  177.8690  139.8890 C   0  0  0  0  0  0  0  0  0  0  0  0
  183.3250  178.0630  137.6720 C   0  0  0  0  0  1  0  0  0  0  0  0
  184.0750  177.5020  141.1330 C   0  0  0  0  0  3  0  0  0  0  0  0
  184.4290  178.2280  138.6490 C   0  0  0  0  0  0  0  0  0  0  0  0
  185.7730  178.6690  138.1680 C   0  0  0  0  0  2  0  0  0  0  0  0
  186.4390  177.6190  137.3400 C   0  0  0  0  0  0  0  0  0  0  0  0
  187.4390  176.7970  137.8750 C   0  0  0  0  0  3  0  0  0  0  0  0
  188.0930  175.8590  137.0670 C   0  0  0  0  0  0  0  0  0  0  0  0
  187.7060  175.7140  135.7210 C   0  0  0  0  0  0  0  0  0  0  0  0
  186.0740  177.4800  135.9980 C   0  0  0  0  0  3  0  0  0  0  0  0
  188.2650  174.7660  134.9320 F   0  0  0  0  0  0  0  0  0  0  0  0
  186.7010  176.5270  135.1930 C   0  0  0  0  0  3  0  0  0  0  0  0
  189.1260  175.0510  137.6450 N   0  0  0  0  0  2  0  0  0  0  0  0
  192.6120  176.3780  137.2290 C   0  0  0  0  0  3  0  0  0  0  0  0
  192.5860  174.0110  136.7330 C   0  0  0  0  0  0  0  0  0  0  0  0
  191.2090  173.9720  136.9690 C   0  0  0  0  0  3  0  0  0  0  0  0
  193.2870  175.2120  136.8620 C   0  0  0  0  0  3  0  0  0  0  0  0
  190.5240  175.1360  137.3330 C   0  0  0  0  0  0  0  0  0  0  0  0
  193.2750  172.8180  136.3900 N   0  0  0  0  0  1  0  0  0  0  0  0
  191.2360  176.3390  137.4720 C   0  0  0  0  0  3  0  0  0  0  0  0
  184.8190  179.3440  142.6680 C   0  0  2  0  0  3  0  0  0  0  0  0
  185.4740  179.9200  141.5720 O   0  0  0  0  0  1  0  0  0  0  0  0
  188.6370  177.2400  147.3210 C   0  0  0  0  0  0  0  0  0  0  0  0
  185.8330  178.9770  144.8750 N   0  0  0  0  0  0  0  0  0  0  0  0
  187.4310  176.9180  143.7800 C   0  0  0  0  0  0  0  0  0  0  0  0
  187.2280  177.0120  145.2740 C   0  0  1  0  0  3  0  0  0  0  0  0
  187.7950  178.6530  149.1440 F   0  0  0  0  0  0  0  0  0  0  0  0
  186.7010  178.7360  147.0950 C   0  0  0  0  0  3  0  0  0  0  0  0
  188.4610  176.7220  146.0920 C   0  0  0  0  0  3  0  0  0  0  0  0
  187.6660  178.2190  147.8660 C   0  0  0  0  0  0  0  0  0  0  0  0
  186.6550  177.6400  142.9710 C   0  0  0  0  0  3  0  0  0  0  0  0
  186.5560  178.2940  145.7080 C   0  0  0  0  0  0  0  0  0  0  0  0
  185.7640  178.6270  143.5150 N   0  0  0  0  0  0  0  0  0  0  0  0
  189.7410  176.8980  148.1120 O   0  0  0  0  0  0  0  0  0  0  0  0
  191.3520  176.7540  147.5120 P   0  0  0  0  0  0  0  0  0  0  0  0
  191.6860  175.1290  147.1880 O   0  0  0  0  0  1  0  0  0  0  0  0
  192.4330  177.3300  148.6800 O   0  0  0  0  0  1  0  0  0  0  0  0
  191.5010  177.5620  146.2440 O   0  0  0  0  0  0  0  0  0  0  0  0
  188.3120  175.8720  143.1720 C   0  0  0  0  0  2  0  0  0  0  0  0
  190.4720  177.5050  140.5020 C   0  0  0  0  0  3  0  0  0  0  0  0
  189.3730  176.9160  141.1360 C   0  0  0  0  0  3  0  0  0  0  0  0
  189.4860  176.4610  142.4570 C   0  0  0  0  0  0  0  0  0  0  0  0
  191.6840  177.6520  141.1900 C   0  0  0  0  0  3  0  0  0  0  0  0
  190.6960  176.6280  143.1480 C   0  0  0  0  0  3  0  0  0  0  0  0
  191.7940  177.2180  142.5130 C   0  0  0  0  0  3  0  0  0  0  0  0
  182.5290  179.2230  141.8440 O   0  0  0  0  0  0  0  0  0  0  0  0
  181.8130  179.3940  143.0340 C   0  0  2  0  0  3  0  0  0  0  0  0
  181.8940  178.2260  143.7940 O   0  0  0  0  0  1  0  0  0  0  0  0
  180.3530  179.6690  142.7090 C   0  0  0  0  0  2  0  0  0  0  0  0
  180.0860  179.4090  141.3020 N   0  0  0  0  0  0  0  0  0  0  0  0
  180.2090  176.3060  139.3190 C   0  0  0  0  0  0  0  0  0  0  0  0
  179.4010  175.6450  140.6340 S   0  0  0  0  0  0  0  0  0  0  0  0
  179.9950  178.0480  140.8390 C   0  0  0  0  0  0  0  0  0  0  0  0
  179.3600  177.0410  141.5730 C   0  0  0  0  0  3  0  0  0  0  0  0
  180.4710  177.6410  139.5780 C   0  0  0  0  0  3  0  0  0  0  0  0
  180.5230  175.5910  138.0500 C   0  0  0  0  0  2  0  0  0  0  0  0
  181.6820  174.8480  138.1980 F   0  0  0  0  0  0  0  0  0  0  0  0
  180.3600  180.4880  140.3530 C   0  0  0  0  0  2  0  0  0  0  0  0
  179.1630  180.9430  139.7890 O   0  0  0  0  0  1  0  0  0  0  0  0
  1  4  1  6  0  0  0
  1 22  1  0  0  0  0
  2  4  2  0  0  0  0
  3  5  1  0  0  0  0
  5  2  2  0  0  0  0
  6  5  1  0  0  0  0
  7  8  1  0  0  0  0
  7  6  1  0  0  0  0
  9 14  1  0  0  0  0
  9  8  2  0  0  0  0
 10  9  1  0  0  0  0
 11  7  2  0  0  0  0
 12 10  1  0  0  0  0
 13 10  2  0  0  0  0
 13 11  1  0  0  0  0
 15 21  1  0  0  0  0
 16 18  1  0  0  0  0
 16 17  2  0  0  0  0
 17 19  1  0  0  0  0
 18 15  2  0  0  0  0
 19 21  2  0  0  0  0
 19 14  1  0  0  0  0
 20 16  1  0  0  0  0
 22 23  1  6  0  0  0
 22 34  1  0  0  0  0
 24 31  1  0  0  0  0
 24 35  1  0  0  0  0
 25 33  2  0  0  0  0
 26 27  1  0  0  0  0
 27 33  1  0  0  0  0
 27 30  1  1  0  0  0
 29 31  2  0  0  0  0
 30 24  2  0  0  0  0
 31 28  1  0  0  0  0
 32 34  1  0  0  0  0
 32 26  2  0  0  0  0
 33 29  1  0  0  0  0
 34 25  1  0  0  0  0
 36 35  1  0  0  0  0
 36 38  1  0  0  0  0
 37 36  1  0  0  0  0
 39 36  2  0  0  0  0
 40 26  1  0  0  0  0
 41 42  2  0  0  0  0
 41 44  1  0  0  0  0
 42 43  1  0  0  0  0
 43 45  2  0  0  0  0
 43 40  1  0  0  0  0
 44 46  2  0  0  0  0
 46 45  1  0  0  0  0
 47  1  1  0  0  0  0
 47 48  1  0  0  0  0
 48 49  1  1  0  0  0
 50 48  1  0  0  0  0
 51 50  1  0  0  0  0
 52 56  2  0  0  0  0
 52 53  1  0  0  0  0
 53 55  1  0  0  0  0
 54 51  1  0  0  0  0
 54 55  2  0  0  0  0
 56 54  1  0  0  0  0
 57 58  1  0  0  0  0
 57 52  1  0  0  0  0
 59 51  1  0  0  0  0
 60 59  1  0  0  0  0
M  END
>  <MODEL>
8

>  <REMARK>
 VINA RESULT:      -7.8      4.439     11.071
  Name = 
  18 active torsions:
  status: ('A' for Active; 'I' for Inactive)
    1  A    between atoms: C_2  and  O_38
    2  A    between atoms: C_6  and  C_9
    3  A    between atoms: C_10  and  C_55
    4  A    between atoms: C_12  and  C_47
    5  A    between atoms: C_13  and  C_44
    6  A    between atoms: C_13  and  O_54
    7  A    between atoms: C_14  and  C_29
    8  A    between atoms: P_15  and  O_38
    9  A    between atoms: C_17  and  C_55
   10  A    between atoms: C_17  and  N_60
   11  A    between atoms: C_23  and  C_29
   12  A    between atoms: N_24  and  C_26
   13  A    between atoms: N_24  and  C_34
   14  A    between atoms: N_24  and  C_44
   15  A    between atoms: C_28  and  N_59
   16  A    between atoms: C_31  and  C_47
   17  A    between atoms: C_36  and  N_59
   18  A    between atoms: O_54  and  C_55
                            x       y       z     vdW  Elec       q    Type
                         _______ _______ _______ _____ _____    ______ ____

>  <TORSDO>
F 18

$$$$
=
 OpenBabel11042412253D

 60 65  0  0  1  0  0  0  0  0999 V2000
  184.6000  177.9040  138.6310 C   0  0  1  0  0  3  0  0  0  0  0  0
  186.8610  178.1370  137.6630 C   0  0  0  0  0  0  0  0  0  0  0  0
  189.1580  177.8120  138.3170 C   0  0  0  0  0  1  0  0  0  0  0  0
  185.6960  178.6660  137.9380 C   0  0  0  0  0  3  0  0  0  0  0  0
  188.0230  177.6160  137.3820 C   0  0  0  0  0  0  0  0  0  0  0  0
  188.2630  176.9470  136.0680 C   0  0  0  0  0  2  0  0  0  0  0  0
  189.2810  175.8580  136.1770 C   0  0  0  0  0  0  0  0  0  0  0  0
  190.6190  176.0770  135.8230 C   0  0  0  0  0  3  0  0  0  0  0  0
  191.5450  175.0280  135.8750 C   0  0  0  0  0  0  0  0  0  0  0  0
  191.1340  173.7610  136.3310 C   0  0  0  0  0  0  0  0  0  0  0  0
  188.8780  174.5930  136.6120 C   0  0  0  0  0  3  0  0  0  0  0  0
  192.0200  172.7460  136.4660 F   0  0  0  0  0  0  0  0  0  0  0  0
  189.8020  173.5490  136.6940 C   0  0  0  0  0  3  0  0  0  0  0  0
  192.9000  175.2850  135.4850 N   0  0  0  0  0  2  0  0  0  0  0  0
  195.1000  174.5300  138.4300 C   0  0  0  0  0  3  0  0  0  0  0  0
  196.4390  174.5780  136.4150 C   0  0  0  0  0  0  0  0  0  0  0  0
  195.3040  174.8960  135.6640 C   0  0  0  0  0  3  0  0  0  0  0  0
  196.3380  174.3960  137.7970 C   0  0  0  0  0  3  0  0  0  0  0  0
  194.0610  175.0360  136.2910 C   0  0  0  0  0  0  0  0  0  0  0  0
  197.6880  174.4120  135.7650 N   0  0  0  0  0  1  0  0  0  0  0  0
  193.9640  174.8420  137.6790 C   0  0  0  0  0  3  0  0  0  0  0  0
  184.0080  178.7070  139.7950 C   0  0  2  0  0  3  0  0  0  0  0  0
  183.7520  180.0310  139.4180 O   0  0  0  0  0  1  0  0  0  0  0  0
  186.4210  178.5690  145.6950 C   0  0  0  0  0  0  0  0  0  0  0  0
  184.2250  178.4410  142.2280 N   0  0  0  0  0  0  0  0  0  0  0  0
  187.0250  178.7560  141.9950 C   0  0  0  0  0  0  0  0  0  0  0  0
  186.4290  178.1390  143.2370 C   0  0  1  0  0  3  0  0  0  0  0  0
  184.3370  178.1580  146.9270 F   0  0  0  0  0  0  0  0  0  0  0  0
  184.2610  178.1420  144.6050 C   0  0  0  0  0  3  0  0  0  0  0  0
  187.0850  178.5680  144.5250 C   0  0  0  0  0  3  0  0  0  0  0  0
  184.9720  178.2580  145.7330 C   0  0  0  0  0  0  0  0  0  0  0  0
  186.2610  178.9110  140.9130 C   0  0  0  0  0  3  0  0  0  0  0  0
  184.9250  178.2630  143.3060 C   0  0  0  0  0  0  0  0  0  0  0  0
  184.8480  178.6630  140.9860 N   0  0  0  0  0  0  0  0  0  0  0  0
  187.0580  178.8830  146.9030 O   0  0  0  0  0  0  0  0  0  0  0  0
  188.2810  177.9080  147.6310 P   0  0  0  0  0  0  0  0  0  0  0  0
  187.9020  176.2760  147.4120 O   0  0  0  0  0  1  0  0  0  0  0  0
  188.3510  178.2520  149.2870 O   0  0  0  0  0  1  0  0  0  0  0  0
  189.6200  178.2050  146.9970 O   0  0  0  0  0  0  0  0  0  0  0  0
  188.4980  178.9850  141.8620 C   0  0  0  0  0  2  0  0  0  0  0  0
  189.9630  175.6180  142.8530 C   0  0  0  0  0  3  0  0  0  0  0  0
  189.1670  176.5790  142.2220 C   0  0  0  0  0  3  0  0  0  0  0  0
  189.3040  177.9330  142.5560 C   0  0  0  0  0  0  0  0  0  0  0  0
  190.9090  176.0080  143.8100 C   0  0  0  0  0  3  0  0  0  0  0  0
  190.2660  178.3210  143.5020 C   0  0  0  0  0  3  0  0  0  0  0  0
  191.0630  177.3590  144.1310 C   0  0  0  0  0  3  0  0  0  0  0  0
  183.6060  177.4620  137.7390 O   0  0  0  0  0  0  0  0  0  0  0  0
  182.7790  176.6400  138.5130 C   0  0  2  0  0  3  0  0  0  0  0  0
  183.3810  175.3890  138.6610 O   0  0  0  0  0  1  0  0  0  0  0  0
  181.4430  176.4610  137.8080 C   0  0  0  0  0  2  0  0  0  0  0  0
  180.3440  176.7170  138.7280 N   0  0  0  0  0  0  0  0  0  0  0  0
  180.6030  178.9300  141.6620 C   0  0  0  0  0  0  0  0  0  0  0  0
  180.2660  180.1440  140.5540 S   0  0  0  0  0  0  0  0  0  0  0  0
  180.4130  177.8480  139.6160 C   0  0  0  0  0  0  0  0  0  0  0  0
  180.1740  179.1590  139.1920 C   0  0  0  0  0  3  0  0  0  0  0  0
  180.6540  177.7160  140.9980 C   0  0  0  0  0  3  0  0  0  0  0  0
  180.7470  179.1200  143.1330 C   0  0  0  0  0  2  0  0  0  0  0  0
  180.2240  178.0290  143.8050 F   0  0  0  0  0  0  0  0  0  0  0  0
  179.4440  175.6040  139.0290 C   0  0  0  0  0  2  0  0  0  0  0  0
  180.1880  174.4520  139.3110 O   0  0  0  0  0  1  0  0  0  0  0  0
  1  4  1  6  0  0  0
  1 22  1  0  0  0  0
  2  4  2  0  0  0  0
  5  2  2  0  0  0  0
  5  3  1  0  0  0  0
  6  7  1  0  0  0  0
  6  5  1  0  0  0  0
  7 11  1  0  0  0  0
  8  9  1  0  0  0  0
  8  7  2  0  0  0  0
  9 10  2  0  0  0  0
 10 12  1  0  0  0  0
 10 13  1  0  0  0  0
 11 13  2  0  0  0  0
 14  9  1  0  0  0  0
 14 19  1  0  0  0  0
 16 18  2  0  0  0  0
 17 19  2  0  0  0  0
 17 16  1  0  0  0  0
 18 15  1  0  0  0  0
 19 21  1  0  0  0  0
 20 16  1  0  0  0  0
 21 15  2  0  0  0  0
 22 23  1  6  0  0  0
 22 34  1  0  0  0  0
 24 31  1  0  0  0  0
 24 35  1  0  0  0  0
 25 33  2  0  0  0  0
 26 27  1  0  0  0  0
 27 33  1  0  0  0  0
 27 30  1  1  0  0  0
 29 31  2  0  0  0  0
 30 24  2  0  0  0  0
 31 28  1  0  0  0  0
 32 34  1  0  0  0  0
 32 26  2  0  0  0  0
 33 29  1  0  0  0  0
 34 25  1  0  0  0  0
 35 36  1  0  0  0  0
 36 38  1  0  0  0  0
 37 36  1  0  0  0  0
 39 36  2  0  0  0  0
 40 26  1  0  0  0  0
 40 43  1  0  0  0  0
 41 44  1  0  0  0  0
 42 43  1  0  0  0  0
 42 41  2  0  0  0  0
 43 45  2  0  0  0  0
 44 46  2  0  0  0  0
 45 46  1  0  0  0  0
 47 48  1  0  0  0  0
 47  1  1  0  0  0  0
 48 49  1  6  0  0  0
 50 48  1  0  0  0  0
 50 51  1  0  0  0  0
 51 59  1  0  0  0  0
 51 54  1  0  0  0  0
 52 57  1  0  0  0  0
 53 52  1  0  0  0  0
 54 56  1  0  0  0  0
 55 54  2  0  0  0  0
 55 53  1  0  0  0  0
 56 52  2  0  0  0  0
 57 58  1  0  0  0  0
 59 60  1  0  0  0  0
M  END
>  <MODEL>
9

>  <REMARK>
 VINA RESULT:      -7.7      4.249     10.791
  Name = 
  18 active torsions:
  status: ('A' for Active; 'I' for Inactive)
    1  A    between atoms: C_2  and  O_38
    2  A    between atoms: C_6  and  C_9
    3  A    between atoms: C_10  and  C_55
    4  A    between atoms: C_12  and  C_47
    5  A    between atoms: C_13  and  C_44
    6  A    between atoms: C_13  and  O_54
    7  A    between atoms: C_14  and  C_29
    8  A    between atoms: P_15  and  O_38
    9  A    between atoms: C_17  and  C_55
   10  A    between atoms: C_17  and  N_60
   11  A    between atoms: C_23  and  C_29
   12  A    between atoms: N_24  and  C_26
   13  A    between atoms: N_24  and  C_34
   14  A    between atoms: N_24  and  C_44
   15  A    between atoms: C_28  and  N_59
   16  A    between atoms: C_31  and  C_47
   17  A    between atoms: C_36  and  N_59
   18  A    between atoms: O_54  and  C_55
                            x       y       z     vdW  Elec       q    Type
                         _______ _______ _______ _____ _____    ______ ____

>  <TORSDO>
F 18

$$$$
