=
 OpenBabel11042412223D

 44 49  0  0  1  0  0  0  0  0999 V2000
  188.4750  177.1330  138.1190 C   0  0  2  0  0  3  0  0  0  0  0  0
  185.2420  178.8180  138.3240 C   0  0  0  0  0  3  0  0  0  0  0  0
  182.6100  176.5960  138.5430 C   0  0  0  0  0  3  0  0  0  0  0  0
  183.8510  178.5760  142.3620 C   0  0  0  0  0  0  0  0  0  0  0  0
  189.0020  175.9010  137.6010 N   0  0  0  0  0  0  0  0  0  0  0  0
  188.1720  175.2710  136.8560 C   0  0  0  0  0  3  0  0  0  0  0  0
  184.3720  175.7720  136.7980 C   0  0  0  0  0  3  0  0  0  0  0  0
  187.1140  177.1860  137.5270 C   0  0  0  0  0  0  0  0  0  0  0  0
  189.3140  178.2970  137.6190 C   0  0  0  0  0  1  0  0  0  0  0  0
  184.7480  178.7330  139.7050 C   0  0  0  0  0  0  0  0  0  0  0  0
  182.9390  178.4020  141.3100 C   0  0  0  0  0  0  0  0  0  0  0  0
  185.6590  175.1230  137.2040 C   0  0  2  0  0  3  0  0  0  0  0  0
  183.4970  176.1740  137.6820 C   0  0  0  0  0  0  0  0  0  0  0  0
  186.1960  178.0280  137.9160 C   0  0  0  0  0  0  0  0  0  0  0  0
  186.8550  175.9680  136.6920 C   0  0  2  0  0  3  0  0  0  0  0  0
  185.6440  178.9030  140.7640 C   0  0  0  0  0  3  0  0  0  0  0  0
  182.4750  178.0540  138.8480 C   0  0  0  0  0  2  0  0  0  0  0  0
  183.3910  178.4530  139.9710 C   0  0  0  0  0  0  0  0  0  0  0  0
  185.2010  178.8220  142.0820 C   0  0  0  0  0  3  0  0  0  0  0  0
  182.9720  171.7420  134.7350 C   0  0  0  0  0  3  0  0  0  0  0  0
  184.9330  173.5420  135.3130 C   0  0  0  0  0  2  0  0  0  0  0  0
  184.0070  172.4150  135.5510 C   0  0  0  0  0  0  0  0  0  0  0  0
  184.0030  171.9900  136.7580 C   0  0  0  0  0  0  0  0  0  0  0  0
  184.9440  172.6750  137.6610 C   0  0  0  0  0  2  0  0  0  0  0  0
  183.0750  171.0020  136.9820 O   0  0  0  0  0  0  0  0  0  0  0  0
  185.6220  173.6730  136.6880 C   0  0  2  0  0  3  0  0  0  0  0  0
  182.3790  170.7460  135.7610 C   0  0  0  0  0  3  0  0  0  0  0  0
  181.6000  178.1600  141.6380 O   0  0  0  0  0  0  0  0  0  0  0  0
  180.6530  180.1370  143.0020 O   0  0  0  0  0  1  0  0  0  0  0  0
  179.0250  178.3220  142.0880 N   0  0  0  0  0  1  0  0  0  0  0  0
  180.3370  179.3810  141.4730 P   0  0  2  0  0  0  0  0  0  0  0  0
  183.3830  178.5130  143.6780 O   0  0  0  0  0  0  0  0  0  0  0  0
  183.7630  179.4450  144.6820 C   0  0  0  0  0  2  0  0  0  0  0  0
  184.4020  178.7000  145.8390 C   0  0  0  0  0  2  0  0  0  0  0  0
  185.9180  178.7410  145.7210 C   0  0  0  0  0  2  0  0  0  0  0  0
  186.4760  177.3600  145.3970 C   0  0  0  0  0  2  0  0  0  0  0  0
  190.1830  177.6820  144.6360 C   0  0  1  0  0  3  0  0  0  0  0  0
  188.7850  177.1870  146.4700 C   0  0  0  0  0  0  0  0  0  0  0  0
  188.3650  176.9250  147.6280 O   0  0  0  0  0  0  0  0  0  0  0  0
  188.7090  177.7120  144.1900 C   0  0  0  0  0  2  0  0  0  0  0  0
  190.2100  177.3190  146.1250 C   0  0  0  0  0  2  0  0  0  0  0  0
  187.9330  177.3910  145.3650 N   0  0  0  0  0  0  0  0  0  0  0  0
  190.9540  176.6370  143.8460 C   0  0  0  0  0  2  0  0  0  0  0  0
  190.0210  175.8740  142.9260 C   0  0  0  0  0  1  0  0  0  0  0  0
  1  9  1  6  0  0  0
  2 10  1  0  0  0  0
  3 17  1  0  0  0  0
  4 32  1  0  0  0  0
  5  1  1  0  0  0  0
  6  5  2  0  0  0  0
  7 13  2  0  0  0  0
  8 14  2  0  0  0  0
  8  1  1  0  0  0  0
 10 18  2  0  0  0  0
 10 16  1  0  0  0  0
 11 28  1  0  0  0  0
 11  4  2  0  0  0  0
 12  7  1  6  0  0  0
 13  3  2  0  0  0  0
 14  2  2  0  0  0  0
 15  6  1  1  0  0  0
 15 12  1  0  0  0  0
 15  8  1  0  0  0  0
 16 19  2  0  0  0  0
 17 18  1  0  0  0  0
 18 11  1  0  0  0  0
 19  4  1  0  0  0  0
 20 22  1  0  0  0  0
 20 27  2  0  0  0  0
 21 22  1  0  0  0  0
 22 23  2  0  0  0  0
 23 25  1  0  0  0  0
 23 24  1  0  0  0  0
 26 21  1  6  0  0  0
 26 12  1  0  0  0  0
 26 24  1  0  0  0  0
 27 25  1  0  0  0  0
 31 28  1  0  0  0  0
 31 30  1  1  0  0  0
 31 29  1  0  0  0  0
 32 33  1  0  0  0  0
 33 34  1  0  0  0  0
 35 34  1  0  0  0  0
 36 35  1  0  0  0  0
 37 43  1  6  0  0  0
 37 41  1  0  0  0  0
 38 39  2  0  0  0  0
 40 37  1  0  0  0  0
 40 42  1  0  0  0  0
 41 38  1  0  0  0  0
 42 36  1  0  0  0  0
 42 38  1  0  0  0  0
 44 43  1  0  0  0  0
M  END
>  <MODEL>
1

>  <REMARK>
 VINA RESULT:      -9.1      0.000      0.000
  Name = 
  10 active torsions:
  status: ('A' for Active; 'I' for Inactive)
    1  A    between atoms: O_4  and  C_16
    2  A    between atoms: O_4  and  P_33
    3  A    between atoms: C_5  and  O_25
    4  A    between atoms: C_7  and  C_26
    5  A    between atoms: C_7  and  C_36
    6  A    between atoms: C_13  and  O_25
    7  A    between atoms: C_13  and  C_26
    8  A    between atoms: C_18  and  C_31
    9  A    between atoms: C_20  and  C_29
   10  A    between atoms: C_36  and  N_44
                            x       y       z     vdW  Elec       q    Type
                         _______ _______ _______ _____ _____    ______ ____

>  <TORSDO>
F 10

$$$$
=
 OpenBabel11042412223D

 44 49  0  0  1  0  0  0  0  0999 V2000
  190.0950  175.3050  137.8900 C   0  0  2  0  0  3  0  0  0  0  0  0
  187.6990  178.0330  137.5020 C   0  0  0  0  0  3  0  0  0  0  0  0
  184.4280  176.9470  137.6740 C   0  0  0  0  0  3  0  0  0  0  0  0
  186.0500  178.9320  141.3440 C   0  0  0  0  0  0  0  0  0  0  0  0
  190.1680  173.9010  137.5920 N   0  0  0  0  0  0  0  0  0  0  0  0
  189.2170  173.4960  136.8360 C   0  0  0  0  0  3  0  0  0  0  0  0
  185.8770  175.2910  136.2650 C   0  0  0  0  0  3  0  0  0  0  0  0
  188.8920  175.7410  137.1380 C   0  0  0  0  0  0  0  0  0  0  0  0
  191.3340  176.0040  137.3550 C   0  0  0  0  0  1  0  0  0  0  0  0
  187.1180  178.3450  138.8140 C   0  0  0  0  0  0  0  0  0  0  0  0
  185.2100  178.9290  140.2210 C   0  0  0  0  0  0  0  0  0  0  0  0
  186.8070  174.3020  136.8970 C   0  0  2  0  0  3  0  0  0  0  0  0
  185.1540  176.1090  136.9830 C   0  0  0  0  0  0  0  0  0  0  0  0
  188.3220  176.9030  137.3090 C   0  0  0  0  0  0  0  0  0  0  0  0
  188.2610  174.5780  136.4320 C   0  0  2  0  0  3  0  0  0  0  0  0
  187.9410  178.3510  139.9440 C   0  0  0  0  0  3  0  0  0  0  0  0
  184.8170  178.3870  137.7820 C   0  0  0  0  0  2  0  0  0  0  0  0
  185.7380  178.6070  138.9490 C   0  0  0  0  0  0  0  0  0  0  0  0
  187.4110  178.6390  141.1990 C   0  0  0  0  0  3  0  0  0  0  0  0
  183.2150  171.7440  134.5940 C   0  0  0  0  0  3  0  0  0  0  0  0
  185.6600  172.8090  135.1480 C   0  0  0  0  0  2  0  0  0  0  0  0
  184.3780  172.1280  135.4250 C   0  0  0  0  0  0  0  0  0  0  0  0
  184.1570  171.9180  136.6680 C   0  0  0  0  0  0  0  0  0  0  0  0
  185.2320  172.3580  137.5720 C   0  0  0  0  0  2  0  0  0  0  0  0
  182.9230  171.3640  136.9130 O   0  0  0  0  0  0  0  0  0  0  0  0
  186.2750  172.8960  136.5610 C   0  0  2  0  0  3  0  0  0  0  0  0
  182.2480  171.1870  135.6660 C   0  0  0  0  0  3  0  0  0  0  0  0
  183.8570  179.2300  140.4140 O   0  0  0  0  0  0  0  0  0  0  0  0
  181.5650  178.4860  139.4840 O   0  0  0  0  0  1  0  0  0  0  0  0
  181.8180  178.9530  142.0330 N   0  0  0  0  0  1  0  0  0  0  0  0
  182.6400  177.9980  140.7560 P   0  0  2  0  0  0  0  0  0  0  0  0
  185.5040  179.2450  142.5930 O   0  0  0  0  0  0  0  0  0  0  0  0
  185.2330  178.2670  143.5880 C   0  0  0  0  0  2  0  0  0  0  0  0
  184.8650  178.9630  144.8860 C   0  0  0  0  0  2  0  0  0  0  0  0
  185.8660  178.6140  145.9760 C   0  0  0  0  0  2  0  0  0  0  0  0
  186.4970  177.2500  145.7190 C   0  0  0  0  0  2  0  0  0  0  0  0
  190.2250  177.7150  145.1600 C   0  0  1  0  0  3  0  0  0  0  0  0
  188.7460  177.1900  146.9220 C   0  0  0  0  0  0  0  0  0  0  0  0
  188.2730  176.9300  148.0600 O   0  0  0  0  0  0  0  0  0  0  0  0
  188.7790  177.6760  144.6330 C   0  0  0  0  0  2  0  0  0  0  0  0
  190.1830  177.3770  146.6550 C   0  0  0  0  0  2  0  0  0  0  0  0
  187.9510  177.3420  145.7680 N   0  0  0  0  0  0  0  0  0  0  0  0
  191.0810  176.6920  144.4340 C   0  0  0  0  0  2  0  0  0  0  0  0
  190.7090  176.6350  142.9650 C   0  0  0  0  0  1  0  0  0  0  0  0
  1  9  1  6  0  0  0
  2 10  1  0  0  0  0
  3 17  1  0  0  0  0
  4 32  1  0  0  0  0
  5  1  1  0  0  0  0
  6  5  2  0  0  0  0
  7 13  2  0  0  0  0
  8 14  2  0  0  0  0
  8  1  1  0  0  0  0
 10 18  2  0  0  0  0
 10 16  1  0  0  0  0
 11 28  1  0  0  0  0
 11  4  2  0  0  0  0
 12  7  1  6  0  0  0
 13  3  2  0  0  0  0
 14  2  2  0  0  0  0
 15  6  1  1  0  0  0
 15 12  1  0  0  0  0
 15  8  1  0  0  0  0
 16 19  2  0  0  0  0
 17 18  1  0  0  0  0
 18 11  1  0  0  0  0
 19  4  1  0  0  0  0
 20 22  1  0  0  0  0
 20 27  2  0  0  0  0
 21 22  1  0  0  0  0
 22 23  2  0  0  0  0
 23 25  1  0  0  0  0
 23 24  1  0  0  0  0
 26 21  1  6  0  0  0
 26 12  1  0  0  0  0
 26 24  1  0  0  0  0
 27 25  1  0  0  0  0
 28 31  1  0  0  0  0
 31 29  1  6  0  0  0
 31 30  1  0  0  0  0
 32 33  1  0  0  0  0
 33 34  1  0  0  0  0
 34 35  1  0  0  0  0
 36 42  1  0  0  0  0
 36 35  1  0  0  0  0
 37 43  1  6  0  0  0
 37 41  1  0  0  0  0
 38 39  2  0  0  0  0
 40 37  1  0  0  0  0
 40 42  1  0  0  0  0
 41 38  1  0  0  0  0
 42 38  1  0  0  0  0
 44 43  1  0  0  0  0
M  END
>  <MODEL>
2

>  <REMARK>
 VINA RESULT:      -8.4      1.475      1.921
  Name = 
  10 active torsions:
  status: ('A' for Active; 'I' for Inactive)
    1  A    between atoms: O_4  and  C_16
    2  A    between atoms: O_4  and  P_33
    3  A    between atoms: C_5  and  O_25
    4  A    between atoms: C_7  and  C_26
    5  A    between atoms: C_7  and  C_36
    6  A    between atoms: C_13  and  O_25
    7  A    between atoms: C_13  and  C_26
    8  A    between atoms: C_18  and  C_31
    9  A    between atoms: C_20  and  C_29
   10  A    between atoms: C_36  and  N_44
                            x       y       z     vdW  Elec       q    Type
                         _______ _______ _______ _____ _____    ______ ____

>  <TORSDO>
F 10

$$$$
=
 OpenBabel11042412223D

 44 49  0  0  1  0  0  0  0  0999 V2000
  188.1340  177.0620  136.9690 C   0  0  2  0  0  3  0  0  0  0  0  0
  185.4900  178.9450  138.6420 C   0  0  0  0  0  3  0  0  0  0  0  0
  182.8690  176.9330  139.6370 C   0  0  0  0  0  3  0  0  0  0  0  0
  185.7380  178.1730  142.8410 C   0  0  0  0  0  0  0  0  0  0  0  0
  188.2490  175.8910  136.1450 N   0  0  0  0  0  0  0  0  0  0  0  0
  187.1200  175.4560  135.7260 C   0  0  0  0  0  3  0  0  0  0  0  0
  183.6950  176.2610  137.2510 C   0  0  0  0  0  3  0  0  0  0  0  0
  186.6720  177.3170  136.9800 C   0  0  0  0  0  0  0  0  0  0  0  0
  188.8670  178.2210  136.3120 C   0  0  0  0  0  1  0  0  0  0  0  0
  185.5580  178.6800  140.0850 C   0  0  0  0  0  0  0  0  0  0  0  0
  184.4780  178.2420  142.2300 C   0  0  0  0  0  0  0  0  0  0  0  0
  184.9380  175.4550  137.0310 C   0  0  2  0  0  3  0  0  0  0  0  0
  183.2910  176.5840  138.4510 C   0  0  0  0  0  0  0  0  0  0  0  0
  186.0970  178.1560  137.7980 C   0  0  0  0  0  0  0  0  0  0  0  0
  185.9490  176.2730  136.1840 C   0  0  2  0  0  3  0  0  0  0  0  0
  186.8070  178.6070  140.7090 C   0  0  0  0  0  3  0  0  0  0  0  0
  183.0610  178.3290  140.1360 C   0  0  0  0  0  2  0  0  0  0  0  0
  184.3830  178.4700  140.8370 C   0  0  0  0  0  0  0  0  0  0  0  0
  186.8970  178.3520  142.0760 C   0  0  0  0  0  3  0  0  0  0  0  0
  181.0730  172.7220  135.5000 C   0  0  0  0  0  3  0  0  0  0  0  0
  183.3230  174.2550  135.4320 C   0  0  0  0  0  2  0  0  0  0  0  0
  182.4250  173.1770  135.8940 C   0  0  0  0  0  0  0  0  0  0  0  0
  182.8410  172.5650  136.9380 C   0  0  0  0  0  0  0  0  0  0  0  0
  184.1430  173.0240  137.4500 C   0  0  0  0  0  2  0  0  0  0  0  0
  181.9540  171.6250  137.4050 O   0  0  0  0  0  0  0  0  0  0  0  0
  184.5090  174.1120  136.4100 C   0  0  2  0  0  3  0  0  0  0  0  0
  180.8050  171.6210  136.5550 C   0  0  0  0  0  3  0  0  0  0  0  0
  183.3480  178.0580  143.0350 O   0  0  0  0  0  0  0  0  0  0  0  0
  183.1580  179.0630  145.4060 O   0  0  0  0  0  1  0  0  0  0  0  0
  180.9890  178.4770  144.0910 N   0  0  0  0  0  1  0  0  0  0  0  0
  182.5110  179.3920  143.8310 P   0  0  2  0  0  0  0  0  0  0  0  0
  185.8080  177.9380  144.2180 O   0  0  0  0  0  0  0  0  0  0  0  0
  186.8140  177.1310  144.8170 C   0  0  0  0  0  2  0  0  0  0  0  0
  187.2900  177.7940  146.0970 C   0  0  0  0  0  2  0  0  0  0  0  0
  188.6260  177.2110  146.5300 C   0  0  0  0  0  2  0  0  0  0  0  0
  189.7770  178.1160  146.1060 C   0  0  0  0  0  2  0  0  0  0  0  0
  190.9920  177.3920  142.5810 C   0  0  1  0  0  3  0  0  0  0  0  0
  191.3780  176.6350  144.7820 C   0  0  0  0  0  0  0  0  0  0  0  0
  191.8470  176.0300  145.7820 O   0  0  0  0  0  0  0  0  0  0  0  0
  190.0860  178.1590  143.5630 C   0  0  0  0  0  2  0  0  0  0  0  0
  191.8140  176.3880  143.3960 C   0  0  0  0  0  2  0  0  0  0  0  0
  190.3820  177.6290  144.8730 N   0  0  0  0  0  0  0  0  0  0  0  0
  190.1500  176.6450  141.5600 C   0  0  0  0  0  2  0  0  0  0  0  0
  190.2650  177.3000  140.1970 C   0  0  0  0  0  1  0  0  0  0  0  0
  1  9  1  6  0  0  0
  1  8  1  0  0  0  0
  2 10  1  0  0  0  0
  3 17  1  0  0  0  0
  4 32  1  0  0  0  0
  5  1  1  0  0  0  0
  6  5  2  0  0  0  0
  7 13  2  0  0  0  0
  8 14  2  0  0  0  0
 10 16  2  0  0  0  0
 10 18  1  0  0  0  0
 11  4  1  0  0  0  0
 11 28  1  0  0  0  0
 12  7  1  6  0  0  0
 13  3  2  0  0  0  0
 14  2  2  0  0  0  0
 15  6  1  1  0  0  0
 15  8  1  0  0  0  0
 15 12  1  0  0  0  0
 16 19  1  0  0  0  0
 17 18  1  0  0  0  0
 18 11  2  0  0  0  0
 19  4  2  0  0  0  0
 20 22  1  0  0  0  0
 20 27  2  0  0  0  0
 21 22  1  0  0  0  0
 22 23  2  0  0  0  0
 23 25  1  0  0  0  0
 23 24  1  0  0  0  0
 26 21  1  6  0  0  0
 26 12  1  0  0  0  0
 26 24  1  0  0  0  0
 27 25  1  0  0  0  0
 28 31  1  0  0  0  0
 31 30  1  1  0  0  0
 31 29  1  0  0  0  0
 32 33  1  0  0  0  0
 33 34  1  0  0  0  0
 34 35  1  0  0  0  0
 36 35  1  0  0  0  0
 37 43  1  6  0  0  0
 37 41  1  0  0  0  0
 37 40  1  0  0  0  0
 38 42  1  0  0  0  0
 38 39  2  0  0  0  0
 40 42  1  0  0  0  0
 41 38  1  0  0  0  0
 42 36  1  0  0  0  0
 44 43  1  0  0  0  0
M  END
>  <MODEL>
3

>  <REMARK>
 VINA RESULT:      -8.1      1.676      2.169
  Name = 
  10 active torsions:
  status: ('A' for Active; 'I' for Inactive)
    1  A    between atoms: O_4  and  C_16
    2  A    between atoms: O_4  and  P_33
    3  A    between atoms: C_5  and  O_25
    4  A    between atoms: C_7  and  C_26
    5  A    between atoms: C_7  and  C_36
    6  A    between atoms: C_13  and  O_25
    7  A    between atoms: C_13  and  C_26
    8  A    between atoms: C_18  and  C_31
    9  A    between atoms: C_20  and  C_29
   10  A    between atoms: C_36  and  N_44
                            x       y       z     vdW  Elec       q    Type
                         _______ _______ _______ _____ _____    ______ ____

>  <TORSDO>
F 10

$$$$
=
 OpenBabel11042412223D

 44 49  0  0  1  0  0  0  0  0999 V2000
  184.9030  178.2940  140.5160 C   0  0  2  0  0  3  0  0  0  0  0  0
  188.3610  178.6000  139.3840 C   0  0  0  0  0  3  0  0  0  0  0  0
  190.5300  176.6570  141.2370 C   0  0  0  0  0  3  0  0  0  0  0  0
  189.3860  175.0570  137.2160 C   0  0  0  0  0  0  0  0  0  0  0  0
  184.2040  178.0520  141.7470 N   0  0  0  0  0  0  0  0  0  0  0  0
  184.9600  178.1200  142.7790 C   0  0  0  0  0  3  0  0  0  0  0  0
  188.7830  177.8280  142.7880 C   0  0  0  0  0  3  0  0  0  0  0  0
  186.2910  178.5620  140.9710 C   0  0  0  0  0  0  0  0  0  0  0  0
  184.3250  179.5240  139.8350 C   0  0  0  0  0  1  0  0  0  0  0  0
  188.7290  177.3840  138.6460 C   0  0  0  0  0  0  0  0  0  0  0  0
  190.3260  175.6240  138.0880 C   0  0  0  0  0  0  0  0  0  0  0  0
  187.3740  177.3370  142.9210 C   0  0  2  0  0  3  0  0  0  0  0  0
  189.6480  177.2280  142.0130 C   0  0  0  0  0  0  0  0  0  0  0  0
  187.3140  178.6070  140.1610 C   0  0  0  0  0  0  0  0  0  0  0  0
  186.3890  178.4450  142.4620 C   0  0  2  0  0  3  0  0  0  0  0  0
  187.8020  176.8050  137.7740 C   0  0  0  0  0  3  0  0  0  0  0  0
  190.9010  177.2670  139.9230 C   0  0  0  0  0  2  0  0  0  0  0  0
  189.9910  176.7800  138.8310 C   0  0  0  0  0  0  0  0  0  0  0  0
  188.1260  175.6500  137.0670 C   0  0  0  0  0  3  0  0  0  0  0  0
  186.8810  178.8060  147.6480 C   0  0  0  0  0  3  0  0  0  0  0  0
  186.2670  177.7970  145.1940 C   0  0  0  0  0  2  0  0  0  0  0  0
  187.0630  177.9970  146.4230 C   0  0  0  0  0  0  0  0  0  0  0  0
  188.2200  177.4500  146.3890 C   0  0  0  0  0  0  0  0  0  0  0  0
  188.5160  176.6990  145.1580 C   0  0  0  0  0  2  0  0  0  0  0  0
  188.9790  177.7190  147.5020 O   0  0  0  0  0  0  0  0  0  0  0  0
  187.1890  176.8670  144.3760 C   0  0  2  0  0  3  0  0  0  0  0  0
  188.2210  178.5520  148.3810 C   0  0  0  0  0  3  0  0  0  0  0  0
  191.5730  174.9980  138.2040 O   0  0  0  0  0  0  0  0  0  0  0  0
  192.5910  175.4140  135.8680 O   0  0  0  0  0  1  0  0  0  0  0  0
  193.9910  174.1510  137.6630 N   0  0  0  0  0  1  0  0  0  0  0  0
  193.0530  175.6740  137.5200 P   0  0  2  0  0  0  0  0  0  0  0  0
  189.7360  173.9090  136.4980 O   0  0  0  0  0  0  0  0  0  0  0  0
  188.8170  173.1910  135.6860 C   0  0  0  0  0  2  0  0  0  0  0  0
  188.0100  172.2480  136.5600 C   0  0  0  0  0  2  0  0  0  0  0  0
  186.5210  172.4520  136.3240 C   0  0  0  0  0  2  0  0  0  0  0  0
  185.8110  172.8270  137.6200 C   0  0  0  0  0  2  0  0  0  0  0  0
  182.5770  174.6780  136.8840 C   0  0  1  0  0  3  0  0  0  0  0  0
  183.3440  172.4550  137.0820 C   0  0  0  0  0  0  0  0  0  0  0  0
  183.4050  171.1980  137.0780 O   0  0  0  0  0  0  0  0  0  0  0  0
  184.0760  174.6740  137.2370 C   0  0  0  0  0  2  0  0  0  0  0  0
  182.1150  173.2180  136.8060 C   0  0  0  0  0  2  0  0  0  0  0  0
  184.4550  173.2840  137.3460 N   0  0  0  0  0  0  0  0  0  0  0  0
  181.7830  175.4020  137.9570 C   0  0  0  0  0  2  0  0  0  0  0  0
  182.6800  175.7710  139.1230 C   0  0  0  0  0  1  0  0  0  0  0  0
  1  9  1  1  0  0  0
  1  8  1  0  0  0  0
  1  5  1  0  0  0  0
  2 14  2  0  0  0  0
  3 13  2  0  0  0  0
  4 11  1  0  0  0  0
  5  6  2  0  0  0  0
  8 15  1  0  0  0  0
 10 18  1  0  0  0  0
 10  2  1  0  0  0  0
 11 28  1  0  0  0  0
 11 18  2  0  0  0  0
 12  7  1  1  0  0  0
 12 26  1  0  0  0  0
 13  7  2  0  0  0  0
 14  8  2  0  0  0  0
 15  6  1  6  0  0  0
 15 12  1  0  0  0  0
 16 10  2  0  0  0  0
 17  3  1  0  0  0  0
 18 17  1  0  0  0  0
 19  4  2  0  0  0  0
 19 16  1  0  0  0  0
 20 27  2  0  0  0  0
 21 22  1  0  0  0  0
 22 20  1  0  0  0  0
 23 22  2  0  0  0  0
 23 25  1  0  0  0  0
 24 23  1  0  0  0  0
 25 27  1  0  0  0  0
 26 24  1  1  0  0  0
 26 21  1  0  0  0  0
 31 29  1  6  0  0  0
 31 30  1  0  0  0  0
 31 28  1  0  0  0  0
 32  4  1  0  0  0  0
 33 32  1  0  0  0  0
 33 34  1  0  0  0  0
 35 34  1  0  0  0  0
 35 36  1  0  0  0  0
 37 40  1  0  0  0  0
 37 43  1  1  0  0  0
 38 42  1  0  0  0  0
 39 38  2  0  0  0  0
 40 42  1  0  0  0  0
 41 37  1  0  0  0  0
 41 38  1  0  0  0  0
 42 36  1  0  0  0  0
 43 44  1  0  0  0  0
M  END
>  <MODEL>
4

>  <REMARK>
 VINA RESULT:      -7.8      3.759     10.007
  Name = 
  10 active torsions:
  status: ('A' for Active; 'I' for Inactive)
    1  A    between atoms: O_4  and  C_16
    2  A    between atoms: O_4  and  P_33
    3  A    between atoms: C_5  and  O_25
    4  A    between atoms: C_7  and  C_26
    5  A    between atoms: C_7  and  C_36
    6  A    between atoms: C_13  and  O_25
    7  A    between atoms: C_13  and  C_26
    8  A    between atoms: C_18  and  C_31
    9  A    between atoms: C_20  and  C_29
   10  A    between atoms: C_36  and  N_44
                            x       y       z     vdW  Elec       q    Type
                         _______ _______ _______ _____ _____    ______ ____

>  <TORSDO>
F 10

$$$$
=
 OpenBabel11042412223D

 44 49  0  0  1  0  0  0  0  0999 V2000
  190.6200  176.2740  139.1280 C   0  0  2  0  0  3  0  0  0  0  0  0
  188.2590  178.8440  140.2020 C   0  0  0  0  0  3  0  0  0  0  0  0
  184.9790  177.9500  139.6060 C   0  0  0  0  0  3  0  0  0  0  0  0
  186.4060  177.5390  143.8290 C   0  0  0  0  0  0  0  0  0  0  0  0
  190.7040  175.2640  138.1100 N   0  0  0  0  0  0  0  0  0  0  0  0
  189.7940  175.3720  137.2150 C   0  0  0  0  0  3  0  0  0  0  0  0
  186.4970  177.2950  137.5830 C   0  0  0  0  0  3  0  0  0  0  0  0
  189.4610  177.0910  138.6890 C   0  0  0  0  0  0  0  0  0  0  0  0
  191.8890  177.1110  139.1200 C   0  0  0  0  0  1  0  0  0  0  0  0
  187.6080  178.4030  141.4420 C   0  0  0  0  0  0  0  0  0  0  0  0
  185.6290  178.1810  142.8540 C   0  0  0  0  0  0  0  0  0  0  0  0
  187.3880  176.0910  137.6060 C   0  0  2  0  0  3  0  0  0  0  0  0
  185.7390  177.6070  138.6000 C   0  0  0  0  0  0  0  0  0  0  0  0
  188.8870  177.9860  139.4470 C   0  0  0  0  0  0  0  0  0  0  0  0
  188.8660  176.5290  137.4330 C   0  0  2  0  0  3  0  0  0  0  0  0
  188.3680  177.7600  142.4230 C   0  0  0  0  0  3  0  0  0  0  0  0
  185.3670  179.0810  140.5050 C   0  0  0  0  0  2  0  0  0  0  0  0
  186.2240  178.5930  141.6390 C   0  0  0  0  0  0  0  0  0  0  0  0
  187.7720  177.3280  143.6060 C   0  0  0  0  0  3  0  0  0  0  0  0
  183.3630  174.4750  135.1680 C   0  0  0  0  0  3  0  0  0  0  0  0
  185.7320  175.7190  135.6750 C   0  0  0  0  0  2  0  0  0  0  0  0
  184.7350  174.6300  135.7020 C   0  0  0  0  0  0  0  0  0  0  0  0
  185.0650  173.6390  136.4430 C   0  0  0  0  0  0  0  0  0  0  0  0
  186.3830  173.7590  137.0880 C   0  0  0  0  0  2  0  0  0  0  0  0
  184.0890  172.6750  136.5260 O   0  0  0  0  0  0  0  0  0  0  0  0
  186.8700  175.1190  136.5290 C   0  0  2  0  0  3  0  0  0  0  0  0
  182.9720  173.0890  135.7360 C   0  0  0  0  0  3  0  0  0  0  0  0
  184.2680  178.3700  143.1220 O   0  0  0  0  0  0  0  0  0  0  0  0
  183.4200  178.9810  145.4830 O   0  0  0  0  0  1  0  0  0  0  0  0
  181.9550  179.5620  143.4110 N   0  0  0  0  0  1  0  0  0  0  0  0
  183.6460  179.7900  143.9650 P   0  0  2  0  0  0  0  0  0  0  0  0
  185.7950  177.1320  145.0190 O   0  0  0  0  0  0  0  0  0  0  0  0
  186.5100  176.9420  146.2330 C   0  0  0  0  0  2  0  0  0  0  0  0
  186.6080  178.2660  146.9670 C   0  0  0  0  0  2  0  0  0  0  0  0
  188.0190  178.4740  147.4960 C   0  0  0  0  0  2  0  0  0  0  0  0
  188.7310  177.1400  147.6850 C   0  0  0  0  0  2  0  0  0  0  0  0
  191.5710  177.5740  145.1990 C   0  0  1  0  0  3  0  0  0  0  0  0
  190.9830  176.1580  146.9930 C   0  0  0  0  0  0  0  0  0  0  0  0
  191.0110  175.2680  147.8840 O   0  0  0  0  0  0  0  0  0  0  0  0
  190.1980  177.9890  145.7630 C   0  0  0  0  0  2  0  0  0  0  0  0
  192.0560  176.3640  146.0060 C   0  0  0  0  0  2  0  0  0  0  0  0
  189.9180  177.0700  146.8420 N   0  0  0  0  0  0  0  0  0  0  0  0
  191.4460  177.1880  143.7350 C   0  0  0  0  0  2  0  0  0  0  0  0
  191.5890  175.6880  143.5680 C   0  0  0  0  0  1  0  0  0  0  0  0
  1  9  1  6  0  0  0
  2 10  1  0  0  0  0
  3 17  1  0  0  0  0
  4 32  1  0  0  0  0
  5  1  1  0  0  0  0
  6  5  2  0  0  0  0
  7 13  2  0  0  0  0
  8  1  1  0  0  0  0
  8 14  2  0  0  0  0
 10 18  2  0  0  0  0
 10 16  1  0  0  0  0
 11 28  1  0  0  0  0
 11  4  2  0  0  0  0
 12  7  1  6  0  0  0
 13  3  2  0  0  0  0
 14  2  2  0  0  0  0
 15  6  1  1  0  0  0
 15 12  1  0  0  0  0
 15  8  1  0  0  0  0
 16 19  2  0  0  0  0
 17 18  1  0  0  0  0
 18 11  1  0  0  0  0
 19  4  1  0  0  0  0
 20 22  1  0  0  0  0
 20 27  2  0  0  0  0
 21 22  1  0  0  0  0
 22 23  2  0  0  0  0
 23 25  1  0  0  0  0
 23 24  1  0  0  0  0
 26 21  1  1  0  0  0
 26 24  1  0  0  0  0
 26 12  1  0  0  0  0
 27 25  1  0  0  0  0
 28 31  1  0  0  0  0
 31 30  1  6  0  0  0
 31 29  1  0  0  0  0
 32 33  1  0  0  0  0
 33 34  1  0  0  0  0
 34 35  1  0  0  0  0
 35 36  1  0  0  0  0
 37 43  1  6  0  0  0
 37 40  1  0  0  0  0
 37 41  1  0  0  0  0
 38 39  2  0  0  0  0
 40 42  1  0  0  0  0
 41 38  1  0  0  0  0
 42 38  1  0  0  0  0
 42 36  1  0  0  0  0
 44 43  1  0  0  0  0
M  END
>  <MODEL>
5

>  <REMARK>
 VINA RESULT:      -7.3      1.992      2.788
  Name = 
  10 active torsions:
  status: ('A' for Active; 'I' for Inactive)
    1  A    between atoms: O_4  and  C_16
    2  A    between atoms: O_4  and  P_33
    3  A    between atoms: C_5  and  O_25
    4  A    between atoms: C_7  and  C_26
    5  A    between atoms: C_7  and  C_36
    6  A    between atoms: C_13  and  O_25
    7  A    between atoms: C_13  and  C_26
    8  A    between atoms: C_18  and  C_31
    9  A    between atoms: C_20  and  C_29
   10  A    between atoms: C_36  and  N_44
                            x       y       z     vdW  Elec       q    Type
                         _______ _______ _______ _____ _____    ______ ____

>  <TORSDO>
F 10

$$$$
=
 OpenBabel11042412223D

 44 49  0  0  1  0  0  0  0  0999 V2000
  183.6330  178.3030  141.0510 C   0  0  2  0  0  3  0  0  0  0  0  0
  185.6690  178.5740  138.0320 C   0  0  0  0  0  3  0  0  0  0  0  0
  188.8070  177.1960  138.4310 C   0  0  0  0  0  3  0  0  0  0  0  0
  185.8350  174.7270  136.1710 C   0  0  0  0  0  0  0  0  0  0  0  0
  183.8360  178.2810  142.4740 N   0  0  0  0  0  0  0  0  0  0  0  0
  185.0250  178.6080  142.8190 C   0  0  0  0  0  3  0  0  0  0  0  0
  188.1190  178.5560  140.5540 C   0  0  0  0  0  3  0  0  0  0  0  0
  184.9540  178.7430  140.5350 C   0  0  0  0  0  0  0  0  0  0  0  0
  182.5640  179.3270  140.7050 C   0  0  0  0  0  1  0  0  0  0  0  0
  185.7420  177.2560  137.3880 C   0  0  0  0  0  0  0  0  0  0  0  0
  186.9920  175.5190  136.2140 C   0  0  0  0  0  0  0  0  0  0  0  0
  187.1620  178.0200  141.5730 C   0  0  2  0  0  3  0  0  0  0  0  0
  188.4590  177.8620  139.5000 C   0  0  0  0  0  0  0  0  0  0  0  0
  185.2880  178.6800  139.2750 C   0  0  0  0  0  0  0  0  0  0  0  0
  185.9200  178.9450  141.6640 C   0  0  2  0  0  3  0  0  0  0  0  0
  184.5990  176.4540  137.3380 C   0  0  0  0  0  3  0  0  0  0  0  0
  188.2310  177.5400  137.0950 C   0  0  0  0  0  2  0  0  0  0  0  0
  186.9570  176.7820  136.8500 C   0  0  0  0  0  0  0  0  0  0  0  0
  184.6450  175.1980  136.7380 C   0  0  0  0  0  3  0  0  0  0  0  0
  191.6810  177.5580  143.6030 C   0  0  0  0  0  3  0  0  0  0  0  0
  189.2770  178.6290  142.8990 C   0  0  0  0  0  2  0  0  0  0  0  0
  190.2170  177.5980  143.3850 C   0  0  0  0  0  0  0  0  0  0  0  0
  189.6860  176.4450  143.5500 C   0  0  0  0  0  0  0  0  0  0  0  0
  188.2440  176.3790  143.2630 C   0  0  0  0  0  2  0  0  0  0  0  0
  190.5920  175.4790  143.9170 O   0  0  0  0  0  0  0  0  0  0  0  0
  187.9430  177.8530  142.8900 C   0  0  2  0  0  3  0  0  0  0  0  0
  191.8860  176.0780  144.0050 C   0  0  0  0  0  3  0  0  0  0  0  0
  188.1580  175.0070  135.6330 O   0  0  0  0  0  0  0  0  0  0  0  0
  190.6880  174.8450  136.1230 O   0  0  0  0  0  1  0  0  0  0  0  0
  189.4490  172.7880  135.1160 N   0  0  0  0  0  1  0  0  0  0  0  0
  189.2610  173.9280  136.4890 P   0  0  2  0  0  0  0  0  0  0  0  0
  185.8950  173.4780  135.5440 O   0  0  0  0  0  0  0  0  0  0  0  0
  185.7270  172.2510  136.2420 C   0  0  0  0  0  2  0  0  0  0  0  0
  184.4660  171.5650  135.7510 C   0  0  0  0  0  2  0  0  0  0  0  0
  183.2940  171.8980  136.6620 C   0  0  0  0  0  2  0  0  0  0  0  0
  182.1960  172.6240  135.8930 C   0  0  0  0  0  2  0  0  0  0  0  0
  179.9390  174.7200  138.1150 C   0  0  1  0  0  3  0  0  0  0  0  0
  180.1470  172.4790  137.4060 C   0  0  0  0  0  0  0  0  0  0  0  0
  179.9390  171.2520  137.2180 O   0  0  0  0  0  0  0  0  0  0  0  0
  181.1590  174.5780  137.1860 C   0  0  0  0  0  2  0  0  0  0  0  0
  179.3030  173.3330  138.2600 C   0  0  0  0  0  2  0  0  0  0  0  0
  181.2130  173.1840  136.8110 N   0  0  0  0  0  0  0  0  0  0  0  0
  180.3700  175.2230  139.4820 C   0  0  0  0  0  2  0  0  0  0  0  0
  181.8320  175.6280  139.4620 C   0  0  0  0  0  1  0  0  0  0  0  0
  1  9  1  1  0  0  0
  1  5  1  0  0  0  0
  2 14  2  0  0  0  0
  3 13  2  0  0  0  0
  4 11  2  0  0  0  0
  4 19  1  0  0  0  0
  5  6  2  0  0  0  0
  8  1  1  0  0  0  0
  8 15  1  0  0  0  0
 10  2  1  0  0  0  0
 11 18  1  0  0  0  0
 12  7  1  6  0  0  0
 12 15  1  0  0  0  0
 12 26  1  0  0  0  0
 13  7  2  0  0  0  0
 14  8  2  0  0  0  0
 15  6  1  1  0  0  0
 16 10  1  0  0  0  0
 17  3  1  0  0  0  0
 18 17  1  0  0  0  0
 18 10  2  0  0  0  0
 19 16  2  0  0  0  0
 20 27  2  0  0  0  0
 21 22  1  0  0  0  0
 22 23  2  0  0  0  0
 22 20  1  0  0  0  0
 23 25  1  0  0  0  0
 24 23  1  0  0  0  0
 25 27  1  0  0  0  0
 26 21  1  6  0  0  0
 26 24  1  0  0  0  0
 28 11  1  0  0  0  0
 28 31  1  0  0  0  0
 29 31  1  0  0  0  0
 31 30  1  6  0  0  0
 32  4  1  0  0  0  0
 32 33  1  0  0  0  0
 34 33  1  0  0  0  0
 34 35  1  0  0  0  0
 36 35  1  0  0  0  0
 36 42  1  0  0  0  0
 37 41  1  0  0  0  0
 37 43  1  1  0  0  0
 38 41  1  0  0  0  0
 39 38  2  0  0  0  0
 40 37  1  0  0  0  0
 42 40  1  0  0  0  0
 42 38  1  0  0  0  0
 44 43  1  0  0  0  0
M  END
>  <MODEL>
6

>  <REMARK>
 VINA RESULT:      -7.1      3.590      9.551
  Name = 
  10 active torsions:
  status: ('A' for Active; 'I' for Inactive)
    1  A    between atoms: O_4  and  C_16
    2  A    between atoms: O_4  and  P_33
    3  A    between atoms: C_5  and  O_25
    4  A    between atoms: C_7  and  C_26
    5  A    between atoms: C_7  and  C_36
    6  A    between atoms: C_13  and  O_25
    7  A    between atoms: C_13  and  C_26
    8  A    between atoms: C_18  and  C_31
    9  A    between atoms: C_20  and  C_29
   10  A    between atoms: C_36  and  N_44
                            x       y       z     vdW  Elec       q    Type
                         _______ _______ _______ _____ _____    ______ ____

>  <TORSDO>
F 10

$$$$
=
 OpenBabel11042412223D

 44 49  0  0  1  0  0  0  0  0999 V2000
  185.1120  178.0630  143.6140 C   0  0  2  0  0  3  0  0  0  0  0  0
  184.8460  179.0470  140.1080 C   0  0  0  0  0  3  0  0  0  0  0  0
  187.2700  177.5770  138.1400 C   0  0  0  0  0  3  0  0  0  0  0  0
  183.1780  175.7760  137.9140 C   0  0  0  0  0  0  0  0  0  0  0  0
  186.1450  177.6890  144.5390 N   0  0  0  0  0  0  0  0  0  0  0  0
  187.3250  177.9060  144.0920 C   0  0  0  0  0  3  0  0  0  0  0  0
  188.2850  178.3790  140.4100 C   0  0  0  0  0  3  0  0  0  0  0  0
  185.8780  178.6010  142.4620 C   0  0  0  0  0  0  0  0  0  0  0  0
  184.2480  179.1520  144.2290 C   0  0  0  0  0  1  0  0  0  0  0  0
  184.2830  177.9280  139.3410 C   0  0  0  0  0  0  0  0  0  0  0  0
  184.2240  176.5200  137.3480 C   0  0  0  0  0  0  0  0  0  0  0  0
  188.0930  177.6190  141.6860 C   0  0  2  0  0  3  0  0  0  0  0  0
  187.7760  177.9630  139.2810 C   0  0  0  0  0  0  0  0  0  0  0  0
  185.3420  178.8470  141.2970 C   0  0  0  0  0  0  0  0  0  0  0  0
  187.3520  178.5080  142.7190 C   0  0  2  0  0  3  0  0  0  0  0  0
  183.2420  177.1760  139.8910 C   0  0  0  0  0  3  0  0  0  0  0  0
  186.0570  178.2470  137.5760 C   0  0  0  0  0  2  0  0  0  0  0  0
  184.8020  177.5870  138.0740 C   0  0  0  0  0  0  0  0  0  0  0  0
  182.6950  176.1070  139.1860 C   0  0  0  0  0  3  0  0  0  0  0  0
  190.7910  175.9870  145.5350 C   0  0  0  0  0  3  0  0  0  0  0  0
  189.4040  176.0000  143.1910 C   0  0  0  0  0  2  0  0  0  0  0  0
  190.3620  176.4820  144.2080 C   0  0  0  0  0  0  0  0  0  0  0  0
  190.8520  177.6370  143.9560 C   0  0  0  0  0  0  0  0  0  0  0  0
  190.4000  178.2400  142.6910 C   0  0  0  0  0  2  0  0  0  0  0  0
  191.6710  178.1070  144.9530 O   0  0  0  0  0  0  0  0  0  0  0  0
  189.4810  177.1240  142.1360 C   0  0  2  0  0  3  0  0  0  0  0  0
  191.7260  177.1320  145.9960 C   0  0  0  0  0  3  0  0  0  0  0  0
  184.6730  176.1540  136.0730 O   0  0  0  0  0  0  0  0  0  0  0  0
  186.1280  174.4800  137.3970 O   0  0  0  0  0  1  0  0  0  0  0  0
  187.0500  175.5040  135.1880 N   0  0  0  0  0  1  0  0  0  0  0  0
  185.5720  174.6670  135.7640 P   0  0  2  0  0  0  0  0  0  0  0  0
  182.6280  174.7200  137.1810 O   0  0  0  0  0  0  0  0  0  0  0  0
  181.4580  174.8550  136.3850 C   0  0  0  0  0  2  0  0  0  0  0  0
  180.4660  173.7720  136.7660 C   0  0  0  0  0  2  0  0  0  0  0  0
  180.3190  173.6970  138.2770 C   0  0  0  0  0  2  0  0  0  0  0  0
  178.9480  174.2000  138.7160 C   0  0  0  0  0  2  0  0  0  0  0  0
  179.0330  177.9430  139.3570 C   0  0  1  0  0  3  0  0  0  0  0  0
  179.1780  175.9290  140.5780 C   0  0  0  0  0  0  0  0  0  0  0  0
  179.2580  175.0930  141.5170 O   0  0  0  0  0  0  0  0  0  0  0  0
  178.9360  176.7420  138.3970 C   0  0  0  0  0  2  0  0  0  0  0  0
  179.2090  177.3880  140.7750 C   0  0  0  0  0  2  0  0  0  0  0  0
  179.0420  175.5630  139.2240 N   0  0  0  0  0  0  0  0  0  0  0  0
  180.2280  178.8100  139.0010 C   0  0  0  0  0  2  0  0  0  0  0  0
  180.6440  179.6540  140.1900 C   0  0  0  0  0  1  0  0  0  0  0  0
  1  9  1  1  0  0  0
  1  5  1  0  0  0  0
  2 14  2  0  0  0  0
  3 13  2  0  0  0  0
  4 19  1  0  0  0  0
  6  5  2  0  0  0  0
  8 15  1  0  0  0  0
  8  1  1  0  0  0  0
 10 16  1  0  0  0  0
 10  2  1  0  0  0  0
 11  4  2  0  0  0  0
 11 18  1  0  0  0  0
 12  7  1  6  0  0  0
 12 26  1  0  0  0  0
 12 15  1  0  0  0  0
 13  7  2  0  0  0  0
 14  8  2  0  0  0  0
 15  6  1  1  0  0  0
 17 18  1  0  0  0  0
 17  3  1  0  0  0  0
 18 10  2  0  0  0  0
 19 16  2  0  0  0  0
 20 27  2  0  0  0  0
 21 22  1  0  0  0  0
 22 20  1  0  0  0  0
 23 22  2  0  0  0  0
 23 25  1  0  0  0  0
 24 23  1  0  0  0  0
 25 27  1  0  0  0  0
 26 24  1  1  0  0  0
 26 21  1  0  0  0  0
 28 11  1  0  0  0  0
 31 30  1  6  0  0  0
 31 28  1  0  0  0  0
 31 29  1  0  0  0  0
 32  4  1  0  0  0  0
 33 34  1  0  0  0  0
 33 32  1  0  0  0  0
 34 35  1  0  0  0  0
 35 36  1  0  0  0  0
 36 42  1  0  0  0  0
 37 43  1  6  0  0  0
 37 41  1  0  0  0  0
 38 41  1  0  0  0  0
 38 39  2  0  0  0  0
 40 42  1  0  0  0  0
 40 37  1  0  0  0  0
 42 38  1  0  0  0  0
 43 44  1  0  0  0  0
M  END
>  <MODEL>
7

>  <REMARK>
 VINA RESULT:      -6.8      2.954      8.970
  Name = 
  10 active torsions:
  status: ('A' for Active; 'I' for Inactive)
    1  A    between atoms: O_4  and  C_16
    2  A    between atoms: O_4  and  P_33
    3  A    between atoms: C_5  and  O_25
    4  A    between atoms: C_7  and  C_26
    5  A    between atoms: C_7  and  C_36
    6  A    between atoms: C_13  and  O_25
    7  A    between atoms: C_13  and  C_26
    8  A    between atoms: C_18  and  C_31
    9  A    between atoms: C_20  and  C_29
   10  A    between atoms: C_36  and  N_44
                            x       y       z     vdW  Elec       q    Type
                         _______ _______ _______ _____ _____    ______ ____

>  <TORSDO>
F 10

$$$$
=
 OpenBabel11042412223D

 44 49  0  0  1  0  0  0  0  0999 V2000
  183.2490  178.4220  143.0500 C   0  0  2  0  0  3  0  0  0  0  0  0
  184.3160  179.0580  139.6160 C   0  0  0  0  0  3  0  0  0  0  0  0
  187.4200  177.7140  138.9310 C   0  0  0  0  0  3  0  0  0  0  0  0
  183.8920  175.4360  137.3810 C   0  0  0  0  0  0  0  0  0  0  0  0
  183.8580  178.2520  144.3400 N   0  0  0  0  0  0  0  0  0  0  0  0
  185.1000  178.5660  144.3570 C   0  0  0  0  0  3  0  0  0  0  0  0
  187.3960  178.8240  141.2960 C   0  0  0  0  0  3  0  0  0  0  0  0
  184.3660  178.9430  142.2220 C   0  0  0  0  0  0  0  0  0  0  0  0
  182.1360  179.4520  143.1440 C   0  0  0  0  0  1  0  0  0  0  0  0
  184.1840  177.8180  138.8400 C   0  0  0  0  0  0  0  0  0  0  0  0
  185.0180  176.2440  137.1710 C   0  0  0  0  0  0  0  0  0  0  0  0
  186.7730  178.1610  142.4860 C   0  0  2  0  0  3  0  0  0  0  0  0
  187.4050  178.2540  140.1200 C   0  0  0  0  0  0  0  0  0  0  0  0
  184.3160  179.0220  140.9200 C   0  0  0  0  0  0  0  0  0  0  0  0
  185.6210  179.0440  143.0350 C   0  0  2  0  0  3  0  0  0  0  0  0
  183.0680  177.0010  139.0390 C   0  0  0  0  0  3  0  0  0  0  0  0
  186.4820  178.1860  137.8660 C   0  0  0  0  0  2  0  0  0  0  0  0
  185.1840  177.4310  137.9230 C   0  0  0  0  0  0  0  0  0  0  0  0
  182.9240  175.8180  138.3180 C   0  0  0  0  0  3  0  0  0  0  0  0
  191.6790  177.5490  143.0410 C   0  0  0  0  0  3  0  0  0  0  0  0
  189.1960  178.6580  143.1850 C   0  0  0  0  0  2  0  0  0  0  0  0
  190.2170  177.5940  143.2680 C   0  0  0  0  0  0  0  0  0  0  0  0
  189.7370  176.4250  143.4660 C   0  0  0  0  0  0  0  0  0  0  0  0
  188.2720  176.3720  143.6110 C   0  0  0  0  0  2  0  0  0  0  0  0
  190.6920  175.4370  143.4530 O   0  0  0  0  0  0  0  0  0  0  0  0
  187.9030  177.8720  143.4920 C   0  0  2  0  0  3  0  0  0  0  0  0
  191.9660  176.0380  143.2160 C   0  0  0  0  0  3  0  0  0  0  0  0
  185.9590  175.8230  136.2230 O   0  0  0  0  0  0  0  0  0  0  0  0
  188.4870  175.5420  135.7800 O   0  0  0  0  0  1  0  0  0  0  0  0
  186.8650  173.5930  135.1930 N   0  0  0  0  0  1  0  0  0  0  0  0
  187.2330  174.6580  136.5890 P   0  0  2  0  0  0  0  0  0  0  0  0
  183.7530  174.2630  136.6330 O   0  0  0  0  0  0  0  0  0  0  0  0
  182.7620  174.0970  135.6270 C   0  0  0  0  0  2  0  0  0  0  0  0
  181.9050  172.8910  135.9650 C   0  0  0  0  0  2  0  0  0  0  0  0
  180.9100  173.2390  137.0610 C   0  0  0  0  0  2  0  0  0  0  0  0
  179.6620  173.8920  136.4770 C   0  0  0  0  0  2  0  0  0  0  0  0
  179.6980  177.6890  136.5430 C   0  0  1  0  0  3  0  0  0  0  0  0
  179.3360  175.8920  138.0280 C   0  0  0  0  0  0  0  0  0  0  0  0
  179.0590  175.2130  139.0510 O   0  0  0  0  0  0  0  0  0  0  0  0
  179.8730  176.3530  135.7960 C   0  0  0  0  0  2  0  0  0  0  0  0
  179.3650  177.3640  138.0030 C   0  0  0  0  0  2  0  0  0  0  0  0
  179.6430  175.3180  136.7770 N   0  0  0  0  0  0  0  0  0  0  0  0
  180.9820  178.5000  136.4850 C   0  0  0  0  0  2  0  0  0  0  0  0
  181.9320  177.9160  135.4570 C   0  0  0  0  0  1  0  0  0  0  0  0
  1  9  1  1  0  0  0
  1  5  1  0  0  0  0
  2 14  2  0  0  0  0
  3 13  2  0  0  0  0
  4 19  1  0  0  0  0
  5  6  2  0  0  0  0
  8 15  1  0  0  0  0
  8  1  1  0  0  0  0
 10 16  1  0  0  0  0
 10  2  1  0  0  0  0
 11  4  2  0  0  0  0
 11 18  1  0  0  0  0
 12  7  1  6  0  0  0
 12 15  1  0  0  0  0
 12 26  1  0  0  0  0
 13  7  2  0  0  0  0
 14  8  2  0  0  0  0
 15  6  1  1  0  0  0
 17 18  1  0  0  0  0
 17  3  1  0  0  0  0
 18 10  2  0  0  0  0
 19 16  2  0  0  0  0
 20 27  2  0  0  0  0
 20 22  1  0  0  0  0
 21 22  1  0  0  0  0
 22 23  2  0  0  0  0
 23 24  1  0  0  0  0
 25 23  1  0  0  0  0
 26 21  1  6  0  0  0
 26 24  1  0  0  0  0
 27 25  1  0  0  0  0
 28 31  1  0  0  0  0
 28 11  1  0  0  0  0
 29 31  1  0  0  0  0
 31 30  1  6  0  0  0
 32  4  1  0  0  0  0
 33 34  1  0  0  0  0
 33 32  1  0  0  0  0
 34 35  1  0  0  0  0
 36 42  1  0  0  0  0
 36 35  1  0  0  0  0
 37 43  1  1  0  0  0
 37 41  1  0  0  0  0
 38 39  2  0  0  0  0
 40 37  1  0  0  0  0
 40 42  1  0  0  0  0
 41 38  1  0  0  0  0
 42 38  1  0  0  0  0
 44 43  1  0  0  0  0
M  END
>  <MODEL>
8

>  <REMARK>
 VINA RESULT:      -6.7      3.213      9.344
  Name = 
  10 active torsions:
  status: ('A' for Active; 'I' for Inactive)
    1  A    between atoms: O_4  and  C_16
    2  A    between atoms: O_4  and  P_33
    3  A    between atoms: C_5  and  O_25
    4  A    between atoms: C_7  and  C_26
    5  A    between atoms: C_7  and  C_36
    6  A    between atoms: C_13  and  O_25
    7  A    between atoms: C_13  and  C_26
    8  A    between atoms: C_18  and  C_31
    9  A    between atoms: C_20  and  C_29
   10  A    between atoms: C_36  and  N_44
                            x       y       z     vdW  Elec       q    Type
                         _______ _______ _______ _____ _____    ______ ____

>  <TORSDO>
F 10

$$$$
=
 OpenBabel11042412223D

 44 49  0  0  1  0  0  0  0  0999 V2000
  184.6270  171.6100  136.4600 C   0  0  2  0  0  3  0  0  0  0  0  0
  186.5560  174.1440  134.6730 C   0  0  0  0  0  3  0  0  0  0  0  0
  185.8420  177.3440  135.7500 C   0  0  0  0  0  3  0  0  0  0  0  0
  189.6540  175.5520  137.2640 C   0  0  0  0  0  0  0  0  0  0  0  0
  183.3380  171.4980  137.0860 N   0  0  0  0  0  0  0  0  0  0  0  0
  182.5620  172.4820  136.8220 C   0  0  0  0  0  3  0  0  0  0  0  0
  183.6550  175.9290  135.5460 C   0  0  0  0  0  3  0  0  0  0  0  0
  184.5170  172.8820  135.7020 C   0  0  0  0  0  0  0  0  0  0  0  0
  184.8330  170.4440  135.5070 C   0  0  0  0  0  1  0  0  0  0  0  0
  187.6180  174.6430  135.5570 C   0  0  0  0  0  0  0  0  0  0  0  0
  188.9660  176.4690  136.4560 C   0  0  0  0  0  0  0  0  0  0  0  0
  183.2580  174.9150  136.5740 C   0  0  2  0  0  3  0  0  0  0  0  0
  184.7490  176.6340  135.6640 C   0  0  0  0  0  0  0  0  0  0  0  0
  185.5430  173.4880  135.1670 C   0  0  0  0  0  0  0  0  0  0  0  0
  183.1740  173.5110  135.9190 C   0  0  2  0  0  3  0  0  0  0  0  0
  188.3130  173.7430  136.3690 C   0  0  0  0  0  3  0  0  0  0  0  0
  187.0370  177.0120  134.9140 C   0  0  0  0  0  2  0  0  0  0  0  0
  187.9210  176.0200  135.6150 C   0  0  0  0  0  0  0  0  0  0  0  0
  189.3200  174.1930  137.2190 C   0  0  0  0  0  3  0  0  0  0  0  0
  180.4410  178.8970  137.5510 C   0  0  0  0  0  3  0  0  0  0  0  0
  181.2900  176.5610  136.4370 C   0  0  0  0  0  2  0  0  0  0  0  0
  181.0070  177.5300  137.5160 C   0  0  0  0  0  0  0  0  0  0  0  0
  181.4460  177.1730  138.6650 C   0  0  0  0  0  0  0  0  0  0  0  0
  182.1080  175.8590  138.6950 C   0  0  0  0  0  2  0  0  0  0  0  0
  181.2520  178.1240  139.6380 O   0  0  0  0  0  0  0  0  0  0  0  0
  181.9510  175.4070  137.2220 C   0  0  2  0  0  3  0  0  0  0  0  0
  180.6000  179.2510  139.0500 C   0  0  0  0  0  3  0  0  0  0  0  0
  189.3360  177.8170  136.5340 O   0  0  0  0  0  0  0  0  0  0  0  0
  187.6420  177.7740  138.4830 O   0  0  0  0  0  1  0  0  0  0  0  0
  187.6490  179.7960  136.8430 N   0  0  0  0  0  1  0  0  0  0  0  0
  188.8190  178.8780  137.8470 P   0  0  2  0  0  0  0  0  0  0  0  0
  190.6780  176.0200  138.0950 O   0  0  0  0  0  0  0  0  0  0  0  0
  190.5540  176.1000  139.5080 C   0  0  0  0  0  2  0  0  0  0  0  0
  191.3480  177.2910  140.0130 C   0  0  0  0  0  2  0  0  0  0  0  0
  191.5230  177.2090  141.5210 C   0  0  0  0  0  2  0  0  0  0  0  0
  190.4760  176.2910  142.1420 C   0  0  0  0  0  2  0  0  0  0  0  0
  189.9040  177.8790  145.5450 C   0  0  1  0  0  3  0  0  0  0  0  0
  188.6340  177.0550  143.7340 C   0  0  0  0  0  0  0  0  0  0  0  0
  187.6780  176.7520  142.9740 O   0  0  0  0  0  0  0  0  0  0  0  0
  190.8450  177.3340  144.4530 C   0  0  0  0  0  2  0  0  0  0  0  0
  188.4640  177.6700  145.0620 C   0  0  0  0  0  2  0  0  0  0  0  0
  189.9880  176.8480  143.3970 N   0  0  0  0  0  0  0  0  0  0  0  0
  190.1150  177.1270  146.8480 C   0  0  0  0  0  2  0  0  0  0  0  0
  188.8340  177.1010  147.6590 C   0  0  0  0  0  1  0  0  0  0  0  0
  1  9  1  6  0  0  0
  1  5  1  0  0  0  0
  2 14  2  0  0  0  0
  2 10  1  0  0  0  0
  4 32  1  0  0  0  0
  6  5  2  0  0  0  0
  7 13  2  0  0  0  0
  8 15  1  0  0  0  0
  8  1  1  0  0  0  0
 10 18  2  0  0  0  0
 10 16  1  0  0  0  0
 11 28  1  0  0  0  0
 11  4  2  0  0  0  0
 12  7  1  6  0  0  0
 12 26  1  0  0  0  0
 13  3  2  0  0  0  0
 14  8  2  0  0  0  0
 15 12  1  0  0  0  0
 15  6  1  1  0  0  0
 16 19  2  0  0  0  0
 17 18  1  0  0  0  0
 17  3  1  0  0  0  0
 18 11  1  0  0  0  0
 19  4  1  0  0  0  0
 20 27  2  0  0  0  0
 21 22  1  0  0  0  0
 22 20  1  0  0  0  0
 22 23  2  0  0  0  0
 23 24  1  0  0  0  0
 23 25  1  0  0  0  0
 26 21  1  6  0  0  0
 26 24  1  0  0  0  0
 27 25  1  0  0  0  0
 28 31  1  0  0  0  0
 31 30  1  6  0  0  0
 31 29  1  0  0  0  0
 32 33  1  0  0  0  0
 33 34  1  0  0  0  0
 34 35  1  0  0  0  0
 35 36  1  0  0  0  0
 36 42  1  0  0  0  0
 37 43  1  1  0  0  0
 38 41  1  0  0  0  0
 39 38  2  0  0  0  0
 40 37  1  0  0  0  0
 41 37  1  0  0  0  0
 42 38  1  0  0  0  0
 42 40  1  0  0  0  0
 43 44  1  0  0  0  0
M  END
>  <MODEL>
9

>  <REMARK>
 VINA RESULT:      -6.2      3.501      6.511
  Name = 
  10 active torsions:
  status: ('A' for Active; 'I' for Inactive)
    1  A    between atoms: O_4  and  C_16
    2  A    between atoms: O_4  and  P_33
    3  A    between atoms: C_5  and  O_25
    4  A    between atoms: C_7  and  C_26
    5  A    between atoms: C_7  and  C_36
    6  A    between atoms: C_13  and  O_25
    7  A    between atoms: C_13  and  C_26
    8  A    between atoms: C_18  and  C_31
    9  A    between atoms: C_20  and  C_29
   10  A    between atoms: C_36  and  N_44
                            x       y       z     vdW  Elec       q    Type
                         _______ _______ _______ _____ _____    ______ ____

>  <TORSDO>
F 10

$$$$
