=
 OpenBabel11042413023D

 40 46  0  0  1  0  0  0  0  0999 V2000
  189.3150  177.1960  145.0510 C   0  0  0  0  0  0  0  0  0  0  0  0
  190.5440  176.7610  144.5990 C   0  0  0  0  0  0  0  0  0  0  0  0
  189.0350  177.1980  146.4210 C   0  0  0  0  0  3  0  0  0  0  0  0
  190.0290  176.7830  147.3220 C   0  0  0  0  0  3  0  0  0  0  0  0
  191.5360  176.3070  145.4710 C   0  0  0  0  0  3  0  0  0  0  0  0
  191.2730  176.3340  146.8480 C   0  0  0  0  0  0  0  0  0  0  0  0
  188.1450  177.5780  142.4160 C   0  0  2  0  0  3  0  0  0  0  0  0
  187.7850  176.0670  143.9190 O   0  0  0  0  0  1  0  0  0  0  0  0
  192.5010  175.8050  147.9760 Cl  0  0  0  0  0  0  0  0  0  0  0  0
  188.2830  177.3750  143.9600 C   0  0  2  0  0  0  0  0  0  0  0  0
  189.4310  177.8950  142.9620 C   0  0  1  0  0  0  0  0  0  0  0  0
  190.5660  176.8690  143.1330 C   0  0  1  0  0  3  0  0  0  0  0  0
  191.0940  179.5560  143.8890 C   0  0  0  0  0  1  0  0  0  0  0  0
  189.7610  179.3910  143.1810 C   0  0  0  0  0  2  0  0  0  0  0  0
  187.2060  178.7540  142.1560 C   0  0  0  0  0  2  0  0  0  0  0  0
  181.5410  178.7370  142.3060 C   0  0  0  0  0  2  0  0  0  0  0  0
  185.0080  178.7820  140.9260 C   0  0  0  0  0  2  0  0  0  0  0  0
  183.5930  178.3850  140.9540 N   0  0  0  0  0  2  0  0  0  0  0  0
  185.7560  178.2910  142.1810 C   0  0  2  0  0  3  0  0  0  0  0  0
  181.3360  178.7440  143.8140 C   0  0  0  0  0  2  0  0  0  0  0  0
  183.6100  178.2680  143.3230 N   0  0  1  0  0  0  0  0  0  0  0  0
  185.1370  180.2000  143.7700 C   0  0  0  0  0  1  0  0  0  0  0  0
  185.0060  178.6990  143.4710 C   0  0  2  0  0  3  0  0  0  0  0  0
  182.7330  178.6380  144.4220 C   0  0  0  0  0  2  0  0  0  0  0  0
  183.0270  178.9390  142.1760 C   0  0  2  0  0  3  0  0  0  0  0  0
  191.9250  177.2250  142.5030 C   0  0  0  0  0  2  0  0  0  0  0  0
  192.1070  176.6930  141.1530 N   0  0  0  0  0  0  0  0  0  0  0  0
  192.8280  177.6820  140.3630 C   0  0  0  0  0  2  0  0  0  0  0  0
  193.9160  177.0780  139.7320 O   0  0  0  0  0  1  0  0  0  0  0  0
  190.8470  176.4650  140.5640 N   0  0  0  0  0  2  0  0  0  0  0  0
  187.9400  178.3200  137.4690 C   0  0  0  0  0  0  0  0  0  0  0  0
  190.5290  176.5090  139.1600 C   0  0  0  0  0  0  0  0  0  0  0  0
  190.9110  175.5320  138.2390 C   0  0  0  0  0  3  0  0  0  0  0  0
  188.6360  178.3410  138.8180 C   0  0  0  0  0  2  0  0  0  0  0  0
  189.6410  177.0240  137.2240 N   0  0  0  0  0  0  0  0  0  0  0  0
  188.5190  177.5510  136.5980 N   0  0  0  0  0  0  0  0  0  0  0  0
  189.7430  177.4090  138.4750 C   0  0  0  0  0  0  0  0  0  0  0  0
  190.2890  175.8650  137.0310 C   0  0  0  0  0  3  0  0  0  0  0  0
  185.6100  178.7030  137.7300 F   0  0  0  0  0  0  0  0  0  0  0  0
  186.7870  179.0370  137.1720 O   0  0  0  0  0  0  0  0  0  0  0  0
  1  3  1  0  0  0  0
  2  1  2  0  0  0  0
  2  5  1  0  0  0  0
  3  4  2  0  0  0  0
  5  6  2  0  0  0  0
  6  4  1  0  0  0  0
  6  9  1  0  0  0  0
  7 15  1  1  0  0  0
  7 11  1  0  0  0  0
  7 10  1  0  0  0  0
 10  8  1  6  0  0  0
 10  1  1  0  0  0  0
 11 12  1  0  0  0  0
 11 14  1  1  0  0  0
 11 10  1  0  0  0  0
 12 26  1  1  0  0  0
 12  2  1  0  0  0  0
 14 13  1  0  0  0  0
 16 20  1  0  0  0  0
 17 18  1  0  0  0  0
 17 19  1  0  0  0  0
 18 25  1  0  0  0  0
 19 15  1  1  0  0  0
 19 23  1  0  0  0  0
 20 24  1  0  0  0  0
 21 23  1  0  0  0  0
 21 24  1  1  0  0  0
 23 22  1  6  0  0  0
 25 16  1  6  0  0  0
 25 21  1  0  0  0  0
 27 26  1  0  0  0  0
 28 27  1  0  0  0  0
 29 28  1  0  0  0  0
 30 27  1  0  0  0  0
 31 34  1  0  0  0  0
 32 30  1  0  0  0  0
 33 32  1  0  0  0  0
 35 37  1  0  0  0  0
 36 35  1  0  0  0  0
 36 31  2  0  0  0  0
 37 34  1  0  0  0  0
 37 32  2  0  0  0  0
 38 35  1  0  0  0  0
 38 33  2  0  0  0  0
 40 31  1  0  0  0  0
 40 39  1  0  0  0  0
M  END
>  <MODEL>
1

>  <REMARK>
 VINA RESULT:      -8.5      0.000      0.000
  Name = 
  9 active torsions:
  status: ('A' for Active; 'I' for Inactive)
    1  A    between atoms: C_4  and  O_33
    2  A    between atoms: C_9  and  N_21
    3  A    between atoms: C_11  and  C_32
    4  A    between atoms: C_12  and  N_19
    5  A    between atoms: C_15  and  C_37
    6  A    between atoms: N_19  and  N_21
    7  A    between atoms: N_19  and  C_35
    8  A    between atoms: C_23  and  C_32
    9  A    between atoms: C_35  and  C_38
                            x       y       z     vdW  Elec       q    Type
                         _______ _______ _______ _____ _____    ______ ____

>  <TORSDO>
F 9

$$$$
=
 OpenBabel11042413023D

 40 46  0  0  1  0  0  0  0  0999 V2000
  181.6380  176.0210  136.8240 C   0  0  0  0  0  0  0  0  0  0  0  0
  182.6750  175.9500  137.7330 C   0  0  0  0  0  0  0  0  0  0  0  0
  181.3320  174.9160  136.0250 C   0  0  0  0  0  3  0  0  0  0  0  0
  182.0700  173.7330  136.1840 C   0  0  0  0  0  3  0  0  0  0  0  0
  183.4500  174.7980  137.8830 C   0  0  0  0  0  3  0  0  0  0  0  0
  183.1300  173.6760  137.1070 C   0  0  0  0  0  0  0  0  0  0  0  0
  181.0520  178.8370  137.2610 C   0  0  2  0  0  3  0  0  0  0  0  0
  181.9910  177.8290  135.5970 O   0  0  0  0  0  1  0  0  0  0  0  0
  184.0540  172.2020  137.2880 Cl  0  0  0  0  0  0  0  0  0  0  0  0
  181.1060  177.4200  136.6020 C   0  0  2  0  0  0  0  0  0  0  0  0
  181.3470  177.7570  138.1550 C   0  0  1  0  0  0  0  0  0  0  0  0
  182.7700  177.2400  138.4320 C   0  0  1  0  0  3  0  0  0  0  0  0
  180.0750  178.0690  140.3160 C   0  0  0  0  0  1  0  0  0  0  0  0
  180.1950  177.2390  139.0490 C   0  0  0  0  0  2  0  0  0  0  0  0
  179.6070  179.3310  137.2440 C   0  0  0  0  0  2  0  0  0  0  0  0
  180.7480  184.7620  136.1000 C   0  0  0  0  0  2  0  0  0  0  0  0
  180.7760  181.0420  135.8110 C   0  0  0  0  0  2  0  0  0  0  0  0
  180.7460  182.4160  135.2900 N   0  0  0  0  0  2  0  0  0  0  0  0
  179.5340  180.7410  136.6740 C   0  0  2  0  0  3  0  0  0  0  0  0
  179.9810  185.4190  137.2390 C   0  0  0  0  0  2  0  0  0  0  0  0
  179.3650  183.1320  137.0800 N   0  0  1  0  0  0  0  0  0  0  0  0
  180.3580  181.7180  138.8910 C   0  0  0  0  0  1  0  0  0  0  0  0
  179.3300  181.8280  137.7550 C   0  0  2  0  0  3  0  0  0  0  0  0
  179.2610  184.2830  137.9620 C   0  0  0  0  0  2  0  0  0  0  0  0
  180.6580  183.3000  136.4430 C   0  0  2  0  0  3  0  0  0  0  0  0
  183.2120  177.1760  139.9060 C   0  0  0  0  0  2  0  0  0  0  0  0
  183.7790  178.4270  140.4060 N   0  0  0  0  0  0  0  0  0  0  0  0
  184.6860  178.9560  139.3960 C   0  0  0  0  0  2  0  0  0  0  0  0
  184.3440  180.2770  139.1020 O   0  0  0  0  0  1  0  0  0  0  0  0
  184.5050  178.1760  141.5890 N   0  0  0  0  0  2  0  0  0  0  0  0
  185.9560  178.1490  145.9890 C   0  0  0  0  0  0  0  0  0  0  0  0
  184.1570  178.5930  142.9220 C   0  0  0  0  0  0  0  0  0  0  0  0
  182.8560  178.8870  143.3360 C   0  0  0  0  0  3  0  0  0  0  0  0
  186.2320  178.0790  144.4980 C   0  0  0  0  0  2  0  0  0  0  0  0
  184.2130  179.0170  145.0710 N   0  0  0  0  0  0  0  0  0  0  0  0
  184.7990  178.6630  146.2800 N   0  0  0  0  0  0  0  0  0  0  0  0
  184.9560  178.6890  144.0400 C   0  0  0  0  0  0  0  0  0  0  0  0
  182.9210  179.1030  144.7160 C   0  0  0  0  0  3  0  0  0  0  0  0
  188.1560  177.6420  146.7280 F   0  0  0  0  0  0  0  0  0  0  0  0
  186.8340  177.7040  146.9700 O   0  0  0  0  0  0  0  0  0  0  0  0
  1  2  1  0  0  0  0
  2  5  2  0  0  0  0
  2 12  1  0  0  0  0
  3  4  1  0  0  0  0
  3  1  2  0  0  0  0
  4  6  2  0  0  0  0
  6  9  1  0  0  0  0
  6  5  1  0  0  0  0
  7 15  1  1  0  0  0
  7 11  1  0  0  0  0
 10  8  1  6  0  0  0
 10  1  1  0  0  0  0
 10  7  1  0  0  0  0
 10 11  1  0  0  0  0
 11 12  1  0  0  0  0
 11 14  1  1  0  0  0
 12 26  1  1  0  0  0
 14 13  1  0  0  0  0
 16 20  1  0  0  0  0
 17 19  1  0  0  0  0
 18 17  1  0  0  0  0
 18 25  1  0  0  0  0
 19 15  1  1  0  0  0
 19 23  1  0  0  0  0
 20 24  1  0  0  0  0
 21 23  1  0  0  0  0
 21 24  1  1  0  0  0
 23 22  1  1  0  0  0
 25 16  1  6  0  0  0
 25 21  1  0  0  0  0
 26 27  1  0  0  0  0
 27 30  1  0  0  0  0
 28 27  1  0  0  0  0
 29 28  1  0  0  0  0
 30 32  1  0  0  0  0
 31 36  2  0  0  0  0
 31 40  1  0  0  0  0
 32 33  1  0  0  0  0
 32 37  2  0  0  0  0
 33 38  2  0  0  0  0
 34 31  1  0  0  0  0
 35 36  1  0  0  0  0
 37 34  1  0  0  0  0
 37 35  1  0  0  0  0
 38 35  1  0  0  0  0
 39 40  1  0  0  0  0
M  END
>  <MODEL>
2

>  <REMARK>
 VINA RESULT:      -8.4      5.648      9.749
  Name = 
  9 active torsions:
  status: ('A' for Active; 'I' for Inactive)
    1  A    between atoms: C_4  and  O_33
    2  A    between atoms: C_9  and  N_21
    3  A    between atoms: C_11  and  C_32
    4  A    between atoms: C_12  and  N_19
    5  A    between atoms: C_15  and  C_37
    6  A    between atoms: N_19  and  N_21
    7  A    between atoms: N_19  and  C_35
    8  A    between atoms: C_23  and  C_32
    9  A    between atoms: C_35  and  C_38
                            x       y       z     vdW  Elec       q    Type
                         _______ _______ _______ _____ _____    ______ ____

>  <TORSDO>
F 9

$$$$
=
 OpenBabel11042413023D

 40 46  0  0  1  0  0  0  0  0999 V2000
  184.4850  178.3780  141.3360 C   0  0  0  0  0  0  0  0  0  0  0  0
  183.2750  178.6670  141.9330 C   0  0  0  0  0  0  0  0  0  0  0  0
  185.6300  178.2130  142.1200 C   0  0  0  0  0  3  0  0  0  0  0  0
  185.5220  178.3150  143.5160 C   0  0  0  0  0  3  0  0  0  0  0  0
  183.1480  178.8130  143.3160 C   0  0  0  0  0  3  0  0  0  0  0  0
  184.2860  178.6200  144.1110 C   0  0  0  0  0  0  0  0  0  0  0  0
  183.5270  178.6020  138.5980 C   0  0  2  0  0  3  0  0  0  0  0  0
  184.7990  179.9030  139.7630 O   0  0  0  0  0  1  0  0  0  0  0  0
  184.1630  178.7600  145.8510 Cl  0  0  0  0  0  0  0  0  0  0  0  0
  184.4860  178.5410  139.8310 C   0  0  2  0  0  0  0  0  0  0  0  0
  182.9750  177.9970  139.7730 C   0  0  1  0  0  0  0  0  0  0  0  0
  182.2530  178.7820  140.8820 C   0  0  1  0  0  3  0  0  0  0  0  0
  181.6700  175.9400  139.0980 C   0  0  0  0  0  1  0  0  0  0  0  0
  182.9090  176.4500  139.8130 C   0  0  0  0  0  2  0  0  0  0  0  0
  184.0490  177.6510  137.5220 C   0  0  0  0  0  2  0  0  0  0  0  0
  189.5090  176.7300  136.3210 C   0  0  0  0  0  2  0  0  0  0  0  0
  186.3050  178.5610  136.8690 C   0  0  0  0  0  2  0  0  0  0  0  0
  187.7600  178.3760  136.9490 N   0  0  0  0  0  2  0  0  0  0  0  0
  185.5540  177.4700  137.6570 C   0  0  2  0  0  3  0  0  0  0  0  0
  189.5360  175.2130  136.4490 C   0  0  0  0  0  2  0  0  0  0  0  0
  187.5050  176.0520  137.3470 N   0  0  1  0  0  0  0  0  0  0  0  0
  185.5310  175.6450  135.8620 C   0  0  0  0  0  1  0  0  0  0  0  0
  186.0390  176.0580  137.2520 C   0  0  2  0  0  3  0  0  0  0  0  0
  188.1420  174.8140  136.9290 C   0  0  0  0  0  2  0  0  0  0  0  0
  188.0420  177.0430  136.4340 C   0  0  2  0  0  3  0  0  0  0  0  0
  180.8380  178.3070  141.2630 C   0  0  0  0  0  2  0  0  0  0  0  0
  179.8500  179.3830  141.3200 N   0  0  0  0  0  0  0  0  0  0  0  0
  178.9310  179.1040  142.4150 C   0  0  0  0  0  2  0  0  0  0  0  0
  179.4080  178.0310  143.1690 O   0  0  0  0  0  1  0  0  0  0  0  0
  179.1260  179.4210  140.1110 N   0  0  0  0  0  2  0  0  0  0  0  0
  180.7080  182.4780  137.0090 C   0  0  0  0  0  0  0  0  0  0  0  0
  179.6670  179.5430  138.7830 C   0  0  0  0  0  0  0  0  0  0  0  0
  179.5050  178.5850  137.7800 C   0  0  0  0  0  3  0  0  0  0  0  0
  180.4080  182.0710  138.4400 C   0  0  0  0  0  2  0  0  0  0  0  0
  180.5670  180.3310  136.9460 N   0  0  0  0  0  0  0  0  0  0  0  0
  180.7700  181.4750  136.1860 N   0  0  0  0  0  0  0  0  0  0  0  0
  180.3320  180.6040  138.2090 C   0  0  0  0  0  0  0  0  0  0  0  0
  180.0460  179.1400  136.6140 C   0  0  0  0  0  3  0  0  0  0  0  0
  181.9270  184.5160  137.0520 F   0  0  0  0  0  0  0  0  0  0  0  0
  180.8930  183.7900  136.5910 O   0  0  0  0  0  0  0  0  0  0  0  0
  1  2  2  0  0  0  0
  1  3  1  0  0  0  0
  2  5  1  0  0  0  0
  3  4  2  0  0  0  0
  4  6  1  0  0  0  0
  5  6  2  0  0  0  0
  6  9  1  0  0  0  0
  7 15  1  6  0  0  0
  7 11  1  0  0  0  0
  7 10  1  0  0  0  0
 10  8  1  1  0  0  0
 10  1  1  0  0  0  0
 11 14  1  6  0  0  0
 11 10  1  0  0  0  0
 11 12  1  0  0  0  0
 12 26  1  1  0  0  0
 12  2  1  0  0  0  0
 13 14  1  0  0  0  0
 16 20  1  0  0  0  0
 17 18  1  0  0  0  0
 17 19  1  0  0  0  0
 19 15  1  6  0  0  0
 20 24  1  0  0  0  0
 21 24  1  6  0  0  0
 23 22  1  6  0  0  0
 23 21  1  0  0  0  0
 23 19  1  0  0  0  0
 25 16  1  1  0  0  0
 25 18  1  0  0  0  0
 25 21  1  0  0  0  0
 26 27  1  0  0  0  0
 27 28  1  0  0  0  0
 28 29  1  0  0  0  0
 30 27  1  0  0  0  0
 31 34  1  0  0  0  0
 32 30  1  0  0  0  0
 33 32  1  0  0  0  0
 35 37  1  0  0  0  0
 36 35  1  0  0  0  0
 36 31  2  0  0  0  0
 37 34  1  0  0  0  0
 37 32  2  0  0  0  0
 38 35  1  0  0  0  0
 38 33  2  0  0  0  0
 40 31  1  0  0  0  0
 40 39  1  0  0  0  0
M  END
>  <MODEL>
3

>  <REMARK>
 VINA RESULT:      -8.4      4.460      9.053
  Name = 
  9 active torsions:
  status: ('A' for Active; 'I' for Inactive)
    1  A    between atoms: C_4  and  O_33
    2  A    between atoms: C_9  and  N_21
    3  A    between atoms: C_11  and  C_32
    4  A    between atoms: C_12  and  N_19
    5  A    between atoms: C_15  and  C_37
    6  A    between atoms: N_19  and  N_21
    7  A    between atoms: N_19  and  C_35
    8  A    between atoms: C_23  and  C_32
    9  A    between atoms: C_35  and  C_38
                            x       y       z     vdW  Elec       q    Type
                         _______ _______ _______ _____ _____    ______ ____

>  <TORSDO>
F 9

$$$$
=
 OpenBabel11042413023D

 40 46  0  0  1  0  0  0  0  0999 V2000
  191.3040  177.0270  139.7940 C   0  0  0  0  0  0  0  0  0  0  0  0
  190.8950  176.4020  138.6340 C   0  0  0  0  0  0  0  0  0  0  0  0
  192.6520  177.3430  139.9810 C   0  0  0  0  0  3  0  0  0  0  0  0
  193.5710  177.0460  138.9620 C   0  0  0  0  0  3  0  0  0  0  0  0
  191.7950  176.0600  137.6220 C   0  0  0  0  0  3  0  0  0  0  0  0
  193.1440  176.4010  137.7880 C   0  0  0  0  0  0  0  0  0  0  0  0
  188.7100  176.9390  141.1080 C   0  0  2  0  0  3  0  0  0  0  0  0
  190.5200  175.8190  141.4760 O   0  0  0  0  0  1  0  0  0  0  0  0
  194.2980  176.0210  136.5290 Cl  0  0  0  0  0  0  0  0  0  0  0  0
  190.2520  177.0580  140.8820 C   0  0  2  0  0  0  0  0  0  0  0  0
  189.1090  177.2530  139.7690 C   0  0  1  0  0  0  0  0  0  0  0  0
  189.4420  176.1940  138.7030 C   0  0  1  0  0  3  0  0  0  0  0  0
  189.1080  178.8480  137.8080 C   0  0  0  0  0  1  0  0  0  0  0  0
  188.9810  178.7290  139.3170 C   0  0  0  0  0  2  0  0  0  0  0  0
  188.2480  178.1090  141.9750 C   0  0  0  0  0  2  0  0  0  0  0  0
  187.4700  177.8260  147.5800 C   0  0  0  0  0  2  0  0  0  0  0  0
  186.7890  178.5420  143.9820 C   0  0  0  0  0  2  0  0  0  0  0  0
  186.4340  178.1130  145.3420 N   0  0  0  0  0  2  0  0  0  0  0  0
  187.8600  177.6220  143.3630 C   0  0  2  0  0  3  0  0  0  0  0  0
  188.8100  177.2260  147.9840 C   0  0  0  0  0  2  0  0  0  0  0  0
  188.5440  177.0690  145.6300 N   0  0  1  0  0  0  0  0  0  0  0  0
  189.9410  178.7200  144.3700 C   0  0  0  0  0  1  0  0  0  0  0  0
  189.0690  177.4570  144.3140 C   0  0  2  0  0  3  0  0  0  0  0  0
  189.5450  176.9400  146.6760 C   0  0  0  0  0  2  0  0  0  0  0  0
  187.6670  178.1170  146.1170 C   0  0  2  0  0  3  0  0  0  0  0  0
  188.6820  176.2900  137.3660 C   0  0  0  0  0  2  0  0  0  0  0  0
  187.8720  175.1120  137.0630 N   0  0  0  0  0  0  0  0  0  0  0  0
  188.6340  174.2460  136.1730 C   0  0  0  0  0  2  0  0  0  0  0  0
  189.3370  173.3030  136.9230 O   0  0  0  0  0  1  0  0  0  0  0  0
  186.6860  175.5110  136.4110 N   0  0  0  0  0  2  0  0  0  0  0  0
  184.6080  178.6250  139.1400 C   0  0  0  0  0  0  0  0  0  0  0  0
  185.4310  175.8480  137.0300 C   0  0  0  0  0  0  0  0  0  0  0  0
  184.4010  174.9350  137.2610 C   0  0  0  0  0  3  0  0  0  0  0  0
  185.7070  178.2310  138.1710 C   0  0  0  0  0  2  0  0  0  0  0  0
  183.8430  176.8860  138.1280 N   0  0  0  0  0  0  0  0  0  0  0  0
  183.5780  177.8340  139.1080 N   0  0  0  0  0  0  0  0  0  0  0  0
  185.0300  177.0410  137.5890 C   0  0  0  0  0  0  0  0  0  0  0  0
  183.4300  175.6150  138.0040 C   0  0  0  0  0  3  0  0  0  0  0  0
  185.3600  179.6390  141.1520 F   0  0  0  0  0  0  0  0  0  0  0  0
  184.6740  179.7160  139.9980 O   0  0  0  0  0  0  0  0  0  0  0  0
  1  3  1  0  0  0  0
  1 10  1  0  0  0  0
  2 12  1  0  0  0  0
  2  1  2  0  0  0  0
  4  3  2  0  0  0  0
  5  6  2  0  0  0  0
  5  2  1  0  0  0  0
  6  4  1  0  0  0  0
  7 15  1  1  0  0  0
  9  6  1  0  0  0  0
 10  7  1  0  0  0  0
 10  8  1  6  0  0  0
 11 14  1  6  0  0  0
 11 10  1  0  0  0  0
 11  7  1  0  0  0  0
 12 26  1  6  0  0  0
 12 11  1  0  0  0  0
 13 14  1  0  0  0  0
 16 20  1  0  0  0  0
 17 18  1  0  0  0  0
 18 25  1  0  0  0  0
 19 15  1  6  0  0  0
 19 17  1  0  0  0  0
 19 23  1  0  0  0  0
 21 25  1  0  0  0  0
 21 24  1  1  0  0  0
 23 22  1  1  0  0  0
 23 21  1  0  0  0  0
 24 20  1  0  0  0  0
 25 16  1  1  0  0  0
 27 26  1  0  0  0  0
 28 29  1  0  0  0  0
 28 27  1  0  0  0  0
 30 32  1  0  0  0  0
 30 27  1  0  0  0  0
 31 40  1  0  0  0  0
 32 33  1  0  0  0  0
 32 37  2  0  0  0  0
 33 38  2  0  0  0  0
 34 31  1  0  0  0  0
 35 36  1  0  0  0  0
 36 31  2  0  0  0  0
 37 35  1  0  0  0  0
 37 34  1  0  0  0  0
 38 35  1  0  0  0  0
 40 39  1  0  0  0  0
M  END
>  <MODEL>
4

>  <REMARK>
 VINA RESULT:      -8.2      3.202      5.958
  Name = 
  9 active torsions:
  status: ('A' for Active; 'I' for Inactive)
    1  A    between atoms: C_4  and  O_33
    2  A    between atoms: C_9  and  N_21
    3  A    between atoms: C_11  and  C_32
    4  A    between atoms: C_12  and  N_19
    5  A    between atoms: C_15  and  C_37
    6  A    between atoms: N_19  and  N_21
    7  A    between atoms: N_19  and  C_35
    8  A    between atoms: C_23  and  C_32
    9  A    between atoms: C_35  and  C_38
                            x       y       z     vdW  Elec       q    Type
                         _______ _______ _______ _____ _____    ______ ____

>  <TORSDO>
F 9

$$$$
=
 OpenBabel11042413023D

 40 46  0  0  1  0  0  0  0  0999 V2000
  181.7620  176.0260  137.0060 C   0  0  0  0  0  0  0  0  0  0  0  0
  183.0620  176.0590  137.4680 C   0  0  0  0  0  0  0  0  0  0  0  0
  181.1860  174.8120  136.6210 C   0  0  0  0  0  3  0  0  0  0  0  0
  181.9360  173.6310  136.7440 C   0  0  0  0  0  3  0  0  0  0  0  0
  183.8420  174.9050  137.5620 C   0  0  0  0  0  3  0  0  0  0  0  0
  183.2630  173.6790  137.2070 C   0  0  0  0  0  0  0  0  0  0  0  0
  181.3650  178.9080  137.0300 C   0  0  2  0  0  3  0  0  0  0  0  0
  181.6250  177.5290  135.3870 O   0  0  0  0  0  1  0  0  0  0  0  0
  184.1960  172.2060  137.3420 Cl  0  0  0  0  0  0  0  0  0  0  0  0
  181.1780  177.3890  136.7060 C   0  0  2  0  0  0  0  0  0  0  0  0
  181.9760  178.0040  137.9580 C   0  0  1  0  0  0  0  0  0  0  0  0
  183.4030  177.4490  137.8000 C   0  0  1  0  0  3  0  0  0  0  0  0
  181.5720  178.8400  140.3090 C   0  0  0  0  0  1  0  0  0  0  0  0
  181.2410  177.7560  139.2980 C   0  0  0  0  0  2  0  0  0  0  0  0
  180.0140  179.4930  137.4370 C   0  0  0  0  0  2  0  0  0  0  0  0
  180.8050  184.6960  135.3380 C   0  0  0  0  0  2  0  0  0  0  0  0
  180.7020  180.9710  135.5170 C   0  0  0  0  0  2  0  0  0  0  0  0
  180.5280  182.2750  134.8630 N   0  0  0  0  0  2  0  0  0  0  0  0
  179.7840  180.8300  136.7470 C   0  0  2  0  0  3  0  0  0  0  0  0
  180.4340  185.5160  136.5660 C   0  0  0  0  0  2  0  0  0  0  0  0
  179.7750  183.2580  136.8870 N   0  0  1  0  0  0  0  0  0  0  0  0
  181.2630  182.0140  138.4690 C   0  0  0  0  0  1  0  0  0  0  0  0
  179.9360  182.0430  137.6960 C   0  0  2  0  0  3  0  0  0  0  0  0
  179.9600  184.5050  137.6090 C   0  0  0  0  0  2  0  0  0  0  0  0
  180.8100  183.2890  135.8700 C   0  0  2  0  0  3  0  0  0  0  0  0
  184.3610  177.6430  138.9910 C   0  0  0  0  0  2  0  0  0  0  0  0
  185.3760  178.6700  138.7700 N   0  0  0  0  0  0  0  0  0  0  0  0
  186.5730  178.0280  138.2430 C   0  0  0  0  0  2  0  0  0  0  0  0
  187.5160  178.9970  137.9020 O   0  0  0  0  0  1  0  0  0  0  0  0
  185.6910  179.2930  139.9950 N   0  0  0  0  0  2  0  0  0  0  0  0
  184.7040  178.6060  144.4700 C   0  0  0  0  0  0  0  0  0  0  0  0
  186.1600  178.6510  141.1950 C   0  0  0  0  0  0  0  0  0  0  0  0
  187.4840  178.2660  141.4120 C   0  0  0  0  0  3  0  0  0  0  0  0
  184.2790  178.9310  143.0500 C   0  0  0  0  0  2  0  0  0  0  0  0
  186.3100  177.8710  143.2380 N   0  0  0  0  0  0  0  0  0  0  0  0
  185.8650  178.0270  144.5450 N   0  0  0  0  0  0  0  0  0  0  0  0
  185.4770  178.3830  142.3610 C   0  0  0  0  0  0  0  0  0  0  0  0
  187.5540  177.8210  142.7360 C   0  0  0  0  0  3  0  0  0  0  0  0
  184.2300  178.3120  146.7790 F   0  0  0  0  0  0  0  0  0  0  0  0
  183.9500  178.8960  145.6000 O   0  0  0  0  0  0  0  0  0  0  0  0
  1  2  1  0  0  0  0
  2  5  2  0  0  0  0
  2 12  1  0  0  0  0
  3  4  1  0  0  0  0
  3  1  2  0  0  0  0
  4  6  2  0  0  0  0
  6  9  1  0  0  0  0
  6  5  1  0  0  0  0
  7 15  1  1  0  0  0
  7 11  1  0  0  0  0
 10  8  1  6  0  0  0
 10  1  1  0  0  0  0
 10  7  1  0  0  0  0
 10 11  1  0  0  0  0
 11 14  1  1  0  0  0
 12 11  1  0  0  0  0
 12 26  1  1  0  0  0
 14 13  1  0  0  0  0
 16 20  1  0  0  0  0
 17 19  1  0  0  0  0
 18 17  1  0  0  0  0
 18 25  1  0  0  0  0
 19 15  1  1  0  0  0
 19 23  1  0  0  0  0
 20 24  1  0  0  0  0
 21 24  1  1  0  0  0
 21 23  1  0  0  0  0
 23 22  1  6  0  0  0
 25 16  1  6  0  0  0
 25 21  1  0  0  0  0
 27 26  1  0  0  0  0
 27 30  1  0  0  0  0
 28 27  1  0  0  0  0
 29 28  1  0  0  0  0
 30 32  1  0  0  0  0
 31 36  2  0  0  0  0
 31 40  1  0  0  0  0
 32 33  1  0  0  0  0
 32 37  2  0  0  0  0
 33 38  2  0  0  0  0
 34 31  1  0  0  0  0
 35 36  1  0  0  0  0
 37 34  1  0  0  0  0
 37 35  1  0  0  0  0
 38 35  1  0  0  0  0
 40 39  1  0  0  0  0
M  END
>  <MODEL>
5

>  <REMARK>
 VINA RESULT:      -8.2      5.686      9.042
  Name = 
  9 active torsions:
  status: ('A' for Active; 'I' for Inactive)
    1  A    between atoms: C_4  and  O_33
    2  A    between atoms: C_9  and  N_21
    3  A    between atoms: C_11  and  C_32
    4  A    between atoms: C_12  and  N_19
    5  A    between atoms: C_15  and  C_37
    6  A    between atoms: N_19  and  N_21
    7  A    between atoms: N_19  and  C_35
    8  A    between atoms: C_23  and  C_32
    9  A    between atoms: C_35  and  C_38
                            x       y       z     vdW  Elec       q    Type
                         _______ _______ _______ _____ _____    ______ ____

>  <TORSDO>
F 9

$$$$
=
 OpenBabel11042413023D

 40 46  0  0  1  0  0  0  0  0999 V2000
  180.8920  177.7040  140.2340 C   0  0  0  0  0  0  0  0  0  0  0  0
  181.6390  178.0720  141.3340 C   0  0  0  0  0  0  0  0  0  0  0  0
  179.5220  177.9780  140.1950 C   0  0  0  0  0  3  0  0  0  0  0  0
  178.9310  178.6570  141.2720 C   0  0  0  0  0  3  0  0  0  0  0  0
  181.0670  178.7130  142.4350 C   0  0  0  0  0  3  0  0  0  0  0  0
  179.7000  179.0180  142.3910 C   0  0  0  0  0  0  0  0  0  0  0  0
  183.0450  176.3070  138.8660 C   0  0  2  0  0  3  0  0  0  0  0  0
  181.2930  175.5560  139.8820 O   0  0  0  0  0  1  0  0  0  0  0  0
  178.9530  179.8510  143.7360 Cl  0  0  0  0  0  0  0  0  0  0  0  0
  181.6130  176.7780  139.2790 C   0  0  2  0  0  0  0  0  0  0  0  0
  182.9910  177.5520  139.5720 C   0  0  1  0  0  0  0  0  0  0  0  0
  183.0340  177.6690  141.1060 C   0  0  1  0  0  3  0  0  0  0  0  0
  184.5430  179.3800  138.7750 C   0  0  0  0  0  1  0  0  0  0  0  0
  183.1210  178.8490  138.7370 C   0  0  0  0  0  2  0  0  0  0  0  0
  183.1710  176.3900  137.3460 C   0  0  0  0  0  2  0  0  0  0  0  0
  187.3340  172.6150  136.6210 C   0  0  0  0  0  2  0  0  0  0  0  0
  184.1860  174.1530  137.9040 C   0  0  0  0  0  2  0  0  0  0  0  0
  185.0260  173.0460  137.4270 N   0  0  0  0  0  2  0  0  0  0  0  0
  184.0030  175.2310  136.8170 C   0  0  2  0  0  3  0  0  0  0  0  0
  188.2090  173.3980  135.6520 C   0  0  0  0  0  2  0  0  0  0  0  0
  186.0920  174.4550  135.8440 N   0  0  1  0  0  0  0  0  0  0  0  0
  186.1600  176.5500  137.2130 C   0  0  0  0  0  1  0  0  0  0  0  0
  185.3670  175.6710  136.2350 C   0  0  2  0  0  3  0  0  0  0  0  0
  187.4360  174.6780  135.3400 C   0  0  0  0  0  2  0  0  0  0  0  0
  186.2970  173.6290  137.0200 C   0  0  2  0  0  3  0  0  0  0  0  0
  184.1100  178.5950  141.7030 C   0  0  0  0  0  2  0  0  0  0  0  0
  184.8690  177.9890  142.7960 N   0  0  0  0  0  0  0  0  0  0  0  0
  184.3320  178.4850  144.0570 C   0  0  0  0  0  2  0  0  0  0  0  0
  184.1750  179.8690  143.9900 O   0  0  0  0  0  1  0  0  0  0  0  0
  186.2240  178.3660  142.6940 N   0  0  0  0  0  2  0  0  0  0  0  0
  188.7300  177.6610  146.5270 C   0  0  0  0  0  0  0  0  0  0  0  0
  187.3600  177.6530  143.2150 C   0  0  0  0  0  0  0  0  0  0  0  0
  188.3920  177.1400  142.4270 C   0  0  0  0  0  3  0  0  0  0  0  0
  187.4370  178.0610  145.8380 C   0  0  0  0  0  2  0  0  0  0  0  0
  188.8780  176.8110  144.5540 N   0  0  0  0  0  0  0  0  0  0  0  0
  189.5310  176.9750  145.7680 N   0  0  0  0  0  0  0  0  0  0  0  0
  187.7150  177.4200  144.5250 C   0  0  0  0  0  0  0  0  0  0  0  0
  189.3620  176.6570  143.3120 C   0  0  0  0  0  3  0  0  0  0  0  0
  188.1200  177.9590  148.8030 F   0  0  0  0  0  0  0  0  0  0  0  0
  189.0550  177.9910  147.8360 O   0  0  0  0  0  0  0  0  0  0  0  0
  1  2  1  0  0  0  0
  2  5  2  0  0  0  0
  3  1  2  0  0  0  0
  3  4  1  0  0  0  0
  4  6  2  0  0  0  0
  6  5  1  0  0  0  0
  6  9  1  0  0  0  0
  7 15  1  6  0  0  0
  7 10  1  0  0  0  0
  7 11  1  0  0  0  0
 10 11  1  0  0  0  0
 10  8  1  1  0  0  0
 10  1  1  0  0  0  0
 11 14  1  6  0  0  0
 11 12  1  0  0  0  0
 12  2  1  0  0  0  0
 12 26  1  6  0  0  0
 14 13  1  0  0  0  0
 18 17  1  0  0  0  0
 19 15  1  1  0  0  0
 19 17  1  0  0  0  0
 20 16  1  0  0  0  0
 21 24  1  1  0  0  0
 21 23  1  0  0  0  0
 21 25  1  0  0  0  0
 23 19  1  0  0  0  0
 23 22  1  1  0  0  0
 24 20  1  0  0  0  0
 25 16  1  6  0  0  0
 25 18  1  0  0  0  0
 26 27  1  0  0  0  0
 27 28  1  0  0  0  0
 29 28  1  0  0  0  0
 30 27  1  0  0  0  0
 30 32  1  0  0  0  0
 31 40  1  0  0  0  0
 32 37  2  0  0  0  0
 33 32  1  0  0  0  0
 33 38  2  0  0  0  0
 34 31  1  0  0  0  0
 35 36  1  0  0  0  0
 36 31  2  0  0  0  0
 37 35  1  0  0  0  0
 37 34  1  0  0  0  0
 38 35  1  0  0  0  0
 40 39  1  0  0  0  0
M  END
>  <MODEL>
6

>  <REMARK>
 VINA RESULT:      -8.2      4.488      8.944
  Name = 
  9 active torsions:
  status: ('A' for Active; 'I' for Inactive)
    1  A    between atoms: C_4  and  O_33
    2  A    between atoms: C_9  and  N_21
    3  A    between atoms: C_11  and  C_32
    4  A    between atoms: C_12  and  N_19
    5  A    between atoms: C_15  and  C_37
    6  A    between atoms: N_19  and  N_21
    7  A    between atoms: N_19  and  C_35
    8  A    between atoms: C_23  and  C_32
    9  A    between atoms: C_35  and  C_38
                            x       y       z     vdW  Elec       q    Type
                         _______ _______ _______ _____ _____    ______ ____

>  <TORSDO>
F 9

$$$$
=
 OpenBabel11042413023D

 40 46  0  0  1  0  0  0  0  0999 V2000
  188.6340  173.7290  136.3310 C   0  0  0  0  0  0  0  0  0  0  0  0
  187.7010  174.5510  136.9300 C   0  0  0  0  0  0  0  0  0  0  0  0
  188.2720  172.4420  135.9210 C   0  0  0  0  0  3  0  0  0  0  0  0
  186.9460  172.0170  136.0990 C   0  0  0  0  0  3  0  0  0  0  0  0
  186.3860  174.1370  137.1540 C   0  0  0  0  0  3  0  0  0  0  0  0
  186.0080  172.8600  136.7200 C   0  0  0  0  0  0  0  0  0  0  0  0
  190.8880  175.5350  136.6770 C   0  0  2  0  0  3  0  0  0  0  0  0
  190.3940  173.6810  137.6720 O   0  0  0  0  0  1  0  0  0  0  0  0
  184.3610  172.3160  136.9520 Cl  0  0  0  0  0  0  0  0  0  0  0  0
  190.0570  174.2340  136.4300 C   0  0  2  0  0  0  0  0  0  0  0  0
  189.5300  175.7440  136.2710 C   0  0  1  0  0  0  0  0  0  0  0  0
  188.3470  175.8320  137.2500 C   0  0  1  0  0  3  0  0  0  0  0  0
  189.3500  177.6270  134.5940 C   0  0  0  0  0  1  0  0  0  0  0  0
  189.2820  176.1220  134.7900 C   0  0  0  0  0  2  0  0  0  0  0  0
  191.9520  175.6530  135.5870 C   0  0  0  0  0  2  0  0  0  0  0  0
  197.4180  174.9570  136.9090 C   0  0  0  0  0  2  0  0  0  0  0  0
  194.3740  176.1660  135.1220 C   0  0  0  0  0  2  0  0  0  0  0  0
  195.7200  176.3010  135.6960 N   0  0  0  0  0  2  0  0  0  0  0  0
  193.3300  175.8360  136.2070 C   0  0  2  0  0  3  0  0  0  0  0  0
  197.2670  173.9810  138.0680 C   0  0  0  0  0  2  0  0  0  0  0  0
  195.1480  174.9020  137.5240 N   0  0  1  0  0  0  0  0  0  0  0  0
  193.6630  173.3000  136.3040 C   0  0  0  0  0  1  0  0  0  0  0  0
  193.7810  174.6290  137.0640 C   0  0  2  0  0  3  0  0  0  0  0  0
  195.7630  173.8320  138.2900 C   0  0  0  0  0  2  0  0  0  0  0  0
  196.0160  175.0440  136.3700 C   0  0  2  0  0  3  0  0  0  0  0  0
  187.4520  177.0820  137.1510 C   0  0  0  0  0  2  0  0  0  0  0  0
  186.9260  177.5340  138.4370 N   0  0  0  0  0  0  0  0  0  0  0  0
  185.7830  178.4030  138.1860 C   0  0  0  0  0  2  0  0  0  0  0  0
  185.4130  179.0460  139.3660 O   0  0  0  0  0  1  0  0  0  0  0  0
  187.9180  178.2680  139.1200 N   0  0  0  0  0  2  0  0  0  0  0  0
  188.9590  177.1950  143.5050 C   0  0  0  0  0  0  0  0  0  0  0  0
  188.9570  177.7380  139.9630 C   0  0  0  0  0  0  0  0  0  0  0  0
  190.3100  177.7190  139.6200 C   0  0  0  0  0  3  0  0  0  0  0  0
  187.9470  177.4390  142.4010 C   0  0  0  0  0  2  0  0  0  0  0  0
  190.0770  176.9620  141.6800 N   0  0  0  0  0  0  0  0  0  0  0  0
  190.1570  176.9500  143.0670 N   0  0  0  0  0  0  0  0  0  0  0  0
  188.8720  177.2580  141.2510 C   0  0  0  0  0  0  0  0  0  0  0  0
  190.9980  177.2670  140.7520 C   0  0  0  0  0  3  0  0  0  0  0  0
  189.0950  178.2500  145.6290 F   0  0  0  0  0  0  0  0  0  0  0  0
  188.6630  177.2330  144.8620 O   0  0  0  0  0  0  0  0  0  0  0  0
  1 10  1  0  0  0  0
  1  2  1  0  0  0  0
  2  5  2  0  0  0  0
  2 12  1  0  0  0  0
  3  4  1  0  0  0  0
  3  1  2  0  0  0  0
  4  6  2  0  0  0  0
  6  9  1  0  0  0  0
  6  5  1  0  0  0  0
  7 15  1  6  0  0  0
 10  7  1  0  0  0  0
 10  8  1  1  0  0  0
 11 14  1  6  0  0  0
 11 10  1  0  0  0  0
 11  7  1  0  0  0  0
 11 12  1  0  0  0  0
 12 26  1  6  0  0  0
 13 14  1  0  0  0  0
 16 20  1  0  0  0  0
 17 18  1  0  0  0  0
 17 19  1  0  0  0  0
 18 25  1  0  0  0  0
 19 15  1  6  0  0  0
 19 23  1  0  0  0  0
 20 24  1  0  0  0  0
 21 24  1  1  0  0  0
 23 22  1  6  0  0  0
 23 21  1  0  0  0  0
 25 16  1  1  0  0  0
 25 21  1  0  0  0  0
 26 27  1  0  0  0  0
 27 30  1  0  0  0  0
 28 27  1  0  0  0  0
 28 29  1  0  0  0  0
 30 32  1  0  0  0  0
 31 40  1  0  0  0  0
 32 37  2  0  0  0  0
 33 32  1  0  0  0  0
 33 38  2  0  0  0  0
 34 31  1  0  0  0  0
 35 36  1  0  0  0  0
 36 31  2  0  0  0  0
 37 35  1  0  0  0  0
 37 34  1  0  0  0  0
 38 35  1  0  0  0  0
 40 39  1  0  0  0  0
M  END
>  <MODEL>
7

>  <REMARK>
 VINA RESULT:      -8.1      4.315      9.839
  Name = 
  9 active torsions:
  status: ('A' for Active; 'I' for Inactive)
    1  A    between atoms: C_4  and  O_33
    2  A    between atoms: C_9  and  N_21
    3  A    between atoms: C_11  and  C_32
    4  A    between atoms: C_12  and  N_19
    5  A    between atoms: C_15  and  C_37
    6  A    between atoms: N_19  and  N_21
    7  A    between atoms: N_19  and  C_35
    8  A    between atoms: C_23  and  C_32
    9  A    between atoms: C_35  and  C_38
                            x       y       z     vdW  Elec       q    Type
                         _______ _______ _______ _____ _____    ______ ____

>  <TORSDO>
F 9

$$$$
=
 OpenBabel11042413023D

 40 46  0  0  1  0  0  0  0  0999 V2000
  181.0410  177.7770  140.0040 C   0  0  0  0  0  0  0  0  0  0  0  0
  181.7290  178.1730  141.1330 C   0  0  0  0  0  0  0  0  0  0  0  0
  179.6780  178.0620  139.8800 C   0  0  0  0  0  3  0  0  0  0  0  0
  179.0340  178.7790  140.9000 C   0  0  0  0  0  3  0  0  0  0  0  0
  181.1030  178.8530  142.1800 C   0  0  0  0  0  3  0  0  0  0  0  0
  179.7440  179.1680  142.0500 C   0  0  0  0  0  0  0  0  0  0  0  0
  183.2530  176.3200  138.8030 C   0  0  2  0  0  3  0  0  0  0  0  0
  181.4380  175.6160  139.7420 O   0  0  0  0  0  1  0  0  0  0  0  0
  178.9310  180.0490  143.3240 Cl  0  0  0  0  0  0  0  0  0  0  0  0
  181.8040  176.8160  139.1200 C   0  0  2  0  0  0  0  0  0  0  0  0
  183.1720  177.5860  139.4670 C   0  0  1  0  0  0  0  0  0  0  0  0
  183.1300  177.7510  140.9960 C   0  0  1  0  0  3  0  0  0  0  0  0
  184.8040  179.3290  138.6380 C   0  0  0  0  0  1  0  0  0  0  0  0
  183.3610  178.8560  138.6010 C   0  0  0  0  0  2  0  0  0  0  0  0
  183.4640  176.3540  137.2910 C   0  0  0  0  0  2  0  0  0  0  0  0
  187.3530  172.2600  136.8220 C   0  0  0  0  0  2  0  0  0  0  0  0
  184.3020  174.0770  137.9680 C   0  0  0  0  0  2  0  0  0  0  0  0
  185.0670  172.8920  137.5570 N   0  0  0  0  0  2  0  0  0  0  0  0
  184.2190  175.1150  136.8310 C   0  0  2  0  0  3  0  0  0  0  0  0
  188.3010  172.9330  135.8400 C   0  0  0  0  0  2  0  0  0  0  0  0
  186.2640  174.1480  135.9390 N   0  0  1  0  0  0  0  0  0  0  0  0
  186.4590  176.2910  137.2170 C   0  0  0  0  0  1  0  0  0  0  0  0
  185.6220  175.4290  136.2610 C   0  0  2  0  0  3  0  0  0  0  0  0
  187.6300  174.2500  135.4550 C   0  0  0  0  0  2  0  0  0  0  0  0
  186.3850  173.3630  137.1540 C   0  0  2  0  0  3  0  0  0  0  0  0
  184.1800  178.6860  141.6250 C   0  0  0  0  0  2  0  0  0  0  0  0
  184.9590  178.0640  142.6940 N   0  0  0  0  0  0  0  0  0  0  0  0
  184.3140  178.3620  143.9660 C   0  0  0  0  0  2  0  0  0  0  0  0
  184.2020  179.7440  144.1230 O   0  0  0  0  0  1  0  0  0  0  0  0
  186.2620  178.6040  142.7020 N   0  0  0  0  0  2  0  0  0  0  0  0
  189.4360  177.1440  139.6590 C   0  0  0  0  0  0  0  0  0  0  0  0
  187.4990  177.8780  142.5840 C   0  0  0  0  0  0  0  0  0  0  0  0
  187.9670  176.9670  143.5330 C   0  0  0  0  0  3  0  0  0  0  0  0
  188.3250  178.0940  140.0690 C   0  0  0  0  0  2  0  0  0  0  0  0
  189.3380  176.9750  141.8030 N   0  0  0  0  0  0  0  0  0  0  0  0
  189.9730  176.5110  140.6590 N   0  0  0  0  0  0  0  0  0  0  0  0
  188.3880  177.8410  141.5320 C   0  0  0  0  0  0  0  0  0  0  0  0
  189.1100  176.3760  142.9830 C   0  0  0  0  0  3  0  0  0  0  0  0
  190.0950  177.9900  137.5400 F   0  0  0  0  0  0  0  0  0  0  0  0
  189.8520  176.9430  138.3490 O   0  0  0  0  0  0  0  0  0  0  0  0
  1  2  1  0  0  0  0
  2  5  2  0  0  0  0
  3  1  2  0  0  0  0
  3  4  1  0  0  0  0
  4  6  2  0  0  0  0
  6  5  1  0  0  0  0
  6  9  1  0  0  0  0
  7 15  1  6  0  0  0
  7 10  1  0  0  0  0
  7 11  1  0  0  0  0
 10 11  1  0  0  0  0
 10  8  1  1  0  0  0
 10  1  1  0  0  0  0
 11 14  1  6  0  0  0
 11 12  1  0  0  0  0
 12  2  1  0  0  0  0
 12 26  1  6  0  0  0
 14 13  1  0  0  0  0
 18 17  1  0  0  0  0
 19 15  1  1  0  0  0
 19 17  1  0  0  0  0
 20 16  1  0  0  0  0
 21 24  1  1  0  0  0
 21 23  1  0  0  0  0
 21 25  1  0  0  0  0
 23 19  1  0  0  0  0
 23 22  1  1  0  0  0
 24 20  1  0  0  0  0
 25 16  1  6  0  0  0
 25 18  1  0  0  0  0
 26 27  1  0  0  0  0
 27 30  1  0  0  0  0
 27 28  1  0  0  0  0
 28 29  1  0  0  0  0
 31 34  1  0  0  0  0
 31 36  2  0  0  0  0
 32 30  1  0  0  0  0
 32 33  1  0  0  0  0
 34 37  1  0  0  0  0
 35 38  1  0  0  0  0
 36 35  1  0  0  0  0
 37 35  1  0  0  0  0
 37 32  2  0  0  0  0
 38 33  2  0  0  0  0
 39 40  1  0  0  0  0
 40 31  1  0  0  0  0
M  END
>  <MODEL>
8

>  <REMARK>
 VINA RESULT:      -8.0      4.056      8.302
  Name = 
  9 active torsions:
  status: ('A' for Active; 'I' for Inactive)
    1  A    between atoms: C_4  and  O_33
    2  A    between atoms: C_9  and  N_21
    3  A    between atoms: C_11  and  C_32
    4  A    between atoms: C_12  and  N_19
    5  A    between atoms: C_15  and  C_37
    6  A    between atoms: N_19  and  N_21
    7  A    between atoms: N_19  and  C_35
    8  A    between atoms: C_23  and  C_32
    9  A    between atoms: C_35  and  C_38
                            x       y       z     vdW  Elec       q    Type
                         _______ _______ _______ _____ _____    ______ ____

>  <TORSDO>
F 9

$$$$
=
 OpenBabel11042413023D

 40 46  0  0  1  0  0  0  0  0999 V2000
  184.1310  175.2850  136.3380 C   0  0  0  0  0  0  0  0  0  0  0  0
  183.7430  176.3270  137.1560 C   0  0  0  0  0  0  0  0  0  0  0  0
  183.1780  174.5960  135.5820 C   0  0  0  0  0  3  0  0  0  0  0  0
  181.8350  175.0010  135.6440 C   0  0  0  0  0  3  0  0  0  0  0  0
  182.4080  176.7240  137.2650 C   0  0  0  0  0  3  0  0  0  0  0  0
  181.4510  176.0580  136.4870 C   0  0  0  0  0  0  0  0  0  0  0  0
  186.9200  175.2810  137.1650 C   0  0  2  0  0  3  0  0  0  0  0  0
  185.3150  173.8990  137.5940 O   0  0  0  0  0  1  0  0  0  0  0  0
  179.7730  176.5470  136.5700 Cl  0  0  0  0  0  0  0  0  0  0  0  0
  185.5520  174.8180  136.5650 C   0  0  2  0  0  0  0  0  0  0  0  0
  186.0030  176.3350  136.8470 C   0  0  1  0  0  0  0  0  0  0  0  0
  184.9370  176.8650  137.8220 C   0  0  1  0  0  3  0  0  0  0  0  0
  187.2400  178.2550  135.7640 C   0  0  0  0  0  1  0  0  0  0  0  0
  186.2520  177.1240  135.5380 C   0  0  0  0  0  2  0  0  0  0  0  0
  188.0230  175.0070  136.1440 C   0  0  0  0  0  2  0  0  0  0  0  0
  193.1570  176.3830  138.1080 C   0  0  0  0  0  2  0  0  0  0  0  0
  189.4520  175.9590  137.9870 C   0  0  0  0  0  2  0  0  0  0  0  0
  190.7710  175.9440  138.6340 N   0  0  0  0  0  2  0  0  0  0  0  0
  189.3790  174.9420  136.8310 C   0  0  2  0  0  3  0  0  0  0  0  0
  193.9950  175.9890  136.9000 C   0  0  0  0  0  2  0  0  0  0  0  0
  191.7980  175.1220  136.6600 N   0  0  1  0  0  0  0  0  0  0  0  0
  190.4230  176.3770  134.9870 C   0  0  0  0  0  1  0  0  0  0  0  0
  190.5680  175.1200  135.8580 C   0  0  2  0  0  3  0  0  0  0  0  0
  193.0200  175.3550  135.9100 C   0  0  0  0  0  2  0  0  0  0  0  0
  191.7500  176.2310  137.5950 C   0  0  2  0  0  3  0  0  0  0  0  0
  184.9330  178.3820  138.0920 C   0  0  0  0  0  2  0  0  0  0  0  0
  184.3440  178.7510  139.3770 N   0  0  0  0  0  0  0  0  0  0  0  0
  183.3160  179.7560  139.1400 C   0  0  0  0  0  2  0  0  0  0  0  0
  182.1450  179.3970  139.8080 O   0  0  0  0  0  1  0  0  0  0  0  0
  185.3390  179.3010  140.2110 N   0  0  0  0  0  2  0  0  0  0  0  0
  184.8860  178.6610  144.7780 C   0  0  0  0  0  0  0  0  0  0  0  0
  185.9500  178.6760  141.3560 C   0  0  0  0  0  0  0  0  0  0  0  0
  187.2930  178.3020  141.4200 C   0  0  0  0  0  3  0  0  0  0  0  0
  184.2950  178.9670  143.4130 C   0  0  0  0  0  2  0  0  0  0  0  0
  186.3430  177.9220  143.3760 N   0  0  0  0  0  0  0  0  0  0  0  0
  186.0520  178.0910  144.7230 N   0  0  0  0  0  0  0  0  0  0  0  0
  185.4100  178.4180  142.5960 C   0  0  0  0  0  0  0  0  0  0  0  0
  187.5200  177.8740  142.7330 C   0  0  0  0  0  3  0  0  0  0  0  0
  184.5490  178.2520  147.0930 F   0  0  0  0  0  0  0  0  0  0  0  0
  184.2650  178.9590  145.9850 O   0  0  0  0  0  0  0  0  0  0  0  0
  1 10  1  0  0  0  0
  1  2  1  0  0  0  0
  2  5  2  0  0  0  0
  2 12  1  0  0  0  0
  3  4  1  0  0  0  0
  3  1  2  0  0  0  0
  4  6  2  0  0  0  0
  6  9  1  0  0  0  0
  6  5  1  0  0  0  0
  7 15  1  6  0  0  0
 10 11  1  0  0  0  0
 10  7  1  0  0  0  0
 10  8  1  1  0  0  0
 11 14  1  6  0  0  0
 11  7  1  0  0  0  0
 11 12  1  0  0  0  0
 12 26  1  6  0  0  0
 14 13  1  0  0  0  0
 17 18  1  0  0  0  0
 19 15  1  6  0  0  0
 19 17  1  0  0  0  0
 20 16  1  0  0  0  0
 21 24  1  6  0  0  0
 21 25  1  0  0  0  0
 23 22  1  1  0  0  0
 23 21  1  0  0  0  0
 23 19  1  0  0  0  0
 24 20  1  0  0  0  0
 25 16  1  1  0  0  0
 25 18  1  0  0  0  0
 26 27  1  0  0  0  0
 27 30  1  0  0  0  0
 28 27  1  0  0  0  0
 28 29  1  0  0  0  0
 30 32  1  0  0  0  0
 31 40  1  0  0  0  0
 32 33  1  0  0  0  0
 32 37  2  0  0  0  0
 33 38  2  0  0  0  0
 34 31  1  0  0  0  0
 35 36  1  0  0  0  0
 36 31  2  0  0  0  0
 37 35  1  0  0  0  0
 37 34  1  0  0  0  0
 38 35  1  0  0  0  0
 40 39  1  0  0  0  0
M  END
>  <MODEL>
9

>  <REMARK>
 VINA RESULT:      -7.9      4.546      9.765
  Name = 
  9 active torsions:
  status: ('A' for Active; 'I' for Inactive)
    1  A    between atoms: C_4  and  O_33
    2  A    between atoms: C_9  and  N_21
    3  A    between atoms: C_11  and  C_32
    4  A    between atoms: C_12  and  N_19
    5  A    between atoms: C_15  and  C_37
    6  A    between atoms: N_19  and  N_21
    7  A    between atoms: N_19  and  C_35
    8  A    between atoms: C_23  and  C_32
    9  A    between atoms: C_35  and  C_38
                            x       y       z     vdW  Elec       q    Type
                         _______ _______ _______ _____ _____    ______ ____

>  <TORSDO>
F 9

$$$$
