=
 OpenBabel11032420053D

 46 48  0  0  1  0  0  0  0  0999 V2000
  187.5470  178.0680  147.1280 C   0  0  0  0  0  0  0  0  0  0  0  0
  187.7150  177.6370  145.7950 C   0  0  0  0  0  3  0  0  0  0  0  0
  185.5500  178.5670  145.2870 C   0  0  0  0  0  0  0  0  0  0  0  0
  184.6270  178.7610  144.1330 C   0  0  0  0  0  3  0  0  0  0  0  0
  185.3820  178.9520  146.6110 C   0  0  0  0  0  3  0  0  0  0  0  0
  186.5750  177.5930  143.4900 C   0  0  0  0  0  0  0  0  0  0  0  0
  186.3810  178.6830  147.5010 N   0  0  0  0  0  0  0  0  0  0  0  0
  186.6820  177.9050  144.8990 C   0  0  1  0  0  3  0  0  0  0  0  0
  185.4100  178.0740  143.0390 C   0  0  0  0  0  0  0  0  0  0  0  0
  189.9110  177.3720  147.8130 N   0  0  0  0  0  0  0  0  0  0  0  0
  188.5900  177.8210  148.1480 C   0  0  0  0  0  0  0  0  0  0  0  0
  188.3080  178.0120  149.3590 O   0  0  0  0  0  0  0  0  0  0  0  0
  191.4890  176.4400  146.1640 C   0  0  0  0  0  0  0  0  0  0  0  0
  192.2900  175.7730  147.2250 C   0  0  0  0  0  1  0  0  0  0  0  0
  190.3510  177.2350  146.4930 N   0  0  0  0  0  0  0  0  0  0  0  0
  191.8220  176.3030  144.9580 O   0  0  0  0  0  0  0  0  0  0  0  0
  187.5340  176.7460  142.7110 C   0  0  0  0  0  2  0  0  0  0  0  0
  189.2000  177.3400  140.8540 C   0  0  2  0  0  3  0  0  0  0  0  0
  188.3450  178.4260  141.1710 O   0  0  0  0  0  0  0  0  0  0  0  0
  189.5470  178.3620  143.2490 C   0  0  0  0  0  1  0  0  0  0  0  0
  188.7090  177.5910  142.2410 C   0  0  1  0  0  0  0  0  0  0  0  0
  190.5850  177.7810  140.7080 N   0  0  0  0  0  2  0  0  0  0  0  0
  191.1530  177.1070  139.6190 N   0  0  0  0  0  2  0  0  0  0  0  0
  192.5420  177.1350  139.8100 N   0  0  0  0  0  2  0  0  0  0  0  0
  193.1330  176.7520  138.5960 N   0  0  0  0  0  2  0  0  0  0  0  0
  192.2830  175.7110  138.0160 C   0  0  0  0  0  2  0  0  0  0  0  0
  193.0210  174.8460  137.0900 N   0  0  0  0  0  0  0  0  0  0  0  0
  194.2760  174.4380  137.7090 C   0  0  0  0  0  1  0  0  0  0  0  0
  193.3470  175.5810  135.8780 C   0  0  0  0  0  1  0  0  0  0  0  0
  184.9770  178.0060  141.6100 C   0  0  1  0  0  3  0  0  0  0  0  0
  183.5170  177.5840  141.5040 C   0  0  0  0  0  2  0  0  0  0  0  0
  181.6170  178.4520  140.8000 C   0  0  0  0  0  1  0  0  0  0  0  0
  182.6760  178.6830  141.6740 O   0  0  0  0  0  0  0  0  0  0  0  0
  185.2040  179.3570  140.9520 C   0  0  0  0  0  2  0  0  0  0  0  0
  185.0370  179.2390  139.4510 C   0  0  0  0  0  2  0  0  0  0  0  0
  186.0550  178.2990  138.9090 C   0  0  0  0  0  3  0  0  0  0  0  0
  186.4390  178.3950  137.6390 C   0  0  0  0  0  3  0  0  0  0  0  0
  187.4500  177.4470  137.0630 C   0  0  2  0  0  3  0  0  0  0  0  0
  189.8280  177.4830  136.2580 O   0  0  0  0  0  0  0  0  0  0  0  0
  188.7860  178.1170  136.9240 C   0  0  0  0  0  0  0  0  0  0  0  0
  188.9640  179.2500  137.4320 O   0  0  0  0  0  1  0  0  0  0  0  0
  186.9490  176.8030  135.7610 C   0  0  2  0  0  3  0  0  0  0  0  0
  186.5330  177.8600  134.7560 C   0  0  0  0  0  1  0  0  0  0  0  0
  185.8330  175.7850  136.0010 C   0  0  0  0  0  2  0  0  0  0  0  0
  186.7440  173.6940  136.5770 O   0  0  0  0  0  0  0  0  0  0  0  0
  186.2590  174.7380  136.9790 C   0  0  0  0  0  3  0  0  0  0  0  0
  1  7  1  0  0  0  0
  1 11  1  0  0  0  0
  2  1  2  0  0  0  0
  3  5  1  0  0  0  0
  4  3  2  0  0  0  0
  5  7  2  0  0  0  0
  6  8  1  0  0  0  0
  8  3  1  0  0  0  0
  8  2  1  6  0  0  0
  9  6  2  0  0  0  0
  9  4  1  0  0  0  0
 10 11  1  0  0  0  0
 11 12  2  0  0  0  0
 13 15  1  0  0  0  0
 13 14  1  0  0  0  0
 15 10  2  0  0  0  0
 16 13  2  0  0  0  0
 17  6  1  0  0  0  0
 18 22  1  1  0  0  0
 18 19  1  0  0  0  0
 18 21  1  0  0  0  0
 19 21  1  0  0  0  0
 21 17  1  0  0  0  0
 21 20  1  1  0  0  0
 23 24  1  0  0  0  0
 23 22  1  0  0  0  0
 25 24  1  0  0  0  0
 26 25  1  0  0  0  0
 27 28  1  0  0  0  0
 27 26  1  0  0  0  0
 29 27  1  0  0  0  0
 30 34  1  1  0  0  0
 30  9  1  0  0  0  0
 31 30  1  0  0  0  0
 31 33  1  0  0  0  0
 32 33  1  0  0  0  0
 35 34  1  0  0  0  0
 36 35  1  0  0  0  0
 37 36  2  0  0  0  0
 38 37  1  6  0  0  0
 39 40  2  0  0  0  0
 40 38  1  0  0  0  0
 40 41  1  0  0  0  0
 42 43  1  6  0  0  0
 42 44  1  0  0  0  0
 42 38  1  0  0  0  0
 44 46  1  0  0  0  0
 45 46  2  0  0  0  0
M  END
>  <MODEL>
1

>  <REMARK>
 VINA RESULT:      -7.1      0.000      0.000
  Name = 
  21 active torsions:
  status: ('A' for Active; 'I' for Inactive)
    1  A    between atoms: C_1  and  C_33
    2  A    between atoms: C_1  and  C_41
    3  A    between atoms: N_2  and  C_4
    4  A    between atoms: C_4  and  N_38
    5  A    between atoms: C_6  and  N_28
    6  A    between atoms: N_8  and  N_16
    7  A    between atoms: C_9  and  C_34
    8  A    between atoms: N_10  and  N_19
    9  A    between atoms: N_10  and  N_38
   10  A    between atoms: C_11  and  C_27
   11  A    between atoms: C_12  and  C_20
   12  A    between atoms: C_12  and  C_21
   13  A    between atoms: C_15  and  C_20
   14  A    between atoms: C_15  and  C_40
   15  A    between atoms: C_15  and  C_42
   16  A    between atoms: N_19  and  N_28
   17  A    between atoms: C_24  and  C_25
   18  A    between atoms: C_24  and  C_27
   19  A    between atoms: C_25  and  C_26
   20  A    between atoms: C_25  and  C_46
   21  A    between atoms: C_26  and  O_45
                            x       y       z     vdW  Elec       q    Type
                         _______ _______ _______ _____ _____    ______ ____

>  <TORSDO>
F 21

$$$$
=
 OpenBabel11032420053D

 46 48  0  0  1  0  0  0  0  0999 V2000
  185.5130  177.5100  137.5490 C   0  0  0  0  0  0  0  0  0  0  0  0
  185.9670  178.0540  138.7690 C   0  0  0  0  0  2  0  0  0  0  0  0
  183.7170  177.8750  139.6140 C   0  0  0  0  0  0  0  0  0  0  0  0
  182.9370  178.1200  140.8610 C   0  0  0  0  0  3  0  0  0  0  0  0
  183.2780  177.3750  138.3960 C   0  0  0  0  0  3  0  0  0  0  0  0
  185.1980  178.7490  141.1220 C   0  0  0  0  0  0  0  0  0  0  0  0
  184.1850  177.2150  137.3890 N   0  0  0  0  0  0  0  0  0  0  0  0
  185.0280  178.2270  139.7840 C   0  0  0  0  0  0  0  0  0  0  0  0
  184.0160  178.6960  141.7490 C   0  0  0  0  0  0  0  0  0  0  0  0
  187.2390  176.1160  136.2770 N   0  0  0  0  0  2  0  0  0  0  0  0
  186.4400  177.2990  136.4150 C   0  0  0  0  0  0  0  0  0  0  0  0
  186.5320  178.1930  135.5340 O   0  0  0  0  0  0  0  0  0  0  0  0
  186.2450  173.9390  136.8680 C   0  0  0  0  0  0  0  0  0  0  0  0
  185.3580  173.9580  135.6760 C   0  0  0  0  0  1  0  0  0  0  0  0
  187.1300  175.0230  137.1430 N   0  0  0  0  0  2  0  0  0  0  0  0
  186.2150  172.9510  137.6480 O   0  0  0  0  0  0  0  0  0  0  0  0
  186.4450  179.3810  141.6580 C   0  0  0  0  0  2  0  0  0  0  0  0
  188.5930  178.3870  140.6710 C   0  0  2  0  0  3  0  0  0  0  0  0
  188.8070  178.9490  141.9560 O   0  0  0  0  0  0  0  0  0  0  0  0
  187.3990  177.1290  142.6440 C   0  0  0  0  0  1  0  0  0  0  0  0
  187.5560  178.3440  141.7440 C   0  0  1  0  0  0  0  0  0  0  0  0
  189.2570  177.0920  140.5420 N   0  0  0  0  0  2  0  0  0  0  0  0
  189.8360  177.0150  139.2680 N   0  0  0  0  0  2  0  0  0  0  0  0
  190.7850  175.9840  139.3200 N   0  0  0  0  0  2  0  0  0  0  0  0
  190.6900  175.2740  138.1140 N   0  0  0  0  0  2  0  0  0  0  0  0
  190.8840  176.2400  137.0320 C   0  0  0  0  0  2  0  0  0  0  0  0
  191.9380  175.8250  136.1010 N   0  0  0  0  0  0  0  0  0  0  0  0
  191.8720  174.3810  135.9130 C   0  0  0  0  0  1  0  0  0  0  0  0
  193.2450  176.1370  136.6600 C   0  0  0  0  0  1  0  0  0  0  0  0
  183.8110  179.0840  143.1770 C   0  0  1  0  0  3  0  0  0  0  0  0
  182.3620  178.8630  143.5980 C   0  0  0  0  0  2  0  0  0  0  0  0
  180.3040  179.4910  143.1230 C   0  0  0  0  0  1  0  0  0  0  0  0
  181.5910  179.9870  143.3080 O   0  0  0  0  0  0  0  0  0  0  0  0
  184.7630  178.2900  144.0560 C   0  0  0  0  0  2  0  0  0  0  0  0
  185.0160  179.0330  145.3510 C   0  0  0  0  0  2  0  0  0  0  0  0
  185.9330  178.2360  146.2110 C   0  0  0  0  0  3  0  0  0  0  0  0
  187.2010  178.0610  145.8470 C   0  0  0  0  0  3  0  0  0  0  0  0
  188.1400  177.2460  146.6870 C   0  0  2  0  0  3  0  0  0  0  0  0
  187.7380  177.1850  149.1650 O   0  0  0  0  0  1  0  0  0  0  0  0
  188.2720  177.8380  148.0600 C   0  0  0  0  0  0  0  0  0  0  0  0
  188.8500  178.9420  148.2040 O   0  0  0  0  0  0  0  0  0  0  0  0
  189.4880  177.0270  145.9830 C   0  0  2  0  0  3  0  0  0  0  0  0
  190.5710  176.6610  146.9800 C   0  0  0  0  0  1  0  0  0  0  0  0
  189.9000  178.2210  145.1190 C   0  0  0  0  0  2  0  0  0  0  0  0
  191.4310  177.5020  143.4850 O   0  0  0  0  0  0  0  0  0  0  0  0
  191.2770  178.0390  144.5700 C   0  0  0  0  0  3  0  0  0  0  0  0
  1  2  1  0  0  0  0
  2  8  1  0  0  0  0
  3  8  1  0  0  0  0
  3  4  1  0  0  0  0
  4  9  2  0  0  0  0
  5  3  2  0  0  0  0
  6 17  1  0  0  0  0
  6  9  1  0  0  0  0
  7  1  2  0  0  0  0
  7  5  1  0  0  0  0
  8  6  2  0  0  0  0
  9 30  1  0  0  0  0
 10 11  1  0  0  0  0
 10 15  1  0  0  0  0
 11  1  1  0  0  0  0
 12 11  2  0  0  0  0
 13 15  1  0  0  0  0
 13 16  2  0  0  0  0
 14 13  1  0  0  0  0
 17 21  1  0  0  0  0
 18 22  1  1  0  0  0
 18 21  1  0  0  0  0
 18 19  1  0  0  0  0
 21 19  1  0  0  0  0
 21 20  1  1  0  0  0
 23 24  1  0  0  0  0
 23 22  1  0  0  0  0
 25 24  1  0  0  0  0
 26 25  1  0  0  0  0
 27 29  1  0  0  0  0
 27 26  1  0  0  0  0
 28 27  1  0  0  0  0
 30 31  1  1  0  0  0
 30 34  1  0  0  0  0
 32 33  1  0  0  0  0
 33 31  1  0  0  0  0
 34 35  1  0  0  0  0
 35 36  1  0  0  0  0
 37 36  2  0  0  0  0
 38 37  1  6  0  0  0
 38 40  1  0  0  0  0
 40 41  2  0  0  0  0
 40 39  1  0  0  0  0
 42 38  1  0  0  0  0
 42 43  1  1  0  0  0
 44 42  1  0  0  0  0
 45 46  2  0  0  0  0
 46 44  1  0  0  0  0
M  END
>  <MODEL>
2

>  <REMARK>
 VINA RESULT:      -7.0      2.355      7.690
  Name = 
  21 active torsions:
  status: ('A' for Active; 'I' for Inactive)
    1  A    between atoms: C_1  and  C_33
    2  A    between atoms: C_1  and  C_41
    3  A    between atoms: N_2  and  C_4
    4  A    between atoms: C_4  and  N_38
    5  A    between atoms: C_6  and  N_28
    6  A    between atoms: N_8  and  N_16
    7  A    between atoms: C_9  and  C_34
    8  A    between atoms: N_10  and  N_19
    9  A    between atoms: N_10  and  N_38
   10  A    between atoms: C_11  and  C_27
   11  A    between atoms: C_12  and  C_20
   12  A    between atoms: C_12  and  C_21
   13  A    between atoms: C_15  and  C_20
   14  A    between atoms: C_15  and  C_40
   15  A    between atoms: C_15  and  C_42
   16  A    between atoms: N_19  and  N_28
   17  A    between atoms: C_24  and  C_25
   18  A    between atoms: C_24  and  C_27
   19  A    between atoms: C_25  and  C_26
   20  A    between atoms: C_25  and  C_46
   21  A    between atoms: C_26  and  O_45
                            x       y       z     vdW  Elec       q    Type
                         _______ _______ _______ _____ _____    ______ ____

>  <TORSDO>
F 21

$$$$
=
 OpenBabel11032420053D

 46 48  0  0  1  0  0  0  0  0999 V2000
  187.8670  178.1440  147.2900 C   0  0  0  0  0  0  0  0  0  0  0  0
  187.9330  177.6840  145.9580 C   0  0  0  0  0  3  0  0  0  0  0  0
  185.7380  178.6130  145.5950 C   0  0  0  0  0  0  0  0  0  0  0  0
  184.7310  178.7860  144.5090 C   0  0  0  0  0  3  0  0  0  0  0  0
  185.6720  179.0270  146.9190 C   0  0  0  0  0  3  0  0  0  0  0  0
  186.6220  177.5950  143.7470 C   0  0  0  0  0  0  0  0  0  0  0  0
  186.7340  178.7720  147.7370 N   0  0  0  0  0  0  0  0  0  0  0  0
  186.8360  177.9370  145.1370 C   0  0  1  0  0  3  0  0  0  0  0  0
  185.4280  178.0710  143.3750 C   0  0  0  0  0  0  0  0  0  0  0  0
  190.2490  177.3790  147.8220 N   0  0  0  0  0  0  0  0  0  0  0  0
  188.9840  177.9140  148.2330 C   0  0  0  0  0  0  0  0  0  0  0  0
  188.8170  178.2000  149.4480 O   0  0  0  0  0  0  0  0  0  0  0  0
  191.6190  176.2420  146.1160 C   0  0  0  0  0  0  0  0  0  0  0  0
  192.4620  175.5870  147.1500 C   0  0  0  0  0  1  0  0  0  0  0  0
  190.5660  177.1310  146.4830 N   0  0  0  0  0  0  0  0  0  0  0  0
  191.8380  176.0080  144.8990 O   0  0  0  0  0  0  0  0  0  0  0  0
  187.5170  176.7270  142.9170 C   0  0  0  0  0  2  0  0  0  0  0  0
  188.9320  177.4170  140.8920 C   0  0  2  0  0  3  0  0  0  0  0  0
  188.2040  178.5090  141.4310 O   0  0  0  0  0  0  0  0  0  0  0  0
  189.6880  178.1770  143.2900 C   0  0  0  0  0  1  0  0  0  0  0  0
  188.6640  177.5540  142.3540 C   0  0  1  0  0  0  0  0  0  0  0  0
  190.3060  177.7990  140.5790 N   0  0  0  0  0  2  0  0  0  0  0  0
  190.7290  177.0640  139.4640 N   0  0  0  0  0  2  0  0  0  0  0  0
  189.7450  176.0950  139.2240 N   0  0  0  0  0  2  0  0  0  0  0  0
  189.4590  176.1280  137.8510 N   0  0  0  0  0  2  0  0  0  0  0  0
  188.1060  176.6650  137.7080 C   0  0  0  0  0  2  0  0  0  0  0  0
  188.0820  177.9020  136.9210 N   0  0  0  0  0  0  0  0  0  0  0  0
  186.7840  178.0330  136.2690 C   0  0  0  0  0  1  0  0  0  0  0  0
  189.0940  177.8470  135.8780 C   0  0  0  0  0  1  0  0  0  0  0  0
  184.8880  177.9750  141.9840 C   0  0  1  0  0  3  0  0  0  0  0  0
  183.3720  177.8130  142.0000 C   0  0  0  0  0  2  0  0  0  0  0  0
  181.5440  178.8750  142.6230 C   0  0  0  0  0  1  0  0  0  0  0  0
  182.7460  179.0570  141.9450 O   0  0  0  0  0  0  0  0  0  0  0  0
  185.2970  179.2110  141.2000 C   0  0  0  0  0  2  0  0  0  0  0  0
  185.3870  178.8840  139.7240 C   0  0  0  0  0  2  0  0  0  0  0  0
  184.2600  179.5330  139.0000 C   0  0  0  0  0  3  0  0  0  0  0  0
  183.2590  178.7930  138.5300 C   0  0  0  0  0  3  0  0  0  0  0  0
  182.1200  179.4220  137.7800 C   0  0  2  0  0  3  0  0  0  0  0  0
  180.3230  179.8400  139.4830 O   0  0  0  0  0  1  0  0  0  0  0  0
  181.3380  180.3390  138.6760 C   0  0  0  0  0  0  0  0  0  0  0  0
  181.5930  181.5670  138.6760 O   0  0  0  0  0  0  0  0  0  0  0  0
  181.2520  178.3680  137.0760 C   0  0  2  0  0  3  0  0  0  0  0  0
  181.4690  176.9920  137.6790 C   0  0  0  0  0  1  0  0  0  0  0  0
  181.4570  178.3560  135.5600 C   0  0  0  0  0  2  0  0  0  0  0  0
  182.3370  176.3990  134.5970 O   0  0  0  0  0  0  0  0  0  0  0  0
  182.5780  177.4450  135.1750 C   0  0  0  0  0  3  0  0  0  0  0  0
  1  7  1  0  0  0  0
  1 11  1  0  0  0  0
  2  1  2  0  0  0  0
  3  5  1  0  0  0  0
  4  3  2  0  0  0  0
  5  7  2  0  0  0  0
  6  8  1  0  0  0  0
  8  3  1  0  0  0  0
  8  2  1  6  0  0  0
  9  6  2  0  0  0  0
  9  4  1  0  0  0  0
 10 11  1  0  0  0  0
 11 12  2  0  0  0  0
 13 15  1  0  0  0  0
 13 14  1  0  0  0  0
 15 10  2  0  0  0  0
 16 13  2  0  0  0  0
 17  6  1  0  0  0  0
 18 22  1  1  0  0  0
 18 19  1  0  0  0  0
 18 21  1  0  0  0  0
 19 21  1  0  0  0  0
 21 17  1  0  0  0  0
 21 20  1  1  0  0  0
 23 22  1  0  0  0  0
 24 23  1  0  0  0  0
 25 24  1  0  0  0  0
 26 25  1  0  0  0  0
 27 26  1  0  0  0  0
 28 27  1  0  0  0  0
 29 27  1  0  0  0  0
 30 34  1  6  0  0  0
 30 31  1  0  0  0  0
 30  9  1  0  0  0  0
 33 31  1  0  0  0  0
 33 32  1  0  0  0  0
 35 34  1  0  0  0  0
 36 35  1  0  0  0  0
 37 36  2  0  0  0  0
 38 37  1  1  0  0  0
 38 40  1  0  0  0  0
 40 39  1  0  0  0  0
 41 40  2  0  0  0  0
 42 43  1  1  0  0  0
 42 38  1  0  0  0  0
 44 42  1  0  0  0  0
 45 46  2  0  0  0  0
 46 44  1  0  0  0  0
M  END
>  <MODEL>
3

>  <REMARK>
 VINA RESULT:      -6.4      2.177      3.640
  Name = 
  21 active torsions:
  status: ('A' for Active; 'I' for Inactive)
    1  A    between atoms: C_1  and  C_33
    2  A    between atoms: C_1  and  C_41
    3  A    between atoms: N_2  and  C_4
    4  A    between atoms: C_4  and  N_38
    5  A    between atoms: C_6  and  N_28
    6  A    between atoms: N_8  and  N_16
    7  A    between atoms: C_9  and  C_34
    8  A    between atoms: N_10  and  N_19
    9  A    between atoms: N_10  and  N_38
   10  A    between atoms: C_11  and  C_27
   11  A    between atoms: C_12  and  C_20
   12  A    between atoms: C_12  and  C_21
   13  A    between atoms: C_15  and  C_20
   14  A    between atoms: C_15  and  C_40
   15  A    between atoms: C_15  and  C_42
   16  A    between atoms: N_19  and  N_28
   17  A    between atoms: C_24  and  C_25
   18  A    between atoms: C_24  and  C_27
   19  A    between atoms: C_25  and  C_26
   20  A    between atoms: C_25  and  C_46
   21  A    between atoms: C_26  and  O_45
                            x       y       z     vdW  Elec       q    Type
                         _______ _______ _______ _____ _____    ______ ____

>  <TORSDO>
F 21

$$$$
=
 OpenBabel11032420053D

 46 48  0  0  1  0  0  0  0  0999 V2000
  189.5030  177.3970  143.2720 C   0  0  0  0  0  0  0  0  0  0  0  0
  189.1680  177.0400  141.9490 C   0  0  0  0  0  3  0  0  0  0  0  0
  191.4780  177.3680  141.3420 C   0  0  0  0  0  0  0  0  0  0  0  0
  192.3810  177.2500  140.1620 C   0  0  0  0  0  3  0  0  0  0  0  0
  191.7860  177.7530  142.6400 C   0  0  0  0  0  3  0  0  0  0  0  0
  190.1510  176.7210  139.5950 C   0  0  0  0  0  0  0  0  0  0  0  0
  190.7880  177.7690  143.5710 N   0  0  0  0  0  0  0  0  0  0  0  0
  190.1930  177.0420  141.0050 C   0  0  1  0  0  3  0  0  0  0  0  0
  191.3900  176.8350  139.1000 C   0  0  0  0  0  0  0  0  0  0  0  0
  188.7670  177.0910  145.7020 N   0  0  0  0  0  2  0  0  0  0  0  0
  188.4780  177.4280  144.3390 C   0  0  0  0  0  0  0  0  0  0  0  0
  187.3030  177.7640  144.0380 O   0  0  0  0  0  0  0  0  0  0  0  0
  190.5050  177.2190  147.4460 C   0  0  0  0  0  0  0  0  0  0  0  0
  189.6260  178.0170  148.3420 C   0  0  0  0  0  1  0  0  0  0  0  0
  190.0600  176.8100  146.1550 N   0  0  0  0  0  2  0  0  0  0  0  0
  191.6590  176.9020  147.8340 O   0  0  0  0  0  0  0  0  0  0  0  0
  188.9110  176.4570  138.7980 C   0  0  0  0  0  2  0  0  0  0  0  0
  186.9170  178.0640  138.9400 C   0  0  2  0  0  3  0  0  0  0  0  0
  188.0980  178.6300  139.4860 O   0  0  0  0  0  0  0  0  0  0  0  0
  188.8200  178.5510  137.1970 C   0  0  0  0  0  1  0  0  0  0  0  0
  188.2710  177.7750  138.3840 C   0  0  1  0  0  0  0  0  0  0  0  0
  186.2070  179.0260  138.1010 N   0  0  0  0  0  2  0  0  0  0  0  0
  184.8590  179.0390  138.4830 N   0  0  0  0  0  2  0  0  0  0  0  0
  184.8260  179.4250  139.8300 N   0  0  0  0  0  2  0  0  0  0  0  0
  184.3000  178.3460  140.5560 N   0  0  0  0  0  2  0  0  0  0  0  0
  183.0170  178.7850  141.1040 C   0  0  0  0  0  2  0  0  0  0  0  0
  183.1220  179.1830  142.5120 N   0  0  0  0  0  0  0  0  0  0  0  0
  184.1400  178.3700  143.1670 C   0  0  0  0  0  1  0  0  0  0  0  0
  181.8600  178.9410  143.1920 C   0  0  0  0  0  1  0  0  0  0  0  0
  191.7570  176.5130  137.6880 C   0  0  1  0  0  3  0  0  0  0  0  0
  193.2710  176.4830  137.5130 C   0  0  0  0  0  2  0  0  0  0  0  0
  194.7470  174.9470  136.9470 C   0  0  0  0  0  1  0  0  0  0  0  0
  193.7840  175.2480  137.9050 O   0  0  0  0  0  0  0  0  0  0  0  0
  191.1350  175.1830  137.2970 C   0  0  0  0  0  2  0  0  0  0  0  0
  191.1560  175.0200  135.7920 C   0  0  0  0  0  2  0  0  0  0  0  0
  189.7690  174.8200  135.2930 C   0  0  0  0  0  3  0  0  0  0  0  0
  188.7610  174.7180  136.1560 C   0  0  0  0  0  3  0  0  0  0  0  0
  187.3550  174.4970  135.6790 C   0  0  2  0  0  3  0  0  0  0  0  0
  186.9230  176.8010  134.7800 O   0  0  0  0  0  0  0  0  0  0  0  0
  186.5890  175.7870  135.6700 C   0  0  0  0  0  0  0  0  0  0  0  0
  185.6550  175.9570  136.4900 O   0  0  0  0  0  1  0  0  0  0  0  0
  186.6570  173.3770  136.4660 C   0  0  2  0  0  3  0  0  0  0  0  0
  187.6710  172.4380  137.0930 C   0  0  0  0  0  1  0  0  0  0  0  0
  185.6340  172.6150  135.6210 C   0  0  0  0  0  2  0  0  0  0  0  0
  183.9090  172.4300  137.2090 O   0  0  0  0  0  0  0  0  0  0  0  0
  184.6920  171.8400  136.4840 C   0  0  0  0  0  3  0  0  0  0  0  0
  1  7  1  0  0  0  0
  1 11  1  0  0  0  0
  2  1  2  0  0  0  0
  3  5  1  0  0  0  0
  4  3  2  0  0  0  0
  5  7  2  0  0  0  0
  6  8  1  0  0  0  0
  8  3  1  0  0  0  0
  8  2  1  1  0  0  0
  9  6  2  0  0  0  0
  9  4  1  0  0  0  0
 10 15  1  0  0  0  0
 11 10  1  0  0  0  0
 12 11  2  0  0  0  0
 13 16  2  0  0  0  0
 13 14  1  0  0  0  0
 15 13  1  0  0  0  0
 17  6  1  0  0  0  0
 18 22  1  6  0  0  0
 18 19  1  0  0  0  0
 21 20  1  6  0  0  0
 21 17  1  0  0  0  0
 21 18  1  0  0  0  0
 21 19  1  0  0  0  0
 22 23  1  0  0  0  0
 23 24  1  0  0  0  0
 24 25  1  0  0  0  0
 25 26  1  0  0  0  0
 26 27  1  0  0  0  0
 27 28  1  0  0  0  0
 27 29  1  0  0  0  0
 30 34  1  1  0  0  0
 30  9  1  0  0  0  0
 31 30  1  0  0  0  0
 31 33  1  0  0  0  0
 32 33  1  0  0  0  0
 35 34  1  0  0  0  0
 36 35  1  0  0  0  0
 36 37  2  0  0  0  0
 38 37  1  1  0  0  0
 38 42  1  0  0  0  0
 39 40  2  0  0  0  0
 40 38  1  0  0  0  0
 40 41  1  0  0  0  0
 42 43  1  6  0  0  0
 44 42  1  0  0  0  0
 44 46  1  0  0  0  0
 46 45  2  0  0  0  0
M  END
>  <MODEL>
4

>  <REMARK>
 VINA RESULT:      -6.1      2.859      6.917
  Name = 
  21 active torsions:
  status: ('A' for Active; 'I' for Inactive)
    1  A    between atoms: C_1  and  C_33
    2  A    between atoms: C_1  and  C_41
    3  A    between atoms: N_2  and  C_4
    4  A    between atoms: C_4  and  N_38
    5  A    between atoms: C_6  and  N_28
    6  A    between atoms: N_8  and  N_16
    7  A    between atoms: C_9  and  C_34
    8  A    between atoms: N_10  and  N_19
    9  A    between atoms: N_10  and  N_38
   10  A    between atoms: C_11  and  C_27
   11  A    between atoms: C_12  and  C_20
   12  A    between atoms: C_12  and  C_21
   13  A    between atoms: C_15  and  C_20
   14  A    between atoms: C_15  and  C_40
   15  A    between atoms: C_15  and  C_42
   16  A    between atoms: N_19  and  N_28
   17  A    between atoms: C_24  and  C_25
   18  A    between atoms: C_24  and  C_27
   19  A    between atoms: C_25  and  C_26
   20  A    between atoms: C_25  and  C_46
   21  A    between atoms: C_26  and  O_45
                            x       y       z     vdW  Elec       q    Type
                         _______ _______ _______ _____ _____    ______ ____

>  <TORSDO>
F 21

$$$$
=
 OpenBabel11032420053D

 46 48  0  0  1  0  0  0  0  0999 V2000
  182.5620  173.3110  136.5240 C   0  0  0  0  0  0  0  0  0  0  0  0
  183.0130  174.6480  136.5290 C   0  0  0  0  0  3  0  0  0  0  0  0
  185.2160  173.8360  137.0770 C   0  0  0  0  0  0  0  0  0  0  0  0
  186.5990  174.3410  137.3100 C   0  0  0  0  0  2  0  0  0  0  0  0
  184.7490  172.5290  137.1040 C   0  0  0  0  0  3  0  0  0  0  0  0
  185.0960  176.1130  136.8900 C   0  0  0  0  0  0  0  0  0  0  0  0
  183.4310  172.2990  136.8380 N   0  0  0  0  0  0  0  0  0  0  0  0
  184.3580  174.8700  136.8180 C   0  0  0  0  0  0  0  0  0  0  0  0
  186.3740  175.8290  137.1700 C   0  0  0  0  0  0  0  0  0  0  0  0
  180.1150  173.0620  137.2260 N   0  0  0  0  0  2  0  0  0  0  0  0
  181.1480  172.9830  136.2350 C   0  0  0  0  0  0  0  0  0  0  0  0
  180.8380  172.6210  135.0700 O   0  0  0  0  0  0  0  0  0  0  0  0
  180.1100  174.9240  138.8420 C   0  0  0  0  0  0  0  0  0  0  0  0
  179.6770  175.8960  137.8040 C   0  0  0  0  0  1  0  0  0  0  0  0
  180.3400  173.5550  138.5150 N   0  0  0  0  0  2  0  0  0  0  0  0
  180.2760  175.3160  140.0260 O   0  0  0  0  0  0  0  0  0  0  0  0
  184.4990  177.4850  136.8170 C   0  0  0  0  0  2  0  0  0  0  0  0
  184.2650  179.2690  138.6440 C   0  0  2  0  0  3  0  0  0  0  0  0
  183.0140  178.9270  138.0680 O   0  0  0  0  0  0  0  0  0  0  0  0
  183.4470  176.8230  139.1420 C   0  0  0  0  0  1  0  0  0  0  0  0
  183.9510  177.8850  138.1790 C   0  0  1  0  0  0  0  0  0  0  0  0
  184.1720  179.3590  140.0990 N   0  0  0  0  0  2  0  0  0  0  0  0
  185.4590  179.5620  140.6150 N   0  0  0  0  0  2  0  0  0  0  0  0
  185.3280  179.6160  142.0090 N   0  0  0  0  0  2  0  0  0  0  0  0
  186.0020  178.5010  142.5300 N   0  0  0  0  0  2  0  0  0  0  0  0
  185.2270  178.0300  143.6780 C   0  0  0  0  0  2  0  0  0  0  0  0
  184.6630  179.1360  144.4580 N   0  0  0  0  0  0  0  0  0  0  0  0
  185.1970  179.0890  145.8140 C   0  0  0  0  0  1  0  0  0  0  0  0
  183.2190  178.9950  144.5480 C   0  0  0  0  0  1  0  0  0  0  0  0
  187.4570  176.8550  137.2550 C   0  0  1  0  0  3  0  0  0  0  0  0
  187.2300  177.9700  136.2410 C   0  0  0  0  0  2  0  0  0  0  0  0
  189.0780  177.4400  135.1630 C   0  0  0  0  0  1  0  0  0  0  0  0
  187.7060  177.5950  134.9860 O   0  0  0  0  0  0  0  0  0  0  0  0
  187.5180  177.4060  138.6690 C   0  0  0  0  0  2  0  0  0  0  0  0
  188.9340  177.3250  139.1990 C   0  0  0  0  0  2  0  0  0  0  0  0
  188.9960  177.9400  140.5530 C   0  0  0  0  0  3  0  0  0  0  0  0
  189.6100  177.3010  141.5450 C   0  0  0  0  0  3  0  0  0  0  0  0
  189.6690  177.8920  142.9240 C   0  0  2  0  0  3  0  0  0  0  0  0
  192.1670  177.6430  142.8760 O   0  0  0  0  0  0  0  0  0  0  0  0
  191.0510  178.3940  143.2260 C   0  0  0  0  0  0  0  0  0  0  0  0
  191.1950  179.4900  143.8180 O   0  0  0  0  0  1  0  0  0  0  0  0
  189.1270  176.9190  143.9830 C   0  0  2  0  0  3  0  0  0  0  0  0
  188.1630  175.9240  143.3660 C   0  0  0  0  0  1  0  0  0  0  0  0
  188.5010  177.6420  145.1770 C   0  0  0  0  0  2  0  0  0  0  0  0
  190.4160  176.9090  146.3300 O   0  0  0  0  0  0  0  0  0  0  0  0
  189.3610  177.5180  146.3930 C   0  0  0  0  0  3  0  0  0  0  0  0
  1  2  2  0  0  0  0
  1  7  1  0  0  0  0
  2  8  1  0  0  0  0
  3  5  1  0  0  0  0
  3  4  1  0  0  0  0
  6  9  2  0  0  0  0
  7  5  2  0  0  0  0
  8  6  1  0  0  0  0
  8  3  2  0  0  0  0
  9 30  1  0  0  0  0
  9  4  1  0  0  0  0
 10 15  1  0  0  0  0
 11  1  1  0  0  0  0
 11 10  1  0  0  0  0
 12 11  2  0  0  0  0
 13 16  2  0  0  0  0
 14 13  1  0  0  0  0
 15 13  1  0  0  0  0
 17  6  1  0  0  0  0
 17 21  1  0  0  0  0
 18 22  1  1  0  0  0
 19 21  1  0  0  0  0
 19 18  1  0  0  0  0
 21 18  1  0  0  0  0
 21 20  1  1  0  0  0
 22 23  1  0  0  0  0
 23 24  1  0  0  0  0
 24 25  1  0  0  0  0
 25 26  1  0  0  0  0
 26 27  1  0  0  0  0
 27 29  1  0  0  0  0
 27 28  1  0  0  0  0
 30 31  1  6  0  0  0
 30 34  1  0  0  0  0
 33 32  1  0  0  0  0
 33 31  1  0  0  0  0
 34 35  1  0  0  0  0
 35 36  1  0  0  0  0
 36 37  2  0  0  0  0
 38 37  1  6  0  0  0
 38 40  1  0  0  0  0
 38 42  1  0  0  0  0
 39 40  2  0  0  0  0
 40 41  1  0  0  0  0
 42 43  1  6  0  0  0
 42 44  1  0  0  0  0
 44 46  1  0  0  0  0
 45 46  2  0  0  0  0
M  END
>  <MODEL>
5

>  <REMARK>
 VINA RESULT:      -6.1      4.056      9.750
  Name = 
  21 active torsions:
  status: ('A' for Active; 'I' for Inactive)
    1  A    between atoms: C_1  and  C_33
    2  A    between atoms: C_1  and  C_41
    3  A    between atoms: N_2  and  C_4
    4  A    between atoms: C_4  and  N_38
    5  A    between atoms: C_6  and  N_28
    6  A    between atoms: N_8  and  N_16
    7  A    between atoms: C_9  and  C_34
    8  A    between atoms: N_10  and  N_19
    9  A    between atoms: N_10  and  N_38
   10  A    between atoms: C_11  and  C_27
   11  A    between atoms: C_12  and  C_20
   12  A    between atoms: C_12  and  C_21
   13  A    between atoms: C_15  and  C_20
   14  A    between atoms: C_15  and  C_40
   15  A    between atoms: C_15  and  C_42
   16  A    between atoms: N_19  and  N_28
   17  A    between atoms: C_24  and  C_25
   18  A    between atoms: C_24  and  C_27
   19  A    between atoms: C_25  and  C_26
   20  A    between atoms: C_25  and  C_46
   21  A    between atoms: C_26  and  O_45
                            x       y       z     vdW  Elec       q    Type
                         _______ _______ _______ _____ _____    ______ ____

>  <TORSDO>
F 21

$$$$
=
 OpenBabel11032420053D

 46 48  0  0  1  0  0  0  0  0999 V2000
  186.4490  178.0520  143.6460 C   0  0  0  0  0  0  0  0  0  0  0  0
  185.5890  177.8530  142.5460 C   0  0  0  0  0  3  0  0  0  0  0  0
  183.8180  178.8700  143.8260 C   0  0  0  0  0  0  0  0  0  0  0  0
  182.3860  179.2630  143.6910 C   0  0  0  0  0  2  0  0  0  0  0  0
  184.6660  179.0260  144.9140 C   0  0  0  0  0  3  0  0  0  0  0  0
  183.1750  178.2080  141.7330 C   0  0  0  0  0  0  0  0  0  0  0  0
  185.9580  178.6030  144.8010 N   0  0  0  0  0  0  0  0  0  0  0  0
  184.2680  178.2750  142.6790 C   0  0  0  0  0  0  0  0  0  0  0  0
  182.0960  178.7660  142.2940 C   0  0  0  0  0  0  0  0  0  0  0  0
  188.6690  177.4650  144.7720 N   0  0  0  0  0  0  0  0  0  0  0  0
  187.8660  177.6280  143.5950 C   0  0  0  0  0  0  0  0  0  0  0  0
  188.3890  177.4000  142.4740 O   0  0  0  0  0  0  0  0  0  0  0  0
  188.9270  177.2630  147.2160 C   0  0  0  0  0  0  0  0  0  0  0  0
  190.3040  176.7170  147.0810 C   0  0  0  0  0  1  0  0  0  0  0  0
  188.1510  177.5900  146.0650 N   0  0  0  0  0  0  0  0  0  0  0  0
  188.4400  177.4380  148.3630 O   0  0  0  0  0  0  0  0  0  0  0  0
  183.2080  177.4980  140.4140 C   0  0  0  0  0  2  0  0  0  0  0  0
  185.0690  177.6580  138.6560 C   0  0  2  0  0  3  0  0  0  0  0  0
  183.7810  177.8440  138.0890 O   0  0  0  0  0  0  0  0  0  0  0  0
  183.8340  179.8520  139.4040 C   0  0  0  0  0  1  0  0  0  0  0  0
  183.9630  178.3380  139.3930 C   0  0  1  0  0  0  0  0  0  0  0  0
  186.0220  178.6350  138.1380 N   0  0  0  0  0  2  0  0  0  0  0  0
  187.2210  178.5090  138.8510 N   0  0  0  0  0  2  0  0  0  0  0  0
  188.0440  177.6540  138.1050 N   0  0  0  0  0  2  0  0  0  0  0  0
  189.3680  177.9190  138.4870 N   0  0  0  0  0  2  0  0  0  0  0  0
  190.2320  177.3830  137.4350 C   0  0  0  0  0  2  0  0  0  0  0  0
  191.3240  176.5670  137.9760 N   0  0  0  0  0  0  0  0  0  0  0  0
  190.9930  175.1560  137.8180 C   0  0  0  0  0  1  0  0  0  0  0  0
  191.4780  176.8270  139.3990 C   0  0  0  0  0  1  0  0  0  0  0  0
  180.7890  178.9450  141.5930 C   0  0  1  0  0  3  0  0  0  0  0  0
  179.7720  179.6250  142.5020 C   0  0  0  0  0  2  0  0  0  0  0  0
  179.0010  178.9570  144.4560 C   0  0  0  0  0  1  0  0  0  0  0  0
  178.9350  178.6800  143.0940 O   0  0  0  0  0  0  0  0  0  0  0  0
  181.0070  179.7480  140.3210 C   0  0  0  0  0  2  0  0  0  0  0  0
  179.7230  179.8100  139.5190 C   0  0  0  0  0  2  0  0  0  0  0  0
  179.4650  178.4870  138.8890 C   0  0  0  0  0  3  0  0  0  0  0  0
  180.4580  177.8270  138.2990 C   0  0  0  0  0  3  0  0  0  0  0  0
  180.2190  176.4990  137.6400 C   0  0  2  0  0  3  0  0  0  0  0  0
  182.1430  174.9630  138.1330 O   0  0  0  0  0  0  0  0  0  0  0  0
  180.8550  175.3930  138.4300 C   0  0  0  0  0  0  0  0  0  0  0  0
  180.2070  174.8400  139.3510 O   0  0  0  0  0  1  0  0  0  0  0  0
  180.6380  176.5150  136.1620 C   0  0  2  0  0  3  0  0  0  0  0  0
  181.1010  177.8970  135.7420 C   0  0  0  0  0  1  0  0  0  0  0  0
  179.5430  175.9830  135.2350 C   0  0  0  0  0  2  0  0  0  0  0  0
  180.8780  174.0540  135.0670 O   0  0  0  0  0  0  0  0  0  0  0  0
  179.9560  174.6980  134.5950 C   0  0  0  0  0  3  0  0  0  0  0  0
  1  7  1  0  0  0  0
  2  8  1  0  0  0  0
  2  1  2  0  0  0  0
  3  5  1  0  0  0  0
  4  3  1  0  0  0  0
  6  9  2  0  0  0  0
  6  8  1  0  0  0  0
  7  5  2  0  0  0  0
  8  3  2  0  0  0  0
  9  4  1  0  0  0  0
 10 15  2  0  0  0  0
 11  1  1  0  0  0  0
 11 10  1  0  0  0  0
 12 11  2  0  0  0  0
 13 16  2  0  0  0  0
 14 13  1  0  0  0  0
 15 13  1  0  0  0  0
 17  6  1  0  0  0  0
 18 22  1  6  0  0  0
 18 21  1  0  0  0  0
 19 18  1  0  0  0  0
 19 21  1  0  0  0  0
 21 20  1  1  0  0  0
 21 17  1  0  0  0  0
 22 23  1  0  0  0  0
 24 25  1  0  0  0  0
 24 23  1  0  0  0  0
 26 27  1  0  0  0  0
 26 25  1  0  0  0  0
 27 29  1  0  0  0  0
 28 27  1  0  0  0  0
 30 34  1  6  0  0  0
 30  9  1  0  0  0  0
 30 31  1  0  0  0  0
 31 33  1  0  0  0  0
 33 32  1  0  0  0  0
 35 34  1  0  0  0  0
 36 35  1  0  0  0  0
 37 36  2  0  0  0  0
 38 37  1  1  0  0  0
 38 40  1  0  0  0  0
 39 40  2  0  0  0  0
 40 41  1  0  0  0  0
 42 43  1  6  0  0  0
 42 38  1  0  0  0  0
 44 42  1  0  0  0  0
 46 45  2  0  0  0  0
 46 44  1  0  0  0  0
M  END
>  <MODEL>
6

>  <REMARK>
 VINA RESULT:      -5.7      3.145      5.076
  Name = 
  21 active torsions:
  status: ('A' for Active; 'I' for Inactive)
    1  A    between atoms: C_1  and  C_33
    2  A    between atoms: C_1  and  C_41
    3  A    between atoms: N_2  and  C_4
    4  A    between atoms: C_4  and  N_38
    5  A    between atoms: C_6  and  N_28
    6  A    between atoms: N_8  and  N_16
    7  A    between atoms: C_9  and  C_34
    8  A    between atoms: N_10  and  N_19
    9  A    between atoms: N_10  and  N_38
   10  A    between atoms: C_11  and  C_27
   11  A    between atoms: C_12  and  C_20
   12  A    between atoms: C_12  and  C_21
   13  A    between atoms: C_15  and  C_20
   14  A    between atoms: C_15  and  C_40
   15  A    between atoms: C_15  and  C_42
   16  A    between atoms: N_19  and  N_28
   17  A    between atoms: C_24  and  C_25
   18  A    between atoms: C_24  and  C_27
   19  A    between atoms: C_25  and  C_26
   20  A    between atoms: C_25  and  C_46
   21  A    between atoms: C_26  and  O_45
                            x       y       z     vdW  Elec       q    Type
                         _______ _______ _______ _____ _____    ______ ____

>  <TORSDO>
F 21

$$$$
=
 OpenBabel11032420053D

 46 48  0  0  1  0  0  0  0  0999 V2000
  191.2910  176.8230  138.4400 C   0  0  0  0  0  0  0  0  0  0  0  0
  190.0510  177.3590  138.0310 C   0  0  0  0  0  3  0  0  0  0  0  0
  189.3650  177.3710  140.3410 C   0  0  0  0  0  0  0  0  0  0  0  0
  188.2080  177.7730  141.1920 C   0  0  0  0  0  2  0  0  0  0  0  0
  190.5750  176.8100  140.7250 C   0  0  0  0  0  3  0  0  0  0  0  0
  187.7690  178.1600  138.9040 C   0  0  0  0  0  0  0  0  0  0  0  0
  191.5040  176.5400  139.7640 N   0  0  0  0  0  0  0  0  0  0  0  0
  189.1050  177.6160  139.0210 C   0  0  0  0  0  0  0  0  0  0  0  0
  187.2450  178.2550  140.1320 C   0  0  0  0  0  0  0  0  0  0  0  0
  192.0690  175.9930  136.1500 N   0  0  0  0  0  2  0  0  0  0  0  0
  192.3520  176.5130  137.4560 C   0  0  0  0  0  0  0  0  0  0  0  0
  193.5520  176.7130  137.7780 O   0  0  0  0  0  0  0  0  0  0  0  0
  190.1440  174.5590  135.5890 C   0  0  0  0  0  0  0  0  0  0  0  0
  190.8800  173.3260  135.9750 C   0  0  0  0  0  1  0  0  0  0  0  0
  190.7670  175.8390  135.6620 N   0  0  0  0  0  2  0  0  0  0  0  0
  188.9530  174.4700  135.1920 O   0  0  0  0  0  0  0  0  0  0  0  0
  187.0460  178.4240  137.6200 C   0  0  0  0  0  2  0  0  0  0  0  0
  185.2870  177.1890  136.2210 C   0  0  2  0  0  3  0  0  0  0  0  0
  186.5740  177.1360  135.6270 O   0  0  0  0  0  0  0  0  0  0  0  0
  187.0640  175.7880  137.5540 C   0  0  0  0  0  1  0  0  0  0  0  0
  186.5380  177.1150  137.0320 C   0  0  1  0  0  0  0  0  0  0  0  0
  184.6250  175.8880  136.1700 N   0  0  0  0  0  2  0  0  0  0  0  0
  183.2840  176.0560  136.5380 N   0  0  0  0  0  2  0  0  0  0  0  0
  182.6390  174.8400  136.2730 N   0  0  0  0  0  2  0  0  0  0  0  0
  181.6110  174.7030  137.2180 N   0  0  0  0  0  2  0  0  0  0  0  0
  180.7680  175.8940  137.1090 C   0  0  0  0  0  2  0  0  0  0  0  0
  180.4730  176.4860  138.4180 N   0  0  0  0  0  0  0  0  0  0  0  0
  181.0580  175.6560  139.4640 C   0  0  0  0  0  1  0  0  0  0  0  0
  179.0360  176.5210  138.6350 C   0  0  0  0  0  1  0  0  0  0  0  0
  185.9010  178.8410  140.4220 C   0  0  1  0  0  3  0  0  0  0  0  0
  185.0640  178.9370  139.1520 C   0  0  0  0  0  2  0  0  0  0  0  0
  183.0170  179.7520  139.0780 C   0  0  0  0  0  1  0  0  0  0  0  0
  184.3540  180.1360  139.1230 O   0  0  0  0  0  0  0  0  0  0  0  0
  185.2010  177.9980  141.4750 C   0  0  0  0  0  2  0  0  0  0  0  0
  184.5550  178.8930  142.5120 C   0  0  0  0  0  2  0  0  0  0  0  0
  184.8270  178.3540  143.8730 C   0  0  0  0  0  3  0  0  0  0  0  0
  186.0350  178.4900  144.4130 C   0  0  0  0  0  3  0  0  0  0  0  0
  186.3390  177.9390  145.7760 C   0  0  2  0  0  3  0  0  0  0  0  0
  186.0570  179.8400  147.3920 O   0  0  0  0  0  1  0  0  0  0  0  0
  185.5590  178.6710  146.8290 C   0  0  0  0  0  0  0  0  0  0  0  0
  184.4590  178.2080  147.2160 O   0  0  0  0  0  0  0  0  0  0  0  0
  187.8500  177.9020  146.0490 C   0  0  2  0  0  3  0  0  0  0  0  0
  188.6100  177.3750  144.8460 C   0  0  0  0  0  1  0  0  0  0  0  0
  188.1980  177.1220  147.3190 C   0  0  0  0  0  2  0  0  0  0  0  0
  190.4380  176.4060  147.3060 O   0  0  0  0  0  0  0  0  0  0  0  0
  189.6460  177.2630  147.6590 C   0  0  0  0  0  3  0  0  0  0  0  0
  1  7  1  0  0  0  0
  2  1  2  0  0  0  0
  2  8  1  0  0  0  0
  3  5  1  0  0  0  0
  3  4  1  0  0  0  0
  6  8  1  0  0  0  0
  6  9  2  0  0  0  0
  7  5  2  0  0  0  0
  8  3  2  0  0  0  0
  9 30  1  0  0  0  0
  9  4  1  0  0  0  0
 10 11  1  0  0  0  0
 11 12  2  0  0  0  0
 11  1  1  0  0  0  0
 13 15  1  0  0  0  0
 13 14  1  0  0  0  0
 15 10  1  0  0  0  0
 16 13  2  0  0  0  0
 17  6  1  0  0  0  0
 18 22  1  6  0  0  0
 18 21  1  0  0  0  0
 19 18  1  0  0  0  0
 19 21  1  0  0  0  0
 21 20  1  1  0  0  0
 21 17  1  0  0  0  0
 22 23  1  0  0  0  0
 24 23  1  0  0  0  0
 24 25  1  0  0  0  0
 26 25  1  0  0  0  0
 26 27  1  0  0  0  0
 27 29  1  0  0  0  0
 27 28  1  0  0  0  0
 30 31  1  6  0  0  0
 30 34  1  0  0  0  0
 32 33  1  0  0  0  0
 33 31  1  0  0  0  0
 34 35  1  0  0  0  0
 35 36  1  0  0  0  0
 36 37  2  0  0  0  0
 38 37  1  6  0  0  0
 38 42  1  0  0  0  0
 38 40  1  0  0  0  0
 40 41  2  0  0  0  0
 40 39  1  0  0  0  0
 42 43  1  6  0  0  0
 42 44  1  0  0  0  0
 44 46  1  0  0  0  0
 45 46  2  0  0  0  0
M  END
>  <MODEL>
7

>  <REMARK>
 VINA RESULT:      -5.7      3.715      9.088
  Name = 
  21 active torsions:
  status: ('A' for Active; 'I' for Inactive)
    1  A    between atoms: C_1  and  C_33
    2  A    between atoms: C_1  and  C_41
    3  A    between atoms: N_2  and  C_4
    4  A    between atoms: C_4  and  N_38
    5  A    between atoms: C_6  and  N_28
    6  A    between atoms: N_8  and  N_16
    7  A    between atoms: C_9  and  C_34
    8  A    between atoms: N_10  and  N_19
    9  A    between atoms: N_10  and  N_38
   10  A    between atoms: C_11  and  C_27
   11  A    between atoms: C_12  and  C_20
   12  A    between atoms: C_12  and  C_21
   13  A    between atoms: C_15  and  C_20
   14  A    between atoms: C_15  and  C_40
   15  A    between atoms: C_15  and  C_42
   16  A    between atoms: N_19  and  N_28
   17  A    between atoms: C_24  and  C_25
   18  A    between atoms: C_24  and  C_27
   19  A    between atoms: C_25  and  C_26
   20  A    between atoms: C_25  and  C_46
   21  A    between atoms: C_26  and  O_45
                            x       y       z     vdW  Elec       q    Type
                         _______ _______ _______ _____ _____    ______ ____

>  <TORSDO>
F 21

$$$$
=
 OpenBabel11032420053D

 46 48  0  0  1  0  0  0  0  0999 V2000
  190.9660  176.7720  138.1300 C   0  0  0  0  0  0  0  0  0  0  0  0
  189.7100  177.3150  137.7890 C   0  0  0  0  0  3  0  0  0  0  0  0
  189.1840  177.4140  140.1400 C   0  0  0  0  0  0  0  0  0  0  0  0
  188.0950  177.8630  141.0530 C   0  0  0  0  0  2  0  0  0  0  0  0
  190.4090  176.8440  140.4580 C   0  0  0  0  0  3  0  0  0  0  0  0
  187.5060  178.1850  138.7900 C   0  0  0  0  0  0  0  0  0  0  0  0
  191.2660  176.5260  139.4450 N   0  0  0  0  0  0  0  0  0  0  0  0
  188.8380  177.6210  138.8320 C   0  0  0  0  0  0  0  0  0  0  0  0
  187.0690  178.3280  140.0470 C   0  0  0  0  0  0  0  0  0  0  0  0
  193.3580  176.3200  137.3480 N   0  0  0  0  0  2  0  0  0  0  0  0
  191.9510  176.4110  137.0870 C   0  0  0  0  0  0  0  0  0  0  0  0
  191.5390  176.1740  135.9220 O   0  0  0  0  0  0  0  0  0  0  0  0
  194.8790  175.5500  139.1290 C   0  0  0  0  0  0  0  0  0  0  0  0
  195.3170  174.3780  138.3250 C   0  0  0  0  0  1  0  0  0  0  0  0
  193.9010  176.4590  138.6290 N   0  0  0  0  0  2  0  0  0  0  0  0
  195.3790  175.7400  140.2680 O   0  0  0  0  0  0  0  0  0  0  0  0
  186.7000  178.4210  137.5500 C   0  0  0  0  0  2  0  0  0  0  0  0
  185.7440  177.1710  135.5250 C   0  0  2  0  0  3  0  0  0  0  0  0
  187.1440  176.9820  135.6560 O   0  0  0  0  0  0  0  0  0  0  0  0
  186.4840  175.7940  137.6360 C   0  0  0  0  0  1  0  0  0  0  0  0
  186.4180  177.0960  136.8540 C   0  0  1  0  0  0  0  0  0  0  0  0
  185.0660  175.9140  135.2170 N   0  0  0  0  0  2  0  0  0  0  0  0
  183.6830  176.1280  135.2770 N   0  0  0  0  0  2  0  0  0  0  0  0
  183.1530  175.1100  136.0810 N   0  0  0  0  0  2  0  0  0  0  0  0
  181.7610  175.1260  135.9030 N   0  0  0  0  0  2  0  0  0  0  0  0
  181.1650  174.6310  137.1440 C   0  0  0  0  0  2  0  0  0  0  0  0
  180.3260  173.4490  136.9220 N   0  0  0  0  0  0  0  0  0  0  0  0
  179.4660  173.2460  138.0820 C   0  0  0  0  0  1  0  0  0  0  0  0
  181.1610  172.2670  136.7810 C   0  0  0  0  0  1  0  0  0  0  0  0
  185.7570  178.9470  140.4080 C   0  0  1  0  0  3  0  0  0  0  0  0
  184.7620  178.8210  139.2610 C   0  0  0  0  0  2  0  0  0  0  0  0
  182.8080  179.7990  138.9710 C   0  0  0  0  0  1  0  0  0  0  0  0
  184.1760  180.0550  138.9830 O   0  0  0  0  0  0  0  0  0  0  0  0
  185.2230  178.2910  141.6700 C   0  0  0  0  0  2  0  0  0  0  0  0
  184.7260  179.3470  142.6350 C   0  0  0  0  0  2  0  0  0  0  0  0
  184.9960  178.9120  144.0320 C   0  0  0  0  0  3  0  0  0  0  0  0
  186.1560  178.3370  144.3370 C   0  0  0  0  0  3  0  0  0  0  0  0
  186.4450  177.8720  145.7350 C   0  0  2  0  0  3  0  0  0  0  0  0
  186.0670  179.7880  147.3130 O   0  0  0  0  0  1  0  0  0  0  0  0
  185.6000  178.6190  146.7260 C   0  0  0  0  0  0  0  0  0  0  0  0
  184.4730  178.1670  147.0400 O   0  0  0  0  0  0  0  0  0  0  0  0
  187.9470  177.9230  146.0510 C   0  0  2  0  0  3  0  0  0  0  0  0
  188.7680  177.4130  144.8810 C   0  0  0  0  0  1  0  0  0  0  0  0
  188.3000  177.1890  147.3460 C   0  0  0  0  0  2  0  0  0  0  0  0
  190.5060  176.3780  147.4270 O   0  0  0  0  0  0  0  0  0  0  0  0
  189.7560  177.3120  147.6570 C   0  0  0  0  0  3  0  0  0  0  0  0
  1  7  1  0  0  0  0
  2  1  2  0  0  0  0
  2  8  1  0  0  0  0
  3  5  1  0  0  0  0
  3  4  1  0  0  0  0
  6  8  1  0  0  0  0
  6  9  2  0  0  0  0
  7  5  2  0  0  0  0
  8  3  2  0  0  0  0
  9 30  1  0  0  0  0
  9  4  1  0  0  0  0
 10 15  1  0  0  0  0
 11 10  1  0  0  0  0
 11  1  1  0  0  0  0
 12 11  2  0  0  0  0
 13 16  2  0  0  0  0
 14 13  1  0  0  0  0
 15 13  1  0  0  0  0
 17  6  1  0  0  0  0
 18 22  1  1  0  0  0
 18 19  1  0  0  0  0
 18 21  1  0  0  0  0
 19 21  1  0  0  0  0
 21 17  1  0  0  0  0
 21 20  1  1  0  0  0
 22 23  1  0  0  0  0
 23 24  1  0  0  0  0
 25 24  1  0  0  0  0
 25 26  1  0  0  0  0
 27 26  1  0  0  0  0
 27 28  1  0  0  0  0
 29 27  1  0  0  0  0
 30 31  1  6  0  0  0
 30 34  1  0  0  0  0
 32 33  1  0  0  0  0
 33 31  1  0  0  0  0
 34 35  1  0  0  0  0
 35 36  1  0  0  0  0
 36 37  2  0  0  0  0
 38 37  1  6  0  0  0
 38 42  1  0  0  0  0
 38 40  1  0  0  0  0
 40 41  2  0  0  0  0
 40 39  1  0  0  0  0
 42 43  1  6  0  0  0
 42 44  1  0  0  0  0
 44 46  1  0  0  0  0
 45 46  2  0  0  0  0
M  END
>  <MODEL>
8

>  <REMARK>
 VINA RESULT:      -5.6      3.901      8.841
  Name = 
  21 active torsions:
  status: ('A' for Active; 'I' for Inactive)
    1  A    between atoms: C_1  and  C_33
    2  A    between atoms: C_1  and  C_41
    3  A    between atoms: N_2  and  C_4
    4  A    between atoms: C_4  and  N_38
    5  A    between atoms: C_6  and  N_28
    6  A    between atoms: N_8  and  N_16
    7  A    between atoms: C_9  and  C_34
    8  A    between atoms: N_10  and  N_19
    9  A    between atoms: N_10  and  N_38
   10  A    between atoms: C_11  and  C_27
   11  A    between atoms: C_12  and  C_20
   12  A    between atoms: C_12  and  C_21
   13  A    between atoms: C_15  and  C_20
   14  A    between atoms: C_15  and  C_40
   15  A    between atoms: C_15  and  C_42
   16  A    between atoms: N_19  and  N_28
   17  A    between atoms: C_24  and  C_25
   18  A    between atoms: C_24  and  C_27
   19  A    between atoms: C_25  and  C_26
   20  A    between atoms: C_25  and  C_46
   21  A    between atoms: C_26  and  O_45
                            x       y       z     vdW  Elec       q    Type
                         _______ _______ _______ _____ _____    ______ ____

>  <TORSDO>
F 21

$$$$
=
 OpenBabel11032420053D

 46 48  0  0  1  0  0  0  0  0999 V2000
  186.7010  175.4640  135.5540 C   0  0  0  0  0  0  0  0  0  0  0  0
  187.3790  175.9160  136.7050 C   0  0  0  0  0  2  0  0  0  0  0  0
  189.3830  174.8820  135.8540 C   0  0  0  0  0  0  0  0  0  0  0  0
  190.8240  174.7160  136.2000 C   0  0  0  0  0  3  0  0  0  0  0  0
  188.6940  174.4110  134.7440 C   0  0  0  0  0  3  0  0  0  0  0  0
  189.6710  175.9230  137.8710 C   0  0  0  0  0  0  0  0  0  0  0  0
  187.3670  174.7050  134.6270 N   0  0  0  0  0  0  0  0  0  0  0  0
  188.7300  175.5970  136.8210 C   0  0  0  0  0  0  0  0  0  0  0  0
  190.8680  175.4280  137.5330 C   0  0  0  0  0  0  0  0  0  0  0  0
  184.2660  174.7210  135.3030 N   0  0  0  0  0  2  0  0  0  0  0  0
  185.2630  175.7510  135.3510 C   0  0  0  0  0  0  0  0  0  0  0  0
  184.8990  176.9480  135.2160 O   0  0  0  0  0  0  0  0  0  0  0  0
  183.6030  172.5050  136.1550 C   0  0  0  0  0  0  0  0  0  0  0  0
  182.2810  173.0130  136.6070 C   0  0  0  0  0  1  0  0  0  0  0  0
  184.5560  173.3760  135.5490 N   0  0  0  0  0  2  0  0  0  0  0  0
  183.8860  171.2890  136.3120 O   0  0  0  0  0  0  0  0  0  0  0  0
  189.3280  176.5680  139.1780 C   0  0  0  0  0  2  0  0  0  0  0  0
  187.2010  177.9670  139.4900 C   0  0  2  0  0  3  0  0  0  0  0  0
  188.3220  178.5490  140.1360 O   0  0  0  0  0  0  0  0  0  0  0  0
  189.0750  178.8470  137.8740 C   0  0  0  0  0  1  0  0  0  0  0  0
  188.5820  177.8720  138.9310 C   0  0  1  0  0  0  0  0  0  0  0  0
  186.4200  178.9720  138.7730 N   0  0  0  0  0  2  0  0  0  0  0  0
  185.0690  178.8010  139.1000 N   0  0  0  0  0  2  0  0  0  0  0  0
  184.4680  180.0630  138.9960 N   0  0  0  0  0  2  0  0  0  0  0  0
  183.0850  179.8540  138.8800 N   0  0  0  0  0  2  0  0  0  0  0  0
  182.7970  178.5530  139.4830 C   0  0  0  0  0  2  0  0  0  0  0  0
  181.6440  178.6050  140.3880 N   0  0  0  0  0  0  0  0  0  0  0  0
  180.8680  179.8070  140.1090 C   0  0  0  0  0  1  0  0  0  0  0  0
  182.0980  178.6840  141.7670 C   0  0  0  0  0  1  0  0  0  0  0  0
  192.1110  175.6260  138.3390 C   0  0  1  0  0  3  0  0  0  0  0  0
  193.3480  175.2450  137.5340 C   0  0  0  0  0  2  0  0  0  0  0  0
  194.7250  173.6320  136.9320 C   0  0  0  0  0  1  0  0  0  0  0  0
  193.8200  173.9930  137.9260 O   0  0  0  0  0  0  0  0  0  0  0  0
  192.1840  177.0720  138.8020 C   0  0  0  0  0  2  0  0  0  0  0  0
  192.8400  177.1480  140.1650 C   0  0  0  0  0  2  0  0  0  0  0  0
  191.9210  177.8240  141.1220 C   0  0  0  0  0  3  0  0  0  0  0  0
  191.3910  177.1380  142.1310 C   0  0  0  0  0  3  0  0  0  0  0  0
  190.4480  177.7920  143.0980 C   0  0  2  0  0  3  0  0  0  0  0  0
  190.9570  180.0840  143.9860 O   0  0  0  0  0  0  0  0  0  0  0  0
  191.1900  178.7150  144.0200 C   0  0  0  0  0  0  0  0  0  0  0  0
  192.0430  178.2440  144.8100 O   0  0  0  0  0  1  0  0  0  0  0  0
  189.5820  176.7580  143.8350 C   0  0  2  0  0  3  0  0  0  0  0  0
  188.6750  176.0190  142.8690 C   0  0  0  0  0  1  0  0  0  0  0  0
  188.7910  177.3710  144.9910 C   0  0  0  0  0  2  0  0  0  0  0  0
  186.5410  177.7770  145.5410 O   0  0  0  0  0  0  0  0  0  0  0  0
  187.3200  177.2690  144.7520 C   0  0  0  0  0  3  0  0  0  0  0  0
  1  2  1  0  0  0  0
  2  8  1  0  0  0  0
  3  4  1  0  0  0  0
  3  8  1  0  0  0  0
  4  9  2  0  0  0  0
  5  3  2  0  0  0  0
  6 17  1  0  0  0  0
  7  5  1  0  0  0  0
  7  1  2  0  0  0  0
  8  6  2  0  0  0  0
  9  6  1  0  0  0  0
  9 30  1  0  0  0  0
 10 11  1  0  0  0  0
 10 15  1  0  0  0  0
 11  1  1  0  0  0  0
 12 11  2  0  0  0  0
 13 16  2  0  0  0  0
 13 14  1  0  0  0  0
 15 13  1  0  0  0  0
 18 22  1  6  0  0  0
 18 19  1  0  0  0  0
 21 20  1  6  0  0  0
 21 17  1  0  0  0  0
 21 18  1  0  0  0  0
 21 19  1  0  0  0  0
 22 23  1  0  0  0  0
 24 23  1  0  0  0  0
 25 24  1  0  0  0  0
 25 26  1  0  0  0  0
 26 27  1  0  0  0  0
 27 29  1  0  0  0  0
 28 27  1  0  0  0  0
 30 31  1  6  0  0  0
 30 34  1  0  0  0  0
 31 33  1  0  0  0  0
 32 33  1  0  0  0  0
 34 35  1  0  0  0  0
 35 36  1  0  0  0  0
 36 37  2  0  0  0  0
 38 37  1  1  0  0  0
 38 42  1  0  0  0  0
 38 40  1  0  0  0  0
 39 40  2  0  0  0  0
 40 41  1  0  0  0  0
 42 43  1  6  0  0  0
 42 44  1  0  0  0  0
 46 44  1  0  0  0  0
 46 45  2  0  0  0  0
M  END
>  <MODEL>
9

>  <REMARK>
 VINA RESULT:      -5.5      3.801     10.080
  Name = 
  21 active torsions:
  status: ('A' for Active; 'I' for Inactive)
    1  A    between atoms: C_1  and  C_33
    2  A    between atoms: C_1  and  C_41
    3  A    between atoms: N_2  and  C_4
    4  A    between atoms: C_4  and  N_38
    5  A    between atoms: C_6  and  N_28
    6  A    between atoms: N_8  and  N_16
    7  A    between atoms: C_9  and  C_34
    8  A    between atoms: N_10  and  N_19
    9  A    between atoms: N_10  and  N_38
   10  A    between atoms: C_11  and  C_27
   11  A    between atoms: C_12  and  C_20
   12  A    between atoms: C_12  and  C_21
   13  A    between atoms: C_15  and  C_20
   14  A    between atoms: C_15  and  C_40
   15  A    between atoms: C_15  and  C_42
   16  A    between atoms: N_19  and  N_28
   17  A    between atoms: C_24  and  C_25
   18  A    between atoms: C_24  and  C_27
   19  A    between atoms: C_25  and  C_26
   20  A    between atoms: C_25  and  C_46
   21  A    between atoms: C_26  and  O_45
                            x       y       z     vdW  Elec       q    Type
                         _______ _______ _______ _____ _____    ______ ____

>  <TORSDO>
F 21

$$$$
