=
 OpenBabel11042410263D

 29 34  0  0  1  0  0  0  0  0999 V2000
  186.2070  178.6410  139.0150 N   0  0  0  0  0  0  0  0  0  0  0  0
  188.5490  178.1290  139.4000 C   0  0  0  0  0  0  0  0  0  0  0  0
  185.4520  178.0130  143.1750 C   0  0  0  0  0  3  0  0  0  0  0  0
  184.8770  176.0570  137.6850 C   0  0  0  0  0  0  0  0  0  0  0  0
  184.5930  178.7510  141.0000 C   0  0  0  0  0  0  0  0  0  0  0  0
  185.8810  178.4530  140.4230 C   0  0  0  0  0  0  0  0  0  0  0  0
  186.2000  175.9230  136.9960 C   0  0  0  0  0  1  0  0  0  0  0  0
  183.4910  179.5000  140.2340 C   0  0  2  0  0  3  0  0  0  0  0  0
  190.8750  177.5170  139.6860 C   0  0  0  0  0  3  0  0  0  0  0  0
  182.4230  176.2750  138.9780 C   0  0  0  0  0  3  0  0  0  0  0  0
  189.8430  178.0090  138.8840 C   0  0  0  0  0  3  0  0  0  0  0  0
  182.1230  178.8700  140.5180 C   0  0  0  0  0  2  0  0  0  0  0  0
  185.2270  178.5630  137.9460 C   0  0  0  0  0  2  0  0  0  0  0  0
  187.5210  178.5920  138.5850 O   0  0  0  0  0  0  0  0  0  0  0  0
  184.4090  177.3180  138.0960 C   0  0  0  0  0  0  0  0  0  0  0  0
  188.2800  177.7650  140.7230 C   0  0  0  0  0  0  0  0  0  0  0  0
  189.3230  177.2720  141.5260 C   0  0  0  0  0  3  0  0  0  0  0  0
  183.1910  177.4240  138.7710 C   0  0  0  0  0  0  0  0  0  0  0  0
  182.8820  175.0650  138.5660 N   0  0  0  0  0  0  0  0  0  0  0  0
  190.6140  177.1450  141.0070 C   0  0  0  0  0  3  0  0  0  0  0  0
  184.5170  173.5600  137.5220 C   0  0  0  0  0  1  0  0  0  0  0  0
  186.9160  177.9620  141.2600 C   0  0  0  0  0  0  0  0  0  0  0  0
  184.4290  178.5540  142.4050 C   0  0  0  0  0  0  0  0  0  0  0  0
  186.6780  177.7200  142.6110 C   0  0  0  0  0  3  0  0  0  0  0  0
  182.6770  178.7870  139.1270 C   0  0  2  0  0  3  0  0  0  0  0  0
  184.0790  174.9250  137.9360 C   0  0  0  0  0  0  0  0  0  0  0  0
  183.2150  178.9990  143.1630 C   0  0  0  0  0  2  0  0  0  0  0  0
  183.4880  179.0090  144.6040 C   0  0  0  0  0  0  0  0  0  0  0  0
  183.7030  179.0170  145.7410 N   0  0  0  0  0  0  0  0  0  0  0  0
  1  6  1  0  0  0  0
  2 16  1  0  0  0  0
  4 26  2  0  0  0  0
  4 15  1  0  0  0  0
  5 23  1  0  0  0  0
  6  5  2  0  0  0  0
  6 22  1  0  0  0  0
  7  4  1  0  0  0  0
  8 12  1  1  0  0  0
  8  5  1  0  0  0  0
  9 20  2  0  0  0  0
 11  2  2  0  0  0  0
 11  9  1  0  0  0  0
 13 15  1  0  0  0  0
 13  1  1  0  0  0  0
 14  1  1  0  0  0  0
 14  2  1  0  0  0  0
 15 18  2  0  0  0  0
 16 22  1  0  0  0  0
 16 17  2  0  0  0  0
 18 10  1  0  0  0  0
 18 25  1  0  0  0  0
 19 10  2  0  0  0  0
 20 17  1  0  0  0  0
 21 26  1  0  0  0  0
 22 24  2  0  0  0  0
 23 27  1  0  0  0  0
 23  3  2  0  0  0  0
 24  3  1  0  0  0  0
 25  8  1  0  0  0  0
 25 12  1  1  0  0  0
 26 19  1  0  0  0  0
 27 28  1  0  0  0  0
 28 29  3  0  0  0  0
M  END
>  <MODEL>
1

>  <REMARK>
 VINA RESULT:      -7.2      0.000      0.000
  Name = 
  2 active torsions:
  status: ('A' for Active; 'I' for Inactive)
    1  A    between atoms: C_6  and  C_11
    2  A    between atoms: C_11  and  C_26
                            x       y       z     vdW  Elec       q    Type
                         _______ _______ _______ _____ _____    ______ ____

>  <TORSDO>
F 2

$$$$
=
 OpenBabel11042410263D

 29 34  0  0  1  0  0  0  0  0999 V2000
  187.9990  177.8600  138.0180 N   0  0  0  0  0  0  0  0  0  0  0  0
  185.6510  177.5730  137.4720 C   0  0  0  0  0  0  0  0  0  0  0  0
  188.6810  173.7770  136.9510 C   0  0  0  0  0  3  0  0  0  0  0  0
  188.2500  177.7820  141.2040 C   0  0  0  0  0  0  0  0  0  0  0  0
  189.6400  175.9400  137.5980 C   0  0  0  0  0  0  0  0  0  0  0  0
  188.3040  176.4810  137.6610 C   0  0  0  0  0  0  0  0  0  0  0  0
  186.9350  178.4970  141.1690 C   0  0  0  0  0  1  0  0  0  0  0  0
  190.8990  176.8170  137.6940 C   0  0  2  0  0  3  0  0  0  0  0  0
  183.2770  177.3300  137.0590 C   0  0  0  0  0  3  0  0  0  0  0  0
  190.6790  176.4280  141.2870 C   0  0  0  0  0  3  0  0  0  0  0  0
  184.3760  178.1370  137.3590 C   0  0  0  0  0  3  0  0  0  0  0  0
  191.9620  176.1300  138.5570 C   0  0  0  0  0  2  0  0  0  0  0  0
  188.8340  178.6670  138.8920 C   0  0  0  0  0  2  0  0  0  0  0  0
  186.7350  178.3800  137.8010 O   0  0  0  0  0  0  0  0  0  0  0  0
  189.1580  177.9010  140.1360 C   0  0  0  0  0  0  0  0  0  0  0  0
  185.8360  176.2000  137.2790 C   0  0  0  0  0  0  0  0  0  0  0  0
  184.7260  175.3930  136.9760 C   0  0  0  0  0  3  0  0  0  0  0  0
  190.3640  177.1980  140.1650 C   0  0  0  0  0  0  0  0  0  0  0  0
  189.7970  176.3300  142.3160 N   0  0  0  0  0  0  0  0  0  0  0  0
  183.4510  175.9560  136.8700 C   0  0  0  0  0  3  0  0  0  0  0  0
  187.6840  176.8110  143.4680 C   0  0  0  0  0  1  0  0  0  0  0  0
  187.2040  175.6430  137.3440 C   0  0  0  0  0  0  0  0  0  0  0  0
  189.7910  174.5780  137.1940 C   0  0  0  0  0  0  0  0  0  0  0  0
  187.4050  174.3020  137.0270 C   0  0  0  0  0  3  0  0  0  0  0  0
  191.3490  177.4050  139.0530 C   0  0  2  0  0  3  0  0  0  0  0  0
  188.6000  176.9760  142.3030 C   0  0  0  0  0  0  0  0  0  0  0  0
  191.1190  173.9470  136.9030 C   0  0  0  0  0  2  0  0  0  0  0  0
  191.0740  173.2280  135.6260 C   0  0  0  0  0  0  0  0  0  0  0  0
  191.0380  172.6600  134.6180 N   0  0  0  0  0  0  0  0  0  0  0  0
  1 13  1  0  0  0  0
  2 14  1  0  0  0  0
  3 24  2  0  0  0  0
  3 23  1  0  0  0  0
  4 26  1  0  0  0  0
  5  6  1  0  0  0  0
  5  8  1  0  0  0  0
  6  1  1  0  0  0  0
  7  4  1  0  0  0  0
  8 12  1  1  0  0  0
  8 25  1  0  0  0  0
  9 11  2  0  0  0  0
 10 19  1  0  0  0  0
 11  2  1  0  0  0  0
 13 15  1  0  0  0  0
 14  1  1  0  0  0  0
 15 18  1  0  0  0  0
 15  4  2  0  0  0  0
 16 22  1  0  0  0  0
 16  2  2  0  0  0  0
 17 16  1  0  0  0  0
 18 10  2  0  0  0  0
 20 17  2  0  0  0  0
 20  9  1  0  0  0  0
 22  6  2  0  0  0  0
 23  5  2  0  0  0  0
 24 22  1  0  0  0  0
 25 12  1  1  0  0  0
 25 18  1  0  0  0  0
 26 19  2  0  0  0  0
 26 21  1  0  0  0  0
 27 23  1  0  0  0  0
 28 27  1  0  0  0  0
 29 28  3  0  0  0  0
M  END
>  <MODEL>
2

>  <REMARK>
 VINA RESULT:      -6.7      2.839      7.587
  Name = 
  2 active torsions:
  status: ('A' for Active; 'I' for Inactive)
    1  A    between atoms: C_6  and  C_11
    2  A    between atoms: C_11  and  C_26
                            x       y       z     vdW  Elec       q    Type
                         _______ _______ _______ _____ _____    ______ ____

>  <TORSDO>
F 2

$$$$
=
 OpenBabel11042410263D

 29 34  0  0  1  0  0  0  0  0999 V2000
  185.4390  178.6560  138.9300 N   0  0  0  0  0  0  0  0  0  0  0  0
  187.3170  178.3780  140.4440 C   0  0  0  0  0  0  0  0  0  0  0  0
  182.7970  178.5490  142.2890 C   0  0  0  0  0  3  0  0  0  0  0  0
  184.9030  175.8210  137.5530 C   0  0  0  0  0  0  0  0  0  0  0  0
  183.0750  178.9150  139.8800 C   0  0  0  0  0  0  0  0  0  0  0  0
  184.4830  178.6390  140.0300 C   0  0  0  0  0  0  0  0  0  0  0  0
  186.3940  175.6940  137.5960 C   0  0  0  0  0  1  0  0  0  0  0  0
  182.4690  179.4680  138.5800 C   0  0  2  0  0  3  0  0  0  0  0  0
  189.2270  177.9860  141.8790 C   0  0  0  0  0  3  0  0  0  0  0  0
  182.1290  176.0310  137.4900 C   0  0  0  0  0  3  0  0  0  0  0  0
  188.7010  178.2850  140.6210 C   0  0  0  0  0  3  0  0  0  0  0  0
  181.1310  178.7820  138.2830 C   0  0  0  0  0  2  0  0  0  0  0  0
  185.0840  178.3590  137.5530 C   0  0  0  0  0  2  0  0  0  0  0  0
  186.7990  178.6470  139.1810 O   0  0  0  0  0  0  0  0  0  0  0  0
  184.2940  177.0890  137.4940 C   0  0  0  0  0  0  0  0  0  0  0  0
  186.4510  178.1790  141.5240 C   0  0  0  0  0  0  0  0  0  0  0  0
  186.9880  177.8800  142.7890 C   0  0  0  0  0  3  0  0  0  0  0  0
  182.9020  177.1950  137.4920 C   0  0  0  0  0  0  0  0  0  0  0  0
  182.7290  174.8130  137.5370 N   0  0  0  0  0  0  0  0  0  0  0  0
  188.3710  177.7810  142.9640 C   0  0  0  0  0  3  0  0  0  0  0  0
  184.6650  173.3060  137.6320 C   0  0  0  0  0  1  0  0  0  0  0  0
  184.9960  178.3450  141.3200 C   0  0  0  0  0  0  0  0  0  0  0  0
  182.2630  178.9010  141.0550 C   0  0  0  0  0  0  0  0  0  0  0  0
  184.1450  178.2730  142.4200 C   0  0  0  0  0  3  0  0  0  0  0  0
  182.2800  178.5510  137.3470 C   0  0  2  0  0  3  0  0  0  0  0  0
  184.0820  174.6780  137.5730 C   0  0  0  0  0  0  0  0  0  0  0  0
  180.8340  179.3540  141.0740 C   0  0  0  0  0  2  0  0  0  0  0  0
  180.0270  178.4600  141.9110 C   0  0  0  0  0  0  0  0  0  0  0  0
  179.3900  177.7550  142.5720 N   0  0  0  0  0  0  0  0  0  0  0  0
  1 14  1  0  0  0  0
  1  6  1  0  0  0  0
  2 11  2  0  0  0  0
  2 16  1  0  0  0  0
  3 24  1  0  0  0  0
  4 26  1  0  0  0  0
  4  7  1  0  0  0  0
  5  6  2  0  0  0  0
  5 23  1  0  0  0  0
  6 22  1  0  0  0  0
  8 12  1  1  0  0  0
  8  5  1  0  0  0  0
  9 20  2  0  0  0  0
 10 18  2  0  0  0  0
 10 19  1  0  0  0  0
 11  9  1  0  0  0  0
 13  1  1  0  0  0  0
 14  2  1  0  0  0  0
 15  4  2  0  0  0  0
 15 13  1  0  0  0  0
 16 17  2  0  0  0  0
 17 20  1  0  0  0  0
 18 15  1  0  0  0  0
 19 26  2  0  0  0  0
 22 16  1  0  0  0  0
 22 24  2  0  0  0  0
 23 27  1  0  0  0  0
 23  3  2  0  0  0  0
 25 18  1  0  0  0  0
 25 12  1  1  0  0  0
 25  8  1  0  0  0  0
 26 21  1  0  0  0  0
 27 28  1  0  0  0  0
 28 29  3  0  0  0  0
M  END
>  <MODEL>
3

>  <REMARK>
 VINA RESULT:      -6.7      1.539      2.259
  Name = 
  2 active torsions:
  status: ('A' for Active; 'I' for Inactive)
    1  A    between atoms: C_6  and  C_11
    2  A    between atoms: C_11  and  C_26
                            x       y       z     vdW  Elec       q    Type
                         _______ _______ _______ _____ _____    ______ ____

>  <TORSDO>
F 2

$$$$
=
 OpenBabel11042410263D

 29 34  0  0  1  0  0  0  0  0999 V2000
  181.7330  177.9840  140.1100 N   0  0  0  0  0  0  0  0  0  0  0  0
  182.6290  178.6280  142.2740 C   0  0  0  0  0  0  0  0  0  0  0  0
  185.6720  178.2490  138.4720 C   0  0  0  0  0  3  0  0  0  0  0  0
  180.3050  180.5610  138.8700 C   0  0  0  0  0  0  0  0  0  0  0  0
  183.3260  177.6160  138.1400 C   0  0  0  0  0  0  0  0  0  0  0  0
  183.0510  178.0440  139.4890 C   0  0  0  0  0  0  0  0  0  0  0  0
  179.9180  180.8370  140.2890 C   0  0  0  0  0  1  0  0  0  0  0  0
  182.3050  176.8510  137.2840 C   0  0  2  0  0  3  0  0  0  0  0  0
  183.4310  179.3780  144.4320 C   0  0  0  0  0  3  0  0  0  0  0  0
  181.0410  180.0770  136.2300 C   0  0  0  0  0  3  0  0  0  0  0  0
  182.4030  178.8750  143.6310 C   0  0  0  0  0  3  0  0  0  0  0  0
  182.3310  177.3620  135.8390 C   0  0  0  0  0  2  0  0  0  0  0  0
  180.4890  178.0730  139.3660 C   0  0  0  0  0  2  0  0  0  0  0  0
  181.5920  178.1560  141.4760 O   0  0  0  0  0  0  0  0  0  0  0  0
  180.5360  179.2430  138.4340 C   0  0  0  0  0  0  0  0  0  0  0  0
  183.8860  178.8740  141.7100 C   0  0  0  0  0  0  0  0  0  0  0  0
  184.9160  179.3780  142.5230 C   0  0  0  0  0  3  0  0  0  0  0  0
  180.9340  179.0030  137.1170 C   0  0  0  0  0  0  0  0  0  0  0  0
  180.8050  181.3430  136.6610 N   0  0  0  0  0  0  0  0  0  0  0  0
  184.6870  179.6320  143.8780 C   0  0  0  0  0  3  0  0  0  0  0  0
  180.2150  183.0310  138.3430 C   0  0  0  0  0  1  0  0  0  0  0  0
  184.1120  178.5440  140.2870 C   0  0  0  0  0  0  0  0  0  0  0  0
  184.6750  177.6970  137.6760 C   0  0  0  0  0  0  0  0  0  0  0  0
  185.3950  178.6680  139.7580 C   0  0  0  0  0  3  0  0  0  0  0  0
  181.0950  177.5850  136.6570 C   0  0  2  0  0  3  0  0  0  0  0  0
  180.4490  181.6130  137.9460 C   0  0  0  0  0  0  0  0  0  0  0  0
  185.1350  177.1140  136.3740 C   0  0  0  0  0  2  0  0  0  0  0  0
  186.1180  176.0510  136.6100 C   0  0  0  0  0  0  0  0  0  0  0  0
  186.8940  175.2130  136.7960 N   0  0  0  0  0  0  0  0  0  0  0  0
  1 14  1  0  0  0  0
  2 11  1  0  0  0  0
  3 24  1  0  0  0  0
  4  7  1  0  0  0  0
  5  6  2  0  0  0  0
  6  1  1  0  0  0  0
  6 22  1  0  0  0  0
  8 12  1  6  0  0  0
  8  5  1  0  0  0  0
 10 19  2  0  0  0  0
 10 18  1  0  0  0  0
 11  9  2  0  0  0  0
 13  1  1  0  0  0  0
 14  2  1  0  0  0  0
 15  4  1  0  0  0  0
 15 13  1  0  0  0  0
 16  2  2  0  0  0  0
 16 17  1  0  0  0  0
 17 20  2  0  0  0  0
 18 15  2  0  0  0  0
 19 26  1  0  0  0  0
 20  9  1  0  0  0  0
 22 16  1  0  0  0  0
 23  5  1  0  0  0  0
 23  3  2  0  0  0  0
 24 22  2  0  0  0  0
 25 12  1  6  0  0  0
 25 18  1  0  0  0  0
 25  8  1  0  0  0  0
 26 21  1  0  0  0  0
 26  4  2  0  0  0  0
 27 28  1  0  0  0  0
 27 23  1  0  0  0  0
 28 29  3  0  0  0  0
M  END
>  <MODEL>
4

>  <REMARK>
 VINA RESULT:      -6.5      3.070      6.292
  Name = 
  2 active torsions:
  status: ('A' for Active; 'I' for Inactive)
    1  A    between atoms: C_6  and  C_11
    2  A    between atoms: C_11  and  C_26
                            x       y       z     vdW  Elec       q    Type
                         _______ _______ _______ _____ _____    ______ ____

>  <TORSDO>
F 2

$$$$
=
 OpenBabel11042410263D

 29 34  0  0  1  0  0  0  0  0999 V2000
  190.1300  176.6980  135.7800 N   0  0  0  0  0  0  0  0  0  0  0  0
  192.4140  175.8740  135.7510 C   0  0  0  0  0  0  0  0  0  0  0  0
  190.4250  177.1780  140.0170 C   0  0  0  0  0  3  0  0  0  0  0  0
  188.2020  174.1630  135.5140 C   0  0  0  0  0  0  0  0  0  0  0  0
  189.1180  177.5450  137.9740 C   0  0  0  0  0  0  0  0  0  0  0  0
  190.1660  176.8970  137.2230 C   0  0  0  0  0  0  0  0  0  0  0  0
  189.2720  173.6400  134.6070 C   0  0  0  0  0  1  0  0  0  0  0  0
  187.9500  178.2870  137.3050 C   0  0  2  0  0  3  0  0  0  0  0  0
  194.6440  174.9340  135.6590 C   0  0  0  0  0  3  0  0  0  0  0  0
  186.2170  175.1080  137.2200 C   0  0  0  0  0  3  0  0  0  0  0  0
  193.5040  175.4090  135.0080 C   0  0  0  0  0  3  0  0  0  0  0  0
  186.6400  177.9950  138.0440 C   0  0  0  0  0  2  0  0  0  0  0  0
  188.9020  176.5580  135.0170 C   0  0  0  0  0  2  0  0  0  0  0  0
  191.2700  176.3170  135.0950 O   0  0  0  0  0  0  0  0  0  0  0  0
  188.0110  175.5480  135.6710 C   0  0  0  0  0  0  0  0  0  0  0  0
  192.4600  175.8740  137.1490 C   0  0  0  0  0  0  0  0  0  0  0  0
  193.6120  175.3960  137.7980 C   0  0  0  0  0  3  0  0  0  0  0  0
  187.0340  176.0220  136.5500 C   0  0  0  0  0  0  0  0  0  0  0  0
  186.4060  173.7740  137.0510 N   0  0  0  0  0  0  0  0  0  0  0  0
  194.6980  174.9250  137.0550 C   0  0  0  0  0  3  0  0  0  0  0  0
  187.5200  171.8020  136.1030 C   0  0  0  0  0  1  0  0  0  0  0  0
  191.3180  176.4300  137.9060 C   0  0  0  0  0  0  0  0  0  0  0  0
  189.3060  177.7050  139.3810 C   0  0  0  0  0  0  0  0  0  0  0  0
  191.4160  176.5480  139.2900 C   0  0  0  0  0  3  0  0  0  0  0  0
  186.7960  177.5000  136.6380 C   0  0  2  0  0  3  0  0  0  0  0  0
  187.3700  173.2800  136.2280 C   0  0  0  0  0  0  0  0  0  0  0  0
  188.3950  178.5220  140.2460 C   0  0  0  0  0  2  0  0  0  0  0  0
  188.2050  177.8700  141.5460 C   0  0  0  0  0  0  0  0  0  0  0  0
  188.0540  177.3540  142.5710 N   0  0  0  0  0  0  0  0  0  0  0  0
  1  6  1  0  0  0  0
  2 16  1  0  0  0  0
  4 15  2  0  0  0  0
  4 26  1  0  0  0  0
  5 23  2  0  0  0  0
  6 22  2  0  0  0  0
  6  5  1  0  0  0  0
  7  4  1  0  0  0  0
  8  5  1  0  0  0  0
  8 12  1  1  0  0  0
  9 20  2  0  0  0  0
 11  9  1  0  0  0  0
 11  2  2  0  0  0  0
 13 15  1  0  0  0  0
 13  1  1  0  0  0  0
 14  2  1  0  0  0  0
 14  1  1  0  0  0  0
 15 18  1  0  0  0  0
 16 17  2  0  0  0  0
 16 22  1  0  0  0  0
 18 25  1  0  0  0  0
 18 10  2  0  0  0  0
 19 10  1  0  0  0  0
 20 17  1  0  0  0  0
 21 26  1  0  0  0  0
 22 24  1  0  0  0  0
 23  3  1  0  0  0  0
 23 27  1  0  0  0  0
 24  3  2  0  0  0  0
 25  8  1  0  0  0  0
 25 12  1  1  0  0  0
 26 19  2  0  0  0  0
 27 28  1  0  0  0  0
 28 29  3  0  0  0  0
M  END
>  <MODEL>
5

>  <REMARK>
 VINA RESULT:      -6.4      3.408      5.350
  Name = 
  2 active torsions:
  status: ('A' for Active; 'I' for Inactive)
    1  A    between atoms: C_6  and  C_11
    2  A    between atoms: C_11  and  C_26
                            x       y       z     vdW  Elec       q    Type
                         _______ _______ _______ _____ _____    ______ ____

>  <TORSDO>
F 2

$$$$
=
 OpenBabel11042410263D

 29 34  0  0  1  0  0  0  0  0999 V2000
  187.0920  177.6530  136.9410 N   0  0  0  0  0  0  0  0  0  0  0  0
  189.4200  176.9700  136.8140 C   0  0  0  0  0  0  0  0  0  0  0  0
  187.5180  178.0940  141.1710 C   0  0  0  0  0  3  0  0  0  0  0  0
  185.3130  175.0070  136.7090 C   0  0  0  0  0  0  0  0  0  0  0  0
  186.1150  178.4070  139.1840 C   0  0  0  0  0  0  0  0  0  0  0  0
  187.1710  177.8340  138.3850 C   0  0  0  0  0  0  0  0  0  0  0  0
  186.3780  174.5630  135.7540 C   0  0  0  0  0  1  0  0  0  0  0  0
  184.8800  179.0840  138.5700 C   0  0  2  0  0  3  0  0  0  0  0  0
  191.6970  176.1690  136.6260 C   0  0  0  0  0  3  0  0  0  0  0  0
  183.3400  175.8070  138.5010 C   0  0  0  0  0  3  0  0  0  0  0  0
  190.5060  176.5820  136.0240 C   0  0  0  0  0  3  0  0  0  0  0  0
  183.6190  178.7030  139.3530 C   0  0  0  0  0  2  0  0  0  0  0  0
  185.8460  177.4470  136.2230 C   0  0  0  0  0  2  0  0  0  0  0  0
  188.2270  177.3510  136.2080 O   0  0  0  0  0  0  0  0  0  0  0  0
  185.0440  176.3760  136.8940 C   0  0  0  0  0  0  0  0  0  0  0  0
  189.5190  176.9550  138.2100 C   0  0  0  0  0  0  0  0  0  0  0  0
  190.7210  176.5400  138.8080 C   0  0  0  0  0  3  0  0  0  0  0  0
  184.0750  176.7780  137.8150 C   0  0  0  0  0  0  0  0  0  0  0  0
  183.6040  174.4890  138.3050 N   0  0  0  0  0  0  0  0  0  0  0  0
  191.8040  176.1460  138.0180 C   0  0  0  0  0  3  0  0  0  0  0  0
  184.7980  172.6010  137.2860 C   0  0  0  0  0  1  0  0  0  0  0  0
  188.3750  177.4300  139.0170 C   0  0  0  0  0  0  0  0  0  0  0  0
  186.3470  178.5600  140.5850 C   0  0  0  0  0  0  0  0  0  0  0  0
  188.5180  177.5350  140.3980 C   0  0  0  0  0  3  0  0  0  0  0  0
  183.7510  178.2370  137.9340 C   0  0  2  0  0  3  0  0  0  0  0  0
  184.5640  174.0660  137.4390 C   0  0  0  0  0  0  0  0  0  0  0  0
  185.4210  179.3080  141.4970 C   0  0  0  0  0  2  0  0  0  0  0  0
  185.3650  178.6600  142.8110 C   0  0  0  0  0  0  0  0  0  0  0  0
  185.3200  178.1490  143.8480 N   0  0  0  0  0  0  0  0  0  0  0  0
  1  6  1  0  0  0  0
  2 16  1  0  0  0  0
  4 15  2  0  0  0  0
  4 26  1  0  0  0  0
  5 23  2  0  0  0  0
  6 22  2  0  0  0  0
  6  5  1  0  0  0  0
  7  4  1  0  0  0  0
  8  5  1  0  0  0  0
  8 12  1  1  0  0  0
  9 20  2  0  0  0  0
 11  9  1  0  0  0  0
 11  2  2  0  0  0  0
 13 15  1  0  0  0  0
 13  1  1  0  0  0  0
 14  2  1  0  0  0  0
 14  1  1  0  0  0  0
 15 18  1  0  0  0  0
 16 17  2  0  0  0  0
 16 22  1  0  0  0  0
 18 25  1  0  0  0  0
 18 10  2  0  0  0  0
 19 10  1  0  0  0  0
 20 17  1  0  0  0  0
 21 26  1  0  0  0  0
 22 24  1  0  0  0  0
 23  3  1  0  0  0  0
 23 27  1  0  0  0  0
 24  3  2  0  0  0  0
 25  8  1  0  0  0  0
 25 12  1  1  0  0  0
 26 19  2  0  0  0  0
 27 28  1  0  0  0  0
 28 29  3  0  0  0  0
M  END
>  <MODEL>
6

>  <REMARK>
 VINA RESULT:      -6.4      1.678      2.423
  Name = 
  2 active torsions:
  status: ('A' for Active; 'I' for Inactive)
    1  A    between atoms: C_6  and  C_11
    2  A    between atoms: C_11  and  C_26
                            x       y       z     vdW  Elec       q    Type
                         _______ _______ _______ _____ _____    ______ ____

>  <TORSDO>
F 2

$$$$
=
 OpenBabel11042410263D

 29 34  0  0  1  0  0  0  0  0999 V2000
  186.9840  178.1610  137.1030 N   0  0  0  0  0  0  0  0  0  0  0  0
  184.9400  178.5340  138.3610 C   0  0  0  0  0  0  0  0  0  0  0  0
  185.6990  174.1580  136.3260 C   0  0  0  0  0  3  0  0  0  0  0  0
  189.3360  177.7210  139.2220 C   0  0  0  0  0  0  0  0  0  0  0  0
  187.3330  175.9340  135.8870 C   0  0  0  0  0  0  0  0  0  0  0  0
  186.6020  176.7890  136.7910 C   0  0  0  0  0  0  0  0  0  0  0  0
  188.5960  178.7480  140.0220 C   0  0  0  0  0  1  0  0  0  0  0  0
  188.4700  176.4490  134.9910 C   0  0  2  0  0  3  0  0  0  0  0  0
  182.9830  178.9420  139.7260 C   0  0  0  0  0  3  0  0  0  0  0  0
  190.7090  175.7920  137.7600 C   0  0  0  0  0  3  0  0  0  0  0  0
  184.1360  179.4120  139.0940 C   0  0  0  0  0  3  0  0  0  0  0  0
  189.6190  175.4360  134.9530 C   0  0  0  0  0  2  0  0  0  0  0  0
  188.3540  178.6430  137.0640 C   0  0  0  0  0  2  0  0  0  0  0  0
  186.1040  179.0030  137.7590 O   0  0  0  0  0  0  0  0  0  0  0  0
  189.2440  177.7050  137.8180 C   0  0  0  0  0  0  0  0  0  0  0  0
  184.5930  177.1830  138.2490 C   0  0  0  0  0  0  0  0  0  0  0  0
  183.4300  176.7180  138.8860 C   0  0  0  0  0  3  0  0  0  0  0  0
  189.9090  176.7190  137.0870 C   0  0  0  0  0  0  0  0  0  0  0  0
  190.7960  175.8250  139.1150 N   0  0  0  0  0  0  0  0  0  0  0  0
  182.6300  177.5940  139.6250 C   0  0  0  0  0  3  0  0  0  0  0  0
  190.2770  176.7180  141.3420 C   0  0  0  0  0  1  0  0  0  0  0  0
  185.4290  176.2930  137.4150 C   0  0  0  0  0  0  0  0  0  0  0  0
  186.8190  174.6230  135.6460 C   0  0  0  0  0  0  0  0  0  0  0  0
  185.0150  174.9810  137.2000 C   0  0  0  0  0  3  0  0  0  0  0  0
  189.8610  176.7720  135.5890 C   0  0  2  0  0  3  0  0  0  0  0  0
  190.1350  176.7530  139.8580 C   0  0  0  0  0  0  0  0  0  0  0  0
  187.3640  173.7050  134.5940 C   0  0  0  0  0  2  0  0  0  0  0  0
  187.5780  172.3640  135.1470 C   0  0  0  0  0  0  0  0  0  0  0  0
  187.7460  171.3060  135.5850 N   0  0  0  0  0  0  0  0  0  0  0  0
  1 14  1  0  0  0  0
  2 11  1  0  0  0  0
  3 24  1  0  0  0  0
  4 26  1  0  0  0  0
  4  7  1  0  0  0  0
  5  6  2  0  0  0  0
  6  1  1  0  0  0  0
  6 22  1  0  0  0  0
  8 12  1  6  0  0  0
  8 25  1  0  0  0  0
  8  5  1  0  0  0  0
 10 19  1  0  0  0  0
 11  9  2  0  0  0  0
 13  1  1  0  0  0  0
 13 15  1  0  0  0  0
 14  2  1  0  0  0  0
 15  4  2  0  0  0  0
 16  2  2  0  0  0  0
 16 17  1  0  0  0  0
 17 20  2  0  0  0  0
 18 10  2  0  0  0  0
 18 15  1  0  0  0  0
 19 26  2  0  0  0  0
 20  9  1  0  0  0  0
 22 16  1  0  0  0  0
 23  5  1  0  0  0  0
 23  3  2  0  0  0  0
 24 22  2  0  0  0  0
 25 12  1  6  0  0  0
 25 18  1  0  0  0  0
 26 21  1  0  0  0  0
 27 28  1  0  0  0  0
 27 23  1  0  0  0  0
 28 29  3  0  0  0  0
M  END
>  <MODEL>
7

>  <REMARK>
 VINA RESULT:      -6.1      2.801      7.280
  Name = 
  2 active torsions:
  status: ('A' for Active; 'I' for Inactive)
    1  A    between atoms: C_6  and  C_11
    2  A    between atoms: C_11  and  C_26
                            x       y       z     vdW  Elec       q    Type
                         _______ _______ _______ _____ _____    ______ ____

>  <TORSDO>
F 2

$$$$
=
 OpenBabel11042410263D

 29 34  0  0  1  0  0  0  0  0999 V2000
  185.1930  175.4720  135.2080 N   0  0  0  0  0  0  0  0  0  0  0  0
  183.5320  173.8160  135.8370 C   0  0  0  0  0  0  0  0  0  0  0  0
  188.2440  172.9060  136.7480 C   0  0  0  0  0  3  0  0  0  0  0  0
  185.0910  177.7990  137.3980 C   0  0  0  0  0  0  0  0  0  0  0  0
  187.6810  174.9530  135.5210 C   0  0  0  0  0  0  0  0  0  0  0  0
  186.2840  174.6430  135.7040 C   0  0  0  0  0  0  0  0  0  0  0  0
  183.6190  177.5210  137.3970 C   0  0  0  0  0  1  0  0  0  0  0  0
  188.1700  176.0800  134.5980 C   0  0  2  0  0  3  0  0  0  0  0  0
  181.8120  172.2640  136.5410 C   0  0  0  0  0  3  0  0  0  0  0  0
  187.8260  178.3070  137.4330 C   0  0  0  0  0  3  0  0  0  0  0  0
  182.1910  173.4230  135.8610 C   0  0  0  0  0  3  0  0  0  0  0  0
  189.3320  176.8370  135.2500 C   0  0  0  0  0  2  0  0  0  0  0  0
  185.2960  176.9100  135.0230 C   0  0  0  0  0  2  0  0  0  0  0  0
  183.8970  174.9880  135.1820 O   0  0  0  0  0  0  0  0  0  0  0  0
  185.8690  177.5410  136.2540 C   0  0  0  0  0  0  0  0  0  0  0  0
  184.5050  173.0490  136.4870 C   0  0  0  0  0  0  0  0  0  0  0  0
  184.1170  171.8820  137.1680 C   0  0  0  0  0  3  0  0  0  0  0  0
  187.2460  177.7680  136.2820 C   0  0  0  0  0  0  0  0  0  0  0  0
  187.0620  178.5610  138.5270 N   0  0  0  0  0  0  0  0  0  0  0  0
  182.7750  171.4940  137.1980 C   0  0  0  0  0  3  0  0  0  0  0  0
  184.9550  178.6170  139.7850 C   0  0  0  0  0  1  0  0  0  0  0  0
  185.9240  173.4550  136.3920 C   0  0  0  0  0  0  0  0  0  0  0  0
  188.6420  174.0260  136.0280 C   0  0  0  0  0  0  0  0  0  0  0  0
  186.9040  172.6250  136.9290 C   0  0  0  0  0  3  0  0  0  0  0  0
  188.0390  177.5620  135.0260 C   0  0  2  0  0  3  0  0  0  0  0  0
  185.7230  178.3190  138.5430 C   0  0  0  0  0  0  0  0  0  0  0  0
  190.1110  174.1240  135.7440 C   0  0  0  0  0  2  0  0  0  0  0  0
  190.8580  174.3370  136.9880 C   0  0  0  0  0  0  0  0  0  0  0  0
  191.4480  174.5040  137.9690 N   0  0  0  0  0  0  0  0  0  0  0  0
  1  6  1  0  0  0  0
  2 11  2  0  0  0  0
  2 16  1  0  0  0  0
  3 24  1  0  0  0  0
  4 26  1  0  0  0  0
  5  6  2  0  0  0  0
  5 23  1  0  0  0  0
  6 22  1  0  0  0  0
  7  4  1  0  0  0  0
  8 25  1  0  0  0  0
  8 12  1  1  0  0  0
  8  5  1  0  0  0  0
  9 20  2  0  0  0  0
 10 19  1  0  0  0  0
 11  9  1  0  0  0  0
 13  1  1  0  0  0  0
 13 15  1  0  0  0  0
 14  1  1  0  0  0  0
 14  2  1  0  0  0  0
 15 18  1  0  0  0  0
 15  4  2  0  0  0  0
 16 17  2  0  0  0  0
 17 20  1  0  0  0  0
 18 10  2  0  0  0  0
 19 26  2  0  0  0  0
 22 16  1  0  0  0  0
 22 24  2  0  0  0  0
 23  3  2  0  0  0  0
 25 12  1  1  0  0  0
 25 18  1  0  0  0  0
 26 21  1  0  0  0  0
 27 23  1  0  0  0  0
 27 28  1  0  0  0  0
 28 29  3  0  0  0  0
M  END
>  <MODEL>
8

>  <REMARK>
 VINA RESULT:      -5.8      3.315      7.599
  Name = 
  2 active torsions:
  status: ('A' for Active; 'I' for Inactive)
    1  A    between atoms: C_6  and  C_11
    2  A    between atoms: C_11  and  C_26
                            x       y       z     vdW  Elec       q    Type
                         _______ _______ _______ _____ _____    ______ ____

>  <TORSDO>
F 2

$$$$
=
 OpenBabel11042410263D

 29 34  0  0  1  0  0  0  0  0999 V2000
  186.0100  177.2940  136.9620 N   0  0  0  0  0  0  0  0  0  0  0  0
  183.7350  176.4460  136.9510 C   0  0  0  0  0  0  0  0  0  0  0  0
  187.4390  173.2740  137.2350 C   0  0  0  0  0  3  0  0  0  0  0  0
  186.5880  178.4220  139.8970 C   0  0  0  0  0  0  0  0  0  0  0  0
  187.9730  175.6500  136.9430 C   0  0  0  0  0  0  0  0  0  0  0  0
  186.5660  175.9490  137.0440 C   0  0  0  0  0  0  0  0  0  0  0  0
  185.1540  178.8500  139.8450 C   0  0  0  0  0  1  0  0  0  0  0  0
  189.0180  176.6950  136.5220 C   0  0  2  0  0  3  0  0  0  0  0  0
  181.4390  175.6830  137.0520 C   0  0  0  0  0  3  0  0  0  0  0  0
  189.2470  177.6100  140.0190 C   0  0  0  0  0  3  0  0  0  0  0  0
  182.3640  176.7130  136.8720 C   0  0  0  0  0  3  0  0  0  0  0  0
  190.2850  176.5540  137.3730 C   0  0  0  0  0  2  0  0  0  0  0  0
  186.7360  178.4890  137.3580 C   0  0  0  0  0  2  0  0  0  0  0  0
  184.6490  177.4840  136.8000 O   0  0  0  0  0  0  0  0  0  0  0  0
  187.3390  178.2920  138.7140 C   0  0  0  0  0  0  0  0  0  0  0  0
  184.1890  175.1480  137.2040 C   0  0  0  0  0  0  0  0  0  0  0  0
  183.2520  174.1150  137.3830 C   0  0  0  0  0  3  0  0  0  0  0  0
  188.6640  177.8560  138.7730 C   0  0  0  0  0  0  0  0  0  0  0  0
  188.5140  177.7500  141.1540 N   0  0  0  0  0  0  0  0  0  0  0  0
  181.8830  174.3830  137.3110 C   0  0  0  0  0  3  0  0  0  0  0  0
  186.4720  178.2630  142.4160 C   0  0  0  0  0  1  0  0  0  0  0  0
  185.6440  174.8850  137.2200 C   0  0  0  0  0  0  0  0  0  0  0  0
  188.3710  174.2790  137.0020 C   0  0  0  0  0  0  0  0  0  0  0  0
  186.0940  173.5730  137.3440 C   0  0  0  0  0  3  0  0  0  0  0  0
  189.4660  177.8030  137.5070 C   0  0  2  0  0  3  0  0  0  0  0  0
  187.2110  178.1410  141.1270 C   0  0  0  0  0  0  0  0  0  0  0  0
  189.7670  173.8130  136.7210 C   0  0  0  0  0  2  0  0  0  0  0  0
  189.7890  172.9550  135.5320 C   0  0  0  0  0  0  0  0  0  0  0  0
  189.8060  172.2770  134.5940 N   0  0  0  0  0  0  0  0  0  0  0  0
  1  6  1  0  0  0  0
  1 13  1  0  0  0  0
  2 16  1  0  0  0  0
  3 24  1  0  0  0  0
  4 26  1  0  0  0  0
  5 23  1  0  0  0  0
  5  6  2  0  0  0  0
  6 22  1  0  0  0  0
  7  4  1  0  0  0  0
  8  5  1  0  0  0  0
  8 12  1  1  0  0  0
  8 25  1  0  0  0  0
  9 20  2  0  0  0  0
 10 19  1  0  0  0  0
 11  2  2  0  0  0  0
 11  9  1  0  0  0  0
 13 15  1  0  0  0  0
 14  2  1  0  0  0  0
 14  1  1  0  0  0  0
 15 18  1  0  0  0  0
 15  4  2  0  0  0  0
 16 22  1  0  0  0  0
 16 17  2  0  0  0  0
 18 10  2  0  0  0  0
 20 17  1  0  0  0  0
 22 24  2  0  0  0  0
 23  3  2  0  0  0  0
 25 12  1  1  0  0  0
 25 18  1  0  0  0  0
 26 19  2  0  0  0  0
 26 21  1  0  0  0  0
 27 23  1  0  0  0  0
 28 27  1  0  0  0  0
 29 28  3  0  0  0  0
M  END
>  <MODEL>
9

>  <REMARK>
 VINA RESULT:      -5.6      2.678      7.363
  Name = 
  2 active torsions:
  status: ('A' for Active; 'I' for Inactive)
    1  A    between atoms: C_6  and  C_11
    2  A    between atoms: C_11  and  C_26
                            x       y       z     vdW  Elec       q    Type
                         _______ _______ _______ _____ _____    ______ ____

>  <TORSDO>
F 2

$$$$
