=
 OpenBabel11042413323D

 41 43  0  0  1  0  0  0  0  0999 V2000
  186.1830  177.6560  137.6790 C   0  0  0  0  0  0  0  0  0  0  0  0
  188.6560  177.1790  137.6850 N   0  0  0  0  0  0  0  0  0  0  0  0
  188.1310  174.8980  137.1060 C   0  0  0  0  0  2  0  0  0  0  0  0
  187.3400  177.0990  137.1680 C   0  0  1  0  0  3  0  0  0  0  0  0
  189.0300  179.4530  138.0040 O   0  0  0  0  0  0  0  0  0  0  0  0
  189.7610  178.0890  139.7280 N   0  0  0  0  0  0  0  0  0  0  0  0
  185.7010  175.6380  137.1430 N   0  0  0  0  0  0  0  0  0  0  0  0
  186.0790  178.7930  138.2110 O   0  0  0  0  0  0  0  0  0  0  0  0
  189.1560  178.2830  138.4490 C   0  0  0  0  0  0  0  0  0  0  0  0
  185.0060  174.3620  137.1420 C   0  0  0  0  0  1  0  0  0  0  0  0
  187.0020  175.8350  136.8550 C   0  0  2  0  0  3  0  0  0  0  0  0
  185.1810  176.7560  137.6360 N   0  0  0  0  0  2  0  0  0  0  0  0
  189.2500  175.8350  137.6350 C   0  0  1  0  0  3  0  0  0  0  0  0
  189.8290  176.8260  140.3370 N   0  0  0  0  0  0  0  0  0  0  0  0
  190.1350  176.6340  141.7230 C   0  0  0  0  0  0  0  0  0  0  0  0
  190.0470  175.4710  142.1970 O   0  0  0  0  0  0  0  0  0  0  0  0
  190.5100  177.7360  142.6350 C   0  0  0  0  0  0  0  0  0  0  0  0
  191.7900  178.0030  142.8850 C   0  0  0  0  0  2  0  0  0  0  0  0
  189.4690  178.4430  143.2630 O   0  0  0  0  0  0  0  0  0  0  0  0
  187.3380  177.7590  144.3330 N   0  0  0  0  0  2  0  0  0  0  0  0
  188.7390  178.0510  144.3960 C   0  0  0  0  0  0  0  0  0  0  0  0
  189.3450  177.9530  145.4960 O   0  0  0  0  0  0  0  0  0  0  0  0
  186.5700  177.3170  145.4870 C   0  0  0  0  0  2  0  0  0  0  0  0
  184.7650  178.9960  145.2270 C   0  0  0  0  0  1  0  0  0  0  0  0
  185.8720  178.5010  146.1340 C   0  0  0  0  0  2  0  0  0  0  0  0
  190.4690  175.8180  136.7040 C   0  0  1  0  0  3  0  0  0  0  0  0
  190.6070  177.0660  136.1160 F   0  0  0  0  0  0  0  0  0  0  0  0
  193.7400  176.5690  137.7510 O   0  0  0  0  0  0  0  0  0  0  0  0
  191.7580  175.4760  137.4590 C   0  0  1  0  0  3  0  0  0  0  0  0
  192.7600  174.8220  136.5520 C   0  0  1  0  0  3  0  0  0  0  0  0
  193.8880  175.8130  136.5820 C   0  0  0  0  0  2  0  0  0  0  0  0
  192.3960  176.6950  137.9360 N   0  0  0  0  0  2  0  0  0  0  0  0
  193.2010  173.5060  137.1750 C   0  0  0  0  0  2  0  0  0  0  0  0
  194.4320  172.9690  136.4650 C   0  0  0  0  0  2  0  0  0  0  0  0
  196.9410  172.2590  137.0200 O   0  0  0  0  0  0  0  0  0  0  0  0
  195.1550  170.8980  138.0150 O   0  0  0  0  0  0  0  0  0  0  0  0
  195.5760  172.2910  137.6460 S   0  0  0  0  0  0  0  0  0  0  0  0
  196.3090  174.5280  139.1200 C   0  0  0  0  0  0  0  0  0  0  0  0
  195.6060  173.2850  139.0660 N   0  0  0  0  0  2  0  0  0  0  0  0
  196.3740  175.2240  140.3220 O   0  0  0  0  0  1  0  0  0  0  0  0
  196.8760  174.9950  138.0910 O   0  0  0  0  0  0  0  0  0  0  0  0
  1  8  2  0  0  0  0
  2  9  1  0  0  0  0
  3 13  1  0  0  0  0
  4  1  1  1  0  0  0
  4  2  1  0  0  0  0
  5  9  2  0  0  0  0
  6 14  2  0  0  0  0
  7 12  1  0  0  0  0
  9  6  1  0  0  0  0
 10  7  1  0  0  0  0
 11  3  1  1  0  0  0
 11  7  1  0  0  0  0
 11  4  1  0  0  0  0
 12  1  1  0  0  0  0
 13 26  1  6  0  0  0
 13  2  1  0  0  0  0
 14 15  1  0  0  0  0
 15 16  2  0  0  0  0
 15 17  1  0  0  0  0
 17 18  2  0  0  0  0
 17 19  1  0  0  0  0
 19 21  1  0  0  0  0
 20 21  1  0  0  0  0
 20 23  1  0  0  0  0
 21 22  2  0  0  0  0
 23 25  1  0  0  0  0
 24 25  1  0  0  0  0
 26 27  1  1  0  0  0
 28 32  1  0  0  0  0
 29 26  1  6  0  0  0
 29 32  1  0  0  0  0
 30 31  1  0  0  0  0
 30 33  1  1  0  0  0
 30 29  1  0  0  0  0
 31 28  1  0  0  0  0
 34 33  1  0  0  0  0
 34 37  1  0  0  0  0
 35 37  2  0  0  0  0
 37 36  2  0  0  0  0
 37 39  1  0  0  0  0
 38 40  1  0  0  0  0
 39 38  1  0  0  0  0
 41 38  2  0  0  0  0
M  END
>  <MODEL>
1

>  <REMARK>
 VINA RESULT:      -7.7      0.000      0.000
  Name = 
  12 active torsions:
  status: ('A' for Active; 'I' for Inactive)
    1  A    between atoms: C_1  and  N_29
    2  A    between atoms: C_1  and  C_38
    3  A    between atoms: N_2  and  N_15
    4  A    between atoms: O_3  and  C_12
    5  A    between atoms: O_3  and  C_31
    6  A    between atoms: C_12  and  C_27
    7  A    between atoms: N_13  and  S_33
    8  A    between atoms: C_14  and  C_24
    9  A    between atoms: C_17  and  C_34
   10  A    between atoms: C_19  and  S_33
   11  A    between atoms: C_19  and  C_34
   12  A    between atoms: C_24  and  C_37
                            x       y       z     vdW  Elec       q    Type
                         _______ _______ _______ _____ _____    ______ ____

>  <TORSDO>
F 12

$$$$
=
 OpenBabel11042413323D

 41 43  0  0  1  0  0  0  0  0999 V2000
  186.3000  177.4630  137.4810 C   0  0  0  0  0  0  0  0  0  0  0  0
  188.7920  177.0990  137.4700 N   0  0  0  0  0  0  0  0  0  0  0  0
  188.3620  174.7530  137.1180 C   0  0  0  0  0  2  0  0  0  0  0  0
  187.4710  176.9120  136.9960 C   0  0  1  0  0  3  0  0  0  0  0  0
  189.0670  179.4070  137.5670 O   0  0  0  0  0  0  0  0  0  0  0  0
  189.8950  178.2450  139.3920 N   0  0  0  0  0  2  0  0  0  0  0  0
  185.9020  175.3850  137.1460 N   0  0  0  0  0  0  0  0  0  0  0  0
  186.1540  178.6400  137.9080 O   0  0  0  0  0  0  0  0  0  0  0  0
  189.2560  178.2910  138.1160 C   0  0  0  0  0  0  0  0  0  0  0  0
  185.2670  174.0840  137.2810 C   0  0  0  0  0  1  0  0  0  0  0  0
  187.1860  175.6110  136.8090 C   0  0  2  0  0  3  0  0  0  0  0  0
  185.3410  176.5190  137.5470 N   0  0  0  0  0  2  0  0  0  0  0  0
  189.4470  175.7850  137.5300 C   0  0  1  0  0  3  0  0  0  0  0  0
  190.0350  177.0490  140.1130 N   0  0  0  0  0  2  0  0  0  0  0  0
  189.5990  176.8900  141.4680 C   0  0  0  0  0  0  0  0  0  0  0  0
  189.6550  175.7420  141.9810 O   0  0  0  0  0  0  0  0  0  0  0  0
  189.0490  177.9950  142.2830 C   0  0  0  0  0  0  0  0  0  0  0  0
  187.7900  178.3930  142.1230 C   0  0  0  0  0  2  0  0  0  0  0  0
  189.9220  178.6350  143.1810 O   0  0  0  0  0  0  0  0  0  0  0  0
  189.3930  177.8410  145.4700 N   0  0  0  0  0  2  0  0  0  0  0  0
  190.3320  178.1740  144.4410 C   0  0  0  0  0  0  0  0  0  0  0  0
  191.5660  178.0490  144.6620 O   0  0  0  0  0  0  0  0  0  0  0  0
  189.7940  177.3270  146.7710 C   0  0  0  0  0  2  0  0  0  0  0  0
  188.2730  178.2130  148.5150 C   0  0  0  0  0  1  0  0  0  0  0  0
  188.5680  177.0310  147.6160 C   0  0  0  0  0  2  0  0  0  0  0  0
  190.6460  175.7340  136.5740 C   0  0  1  0  0  3  0  0  0  0  0  0
  190.7280  176.9350  135.8880 F   0  0  0  0  0  0  0  0  0  0  0  0
  193.8710  176.7220  137.5660 O   0  0  0  0  0  0  0  0  0  0  0  0
  191.9620  175.4960  137.3230 C   0  0  1  0  0  3  0  0  0  0  0  0
  192.9960  174.8850  136.4230 C   0  0  1  0  0  3  0  0  0  0  0  0
  194.0570  175.9470  136.4150 C   0  0  0  0  0  2  0  0  0  0  0  0
  192.5230  176.7660  137.7620 N   0  0  0  0  0  2  0  0  0  0  0  0
  193.5270  173.6170  137.0740 C   0  0  0  0  0  2  0  0  0  0  0  0
  194.7950  173.1530  136.3770 C   0  0  0  0  0  2  0  0  0  0  0  0
  196.3440  171.0740  136.9980 O   0  0  0  0  0  0  0  0  0  0  0  0
  195.1880  172.1930  138.8540 O   0  0  0  0  0  0  0  0  0  0  0  0
  195.9000  172.3990  137.5480 S   0  0  0  0  0  0  0  0  0  0  0  0
  197.2200  174.6190  138.5700 C   0  0  0  0  0  0  0  0  0  0  0  0
  197.2780  173.4220  137.7920 N   0  0  0  0  0  2  0  0  0  0  0  0
  198.3370  175.4440  138.6400 O   0  0  0  0  0  0  0  0  0  0  0  0
  196.1640  174.9370  139.1890 O   0  0  0  0  0  1  0  0  0  0  0  0
  1 12  1  0  0  0  0
  1  8  2  0  0  0  0
  2 13  1  0  0  0  0
  2  9  1  0  0  0  0
  3 13  1  0  0  0  0
  4  2  1  0  0  0  0
  4  1  1  1  0  0  0
  5  9  2  0  0  0  0
  6 14  1  0  0  0  0
  7 10  1  0  0  0  0
  7 12  1  0  0  0  0
  9  6  1  0  0  0  0
 11  4  1  0  0  0  0
 11  3  1  1  0  0  0
 11  7  1  0  0  0  0
 13 26  1  6  0  0  0
 14 15  1  0  0  0  0
 15 16  2  0  0  0  0
 15 17  1  0  0  0  0
 17 19  1  0  0  0  0
 18 17  2  0  0  0  0
 19 21  1  0  0  0  0
 20 23  1  0  0  0  0
 21 22  2  0  0  0  0
 21 20  1  0  0  0  0
 23 25  1  0  0  0  0
 25 24  1  0  0  0  0
 26 27  1  1  0  0  0
 28 32  1  0  0  0  0
 29 26  1  6  0  0  0
 29 32  1  0  0  0  0
 30 33  1  1  0  0  0
 30 29  1  0  0  0  0
 31 30  1  0  0  0  0
 31 28  1  0  0  0  0
 34 33  1  0  0  0  0
 34 37  1  0  0  0  0
 35 37  2  0  0  0  0
 37 39  1  0  0  0  0
 37 36  2  0  0  0  0
 38 40  2  0  0  0  0
 38 41  1  0  0  0  0
 39 38  1  0  0  0  0
M  END
>  <MODEL>
2

>  <REMARK>
 VINA RESULT:      -7.4      1.363      1.575
  Name = 
  12 active torsions:
  status: ('A' for Active; 'I' for Inactive)
    1  A    between atoms: C_1  and  N_29
    2  A    between atoms: C_1  and  C_38
    3  A    between atoms: N_2  and  N_15
    4  A    between atoms: O_3  and  C_12
    5  A    between atoms: O_3  and  C_31
    6  A    between atoms: C_12  and  C_27
    7  A    between atoms: N_13  and  S_33
    8  A    between atoms: C_14  and  C_24
    9  A    between atoms: C_17  and  C_34
   10  A    between atoms: C_19  and  S_33
   11  A    between atoms: C_19  and  C_34
   12  A    between atoms: C_24  and  C_37
                            x       y       z     vdW  Elec       q    Type
                         _______ _______ _______ _____ _____    ______ ____

>  <TORSDO>
F 12

$$$$
=
 OpenBabel11042413323D

 41 43  0  0  1  0  0  0  0  0999 V2000
  186.1560  177.5930  137.7130 C   0  0  0  0  0  0  0  0  0  0  0  0
  188.6430  177.2080  137.8160 N   0  0  0  0  0  0  0  0  0  0  0  0
  188.2300  174.9220  137.1700 C   0  0  0  0  0  2  0  0  0  0  0  0
  187.3540  177.0900  137.2420 C   0  0  1  0  0  3  0  0  0  0  0  0
  188.9160  179.4870  138.1960 O   0  0  0  0  0  0  0  0  0  0  0  0
  189.6250  178.1150  139.9220 N   0  0  0  0  0  0  0  0  0  0  0  0
  185.7740  175.5710  137.1170 N   0  0  0  0  0  0  0  0  0  0  0  0
  185.9860  178.7140  138.2630 O   0  0  0  0  0  0  0  0  0  0  0  0
  189.0680  178.3140  138.6230 C   0  0  0  0  0  0  0  0  0  0  0  0
  185.1290  174.2690  137.0610 C   0  0  0  0  0  1  0  0  0  0  0  0
  187.0780  175.8210  136.8890 C   0  0  2  0  0  3  0  0  0  0  0  0
  185.1920  176.6570  137.6100 N   0  0  0  0  0  2  0  0  0  0  0  0
  189.2890  175.8890  137.7650 C   0  0  1  0  0  3  0  0  0  0  0  0
  189.7160  176.8430  140.5080 N   0  0  0  0  0  0  0  0  0  0  0  0
  189.9740  176.6320  141.9020 C   0  0  0  0  0  0  0  0  0  0  0  0
  189.9110  175.4570  142.3490 O   0  0  0  0  0  0  0  0  0  0  0  0
  190.2730  177.7270  142.8490 C   0  0  0  0  0  0  0  0  0  0  0  0
  191.5260  178.1280  143.0480 C   0  0  0  0  0  2  0  0  0  0  0  0
  189.1950  178.2800  143.5640 O   0  0  0  0  0  0  0  0  0  0  0  0
  187.3280  178.2570  145.1970 N   0  0  0  0  0  2  0  0  0  0  0  0
  188.5790  177.7560  144.7110 C   0  0  0  0  0  0  0  0  0  0  0  0
  189.1510  176.8150  145.3220 O   0  0  0  0  0  0  0  0  0  0  0  0
  186.6550  177.7050  146.3620 C   0  0  0  0  0  2  0  0  0  0  0  0
  184.7530  178.7350  145.1510 C   0  0  0  0  0  1  0  0  0  0  0  0
  185.2770  178.3270  146.5120 C   0  0  0  0  0  2  0  0  0  0  0  0
  190.5460  175.9370  136.8870 C   0  0  1  0  0  3  0  0  0  0  0  0
  190.6750  177.2090  136.3510 F   0  0  0  0  0  0  0  0  0  0  0  0
  193.5000  176.8650  138.5530 O   0  0  0  0  0  0  0  0  0  0  0  0
  191.8110  175.6000  137.6830 C   0  0  1  0  0  3  0  0  0  0  0  0
  192.9960  175.4380  136.7760 C   0  0  1  0  0  3  0  0  0  0  0  0
  193.8930  176.5450  137.2480 C   0  0  0  0  0  2  0  0  0  0  0  0
  192.1470  176.7000  138.5760 N   0  0  0  0  0  2  0  0  0  0  0  0
  193.6410  174.0870  137.0480 C   0  0  0  0  0  2  0  0  0  0  0  0
  195.1390  174.1540  136.8000 C   0  0  0  0  0  2  0  0  0  0  0  0
  195.8960  174.5210  139.3300 O   0  0  0  0  0  0  0  0  0  0  0  0
  197.4720  173.3470  137.8570 O   0  0  0  0  0  0  0  0  0  0  0  0
  196.0240  173.5280  138.2100 S   0  0  0  0  0  0  0  0  0  0  0  0
  195.5250  170.8100  137.9360 C   0  0  0  0  0  0  0  0  0  0  0  0
  195.3480  172.0070  138.6950 N   0  0  0  0  0  2  0  0  0  0  0  0
  194.8710  169.6480  138.3310 O   0  0  0  0  0  1  0  0  0  0  0  0
  196.2620  170.7980  136.9090 O   0  0  0  0  0  0  0  0  0  0  0  0
  1  8  2  0  0  0  0
  2  9  1  0  0  0  0
  3 13  1  0  0  0  0
  4  1  1  1  0  0  0
  4  2  1  0  0  0  0
  5  9  2  0  0  0  0
  6 14  2  0  0  0  0
  7 12  1  0  0  0  0
  9  6  1  0  0  0  0
 10  7  1  0  0  0  0
 11  7  1  0  0  0  0
 11  3  1  1  0  0  0
 11  4  1  0  0  0  0
 12  1  1  0  0  0  0
 13 26  1  6  0  0  0
 13  2  1  0  0  0  0
 14 15  1  0  0  0  0
 15 16  2  0  0  0  0
 15 17  1  0  0  0  0
 17 18  2  0  0  0  0
 17 19  1  0  0  0  0
 19 21  1  0  0  0  0
 20 23  1  0  0  0  0
 21 20  1  0  0  0  0
 21 22  2  0  0  0  0
 23 25  1  0  0  0  0
 24 25  1  0  0  0  0
 26 27  1  1  0  0  0
 28 32  1  0  0  0  0
 29 26  1  6  0  0  0
 29 32  1  0  0  0  0
 30 33  1  1  0  0  0
 30 31  1  0  0  0  0
 30 29  1  0  0  0  0
 31 28  1  0  0  0  0
 34 33  1  0  0  0  0
 34 37  1  0  0  0  0
 36 37  2  0  0  0  0
 37 39  1  0  0  0  0
 37 35  2  0  0  0  0
 38 40  1  0  0  0  0
 38 39  1  0  0  0  0
 41 38  2  0  0  0  0
M  END
>  <MODEL>
3

>  <REMARK>
 VINA RESULT:      -7.1      0.861      1.636
  Name = 
  12 active torsions:
  status: ('A' for Active; 'I' for Inactive)
    1  A    between atoms: C_1  and  N_29
    2  A    between atoms: C_1  and  C_38
    3  A    between atoms: N_2  and  N_15
    4  A    between atoms: O_3  and  C_12
    5  A    between atoms: O_3  and  C_31
    6  A    between atoms: C_12  and  C_27
    7  A    between atoms: N_13  and  S_33
    8  A    between atoms: C_14  and  C_24
    9  A    between atoms: C_17  and  C_34
   10  A    between atoms: C_19  and  S_33
   11  A    between atoms: C_19  and  C_34
   12  A    between atoms: C_24  and  C_37
                            x       y       z     vdW  Elec       q    Type
                         _______ _______ _______ _____ _____    ______ ____

>  <TORSDO>
F 12

$$$$
=
 OpenBabel11042413323D

 41 43  0  0  1  0  0  0  0  0999 V2000
  181.0850  178.3350  136.3760 C   0  0  0  0  0  0  0  0  0  0  0  0
  182.5300  177.8450  138.3800 N   0  0  0  0  0  0  0  0  0  0  0  0
  182.1790  180.1240  139.0840 C   0  0  0  0  0  2  0  0  0  0  0  0
  181.4010  178.3900  137.7200 C   0  0  1  0  0  3  0  0  0  0  0  0
  182.5860  175.6160  137.7160 O   0  0  0  0  0  0  0  0  0  0  0  0
  184.6410  176.6870  137.7290 N   0  0  0  0  0  0  0  0  0  0  0  0
  180.7460  180.3570  136.9990 N   0  0  0  0  0  0  0  0  0  0  0  0
  181.2590  177.3480  135.6120 O   0  0  0  0  0  0  0  0  0  0  0  0
  183.2290  176.6720  137.9460 C   0  0  0  0  0  0  0  0  0  0  0  0
  180.5940  181.8000  136.9070 C   0  0  0  0  0  1  0  0  0  0  0  0
  181.1880  179.6710  138.0710 C   0  0  2  0  0  3  0  0  0  0  0  0
  180.6640  179.5430  135.9530 N   0  0  0  0  0  2  0  0  0  0  0  0
  183.0560  178.8610  139.3030 C   0  0  1  0  0  3  0  0  0  0  0  0
  185.4030  177.8580  137.8530 N   0  0  0  0  0  0  0  0  0  0  0  0
  186.7780  177.9510  137.4620 C   0  0  0  0  0  0  0  0  0  0  0  0
  187.3330  179.0800  137.4970 O   0  0  0  0  0  0  0  0  0  0  0  0
  187.5680  176.7970  136.9810 C   0  0  0  0  0  0  0  0  0  0  0  0
  187.5030  176.4140  135.7090 C   0  0  0  0  0  2  0  0  0  0  0  0
  188.3360  176.0960  137.9290 O   0  0  0  0  0  0  0  0  0  0  0  0
  188.7020  177.1240  140.1560 N   0  0  0  0  0  2  0  0  0  0  0  0
  189.1900  176.6410  138.8990 C   0  0  0  0  0  0  0  0  0  0  0  0
  190.4230  176.6990  138.6480 O   0  0  0  0  0  0  0  0  0  0  0  0
  189.5730  177.6600  141.1900 C   0  0  0  0  0  2  0  0  0  0  0  0
  189.1920  176.3430  143.2550 C   0  0  0  0  0  1  0  0  0  0  0  0
  190.1030  176.5340  142.0610 C   0  0  0  0  0  2  0  0  0  0  0  0
  182.9640  178.3730  140.7540 C   0  0  1  0  0  3  0  0  0  0  0  0
  183.2470  177.0160  140.7930 F   0  0  0  0  0  0  0  0  0  0  0  0
  186.2220  179.2720  141.7240 O   0  0  0  0  0  0  0  0  0  0  0  0
  183.9470  179.1150  141.6680 C   0  0  1  0  0  3  0  0  0  0  0  0
  184.4220  178.2310  142.7840 C   0  0  1  0  0  3  0  0  0  0  0  0
  185.8950  178.1570  142.5050 C   0  0  0  0  0  2  0  0  0  0  0  0
  185.1410  179.4840  140.9210 N   0  0  0  0  0  2  0  0  0  0  0  0
  184.1720  178.9360  144.1090 C   0  0  0  0  0  2  0  0  0  0  0  0
  185.4660  179.5160  144.6540 C   0  0  0  0  0  2  0  0  0  0  0  0
  184.7050  177.8990  146.6320 O   0  0  0  0  0  0  0  0  0  0  0  0
  185.9580  179.9140  147.2640 O   0  0  0  0  0  0  0  0  0  0  0  0
  185.8300  178.8160  146.2480 S   0  0  0  0  0  0  0  0  0  0  0  0
  188.0170  177.4930  147.3340 C   0  0  0  0  0  0  0  0  0  0  0  0
  187.3130  177.9220  146.1680 N   0  0  0  0  0  2  0  0  0  0  0  0
  189.2510  176.8680  147.1970 O   0  0  0  0  0  0  0  0  0  0  0  0
  187.5340  177.6820  148.4870 O   0  0  0  0  0  1  0  0  0  0  0  0
  2 13  1  0  0  0  0
  3 13  1  0  0  0  0
  4  1  1  6  0  0  0
  4 11  1  0  0  0  0
  4  2  1  0  0  0  0
  5  9  2  0  0  0  0
  6 14  2  0  0  0  0
  6  9  1  0  0  0  0
  7 11  1  0  0  0  0
  8  1  2  0  0  0  0
  9  2  1  0  0  0  0
 10  7  1  0  0  0  0
 11  3  1  6  0  0  0
 12  1  1  0  0  0  0
 12  7  1  0  0  0  0
 13 26  1  1  0  0  0
 15 16  2  0  0  0  0
 15 14  1  0  0  0  0
 17 15  1  0  0  0  0
 17 19  1  0  0  0  0
 18 17  2  0  0  0  0
 19 21  1  0  0  0  0
 20 23  1  0  0  0  0
 21 20  1  0  0  0  0
 22 21  2  0  0  0  0
 23 25  1  0  0  0  0
 25 24  1  0  0  0  0
 26 27  1  6  0  0  0
 28 31  1  0  0  0  0
 29 26  1  6  0  0  0
 29 30  1  0  0  0  0
 30 33  1  1  0  0  0
 31 30  1  0  0  0  0
 32 29  1  0  0  0  0
 32 28  1  0  0  0  0
 33 34  1  0  0  0  0
 34 37  1  0  0  0  0
 37 35  2  0  0  0  0
 37 36  2  0  0  0  0
 38 41  1  0  0  0  0
 39 37  1  0  0  0  0
 39 38  1  0  0  0  0
 40 38  2  0  0  0  0
M  END
>  <MODEL>
4

>  <REMARK>
 VINA RESULT:      -6.8      4.627      9.006
  Name = 
  12 active torsions:
  status: ('A' for Active; 'I' for Inactive)
    1  A    between atoms: C_1  and  N_29
    2  A    between atoms: C_1  and  C_38
    3  A    between atoms: N_2  and  N_15
    4  A    between atoms: O_3  and  C_12
    5  A    between atoms: O_3  and  C_31
    6  A    between atoms: C_12  and  C_27
    7  A    between atoms: N_13  and  S_33
    8  A    between atoms: C_14  and  C_24
    9  A    between atoms: C_17  and  C_34
   10  A    between atoms: C_19  and  S_33
   11  A    between atoms: C_19  and  C_34
   12  A    between atoms: C_24  and  C_37
                            x       y       z     vdW  Elec       q    Type
                         _______ _______ _______ _____ _____    ______ ____

>  <TORSDO>
F 12

$$$$
=
 OpenBabel11042413323D

 41 43  0  0  1  0  0  0  0  0999 V2000
  187.5520  176.0910  137.2940 C   0  0  0  0  0  0  0  0  0  0  0  0
  189.9010  176.6350  138.0200 N   0  0  0  0  0  0  0  0  0  0  0  0
  190.5170  174.3820  137.4200 C   0  0  0  0  0  2  0  0  0  0  0  0
  188.9270  176.0780  137.1570 C   0  0  1  0  0  3  0  0  0  0  0  0
  189.2280  178.8400  138.3280 O   0  0  0  0  0  0  0  0  0  0  0  0
  189.9370  177.7550  140.2490 N   0  0  0  0  0  0  0  0  0  0  0  0
  188.0880  174.0940  136.7350 N   0  0  0  0  0  0  0  0  0  0  0  0
  186.8580  177.0510  137.7230 O   0  0  0  0  0  0  0  0  0  0  0  0
  189.6840  177.7880  138.8430 C   0  0  0  0  0  0  0  0  0  0  0  0
  187.9930  172.6500  136.5960 C   0  0  0  0  0  1  0  0  0  0  0  0
  189.2260  174.8100  136.8180 C   0  0  2  0  0  3  0  0  0  0  0  0
  187.0500  174.8730  137.0110 N   0  0  0  0  0  2  0  0  0  0  0  0
  190.9730  175.6450  138.2010 C   0  0  1  0  0  3  0  0  0  0  0  0
  190.3340  176.5830  140.9080 N   0  0  0  0  0  0  0  0  0  0  0  0
  190.2020  176.3880  142.3220 C   0  0  0  0  0  0  0  0  0  0  0  0
  190.4720  175.2540  142.7950 O   0  0  0  0  0  0  0  0  0  0  0  0
  189.7270  177.4390  143.2480 C   0  0  0  0  0  0  0  0  0  0  0  0
  190.5560  178.3870  143.6780 C   0  0  0  0  0  2  0  0  0  0  0  0
  188.3950  177.3600  143.6920 O   0  0  0  0  0  0  0  0  0  0  0  0
  185.9500  177.7670  143.6290 N   0  0  0  0  0  2  0  0  0  0  0  0
  187.2520  177.8400  143.0360 C   0  0  0  0  0  0  0  0  0  0  0  0
  187.3860  178.3520  141.8930 O   0  0  0  0  0  0  0  0  0  0  0  0
  184.7560  178.2910  142.9820 C   0  0  0  0  0  2  0  0  0  0  0  0
  183.8330  178.9100  145.1970 C   0  0  0  0  0  1  0  0  0  0  0  0
  184.1660  179.4190  143.8100 C   0  0  0  0  0  2  0  0  0  0  0  0
  192.3010  176.1810  137.6530 C   0  0  1  0  0  3  0  0  0  0  0  0
  192.8420  177.0710  138.5680 F   0  0  0  0  0  0  0  0  0  0  0  0
  195.5850  174.9320  137.5030 O   0  0  0  0  0  0  0  0  0  0  0  0
  193.3090  175.0540  137.3980 C   0  0  1  0  0  3  0  0  0  0  0  0
  193.8180  175.0910  135.9870 C   0  0  1  0  0  3  0  0  0  0  0  0
  195.2830  175.3420  136.2000 C   0  0  0  0  0  2  0  0  0  0  0  0
  194.4800  175.2300  138.2450 N   0  0  0  0  0  2  0  0  0  0  0  0
  193.6060  173.7250  135.3520 C   0  0  0  0  0  2  0  0  0  0  0  0
  193.3790  172.6710  136.4220 C   0  0  0  0  0  2  0  0  0  0  0  0
  193.6040  170.3660  135.1020 O   0  0  0  0  0  0  0  0  0  0  0  0
  194.5910  170.4610  137.3490 O   0  0  0  0  0  0  0  0  0  0  0  0
  194.3560  171.2250  136.0780 S   0  0  0  0  0  0  0  0  0  0  0  0
  197.0120  172.0270  136.1930 C   0  0  0  0  0  0  0  0  0  0  0  0
  195.8760  171.6980  135.3930 N   0  0  0  0  0  2  0  0  0  0  0  0
  198.1690  172.4950  135.5800 O   0  0  0  0  0  0  0  0  0  0  0  0
  196.9740  171.9040  137.4510 O   0  0  0  0  0  1  0  0  0  0  0  0
  1  8  2  0  0  0  0
  2 13  1  0  0  0  0
  2  9  1  0  0  0  0
  3 13  1  0  0  0  0
  4  1  1  1  0  0  0
  4  2  1  0  0  0  0
  5  9  2  0  0  0  0
  6 14  2  0  0  0  0
  7 11  1  0  0  0  0
  7 12  1  0  0  0  0
  9  6  1  0  0  0  0
 10  7  1  0  0  0  0
 11  4  1  0  0  0  0
 11  3  1  1  0  0  0
 12  1  1  0  0  0  0
 13 26  1  6  0  0  0
 14 15  1  0  0  0  0
 15 16  2  0  0  0  0
 15 17  1  0  0  0  0
 17 18  2  0  0  0  0
 17 19  1  0  0  0  0
 21 20  1  0  0  0  0
 21 19  1  0  0  0  0
 22 21  2  0  0  0  0
 23 20  1  0  0  0  0
 23 25  1  0  0  0  0
 25 24  1  0  0  0  0
 26 27  1  1  0  0  0
 28 32  1  0  0  0  0
 29 26  1  6  0  0  0
 29 32  1  0  0  0  0
 30 33  1  1  0  0  0
 30 31  1  0  0  0  0
 30 29  1  0  0  0  0
 31 28  1  0  0  0  0
 33 34  1  0  0  0  0
 35 37  2  0  0  0  0
 37 34  1  0  0  0  0
 37 36  2  0  0  0  0
 38 41  1  0  0  0  0
 39 37  1  0  0  0  0
 39 38  1  0  0  0  0
 40 38  2  0  0  0  0
M  END
>  <MODEL>
5

>  <REMARK>
 VINA RESULT:      -6.7      1.783      2.462
  Name = 
  12 active torsions:
  status: ('A' for Active; 'I' for Inactive)
    1  A    between atoms: C_1  and  N_29
    2  A    between atoms: C_1  and  C_38
    3  A    between atoms: N_2  and  N_15
    4  A    between atoms: O_3  and  C_12
    5  A    between atoms: O_3  and  C_31
    6  A    between atoms: C_12  and  C_27
    7  A    between atoms: N_13  and  S_33
    8  A    between atoms: C_14  and  C_24
    9  A    between atoms: C_17  and  C_34
   10  A    between atoms: C_19  and  S_33
   11  A    between atoms: C_19  and  C_34
   12  A    between atoms: C_24  and  C_37
                            x       y       z     vdW  Elec       q    Type
                         _______ _______ _______ _____ _____    ______ ____

>  <TORSDO>
F 12

$$$$
=
 OpenBabel11042413323D

 41 43  0  0  1  0  0  0  0  0999 V2000
  190.8720  176.7630  137.6950 C   0  0  0  0  0  0  0  0  0  0  0  0
  188.4060  177.1410  137.3520 N   0  0  0  0  0  0  0  0  0  0  0  0
  188.2430  177.6520  139.7030 C   0  0  0  0  0  2  0  0  0  0  0  0
  189.6860  177.4500  137.8720 C   0  0  1  0  0  3  0  0  0  0  0  0
  188.7450  176.8630  135.0670 O   0  0  0  0  0  0  0  0  0  0  0  0
  187.3650  175.2830  136.0510 N   0  0  0  0  0  0  0  0  0  0  0  0
  190.7480  177.2360  139.7810 N   0  0  0  0  0  0  0  0  0  0  0  0
  191.2590  176.2110  136.6310 O   0  0  0  0  0  0  0  0  0  0  0  0
  188.1830  176.4530  136.1150 C   0  0  0  0  0  0  0  0  0  0  0  0
  190.9850  177.1410  141.2120 C   0  0  0  0  0  1  0  0  0  0  0  0
  189.6380  177.7190  139.1890 C   0  0  2  0  0  3  0  0  0  0  0  0
  191.5230  176.6590  138.8700 N   0  0  0  0  0  2  0  0  0  0  0  0
  187.4230  177.2920  138.4340 C   0  0  1  0  0  3  0  0  0  0  0  0
  186.8020  174.7040  137.1980 N   0  0  0  0  0  0  0  0  0  0  0  0
  186.0280  173.4990  137.1740 C   0  0  0  0  0  0  0  0  0  0  0  0
  185.6750  172.9950  138.2730 O   0  0  0  0  0  0  0  0  0  0  0  0
  185.6530  172.7950  135.9280 C   0  0  0  0  0  0  0  0  0  0  0  0
  186.3740  171.7670  135.4880 C   0  0  0  0  0  2  0  0  0  0  0  0
  184.5500  173.2900  135.2100 O   0  0  0  0  0  0  0  0  0  0  0  0
  182.3030  173.6530  136.1940 N   0  0  0  0  0  2  0  0  0  0  0  0
  183.5450  174.1480  135.6810 C   0  0  0  0  0  0  0  0  0  0  0  0
  183.7540  175.3900  135.6510 O   0  0  0  0  0  0  0  0  0  0  0  0
  181.2620  174.5220  136.7210 C   0  0  0  0  0  2  0  0  0  0  0  0
  181.4980  175.5500  138.9640 C   0  0  0  0  0  1  0  0  0  0  0  0
  181.0990  174.2960  138.2130 C   0  0  0  0  0  2  0  0  0  0  0  0
  186.4160  178.4000  138.0980 C   0  0  1  0  0  3  0  0  0  0  0  0
  186.2840  178.4890  136.7210 F   0  0  0  0  0  0  0  0  0  0  0  0
  182.9080  178.6340  138.0800 O   0  0  0  0  0  0  0  0  0  0  0  0
  185.0400  178.1260  138.7150 C   0  0  1  0  0  3  0  0  0  0  0  0
  184.5890  179.2770  139.5660 C   0  0  1  0  0  3  0  0  0  0  0  0
  183.3500  179.7210  138.8440 C   0  0  0  0  0  2  0  0  0  0  0  0
  184.0390  177.9960  137.6660 N   0  0  0  0  0  2  0  0  0  0  0  0
  184.2320  178.7550  140.9500 C   0  0  0  0  0  2  0  0  0  0  0  0
  185.4230  178.8720  141.8850 C   0  0  0  0  0  2  0  0  0  0  0  0
  183.5570  178.2510  143.6850 O   0  0  0  0  0  0  0  0  0  0  0  0
  184.7020  180.4060  143.9690 O   0  0  0  0  0  0  0  0  0  0  0  0
  184.8720  178.9680  143.5740 S   0  0  0  0  0  0  0  0  0  0  0  0
  185.8700  178.1310  146.0270 C   0  0  0  0  0  0  0  0  0  0  0  0
  186.0390  178.2130  144.6110 N   0  0  0  0  0  2  0  0  0  0  0  0
  186.8920  177.6020  146.8080 O   0  0  0  0  0  1  0  0  0  0  0  0
  184.8070  178.5390  146.5760 O   0  0  0  0  0  0  0  0  0  0  0  0
  1 12  1  0  0  0  0
  2  4  1  0  0  0  0
  2 13  1  0  0  0  0
  4  1  1  1  0  0  0
  4 11  1  0  0  0  0
  5  9  2  0  0  0  0
  6  9  1  0  0  0  0
  6 14  2  0  0  0  0
  7 10  1  0  0  0  0
  8  1  2  0  0  0  0
  9  2  1  0  0  0  0
 11  3  1  1  0  0  0
 11  7  1  0  0  0  0
 12  7  1  0  0  0  0
 13 26  1  6  0  0  0
 13  3  1  0  0  0  0
 15 14  1  0  0  0  0
 15 16  2  0  0  0  0
 17 15  1  0  0  0  0
 18 17  2  0  0  0  0
 19 21  1  0  0  0  0
 19 17  1  0  0  0  0
 20 23  1  0  0  0  0
 21 20  1  0  0  0  0
 22 21  2  0  0  0  0
 23 25  1  0  0  0  0
 25 24  1  0  0  0  0
 26 27  1  6  0  0  0
 28 31  1  0  0  0  0
 29 26  1  6  0  0  0
 29 30  1  0  0  0  0
 30 33  1  1  0  0  0
 31 30  1  0  0  0  0
 32 28  1  0  0  0  0
 32 29  1  0  0  0  0
 33 34  1  0  0  0  0
 34 37  1  0  0  0  0
 37 35  2  0  0  0  0
 37 36  2  0  0  0  0
 37 39  1  0  0  0  0
 38 41  2  0  0  0  0
 38 40  1  0  0  0  0
 39 38  1  0  0  0  0
M  END
>  <MODEL>
6

>  <REMARK>
 VINA RESULT:      -6.2      4.016      9.284
  Name = 
  12 active torsions:
  status: ('A' for Active; 'I' for Inactive)
    1  A    between atoms: C_1  and  N_29
    2  A    between atoms: C_1  and  C_38
    3  A    between atoms: N_2  and  N_15
    4  A    between atoms: O_3  and  C_12
    5  A    between atoms: O_3  and  C_31
    6  A    between atoms: C_12  and  C_27
    7  A    between atoms: N_13  and  S_33
    8  A    between atoms: C_14  and  C_24
    9  A    between atoms: C_17  and  C_34
   10  A    between atoms: C_19  and  S_33
   11  A    between atoms: C_19  and  C_34
   12  A    between atoms: C_24  and  C_37
                            x       y       z     vdW  Elec       q    Type
                         _______ _______ _______ _____ _____    ______ ____

>  <TORSDO>
F 12

$$$$
=
 OpenBabel11042413323D

 41 43  0  0  1  0  0  0  0  0999 V2000
  182.1160  177.9210  141.8460 C   0  0  0  0  0  0  0  0  0  0  0  0
  183.4200  178.0180  139.6940 N   0  0  0  0  0  0  0  0  0  0  0  0
  185.1810  179.1290  140.9110 C   0  0  0  0  0  2  0  0  0  0  0  0
  183.2630  177.8010  141.0840 C   0  0  1  0  0  3  0  0  0  0  0  0
  181.7570  176.7320  138.7010 O   0  0  0  0  0  0  0  0  0  0  0  0
  182.0170  178.8530  137.8080 N   0  0  0  0  0  2  0  0  0  0  0  0
  183.6810  178.8860  142.9460 N   0  0  0  0  0  0  0  0  0  0  0  0
  180.9540  177.5820  141.4970 O   0  0  0  0  0  0  0  0  0  0  0  0
  182.3830  177.8220  138.7250 C   0  0  0  0  0  0  0  0  0  0  0  0
  184.3220  179.7860  143.8920 C   0  0  0  0  0  1  0  0  0  0  0  0
  184.2160  178.4260  141.7990 C   0  0  2  0  0  3  0  0  0  0  0  0
  182.3930  178.5690  142.9950 N   0  0  0  0  0  2  0  0  0  0  0  0
  184.6420  178.8110  139.4900 C   0  0  1  0  0  3  0  0  0  0  0  0
  182.5930  180.1320  137.8550 N   0  0  0  0  0  2  0  0  0  0  0  0
  181.9510  181.2650  138.4520 C   0  0  0  0  0  0  0  0  0  0  0  0
  182.6060  182.3360  138.5540 O   0  0  0  0  0  0  0  0  0  0  0  0
  180.5740  181.2320  138.9900 C   0  0  0  0  0  0  0  0  0  0  0  0
  180.3360  180.7680  140.2140 C   0  0  0  0  0  2  0  0  0  0  0  0
  179.5350  181.6540  138.1410 O   0  0  0  0  0  0  0  0  0  0  0  0
  179.2330  184.0910  137.7940 N   0  0  0  0  0  2  0  0  0  0  0  0
  179.5280  182.7790  137.3020 C   0  0  0  0  0  0  0  0  0  0  0  0
  179.7940  182.6190  136.0810 O   0  0  0  0  0  0  0  0  0  0  0  0
  179.2550  185.2760  136.9500 C   0  0  0  0  0  2  0  0  0  0  0  0
  179.6530  186.4340  139.1050 C   0  0  0  0  0  1  0  0  0  0  0  0
  178.9330  186.5100  137.7740 C   0  0  0  0  0  2  0  0  0  0  0  0
  185.6710  178.0160  138.6760 C   0  0  1  0  0  3  0  0  0  0  0  0
  185.3340  178.0810  137.3330 F   0  0  0  0  0  0  0  0  0  0  0  0
  188.9410  178.6080  137.5280 O   0  0  0  0  0  0  0  0  0  0  0  0
  187.0910  178.5640  138.8620 C   0  0  1  0  0  3  0  0  0  0  0  0
  188.0220  177.5000  139.3650 C   0  0  1  0  0  3  0  0  0  0  0  0
  189.0080  177.4030  138.2380 C   0  0  0  0  0  2  0  0  0  0  0  0
  187.6330  178.9890  137.5790 N   0  0  0  0  0  2  0  0  0  0  0  0
  188.7100  178.0050  140.6240 C   0  0  0  0  0  2  0  0  0  0  0  0
  190.0110  177.2550  140.8550 C   0  0  0  0  0  2  0  0  0  0  0  0
  191.4900  177.4220  143.0670 O   0  0  0  0  0  0  0  0  0  0  0  0
  190.1970  175.3580  142.7480 O   0  0  0  0  0  0  0  0  0  0  0  0
  190.1900  176.8500  142.5780 S   0  0  0  0  0  0  0  0  0  0  0  0
  188.8520  177.5630  144.9050 C   0  0  0  0  0  0  0  0  0  0  0  0
  188.8740  177.5320  143.4770 N   0  0  0  0  0  2  0  0  0  0  0  0
  187.7210  178.0340  145.5610 O   0  0  0  0  0  0  0  0  0  0  0  0
  189.8460  177.1610  145.5760 O   0  0  0  0  0  1  0  0  0  0  0  0
  1 12  1  0  0  0  0
  2  4  1  0  0  0  0
  4 11  1  0  0  0  0
  4  1  1  1  0  0  0
  5  9  2  0  0  0  0
  6 14  1  0  0  0  0
  6  9  1  0  0  0  0
  7 12  1  0  0  0  0
  7 10  1  0  0  0  0
  8  1  2  0  0  0  0
  9  2  1  0  0  0  0
 11  3  1  6  0  0  0
 11  7  1  0  0  0  0
 13 26  1  6  0  0  0
 13  2  1  0  0  0  0
 13  3  1  0  0  0  0
 14 15  1  0  0  0  0
 15 16  2  0  0  0  0
 15 17  1  0  0  0  0
 17 18  2  0  0  0  0
 19 17  1  0  0  0  0
 21 20  1  0  0  0  0
 21 19  1  0  0  0  0
 22 21  2  0  0  0  0
 23 25  1  0  0  0  0
 23 20  1  0  0  0  0
 25 24  1  0  0  0  0
 26 27  1  6  0  0  0
 28 32  1  0  0  0  0
 28 31  1  0  0  0  0
 29 26  1  6  0  0  0
 29 30  1  0  0  0  0
 30 33  1  1  0  0  0
 31 30  1  0  0  0  0
 32 29  1  0  0  0  0
 33 34  1  0  0  0  0
 34 37  1  0  0  0  0
 37 36  2  0  0  0  0
 37 35  2  0  0  0  0
 37 39  1  0  0  0  0
 38 40  2  0  0  0  0
 38 41  1  0  0  0  0
 39 38  1  0  0  0  0
M  END
>  <MODEL>
7

>  <REMARK>
 VINA RESULT:      -6.0      5.297      8.884
  Name = 
  12 active torsions:
  status: ('A' for Active; 'I' for Inactive)
    1  A    between atoms: C_1  and  N_29
    2  A    between atoms: C_1  and  C_38
    3  A    between atoms: N_2  and  N_15
    4  A    between atoms: O_3  and  C_12
    5  A    between atoms: O_3  and  C_31
    6  A    between atoms: C_12  and  C_27
    7  A    between atoms: N_13  and  S_33
    8  A    between atoms: C_14  and  C_24
    9  A    between atoms: C_17  and  C_34
   10  A    between atoms: C_19  and  S_33
   11  A    between atoms: C_19  and  C_34
   12  A    between atoms: C_24  and  C_37
                            x       y       z     vdW  Elec       q    Type
                         _______ _______ _______ _____ _____    ______ ____

>  <TORSDO>
F 12

$$$$
=
 OpenBabel11042413323D

 41 43  0  0  1  0  0  0  0  0999 V2000
  187.1560  176.9570  137.7050 C   0  0  0  0  0  0  0  0  0  0  0  0
  189.5510  177.1420  138.4630 N   0  0  0  0  0  0  0  0  0  0  0  0
  189.9680  175.0290  137.3770 C   0  0  0  0  0  2  0  0  0  0  0  0
  188.5230  176.8640  137.5290 C   0  0  1  0  0  3  0  0  0  0  0  0
  189.0700  179.2750  139.2560 O   0  0  0  0  0  0  0  0  0  0  0  0
  189.7050  177.7480  140.8780 N   0  0  0  0  0  0  0  0  0  0  0  0
  187.5150  175.0910  136.7170 N   0  0  0  0  0  0  0  0  0  0  0  0
  186.5500  177.8550  138.3500 O   0  0  0  0  0  0  0  0  0  0  0  0
  189.4400  178.1030  139.5200 C   0  0  0  0  0  0  0  0  0  0  0  0
  187.2970  173.7230  136.2740 C   0  0  0  0  0  1  0  0  0  0  0  0
  188.7100  175.6790  136.9180 C   0  0  2  0  0  3  0  0  0  0  0  0
  186.5500  175.8740  137.1830 N   0  0  0  0  0  2  0  0  0  0  0  0
  190.5370  176.0530  138.3970 C   0  0  1  0  0  3  0  0  0  0  0  0
  190.0090  176.4320  141.2590 N   0  0  0  0  0  0  0  0  0  0  0  0
  190.0650  175.9990  142.6240 C   0  0  0  0  0  0  0  0  0  0  0  0
  190.2220  174.7720  142.8540 O   0  0  0  0  0  0  0  0  0  0  0  0
  189.9080  176.9130  143.7760 C   0  0  0  0  0  0  0  0  0  0  0  0
  188.9250  177.8090  143.8010 C   0  0  0  0  0  2  0  0  0  0  0  0
  190.8660  176.8330  144.8030 O   0  0  0  0  0  0  0  0  0  0  0  0
  189.5250  177.8830  146.6070 N   0  0  0  0  0  2  0  0  0  0  0  0
  190.7100  177.2270  146.1410 C   0  0  0  0  0  0  0  0  0  0  0  0
  191.6470  176.9880  146.9490 O   0  0  0  0  0  0  0  0  0  0  0  0
  189.3280  178.2680  147.9960 C   0  0  0  0  0  2  0  0  0  0  0  0
  186.8880  178.3900  147.5780 C   0  0  0  0  0  1  0  0  0  0  0  0
  187.9620  177.8100  148.4750 C   0  0  0  0  0  2  0  0  0  0  0  0
  191.9000  176.5860  137.9390 C   0  0  1  0  0  3  0  0  0  0  0  0
  192.4650  177.3260  138.9660 F   0  0  0  0  0  0  0  0  0  0  0  0
  195.1300  175.2620  137.5210 O   0  0  0  0  0  0  0  0  0  0  0  0
  192.8560  175.4510  137.5560 C   0  0  1  0  0  3  0  0  0  0  0  0
  193.2860  175.5630  136.1230 C   0  0  1  0  0  3  0  0  0  0  0  0
  194.7670  175.7610  136.2640 C   0  0  0  0  0  2  0  0  0  0  0  0
  194.0790  175.5420  138.3420 N   0  0  0  0  0  2  0  0  0  0  0  0
  192.9960  174.2460  135.4180 C   0  0  0  0  0  2  0  0  0  0  0  0
  192.9390  173.1080  136.4230 C   0  0  0  0  0  2  0  0  0  0  0  0
  193.2300  171.1740  134.6110 O   0  0  0  0  0  0  0  0  0  0  0  0
  193.9490  170.6660  136.9040 O   0  0  0  0  0  0  0  0  0  0  0  0
  193.8930  171.7250  135.8420 S   0  0  0  0  0  0  0  0  0  0  0  0
  196.5270  172.3720  136.4420 C   0  0  0  0  0  0  0  0  0  0  0  0
  195.5010  172.2470  135.4560 N   0  0  0  0  0  2  0  0  0  0  0  0
  197.7640  172.8920  136.0790 O   0  0  0  0  0  0  0  0  0  0  0  0
  196.3190  172.0220  137.6390 O   0  0  0  0  0  1  0  0  0  0  0  0
  1  8  2  0  0  0  0
  2  9  1  0  0  0  0
  3 13  1  0  0  0  0
  4  1  1  1  0  0  0
  4  2  1  0  0  0  0
  5  9  2  0  0  0  0
  6 14  2  0  0  0  0
  7 11  1  0  0  0  0
  7 12  1  0  0  0  0
  9  6  1  0  0  0  0
 10  7  1  0  0  0  0
 11  3  1  1  0  0  0
 11  4  1  0  0  0  0
 12  1  1  0  0  0  0
 13 26  1  6  0  0  0
 13  2  1  0  0  0  0
 14 15  1  0  0  0  0
 15 16  2  0  0  0  0
 15 17  1  0  0  0  0
 17 18  2  0  0  0  0
 17 19  1  0  0  0  0
 19 21  1  0  0  0  0
 20 23  1  0  0  0  0
 21 20  1  0  0  0  0
 21 22  2  0  0  0  0
 23 25  1  0  0  0  0
 24 25  1  0  0  0  0
 26 27  1  1  0  0  0
 28 32  1  0  0  0  0
 29 26  1  1  0  0  0
 29 32  1  0  0  0  0
 30 33  1  6  0  0  0
 30 31  1  0  0  0  0
 30 29  1  0  0  0  0
 31 28  1  0  0  0  0
 33 34  1  0  0  0  0
 35 37  2  0  0  0  0
 37 34  1  0  0  0  0
 37 36  2  0  0  0  0
 38 41  1  0  0  0  0
 39 37  1  0  0  0  0
 39 38  1  0  0  0  0
 40 38  2  0  0  0  0
M  END
>  <MODEL>
8

>  <REMARK>
 VINA RESULT:      -6.0      1.945      2.410
  Name = 
  12 active torsions:
  status: ('A' for Active; 'I' for Inactive)
    1  A    between atoms: C_1  and  N_29
    2  A    between atoms: C_1  and  C_38
    3  A    between atoms: N_2  and  N_15
    4  A    between atoms: O_3  and  C_12
    5  A    between atoms: O_3  and  C_31
    6  A    between atoms: C_12  and  C_27
    7  A    between atoms: N_13  and  S_33
    8  A    between atoms: C_14  and  C_24
    9  A    between atoms: C_17  and  C_34
   10  A    between atoms: C_19  and  S_33
   11  A    between atoms: C_19  and  C_34
   12  A    between atoms: C_24  and  C_37
                            x       y       z     vdW  Elec       q    Type
                         _______ _______ _______ _____ _____    ______ ____

>  <TORSDO>
F 12

$$$$
=
 OpenBabel11042413323D

 41 43  0  0  1  0  0  0  0  0999 V2000
  181.3400  178.2300  136.2430 C   0  0  0  0  0  0  0  0  0  0  0  0
  182.7680  177.7610  138.2650 N   0  0  0  0  0  0  0  0  0  0  0  0
  182.3520  180.0270  138.9780 C   0  0  0  0  0  2  0  0  0  0  0  0
  181.6360  178.2830  137.5920 C   0  0  1  0  0  3  0  0  0  0  0  0
  182.8870  175.5390  137.5870 O   0  0  0  0  0  0  0  0  0  0  0  0
  184.9150  176.6580  137.6360 N   0  0  0  0  0  2  0  0  0  0  0  0
  180.9440  180.2380  136.8750 N   0  0  0  0  0  0  0  0  0  0  0  0
  181.5480  177.2530  135.4760 O   0  0  0  0  0  0  0  0  0  0  0  0
  183.5010  176.6080  137.8320 C   0  0  0  0  0  0  0  0  0  0  0  0
  180.7580  181.6780  136.7900 C   0  0  0  0  0  1  0  0  0  0  0  0
  181.3870  179.5560  137.9480 C   0  0  2  0  0  3  0  0  0  0  0  0
  180.8960  179.4300  135.8220 N   0  0  0  0  0  2  0  0  0  0  0  0
  183.2560  178.7830  139.2010 C   0  0  1  0  0  3  0  0  0  0  0  0
  185.6470  177.8470  137.7780 N   0  0  0  0  0  2  0  0  0  0  0  0
  186.7080  178.2320  136.8950 C   0  0  0  0  0  0  0  0  0  0  0  0
  187.2150  179.3750  137.0360 O   0  0  0  0  0  0  0  0  0  0  0  0
  187.2110  177.3710  135.8040 C   0  0  0  0  0  0  0  0  0  0  0  0
  186.3980  176.9620  134.8330 C   0  0  0  0  0  2  0  0  0  0  0  0
  188.5560  176.9630  135.8660 O   0  0  0  0  0  0  0  0  0  0  0  0
  189.9210  174.9080  136.1220 N   0  0  0  0  0  2  0  0  0  0  0  0
  189.0980  175.9460  136.6670 C   0  0  0  0  0  0  0  0  0  0  0  0
  188.8490  175.9570  137.9020 O   0  0  0  0  0  0  0  0  0  0  0  0
  190.5230  173.8650  136.9380 C   0  0  0  0  0  2  0  0  0  0  0  0
  192.3860  175.4020  136.3820 C   0  0  0  0  0  1  0  0  0  0  0  0
  192.0090  174.1270  137.1090 C   0  0  0  0  0  2  0  0  0  0  0  0
  183.1560  178.2830  140.6470 C   0  0  1  0  0  3  0  0  0  0  0  0
  183.4860  176.9370  140.6840 F   0  0  0  0  0  0  0  0  0  0  0  0
  186.3640  179.2630  141.7010 O   0  0  0  0  0  0  0  0  0  0  0  0
  184.0950  179.0530  141.5830 C   0  0  1  0  0  3  0  0  0  0  0  0
  184.5590  178.1880  142.7180 C   0  0  1  0  0  3  0  0  0  0  0  0
  186.0410  178.1470  142.4820 C   0  0  0  0  0  2  0  0  0  0  0  0
  185.3020  179.4450  140.8670 N   0  0  0  0  0  2  0  0  0  0  0  0
  184.2560  178.8960  144.0310 C   0  0  0  0  0  2  0  0  0  0  0  0
  185.5380  179.4100  144.6650 C   0  0  0  0  0  2  0  0  0  0  0  0
  184.3490  178.2540  146.7520 O   0  0  0  0  0  0  0  0  0  0  0  0
  186.0550  179.9510  147.2440 O   0  0  0  0  0  0  0  0  0  0  0  0
  185.6780  178.8170  146.3360 S   0  0  0  0  0  0  0  0  0  0  0  0
  187.8410  177.5010  147.4770 C   0  0  0  0  0  0  0  0  0  0  0  0
  186.8890  177.5790  146.4150 N   0  0  0  0  0  2  0  0  0  0  0  0
  188.8470  176.5430  147.4240 O   0  0  0  0  0  0  0  0  0  0  0  0
  187.7840  178.2980  148.4570 O   0  0  0  0  0  1  0  0  0  0  0  0
  2 13  1  0  0  0  0
  3 13  1  0  0  0  0
  4  1  1  6  0  0  0
  4 11  1  0  0  0  0
  4  2  1  0  0  0  0
  5  9  2  0  0  0  0
  6 14  1  0  0  0  0
  6  9  1  0  0  0  0
  7 11  1  0  0  0  0
  8  1  2  0  0  0  0
  9  2  1  0  0  0  0
 10  7  1  0  0  0  0
 11  3  1  6  0  0  0
 12  1  1  0  0  0  0
 12  7  1  0  0  0  0
 13 26  1  1  0  0  0
 15 16  2  0  0  0  0
 15 14  1  0  0  0  0
 17 19  1  0  0  0  0
 17 15  1  0  0  0  0
 18 17  2  0  0  0  0
 19 21  1  0  0  0  0
 20 21  1  0  0  0  0
 20 23  1  0  0  0  0
 21 22  2  0  0  0  0
 23 25  1  0  0  0  0
 24 25  1  0  0  0  0
 26 27  1  6  0  0  0
 28 31  1  0  0  0  0
 29 26  1  6  0  0  0
 29 30  1  0  0  0  0
 30 33  1  1  0  0  0
 31 30  1  0  0  0  0
 32 29  1  0  0  0  0
 32 28  1  0  0  0  0
 33 34  1  0  0  0  0
 34 37  1  0  0  0  0
 37 39  1  0  0  0  0
 37 35  2  0  0  0  0
 37 36  2  0  0  0  0
 38 41  1  0  0  0  0
 39 38  1  0  0  0  0
 40 38  2  0  0  0  0
M  END
>  <MODEL>
9

>  <REMARK>
 VINA RESULT:      -6.0      4.695      9.589
  Name = 
  12 active torsions:
  status: ('A' for Active; 'I' for Inactive)
    1  A    between atoms: C_1  and  N_29
    2  A    between atoms: C_1  and  C_38
    3  A    between atoms: N_2  and  N_15
    4  A    between atoms: O_3  and  C_12
    5  A    between atoms: O_3  and  C_31
    6  A    between atoms: C_12  and  C_27
    7  A    between atoms: N_13  and  S_33
    8  A    between atoms: C_14  and  C_24
    9  A    between atoms: C_17  and  C_34
   10  A    between atoms: C_19  and  S_33
   11  A    between atoms: C_19  and  C_34
   12  A    between atoms: C_24  and  C_37
                            x       y       z     vdW  Elec       q    Type
                         _______ _______ _______ _____ _____    ______ ____

>  <TORSDO>
F 12

$$$$
