=
 OpenBabel11042412153D

 67 76  0  0  1  0  0  0  0  0999 V2000
  181.0580  173.2190  136.4100 C   0  0  0  0  0  0  0  0  0  0  0  0
  188.7940  177.2700  137.6950 C   0  0  2  0  0  3  0  0  0  0  0  0
  179.6400  173.8510  139.2450 C   0  0  1  0  0  3  0  0  0  0  0  0
  183.1910  175.8390  137.4140 C   0  0  0  0  0  3  0  0  0  0  0  0
  181.0990  175.8270  139.9010 C   0  0  0  0  0  2  0  0  0  0  0  0
  181.4920  174.0330  137.6030 C   0  0  1  0  0  3  0  0  0  0  0  0
  187.4370  174.0040  136.6310 C   0  0  0  0  0  2  0  0  0  0  0  0
  183.0910  179.7640  139.3280 C   0  0  1  0  0  3  0  0  0  0  0  0
  183.3420  172.2080  136.2280 C   0  0  0  0  0  2  0  0  0  0  0  0
  178.9340  172.8650  140.1570 C   0  0  0  0  0  2  0  0  0  0  0  0
  186.7350  178.8330  137.8300 C   0  0  1  0  0  3  0  0  0  0  0  0
  180.0430  177.3010  141.4320 C   0  0  0  0  0  2  0  0  0  0  0  0
  180.8090  174.3380  140.0560 C   0  0  2  0  0  0  0  0  0  0  0  0
  190.7760  175.7880  137.2830 C   0  0  1  0  0  3  0  0  0  0  0  0
  185.2790  178.7780  135.9320 O   0  0  0  0  0  1  0  0  0  0  0  0
  181.7200  179.1410  139.0710 C   0  0  0  0  0  2  0  0  0  0  0  0
  181.9870  172.3760  135.7270 N   0  0  0  0  0  2  0  0  0  0  0  0
  190.1740  177.1600  137.0290 C   0  0  0  0  0  2  0  0  0  0  0  0
  184.1970  178.7030  139.3070 C   0  0  2  0  0  3  0  0  0  0  0  0
  179.9050  176.6310  140.1410 N   0  0  0  0  0  2  0  0  0  0  0  0
  180.7980  179.4180  140.2470 C   0  0  0  0  0  2  0  0  0  0  0  0
  185.5790  178.1260  137.1280 C   0  0  2  0  0  3  0  0  0  0  0  0
  184.0570  176.5040  138.1780 C   0  0  0  0  0  3  0  0  0  0  0  0
  183.8550  173.5280  136.6920 C   0  0  0  0  0  0  0  0  0  0  0  0
  186.7290  178.5950  139.3300 C   0  0  0  0  0  2  0  0  0  0  0  0
  187.9760  176.1020  137.6670 O   0  0  0  0  0  0  0  0  0  0  0  0
  179.3830  173.0870  141.5250 N   0  0  0  0  0  2  0  0  0  0  0  0
  181.0460  173.3630  138.9050 C   0  0  1  0  0  3  0  0  0  0  0  0
  186.2020  174.3350  135.8730 C   0  0  0  0  0  3  0  0  0  0  0  0
  185.4940  179.2660  139.8950 C   0  0  0  0  0  2  0  0  0  0  0  0
  184.2960  177.9570  137.9560 C   0  0  1  0  0  3  0  0  0  0  0  0
  181.0820  178.4280  141.3810 C   0  0  1  0  0  3  0  0  0  0  0  0
  179.8610  173.2670  136.0190 O   0  0  0  0  0  0  0  0  0  0  0  0
  188.3830  175.1940  136.6620 C   0  0  1  0  0  3  0  0  0  0  0  0
  180.6800  173.7430  141.4370 C   0  0  0  0  0  2  0  0  0  0  0  0
  189.7920  174.6640  136.9370 C   0  0  0  0  0  2  0  0  0  0  0  0
  183.0010  174.3680  137.6280 C   0  0  1  0  0  3  0  0  0  0  0  0
  185.0390  173.9240  136.2990 C   0  0  0  0  0  0  0  0  0  0  0  0
  188.0700  178.5040  137.1590 C   0  0  0  0  0  2  0  0  0  0  0  0
  193.3370  176.6330  138.8850 O   0  0  0  0  0  0  0  0  0  0  0  0
  193.0880  174.8860  137.3440 N   0  0  0  0  0  0  0  0  0  0  0  0
  191.9440  175.0430  135.1420 C   0  0  0  0  0  2  0  0  0  0  0  0
  193.7080  175.4900  138.4940 C   0  0  0  0  0  0  0  0  0  0  0  0
  193.9810  173.5830  135.4410 C   0  0  0  0  0  2  0  0  0  0  0  0
  193.3140  174.6730  134.5950 C   0  0  0  0  0  2  0  0  0  0  0  0
  192.1090  175.6400  136.5450 C   0  0  1  0  0  3  0  0  0  0  0  0
  193.5030  173.5540  136.8990 C   0  0  0  0  0  2  0  0  0  0  0  0
  195.9790  175.6090  139.4970 C   0  0  1  0  0  3  0  0  0  0  0  0
  195.9390  174.6930  138.4300 O   0  0  0  0  0  0  0  0  0  0  0  0
  194.7860  174.7600  139.2390 C   0  0  2  0  0  3  0  0  0  0  0  0
  197.5400  176.1280  141.3350 C   0  0  0  0  0  2  0  0  0  0  0  0
  198.2710  175.2500  140.3420 C   0  0  0  0  0  2  0  0  0  0  0  0
  196.8010  175.0170  140.6200 C   0  0  0  0  0  3  0  0  0  0  0  0
  181.2110  179.1070  142.7510 C   0  0  1  0  0  3  0  0  0  0  0  0
  179.8380  179.2520  143.3850 C   0  0  0  0  0  1  0  0  0  0  0  0
  182.1490  178.3800  143.7140 C   0  0  0  0  0  2  0  0  0  0  0  0
  183.3630  179.2290  144.0470 C   0  0  0  0  0  2  0  0  0  0  0  0
  185.1960  178.4450  145.5010 C   0  0  0  0  0  1  0  0  0  0  0  0
  183.7780  178.9770  145.4790 C   0  0  0  0  0  2  0  0  0  0  0  0
  183.3720  180.9090  138.3550 C   0  0  0  0  0  2  0  0  0  0  0  0
  182.5090  182.1090  138.6810 C   0  0  0  0  0  2  0  0  0  0  0  0
  182.8850  183.1930  137.8860 O   0  0  0  0  0  0  0  0  0  0  0  0
  181.6830  183.8180  137.5460 C   0  0  0  0  0  2  0  0  0  0  0  0
  180.6560  182.7860  137.1070 C   0  0  0  0  0  2  0  0  0  0  0  0
  180.6800  182.6590  135.7170 O   0  0  0  0  0  0  0  0  0  0  0  0
  180.3760  180.3050  135.8150 C   0  0  0  0  0  1  0  0  0  0  0  0
  179.7690  181.6430  135.4350 C   0  0  0  0  0  2  0  0  0  0  0  0
  2 18  1  6  0  0  0
  3 13  1  0  0  0  0
  3 10  1  1  0  0  0
  4 37  1  0  0  0  0
  4 23  2  0  0  0  0
  5 20  1  0  0  0  0
  6  1  1  6  0  0  0
  6 37  1  0  0  0  0
  6 28  1  0  0  0  0
  7 34  1  0  0  0  0
  8 60  1  6  0  0  0
  9 24  1  0  0  0  0
 10 27  1  0  0  0  0
 11 39  1  6  0  0  0
 11 25  1  0  0  0  0
 13  5  1  6  0  0  0
 13 35  1  0  0  0  0
 14 36  1  6  0  0  0
 16  8  1  0  0  0  0
 16 21  1  0  0  0  0
 17  9  1  0  0  0  0
 17  1  1  0  0  0  0
 18 14  1  0  0  0  0
 19  8  1  0  0  0  0
 19 30  1  6  0  0  0
 20 12  1  0  0  0  0
 21 32  1  0  0  0  0
 22 15  1  6  0  0  0
 22 11  1  0  0  0  0
 22 31  1  0  0  0  0
 24 37  1  0  0  0  0
 25 30  1  0  0  0  0
 26  2  1  0  0  0  0
 28  3  1  0  0  0  0
 28 13  1  0  0  0  0
 29 38  2  0  0  0  0
 29  7  1  0  0  0  0
 31 23  1  0  0  0  0
 31 19  1  0  0  0  0
 32 12  1  0  0  0  0
 32 54  1  0  0  0  0
 33  1  2  0  0  0  0
 34 36  1  0  0  0  0
 34 26  1  0  0  0  0
 35 27  1  0  0  0  0
 38 24  2  0  0  0  0
 39  2  1  0  0  0  0
 41 43  1  0  0  0  0
 42 46  1  0  0  0  0
 43 40  2  0  0  0  0
 43 50  1  0  0  0  0
 44 47  1  0  0  0  0
 45 42  1  0  0  0  0
 45 44  1  0  0  0  0
 46 14  1  0  0  0  0
 46 41  1  0  0  0  0
 47 41  1  0  0  0  0
 48 53  1  0  0  0  0
 49 50  1  0  0  0  0
 49 48  1  0  0  0  0
 50 48  1  0  0  0  0
 52 53  1  0  0  0  0
 52 51  1  0  0  0  0
 53 51  1  0  0  0  0
 54 55  1  0  0  0  0
 54 56  1  0  0  0  0
 56 57  1  0  0  0  0
 57 59  1  0  0  0  0
 59 58  1  0  0  0  0
 60 61  1  0  0  0  0
 62 61  1  0  0  0  0
 63 62  1  0  0  0  0
 64 63  1  0  0  0  0
 65 64  1  0  0  0  0
 67 65  1  0  0  0  0
 67 66  1  0  0  0  0
M  END
>  <MODEL>
1

>  <REMARK>
 VINA RESULT:      -1.9      0.000      0.000
  Name = 
  14 active torsions:
  status: ('A' for Active; 'I' for Inactive)
    1  A    between atoms: C_1  and  C_49
    2  A    between atoms: C_1  and  C_54
    3  A    between atoms: C_4  and  O_19
    4  A    between atoms: C_4  and  C_51
    5  A    between atoms: C_13  and  C_28
    6  A    between atoms: O_18  and  C_38
    7  A    between atoms: O_18  and  C_51
    8  A    between atoms: O_19  and  C_20
    9  A    between atoms: C_20  and  C_28
   10  A    between atoms: C_23  and  C_46
   11  A    between atoms: C_25  and  C_64
   12  A    between atoms: C_37  and  C_59
   13  A    between atoms: C_49  and  C_53
   14  A    between atoms: C_53  and  C_65
                            x       y       z     vdW  Elec       q    Type
                         _______ _______ _______ _____ _____    ______ ____

>  <TORSDO>
F 14

$$$$
=
 OpenBabel11042412153D

 67 76  0  0  1  0  0  0  0  0999 V2000
  190.1120  176.4880  136.6350 C   0  0  0  0  0  0  0  0  0  0  0  0
  184.5250  178.1370  143.2670 C   0  0  2  0  0  3  0  0  0  0  0  0
  188.4400  174.2030  135.0760 C   0  0  1  0  0  3  0  0  0  0  0  0
  186.9800  177.1180  138.1230 C   0  0  0  0  0  3  0  0  0  0  0  0
  186.1570  174.7510  136.0540 C   0  0  0  0  0  2  0  0  0  0  0  0
  188.7420  175.8990  136.8630 C   0  0  1  0  0  3  0  0  0  0  0  0
  188.0790  177.3190  142.6790 C   0  0  0  0  0  2  0  0  0  0  0  0
  182.7340  177.3790  137.1320 C   0  0  1  0  0  3  0  0  0  0  0  0
  190.6040  176.3780  139.0880 C   0  0  0  0  0  2  0  0  0  0  0  0
  188.9540  172.8590  134.5940 C   0  0  0  0  0  2  0  0  0  0  0  0
  183.5480  178.5830  140.9110 C   0  0  1  0  0  3  0  0  0  0  0  0
  184.3580  174.0450  134.6780 C   0  0  0  0  0  2  0  0  0  0  0  0
  187.3920  173.8570  136.0980 C   0  0  2  0  0  0  0  0  0  0  0  0
  185.5890  177.9640  145.5320 C   0  0  1  0  0  3  0  0  0  0  0  0
  184.8320  180.0530  139.5290 O   0  0  0  0  0  1  0  0  0  0  0  0
  183.6580  177.1590  135.9370 C   0  0  0  0  0  2  0  0  0  0  0  0
  190.9810  176.7580  137.7370 N   0  0  0  0  0  2  0  0  0  0  0  0
  184.6790  178.7980  144.6450 C   0  0  0  0  0  2  0  0  0  0  0  0
  183.4200  176.9870  138.4460 C   0  0  2  0  0  3  0  0  0  0  0  0
  185.5960  174.8190  134.7080 N   0  0  0  0  0  2  0  0  0  0  0  0
  183.0180  176.1850  134.9620 C   0  0  0  0  0  2  0  0  0  0  0  0
  184.7240  178.7270  139.9500 C   0  0  2  0  0  3  0  0  0  0  0  0
  185.8650  176.8700  138.8100 C   0  0  0  0  0  3  0  0  0  0  0  0
  189.1570  176.6750  139.2900 C   0  0  0  0  0  0  0  0  0  0  0  0
  182.9980  177.1660  140.9390 C   0  0  0  0  0  2  0  0  0  0  0  0
  185.6850  177.5070  142.7280 O   0  0  0  0  0  0  0  0  0  0  0  0
  187.9930  171.8300  134.9640 N   0  0  0  0  0  2  0  0  0  0  0  0
  188.7430  174.3990  136.5600 C   0  0  1  0  0  3  0  0  0  0  0  0
  188.4230  178.0140  141.4110 C   0  0  0  0  0  3  0  0  0  0  0  0
  182.3940  176.8840  139.5790 C   0  0  0  0  0  2  0  0  0  0  0  0
  184.7050  177.7990  138.7250 C   0  0  1  0  0  3  0  0  0  0  0  0
  183.2280  174.7460  135.4420 C   0  0  1  0  0  3  0  0  0  0  0  0
  190.5040  176.7300  135.4630 O   0  0  0  0  0  0  0  0  0  0  0  0
  186.8730  177.9710  143.3380 C   0  0  1  0  0  3  0  0  0  0  0  0
  187.2270  172.3570  136.0850 C   0  0  0  0  0  2  0  0  0  0  0  0
  186.9030  177.6130  144.8260 C   0  0  0  0  0  2  0  0  0  0  0  0
  188.1500  176.1920  138.2600 C   0  0  1  0  0  3  0  0  0  0  0  0
  188.7860  177.3280  140.3620 C   0  0  0  0  0  0  0  0  0  0  0  0
  183.8970  179.1350  142.2940 C   0  0  0  0  0  2  0  0  0  0  0  0
  186.9270  176.2290  147.7770 O   0  0  0  0  0  0  0  0  0  0  0  0
  187.2100  178.5110  147.3310 N   0  0  0  0  0  0  0  0  0  0  0  0
  185.3890  180.1350  146.8540 C   0  0  0  0  0  2  0  0  0  0  0  0
  187.6780  177.2440  147.8280 C   0  0  0  0  0  0  0  0  0  0  0  0
  187.4350  180.8300  148.1600 C   0  0  0  0  0  2  0  0  0  0  0  0
  185.9030  180.8210  148.1110 C   0  0  0  0  0  2  0  0  0  0  0  0
  185.8190  178.6640  146.8740 C   0  0  1  0  0  3  0  0  0  0  0  0
  188.0850  179.6850  147.3720 C   0  0  0  0  0  2  0  0  0  0  0  0
  190.0250  176.5350  147.4280 C   0  0  1  0  0  3  0  0  0  0  0  0
  189.4220  175.7580  148.4340 O   0  0  0  0  0  0  0  0  0  0  0  0
  189.0610  177.1210  148.3950 C   0  0  2  0  0  3  0  0  0  0  0  0
  192.4030  176.3470  146.7980 C   0  0  0  0  0  2  0  0  0  0  0  0
  192.2050  175.5780  148.0870 C   0  0  0  0  0  2  0  0  0  0  0  0
  191.4410  176.8630  147.8470 C   0  0  0  0  0  3  0  0  0  0  0  0
  181.9440  173.9070  135.4000 C   0  0  1  0  0  3  0  0  0  0  0  0
  182.1890  172.5580  136.0550 C   0  0  0  0  0  1  0  0  0  0  0  0
  180.7420  174.5860  136.0560 C   0  0  0  0  0  2  0  0  0  0  0  0
  180.8270  174.5120  137.5700 C   0  0  0  0  0  2  0  0  0  0  0  0
  179.4890  174.2440  139.6260 C   0  0  0  0  0  1  0  0  0  0  0  0
  179.5070  174.0290  138.1270 C   0  0  0  0  0  2  0  0  0  0  0  0
  182.2010  178.8120  137.1670 C   0  0  0  0  0  2  0  0  0  0  0  0
  180.7970  178.8710  136.6020 C   0  0  0  0  0  2  0  0  0  0  0  0
  179.8810  179.0900  137.6320 O   0  0  0  0  0  0  0  0  0  0  0  0
  180.3050  180.2750  138.2380 C   0  0  0  0  0  2  0  0  0  0  0  0
  179.8190  181.4770  137.4440 C   0  0  0  0  0  2  0  0  0  0  0  0
  180.7580  182.5080  137.5270 O   0  0  0  0  0  0  0  0  0  0  0  0
  180.2960  184.0980  135.8240 C   0  0  0  0  0  1  0  0  0  0  0  0
  180.0380  183.6690  137.2560 C   0  0  0  0  0  2  0  0  0  0  0  0
  1 17  1  0  0  0  0
  2 39  1  6  0  0  0
  2 18  1  0  0  0  0
  3 10  1  1  0  0  0
  3 13  1  0  0  0  0
  3 28  1  0  0  0  0
  4 37  1  0  0  0  0
  4 23  2  0  0  0  0
  6  1  1  1  0  0  0
  6 37  1  0  0  0  0
  7 34  1  0  0  0  0
  8 60  1  1  0  0  0
  8 19  1  0  0  0  0
  9 24  1  0  0  0  0
 10 27  1  0  0  0  0
 11 25  1  1  0  0  0
 11 39  1  0  0  0  0
 12 20  1  0  0  0  0
 12 32  1  0  0  0  0
 13  5  1  1  0  0  0
 13 28  1  0  0  0  0
 14 18  1  6  0  0  0
 14 46  1  0  0  0  0
 16  8  1  0  0  0  0
 17  9  1  0  0  0  0
 19 31  1  0  0  0  0
 19 30  1  1  0  0  0
 20  5  1  0  0  0  0
 21 32  1  0  0  0  0
 21 16  1  0  0  0  0
 22 15  1  6  0  0  0
 22 11  1  0  0  0  0
 24 38  2  0  0  0  0
 26  2  1  0  0  0  0
 26 34  1  0  0  0  0
 27 35  1  0  0  0  0
 28  6  1  0  0  0  0
 29  7  1  0  0  0  0
 30 25  1  0  0  0  0
 31 23  1  0  0  0  0
 31 22  1  0  0  0  0
 33  1  2  0  0  0  0
 34 36  1  0  0  0  0
 35 13  1  0  0  0  0
 36 14  1  0  0  0  0
 37 24  1  0  0  0  0
 38 29  2  0  0  0  0
 40 43  2  0  0  0  0
 41 47  1  0  0  0  0
 41 43  1  0  0  0  0
 42 46  1  0  0  0  0
 42 45  1  0  0  0  0
 43 50  1  0  0  0  0
 45 44  1  0  0  0  0
 46 41  1  0  0  0  0
 47 44  1  0  0  0  0
 48 53  1  0  0  0  0
 48 50  1  0  0  0  0
 48 49  1  0  0  0  0
 50 49  1  0  0  0  0
 51 53  1  0  0  0  0
 51 52  1  0  0  0  0
 53 52  1  0  0  0  0
 54 32  1  0  0  0  0
 54 55  1  0  0  0  0
 54 56  1  0  0  0  0
 56 57  1  0  0  0  0
 57 59  1  0  0  0  0
 59 58  1  0  0  0  0
 61 60  1  0  0  0  0
 61 62  1  0  0  0  0
 62 63  1  0  0  0  0
 64 65  1  0  0  0  0
 64 63  1  0  0  0  0
 66 67  1  0  0  0  0
 67 65  1  0  0  0  0
M  END
>  <MODEL>
2

>  <REMARK>
 VINA RESULT:      -0.3      3.648      8.420
  Name = 
  14 active torsions:
  status: ('A' for Active; 'I' for Inactive)
    1  A    between atoms: C_1  and  C_49
    2  A    between atoms: C_1  and  C_54
    3  A    between atoms: C_4  and  O_19
    4  A    between atoms: C_4  and  C_51
    5  A    between atoms: C_13  and  C_28
    6  A    between atoms: O_18  and  C_38
    7  A    between atoms: O_18  and  C_51
    8  A    between atoms: O_19  and  C_20
    9  A    between atoms: C_20  and  C_28
   10  A    between atoms: C_23  and  C_46
   11  A    between atoms: C_25  and  C_64
   12  A    between atoms: C_37  and  C_59
   13  A    between atoms: C_49  and  C_53
   14  A    between atoms: C_53  and  C_65
                            x       y       z     vdW  Elec       q    Type
                         _______ _______ _______ _____ _____    ______ ____

>  <TORSDO>
F 14

$$$$
=
 OpenBabel11042412153D

 67 76  0  0  1  0  0  0  0  0999 V2000
  190.0070  176.6810  136.6150 C   0  0  0  0  0  0  0  0  0  0  0  0
  184.3890  178.1780  143.2570 C   0  0  2  0  0  3  0  0  0  0  0  0
  188.4050  174.3360  135.0720 C   0  0  1  0  0  3  0  0  0  0  0  0
  186.8600  177.2160  138.1100 C   0  0  0  0  0  3  0  0  0  0  0  0
  186.1090  174.8140  136.0540 C   0  0  0  0  0  2  0  0  0  0  0  0
  188.6580  176.0490  136.8500 C   0  0  1  0  0  3  0  0  0  0  0  0
  187.9660  177.4730  142.6620 C   0  0  0  0  0  2  0  0  0  0  0  0
  182.6050  177.3340  137.1320 C   0  0  1  0  0  3  0  0  0  0  0  0
  190.5090  176.5980  139.0670 C   0  0  0  0  0  2  0  0  0  0  0  0
  188.9610  173.0080  134.5940 C   0  0  0  0  0  2  0  0  0  0  0  0
  183.3910  178.5810  140.9030 C   0  0  1  0  0  3  0  0  0  0  0  0
  184.3290  174.0430  134.6880 C   0  0  0  0  0  2  0  0  0  0  0  0
  187.3720  173.9610  136.0990 C   0  0  2  0  0  0  0  0  0  0  0  0
  185.4650  178.0500  145.5200 C   0  0  1  0  0  3  0  0  0  0  0  0
  184.6230  180.0860  139.5100 O   0  0  0  0  0  1  0  0  0  0  0  0
  183.5320  177.1390  135.9350 C   0  0  0  0  0  2  0  0  0  0  0  0
  190.8690  176.9840  137.7130 N   0  0  0  0  0  2  0  0  0  0  0  0
  184.5260  178.8500  144.6320 C   0  0  0  0  0  2  0  0  0  0  0  0
  183.3070  176.9710  138.4450 C   0  0  2  0  0  3  0  0  0  0  0  0
  185.5410  174.8580  134.7110 N   0  0  0  0  0  2  0  0  0  0  0  0
  182.9210  176.1400  134.9660 C   0  0  0  0  0  2  0  0  0  0  0  0
  184.5580  178.7590  139.9370 C   0  0  2  0  0  3  0  0  0  0  0  0
  185.7560  176.9350  138.8020 C   0  0  0  0  0  3  0  0  0  0  0  0
  189.0540  176.8490  139.2730 C   0  0  0  0  0  0  0  0  0  0  0  0
  182.8870  177.1480  140.9390 C   0  0  0  0  0  2  0  0  0  0  0  0
  185.5680  177.5830  142.7170 O   0  0  0  0  0  0  0  0  0  0  0  0
  188.0350  171.9490  134.9720 N   0  0  0  0  0  2  0  0  0  0  0  0
  188.7060  174.5480  136.5540 C   0  0  1  0  0  3  0  0  0  0  0  0
  188.2840  178.1730  141.3900 C   0  0  0  0  0  3  0  0  0  0  0  0
  182.2890  176.8400  139.5820 C   0  0  0  0  0  2  0  0  0  0  0  0
  184.5660  177.8260  138.7160 C   0  0  1  0  0  3  0  0  0  0  0  0
  183.1800  174.7110  135.4520 C   0  0  1  0  0  3  0  0  0  0  0  0
  190.3870  176.9310  135.4410 O   0  0  0  0  0  0  0  0  0  0  0  0
  186.7410  178.0890  143.3220 C   0  0  1  0  0  3  0  0  0  0  0  0
  187.2560  172.4560  136.0930 C   0  0  0  0  0  2  0  0  0  0  0  0
  186.7880  177.7390  144.8110 C   0  0  0  0  0  2  0  0  0  0  0  0
  188.0600  176.3290  138.2480 C   0  0  1  0  0  3  0  0  0  0  0  0
  188.6660  177.4950  140.3430 C   0  0  0  0  0  0  0  0  0  0  0  0
  183.7260  179.1510  142.2820 C   0  0  0  0  0  2  0  0  0  0  0  0
  186.8270  176.3560  147.7820 O   0  0  0  0  0  0  0  0  0  0  0  0
  187.0680  178.6410  147.3210 N   0  0  0  0  0  0  0  0  0  0  0  0
  185.2180  180.2260  146.8260 C   0  0  0  0  0  2  0  0  0  0  0  0
  187.5580  177.3860  147.8290 C   0  0  0  0  0  0  0  0  0  0  0  0
  187.2450  180.9690  148.1360 C   0  0  0  0  0  2  0  0  0  0  0  0
  185.7140  180.9300  148.0800 C   0  0  0  0  0  2  0  0  0  0  0  0
  185.6760  178.7630  146.8580 C   0  0  1  0  0  3  0  0  0  0  0  0
  187.9200  179.8310  147.3570 C   0  0  0  0  0  2  0  0  0  0  0  0
  189.8620  176.4990  147.5470 C   0  0  1  0  0  3  0  0  0  0  0  0
  189.2350  175.9410  148.6770 O   0  0  0  0  0  0  0  0  0  0  0  0
  188.9410  177.2930  148.4020 C   0  0  2  0  0  3  0  0  0  0  0  0
  192.1310  176.8120  146.6320 C   0  0  0  0  0  2  0  0  0  0  0  0
  192.1730  175.6290  147.5760 C   0  0  0  0  0  2  0  0  0  0  0  0
  191.2980  176.8230  147.8960 C   0  0  0  0  0  3  0  0  0  0  0  0
  181.9230  173.8300  135.4180 C   0  0  1  0  0  3  0  0  0  0  0  0
  180.7880  174.5790  134.7410 C   0  0  0  0  0  1  0  0  0  0  0  0
  182.1330  172.4820  134.7300 C   0  0  0  0  0  2  0  0  0  0  0  0
  182.5240  171.4080  135.7300 C   0  0  0  0  0  2  0  0  0  0  0  0
  180.5290  170.5030  134.5940 C   0  0  0  0  0  1  0  0  0  0  0  0
  181.7150  170.1570  135.4700 C   0  0  0  0  0  2  0  0  0  0  0  0
  182.0260  178.7490  137.1620 C   0  0  0  0  0  2  0  0  0  0  0  0
  180.5310  178.7070  137.4000 C   0  0  0  0  0  2  0  0  0  0  0  0
  179.9460  179.8890  136.9460 O   0  0  0  0  0  0  0  0  0  0  0  0
  180.7990  180.9020  137.3900 C   0  0  0  0  0  2  0  0  0  0  0  0
  180.7750  182.0750  136.4230 C   0  0  0  0  0  2  0  0  0  0  0  0
  179.5310  182.7060  136.4780 O   0  0  0  0  0  0  0  0  0  0  0  0
  180.3710  184.9280  136.4100 C   0  0  0  0  0  1  0  0  0  0  0  0
  179.7400  183.8410  137.2600 C   0  0  0  0  0  2  0  0  0  0  0  0
  1 17  1  0  0  0  0
  2 39  1  6  0  0  0
  2 18  1  0  0  0  0
  3 10  1  1  0  0  0
  3 13  1  0  0  0  0
  3 28  1  0  0  0  0
  4 37  1  0  0  0  0
  4 23  2  0  0  0  0
  6  1  1  1  0  0  0
  6 37  1  0  0  0  0
  7 34  1  0  0  0  0
  8 60  1  1  0  0  0
  8 19  1  0  0  0  0
  9 24  1  0  0  0  0
 10 27  1  0  0  0  0
 11 25  1  1  0  0  0
 11 39  1  0  0  0  0
 12 20  1  0  0  0  0
 12 32  1  0  0  0  0
 13  5  1  1  0  0  0
 13 28  1  0  0  0  0
 14 18  1  6  0  0  0
 14 46  1  0  0  0  0
 16  8  1  0  0  0  0
 17  9  1  0  0  0  0
 19 31  1  0  0  0  0
 19 30  1  1  0  0  0
 20  5  1  0  0  0  0
 21 32  1  0  0  0  0
 21 16  1  0  0  0  0
 22 15  1  6  0  0  0
 22 11  1  0  0  0  0
 24 38  2  0  0  0  0
 26  2  1  0  0  0  0
 26 34  1  0  0  0  0
 27 35  1  0  0  0  0
 28  6  1  0  0  0  0
 29  7  1  0  0  0  0
 30 25  1  0  0  0  0
 31 23  1  0  0  0  0
 31 22  1  0  0  0  0
 33  1  2  0  0  0  0
 34 36  1  0  0  0  0
 35 13  1  0  0  0  0
 36 14  1  0  0  0  0
 37 24  1  0  0  0  0
 38 29  2  0  0  0  0
 40 43  2  0  0  0  0
 41 47  1  0  0  0  0
 41 43  1  0  0  0  0
 42 46  1  0  0  0  0
 42 45  1  0  0  0  0
 43 50  1  0  0  0  0
 45 44  1  0  0  0  0
 46 41  1  0  0  0  0
 47 44  1  0  0  0  0
 48 53  1  0  0  0  0
 48 50  1  0  0  0  0
 48 49  1  0  0  0  0
 50 49  1  0  0  0  0
 51 52  1  0  0  0  0
 51 53  1  0  0  0  0
 52 53  1  0  0  0  0
 54 32  1  0  0  0  0
 55 54  1  0  0  0  0
 56 54  1  0  0  0  0
 56 57  1  0  0  0  0
 58 59  1  0  0  0  0
 59 57  1  0  0  0  0
 60 61  1  0  0  0  0
 62 63  1  0  0  0  0
 62 61  1  0  0  0  0
 64 65  1  0  0  0  0
 64 63  1  0  0  0  0
 65 67  1  0  0  0  0
 66 67  1  0  0  0  0
M  END
>  <MODEL>
3

>  <REMARK>
 VINA RESULT:       0.8      3.651      8.709
  Name = 
  14 active torsions:
  status: ('A' for Active; 'I' for Inactive)
    1  A    between atoms: C_1  and  C_49
    2  A    between atoms: C_1  and  C_54
    3  A    between atoms: C_4  and  O_19
    4  A    between atoms: C_4  and  C_51
    5  A    between atoms: C_13  and  C_28
    6  A    between atoms: O_18  and  C_38
    7  A    between atoms: O_18  and  C_51
    8  A    between atoms: O_19  and  C_20
    9  A    between atoms: C_20  and  C_28
   10  A    between atoms: C_23  and  C_46
   11  A    between atoms: C_25  and  C_64
   12  A    between atoms: C_37  and  C_59
   13  A    between atoms: C_49  and  C_53
   14  A    between atoms: C_53  and  C_65
                            x       y       z     vdW  Elec       q    Type
                         _______ _______ _______ _____ _____    ______ ____

>  <TORSDO>
F 14

$$$$
=
 OpenBabel11042412153D

 67 76  0  0  1  0  0  0  0  0999 V2000
  189.9620  176.5020  136.6720 C   0  0  0  0  0  0  0  0  0  0  0  0
  184.5620  178.1600  143.4560 C   0  0  2  0  0  3  0  0  0  0  0  0
  188.2060  174.2800  135.1160 C   0  0  1  0  0  3  0  0  0  0  0  0
  186.8780  177.1740  138.2410 C   0  0  0  0  0  3  0  0  0  0  0  0
  185.9580  174.8600  136.1530 C   0  0  0  0  0  2  0  0  0  0  0  0
  188.5850  175.9380  136.9220 C   0  0  1  0  0  3  0  0  0  0  0  0
  188.0830  177.2750  142.7740 C   0  0  0  0  0  2  0  0  0  0  0  0
  182.6180  177.5430  137.3520 C   0  0  1  0  0  3  0  0  0  0  0  0
  190.5060  176.3400  139.1120 C   0  0  0  0  0  2  0  0  0  0  0  0
  188.6790  172.9330  134.6000 C   0  0  0  0  0  2  0  0  0  0  0  0
  183.5420  178.6660  141.1310 C   0  0  1  0  0  3  0  0  0  0  0  0
  184.1130  174.2150  134.8080 C   0  0  0  0  0  2  0  0  0  0  0  0
  187.1740  173.9390  136.1550 C   0  0  2  0  0  0  0  0  0  0  0  0
  185.6730  177.9260  145.6930 C   0  0  1  0  0  3  0  0  0  0  0  0
  184.8280  180.1310  139.7430 O   0  0  0  0  0  1  0  0  0  0  0  0
  183.5100  177.3230  136.1320 C   0  0  0  0  0  2  0  0  0  0  0  0
  190.8610  176.7350  137.7580 N   0  0  0  0  0  2  0  0  0  0  0  0
  184.7620  178.7940  144.8400 C   0  0  0  0  0  2  0  0  0  0  0  0
  183.3240  177.1140  138.6430 C   0  0  2  0  0  3  0  0  0  0  0  0
  185.3680  174.9630  134.8230 N   0  0  0  0  0  2  0  0  0  0  0  0
  182.8270  176.3790  135.1570 C   0  0  0  0  0  2  0  0  0  0  0  0
  184.6990  178.8000  140.1450 C   0  0  2  0  0  3  0  0  0  0  0  0
  185.7740  176.9390  138.9500 C   0  0  0  0  0  3  0  0  0  0  0  0
  189.0710  176.6650  139.3520 C   0  0  0  0  0  0  0  0  0  0  0  0
  182.9630  177.2610  141.1480 C   0  0  0  0  0  2  0  0  0  0  0  0
  185.6960  177.5140  142.8800 O   0  0  0  0  0  0  0  0  0  0  0  0
  187.7040  171.9180  134.9760 N   0  0  0  0  0  2  0  0  0  0  0  0
  188.5460  174.4440  136.5950 C   0  0  1  0  0  3  0  0  0  0  0  0
  188.4150  177.9840  141.5100 C   0  0  0  0  0  3  0  0  0  0  0  0
  182.3220  177.0150  139.7970 C   0  0  0  0  0  2  0  0  0  0  0  0
  184.6330  177.8940  138.9060 C   0  0  1  0  0  3  0  0  0  0  0  0
  183.0170  174.9280  135.6090 C   0  0  1  0  0  3  0  0  0  0  0  0
  190.3330  176.7550  135.4960 O   0  0  0  0  0  0  0  0  0  0  0  0
  186.9070  177.9420  143.4710 C   0  0  1  0  0  3  0  0  0  0  0  0
  186.9760  172.4430  136.1220 C   0  0  0  0  0  2  0  0  0  0  0  0
  186.9630  177.5590  144.9520 C   0  0  0  0  0  2  0  0  0  0  0  0
  188.0300  176.2210  138.3370 C   0  0  1  0  0  3  0  0  0  0  0  0
  188.7390  177.3080  140.4420 C   0  0  0  0  0  0  0  0  0  0  0  0
  183.9350  179.1880  142.5140 C   0  0  0  0  0  2  0  0  0  0  0  0
  187.1610  176.1730  147.8270 O   0  0  0  0  0  0  0  0  0  0  0  0
  187.3630  178.4730  147.4270 N   0  0  0  0  0  0  0  0  0  0  0  0
  185.4790  180.0580  147.0790 C   0  0  0  0  0  2  0  0  0  0  0  0
  187.8870  177.2070  147.8690 C   0  0  0  0  0  0  0  0  0  0  0  0
  187.5660  180.7760  148.3050 C   0  0  0  0  0  2  0  0  0  0  0  0
  186.0350  180.7260  148.3280 C   0  0  0  0  0  2  0  0  0  0  0  0
  185.9480  178.5980  147.0410 C   0  0  1  0  0  3  0  0  0  0  0  0
  188.2070  179.6690  147.4580 C   0  0  0  0  0  2  0  0  0  0  0  0
  190.2050  176.4530  147.3880 C   0  0  1  0  0  3  0  0  0  0  0  0
  189.6530  175.7470  148.4720 O   0  0  0  0  0  0  0  0  0  0  0  0
  189.2980  177.1080  148.3670 C   0  0  2  0  0  3  0  0  0  0  0  0
  192.5580  175.9890  146.8100 C   0  0  0  0  0  2  0  0  0  0  0  0
  192.3430  175.5660  148.2480 C   0  0  0  0  0  2  0  0  0  0  0  0
  191.6430  176.7950  147.7080 C   0  0  0  0  0  3  0  0  0  0  0  0
  181.7140  174.1180  135.5830 C   0  0  1  0  0  3  0  0  0  0  0  0
  180.5440  175.0340  135.2690 C   0  0  0  0  0  1  0  0  0  0  0  0
  181.7330  172.9500  134.5960 C   0  0  0  0  0  2  0  0  0  0  0  0
  181.0850  171.7140  135.1940 C   0  0  0  0  0  2  0  0  0  0  0  0
  182.6760  169.8570  135.5200 C   0  0  0  0  0  1  0  0  0  0  0  0
  182.0380  171.0660  136.1720 C   0  0  0  0  0  2  0  0  0  0  0  0
  182.1170  178.9860  137.4220 C   0  0  0  0  0  2  0  0  0  0  0  0
  180.6120  179.0190  137.5830 C   0  0  0  0  0  2  0  0  0  0  0  0
  180.1930  177.9280  138.3460 O   0  0  0  0  0  0  0  0  0  0  0  0
  179.3870  177.1810  137.4840 C   0  0  0  0  0  2  0  0  0  0  0  0
  179.0960  175.8150  138.0850 C   0  0  0  0  0  2  0  0  0  0  0  0
  180.2910  175.2030  138.4660 O   0  0  0  0  0  0  0  0  0  0  0  0
  179.1120  174.1230  140.2240 C   0  0  0  0  0  1  0  0  0  0  0  0
  179.9140  173.9510  138.9480 C   0  0  0  0  0  2  0  0  0  0  0  0
  1 17  1  0  0  0  0
  2 39  1  6  0  0  0
  2 18  1  0  0  0  0
  3 10  1  1  0  0  0
  3 13  1  0  0  0  0
  3 28  1  0  0  0  0
  4 37  1  0  0  0  0
  4 23  2  0  0  0  0
  5 13  1  0  0  0  0
  6  1  1  1  0  0  0
  6 37  1  0  0  0  0
  7 34  1  0  0  0  0
  8 60  1  1  0  0  0
  8 19  1  0  0  0  0
  9 24  1  0  0  0  0
 10 27  1  0  0  0  0
 11 25  1  1  0  0  0
 11 39  1  0  0  0  0
 12 20  1  0  0  0  0
 12 32  1  0  0  0  0
 13 35  1  1  0  0  0
 13 28  1  0  0  0  0
 14 18  1  6  0  0  0
 14 46  1  0  0  0  0
 16  8  1  0  0  0  0
 17  9  1  0  0  0  0
 19 31  1  0  0  0  0
 19 30  1  1  0  0  0
 20  5  1  0  0  0  0
 21 32  1  0  0  0  0
 21 16  1  0  0  0  0
 22 15  1  6  0  0  0
 22 11  1  0  0  0  0
 24 38  2  0  0  0  0
 26  2  1  0  0  0  0
 26 34  1  0  0  0  0
 27 35  1  0  0  0  0
 28  6  1  0  0  0  0
 29  7  1  0  0  0  0
 30 25  1  0  0  0  0
 31 23  1  0  0  0  0
 31 22  1  0  0  0  0
 33  1  2  0  0  0  0
 34 36  1  0  0  0  0
 36 14  1  0  0  0  0
 37 24  1  0  0  0  0
 38 29  2  0  0  0  0
 40 43  2  0  0  0  0
 41 47  1  0  0  0  0
 41 43  1  0  0  0  0
 42 45  1  0  0  0  0
 43 50  1  0  0  0  0
 44 45  1  0  0  0  0
 46 42  1  0  0  0  0
 46 41  1  0  0  0  0
 47 44  1  0  0  0  0
 48 53  1  0  0  0  0
 48 50  1  0  0  0  0
 48 49  1  0  0  0  0
 50 49  1  0  0  0  0
 51 53  1  0  0  0  0
 51 52  1  0  0  0  0
 53 52  1  0  0  0  0
 54 32  1  0  0  0  0
 55 54  1  0  0  0  0
 56 57  1  0  0  0  0
 56 54  1  0  0  0  0
 57 59  1  0  0  0  0
 58 59  1  0  0  0  0
 60 61  1  0  0  0  0
 61 62  1  0  0  0  0
 63 64  1  0  0  0  0
 63 62  1  0  0  0  0
 64 65  1  0  0  0  0
 65 67  1  0  0  0  0
 67 66  1  0  0  0  0
M  END
>  <MODEL>
4

>  <REMARK>
 VINA RESULT:       1.1      3.753      8.798
  Name = 
  14 active torsions:
  status: ('A' for Active; 'I' for Inactive)
    1  A    between atoms: C_1  and  C_49
    2  A    between atoms: C_1  and  C_54
    3  A    between atoms: C_4  and  O_19
    4  A    between atoms: C_4  and  C_51
    5  A    between atoms: C_13  and  C_28
    6  A    between atoms: O_18  and  C_38
    7  A    between atoms: O_18  and  C_51
    8  A    between atoms: O_19  and  C_20
    9  A    between atoms: C_20  and  C_28
   10  A    between atoms: C_23  and  C_46
   11  A    between atoms: C_25  and  C_64
   12  A    between atoms: C_37  and  C_59
   13  A    between atoms: C_49  and  C_53
   14  A    between atoms: C_53  and  C_65
                            x       y       z     vdW  Elec       q    Type
                         _______ _______ _______ _____ _____    ______ ____

>  <TORSDO>
F 14

$$$$
