=
 OpenBabel11032419493D

 27 29  0  0  1  0  0  0  0  0999 V2000
  188.3550  175.5490  143.2210 O   0  0  0  0  0  0  0  0  0  0  0  0
  188.2730  176.8080  143.2310 C   0  0  0  0  0  0  0  0  0  0  0  0
  189.3610  177.5940  142.7350 N   0  0  0  0  0  2  0  0  0  0  0  0
  186.0100  177.8100  142.8760 C   0  0  0  0  0  3  0  0  0  0  0  0
  187.2010  177.9110  147.2760 C   0  0  0  0  0  3  0  0  0  0  0  0
  184.8360  178.4280  143.3470 C   0  0  0  0  0  0  0  0  0  0  0  0
  185.7300  178.3540  145.5800 C   0  0  0  0  0  0  0  0  0  0  0  0
  185.8410  178.5220  147.0520 C   0  0  2  0  0  3  0  0  0  0  0  0
  186.8700  177.7510  145.1190 C   0  0  0  0  0  0  0  0  0  0  0  0
  183.5380  179.3110  145.2120 O   0  0  0  0  0  1  0  0  0  0  0  0
  187.7640  177.4860  146.1850 N   0  0  0  0  0  0  0  0  0  0  0  0
  187.0520  177.4580  143.7580 C   0  0  0  0  0  0  0  0  0  0  0  0
  184.6880  178.7050  144.7200 C   0  0  0  0  0  0  0  0  0  0  0  0
  183.7620  178.7800  142.3790 C   0  0  0  0  0  1  0  0  0  0  0  0
  185.8840  179.8800  147.3690 O   0  0  0  0  0  1  0  0  0  0  0  0
  190.5650  177.0050  142.1660 C   0  0  0  0  0  2  0  0  0  0  0  0
  190.5880  176.4360  139.7680 C   0  0  2  0  0  3  0  0  0  0  0  0
  189.5120  177.4780  139.9790 C   0  0  0  0  0  2  0  0  0  0  0  0
  190.8010  177.5510  140.7720 C   0  0  1  0  0  3  0  0  0  0  0  0
  191.6880  174.5030  138.0040 O   0  0  0  0  0  0  0  0  0  0  0  0
  191.3220  176.7410  138.5520 N   0  0  0  0  0  2  0  0  0  0  0  0
  191.8520  175.7170  137.7070 C   0  0  0  0  0  0  0  0  0  0  0  0
  194.7180  176.8490  135.4350 C   0  0  0  0  0  3  0  0  0  0  0  0
  193.9570  176.4870  136.5840 N   0  0  0  0  0  2  0  0  0  0  0  0
  192.5900  176.0800  136.4930 C   0  0  0  0  0  0  0  0  0  0  0  0
  195.9180  177.2010  135.5610 O   0  0  0  0  0  0  0  0  0  0  0  0
  192.0150  176.0310  135.3710 O   0  0  0  0  0  0  0  0  0  0  0  0
  1  2  2  0  0  0  0
  2 12  1  0  0  0  0
  3  2  1  0  0  0  0
  4  6  2  0  0  0  0
  4 12  1  0  0  0  0
  6 13  1  0  0  0  0
  7  8  1  0  0  0  0
  8  5  1  0  0  0  0
  8 15  1  6  0  0  0
  9  7  1  0  0  0  0
  9 11  1  0  0  0  0
 11  5  2  0  0  0  0
 12  9  2  0  0  0  0
 13 10  1  0  0  0  0
 13  7  2  0  0  0  0
 14  6  1  0  0  0  0
 16  3  1  0  0  0  0
 17 21  1  6  0  0  0
 17 18  1  0  0  0  0
 17 19  1  0  0  0  0
 18 19  1  0  0  0  0
 19 16  1  1  0  0  0
 22 20  2  0  0  0  0
 22 21  1  0  0  0  0
 23 26  2  0  0  0  0
 23 24  1  0  0  0  0
 25 24  1  0  0  0  0
 25 22  1  0  0  0  0
 27 25  2  0  0  0  0
M  END
>  <MODEL>
1

>  <REMARK>
 VINA RESULT:      -8.7      0.000      0.000
  Name = 
  5 active torsions:
  status: ('A' for Active; 'I' for Inactive)
    1  A    between atoms: C_1  and  N_11
    2  A    between atoms: C_10  and  C_21
    3  A    between atoms: C_15  and  C_16
    4  A    between atoms: C_18  and  N_22
    5  A    between atoms: C_18  and  C_26
                            x       y       z     vdW  Elec       q    Type
                         _______ _______ _______ _____ _____    ______ ____

>  <TORSDO>
F 5

$$$$
=
 OpenBabel11032419493D

 27 29  0  0  1  0  0  0  0  0999 V2000
  189.2870  175.6400  143.1390 O   0  0  0  0  0  0  0  0  0  0  0  0
  188.9980  176.8640  143.2330 C   0  0  0  0  0  0  0  0  0  0  0  0
  189.6580  177.8150  142.3920 N   0  0  0  0  0  2  0  0  0  0  0  0
  186.7240  177.7540  143.7670 C   0  0  0  0  0  3  0  0  0  0  0  0
  189.1570  177.0350  147.5550 C   0  0  0  0  0  3  0  0  0  0  0  0
  185.7360  178.1770  144.6760 C   0  0  0  0  0  0  0  0  0  0  0  0
  187.2490  177.7110  146.4880 C   0  0  0  0  0  0  0  0  0  0  0  0
  187.7870  177.5810  147.8670 C   0  0  2  0  0  3  0  0  0  0  0  0
  188.2070  177.2980  145.6020 C   0  0  0  0  0  0  0  0  0  0  0  0
  185.0380  178.5640  146.9800 O   0  0  0  0  0  1  0  0  0  0  0  0
  189.3780  176.8840  146.2840 N   0  0  0  0  0  0  0  0  0  0  0  0
  187.9830  177.3030  144.2150 C   0  0  0  0  0  0  0  0  0  0  0  0
  185.9970  178.1550  146.0600 C   0  0  0  0  0  0  0  0  0  0  0  0
  184.4210  178.6420  144.1560 C   0  0  0  0  0  1  0  0  0  0  0  0
  187.9110  178.8450  148.4450 O   0  0  0  0  0  1  0  0  0  0  0  0
  190.6330  177.4320  141.3800 C   0  0  0  0  0  2  0  0  0  0  0  0
  189.8590  177.8340  139.0740 C   0  0  2  0  0  3  0  0  0  0  0  0
  190.8910  176.7300  139.0230 C   0  0  0  0  0  2  0  0  0  0  0  0
  189.9280  176.8110  140.1900 C   0  0  1  0  0  3  0  0  0  0  0  0
  188.6480  179.6320  137.2410 O   0  0  0  0  0  0  0  0  0  0  0  0
  188.7540  177.5030  138.1910 N   0  0  0  0  0  2  0  0  0  0  0  0
  188.1900  178.4590  137.2900 C   0  0  0  0  0  0  0  0  0  0  0  0
  184.7900  177.0850  136.1890 C   0  0  0  0  0  3  0  0  0  0  0  0
  185.9030  177.4770  136.9880 N   0  0  0  0  0  2  0  0  0  0  0  0
  187.0710  178.0740  136.4220 C   0  0  0  0  0  0  0  0  0  0  0  0
  183.7810  176.5630  136.7280 O   0  0  0  0  0  0  0  0  0  0  0  0
  187.1450  178.2720  135.1790 O   0  0  0  0  0  0  0  0  0  0  0  0
  1  2  2  0  0  0  0
  2 12  1  0  0  0  0
  3  2  1  0  0  0  0
  4 12  2  0  0  0  0
  4  6  1  0  0  0  0
  5  8  1  0  0  0  0
  6 13  2  0  0  0  0
  7  8  1  0  0  0  0
  8 15  1  6  0  0  0
  9 11  1  0  0  0  0
  9  7  2  0  0  0  0
 11  5  2  0  0  0  0
 12  9  1  0  0  0  0
 13  7  1  0  0  0  0
 13 10  1  0  0  0  0
 14  6  1  0  0  0  0
 16  3  1  0  0  0  0
 17 21  1  6  0  0  0
 17 19  1  0  0  0  0
 18 17  1  0  0  0  0
 18 19  1  0  0  0  0
 19 16  1  1  0  0  0
 20 22  2  0  0  0  0
 22 21  1  0  0  0  0
 23 26  2  0  0  0  0
 23 24  1  0  0  0  0
 25 24  1  0  0  0  0
 25 22  1  0  0  0  0
 27 25  2  0  0  0  0
M  END
>  <MODEL>
2

>  <REMARK>
 VINA RESULT:      -8.6      3.066      4.286
  Name = 
  5 active torsions:
  status: ('A' for Active; 'I' for Inactive)
    1  A    between atoms: C_1  and  N_11
    2  A    between atoms: C_10  and  C_21
    3  A    between atoms: C_15  and  C_16
    4  A    between atoms: C_18  and  N_22
    5  A    between atoms: C_18  and  C_26
                            x       y       z     vdW  Elec       q    Type
                         _______ _______ _______ _____ _____    ______ ____

>  <TORSDO>
F 5

$$$$
=
 OpenBabel11032419493D

 27 29  0  0  1  0  0  0  0  0999 V2000
  188.5810  175.7170  142.9080 O   0  0  0  0  0  0  0  0  0  0  0  0
  188.7310  176.9120  143.2820 C   0  0  0  0  0  0  0  0  0  0  0  0
  189.8100  177.6910  142.7560 N   0  0  0  0  0  2  0  0  0  0  0  0
  188.1060  177.4700  145.6380 C   0  0  0  0  0  3  0  0  0  0  0  0
  184.8990  178.8390  142.7010 C   0  0  0  0  0  3  0  0  0  0  0  0
  187.2330  178.0180  146.5960 C   0  0  0  0  0  0  0  0  0  0  0  0
  185.7170  178.6170  144.8270 C   0  0  0  0  0  0  0  0  0  0  0  0
  184.5260  179.1630  144.1250 C   0  0  2  0  0  3  0  0  0  0  0  0
  186.5700  178.0850  143.8960 C   0  0  0  0  0  0  0  0  0  0  0  0
  185.1390  179.1550  147.1140 O   0  0  0  0  0  1  0  0  0  0  0  0
  186.0440  178.2340  142.5890 N   0  0  0  0  0  0  0  0  0  0  0  0
  187.7900  177.4950  144.2640 C   0  0  0  0  0  0  0  0  0  0  0  0
  186.0190  178.6030  146.1890 C   0  0  0  0  0  0  0  0  0  0  0  0
  187.6110  177.9700  148.0350 C   0  0  0  0  0  1  0  0  0  0  0  0
  183.3920  178.4350  144.4850 O   0  0  0  0  0  1  0  0  0  0  0  0
  190.7370  177.1800  141.7560 C   0  0  0  0  0  2  0  0  0  0  0  0
  189.8230  177.8240  139.5580 C   0  0  2  0  0  3  0  0  0  0  0  0
  190.8660  176.7540  139.3230 C   0  0  0  0  0  2  0  0  0  0  0  0
  189.9720  176.6830  140.5450 C   0  0  1  0  0  3  0  0  0  0  0  0
  188.9710  179.5070  137.4360 O   0  0  0  0  0  0  0  0  0  0  0  0
  188.6730  177.5730  138.7070 N   0  0  0  0  0  2  0  0  0  0  0  0
  188.2980  178.4630  137.6550 C   0  0  0  0  0  0  0  0  0  0  0  0
  184.8730  177.1050  136.6150 C   0  0  0  0  0  3  0  0  0  0  0  0
  186.0350  177.4220  137.3770 N   0  0  0  0  0  2  0  0  0  0  0  0
  187.1240  178.1650  136.8270 C   0  0  0  0  0  0  0  0  0  0  0  0
  183.9370  176.4490  137.1390 O   0  0  0  0  0  0  0  0  0  0  0  0
  187.0810  178.5650  135.6320 O   0  0  0  0  0  0  0  0  0  0  0  0
  1  2  2  0  0  0  0
  2 12  1  0  0  0  0
  3  2  1  0  0  0  0
  4  6  1  0  0  0  0
  5  8  1  0  0  0  0
  6 14  1  0  0  0  0
  7 13  1  0  0  0  0
  8 15  1  1  0  0  0
  8  7  1  0  0  0  0
  9 12  1  0  0  0  0
  9  7  2  0  0  0  0
 11  5  2  0  0  0  0
 11  9  1  0  0  0  0
 12  4  2  0  0  0  0
 13  6  2  0  0  0  0
 13 10  1  0  0  0  0
 16  3  1  0  0  0  0
 17 21  1  6  0  0  0
 17 19  1  0  0  0  0
 18 17  1  0  0  0  0
 18 19  1  0  0  0  0
 19 16  1  1  0  0  0
 20 22  2  0  0  0  0
 22 21  1  0  0  0  0
 23 26  2  0  0  0  0
 23 24  1  0  0  0  0
 25 24  1  0  0  0  0
 25 22  1  0  0  0  0
 27 25  2  0  0  0  0
M  END
>  <MODEL>
3

>  <REMARK>
 VINA RESULT:      -8.3      2.932      4.726
  Name = 
  5 active torsions:
  status: ('A' for Active; 'I' for Inactive)
    1  A    between atoms: C_1  and  N_11
    2  A    between atoms: C_10  and  C_21
    3  A    between atoms: C_15  and  C_16
    4  A    between atoms: C_18  and  N_22
    5  A    between atoms: C_18  and  C_26
                            x       y       z     vdW  Elec       q    Type
                         _______ _______ _______ _____ _____    ______ ____

>  <TORSDO>
F 5

$$$$
=
 OpenBabel11032419493D

 27 29  0  0  1  0  0  0  0  0999 V2000
  185.0150  179.5030  145.8900 O   0  0  0  0  0  0  0  0  0  0  0  0
  185.0410  178.7110  144.9090 C   0  0  0  0  0  0  0  0  0  0  0  0
  186.1320  177.7970  144.7640 N   0  0  0  0  0  2  0  0  0  0  0  0
  182.6030  178.7260  144.3560 C   0  0  0  0  0  3  0  0  0  0  0  0
  185.1620  178.8370  140.5850 C   0  0  0  0  0  3  0  0  0  0  0  0
  181.5360  178.7520  143.4380 C   0  0  0  0  0  0  0  0  0  0  0  0
  183.1300  178.7970  141.6360 C   0  0  0  0  0  0  0  0  0  0  0  0
  183.6900  178.8370  140.2600 C   0  0  2  0  0  3  0  0  0  0  0  0
  184.1650  178.7740  142.5320 C   0  0  0  0  0  0  0  0  0  0  0  0
  180.7640  178.8200  141.1260 O   0  0  0  0  0  1  0  0  0  0  0  0
  185.4120  178.8000  141.8590 N   0  0  0  0  0  0  0  0  0  0  0  0
  183.9430  178.7370  143.9180 C   0  0  0  0  0  0  0  0  0  0  0  0
  181.7990  178.7900  142.0550 C   0  0  0  0  0  0  0  0  0  0  0  0
  180.1380  178.7410  143.9480 C   0  0  0  0  0  1  0  0  0  0  0  0
  183.3650  177.6610  139.5850 O   0  0  0  0  0  1  0  0  0  0  0  0
  187.2150  177.6990  145.7330 C   0  0  0  0  0  2  0  0  0  0  0  0
  189.3730  178.1530  144.6320 C   0  0  2  0  0  3  0  0  0  0  0  0
  189.6620  177.3910  145.9060 C   0  0  0  0  0  2  0  0  0  0  0  0
  188.4300  177.0590  145.0900 C   0  0  1  0  0  3  0  0  0  0  0  0
  188.8200  178.4180  141.8600 O   0  0  0  0  0  0  0  0  0  0  0  0
  190.2140  177.6420  143.5630 N   0  0  0  0  0  2  0  0  0  0  0  0
  189.8750  177.8100  142.1850 C   0  0  0  0  0  0  0  0  0  0  0  0
  191.0220  175.9360  139.0500 C   0  0  0  0  0  3  0  0  0  0  0  0
  190.2100  176.4820  140.0850 N   0  0  0  0  0  2  0  0  0  0  0  0
  190.7570  177.2700  141.1440 C   0  0  0  0  0  0  0  0  0  0  0  0
  190.5000  175.2480  138.1360 O   0  0  0  0  0  0  0  0  0  0  0  0
  191.9960  177.5040  141.1880 O   0  0  0  0  0  0  0  0  0  0  0  0
  2  1  2  0  0  0  0
  3  2  1  0  0  0  0
  3 16  1  0  0  0  0
  5 11  2  0  0  0  0
  6 14  1  0  0  0  0
  6  4  2  0  0  0  0
  7 13  2  0  0  0  0
  7  9  1  0  0  0  0
  8 15  1  6  0  0  0
  8  5  1  0  0  0  0
  8  7  1  0  0  0  0
  9 12  2  0  0  0  0
 10 13  1  0  0  0  0
 11  9  1  0  0  0  0
 12  4  1  0  0  0  0
 12  2  1  0  0  0  0
 13  6  1  0  0  0  0
 17 21  1  6  0  0  0
 17 19  1  0  0  0  0
 17 18  1  0  0  0  0
 19 16  1  1  0  0  0
 19 18  1  0  0  0  0
 20 22  2  0  0  0  0
 22 21  1  0  0  0  0
 23 24  1  0  0  0  0
 24 25  1  0  0  0  0
 25 27  2  0  0  0  0
 25 22  1  0  0  0  0
 26 23  2  0  0  0  0
M  END
>  <MODEL>
4

>  <REMARK>
 VINA RESULT:      -8.1      2.597      5.292
  Name = 
  5 active torsions:
  status: ('A' for Active; 'I' for Inactive)
    1  A    between atoms: C_1  and  N_11
    2  A    between atoms: C_10  and  C_21
    3  A    between atoms: C_15  and  C_16
    4  A    between atoms: C_18  and  N_22
    5  A    between atoms: C_18  and  C_26
                            x       y       z     vdW  Elec       q    Type
                         _______ _______ _______ _____ _____    ______ ____

>  <TORSDO>
F 5

$$$$
=
 OpenBabel11032419493D

 27 29  0  0  1  0  0  0  0  0999 V2000
  190.6910  178.6310  142.5240 O   0  0  0  0  0  0  0  0  0  0  0  0
  189.9890  177.6370  142.8560 C   0  0  0  0  0  0  0  0  0  0  0  0
  189.6260  176.6650  141.8710 N   0  0  0  0  0  2  0  0  0  0  0  0
  188.2510  177.9090  144.6330 C   0  0  0  0  0  3  0  0  0  0  0  0
  192.0560  176.0340  146.3040 C   0  0  0  0  0  3  0  0  0  0  0  0
  187.7990  177.7810  145.9600 C   0  0  0  0  0  0  0  0  0  0  0  0
  189.9220  176.8210  146.5580 C   0  0  0  0  0  0  0  0  0  0  0  0
  191.0060  176.2100  147.3710 C   0  0  2  0  0  3  0  0  0  0  0  0
  190.3590  176.9450  145.2660 C   0  0  0  0  0  0  0  0  0  0  0  0
  188.2210  177.0860  148.2580 O   0  0  0  0  0  1  0  0  0  0  0  0
  191.6800  176.4520  145.1320 N   0  0  0  0  0  0  0  0  0  0  0  0
  189.5440  177.4900  144.2600 C   0  0  0  0  0  0  0  0  0  0  0  0
  188.6440  177.2270  146.9410 C   0  0  0  0  0  0  0  0  0  0  0  0
  186.4240  178.2350  146.3060 C   0  0  0  0  0  1  0  0  0  0  0  0
  191.4580  177.1280  148.3190 O   0  0  0  0  0  1  0  0  0  0  0  0
  190.0720  176.7380  140.4870 C   0  0  0  0  0  2  0  0  0  0  0  0
  188.5420  178.4560  139.6010 C   0  0  2  0  0  3  0  0  0  0  0  0
  189.3110  177.8820  138.4310 C   0  0  0  0  0  2  0  0  0  0  0  0
  188.8880  176.9800  139.5720 C   0  0  1  0  0  3  0  0  0  0  0  0
  186.4020  178.8510  141.4240 O   0  0  0  0  0  0  0  0  0  0  0  0
  187.1490  178.6270  139.2250 N   0  0  0  0  0  2  0  0  0  0  0  0
  186.1190  178.8220  140.1960 C   0  0  0  0  0  0  0  0  0  0  0  0
  182.4170  178.0500  139.5970 C   0  0  0  0  0  3  0  0  0  0  0  0
  183.7800  177.9410  139.9970 N   0  0  0  0  0  2  0  0  0  0  0  0
  184.7270  178.9850  139.7630 C   0  0  0  0  0  0  0  0  0  0  0  0
  181.6180  177.1060  139.8220 O   0  0  0  0  0  0  0  0  0  0  0  0
  184.3700  180.0480  139.1850 O   0  0  0  0  0  0  0  0  0  0  0  0
  1  2  2  0  0  0  0
  2 12  1  0  0  0  0
  3  2  1  0  0  0  0
  4  6  1  0  0  0  0
  5  8  1  0  0  0  0
  6 14  1  0  0  0  0
  6 13  2  0  0  0  0
  7 13  1  0  0  0  0
  7  8  1  0  0  0  0
  8 15  1  1  0  0  0
  9  7  2  0  0  0  0
 11  9  1  0  0  0  0
 11  5  2  0  0  0  0
 12  4  2  0  0  0  0
 12  9  1  0  0  0  0
 13 10  1  0  0  0  0
 16  3  1  0  0  0  0
 17 21  1  6  0  0  0
 18 19  1  0  0  0  0
 18 17  1  0  0  0  0
 19 17  1  0  0  0  0
 19 16  1  1  0  0  0
 21 22  1  0  0  0  0
 22 20  2  0  0  0  0
 23 26  2  0  0  0  0
 23 24  1  0  0  0  0
 25 24  1  0  0  0  0
 25 22  1  0  0  0  0
 27 25  2  0  0  0  0
M  END
>  <MODEL>
5

>  <REMARK>
 VINA RESULT:      -8.0      3.966      6.419
  Name = 
  5 active torsions:
  status: ('A' for Active; 'I' for Inactive)
    1  A    between atoms: C_1  and  N_11
    2  A    between atoms: C_10  and  C_21
    3  A    between atoms: C_15  and  C_16
    4  A    between atoms: C_18  and  N_22
    5  A    between atoms: C_18  and  C_26
                            x       y       z     vdW  Elec       q    Type
                         _______ _______ _______ _____ _____    ______ ____

>  <TORSDO>
F 5

$$$$
=
 OpenBabel11032419493D

 27 29  0  0  1  0  0  0  0  0999 V2000
  188.8700  178.3840  142.0510 O   0  0  0  0  0  0  0  0  0  0  0  0
  189.6250  177.7170  142.8100 C   0  0  0  0  0  0  0  0  0  0  0  0
  190.8170  177.1260  142.2830 N   0  0  0  0  0  2  0  0  0  0  0  0
  187.9700  177.8790  144.6760 C   0  0  0  0  0  3  0  0  0  0  0  0
  191.9810  176.2910  146.1480 C   0  0  0  0  0  3  0  0  0  0  0  0
  187.5980  177.7290  146.0250 C   0  0  0  0  0  0  0  0  0  0  0  0
  189.8140  176.9270  146.5130 C   0  0  0  0  0  0  0  0  0  0  0  0
  190.9790  176.4000  147.2690 C   0  0  2  0  0  3  0  0  0  0  0  0
  190.1710  177.0710  145.1990 C   0  0  0  0  0  0  0  0  0  0  0  0
  188.1900  177.0840  148.3010 O   0  0  0  0  0  1  0  0  0  0  0  0
  191.5150  176.6710  144.9970 N   0  0  0  0  0  0  0  0  0  0  0  0
  189.2680  177.5500  144.2360 C   0  0  0  0  0  0  0  0  0  0  0  0
  188.5310  177.2440  146.9620 C   0  0  0  0  0  0  0  0  0  0  0  0
  186.2150  178.0880  146.4430 C   0  0  0  0  0  1  0  0  0  0  0  0
  191.4140  177.3550  148.1890 O   0  0  0  0  0  1  0  0  0  0  0  0
  191.2380  177.2950  140.9000 C   0  0  0  0  0  2  0  0  0  0  0  0
  190.0990  177.4990  138.7230 C   0  0  2  0  0  3  0  0  0  0  0  0
  190.9290  176.2360  138.6870 C   0  0  0  0  0  2  0  0  0  0  0  0
  190.2330  176.6460  139.9680 C   0  0  1  0  0  3  0  0  0  0  0  0
  188.5690  179.4230  137.3020 O   0  0  0  0  0  0  0  0  0  0  0  0
  188.8070  177.2460  138.1070 N   0  0  0  0  0  2  0  0  0  0  0  0
  188.0880  178.2620  137.4050 C   0  0  0  0  0  0  0  0  0  0  0  0
  184.3960  177.2920  137.1100 C   0  0  0  0  0  3  0  0  0  0  0  0
  185.6820  177.5990  137.6420 N   0  0  0  0  0  2  0  0  0  0  0  0
  186.7850  177.9540  136.8060 C   0  0  0  0  0  0  0  0  0  0  0  0
  183.4530  176.9840  137.8820 O   0  0  0  0  0  0  0  0  0  0  0  0
  186.6430  178.0040  135.5540 O   0  0  0  0  0  0  0  0  0  0  0  0
  1  2  2  0  0  0  0
  2 12  1  0  0  0  0
  3  2  1  0  0  0  0
  4  6  1  0  0  0  0
  5  8  1  0  0  0  0
  6 14  1  0  0  0  0
  6 13  2  0  0  0  0
  7 13  1  0  0  0  0
  7  8  1  0  0  0  0
  8 15  1  1  0  0  0
  9  7  2  0  0  0  0
 11  9  1  0  0  0  0
 11  5  2  0  0  0  0
 12  4  2  0  0  0  0
 12  9  1  0  0  0  0
 13 10  1  0  0  0  0
 16  3  1  0  0  0  0
 17 21  1  6  0  0  0
 17 19  1  0  0  0  0
 18 17  1  0  0  0  0
 18 19  1  0  0  0  0
 19 16  1  1  0  0  0
 20 22  2  0  0  0  0
 22 21  1  0  0  0  0
 23 24  1  0  0  0  0
 23 26  2  0  0  0  0
 25 22  1  0  0  0  0
 25 24  1  0  0  0  0
 27 25  2  0  0  0  0
M  END
>  <MODEL>
6

>  <REMARK>
 VINA RESULT:      -7.9      3.605      5.274
  Name = 
  5 active torsions:
  status: ('A' for Active; 'I' for Inactive)
    1  A    between atoms: C_1  and  N_11
    2  A    between atoms: C_10  and  C_21
    3  A    between atoms: C_15  and  C_16
    4  A    between atoms: C_18  and  N_22
    5  A    between atoms: C_18  and  C_26
                            x       y       z     vdW  Elec       q    Type
                         _______ _______ _______ _____ _____    ______ ____

>  <TORSDO>
F 5

$$$$
=
 OpenBabel11032419493D

 27 29  0  0  1  0  0  0  0  0999 V2000
  188.6770  176.2060  142.4460 O   0  0  0  0  0  0  0  0  0  0  0  0
  188.2310  177.2570  142.9820 C   0  0  0  0  0  0  0  0  0  0  0  0
  187.7640  178.3290  142.1570 N   0  0  0  0  0  2  0  0  0  0  0  0
  187.0260  177.8190  145.0990 C   0  0  0  0  0  3  0  0  0  0  0  0
  191.2790  176.4020  145.9330 C   0  0  0  0  0  3  0  0  0  0  0  0
  186.9630  177.9360  146.5000 C   0  0  0  0  0  0  0  0  0  0  0  0
  189.2390  177.1660  146.6350 C   0  0  0  0  0  0  0  0  0  0  0  0
  190.5480  176.7520  147.2040 C   0  0  2  0  0  3  0  0  0  0  0  0
  189.2960  177.0510  145.2720 C   0  0  0  0  0  0  0  0  0  0  0  0
  188.0490  177.7080  148.6720 O   0  0  0  0  0  1  0  0  0  0  0  0
  190.5660  176.5760  144.8610 N   0  0  0  0  0  0  0  0  0  0  0  0
  188.1980  177.3710  144.4560 C   0  0  0  0  0  0  0  0  0  0  0  0
  188.0840  177.6040  147.2850 C   0  0  0  0  0  0  0  0  0  0  0  0
  185.7030  178.4120  147.1340 C   0  0  0  0  0  1  0  0  0  0  0  0
  191.1660  177.8470  147.8090 O   0  0  0  0  0  1  0  0  0  0  0  0
  187.7330  178.2520  140.7040 C   0  0  0  0  0  2  0  0  0  0  0  0
  189.3120  177.1390  139.1720 C   0  0  2  0  0  3  0  0  0  0  0  0
  189.0960  178.5460  138.6610 C   0  0  0  0  0  2  0  0  0  0  0  0
  189.1450  178.2830  140.1520 C   0  0  1  0  0  3  0  0  0  0  0  0
  190.5280  175.9050  136.9230 O   0  0  0  0  0  0  0  0  0  0  0  0
  190.7210  176.8000  139.0700 N   0  0  0  0  0  2  0  0  0  0  0  0
  191.2690  176.1770  137.9060 C   0  0  0  0  0  0  0  0  0  0  0  0
  194.4900  174.1410  137.5330 C   0  0  0  0  0  3  0  0  0  0  0  0
  193.1150  174.5100  137.5930 N   0  0  0  0  0  2  0  0  0  0  0  0
  192.6990  175.8510  137.8560 C   0  0  0  0  0  0  0  0  0  0  0  0
  194.8120  172.9490  137.3000 O   0  0  0  0  0  0  0  0  0  0  0  0
  193.5560  176.7570  138.0450 O   0  0  0  0  0  0  0  0  0  0  0  0
  1  2  2  0  0  0  0
  2 12  1  0  0  0  0
  3  2  1  0  0  0  0
  4  6  1  0  0  0  0
  5  8  1  0  0  0  0
  6 14  1  0  0  0  0
  6 13  2  0  0  0  0
  7  8  1  0  0  0  0
  7 13  1  0  0  0  0
  8 15  1  6  0  0  0
  9  7  2  0  0  0  0
 11  9  1  0  0  0  0
 11  5  2  0  0  0  0
 12  4  2  0  0  0  0
 12  9  1  0  0  0  0
 13 10  1  0  0  0  0
 16  3  1  0  0  0  0
 17 21  1  6  0  0  0
 17 19  1  0  0  0  0
 18 17  1  0  0  0  0
 18 19  1  0  0  0  0
 19 16  1  1  0  0  0
 20 22  2  0  0  0  0
 22 21  1  0  0  0  0
 23 24  1  0  0  0  0
 24 25  1  0  0  0  0
 25 22  1  0  0  0  0
 25 27  2  0  0  0  0
 26 23  2  0  0  0  0
M  END
>  <MODEL>
7

>  <REMARK>
 VINA RESULT:      -7.9      2.424      3.313
  Name = 
  5 active torsions:
  status: ('A' for Active; 'I' for Inactive)
    1  A    between atoms: C_1  and  N_11
    2  A    between atoms: C_10  and  C_21
    3  A    between atoms: C_15  and  C_16
    4  A    between atoms: C_18  and  N_22
    5  A    between atoms: C_18  and  C_26
                            x       y       z     vdW  Elec       q    Type
                         _______ _______ _______ _____ _____    ______ ____

>  <TORSDO>
F 5

$$$$
=
 OpenBabel11032419493D

 27 29  0  0  1  0  0  0  0  0999 V2000
  188.3280  175.5140  142.8390 O   0  0  0  0  0  0  0  0  0  0  0  0
  188.3430  176.7500  143.0920 C   0  0  0  0  0  0  0  0  0  0  0  0
  188.4880  177.6900  142.0240 N   0  0  0  0  0  2  0  0  0  0  0  0
  189.2590  176.9750  145.4070 C   0  0  0  0  0  3  0  0  0  0  0  0
  185.1250  178.8660  145.0660 C   0  0  0  0  0  3  0  0  0  0  0  0
  189.1670  177.4050  146.7450 C   0  0  0  0  0  0  0  0  0  0  0  0
  186.9870  178.3070  146.2720 C   0  0  0  0  0  0  0  0  0  0  0  0
  185.6810  178.9890  146.4620 C   0  0  2  0  0  3  0  0  0  0  0  0
  187.0810  177.8900  144.9710 C   0  0  0  0  0  0  0  0  0  0  0  0
  187.9000  178.5210  148.5030 O   0  0  0  0  0  1  0  0  0  0  0  0
  185.9190  178.2470  144.2440 N   0  0  0  0  0  0  0  0  0  0  0  0
  188.2140  177.2120  144.4920 C   0  0  0  0  0  0  0  0  0  0  0  0
  188.0160  178.0830  147.1880 C   0  0  0  0  0  0  0  0  0  0  0  0
  190.2980  177.1330  147.6740 C   0  0  0  0  0  1  0  0  0  0  0  0
  184.8890  178.2540  147.3440 O   0  0  0  0  0  1  0  0  0  0  0  0
  188.5750  177.2910  140.6270 C   0  0  0  0  0  2  0  0  0  0  0  0
  190.1930  176.7910  138.8350 C   0  0  2  0  0  3  0  0  0  0  0  0
  189.7980  178.2450  138.7000 C   0  0  0  0  0  2  0  0  0  0  0  0
  189.9470  177.6270  140.0750 C   0  0  1  0  0  3  0  0  0  0  0  0
  191.4530  174.5870  137.5640 O   0  0  0  0  0  0  0  0  0  0  0  0
  191.6250  176.6590  138.6240 N   0  0  0  0  0  2  0  0  0  0  0  0
  192.1950  175.5200  137.9770 C   0  0  0  0  0  0  0  0  0  0  0  0
  195.5880  175.0260  136.2750 C   0  0  0  0  0  3  0  0  0  0  0  0
  194.1860  175.1220  136.5060 N   0  0  0  0  0  2  0  0  0  0  0  0
  193.6470  175.4330  137.7930 C   0  0  0  0  0  0  0  0  0  0  0  0
  196.0200  174.7500  135.1270 O   0  0  0  0  0  0  0  0  0  0  0  0
  194.4170  175.6340  138.7720 O   0  0  0  0  0  0  0  0  0  0  0  0
  1  2  2  0  0  0  0
  2 12  1  0  0  0  0
  3  2  1  0  0  0  0
  4  6  1  0  0  0  0
  5  8  1  0  0  0  0
  6 13  2  0  0  0  0
  6 14  1  0  0  0  0
  7  8  1  0  0  0  0
  7 13  1  0  0  0  0
  8 15  1  1  0  0  0
  9  7  2  0  0  0  0
 11  9  1  0  0  0  0
 11  5  2  0  0  0  0
 12  9  1  0  0  0  0
 12  4  2  0  0  0  0
 13 10  1  0  0  0  0
 16  3  1  0  0  0  0
 17 21  1  1  0  0  0
 17 19  1  0  0  0  0
 18 17  1  0  0  0  0
 18 19  1  0  0  0  0
 19 16  1  6  0  0  0
 20 22  2  0  0  0  0
 22 21  1  0  0  0  0
 23 24  1  0  0  0  0
 24 25  1  0  0  0  0
 25 22  1  0  0  0  0
 25 27  2  0  0  0  0
 26 23  2  0  0  0  0
M  END
>  <MODEL>
8

>  <REMARK>
 VINA RESULT:      -7.9      1.681      3.003
  Name = 
  5 active torsions:
  status: ('A' for Active; 'I' for Inactive)
    1  A    between atoms: C_1  and  N_11
    2  A    between atoms: C_10  and  C_21
    3  A    between atoms: C_15  and  C_16
    4  A    between atoms: C_18  and  N_22
    5  A    between atoms: C_18  and  C_26
                            x       y       z     vdW  Elec       q    Type
                         _______ _______ _______ _____ _____    ______ ____

>  <TORSDO>
F 5

$$$$
=
 OpenBabel11032419493D

 27 29  0  0  1  0  0  0  0  0999 V2000
  186.7960  178.8900  141.5070 O   0  0  0  0  0  0  0  0  0  0  0  0
  187.7580  178.1260  141.7890 C   0  0  0  0  0  0  0  0  0  0  0  0
  188.5500  177.5650  140.7370 N   0  0  0  0  0  2  0  0  0  0  0  0
  187.0400  177.9240  144.1750 C   0  0  0  0  0  3  0  0  0  0  0  0
  191.4390  176.8390  143.6670 C   0  0  0  0  0  3  0  0  0  0  0  0
  187.2920  177.6340  145.5290 C   0  0  0  0  0  0  0  0  0  0  0  0
  189.5750  177.1300  144.9640 C   0  0  0  0  0  0  0  0  0  0  0  0
  190.9990  176.7290  145.1050 C   0  0  2  0  0  3  0  0  0  0  0  0
  189.3260  177.4100  143.6470 C   0  0  0  0  0  0  0  0  0  0  0  0
  188.8540  176.9330  147.2650 O   0  0  0  0  0  1  0  0  0  0  0  0
  190.4930  177.2230  142.8640 N   0  0  0  0  0  0  0  0  0  0  0  0
  188.0570  177.8150  143.2040 C   0  0  0  0  0  0  0  0  0  0  0  0
  188.5780  177.2280  145.9340 C   0  0  0  0  0  0  0  0  0  0  0  0
  186.1860  177.7600  146.5170 C   0  0  0  0  0  1  0  0  0  0  0  0
  191.6810  177.6740  145.8720 O   0  0  0  0  0  1  0  0  0  0  0  0
  188.3270  177.8710  139.3310 C   0  0  0  0  0  2  0  0  0  0  0  0
  189.9510  176.8500  137.7830 C   0  0  2  0  0  3  0  0  0  0  0  0
  189.4280  178.1100  137.1300 C   0  0  0  0  0  2  0  0  0  0  0  0
  189.6540  178.0740  138.6270 C   0  0  1  0  0  3  0  0  0  0  0  0
  191.4670  174.4570  137.9690 O   0  0  0  0  0  0  0  0  0  0  0  0
  191.3840  176.7550  137.5680 N   0  0  0  0  0  2  0  0  0  0  0  0
  192.0880  175.5160  137.6780 C   0  0  0  0  0  0  0  0  0  0  0  0
  195.7130  174.2890  137.7620 C   0  0  0  0  0  3  0  0  0  0  0  0
  194.3040  174.3760  137.9520 N   0  0  0  0  0  2  0  0  0  0  0  0
  193.5370  175.4750  137.4550 C   0  0  0  0  0  0  0  0  0  0  0  0
  196.3490  173.3040  138.2160 O   0  0  0  0  0  0  0  0  0  0  0  0
  194.1020  176.4110  136.8250 O   0  0  0  0  0  0  0  0  0  0  0  0
  1  2  2  0  0  0  0
  2 12  1  0  0  0  0
  3  2  1  0  0  0  0
  4  6  1  0  0  0  0
  5  8  1  0  0  0  0
  6 13  2  0  0  0  0
  6 14  1  0  0  0  0
  7  8  1  0  0  0  0
  7 13  1  0  0  0  0
  8 15  1  1  0  0  0
  9  7  2  0  0  0  0
 11  9  1  0  0  0  0
 11  5  2  0  0  0  0
 12  9  1  0  0  0  0
 12  4  2  0  0  0  0
 13 10  1  0  0  0  0
 16  3  1  0  0  0  0
 17 21  1  6  0  0  0
 17 19  1  0  0  0  0
 18 17  1  0  0  0  0
 18 19  1  0  0  0  0
 19 16  1  1  0  0  0
 21 22  1  0  0  0  0
 22 20  2  0  0  0  0
 23 24  1  0  0  0  0
 23 26  2  0  0  0  0
 25 22  1  0  0  0  0
 25 24  1  0  0  0  0
 27 25  2  0  0  0  0
M  END
>  <MODEL>
9

>  <REMARK>
 VINA RESULT:      -7.9      2.432      3.634
  Name = 
  5 active torsions:
  status: ('A' for Active; 'I' for Inactive)
    1  A    between atoms: C_1  and  N_11
    2  A    between atoms: C_10  and  C_21
    3  A    between atoms: C_15  and  C_16
    4  A    between atoms: C_18  and  N_22
    5  A    between atoms: C_18  and  C_26
                            x       y       z     vdW  Elec       q    Type
                         _______ _______ _______ _____ _____    ______ ____

>  <TORSDO>
F 5

$$$$
