=
 OpenBabel11042413153D

 70 75  0  0  1  0  0  0  0  0999 V2000
  187.7710  178.8010  138.2410 C   0  0  2  0  0  3  0  0  0  0  0  0
  186.2190  178.6610  140.7050 S   0  0  0  0  0  0  0  0  0  0  0  0
  187.6600  178.3670  139.6880 C   0  0  1  0  0  3  0  0  0  0  0  0
  188.2840  177.1890  141.6450 C   0  0  1  0  0  3  0  0  0  0  0  0
  186.7740  177.3160  141.8000 C   0  0  0  0  0  2  0  0  0  0  0  0
  188.6010  177.6130  140.2500 C   0  0  0  0  0  2  0  0  0  0  0  0
  190.3360  178.0650  142.8320 C   0  0  0  0  0  0  0  0  0  0  0  0
  188.9320  178.0610  142.6020 N   0  0  0  0  0  2  0  0  0  0  0  0
  191.1120  177.3980  142.0910 O   0  0  0  0  0  0  0  0  0  0  0  0
  192.3750  178.7160  144.1520 C   0  0  0  0  0  1  0  0  0  0  0  0
  190.8770  178.8710  143.9740 C   0  0  2  0  0  3  0  0  0  0  0  0
  190.0550  178.6890  145.2580 C   0  0  0  0  0  2  0  0  0  0  0  0
  190.4690  177.5280  146.1870 C   0  0  2  0  0  3  0  0  0  0  0  0
  191.0200  176.3850  145.5770 O   0  0  0  0  0  1  0  0  0  0  0  0
  190.1450  178.1830  148.6090 C   0  0  0  0  0  1  0  0  0  0  0  0
  189.6740  177.2830  147.4830 C   0  0  1  0  0  3  0  0  0  0  0  0
  188.1200  177.3480  147.4030 C   0  0  1  0  0  3  0  0  0  0  0  0
  187.4250  177.1230  148.7570 C   0  0  0  0  0  1  0  0  0  0  0  0
  187.7420  178.6010  146.8710 O   0  0  0  0  0  0  0  0  0  0  0  0
  185.7660  177.4920  147.3370 O   0  0  0  0  0  1  0  0  0  0  0  0
  186.3430  178.5640  146.6550 C   0  0  2  0  0  3  0  0  0  0  0  0
  186.0620  178.4370  145.1550 C   0  0  0  0  0  2  0  0  0  0  0  0
  183.7440  179.1160  145.8210 O   0  0  0  0  0  1  0  0  0  0  0  0
  184.2660  178.7040  143.6230 O   0  0  0  0  0  0  0  0  0  0  0  0
  184.6370  178.7360  144.8300 C   0  0  0  0  0  0  0  0  0  0  0  0
  185.4880  178.2370  137.4860 C   0  0  0  0  0  3  0  0  0  0  0  0
  186.7800  178.1880  137.3420 N   0  0  0  0  0  0  0  0  0  0  0  0
  180.0260  175.1390  135.3220 C   0  0  0  0  0  0  0  0  0  0  0  0
  180.0820  175.4370  136.7650 C   0  0  0  0  0  0  0  0  0  0  0  0
  182.5100  175.2000  135.2890 C   0  0  2  0  0  3  0  0  0  0  0  0
  180.5850  175.5860  139.5230 C   0  0  0  0  0  3  0  0  0  0  0  0
  183.2210  176.4460  139.0070 S   0  0  0  0  0  0  0  0  0  0  0  0
  184.5400  177.3900  136.7280 C   0  0  0  0  0  2  0  0  0  0  0  0
  181.2600  176.0010  137.2550 C   0  0  0  0  0  0  0  0  0  0  0  0
  179.3540  175.0840  139.0500 C   0  0  0  0  0  3  0  0  0  0  0  0
  179.0970  175.0120  137.6690 C   0  0  0  0  0  3  0  0  0  0  0  0
  182.3940  176.3190  136.3410 C   0  0  1  0  0  3  0  0  0  0  0  0
  178.9320  175.0140  134.7230 O   0  0  0  0  0  0  0  0  0  0  0  0
  183.5630  176.6110  137.2280 C   0  0  2  0  0  3  0  0  0  0  0  0
  181.2430  175.1230  134.5940 O   0  0  0  0  0  0  0  0  0  0  0  0
  181.5310  176.0520  138.6100 C   0  0  0  0  0  0  0  0  0  0  0  0
  182.7660  173.9730  135.9270 O   0  0  0  0  0  0  0  0  0  0  0  0
  183.7100  173.3060  135.1420 C   0  0  1  0  0  3  0  0  0  0  0  0
  185.0880  173.8750  135.4720 C   0  0  0  0  0  2  0  0  0  0  0  0
  186.0530  172.7540  135.8480 C   0  0  0  0  0  2  0  0  0  0  0  0
  186.3070  172.7850  137.3420 C   0  0  0  0  0  1  0  0  0  0  0  0
  183.6630  171.9400  135.4290 O   0  0  0  0  0  0  0  0  0  0  0  0
  182.3220  171.6400  135.7000 C   0  0  0  0  0  2  0  0  0  0  0  0
  180.9260  171.8360  137.6410 O   0  0  0  0  0  1  0  0  0  0  0  0
  182.1550  171.3540  137.1810 C   0  0  0  0  0  2  0  0  0  0  0  0
  189.1210  178.5150  137.7150 N   0  0  0  0  0  2  0  0  0  0  0  0
  190.3390  176.6810  136.8820 O   0  0  0  0  0  0  0  0  0  0  0  0
  189.3240  176.5160  134.7400 C   0  0  0  0  0  2  0  0  0  0  0  0
  189.0760  177.2840  136.9160 C   0  0  2  0  0  3  0  0  0  0  0  0
  190.5680  176.2950  135.5500 C   0  0  2  0  0  3  0  0  0  0  0  0
  188.6470  177.5930  135.5010 C   0  0  0  0  0  2  0  0  0  0  0  0
  191.0530  174.8580  135.5330 C   0  0  0  0  0  2  0  0  0  0  0  0
  192.3320  174.7070  136.1760 N   0  0  0  0  0  0  0  0  0  0  0  0
  193.2900  174.0320  135.6410 C   0  0  0  0  0  3  0  0  0  0  0  0
  197.5660  173.6470  135.8620 C   0  0  2  0  0  3  0  0  0  0  0  0
  196.8880  174.9240  136.3620 C   0  0  2  0  0  3  0  0  0  0  0  0
  194.5700  171.5310  136.2420 O   0  0  0  0  0  0  0  0  0  0  0  0
  195.4920  175.0510  135.8000 C   0  0  0  0  0  2  0  0  0  0  0  0
  194.6110  173.9290  136.3320 C   0  0  2  0  0  3  0  0  0  0  0  0
  196.6680  172.4760  135.8480 N   0  0  0  0  0  0  0  0  0  0  0  0
  197.1810  171.2090  135.3470 C   0  0  0  0  0  1  0  0  0  0  0  0
  195.2560  172.5850  136.1220 C   0  0  0  0  0  0  0  0  0  0  0  0
  197.6450  176.0450  135.9950 O   0  0  0  0  0  1  0  0  0  0  0  0
  198.5840  173.8600  138.0240 O   0  0  0  0  0  1  0  0  0  0  0  0
  198.7910  173.3690  136.7270 C   0  0  0  0  0  2  0  0  0  0  0  0
  1 27  1  6  0  0  0
  2  5  1  0  0  0  0
  3  1  1  6  0  0  0
  3  6  1  0  0  0  0
  3  2  1  0  0  0  0
  4  5  1  0  0  0  0
  4  8  1  1  0  0  0
  6  4  1  0  0  0  0
  7 11  1  0  0  0  0
  8  7  1  0  0  0  0
  9  7  2  0  0  0  0
 11 10  1  1  0  0  0
 11 12  1  0  0  0  0
 12 13  1  0  0  0  0
 13 14  1  6  0  0  0
 13 16  1  0  0  0  0
 16 15  1  1  0  0  0
 17 16  1  0  0  0  0
 17 18  1  1  0  0  0
 19 17  1  0  0  0  0
 21 19  1  0  0  0  0
 21 20  1  1  0  0  0
 22 21  1  0  0  0  0
 24 25  2  0  0  0  0
 25 22  1  0  0  0  0
 25 23  1  0  0  0  0
 27 26  2  0  0  0  0
 28 29  1  0  0  0  0
 29 34  2  0  0  0  0
 29 36  1  0  0  0  0
 30 42  1  1  0  0  0
 30 37  1  0  0  0  0
 33 26  1  0  0  0  0
 34 41  1  0  0  0  0
 35 31  1  0  0  0  0
 36 35  2  0  0  0  0
 37 39  1  0  0  0  0
 37 34  1  1  0  0  0
 38 28  2  0  0  0  0
 39 33  1  1  0  0  0
 39 32  1  0  0  0  0
 40 30  1  0  0  0  0
 40 28  1  0  0  0  0
 41 32  1  0  0  0  0
 41 31  2  0  0  0  0
 43 47  1  0  0  0  0
 43 44  1  1  0  0  0
 43 42  1  0  0  0  0
 44 45  1  0  0  0  0
 45 46  1  0  0  0  0
 47 48  1  0  0  0  0
 48 50  1  0  0  0  0
 50 49  1  0  0  0  0
 51  1  1  0  0  0  0
 52 54  1  0  0  0  0
 53 56  1  0  0  0  0
 53 55  1  0  0  0  0
 54 51  1  1  0  0  0
 55 57  1  1  0  0  0
 55 52  1  0  0  0  0
 56 54  1  0  0  0  0
 57 58  1  0  0  0  0
 59 58  2  0  0  0  0
 60 61  1  0  0  0  0
 60 70  1  1  0  0  0
 61 68  1  6  0  0  0
 63 64  1  0  0  0  0
 63 61  1  0  0  0  0
 64 59  1  6  0  0  0
 65 60  1  0  0  0  0
 65 67  1  0  0  0  0
 66 65  1  0  0  0  0
 67 62  2  0  0  0  0
 67 64  1  0  0  0  0
 70 69  1  0  0  0  0
M  END
>  <MODEL>
1

>  <REMARK>
 VINA RESULT:      -4.9      0.000      0.000
  Name = 
  26 active torsions:
  status: ('A' for Active; 'I' for Inactive)
    1  A    between atoms: C_1  and  C_28
    2  A    between atoms: C_1  and  C_69
    3  A    between atoms: C_2  and  O_10
    4  A    between atoms: C_2  and  C_39
    5  A    between atoms: C_2  and  O_59
    6  A    between atoms: N_4  and  C_18
    7  A    between atoms: C_6  and  C_39
    8  A    between atoms: O_10  and  C_29
    9  A    between atoms: C_11  and  C_29
   10  A    between atoms: C_12  and  O_24
   11  A    between atoms: C_12  and  C_28
   12  A    between atoms: C_13  and  C_67
   13  A    between atoms: C_15  and  C_35
   14  A    between atoms: N_16  and  C_44
   15  A    between atoms: N_16  and  C_54
   16  A    between atoms: C_17  and  C_26
   17  A    between atoms: C_18  and  C_47
   18  A    between atoms: C_20  and  O_59
   19  A    between atoms: O_24  and  C_65
   20  A    between atoms: C_26  and  C_69
   21  A    between atoms: N_30  and  C_54
   22  A    between atoms: C_31  and  C_54
   23  A    between atoms: C_37  and  N_55
   24  A    between atoms: C_38  and  C_49
   25  A    between atoms: C_38  and  C_65
   26  A    between atoms: C_48  and  C_64
                            x       y       z     vdW  Elec       q    Type
                         _______ _______ _______ _____ _____    ______ ____

>  <TORSDO>
F 26

$$$$
=
 OpenBabel11042413153D

 70 75  0  0  1  0  0  0  0  0999 V2000
  185.9380  178.3520  142.1060 C   0  0  2  0  0  3  0  0  0  0  0  0
  188.5710  179.3190  141.3120 S   0  0  0  0  0  0  0  0  0  0  0  0
  187.4030  178.0730  141.8430 C   0  0  1  0  0  3  0  0  0  0  0  0
  189.4090  176.8160  141.9020 C   0  0  1  0  0  3  0  0  0  0  0  0
  189.9150  178.2520  141.9220 C   0  0  0  0  0  2  0  0  0  0  0  0
  187.9340  176.8870  142.1250 C   0  0  0  0  0  2  0  0  0  0  0  0
  190.2420  176.9640  139.5210 C   0  0  0  0  0  0  0  0  0  0  0  0
  189.7020  176.2280  140.6120 N   0  0  0  0  0  2  0  0  0  0  0  0
  190.6350  178.1540  139.6790 O   0  0  0  0  0  0  0  0  0  0  0  0
  188.9990  175.7570  137.6980 C   0  0  0  0  0  1  0  0  0  0  0  0
  190.3300  176.3020  138.1800 C   0  0  2  0  0  3  0  0  0  0  0  0
  191.4990  175.3100  138.0920 C   0  0  0  0  0  2  0  0  0  0  0  0
  192.5570  175.5810  137.0010 C   0  0  2  0  0  3  0  0  0  0  0  0
  192.1780  176.4210  135.9360 O   0  0  0  0  0  1  0  0  0  0  0  0
  193.6390  174.2050  135.1750 C   0  0  0  0  0  1  0  0  0  0  0  0
  193.5850  174.4850  136.6630 C   0  0  1  0  0  3  0  0  0  0  0  0
  195.0380  174.6670  137.1950 C   0  0  1  0  0  3  0  0  0  0  0  0
  195.3010  173.9400  138.5250 C   0  0  0  0  0  1  0  0  0  0  0  0
  195.9440  174.2120  136.2120 O   0  0  0  0  0  0  0  0  0  0  0  0
  197.6890  175.6690  135.7810 O   0  0  0  0  0  1  0  0  0  0  0  0
  197.2380  174.6340  136.6020 C   0  0  2  0  0  3  0  0  0  0  0  0
  198.2060  173.4490  136.5240 C   0  0  0  0  0  2  0  0  0  0  0  0
  197.4620  171.7530  134.8370 O   0  0  0  0  0  0  0  0  0  0  0  0
  197.0110  171.4710  137.0710 O   0  0  0  0  0  1  0  0  0  0  0  0
  197.5070  172.1850  136.1550 C   0  0  0  0  0  0  0  0  0  0  0  0
  185.1660  178.3240  139.7600 C   0  0  0  0  0  3  0  0  0  0  0  0
  185.0360  177.9750  141.0070 N   0  0  0  0  0  0  0  0  0  0  0  0
  180.0770  179.3610  135.6210 C   0  0  0  0  0  0  0  0  0  0  0  0
  180.0670  180.1320  136.8770 C   0  0  0  0  0  0  0  0  0  0  0  0
  181.4960  177.6680  136.7590 C   0  0  2  0  0  3  0  0  0  0  0  0
  179.9230  181.0910  139.5120 C   0  0  0  0  0  3  0  0  0  0  0  0
  182.1690  179.5370  140.2130 S   0  0  0  0  0  0  0  0  0  0  0  0
  184.1070  178.1580  138.7410 C   0  0  0  0  0  2  0  0  0  0  0  0
  181.0750  179.8590  137.8020 C   0  0  0  0  0  0  0  0  0  0  0  0
  178.9330  181.4440  138.5710 C   0  0  0  0  0  3  0  0  0  0  0  0
  179.0030  180.9690  137.2490 C   0  0  0  0  0  3  0  0  0  0  0  0
  182.1350  178.8540  137.5040 C   0  0  1  0  0  3  0  0  0  0  0  0
  179.4930  179.7780  134.5940 O   0  0  0  0  0  0  0  0  0  0  0  0
  182.8400  178.6070  138.8010 C   0  0  2  0  0  3  0  0  0  0  0  0
  180.8750  178.1890  135.5600 O   0  0  0  0  0  0  0  0  0  0  0  0
  180.9990  180.3010  139.1100 C   0  0  0  0  0  0  0  0  0  0  0  0
  180.5140  177.0710  137.5690 O   0  0  0  0  0  0  0  0  0  0  0  0
  180.8060  175.7050  137.6100 C   0  0  1  0  0  3  0  0  0  0  0  0
  182.1330  175.4830  136.8870 C   0  0  0  0  0  2  0  0  0  0  0  0
  183.1710  174.9010  137.8430 C   0  0  0  0  0  2  0  0  0  0  0  0
  184.1720  174.0740  137.0630 C   0  0  0  0  0  1  0  0  0  0  0  0
  180.8990  175.2940  138.9410 O   0  0  0  0  0  0  0  0  0  0  0  0
  180.1400  176.2040  139.6880 C   0  0  0  0  0  2  0  0  0  0  0  0
  179.2020  175.4360  141.7580 O   0  0  0  0  0  1  0  0  0  0  0  0
  179.0020  175.4710  140.3750 C   0  0  0  0  0  2  0  0  0  0  0  0
  185.7290  179.7820  142.4130 N   0  0  0  0  0  2  0  0  0  0  0  0
  185.8620  179.0030  144.6310 O   0  0  0  0  0  0  0  0  0  0  0  0
  183.5550  179.1080  145.1890 C   0  0  0  0  0  2  0  0  0  0  0  0
  185.2180  179.9120  143.7830 C   0  0  2  0  0  3  0  0  0  0  0  0
  184.8660  178.4170  145.4300 C   0  0  2  0  0  3  0  0  0  0  0  0
  183.7330  179.6360  143.8160 C   0  0  0  0  0  2  0  0  0  0  0  0
  185.3140  178.4570  146.8780 C   0  0  0  0  0  2  0  0  0  0  0  0
  186.4760  177.6420  147.1140 N   0  0  0  0  0  0  0  0  0  0  0  0
  187.6480  178.1520  147.2690 C   0  0  0  0  0  3  0  0  0  0  0  0
  191.7860  176.9940  147.1400 C   0  0  2  0  0  3  0  0  0  0  0  0
  191.1200  177.2970  148.4830 C   0  0  2  0  0  3  0  0  0  0  0  0
  188.6340  176.2090  145.3970 O   0  0  0  0  0  0  0  0  0  0  0  0
  189.8540  178.0970  148.2910 C   0  0  0  0  0  2  0  0  0  0  0  0
  188.8200  177.2660  147.5430 C   0  0  2  0  0  3  0  0  0  0  0  0
  190.8270  176.6130  146.0850 N   0  0  0  0  0  0  0  0  0  0  0  0
  191.3320  176.3460  144.7460 C   0  0  0  0  0  1  0  0  0  0  0  0
  189.3990  176.6880  146.2800 C   0  0  0  0  0  0  0  0  0  0  0  0
  192.0030  178.0080  149.3080 O   0  0  0  0  0  1  0  0  0  0  0  0
  193.1270  175.7630  148.7030 O   0  0  0  0  0  1  0  0  0  0  0  0
  192.8220  175.8930  147.3410 C   0  0  0  0  0  2  0  0  0  0  0  0
  1 27  1  6  0  0  0
  1 51  1  0  0  0  0
  2  3  1  0  0  0  0
  2  5  1  0  0  0  0
  3  1  1  1  0  0  0
  3  6  1  0  0  0  0
  4  8  1  6  0  0  0
  4  5  1  0  0  0  0
  4  6  1  0  0  0  0
  7  9  2  0  0  0  0
  7  8  1  0  0  0  0
 11 10  1  1  0  0  0
 11  7  1  0  0  0  0
 12 11  1  0  0  0  0
 13 14  1  6  0  0  0
 13 12  1  0  0  0  0
 16 15  1  6  0  0  0
 16 13  1  0  0  0  0
 16 17  1  0  0  0  0
 17 18  1  1  0  0  0
 19 21  1  0  0  0  0
 19 17  1  0  0  0  0
 21 20  1  6  0  0  0
 22 21  1  0  0  0  0
 23 25  2  0  0  0  0
 25 22  1  0  0  0  0
 25 24  1  0  0  0  0
 26 27  2  0  0  0  0
 28 29  1  0  0  0  0
 29 36  2  0  0  0  0
 29 34  1  0  0  0  0
 30 37  1  0  0  0  0
 30 42  1  1  0  0  0
 33 26  1  0  0  0  0
 34 41  2  0  0  0  0
 35 31  2  0  0  0  0
 36 35  1  0  0  0  0
 37 34  1  1  0  0  0
 37 39  1  0  0  0  0
 38 28  2  0  0  0  0
 39 33  1  6  0  0  0
 39 32  1  0  0  0  0
 40 28  1  0  0  0  0
 40 30  1  0  0  0  0
 41 31  1  0  0  0  0
 41 32  1  0  0  0  0
 42 43  1  0  0  0  0
 43 44  1  6  0  0  0
 43 47  1  0  0  0  0
 44 45  1  0  0  0  0
 46 45  1  0  0  0  0
 47 48  1  0  0  0  0
 48 50  1  0  0  0  0
 50 49  1  0  0  0  0
 52 55  1  0  0  0  0
 53 55  1  0  0  0  0
 54 51  1  6  0  0  0
 54 56  1  0  0  0  0
 54 52  1  0  0  0  0
 55 57  1  1  0  0  0
 56 53  1  0  0  0  0
 57 58  1  0  0  0  0
 58 59  2  0  0  0  0
 60 70  1  1  0  0  0
 60 61  1  0  0  0  0
 61 68  1  1  0  0  0
 62 67  2  0  0  0  0
 63 61  1  0  0  0  0
 64 59  1  6  0  0  0
 64 63  1  0  0  0  0
 65 67  1  0  0  0  0
 65 60  1  0  0  0  0
 66 65  1  0  0  0  0
 67 64  1  0  0  0  0
 70 69  1  0  0  0  0
M  END
>  <MODEL>
2

>  <REMARK>
 VINA RESULT:      -4.6      2.772      9.565
  Name = 
  26 active torsions:
  status: ('A' for Active; 'I' for Inactive)
    1  A    between atoms: C_1  and  C_28
    2  A    between atoms: C_1  and  C_69
    3  A    between atoms: C_2  and  O_10
    4  A    between atoms: C_2  and  C_39
    5  A    between atoms: C_2  and  O_59
    6  A    between atoms: N_4  and  C_18
    7  A    between atoms: C_6  and  C_39
    8  A    between atoms: O_10  and  C_29
    9  A    between atoms: C_11  and  C_29
   10  A    between atoms: C_12  and  O_24
   11  A    between atoms: C_12  and  C_28
   12  A    between atoms: C_13  and  C_67
   13  A    between atoms: C_15  and  C_35
   14  A    between atoms: N_16  and  C_44
   15  A    between atoms: N_16  and  C_54
   16  A    between atoms: C_17  and  C_26
   17  A    between atoms: C_18  and  C_47
   18  A    between atoms: C_20  and  O_59
   19  A    between atoms: O_24  and  C_65
   20  A    between atoms: C_26  and  C_69
   21  A    between atoms: N_30  and  C_54
   22  A    between atoms: C_31  and  C_54
   23  A    between atoms: C_37  and  N_55
   24  A    between atoms: C_38  and  C_49
   25  A    between atoms: C_38  and  C_65
   26  A    between atoms: C_48  and  C_64
                            x       y       z     vdW  Elec       q    Type
                         _______ _______ _______ _____ _____    ______ ____

>  <TORSDO>
F 26

$$$$
=
 OpenBabel11042413153D

 70 75  0  0  1  0  0  0  0  0999 V2000
  187.2820  178.9980  139.7640 C   0  0  2  0  0  3  0  0  0  0  0  0
  186.7410  178.2960  142.5410 S   0  0  0  0  0  0  0  0  0  0  0  0
  187.6570  178.2170  141.0060 C   0  0  1  0  0  3  0  0  0  0  0  0
  188.7990  176.5630  142.2580 C   0  0  1  0  0  3  0  0  0  0  0  0
  187.4820  176.6990  143.0100 C   0  0  0  0  0  2  0  0  0  0  0  0
  188.6320  177.3130  140.9780 C   0  0  0  0  0  2  0  0  0  0  0  0
  189.6280  177.9500  144.2000 C   0  0  0  0  0  0  0  0  0  0  0  0
  189.8610  177.1420  143.0530 N   0  0  0  0  0  2  0  0  0  0  0  0
  188.4620  178.0800  144.6710 O   0  0  0  0  0  0  0  0  0  0  0  0
  191.1830  179.9250  144.1140 C   0  0  0  0  0  1  0  0  0  0  0  0
  190.7900  178.6500  144.8360 C   0  0  2  0  0  3  0  0  0  0  0  0
  191.9560  177.6960  145.1330 C   0  0  0  0  0  2  0  0  0  0  0  0
  191.6020  176.3690  145.8400 C   0  0  2  0  0  3  0  0  0  0  0  0
  191.1670  175.3060  145.0270 O   0  0  0  0  0  1  0  0  0  0  0  0
  191.8680  177.2560  148.1940 C   0  0  0  0  0  1  0  0  0  0  0  0
  191.0210  176.4100  147.2660 C   0  0  1  0  0  3  0  0  0  0  0  0
  189.5280  176.8260  147.4270 C   0  0  1  0  0  3  0  0  0  0  0  0
  188.6690  175.7660  148.1380 C   0  0  0  0  0  1  0  0  0  0  0  0
  189.4680  178.0460  148.1350 O   0  0  0  0  0  0  0  0  0  0  0  0
  187.6200  177.5230  149.4240 O   0  0  0  0  0  1  0  0  0  0  0  0
  188.1020  178.3220  148.3860 C   0  0  2  0  0  3  0  0  0  0  0  0
  187.2870  178.0710  147.1140 C   0  0  0  0  0  2  0  0  0  0  0  0
  185.8870  180.1170  147.4740 O   0  0  0  0  0  1  0  0  0  0  0  0
  184.9320  178.1350  146.8170 O   0  0  0  0  0  0  0  0  0  0  0  0
  185.9710  178.7710  147.1520 C   0  0  0  0  0  0  0  0  0  0  0  0
  184.8770  178.4760  139.9600 C   0  0  0  0  0  3  0  0  0  0  0  0
  185.9370  178.7100  139.2440 N   0  0  0  0  0  0  0  0  0  0  0  0
  179.5710  177.2400  136.1600 C   0  0  0  0  0  0  0  0  0  0  0  0
  180.0920  178.6180  136.1300 C   0  0  0  0  0  0  0  0  0  0  0  0
  180.6040  176.9790  138.4060 C   0  0  2  0  0  3  0  0  0  0  0  0
  180.8620  181.2760  136.6040 C   0  0  0  0  0  3  0  0  0  0  0  0
  182.6010  180.4180  138.6520 S   0  0  0  0  0  0  0  0  0  0  0  0
  183.6160  177.9250  139.4150 C   0  0  0  0  0  2  0  0  0  0  0  0
  181.1460  178.9220  136.9930 C   0  0  0  0  0  0  0  0  0  0  0  0
  179.8470  180.9850  135.6690 C   0  0  0  0  0  3  0  0  0  0  0  0
  179.4610  179.6550  135.4250 C   0  0  0  0  0  3  0  0  0  0  0  0
  181.7370  177.8760  137.8760 C   0  0  1  0  0  3  0  0  0  0  0  0
  178.9310  176.7610  135.1950 O   0  0  0  0  0  0  0  0  0  0  0  0
  182.6040  178.6100  138.8510 C   0  0  2  0  0  3  0  0  0  0  0  0
  179.9230  176.4140  137.2600 O   0  0  0  0  0  0  0  0  0  0  0  0
  181.5130  180.2280  137.2560 C   0  0  0  0  0  0  0  0  0  0  0  0
  179.6960  177.7500  139.1530 O   0  0  0  0  0  0  0  0  0  0  0  0
  179.5230  177.0910  140.3730 C   0  0  1  0  0  3  0  0  0  0  0  0
  179.5930  175.5880  140.1140 C   0  0  0  0  0  2  0  0  0  0  0  0
  179.4410  174.8140  141.4210 C   0  0  0  0  0  2  0  0  0  0  0  0
  178.9810  173.4010  141.1230 C   0  0  0  0  0  1  0  0  0  0  0  0
  180.5340  177.4830  141.2540 O   0  0  0  0  0  0  0  0  0  0  0  0
  179.8920  177.9570  142.4050 C   0  0  0  0  0  2  0  0  0  0  0  0
  181.1690  179.0920  144.0880 O   0  0  0  0  0  1  0  0  0  0  0  0
  180.5410  179.2550  142.8500 C   0  0  0  0  0  2  0  0  0  0  0  0
  188.2630  178.7600  138.6850 N   0  0  0  0  0  2  0  0  0  0  0  0
  188.5680  176.6990  137.5880 O   0  0  0  0  0  0  0  0  0  0  0  0
  187.6680  177.2820  135.4680 C   0  0  0  0  0  2  0  0  0  0  0  0
  187.7060  177.7920  137.7320 C   0  0  2  0  0  3  0  0  0  0  0  0
  188.6520  176.4280  136.2120 C   0  0  2  0  0  3  0  0  0  0  0  0
  187.5130  178.4400  136.3810 C   0  0  0  0  0  2  0  0  0  0  0  0
  188.4480  174.9400  135.9940 C   0  0  0  0  0  2  0  0  0  0  0  0
  187.2030  174.4730  136.5440 N   0  0  0  0  0  0  0  0  0  0  0  0
  186.1480  174.3260  135.8200 C   0  0  0  0  0  3  0  0  0  0  0  0
  182.3650  172.2850  135.8360 C   0  0  2  0  0  3  0  0  0  0  0  0
  183.5300  171.7390  136.6640 C   0  0  2  0  0  3  0  0  0  0  0  0
  183.6480  175.7390  135.7270 O   0  0  0  0  0  0  0  0  0  0  0  0
  184.8450  172.3060  136.1860 C   0  0  0  0  0  2  0  0  0  0  0  0
  184.8860  173.8080  136.4310 C   0  0  2  0  0  3  0  0  0  0  0  0
  182.4830  173.7260  135.5420 N   0  0  0  0  0  0  0  0  0  0  0  0
  181.4600  174.3560  134.7200 C   0  0  0  0  0  1  0  0  0  0  0  0
  183.6660  174.4840  135.8680 C   0  0  0  0  0  0  0  0  0  0  0  0
  183.5650  170.3400  136.5810 O   0  0  0  0  0  1  0  0  0  0  0  0
  180.5380  170.7630  136.1590 O   0  0  0  0  0  1  0  0  0  0  0  0
  181.0600  171.9960  136.5720 C   0  0  0  0  0  2  0  0  0  0  0  0
  1 51  1  6  0  0  0
  2  5  1  0  0  0  0
  3  1  1  6  0  0  0
  3  2  1  0  0  0  0
  4  5  1  0  0  0  0
  4  8  1  1  0  0  0
  6  3  1  0  0  0  0
  6  4  1  0  0  0  0
  7  9  2  0  0  0  0
  7 11  1  0  0  0  0
  8  7  1  0  0  0  0
 11 10  1  6  0  0  0
 11 12  1  0  0  0  0
 12 13  1  0  0  0  0
 13 14  1  6  0  0  0
 13 16  1  0  0  0  0
 16 17  1  0  0  0  0
 16 15  1  1  0  0  0
 17 19  1  0  0  0  0
 17 18  1  1  0  0  0
 19 21  1  0  0  0  0
 21 20  1  1  0  0  0
 22 25  1  0  0  0  0
 22 21  1  0  0  0  0
 24 25  2  0  0  0  0
 25 23  1  0  0  0  0
 27  1  1  0  0  0  0
 27 26  2  0  0  0  0
 28 40  1  0  0  0  0
 29 28  1  0  0  0  0
 29 34  1  0  0  0  0
 30 42  1  6  0  0  0
 31 41  1  0  0  0  0
 32 39  1  0  0  0  0
 33 26  1  0  0  0  0
 34 41  2  0  0  0  0
 35 31  2  0  0  0  0
 36 35  1  0  0  0  0
 36 29  2  0  0  0  0
 37 34  1  6  0  0  0
 37 30  1  0  0  0  0
 37 39  1  0  0  0  0
 38 28  2  0  0  0  0
 39 33  1  6  0  0  0
 40 30  1  0  0  0  0
 41 32  1  0  0  0  0
 42 43  1  0  0  0  0
 43 44  1  6  0  0  0
 43 47  1  0  0  0  0
 44 45  1  0  0  0  0
 46 45  1  0  0  0  0
 47 48  1  0  0  0  0
 48 50  1  0  0  0  0
 50 49  1  0  0  0  0
 52 54  1  0  0  0  0
 53 55  1  0  0  0  0
 53 56  1  0  0  0  0
 54 51  1  1  0  0  0
 55 57  1  1  0  0  0
 55 52  1  0  0  0  0
 56 54  1  0  0  0  0
 57 58  1  0  0  0  0
 59 58  2  0  0  0  0
 60 70  1  1  0  0  0
 60 61  1  0  0  0  0
 61 68  1  6  0  0  0
 62 67  2  0  0  0  0
 63 64  1  0  0  0  0
 63 61  1  0  0  0  0
 64 59  1  6  0  0  0
 65 60  1  0  0  0  0
 65 67  1  0  0  0  0
 66 65  1  0  0  0  0
 67 64  1  0  0  0  0
 69 70  1  0  0  0  0
M  END
>  <MODEL>
3

>  <REMARK>
 VINA RESULT:      -4.6      3.948      6.926
  Name = 
  26 active torsions:
  status: ('A' for Active; 'I' for Inactive)
    1  A    between atoms: C_1  and  C_28
    2  A    between atoms: C_1  and  C_69
    3  A    between atoms: C_2  and  O_10
    4  A    between atoms: C_2  and  C_39
    5  A    between atoms: C_2  and  O_59
    6  A    between atoms: N_4  and  C_18
    7  A    between atoms: C_6  and  C_39
    8  A    between atoms: O_10  and  C_29
    9  A    between atoms: C_11  and  C_29
   10  A    between atoms: C_12  and  O_24
   11  A    between atoms: C_12  and  C_28
   12  A    between atoms: C_13  and  C_67
   13  A    between atoms: C_15  and  C_35
   14  A    between atoms: N_16  and  C_44
   15  A    between atoms: N_16  and  C_54
   16  A    between atoms: C_17  and  C_26
   17  A    between atoms: C_18  and  C_47
   18  A    between atoms: C_20  and  O_59
   19  A    between atoms: O_24  and  C_65
   20  A    between atoms: C_26  and  C_69
   21  A    between atoms: N_30  and  C_54
   22  A    between atoms: C_31  and  C_54
   23  A    between atoms: C_37  and  N_55
   24  A    between atoms: C_38  and  C_49
   25  A    between atoms: C_38  and  C_65
   26  A    between atoms: C_48  and  C_64
                            x       y       z     vdW  Elec       q    Type
                         _______ _______ _______ _____ _____    ______ ____

>  <TORSDO>
F 26

$$$$
=
 OpenBabel11042413153D

 70 75  0  0  1  0  0  0  0  0999 V2000
  186.1480  178.3210  141.9520 C   0  0  2  0  0  3  0  0  0  0  0  0
  188.7580  179.2660  141.0600 S   0  0  0  0  0  0  0  0  0  0  0  0
  187.6070  178.0360  141.6640 C   0  0  1  0  0  3  0  0  0  0  0  0
  189.6200  176.7890  141.7230 C   0  0  1  0  0  3  0  0  0  0  0  0
  190.1210  178.2260  141.6770 C   0  0  0  0  0  2  0  0  0  0  0  0
  188.1510  176.8630  141.9770 C   0  0  0  0  0  2  0  0  0  0  0  0
  190.5770  176.7950  139.3840 C   0  0  0  0  0  0  0  0  0  0  0  0
  189.8850  176.1540  140.4490 N   0  0  0  0  0  2  0  0  0  0  0  0
  191.1310  177.9170  139.5590 O   0  0  0  0  0  0  0  0  0  0  0  0
  189.2680  175.6730  137.5530 C   0  0  0  0  0  1  0  0  0  0  0  0
  190.6310  176.1170  138.0490 C   0  0  2  0  0  3  0  0  0  0  0  0
  191.7200  175.0370  137.9850 C   0  0  0  0  0  2  0  0  0  0  0  0
  192.1160  174.5340  136.5800 C   0  0  2  0  0  3  0  0  0  0  0  0
  191.8160  175.3740  135.4910 O   0  0  0  0  0  1  0  0  0  0  0  0
  191.2080  172.6870  135.1100 C   0  0  0  0  0  1  0  0  0  0  0  0
  192.0970  173.0220  136.2910 C   0  0  1  0  0  3  0  0  0  0  0  0
  193.4670  172.3010  136.1110 C   0  0  1  0  0  3  0  0  0  0  0  0
  193.3350  170.8030  135.7870 C   0  0  0  0  0  1  0  0  0  0  0  0
  194.1940  172.9520  135.0890 O   0  0  0  0  0  0  0  0  0  0  0  0
  195.2860  174.8330  135.8760 O   0  0  0  0  0  1  0  0  0  0  0  0
  195.3820  173.4560  135.6710 C   0  0  2  0  0  3  0  0  0  0  0  0
  196.5700  173.1470  134.7550 C   0  0  0  0  0  2  0  0  0  0  0  0
  198.5970  173.3010  136.2180 O   0  0  0  0  0  1  0  0  0  0  0  0
  198.1820  174.8850  134.6090 O   0  0  0  0  0  0  0  0  0  0  0  0
  197.8130  173.8360  135.2080 C   0  0  0  0  0  0  0  0  0  0  0  0
  185.2710  178.3250  139.6430 C   0  0  0  0  0  3  0  0  0  0  0  0
  185.2250  177.9210  140.8790 N   0  0  0  0  0  0  0  0  0  0  0  0
  180.0120  179.1920  135.6810 C   0  0  0  0  0  0  0  0  0  0  0  0
  180.0310  179.9810  136.9260 C   0  0  0  0  0  0  0  0  0  0  0  0
  181.5090  177.5470  136.7880 C   0  0  2  0  0  3  0  0  0  0  0  0
  179.9620  180.9750  139.5500 C   0  0  0  0  0  3  0  0  0  0  0  0
  182.2660  179.4790  140.1890 S   0  0  0  0  0  0  0  0  0  0  0  0
  184.1790  178.1220  138.6660 C   0  0  0  0  0  2  0  0  0  0  0  0
  181.0780  179.7430  137.8170 C   0  0  0  0  0  0  0  0  0  0  0  0
  178.9310  181.2920  138.6420 C   0  0  0  0  0  3  0  0  0  0  0  0
  178.9640  180.8000  137.3250 C   0  0  0  0  0  3  0  0  0  0  0  0
  182.1480  178.7570  137.4930 C   0  0  1  0  0  3  0  0  0  0  0  0
  179.3820  179.5820  134.6700 O   0  0  0  0  0  0  0  0  0  0  0  0
  182.9050  178.5440  138.7660 C   0  0  2  0  0  3  0  0  0  0  0  0
  180.8330  178.0370  135.6060 O   0  0  0  0  0  0  0  0  0  0  0  0
  181.0400  180.2020  139.1200 C   0  0  0  0  0  0  0  0  0  0  0  0
  180.5700  176.9400  137.6420 O   0  0  0  0  0  0  0  0  0  0  0  0
  181.2280  175.8770  138.2660 C   0  0  1  0  0  3  0  0  0  0  0  0
  180.9840  175.9860  139.7700 C   0  0  0  0  0  2  0  0  0  0  0  0
  179.4920  176.1220  140.0600 C   0  0  0  0  0  2  0  0  0  0  0  0
  179.2570  177.3210  140.9560 C   0  0  0  0  0  1  0  0  0  0  0  0
  180.7220  174.6720  137.7750 O   0  0  0  0  0  0  0  0  0  0  0  0
  181.6680  174.1890  136.8620 C   0  0  0  0  0  2  0  0  0  0  0  0
  180.2600  172.2980  136.4190 O   0  0  0  0  0  1  0  0  0  0  0  0
  181.5590  172.6780  136.7690 C   0  0  0  0  0  2  0  0  0  0  0  0
  185.9450  179.7560  142.2340 N   0  0  0  0  0  2  0  0  0  0  0  0
  186.0660  178.9930  144.4580 O   0  0  0  0  0  0  0  0  0  0  0  0
  183.7650  179.1670  145.0250 C   0  0  0  0  0  2  0  0  0  0  0  0
  185.4430  179.9120  143.6050 C   0  0  2  0  0  3  0  0  0  0  0  0
  185.0570  178.4420  145.2660 C   0  0  2  0  0  3  0  0  0  0  0  0
  183.9510  179.6780  143.6460 C   0  0  0  0  0  2  0  0  0  0  0  0
  185.5120  178.4820  146.7130 C   0  0  0  0  0  2  0  0  0  0  0  0
  186.7000  177.7000  146.9330 N   0  0  0  0  0  0  0  0  0  0  0  0
  187.6870  178.1400  147.6330 C   0  0  0  0  0  3  0  0  0  0  0  0
  191.8380  177.0610  147.3330 C   0  0  2  0  0  3  0  0  0  0  0  0
  191.2240  177.3600  148.7010 C   0  0  2  0  0  3  0  0  0  0  0  0
  188.6290  176.2040  145.7310 O   0  0  0  0  0  0  0  0  0  0  0  0
  189.9350  178.1340  148.5590 C   0  0  0  0  0  2  0  0  0  0  0  0
  188.8870  177.2790  147.8610 C   0  0  2  0  0  3  0  0  0  0  0  0
  190.8410  176.6550  146.3220 N   0  0  0  0  0  0  0  0  0  0  0  0
  191.2930  176.3880  144.9640 C   0  0  0  0  0  1  0  0  0  0  0  0
  189.4220  176.7040  146.5770 C   0  0  0  0  0  0  0  0  0  0  0  0
  192.1270  178.0930  149.4840 O   0  0  0  0  0  1  0  0  0  0  0  0
  192.8830  175.4820  148.8050 O   0  0  0  0  0  1  0  0  0  0  0  0
  192.9020  175.9810  147.4960 C   0  0  0  0  0  2  0  0  0  0  0  0
  1 27  1  6  0  0  0
  1 51  1  0  0  0  0
  2  3  1  0  0  0  0
  2  5  1  0  0  0  0
  3  1  1  1  0  0  0
  3  6  1  0  0  0  0
  4  8  1  6  0  0  0
  4  6  1  0  0  0  0
  5  4  1  0  0  0  0
  7  9  2  0  0  0  0
  7  8  1  0  0  0  0
 11 10  1  1  0  0  0
 11  7  1  0  0  0  0
 12 11  1  0  0  0  0
 13 14  1  6  0  0  0
 13 12  1  0  0  0  0
 16 15  1  6  0  0  0
 16 13  1  0  0  0  0
 17 18  1  6  0  0  0
 17 16  1  0  0  0  0
 19 21  1  0  0  0  0
 19 17  1  0  0  0  0
 21 20  1  6  0  0  0
 22 25  1  0  0  0  0
 22 21  1  0  0  0  0
 24 25  2  0  0  0  0
 25 23  1  0  0  0  0
 26 27  2  0  0  0  0
 28 29  1  0  0  0  0
 29 36  2  0  0  0  0
 29 34  1  0  0  0  0
 30 37  1  0  0  0  0
 30 42  1  1  0  0  0
 33 26  1  0  0  0  0
 34 41  2  0  0  0  0
 35 31  2  0  0  0  0
 36 35  1  0  0  0  0
 37 34  1  1  0  0  0
 37 39  1  0  0  0  0
 38 28  2  0  0  0  0
 39 33  1  6  0  0  0
 39 32  1  0  0  0  0
 40 28  1  0  0  0  0
 40 30  1  0  0  0  0
 41 31  1  0  0  0  0
 41 32  1  0  0  0  0
 42 43  1  0  0  0  0
 43 44  1  1  0  0  0
 44 45  1  0  0  0  0
 45 46  1  0  0  0  0
 47 43  1  0  0  0  0
 48 47  1  0  0  0  0
 49 50  1  0  0  0  0
 50 48  1  0  0  0  0
 52 55  1  0  0  0  0
 53 55  1  0  0  0  0
 54 51  1  6  0  0  0
 54 56  1  0  0  0  0
 54 52  1  0  0  0  0
 55 57  1  1  0  0  0
 56 53  1  0  0  0  0
 57 58  1  0  0  0  0
 58 59  2  0  0  0  0
 60 70  1  1  0  0  0
 60 61  1  0  0  0  0
 61 68  1  1  0  0  0
 62 67  2  0  0  0  0
 63 61  1  0  0  0  0
 64 59  1  6  0  0  0
 64 63  1  0  0  0  0
 65 67  1  0  0  0  0
 65 60  1  0  0  0  0
 66 65  1  0  0  0  0
 67 64  1  0  0  0  0
 70 69  1  0  0  0  0
M  END
>  <MODEL>
4

>  <REMARK>
 VINA RESULT:      -3.9      2.670      9.689
  Name = 
  26 active torsions:
  status: ('A' for Active; 'I' for Inactive)
    1  A    between atoms: C_1  and  C_28
    2  A    between atoms: C_1  and  C_69
    3  A    between atoms: C_2  and  O_10
    4  A    between atoms: C_2  and  C_39
    5  A    between atoms: C_2  and  O_59
    6  A    between atoms: N_4  and  C_18
    7  A    between atoms: C_6  and  C_39
    8  A    between atoms: O_10  and  C_29
    9  A    between atoms: C_11  and  C_29
   10  A    between atoms: C_12  and  O_24
   11  A    between atoms: C_12  and  C_28
   12  A    between atoms: C_13  and  C_67
   13  A    between atoms: C_15  and  C_35
   14  A    between atoms: N_16  and  C_44
   15  A    between atoms: N_16  and  C_54
   16  A    between atoms: C_17  and  C_26
   17  A    between atoms: C_18  and  C_47
   18  A    between atoms: C_20  and  O_59
   19  A    between atoms: O_24  and  C_65
   20  A    between atoms: C_26  and  C_69
   21  A    between atoms: N_30  and  C_54
   22  A    between atoms: C_31  and  C_54
   23  A    between atoms: C_37  and  N_55
   24  A    between atoms: C_38  and  C_49
   25  A    between atoms: C_38  and  C_65
   26  A    between atoms: C_48  and  C_64
                            x       y       z     vdW  Elec       q    Type
                         _______ _______ _______ _____ _____    ______ ____

>  <TORSDO>
F 26

$$$$
=
 OpenBabel11042413153D

 70 75  0  0  1  0  0  0  0  0999 V2000
  189.5580  175.7950  138.2510 C   0  0  2  0  0  3  0  0  0  0  0  0
  189.8210  178.4220  139.4870 S   0  0  0  0  0  0  0  0  0  0  0  0
  188.9330  176.9420  139.0170 C   0  0  1  0  0  3  0  0  0  0  0  0
  187.1620  178.2150  139.9410 C   0  0  1  0  0  3  0  0  0  0  0  0
  188.2190  179.2740  139.6550 C   0  0  0  0  0  2  0  0  0  0  0  0
  187.6280  176.9650  139.2710 C   0  0  0  0  0  2  0  0  0  0  0  0
  185.8390  178.1130  142.0910 C   0  0  0  0  0  0  0  0  0  0  0  0
  187.0630  178.0200  141.3720 N   0  0  0  0  0  2  0  0  0  0  0  0
  184.7390  178.2270  141.4800 O   0  0  0  0  0  0  0  0  0  0  0  0
  185.5960  179.4290  144.2200 C   0  0  0  0  0  1  0  0  0  0  0  0
  185.8800  178.0800  143.5890 C   0  0  2  0  0  3  0  0  0  0  0  0
  187.1320  177.3710  144.1240 C   0  0  0  0  0  2  0  0  0  0  0  0
  187.5050  177.6400  145.5980 C   0  0  2  0  0  3  0  0  0  0  0  0
  186.5200  178.2370  146.4080 O   0  0  0  0  0  1  0  0  0  0  0  0
  189.5300  176.9990  146.9710 C   0  0  0  0  0  1  0  0  0  0  0  0
  188.9650  177.9720  145.9550 C   0  0  1  0  0  3  0  0  0  0  0  0
  189.9810  178.1230  144.7830 C   0  0  1  0  0  3  0  0  0  0  0  0
  190.5670  179.5400  144.6580 C   0  0  0  0  0  1  0  0  0  0  0  0
  191.0220  177.1860  144.9580 O   0  0  0  0  0  0  0  0  0  0  0  0
  192.3160  178.3850  143.4620 O   0  0  0  0  0  1  0  0  0  0  0  0
  191.7560  177.1390  143.7480 C   0  0  2  0  0  3  0  0  0  0  0  0
  190.8310  176.7110  142.6050 C   0  0  0  0  0  2  0  0  0  0  0  0
  188.7030  175.4020  142.7870 O   0  0  0  0  0  0  0  0  0  0  0  0
  190.7250  174.4400  143.2940 O   0  0  0  0  0  1  0  0  0  0  0  0
  190.0800  175.4660  142.9360 C   0  0  0  0  0  0  0  0  0  0  0  0
  191.6520  175.3370  137.0250 C   0  0  0  0  0  3  0  0  0  0  0  0
  190.9860  175.9720  137.9430 N   0  0  0  0  0  0  0  0  0  0  0  0
  197.9360  173.9550  135.3780 C   0  0  0  0  0  0  0  0  0  0  0  0
  196.9890  172.8260  135.3500 C   0  0  0  0  0  0  0  0  0  0  0  0
  196.4320  175.0810  137.0040 C   0  0  2  0  0  3  0  0  0  0  0  0
  195.2030  170.7240  135.8720 C   0  0  0  0  0  3  0  0  0  0  0  0
  193.3540  172.5510  136.9660 S   0  0  0  0  0  0  0  0  0  0  0  0
  193.1280  175.3390  136.9240 C   0  0  0  0  0  2  0  0  0  0  0  0
  195.6860  173.0750  135.7840 C   0  0  0  0  0  0  0  0  0  0  0  0
  196.4890  170.4540  135.3590 C   0  0  0  0  0  3  0  0  0  0  0  0
  197.3850  171.5050  135.0920 C   0  0  0  0  0  3  0  0  0  0  0  0
  195.2730  174.4400  136.2200 C   0  0  1  0  0  3  0  0  0  0  0  0
  198.9700  173.9580  134.6690 O   0  0  0  0  0  0  0  0  0  0  0  0
  193.9440  174.2700  136.8880 C   0  0  2  0  0  3  0  0  0  0  0  0
  197.5870  175.1040  136.1330 O   0  0  0  0  0  0  0  0  0  0  0  0
  194.8090  172.0470  136.0730 C   0  0  0  0  0  0  0  0  0  0  0  0
  196.7220  174.3060  138.1410 O   0  0  0  0  0  0  0  0  0  0  0  0
  196.7620  175.1870  139.2250 C   0  0  1  0  0  3  0  0  0  0  0  0
  195.3590  175.2620  139.8250 C   0  0  0  0  0  2  0  0  0  0  0  0
  194.9330  176.7160  140.0050 C   0  0  0  0  0  2  0  0  0  0  0  0
  193.4300  176.7850  140.1850 C   0  0  0  0  0  1  0  0  0  0  0  0
  197.6740  174.7130  140.1700 O   0  0  0  0  0  0  0  0  0  0  0  0
  197.9380  175.7840  141.0340 C   0  0  0  0  0  2  0  0  0  0  0  0
  198.4450  176.2800  143.3260 O   0  0  0  0  0  1  0  0  0  0  0  0
  198.3780  175.2480  142.3840 C   0  0  0  0  0  2  0  0  0  0  0  0
  188.8320  175.5570  136.9870 N   0  0  0  0  0  2  0  0  0  0  0  0
  186.5890  176.1580  136.6000 O   0  0  0  0  0  0  0  0  0  0  0  0
  186.9510  177.9320  135.0610 C   0  0  0  0  0  2  0  0  0  0  0  0
  187.8870  176.6570  136.7600 C   0  0  2  0  0  3  0  0  0  0  0  0
  186.0260  176.8380  135.5060 C   0  0  2  0  0  3  0  0  0  0  0  0
  188.2680  177.4270  135.5180 C   0  0  0  0  0  2  0  0  0  0  0  0
  184.6460  177.3330  135.8960 C   0  0  0  0  0  2  0  0  0  0  0  0
  183.6400  176.3120  135.7600 N   0  0  0  0  0  0  0  0  0  0  0  0
  183.8480  175.2340  135.0880 C   0  0  0  0  0  3  0  0  0  0  0  0
  181.3150  172.1020  136.5910 C   0  0  2  0  0  3  0  0  0  0  0  0
  180.7000  173.4190  136.1160 C   0  0  2  0  0  3  0  0  0  0  0  0
  184.3940  172.4570  134.5940 O   0  0  0  0  0  0  0  0  0  0  0  0
  181.7390  174.5130  136.0610 C   0  0  0  0  0  2  0  0  0  0  0  0
  182.7840  174.1880  135.0020 C   0  0  2  0  0  3  0  0  0  0  0  0
  182.6400  171.8300  136.0000 N   0  0  0  0  0  0  0  0  0  0  0  0
  183.3540  170.6290  136.4090 C   0  0  0  0  0  1  0  0  0  0  0  0
  183.3370  172.8010  135.1920 C   0  0  0  0  0  0  0  0  0  0  0  0
  179.6610  173.8020  136.9760 O   0  0  0  0  0  1  0  0  0  0  0  0
  180.8300  170.2110  135.1970 O   0  0  0  0  0  1  0  0  0  0  0  0
  180.3480  170.9650  136.2750 C   0  0  0  0  0  2  0  0  0  0  0  0
  1 51  1  6  0  0  0
  2  5  1  0  0  0  0
  3  1  1  6  0  0  0
  3  6  1  0  0  0  0
  3  2  1  0  0  0  0
  4  8  1  1  0  0  0
  5  4  1  0  0  0  0
  6  4  1  0  0  0  0
  7 11  1  0  0  0  0
  8  7  1  0  0  0  0
  9  7  2  0  0  0  0
 11 12  1  0  0  0  0
 11 10  1  1  0  0  0
 12 13  1  0  0  0  0
 13 16  1  0  0  0  0
 13 14  1  6  0  0  0
 16 15  1  1  0  0  0
 17 18  1  1  0  0  0
 17 19  1  0  0  0  0
 17 16  1  0  0  0  0
 21 20  1  6  0  0  0
 21 19  1  0  0  0  0
 22 25  1  0  0  0  0
 22 21  1  0  0  0  0
 23 25  2  0  0  0  0
 25 24  1  0  0  0  0
 26 27  2  0  0  0  0
 27  1  1  0  0  0  0
 28 40  1  0  0  0  0
 29 28  1  0  0  0  0
 29 34  1  0  0  0  0
 30 42  1  1  0  0  0
 31 41  1  0  0  0  0
 33 26  1  0  0  0  0
 34 41  2  0  0  0  0
 35 31  2  0  0  0  0
 36 29  2  0  0  0  0
 36 35  1  0  0  0  0
 37 34  1  1  0  0  0
 37 39  1  0  0  0  0
 37 30  1  0  0  0  0
 38 28  2  0  0  0  0
 39 33  1  6  0  0  0
 39 32  1  0  0  0  0
 40 30  1  0  0  0  0
 41 32  1  0  0  0  0
 42 43  1  0  0  0  0
 43 44  1  1  0  0  0
 43 47  1  0  0  0  0
 44 45  1  0  0  0  0
 45 46  1  0  0  0  0
 47 48  1  0  0  0  0
 48 50  1  0  0  0  0
 50 49  1  0  0  0  0
 52 54  1  0  0  0  0
 53 55  1  0  0  0  0
 53 56  1  0  0  0  0
 54 51  1  6  0  0  0
 55 57  1  1  0  0  0
 55 52  1  0  0  0  0
 56 54  1  0  0  0  0
 58 57  1  0  0  0  0
 59 58  2  0  0  0  0
 60 70  1  6  0  0  0
 61 60  1  0  0  0  0
 61 68  1  1  0  0  0
 62 67  2  0  0  0  0
 63 61  1  0  0  0  0
 64 59  1  1  0  0  0
 64 67  1  0  0  0  0
 64 63  1  0  0  0  0
 65 66  1  0  0  0  0
 65 60  1  0  0  0  0
 67 65  1  0  0  0  0
 69 70  1  0  0  0  0
M  END
>  <MODEL>
5

>  <REMARK>
 VINA RESULT:      -3.1      2.751     11.111
  Name = 
  26 active torsions:
  status: ('A' for Active; 'I' for Inactive)
    1  A    between atoms: C_1  and  C_28
    2  A    between atoms: C_1  and  C_69
    3  A    between atoms: C_2  and  O_10
    4  A    between atoms: C_2  and  C_39
    5  A    between atoms: C_2  and  O_59
    6  A    between atoms: N_4  and  C_18
    7  A    between atoms: C_6  and  C_39
    8  A    between atoms: O_10  and  C_29
    9  A    between atoms: C_11  and  C_29
   10  A    between atoms: C_12  and  O_24
   11  A    between atoms: C_12  and  C_28
   12  A    between atoms: C_13  and  C_67
   13  A    between atoms: C_15  and  C_35
   14  A    between atoms: N_16  and  C_44
   15  A    between atoms: N_16  and  C_54
   16  A    between atoms: C_17  and  C_26
   17  A    between atoms: C_18  and  C_47
   18  A    between atoms: C_20  and  O_59
   19  A    between atoms: O_24  and  C_65
   20  A    between atoms: C_26  and  C_69
   21  A    between atoms: N_30  and  C_54
   22  A    between atoms: C_31  and  C_54
   23  A    between atoms: C_37  and  N_55
   24  A    between atoms: C_38  and  C_49
   25  A    between atoms: C_38  and  C_65
   26  A    between atoms: C_48  and  C_64
                            x       y       z     vdW  Elec       q    Type
                         _______ _______ _______ _____ _____    ______ ____

>  <TORSDO>
F 26

$$$$
=
 OpenBabel11042413153D

 70 75  0  0  1  0  0  0  0  0999 V2000
  188.9140  177.7540  139.5550 C   0  0  2  0  0  3  0  0  0  0  0  0
  189.0290  175.8290  141.7410 S   0  0  0  0  0  0  0  0  0  0  0  0
  189.1070  177.4680  141.0290 C   0  0  1  0  0  3  0  0  0  0  0  0
  189.7270  177.9530  143.2630 C   0  0  1  0  0  3  0  0  0  0  0  0
  189.9740  176.4530  143.1670 C   0  0  0  0  0  2  0  0  0  0  0  0
  189.4820  178.4280  141.8700 C   0  0  0  0  0  2  0  0  0  0  0  0
  188.5470  177.9580  145.4980 C   0  0  0  0  0  0  0  0  0  0  0  0
  188.5650  178.1880  144.0940 N   0  0  0  0  0  2  0  0  0  0  0  0
  189.6100  177.6720  146.1180 O   0  0  0  0  0  0  0  0  0  0  0  0
  187.4080  178.2130  147.7260 C   0  0  0  0  0  1  0  0  0  0  0  0
  187.2410  178.0550  146.2260 C   0  0  2  0  0  3  0  0  0  0  0  0
  186.2520  176.9590  145.8030 C   0  0  0  0  0  2  0  0  0  0  0  0
  185.2250  177.3360  144.7130 C   0  0  2  0  0  3  0  0  0  0  0  0
  185.6770  177.3360  143.3800 O   0  0  0  0  0  1  0  0  0  0  0  0
  184.4310  179.1410  146.2980 C   0  0  0  0  0  1  0  0  0  0  0  0
  184.1110  178.3450  145.0480 C   0  0  1  0  0  3  0  0  0  0  0  0
  183.6630  179.3280  143.9260 C   0  0  1  0  0  3  0  0  0  0  0  0
  184.7510  180.3400  143.5250 C   0  0  0  0  0  1  0  0  0  0  0  0
  183.2640  178.5810  142.7960 O   0  0  0  0  0  0  0  0  0  0  0  0
  181.6520  179.8070  141.6770 O   0  0  0  0  0  1  0  0  0  0  0  0
  181.8760  178.7980  142.6150 C   0  0  2  0  0  3  0  0  0  0  0  0
  181.2400  179.1820  143.9540 C   0  0  0  0  0  2  0  0  0  0  0  0
  178.9740  179.0630  145.0160 O   0  0  0  0  0  1  0  0  0  0  0  0
  179.6220  177.5190  143.4450 O   0  0  0  0  0  0  0  0  0  0  0  0
  179.9120  178.5300  144.1440 C   0  0  0  0  0  0  0  0  0  0  0  0
  186.9280  177.7060  138.0880 C   0  0  0  0  0  3  0  0  0  0  0  0
  187.7080  177.1500  138.9680 N   0  0  0  0  0  0  0  0  0  0  0  0
  180.6150  177.1880  136.0910 C   0  0  0  0  0  0  0  0  0  0  0  0
  180.9960  178.4580  136.7360 C   0  0  0  0  0  0  0  0  0  0  0  0
  182.4890  176.0960  137.3030 C   0  0  2  0  0  3  0  0  0  0  0  0
  181.7360  180.5570  138.4470 C   0  0  0  0  0  3  0  0  0  0  0  0
  184.2070  179.2930  138.9470 S   0  0  0  0  0  0  0  0  0  0  0  0
  185.5890  177.1890  137.7270 C   0  0  0  0  0  2  0  0  0  0  0  0
  182.2910  178.5500  137.2480 C   0  0  0  0  0  0  0  0  0  0  0  0
  180.4460  180.5240  137.8780 C   0  0  0  0  0  3  0  0  0  0  0  0
  180.0730  179.4760  137.0170 C   0  0  0  0  0  3  0  0  0  0  0  0
  183.2510  177.4190  137.1080 C   0  0  1  0  0  3  0  0  0  0  0  0
  179.6650  177.1290  135.2750 O   0  0  0  0  0  0  0  0  0  0  0  0
  184.3970  177.7430  138.0150 C   0  0  2  0  0  3  0  0  0  0  0  0
  181.4330  176.0510  136.3140 O   0  0  0  0  0  0  0  0  0  0  0  0
  182.6570  179.5630  138.1150 C   0  0  0  0  0  0  0  0  0  0  0  0
  181.9230  176.0590  138.5890 O   0  0  0  0  0  0  0  0  0  0  0  0
  181.1140  174.9200  138.6360 C   0  0  1  0  0  3  0  0  0  0  0  0
  179.6580  175.3700  138.5360 C   0  0  0  0  0  2  0  0  0  0  0  0
  179.1690  175.8990  139.8810 C   0  0  0  0  0  2  0  0  0  0  0  0
  179.7300  177.2860  140.1150 C   0  0  0  0  0  1  0  0  0  0  0  0
  181.4410  174.0800  137.5700 O   0  0  0  0  0  0  0  0  0  0  0  0
  180.5910  172.9700  137.6670 C   0  0  0  0  0  2  0  0  0  0  0  0
  180.4610  172.2120  135.3950 O   0  0  0  0  0  1  0  0  0  0  0  0
  179.7500  172.8630  136.4080 C   0  0  0  0  0  2  0  0  0  0  0  0
  190.0890  177.3040  138.7810 N   0  0  0  0  0  2  0  0  0  0  0  0
  190.3450  175.9690  136.8580 O   0  0  0  0  0  0  0  0  0  0  0  0
  190.2720  177.6840  135.2160 C   0  0  0  0  0  2  0  0  0  0  0  0
  189.6920  177.0900  137.3830 C   0  0  2  0  0  3  0  0  0  0  0  0
  190.8040  176.3290  135.5790 C   0  0  2  0  0  3  0  0  0  0  0  0
  190.0510  178.2960  136.5480 C   0  0  0  0  0  2  0  0  0  0  0  0
  190.4130  175.2420  134.5960 C   0  0  0  0  0  2  0  0  0  0  0  0
  189.1450  174.6430  134.9190 N   0  0  0  0  0  0  0  0  0  0  0  0
  188.8610  173.4290  134.5960 C   0  0  0  0  0  3  0  0  0  0  0  0
  185.0650  173.3280  136.6120 C   0  0  2  0  0  3  0  0  0  0  0  0
  185.1160  173.3720  135.0840 C   0  0  2  0  0  3  0  0  0  0  0  0
  188.4460  171.9090  136.9980 O   0  0  0  0  0  0  0  0  0  0  0  0
  186.4660  173.8490  134.6020 C   0  0  0  0  0  2  0  0  0  0  0  0
  187.5420  172.8410  134.9810 C   0  0  2  0  0  3  0  0  0  0  0  0
  186.2970  172.7920  137.2220 N   0  0  0  0  0  0  0  0  0  0  0  0
  186.3920  172.7420  138.6740 C   0  0  0  0  0  1  0  0  0  0  0  0
  187.4780  172.5030  136.4460 C   0  0  0  0  0  0  0  0  0  0  0  0
  184.1160  174.2230  134.5940 O   0  0  0  0  0  1  0  0  0  0  0  0
  183.8250  171.2930  136.3310 O   0  0  0  0  0  1  0  0  0  0  0  0
  183.8560  172.5020  137.0400 C   0  0  0  0  0  2  0  0  0  0  0  0
  1 51  1  6  0  0  0
  2  5  1  0  0  0  0
  3  1  1  6  0  0  0
  3  2  1  0  0  0  0
  3  6  1  0  0  0  0
  4  8  1  1  0  0  0
  5  4  1  0  0  0  0
  6  4  1  0  0  0  0
  7  9  2  0  0  0  0
  7 11  1  0  0  0  0
  8  7  1  0  0  0  0
 11 10  1  1  0  0  0
 12 11  1  0  0  0  0
 13 14  1  6  0  0  0
 13 16  1  0  0  0  0
 13 12  1  0  0  0  0
 16 15  1  1  0  0  0
 17 18  1  6  0  0  0
 17 16  1  0  0  0  0
 19 17  1  0  0  0  0
 21 20  1  6  0  0  0
 21 19  1  0  0  0  0
 21 22  1  0  0  0  0
 22 25  1  0  0  0  0
 24 25  2  0  0  0  0
 25 23  1  0  0  0  0
 26 27  2  0  0  0  0
 27  1  1  0  0  0  0
 28 40  1  0  0  0  0
 28 29  1  0  0  0  0
 29 36  2  0  0  0  0
 29 34  1  0  0  0  0
 30 42  1  1  0  0  0
 33 26  1  0  0  0  0
 34 41  2  0  0  0  0
 35 31  2  0  0  0  0
 36 35  1  0  0  0  0
 37 34  1  1  0  0  0
 37 30  1  0  0  0  0
 37 39  1  0  0  0  0
 38 28  2  0  0  0  0
 39 33  1  6  0  0  0
 39 32  1  0  0  0  0
 40 30  1  0  0  0  0
 41 31  1  0  0  0  0
 41 32  1  0  0  0  0
 42 43  1  0  0  0  0
 43 44  1  6  0  0  0
 44 45  1  0  0  0  0
 45 46  1  0  0  0  0
 47 48  1  0  0  0  0
 47 43  1  0  0  0  0
 49 50  1  0  0  0  0
 50 48  1  0  0  0  0
 52 54  1  0  0  0  0
 53 55  1  0  0  0  0
 53 56  1  0  0  0  0
 54 51  1  1  0  0  0
 55 57  1  6  0  0  0
 55 52  1  0  0  0  0
 56 54  1  0  0  0  0
 57 58  1  0  0  0  0
 59 58  2  0  0  0  0
 60 70  1  6  0  0  0
 60 65  1  0  0  0  0
 61 68  1  1  0  0  0
 61 60  1  0  0  0  0
 63 64  1  0  0  0  0
 63 61  1  0  0  0  0
 64 59  1  1  0  0  0
 64 67  1  0  0  0  0
 65 66  1  0  0  0  0
 67 62  2  0  0  0  0
 67 65  1  0  0  0  0
 69 70  1  0  0  0  0
M  END
>  <MODEL>
6

>  <REMARK>
 VINA RESULT:      -2.7      3.288      5.938
  Name = 
  26 active torsions:
  status: ('A' for Active; 'I' for Inactive)
    1  A    between atoms: C_1  and  C_28
    2  A    between atoms: C_1  and  C_69
    3  A    between atoms: C_2  and  O_10
    4  A    between atoms: C_2  and  C_39
    5  A    between atoms: C_2  and  O_59
    6  A    between atoms: N_4  and  C_18
    7  A    between atoms: C_6  and  C_39
    8  A    between atoms: O_10  and  C_29
    9  A    between atoms: C_11  and  C_29
   10  A    between atoms: C_12  and  O_24
   11  A    between atoms: C_12  and  C_28
   12  A    between atoms: C_13  and  C_67
   13  A    between atoms: C_15  and  C_35
   14  A    between atoms: N_16  and  C_44
   15  A    between atoms: N_16  and  C_54
   16  A    between atoms: C_17  and  C_26
   17  A    between atoms: C_18  and  C_47
   18  A    between atoms: C_20  and  O_59
   19  A    between atoms: O_24  and  C_65
   20  A    between atoms: C_26  and  C_69
   21  A    between atoms: N_30  and  C_54
   22  A    between atoms: C_31  and  C_54
   23  A    between atoms: C_37  and  N_55
   24  A    between atoms: C_38  and  C_49
   25  A    between atoms: C_38  and  C_65
   26  A    between atoms: C_48  and  C_64
                            x       y       z     vdW  Elec       q    Type
                         _______ _______ _______ _____ _____    ______ ____

>  <TORSDO>
F 26

$$$$
=
 OpenBabel11042413153D

 70 75  0  0  1  0  0  0  0  0999 V2000
  186.8100  176.0300  137.4600 C   0  0  2  0  0  3  0  0  0  0  0  0
  187.3670  177.2110  134.8530 S   0  0  0  0  0  0  0  0  0  0  0  0
  187.8120  176.5870  136.4700 C   0  0  1  0  0  3  0  0  0  0  0  0
  189.9100  177.4200  135.7530 C   0  0  1  0  0  3  0  0  0  0  0  0
  188.9330  178.1410  134.8330 C   0  0  0  0  0  2  0  0  0  0  0  0
  189.0850  176.7650  136.8110 C   0  0  0  0  0  2  0  0  0  0  0  0
  191.6640  175.6140  135.5400 C   0  0  0  0  0  0  0  0  0  0  0  0
  190.6370  176.4290  134.9880 N   0  0  0  0  0  2  0  0  0  0  0  0
  191.8900  175.6150  136.7830 O   0  0  0  0  0  0  0  0  0  0  0  0
  192.1190  173.2860  134.7030 C   0  0  0  0  0  1  0  0  0  0  0  0
  192.4770  174.7580  134.6170 C   0  0  2  0  0  3  0  0  0  0  0  0
  193.9800  175.0600  134.7120 C   0  0  0  0  0  2  0  0  0  0  0  0
  194.8770  173.9380  135.2790 C   0  0  2  0  0  3  0  0  0  0  0  0
  194.8770  172.7090  134.5940 O   0  0  0  0  0  1  0  0  0  0  0  0
  193.8420  173.5320  137.5510 C   0  0  0  0  0  1  0  0  0  0  0  0
  195.1150  173.8640  136.7990 C   0  0  1  0  0  3  0  0  0  0  0  0
  196.2580  172.9350  137.3080 C   0  0  1  0  0  3  0  0  0  0  0  0
  195.8960  171.4400  137.2720 C   0  0  0  0  0  1  0  0  0  0  0  0
  197.4150  173.1680  136.5330 O   0  0  0  0  0  0  0  0  0  0  0  0
  198.5620  175.0500  135.8300 O   0  0  0  0  0  1  0  0  0  0  0  0
  197.9280  174.4330  136.9100 C   0  0  2  0  0  3  0  0  0  0  0  0
  198.9200  174.2590  138.0640 C   0  0  0  0  0  2  0  0  0  0  0  0
  197.2780  175.6830  139.3110 O   0  0  0  0  0  0  0  0  0  0  0  0
  199.1420  174.8430  140.3550 O   0  0  0  0  0  1  0  0  0  0  0  0
  198.4640  174.9640  139.2970 C   0  0  0  0  0  0  0  0  0  0  0  0
  185.3990  178.0550  137.3670 C   0  0  0  0  0  3  0  0  0  0  0  0
  185.5410  176.7730  137.5290 N   0  0  0  0  0  0  0  0  0  0  0  0
  179.7860  180.1160  140.2560 C   0  0  0  0  0  0  0  0  0  0  0  0
  180.0680  178.6720  140.3300 C   0  0  0  0  0  0  0  0  0  0  0  0
  181.2160  180.2160  138.2260 C   0  0  2  0  0  3  0  0  0  0  0  0
  180.4770  175.9270  139.9080 C   0  0  0  0  0  3  0  0  0  0  0  0
  182.6550  176.5010  138.2100 S   0  0  0  0  0  0  0  0  0  0  0  0
  184.1670  178.8000  137.7090 C   0  0  0  0  0  2  0  0  0  0  0  0
  181.1920  178.2050  139.6480 C   0  0  0  0  0  0  0  0  0  0  0  0
  179.3760  176.3730  140.6670 C   0  0  0  0  0  3  0  0  0  0  0  0
  179.1690  177.7470  140.8850 C   0  0  0  0  0  3  0  0  0  0  0  0
  182.0840  179.1450  138.9110 C   0  0  1  0  0  3  0  0  0  0  0  0
  179.0730  180.6880  141.1150 O   0  0  0  0  0  0  0  0  0  0  0  0
  182.9780  178.2850  138.0730 C   0  0  2  0  0  3  0  0  0  0  0  0
  180.4470  180.8780  139.2580 O   0  0  0  0  0  0  0  0  0  0  0  0
  181.3880  176.8580  139.4080 C   0  0  0  0  0  0  0  0  0  0  0  0
  180.3390  179.6060  137.3130 O   0  0  0  0  0  0  0  0  0  0  0  0
  180.1040  180.5390  136.3000 C   0  0  1  0  0  3  0  0  0  0  0  0
  180.9650  181.7690  136.5810 C   0  0  0  0  0  2  0  0  0  0  0  0
  180.5600  182.9240  135.6690 C   0  0  0  0  0  2  0  0  0  0  0  0
  180.5080  184.2090  136.4690 C   0  0  0  0  0  1  0  0  0  0  0  0
  180.4440  179.9760  135.0680 O   0  0  0  0  0  0  0  0  0  0  0  0
  180.9280  178.6900  135.3430 C   0  0  0  0  0  2  0  0  0  0  0  0
  178.9310  177.3690  135.4840 O   0  0  0  0  0  1  0  0  0  0  0  0
  180.0350  177.6590  134.6770 C   0  0  0  0  0  2  0  0  0  0  0  0
  187.3950  175.9750  138.8150 N   0  0  0  0  0  2  0  0  0  0  0  0
  189.3730  176.6460  139.9010 O   0  0  0  0  0  0  0  0  0  0  0  0
  188.9140  178.9700  140.0860 C   0  0  0  0  0  2  0  0  0  0  0  0
  188.4270  177.0120  138.9370 C   0  0  2  0  0  3  0  0  0  0  0  0
  189.6150  177.7870  140.6860 C   0  0  2  0  0  3  0  0  0  0  0  0
  187.8030  178.3260  139.3440 C   0  0  0  0  0  2  0  0  0  0  0  0
  191.1140  177.9770  140.8230 C   0  0  0  0  0  2  0  0  0  0  0  0
  191.5810  177.6950  142.1550 N   0  0  0  0  0  0  0  0  0  0  0  0
  190.8370  177.8690  143.1910 C   0  0  0  0  0  3  0  0  0  0  0  0
  191.0710  175.5960  146.8320 C   0  0  2  0  0  3  0  0  0  0  0  0
  192.2720  175.6470  145.8860 C   0  0  2  0  0  3  0  0  0  0  0  0
  189.5850  178.7470  145.6240 O   0  0  0  0  0  0  0  0  0  0  0  0
  191.8540  176.0940  144.5050 C   0  0  0  0  0  2  0  0  0  0  0  0
  191.3550  177.5320  144.5510 C   0  0  2  0  0  3  0  0  0  0  0  0
  190.1550  176.7420  146.6750 N   0  0  0  0  0  0  0  0  0  0  0  0
  188.9470  176.7870  147.4870 C   0  0  0  0  0  1  0  0  0  0  0  0
  190.3080  177.7110  145.6170 C   0  0  0  0  0  0  0  0  0  0  0  0
  192.8750  174.3840  145.8070 O   0  0  0  0  0  1  0  0  0  0  0  0
  192.7230  176.3090  148.4190 O   0  0  0  0  0  1  0  0  0  0  0  0
  191.5790  175.5130  148.2680 C   0  0  0  0  0  2  0  0  0  0  0  0
  1 27  1  1  0  0  0
  1 51  1  0  0  0  0
  2  3  1  0  0  0  0
  3  6  1  0  0  0  0
  3  1  1  1  0  0  0
  4  8  1  6  0  0  0
  4  6  1  0  0  0  0
  5  2  1  0  0  0  0
  5  4  1  0  0  0  0
  7  9  2  0  0  0  0
  8  7  1  0  0  0  0
 11 10  1  1  0  0  0
 11 12  1  0  0  0  0
 11  7  1  0  0  0  0
 12 13  1  0  0  0  0
 13 14  1  1  0  0  0
 13 16  1  0  0  0  0
 16 17  1  0  0  0  0
 16 15  1  1  0  0  0
 17 18  1  6  0  0  0
 19 21  1  0  0  0  0
 19 17  1  0  0  0  0
 21 20  1  6  0  0  0
 21 22  1  0  0  0  0
 22 25  1  0  0  0  0
 25 23  2  0  0  0  0
 25 24  1  0  0  0  0
 26 27  2  0  0  0  0
 26 33  1  0  0  0  0
 28 29  1  0  0  0  0
 28 38  2  0  0  0  0
 29 36  1  0  0  0  0
 30 42  1  6  0  0  0
 30 37  1  0  0  0  0
 30 40  1  0  0  0  0
 31 35  1  0  0  0  0
 32 41  1  0  0  0  0
 34 29  2  0  0  0  0
 35 36  2  0  0  0  0
 37 34  1  6  0  0  0
 39 33  1  1  0  0  0
 39 32  1  0  0  0  0
 39 37  1  0  0  0  0
 40 28  1  0  0  0  0
 41 34  1  0  0  0  0
 41 31  2  0  0  0  0
 43 44  1  1  0  0  0
 43 42  1  0  0  0  0
 45 46  1  0  0  0  0
 45 44  1  0  0  0  0
 47 48  1  0  0  0  0
 47 43  1  0  0  0  0
 50 48  1  0  0  0  0
 50 49  1  0  0  0  0
 52 55  1  0  0  0  0
 53 55  1  0  0  0  0
 54 51  1  1  0  0  0
 54 56  1  0  0  0  0
 54 52  1  0  0  0  0
 55 57  1  6  0  0  0
 56 53  1  0  0  0  0
 57 58  1  0  0  0  0
 58 59  2  0  0  0  0
 60 70  1  1  0  0  0
 61 68  1  6  0  0  0
 61 60  1  0  0  0  0
 63 64  1  0  0  0  0
 63 61  1  0  0  0  0
 64 59  1  6  0  0  0
 64 67  1  0  0  0  0
 65 60  1  0  0  0  0
 65 66  1  0  0  0  0
 67 62  2  0  0  0  0
 67 65  1  0  0  0  0
 70 69  1  0  0  0  0
M  END
>  <MODEL>
7

>  <REMARK>
 VINA RESULT:      -2.6      3.070      9.540
  Name = 
  26 active torsions:
  status: ('A' for Active; 'I' for Inactive)
    1  A    between atoms: C_1  and  C_28
    2  A    between atoms: C_1  and  C_69
    3  A    between atoms: C_2  and  O_10
    4  A    between atoms: C_2  and  C_39
    5  A    between atoms: C_2  and  O_59
    6  A    between atoms: N_4  and  C_18
    7  A    between atoms: C_6  and  C_39
    8  A    between atoms: O_10  and  C_29
    9  A    between atoms: C_11  and  C_29
   10  A    between atoms: C_12  and  O_24
   11  A    between atoms: C_12  and  C_28
   12  A    between atoms: C_13  and  C_67
   13  A    between atoms: C_15  and  C_35
   14  A    between atoms: N_16  and  C_44
   15  A    between atoms: N_16  and  C_54
   16  A    between atoms: C_17  and  C_26
   17  A    between atoms: C_18  and  C_47
   18  A    between atoms: C_20  and  O_59
   19  A    between atoms: O_24  and  C_65
   20  A    between atoms: C_26  and  C_69
   21  A    between atoms: N_30  and  C_54
   22  A    between atoms: C_31  and  C_54
   23  A    between atoms: C_37  and  N_55
   24  A    between atoms: C_38  and  C_49
   25  A    between atoms: C_38  and  C_65
   26  A    between atoms: C_48  and  C_64
                            x       y       z     vdW  Elec       q    Type
                         _______ _______ _______ _____ _____    ______ ____

>  <TORSDO>
F 26

$$$$
=
 OpenBabel11042413153D

 70 75  0  0  1  0  0  0  0  0999 V2000
  187.7290  178.8610  140.2460 C   0  0  2  0  0  3  0  0  0  0  0  0
  187.0300  177.6830  142.8190 S   0  0  0  0  0  0  0  0  0  0  0  0
  188.0860  177.9470  141.3990 C   0  0  1  0  0  3  0  0  0  0  0  0
  189.3130  176.2620  142.5240 C   0  0  1  0  0  3  0  0  0  0  0  0
  187.9250  176.1290  143.1380 C   0  0  0  0  0  2  0  0  0  0  0  0
  189.1680  177.1760  141.3530 C   0  0  0  0  0  2  0  0  0  0  0  0
  189.8510  177.8980  144.3730 C   0  0  0  0  0  0  0  0  0  0  0  0
  190.2120  176.8300  143.5060 N   0  0  0  0  0  2  0  0  0  0  0  0
  188.6570  178.3080  144.4280 O   0  0  0  0  0  0  0  0  0  0  0  0
  192.0740  179.0740  144.4030 C   0  0  0  0  0  1  0  0  0  0  0  0
  190.9140  178.5320  145.2170 C   0  0  2  0  0  3  0  0  0  0  0  0
  191.3220  177.6480  146.4050 C   0  0  0  0  0  2  0  0  0  0  0  0
  190.2020  176.8140  147.0640 C   0  0  2  0  0  3  0  0  0  0  0  0
  189.8300  175.6190  146.4200 O   0  0  0  0  0  1  0  0  0  0  0  0
  189.5880  178.8160  148.4840 C   0  0  0  0  0  1  0  0  0  0  0  0
  189.0880  177.5360  147.8440 C   0  0  1  0  0  3  0  0  0  0  0  0
  187.7560  177.8360  147.0930 C   0  0  1  0  0  3  0  0  0  0  0  0
  186.8080  176.6270  147.0180 C   0  0  0  0  0  1  0  0  0  0  0  0
  187.1080  178.9180  147.7270 O   0  0  0  0  0  0  0  0  0  0  0  0
  184.8900  178.3090  147.4750 O   0  0  0  0  0  1  0  0  0  0  0  0
  185.9020  179.1590  147.0250 C   0  0  2  0  0  3  0  0  0  0  0  0
  186.1320  178.9450  145.5260 C   0  0  0  0  0  2  0  0  0  0  0  0
  183.9840  178.3150  144.4020 O   0  0  0  0  0  1  0  0  0  0  0  0
  184.7230  180.4890  144.3990 O   0  0  0  0  0  0  0  0  0  0  0  0
  184.9210  179.2850  144.7250 C   0  0  0  0  0  0  0  0  0  0  0  0
  185.3740  178.1380  140.4230 C   0  0  0  0  0  3  0  0  0  0  0  0
  186.3290  178.7680  139.8040 N   0  0  0  0  0  0  0  0  0  0  0  0
  179.8890  178.2750  136.6820 C   0  0  0  0  0  0  0  0  0  0  0  0
  180.5280  179.5750  136.9530 C   0  0  0  0  0  0  0  0  0  0  0  0
  180.9490  177.4040  138.7530 C   0  0  2  0  0  3  0  0  0  0  0  0
  181.5430  181.9710  138.0060 C   0  0  0  0  0  3  0  0  0  0  0  0
  183.2480  180.5130  139.7140 S   0  0  0  0  0  0  0  0  0  0  0  0
  184.0570  177.8370  139.8210 C   0  0  0  0  0  2  0  0  0  0  0  0
  181.6260  179.5780  137.8150 C   0  0  0  0  0  0  0  0  0  0  0  0
  180.4830  181.9950  137.0750 C   0  0  0  0  0  3  0  0  0  0  0  0
  179.9750  180.7970  136.5430 C   0  0  0  0  0  3  0  0  0  0  0  0
  182.1430  178.3080  138.4000 C   0  0  1  0  0  3  0  0  0  0  0  0
  179.1850  178.0940  135.6600 O   0  0  0  0  0  0  0  0  0  0  0  0
  183.0960  178.7150  139.4800 C   0  0  2  0  0  3  0  0  0  0  0  0
  180.1930  177.1860  137.5390 O   0  0  0  0  0  0  0  0  0  0  0  0
  182.1140  180.7500  138.3630 C   0  0  0  0  0  0  0  0  0  0  0  0
  180.1320  178.0440  139.7010 O   0  0  0  0  0  0  0  0  0  0  0  0
  180.2720  177.3320  140.8950 C   0  0  1  0  0  3  0  0  0  0  0  0
  180.5810  178.3310  142.0090 C   0  0  0  0  0  2  0  0  0  0  0  0
  179.3170  178.6540  142.8010 C   0  0  0  0  0  2  0  0  0  0  0  0
  179.0390  180.1410  142.7290 C   0  0  0  0  0  1  0  0  0  0  0  0
  179.0850  176.6490  141.1660 O   0  0  0  0  0  0  0  0  0  0  0  0
  179.4330  175.3030  141.3320 C   0  0  0  0  0  2  0  0  0  0  0  0
  178.9960  173.3360  140.0310 O   0  0  0  0  0  1  0  0  0  0  0  0
  179.5220  174.6300  139.9750 C   0  0  0  0  0  2  0  0  0  0  0  0
  188.6050  178.5980  139.0860 N   0  0  0  0  0  2  0  0  0  0  0  0
  188.7530  176.7270  137.6650 O   0  0  0  0  0  0  0  0  0  0  0  0
  187.4110  177.5260  135.8750 C   0  0  0  0  0  2  0  0  0  0  0  0
  187.8990  177.7310  138.1350 C   0  0  2  0  0  3  0  0  0  0  0  0
  188.5590  176.6470  136.2750 C   0  0  2  0  0  3  0  0  0  0  0  0
  187.4050  178.5390  136.9570 C   0  0  0  0  0  2  0  0  0  0  0  0
  188.3700  175.1920  135.8910 C   0  0  0  0  0  2  0  0  0  0  0  0
  187.2100  174.6090  136.5120 N   0  0  0  0  0  0  0  0  0  0  0  0
  186.0570  174.6080  135.9400 C   0  0  0  0  0  3  0  0  0  0  0  0
  182.3670  172.4070  136.1000 C   0  0  2  0  0  3  0  0  0  0  0  0
  183.6340  171.8210  136.7260 C   0  0  2  0  0  3  0  0  0  0  0  0
  183.5170  175.9060  136.2890 O   0  0  0  0  0  0  0  0  0  0  0  0
  184.8690  172.5010  136.1860 C   0  0  0  0  0  2  0  0  0  0  0  0
  184.8880  173.9630  136.6110 C   0  0  2  0  0  3  0  0  0  0  0  0
  182.4040  173.8780  135.9770 N   0  0  0  0  0  0  0  0  0  0  0  0
  181.2770  174.5550  135.3530 C   0  0  0  0  0  1  0  0  0  0  0  0
  183.5910  174.6450  136.2690 C   0  0  0  0  0  0  0  0  0  0  0  0
  183.7050  170.4450  136.4660 O   0  0  0  0  0  1  0  0  0  0  0  0
  180.1790  172.9700  136.9060 O   0  0  0  0  0  1  0  0  0  0  0  0
  181.1620  171.9720  136.9290 C   0  0  0  0  0  2  0  0  0  0  0  0
  1 51  1  6  0  0  0
  2  5  1  0  0  0  0
  3  1  1  6  0  0  0
  3  2  1  0  0  0  0
  4  5  1  0  0  0  0
  4  8  1  1  0  0  0
  6  3  1  0  0  0  0
  6  4  1  0  0  0  0
  7  9  2  0  0  0  0
  7 11  1  0  0  0  0
  8  7  1  0  0  0  0
 11 10  1  6  0  0  0
 11 12  1  0  0  0  0
 12 13  1  0  0  0  0
 13 14  1  6  0  0  0
 13 16  1  0  0  0  0
 16 15  1  6  0  0  0
 17 18  1  1  0  0  0
 17 19  1  0  0  0  0
 17 16  1  0  0  0  0
 21 20  1  1  0  0  0
 21 19  1  0  0  0  0
 22 21  1  0  0  0  0
 23 25  1  0  0  0  0
 24 25  2  0  0  0  0
 25 22  1  0  0  0  0
 27  1  1  0  0  0  0
 27 26  2  0  0  0  0
 28 29  1  0  0  0  0
 28 40  1  0  0  0  0
 29 34  1  0  0  0  0
 30 42  1  1  0  0  0
 31 41  1  0  0  0  0
 33 26  1  0  0  0  0
 34 41  2  0  0  0  0
 35 31  2  0  0  0  0
 36 29  2  0  0  0  0
 36 35  1  0  0  0  0
 37 34  1  1  0  0  0
 37 30  1  0  0  0  0
 37 39  1  0  0  0  0
 38 28  2  0  0  0  0
 39 32  1  0  0  0  0
 39 33  1  6  0  0  0
 40 30  1  0  0  0  0
 41 32  1  0  0  0  0
 42 43  1  0  0  0  0
 43 47  1  0  0  0  0
 43 44  1  1  0  0  0
 44 45  1  0  0  0  0
 46 45  1  0  0  0  0
 47 48  1  0  0  0  0
 50 49  1  0  0  0  0
 50 48  1  0  0  0  0
 52 54  1  0  0  0  0
 53 55  1  0  0  0  0
 53 56  1  0  0  0  0
 54 51  1  1  0  0  0
 55 57  1  1  0  0  0
 55 52  1  0  0  0  0
 56 54  1  0  0  0  0
 57 58  1  0  0  0  0
 59 58  2  0  0  0  0
 60 61  1  0  0  0  0
 60 70  1  1  0  0  0
 61 68  1  6  0  0  0
 63 64  1  0  0  0  0
 63 61  1  0  0  0  0
 64 59  1  6  0  0  0
 65 60  1  0  0  0  0
 65 67  1  0  0  0  0
 66 65  1  0  0  0  0
 67 62  2  0  0  0  0
 67 64  1  0  0  0  0
 69 70  1  0  0  0  0
M  END
>  <MODEL>
8

>  <REMARK>
 VINA RESULT:      -2.6      3.948      6.923
  Name = 
  26 active torsions:
  status: ('A' for Active; 'I' for Inactive)
    1  A    between atoms: C_1  and  C_28
    2  A    between atoms: C_1  and  C_69
    3  A    between atoms: C_2  and  O_10
    4  A    between atoms: C_2  and  C_39
    5  A    between atoms: C_2  and  O_59
    6  A    between atoms: N_4  and  C_18
    7  A    between atoms: C_6  and  C_39
    8  A    between atoms: O_10  and  C_29
    9  A    between atoms: C_11  and  C_29
   10  A    between atoms: C_12  and  O_24
   11  A    between atoms: C_12  and  C_28
   12  A    between atoms: C_13  and  C_67
   13  A    between atoms: C_15  and  C_35
   14  A    between atoms: N_16  and  C_44
   15  A    between atoms: N_16  and  C_54
   16  A    between atoms: C_17  and  C_26
   17  A    between atoms: C_18  and  C_47
   18  A    between atoms: C_20  and  O_59
   19  A    between atoms: O_24  and  C_65
   20  A    between atoms: C_26  and  C_69
   21  A    between atoms: N_30  and  C_54
   22  A    between atoms: C_31  and  C_54
   23  A    between atoms: C_37  and  N_55
   24  A    between atoms: C_38  and  C_49
   25  A    between atoms: C_38  and  C_65
   26  A    between atoms: C_48  and  C_64
                            x       y       z     vdW  Elec       q    Type
                         _______ _______ _______ _____ _____    ______ ____

>  <TORSDO>
F 26

$$$$
=
 OpenBabel11042413153D

 70 75  0  0  1  0  0  0  0  0999 V2000
  185.0630  178.2720  143.7740 C   0  0  2  0  0  3  0  0  0  0  0  0
  185.3620  179.7510  146.2690 S   0  0  0  0  0  0  0  0  0  0  0  0
  185.5800  178.3360  145.1960 C   0  0  1  0  0  3  0  0  0  0  0  0
  186.4820  177.4760  147.2100 C   0  0  1  0  0  3  0  0  0  0  0  0
  185.6500  178.6550  147.6950 C   0  0  0  0  0  2  0  0  0  0  0  0
  186.1220  177.2690  145.7760 C   0  0  0  0  0  2  0  0  0  0  0  0
  188.4830  178.2150  148.5650 C   0  0  0  0  0  0  0  0  0  0  0  0
  187.8860  177.8020  147.3410 N   0  0  0  0  0  2  0  0  0  0  0  0
  187.8310  178.1730  149.6460 O   0  0  0  0  0  0  0  0  0  0  0  0
  190.0680  179.9970  147.7660 C   0  0  0  0  0  1  0  0  0  0  0  0
  189.8980  178.7070  148.5460 C   0  0  2  0  0  3  0  0  0  0  0  0
  190.8970  177.5990  148.1790 C   0  0  0  0  0  2  0  0  0  0  0  0
  190.6330  176.8350  146.8640 C   0  0  2  0  0  3  0  0  0  0  0  0
  189.8770  175.6510  146.9520 O   0  0  0  0  0  1  0  0  0  0  0  0
  192.1810  175.4920  145.3810 C   0  0  0  0  0  1  0  0  0  0  0  0
  191.6900  176.8790  145.7450 C   0  0  1  0  0  3  0  0  0  0  0  0
  191.3280  177.6450  144.4370 C   0  0  1  0  0  3  0  0  0  0  0  0
  191.3760  179.1750  144.5880 C   0  0  0  0  0  1  0  0  0  0  0  0
  192.2070  177.2360  143.4110 O   0  0  0  0  0  0  0  0  0  0  0  0
  191.9110  177.3320  141.1180 O   0  0  0  0  0  1  0  0  0  0  0  0
  191.4130  176.8170  142.3160 C   0  0  2  0  0  3  0  0  0  0  0  0
  189.9690  177.2840  142.5230 C   0  0  0  0  0  2  0  0  0  0  0  0
  188.2520  176.6280  144.2250 O   0  0  0  0  0  1  0  0  0  0  0  0
  189.2380  175.0530  142.8760 O   0  0  0  0  0  0  0  0  0  0  0  0
  189.1510  176.2610  143.2350 C   0  0  0  0  0  0  0  0  0  0  0  0
  186.3070  178.7670  141.6990 C   0  0  0  0  0  3  0  0  0  0  0  0
  186.1000  178.0390  142.7570 N   0  0  0  0  0  0  0  0  0  0  0  0
  188.8830  177.8530  135.6460 C   0  0  0  0  0  0  0  0  0  0  0  0
  187.4170  177.9750  135.7220 C   0  0  0  0  0  0  0  0  0  0  0  0
  188.8690  177.1010  138.0150 C   0  0  2  0  0  3  0  0  0  0  0  0
  184.6510  177.6820  136.1050 C   0  0  0  0  0  3  0  0  0  0  0  0
  185.0270  177.6780  138.9000 S   0  0  0  0  0  0  0  0  0  0  0  0
  187.1670  178.3550  140.5680 C   0  0  0  0  0  2  0  0  0  0  0  0
  186.8490  178.0710  136.9930 C   0  0  0  0  0  0  0  0  0  0  0  0
  185.1960  177.6590  134.8040 C   0  0  0  0  0  3  0  0  0  0  0  0
  186.5800  177.8100  134.6070 C   0  0  0  0  0  3  0  0  0  0  0  0
  187.7040  178.0880  138.2140 C   0  0  1  0  0  3  0  0  0  0  0  0
  189.5110  178.1510  134.6030 O   0  0  0  0  0  0  0  0  0  0  0  0
  186.7710  177.8940  139.3680 C   0  0  2  0  0  3  0  0  0  0  0  0
  189.5890  177.5100  136.8290 O   0  0  0  0  0  0  0  0  0  0  0  0
  185.4920  177.8990  137.1960 C   0  0  0  0  0  0  0  0  0  0  0  0
  188.3640  175.8020  137.8270 O   0  0  0  0  0  0  0  0  0  0  0  0
  189.3880  174.9210  138.1840 C   0  0  1  0  0  3  0  0  0  0  0  0
  189.4380  173.8050  137.1430 C   0  0  0  0  0  2  0  0  0  0  0  0
  188.2690  173.9310  136.1700 C   0  0  0  0  0  2  0  0  0  0  0  0
  188.7940  173.9870  134.7500 C   0  0  0  0  0  1  0  0  0  0  0  0
  190.6000  175.6140  138.2170 O   0  0  0  0  0  0  0  0  0  0  0  0
  191.5210  174.8320  137.5080 C   0  0  0  0  0  2  0  0  0  0  0  0
  192.6880  176.9150  137.2890 O   0  0  0  0  0  1  0  0  0  0  0  0
  192.8620  175.5400  137.4670 C   0  0  0  0  0  2  0  0  0  0  0  0
  184.3380  179.5110  143.4300 N   0  0  0  0  0  2  0  0  0  0  0  0
  182.1410  180.3060  143.1380 O   0  0  0  0  0  0  0  0  0  0  0  0
  180.9610  178.4080  143.9460 C   0  0  0  0  0  2  0  0  0  0  0  0
  182.9600  179.1740  143.0500 C   0  0  2  0  0  3  0  0  0  0  0  0
  180.9550  179.8990  143.7750 C   0  0  2  0  0  3  0  0  0  0  0  0
  182.4120  178.1050  143.9650 C   0  0  0  0  0  2  0  0  0  0  0  0
  179.7710  180.4120  142.9770 C   0  0  0  0  0  2  0  0  0  0  0  0
  179.2460  179.4190  142.0780 N   0  0  0  0  0  0  0  0  0  0  0  0
  179.9590  178.9060  141.1360 C   0  0  0  0  0  3  0  0  0  0  0  0
  180.0360  175.9450  138.0200 C   0  0  2  0  0  3  0  0  0  0  0  0
  179.7560  175.5260  139.4640 C   0  0  2  0  0  3  0  0  0  0  0  0
  178.9640  179.4400  138.4940 O   0  0  0  0  0  0  0  0  0  0  0  0
  180.2080  176.5910  140.4340 C   0  0  0  0  0  2  0  0  0  0  0  0
  179.3790  177.8540  140.2460 C   0  0  2  0  0  3  0  0  0  0  0  0
  179.7280  177.3630  137.7530 N   0  0  0  0  0  0  0  0  0  0  0  0
  179.9960  177.8980  136.4260 C   0  0  0  0  0  1  0  0  0  0  0  0
  179.3600  178.2820  138.8030 C   0  0  0  0  0  0  0  0  0  0  0  0
  180.4130  174.3210  139.7510 O   0  0  0  0  0  1  0  0  0  0  0  0
  179.9940  174.7610  135.9330 O   0  0  0  0  0  1  0  0  0  0  0  0
  179.2420  175.0410  137.0820 C   0  0  0  0  0  2  0  0  0  0  0  0
  1 27  1  6  0  0  0
  2  5  1  0  0  0  0
  3  1  1  1  0  0  0
  3  6  1  0  0  0  0
  3  2  1  0  0  0  0
  4  8  1  6  0  0  0
  4  5  1  0  0  0  0
  6  4  1  0  0  0  0
  7  9  2  0  0  0  0
  8  7  1  0  0  0  0
 11 10  1  6  0  0  0
 11  7  1  0  0  0  0
 12 11  1  0  0  0  0
 13 14  1  1  0  0  0
 13 12  1  0  0  0  0
 16 15  1  6  0  0  0
 16 13  1  0  0  0  0
 17 18  1  1  0  0  0
 17 16  1  0  0  0  0
 19 17  1  0  0  0  0
 21 20  1  6  0  0  0
 21 22  1  0  0  0  0
 21 19  1  0  0  0  0
 22 25  1  0  0  0  0
 24 25  2  0  0  0  0
 25 23  1  0  0  0  0
 26 27  2  0  0  0  0
 28 29  1  0  0  0  0
 28 40  1  0  0  0  0
 29 34  1  0  0  0  0
 30 42  1  6  0  0  0
 30 37  1  0  0  0  0
 31 41  1  0  0  0  0
 32 39  1  0  0  0  0
 33 26  1  0  0  0  0
 34 41  2  0  0  0  0
 35 31  2  0  0  0  0
 36 35  1  0  0  0  0
 36 29  2  0  0  0  0
 37 34  1  6  0  0  0
 37 39  1  0  0  0  0
 38 28  2  0  0  0  0
 39 33  1  1  0  0  0
 40 30  1  0  0  0  0
 41 32  1  0  0  0  0
 42 43  1  0  0  0  0
 43 44  1  6  0  0  0
 43 47  1  0  0  0  0
 45 44  1  0  0  0  0
 46 45  1  0  0  0  0
 48 47  1  0  0  0  0
 49 50  1  0  0  0  0
 50 48  1  0  0  0  0
 51  1  1  0  0  0  0
 52 55  1  0  0  0  0
 53 56  1  0  0  0  0
 54 52  1  0  0  0  0
 54 51  1  1  0  0  0
 54 56  1  0  0  0  0
 55 57  1  6  0  0  0
 55 53  1  0  0  0  0
 58 57  1  0  0  0  0
 59 58  2  0  0  0  0
 60 70  1  6  0  0  0
 60 61  1  0  0  0  0
 61 68  1  1  0  0  0
 61 63  1  0  0  0  0
 62 67  2  0  0  0  0
 64 63  1  0  0  0  0
 64 59  1  1  0  0  0
 65 60  1  0  0  0  0
 65 67  1  0  0  0  0
 66 65  1  0  0  0  0
 67 64  1  0  0  0  0
 69 70  1  0  0  0  0
M  END
>  <MODEL>
9

>  <REMARK>
 VINA RESULT:      -2.6      3.570      9.944
  Name = 
  26 active torsions:
  status: ('A' for Active; 'I' for Inactive)
    1  A    between atoms: C_1  and  C_28
    2  A    between atoms: C_1  and  C_69
    3  A    between atoms: C_2  and  O_10
    4  A    between atoms: C_2  and  C_39
    5  A    between atoms: C_2  and  O_59
    6  A    between atoms: N_4  and  C_18
    7  A    between atoms: C_6  and  C_39
    8  A    between atoms: O_10  and  C_29
    9  A    between atoms: C_11  and  C_29
   10  A    between atoms: C_12  and  O_24
   11  A    between atoms: C_12  and  C_28
   12  A    between atoms: C_13  and  C_67
   13  A    between atoms: C_15  and  C_35
   14  A    between atoms: N_16  and  C_44
   15  A    between atoms: N_16  and  C_54
   16  A    between atoms: C_17  and  C_26
   17  A    between atoms: C_18  and  C_47
   18  A    between atoms: C_20  and  O_59
   19  A    between atoms: O_24  and  C_65
   20  A    between atoms: C_26  and  C_69
   21  A    between atoms: N_30  and  C_54
   22  A    between atoms: C_31  and  C_54
   23  A    between atoms: C_37  and  N_55
   24  A    between atoms: C_38  and  C_49
   25  A    between atoms: C_38  and  C_65
   26  A    between atoms: C_48  and  C_64
                            x       y       z     vdW  Elec       q    Type
                         _______ _______ _______ _____ _____    ______ ____

>  <TORSDO>
F 26

$$$$
