=
 OpenBabel11042411243D

 57 64  0  0  1  0  0  0  0  0999 V2000
  186.6230  178.1780  142.7320 C   0  0  0  0  0  0  0  0  0  0  0  0
  190.6370  177.0780  139.3720 C   0  0  0  0  0  0  0  0  0  0  0  0
  184.9180  178.5610  144.0540 C   0  0  0  0  0  0  0  0  0  0  0  0
  184.4570  178.7490  142.6710 C   0  0  0  0  0  3  0  0  0  0  0  0
  188.7920  177.5300  143.5490 C   0  0  0  0  0  0  0  0  0  0  0  0
  188.4070  177.7820  139.8980 C   0  0  0  0  0  0  0  0  0  0  0  0
  187.0020  177.9560  145.0890 N   0  0  0  0  0  0  0  0  0  0  0  0
  190.9490  176.9320  140.7340 C   0  0  0  0  0  3  0  0  0  0  0  0
  185.4970  178.5130  141.8620 C   0  0  0  0  0  3  0  0  0  0  0  0
  188.3160  177.6140  144.8880 C   0  0  0  0  0  0  0  0  0  0  0  0
  190.0030  177.1530  143.1210 C   0  0  0  0  0  3  0  0  0  0  0  0
  189.3890  177.4980  138.9900 N   0  0  0  0  0  0  0  0  0  0  0  0
  186.1900  178.2290  144.0290 C   0  0  0  0  0  0  0  0  0  0  0  0
  184.1440  178.7030  145.1980 O   0  0  0  0  0  1  0  0  0  0  0  0
  187.9440  177.8230  142.4810 C   0  0  0  0  0  0  0  0  0  0  0  0
  188.7000  177.6250  141.2540 C   0  0  0  0  0  0  0  0  0  0  0  0
  189.9480  177.2150  141.6570 C   0  0  0  0  0  0  0  0  0  0  0  0
  191.9550  175.5730  138.0450 N   0  0  0  0  0  0  0  0  0  0  0  0
  191.6640  176.7890  138.3700 C   0  0  0  0  0  3  0  0  0  0  0  0
  195.5090  175.1150  135.7200 C   0  0  0  0  0  0  0  0  0  0  0  0
  197.0420  172.7730  135.9520 C   0  0  0  0  0  3  0  0  0  0  0  0
  195.4550  177.4760  135.3520 O   0  0  0  0  0  1  0  0  0  0  0  0
  195.9290  172.9640  136.7760 C   0  0  0  0  0  3  0  0  0  0  0  0
  193.9900  174.3020  137.5910 C   0  0  0  0  0  2  0  0  0  0  0  0
  195.1490  174.1180  136.6550 C   0  0  0  0  0  0  0  0  0  0  0  0
  192.9690  175.2980  137.0410 C   0  0  2  0  0  3  0  0  0  0  0  0
  197.3810  173.7400  135.0030 C   0  0  0  0  0  3  0  0  0  0  0  0
  193.6830  176.5890  136.6730 C   0  0  0  0  0  2  0  0  0  0  0  0
  196.6140  174.9030  134.8830 C   0  0  0  0  0  3  0  0  0  0  0  0
  194.6530  176.3460  135.5170 C   0  0  2  0  0  3  0  0  0  0  0  0
  190.7340  176.9100  145.9430 S   0  0  0  0  0  0  0  0  0  0  0  0
  189.1580  177.3440  146.0770 C   0  0  0  0  0  0  0  0  0  0  0  0
  188.6500  177.6520  147.3730 N   0  0  0  0  0  0  0  0  0  0  0  0
  188.6890  178.3930  148.6680 C   0  0  0  0  0  2  0  0  0  0  0  0
  187.6700  177.4810  148.4850 C   0  0  0  0  0  2  0  0  0  0  0  0
  187.1330  178.2590  139.4700 N   0  0  0  0  0  2  0  0  0  0  0  0
  186.6390  178.0780  138.1150 C   0  0  0  0  0  2  0  0  0  0  0  0
  185.1410  177.8330  138.1470 C   0  0  0  0  0  2  0  0  0  0  0  0
  184.7080  177.1240  136.8730 C   0  0  0  0  0  2  0  0  0  0  0  0
  184.2430  175.7110  137.1750 C   0  0  0  0  0  2  0  0  0  0  0  0
  181.4120  175.8370  136.9940 O   0  0  0  0  0  0  0  0  0  0  0  0
  181.9220  175.8120  138.1480 C   0  0  0  0  0  0  0  0  0  0  0  0
  183.3370  175.7160  138.3130 N   0  0  0  0  0  2  0  0  0  0  0  0
  181.0380  175.8260  139.3670 C   0  0  1  0  0  3  0  0  0  0  0  0
  181.5690  178.2850  139.2600 C   0  0  0  0  0  2  0  0  0  0  0  0
  179.7390  177.4780  140.6370 N   0  0  0  0  0  2  0  0  0  0  0  0
  180.4530  179.8420  140.5610 C   0  0  1  0  0  3  0  0  0  0  0  0
  179.8090  178.7230  141.3960 C   0  0  0  0  0  2  0  0  0  0  0  0
  181.7020  179.4800  140.0010 O   0  0  0  0  0  0  0  0  0  0  0  0
  181.0770  177.1460  140.1550 C   0  0  1  0  0  3  0  0  0  0  0  0
  179.5170  180.5530  139.5750 C   0  0  0  0  0  2  0  0  0  0  0  0
  180.6530  182.0800  137.9080 C   0  0  0  0  0  0  0  0  0  0  0  0
  181.1890  183.4280  137.5800 C   0  0  0  0  0  1  0  0  0  0  0  0
  180.0260  181.8570  139.1720 N   0  0  0  0  0  2  0  0  0  0  0  0
  180.7580  181.1460  137.0680 O   0  0  0  0  0  0  0  0  0  0  0  0
  179.5520  174.1140  139.7510 C   0  0  0  0  0  1  0  0  0  0  0  0
  179.7340  175.3460  139.1010 O   0  0  0  0  0  0  0  0  0  0  0  0
  1 13  1  0  0  0  0
  2  8  2  0  0  0  0
  3 14  1  0  0  0  0
  4  3  2  0  0  0  0
  5 10  2  0  0  0  0
  6 16  1  0  0  0  0
  8 17  1  0  0  0  0
  9  4  1  0  0  0  0
  9  1  2  0  0  0  0
 10  7  1  0  0  0  0
 10 32  1  0  0  0  0
 11  5  1  0  0  0  0
 12  2  1  0  0  0  0
 12  6  2  0  0  0  0
 13  3  1  0  0  0  0
 13  7  2  0  0  0  0
 15  1  1  0  0  0  0
 15  5  1  0  0  0  0
 16 17  1  0  0  0  0
 16 15  2  0  0  0  0
 17 11  2  0  0  0  0
 18 19  2  0  0  0  0
 19  2  1  0  0  0  0
 20 25  1  0  0  0  0
 21 23  1  0  0  0  0
 25 23  2  0  0  0  0
 25 24  1  0  0  0  0
 26 24  1  0  0  0  0
 26 18  1  1  0  0  0
 27 21  2  0  0  0  0
 28 26  1  0  0  0  0
 29 27  1  0  0  0  0
 29 20  2  0  0  0  0
 30 22  1  1  0  0  0
 30 20  1  0  0  0  0
 30 28  1  0  0  0  0
 31 32  2  0  0  0  0
 32 33  1  0  0  0  0
 33 35  1  0  0  0  0
 33 34  1  0  0  0  0
 35 34  1  0  0  0  0
 36  6  1  0  0  0  0
 37 38  1  0  0  0  0
 37 36  1  0  0  0  0
 39 40  1  0  0  0  0
 39 38  1  0  0  0  0
 40 43  1  0  0  0  0
 41 42  2  0  0  0  0
 42 43  1  0  0  0  0
 44 42  1  6  0  0  0
 45 49  1  0  0  0  0
 45 50  1  0  0  0  0
 46 48  1  0  0  0  0
 47 51  1  6  0  0  0
 47 48  1  0  0  0  0
 49 47  1  0  0  0  0
 50 44  1  6  0  0  0
 50 46  1  0  0  0  0
 52 54  1  0  0  0  0
 53 52  1  0  0  0  0
 54 51  1  0  0  0  0
 55 52  2  0  0  0  0
 57 44  1  0  0  0  0
 57 56  1  0  0  0  0
M  END
>  <MODEL>
1

>  <REMARK>
 VINA RESULT:      -8.9      0.000      0.000
  Name = 
  15 active torsions:
  status: ('A' for Active; 'I' for Inactive)
    1  A    between atoms: C_7  and  C_46
    2  A    between atoms: C_11  and  C_24
    3  A    between atoms: N_13  and  C_50
    4  A    between atoms: C_15  and  C_28
    5  A    between atoms: C_15  and  N_47
    6  A    between atoms: C_16  and  N_21
    7  A    between atoms: C_17  and  C_27
    8  A    between atoms: C_17  and  C_28
    9  A    between atoms: C_22  and  N_36
   10  A    between atoms: C_22  and  C_43
   11  A    between atoms: C_24  and  O_34
   12  A    between atoms: C_24  and  C_57
   13  A    between atoms: C_26  and  N_47
   14  A    between atoms: C_27  and  N_38
   15  A    between atoms: C_33  and  C_50
                            x       y       z     vdW  Elec       q    Type
                         _______ _______ _______ _____ _____    ______ ____

>  <TORSDO>
F 15

$$$$
=
 OpenBabel11042411243D

 57 64  0  0  1  0  0  0  0  0999 V2000
  186.4430  178.2660  143.5710 C   0  0  0  0  0  0  0  0  0  0  0  0
  190.2560  177.1110  140.0020 C   0  0  0  0  0  0  0  0  0  0  0  0
  184.8190  178.6680  144.9860 C   0  0  0  0  0  0  0  0  0  0  0  0
  184.2650  178.7880  143.6290 C   0  0  0  0  0  3  0  0  0  0  0  0
  188.6750  177.6990  144.2690 C   0  0  0  0  0  0  0  0  0  0  0  0
  188.0480  177.7890  140.6440 C   0  0  0  0  0  0  0  0  0  0  0  0
  186.9790  178.1520  145.9050 N   0  0  0  0  0  0  0  0  0  0  0  0
  190.6590  177.0300  141.3450 C   0  0  0  0  0  3  0  0  0  0  0  0
  185.2550  178.5400  142.7640 C   0  0  0  0  0  3  0  0  0  0  0  0
  188.2850  177.8300  145.6320 C   0  0  0  0  0  0  0  0  0  0  0  0
  189.8640  177.3300  143.7780 C   0  0  0  0  0  3  0  0  0  0  0  0
  188.9750  177.4890  139.6850 N   0  0  0  0  0  0  0  0  0  0  0  0
  186.0940  178.3620  144.8900 C   0  0  0  0  0  0  0  0  0  0  0  0
  184.1170  178.8420  146.1710 O   0  0  0  0  0  1  0  0  0  0  0  0
  187.7530  177.9290  143.2480 C   0  0  0  0  0  0  0  0  0  0  0  0
  188.4320  177.6960  141.9830 C   0  0  0  0  0  0  0  0  0  0  0  0
  189.7130  177.3300  142.3190 C   0  0  0  0  0  0  0  0  0  0  0  0
  191.2600  175.6330  138.3980 N   0  0  0  0  0  0  0  0  0  0  0  0
  191.2220  176.8030  138.9470 C   0  0  0  0  0  3  0  0  0  0  0  0
  194.6930  174.9120  135.9620 C   0  0  0  0  0  0  0  0  0  0  0  0
  195.7740  172.3250  135.7960 C   0  0  0  0  0  3  0  0  0  0  0  0
  195.0720  177.2720  135.9680 O   0  0  0  0  0  1  0  0  0  0  0  0
  194.7070  172.5820  136.6620 C   0  0  0  0  0  3  0  0  0  0  0  0
  193.0340  174.1030  137.7130 C   0  0  0  0  0  2  0  0  0  0  0  0
  194.1500  173.8620  136.7370 C   0  0  0  0  0  0  0  0  0  0  0  0
  192.2170  175.3410  137.3440 C   0  0  2  0  0  3  0  0  0  0  0  0
  196.2920  173.3520  135.0030 C   0  0  0  0  0  3  0  0  0  0  0  0
  193.1570  176.5230  137.1690 C   0  0  0  0  0  2  0  0  0  0  0  0
  195.7500  174.6380  135.0820 C   0  0  0  0  0  3  0  0  0  0  0  0
  194.0770  176.2940  135.9710 C   0  0  2  0  0  3  0  0  0  0  0  0
  188.7730  177.9840  148.3140 S   0  0  0  0  0  0  0  0  0  0  0  0
  189.2080  177.6270  146.7730 C   0  0  0  0  0  0  0  0  0  0  0  0
  190.4320  176.9270  146.5610 N   0  0  0  0  0  0  0  0  0  0  0  0
  191.5880  176.5090  145.7150 C   0  0  0  0  0  2  0  0  0  0  0  0
  191.5450  176.0430  147.0130 C   0  0  0  0  0  2  0  0  0  0  0  0
  186.7390  178.2210  140.2820 N   0  0  0  0  0  2  0  0  0  0  0  0
  186.3220  178.4000  138.9000 C   0  0  0  0  0  2  0  0  0  0  0  0
  184.8160  178.2370  138.7970 C   0  0  0  0  0  2  0  0  0  0  0  0
  184.1260  179.4850  139.3250 C   0  0  0  0  0  2  0  0  0  0  0  0
  182.6340  179.2540  139.4740 C   0  0  0  0  0  2  0  0  0  0  0  0
  180.6160  178.1490  137.8100 O   0  0  0  0  0  0  0  0  0  0  0  0
  181.2830  177.3510  138.5270 C   0  0  0  0  0  0  0  0  0  0  0  0
  182.3340  177.8350  139.3630 N   0  0  0  0  0  2  0  0  0  0  0  0
  181.0130  175.8720  138.4650 C   0  0  1  0  0  3  0  0  0  0  0  0
  182.2660  175.7830  136.2830 C   0  0  0  0  0  2  0  0  0  0  0  0
  183.3020  174.9920  138.3320 N   0  0  0  0  0  2  0  0  0  0  0  0
  184.3650  174.8240  136.1080 C   0  0  1  0  0  3  0  0  0  0  0  0
  184.2380  174.2230  137.5180 C   0  0  0  0  0  2  0  0  0  0  0  0
  183.1190  175.0150  135.4620 O   0  0  0  0  0  0  0  0  0  0  0  0
  182.0280  175.0820  137.6230 C   0  0  1  0  0  3  0  0  0  0  0  0
  185.3160  176.0210  135.9830 C   0  0  0  0  0  2  0  0  0  0  0  0
  187.7720  175.4170  136.0670 C   0  0  0  0  0  0  0  0  0  0  0  0
  189.0270  175.0990  135.3360 C   0  0  0  0  0  1  0  0  0  0  0  0
  186.5710  175.6650  135.3340 N   0  0  0  0  0  2  0  0  0  0  0  0
  187.7780  175.4650  137.3260 O   0  0  0  0  0  0  0  0  0  0  0  0
  179.7750  174.3100  139.6130 C   0  0  0  0  0  1  0  0  0  0  0  0
  180.7530  175.3110  139.7380 O   0  0  0  0  0  0  0  0  0  0  0  0
  1 13  1  0  0  0  0
  2  8  2  0  0  0  0
  3 14  1  0  0  0  0
  4  3  2  0  0  0  0
  5 10  2  0  0  0  0
  6 16  1  0  0  0  0
  8 17  1  0  0  0  0
  9  1  2  0  0  0  0
  9  4  1  0  0  0  0
 10  7  1  0  0  0  0
 10 32  1  0  0  0  0
 11  5  1  0  0  0  0
 12  2  1  0  0  0  0
 12  6  2  0  0  0  0
 13  3  1  0  0  0  0
 13  7  2  0  0  0  0
 15  1  1  0  0  0  0
 15  5  1  0  0  0  0
 16 17  1  0  0  0  0
 16 15  2  0  0  0  0
 17 11  2  0  0  0  0
 18 19  2  0  0  0  0
 19  2  1  0  0  0  0
 20 30  1  0  0  0  0
 20 25  1  0  0  0  0
 21 23  1  0  0  0  0
 23 25  2  0  0  0  0
 25 24  1  0  0  0  0
 26 24  1  0  0  0  0
 26 18  1  1  0  0  0
 27 29  1  0  0  0  0
 27 21  2  0  0  0  0
 28 26  1  0  0  0  0
 29 20  2  0  0  0  0
 30 22  1  1  0  0  0
 30 28  1  0  0  0  0
 32 31  2  0  0  0  0
 33 32  1  0  0  0  0
 33 35  1  0  0  0  0
 34 33  1  0  0  0  0
 34 35  1  0  0  0  0
 36  6  1  0  0  0  0
 37 36  1  0  0  0  0
 38 37  1  0  0  0  0
 38 39  1  0  0  0  0
 39 40  1  0  0  0  0
 41 42  2  0  0  0  0
 42 43  1  0  0  0  0
 43 40  1  0  0  0  0
 44 42  1  1  0  0  0
 44 57  1  0  0  0  0
 45 50  1  0  0  0  0
 47 51  1  1  0  0  0
 47 48  1  0  0  0  0
 48 46  1  0  0  0  0
 49 47  1  0  0  0  0
 49 45  1  0  0  0  0
 50 46  1  0  0  0  0
 50 44  1  1  0  0  0
 52 55  2  0  0  0  0
 53 52  1  0  0  0  0
 54 51  1  0  0  0  0
 54 52  1  0  0  0  0
 56 57  1  0  0  0  0
M  END
>  <MODEL>
2

>  <REMARK>
 VINA RESULT:      -8.9      1.815      3.794
  Name = 
  15 active torsions:
  status: ('A' for Active; 'I' for Inactive)
    1  A    between atoms: C_7  and  C_46
    2  A    between atoms: C_11  and  C_24
    3  A    between atoms: N_13  and  C_50
    4  A    between atoms: C_15  and  C_28
    5  A    between atoms: C_15  and  N_47
    6  A    between atoms: C_16  and  N_21
    7  A    between atoms: C_17  and  C_27
    8  A    between atoms: C_17  and  C_28
    9  A    between atoms: C_22  and  N_36
   10  A    between atoms: C_22  and  C_43
   11  A    between atoms: C_24  and  O_34
   12  A    between atoms: C_24  and  C_57
   13  A    between atoms: C_26  and  N_47
   14  A    between atoms: C_27  and  N_38
   15  A    between atoms: C_33  and  C_50
                            x       y       z     vdW  Elec       q    Type
                         _______ _______ _______ _____ _____    ______ ____

>  <TORSDO>
F 15

$$$$
=
 OpenBabel11042411243D

 57 64  0  0  1  0  0  0  0  0999 V2000
  186.6250  178.2300  142.7840 C   0  0  0  0  0  0  0  0  0  0  0  0
  190.6180  177.1100  139.4050 C   0  0  0  0  0  0  0  0  0  0  0  0
  184.9270  178.6250  144.1110 C   0  0  0  0  0  0  0  0  0  0  0  0
  184.4740  178.8540  142.7320 C   0  0  0  0  0  3  0  0  0  0  0  0
  188.7760  177.5120  143.5890 C   0  0  0  0  0  0  0  0  0  0  0  0
  188.4040  177.8550  139.9430 C   0  0  0  0  0  0  0  0  0  0  0  0
  186.9930  177.9470  145.1350 N   0  0  0  0  0  0  0  0  0  0  0  0
  190.9240  176.9260  140.7640 C   0  0  0  0  0  3  0  0  0  0  0  0
  185.5090  178.6120  141.9190 C   0  0  0  0  0  3  0  0  0  0  0  0
  188.3000  177.5780  144.9290 C   0  0  0  0  0  0  0  0  0  0  0  0
  189.9780  177.1160  143.1540 C   0  0  0  0  0  3  0  0  0  0  0  0
  189.3810  177.5680  139.0310 N   0  0  0  0  0  0  0  0  0  0  0  0
  186.1910  178.2630  144.0810 C   0  0  0  0  0  0  0  0  0  0  0  0
  184.1540  178.7600  145.2570 O   0  0  0  0  0  1  0  0  0  0  0  0
  187.9370  177.8490  142.5260 C   0  0  0  0  0  0  0  0  0  0  0  0
  188.6900  177.6610  141.2960 C   0  0  0  0  0  0  0  0  0  0  0  0
  189.9280  177.2130  141.6920 C   0  0  0  0  0  0  0  0  0  0  0  0
  192.1370  175.6320  138.2760 N   0  0  0  0  0  0  0  0  0  0  0  0
  191.6390  176.8190  138.3990 C   0  0  0  0  0  3  0  0  0  0  0  0
  195.6580  175.2390  135.8910 C   0  0  0  0  0  0  0  0  0  0  0  0
  197.3460  173.0210  136.2410 C   0  0  0  0  0  3  0  0  0  0  0  0
  195.4410  177.5600  135.3630 O   0  0  0  0  0  1  0  0  0  0  0  0
  196.2420  173.1990  137.0810 C   0  0  0  0  0  3  0  0  0  0  0  0
  194.2390  174.4650  137.8550 C   0  0  0  0  0  2  0  0  0  0  0  0
  195.3860  174.2890  136.9020 C   0  0  0  0  0  0  0  0  0  0  0  0
  193.1430  175.3520  137.2660 C   0  0  2  0  0  3  0  0  0  0  0  0
  197.5990  173.9390  135.2190 C   0  0  0  0  0  3  0  0  0  0  0  0
  193.7620  176.6570  136.7900 C   0  0  0  0  0  2  0  0  0  0  0  0
  196.7550  175.0390  135.0410 C   0  0  0  0  0  3  0  0  0  0  0  0
  194.7190  176.3960  135.6280 C   0  0  2  0  0  3  0  0  0  0  0  0
  190.7090  176.8300  145.9730 S   0  0  0  0  0  0  0  0  0  0  0  0
  189.1320  177.2610  146.1120 C   0  0  0  0  0  0  0  0  0  0  0  0
  188.6150  177.5190  147.4150 N   0  0  0  0  0  0  0  0  0  0  0  0
  188.4140  178.3910  148.6100 C   0  0  0  0  0  2  0  0  0  0  0  0
  187.8590  177.1280  148.6400 C   0  0  0  0  0  2  0  0  0  0  0  0
  187.1430  178.3730  139.5250 N   0  0  0  0  0  2  0  0  0  0  0  0
  186.2770  177.6740  138.5900 C   0  0  0  0  0  2  0  0  0  0  0  0
  186.4280  178.2770  137.2050 C   0  0  0  0  0  2  0  0  0  0  0  0
  186.8110  177.1930  136.2100 C   0  0  0  0  0  2  0  0  0  0  0  0
  185.7250  176.1370  136.1180 C   0  0  0  0  0  2  0  0  0  0  0  0
  183.5050  175.1570  137.5930 O   0  0  0  0  0  0  0  0  0  0  0  0
  183.3320  176.2000  136.9010 C   0  0  0  0  0  0  0  0  0  0  0  0
  184.4130  176.7650  136.1610 N   0  0  0  0  0  2  0  0  0  0  0  0
  181.9940  176.8890  136.8940 C   0  0  1  0  0  3  0  0  0  0  0  0
  180.6070  178.9060  137.4830 C   0  0  0  0  0  2  0  0  0  0  0  0
  182.3160  178.0980  139.0070 N   0  0  0  0  0  2  0  0  0  0  0  0
  180.9910  180.1460  139.4000 C   0  0  1  0  0  3  0  0  0  0  0  0
  182.3220  179.4140  139.6400 C   0  0  0  0  0  2  0  0  0  0  0  0
  180.6190  180.2060  138.0350 O   0  0  0  0  0  0  0  0  0  0  0  0
  181.9900  178.2590  137.5930 C   0  0  1  0  0  3  0  0  0  0  0  0
  179.8420  179.7540  140.3380 C   0  0  0  0  0  2  0  0  0  0  0  0
  180.0420  178.5360  142.5460 C   0  0  0  0  0  0  0  0  0  0  0  0
  180.4620  178.5540  143.9730 C   0  0  0  0  0  1  0  0  0  0  0  0
  180.2650  179.6880  141.7310 N   0  0  0  0  0  2  0  0  0  0  0  0
  179.4940  177.5070  142.0710 O   0  0  0  0  0  0  0  0  0  0  0  0
  180.5680  175.7510  135.4940 C   0  0  0  0  0  1  0  0  0  0  0  0
  181.3850  176.8870  135.6160 O   0  0  0  0  0  0  0  0  0  0  0  0
  1 13  1  0  0  0  0
  2  8  2  0  0  0  0
  3 14  1  0  0  0  0
  4  3  2  0  0  0  0
  5 10  2  0  0  0  0
  6 16  1  0  0  0  0
  8 17  1  0  0  0  0
  9  4  1  0  0  0  0
  9  1  2  0  0  0  0
 10  7  1  0  0  0  0
 10 32  1  0  0  0  0
 11  5  1  0  0  0  0
 12  2  1  0  0  0  0
 12  6  2  0  0  0  0
 13  3  1  0  0  0  0
 13  7  2  0  0  0  0
 15  1  1  0  0  0  0
 15  5  1  0  0  0  0
 16 17  1  0  0  0  0
 16 15  2  0  0  0  0
 17 11  2  0  0  0  0
 18 19  2  0  0  0  0
 19  2  1  0  0  0  0
 20 25  1  0  0  0  0
 21 23  1  0  0  0  0
 25 23  2  0  0  0  0
 25 24  1  0  0  0  0
 26 24  1  0  0  0  0
 26 18  1  1  0  0  0
 27 21  2  0  0  0  0
 28 26  1  0  0  0  0
 29 27  1  0  0  0  0
 29 20  2  0  0  0  0
 30 22  1  1  0  0  0
 30 20  1  0  0  0  0
 30 28  1  0  0  0  0
 31 32  2  0  0  0  0
 32 33  1  0  0  0  0
 33 34  1  0  0  0  0
 33 35  1  0  0  0  0
 34 35  1  0  0  0  0
 36  6  1  0  0  0  0
 37 36  1  0  0  0  0
 38 37  1  0  0  0  0
 39 38  1  0  0  0  0
 40 43  1  0  0  0  0
 40 39  1  0  0  0  0
 42 41  2  0  0  0  0
 43 42  1  0  0  0  0
 44 57  1  6  0  0  0
 44 42  1  0  0  0  0
 45 50  1  0  0  0  0
 45 49  1  0  0  0  0
 46 48  1  0  0  0  0
 47 48  1  0  0  0  0
 47 51  1  1  0  0  0
 49 47  1  0  0  0  0
 50 44  1  6  0  0  0
 50 46  1  0  0  0  0
 51 54  1  0  0  0  0
 52 53  1  0  0  0  0
 54 52  1  0  0  0  0
 55 52  2  0  0  0  0
 56 57  1  0  0  0  0
M  END
>  <MODEL>
3

>  <REMARK>
 VINA RESULT:      -8.7      1.457      2.170
  Name = 
  15 active torsions:
  status: ('A' for Active; 'I' for Inactive)
    1  A    between atoms: C_7  and  C_46
    2  A    between atoms: C_11  and  C_24
    3  A    between atoms: N_13  and  C_50
    4  A    between atoms: C_15  and  C_28
    5  A    between atoms: C_15  and  N_47
    6  A    between atoms: C_16  and  N_21
    7  A    between atoms: C_17  and  C_27
    8  A    between atoms: C_17  and  C_28
    9  A    between atoms: C_22  and  N_36
   10  A    between atoms: C_22  and  C_43
   11  A    between atoms: C_24  and  O_34
   12  A    between atoms: C_24  and  C_57
   13  A    between atoms: C_26  and  N_47
   14  A    between atoms: C_27  and  N_38
   15  A    between atoms: C_33  and  C_50
                            x       y       z     vdW  Elec       q    Type
                         _______ _______ _______ _____ _____    ______ ____

>  <TORSDO>
F 15

$$$$
=
 OpenBabel11042411243D

 57 64  0  0  1  0  0  0  0  0999 V2000
  182.1640  179.0000  141.9910 C   0  0  0  0  0  0  0  0  0  0  0  0
  186.8950  178.3470  139.5810 C   0  0  0  0  0  0  0  0  0  0  0  0
  180.2710  179.3390  143.0410 C   0  0  0  0  0  0  0  0  0  0  0  0
  181.3000  179.0760  144.0570 C   0  0  0  0  0  3  0  0  0  0  0  0
  182.3710  179.1150  139.5970 C   0  0  0  0  0  0  0  0  0  0  0  0
  185.4470  178.4100  141.4900 C   0  0  0  0  0  0  0  0  0  0  0  0
  180.2410  179.4740  140.6410 N   0  0  0  0  0  0  0  0  0  0  0  0
  185.8210  178.6110  138.7140 C   0  0  0  0  0  3  0  0  0  0  0  0
  182.4580  178.8710  143.4170 C   0  0  0  0  0  3  0  0  0  0  0  0
  180.9770  179.3850  139.4860 C   0  0  0  0  0  0  0  0  0  0  0  0
  183.2840  179.0540  138.6200 C   0  0  0  0  0  3  0  0  0  0  0  0
  186.6850  178.2500  140.9330 N   0  0  0  0  0  0  0  0  0  0  0  0
  180.8330  179.2820  141.8530 C   0  0  0  0  0  0  0  0  0  0  0  0
  178.9320  179.6100  143.2890 O   0  0  0  0  0  1  0  0  0  0  0  0
  182.9520  178.9140  140.8490 C   0  0  0  0  0  0  0  0  0  0  0  0
  184.3740  178.6880  140.6410 C   0  0  0  0  0  0  0  0  0  0  0  0
  184.5620  178.7790  139.2830 C   0  0  0  0  0  0  0  0  0  0  0  0
  188.7720  176.9920  138.9450 N   0  0  0  0  0  0  0  0  0  0  0  0
  188.2350  178.1650  139.0220 C   0  0  0  0  0  3  0  0  0  0  0  0
  192.7680  175.8640  137.9440 C   0  0  0  0  0  0  0  0  0  0  0  0
  193.2190  173.7290  136.1760 C   0  0  0  0  0  3  0  0  0  0  0  0
  193.4920  177.1020  139.8560 O   0  0  0  0  0  1  0  0  0  0  0  0
  191.9160  174.0420  136.5760 C   0  0  0  0  0  3  0  0  0  0  0  0
  190.2700  175.3870  137.8780 C   0  0  0  0  0  2  0  0  0  0  0  0
  191.6800  175.1150  137.4400 C   0  0  0  0  0  0  0  0  0  0  0  0
  190.0990  176.8210  138.3780 C   0  0  2  0  0  3  0  0  0  0  0  0
  194.2930  174.4880  136.6450 C   0  0  0  0  0  3  0  0  0  0  0  0
  191.1470  177.1040  139.4430 C   0  0  0  0  0  2  0  0  0  0  0  0
  194.0680  175.5550  137.5200 C   0  0  0  0  0  3  0  0  0  0  0  0
  192.5460  177.0700  138.8310 C   0  0  2  0  0  3  0  0  0  0  0  0
  179.5910  178.3410  137.3790 S   0  0  0  0  0  0  0  0  0  0  0  0
  180.2800  179.5860  138.1950 C   0  0  0  0  0  0  0  0  0  0  0  0
  180.0290  180.9130  137.7400 N   0  0  0  0  0  0  0  0  0  0  0  0
  180.2660  182.3870  137.7610 C   0  0  0  0  0  2  0  0  0  0  0  0
  179.3230  181.9050  136.8770 C   0  0  0  0  0  2  0  0  0  0  0  0
  185.2530  178.2590  142.8950 N   0  0  0  0  0  2  0  0  0  0  0  0
  185.8710  179.1380  143.8740 C   0  0  0  0  0  2  0  0  0  0  0  0
  185.1500  179.0080  145.2030 C   0  0  0  0  0  2  0  0  0  0  0  0
  185.7530  177.8650  146.0060 C   0  0  0  0  0  2  0  0  0  0  0  0
  186.9350  178.3480  146.8270 C   0  0  0  0  0  2  0  0  0  0  0  0
  189.1970  177.9510  148.4970 O   0  0  0  0  0  0  0  0  0  0  0  0
  189.2530  177.4950  147.3210 C   0  0  0  0  0  0  0  0  0  0  0  0
  188.1400  177.6300  146.4370 N   0  0  0  0  0  2  0  0  0  0  0  0
  190.4770  176.7540  146.8540 C   0  0  1  0  0  3  0  0  0  0  0  0
  191.5520  176.4830  144.5930 C   0  0  0  0  0  2  0  0  0  0  0  0
  190.4550  178.5640  145.1950 N   0  0  0  0  0  2  0  0  0  0  0  0
  191.6710  178.2230  143.0710 C   0  0  1  0  0  3  0  0  0  0  0  0
  191.2200  179.2280  144.1440 C   0  0  0  0  0  2  0  0  0  0  0  0
  192.3470  177.0970  143.6020 O   0  0  0  0  0  0  0  0  0  0  0  0
  191.2510  177.4620  145.7300 C   0  0  1  0  0  3  0  0  0  0  0  0
  190.6190  177.8690  142.0130 C   0  0  0  0  0  2  0  0  0  0  0  0
  188.9220  176.2310  142.9310 C   0  0  0  0  0  0  0  0  0  0  0  0
  187.5670  175.9860  143.4930 C   0  0  0  0  0  1  0  0  0  0  0  0
  189.3220  177.5630  142.6050 N   0  0  0  0  0  2  0  0  0  0  0  0
  189.7050  175.2610  142.7460 O   0  0  0  0  0  0  0  0  0  0  0  0
  192.4060  175.6330  147.4110 C   0  0  0  0  0  1  0  0  0  0  0  0
  191.2860  176.3070  147.9260 O   0  0  0  0  0  0  0  0  0  0  0  0
  1  9  1  0  0  0  0
  2 12  1  0  0  0  0
  3 14  1  0  0  0  0
  3  4  1  0  0  0  0
  5 15  1  0  0  0  0
  6 36  1  0  0  0  0
  7 13  1  0  0  0  0
  8 17  1  0  0  0  0
  8  2  2  0  0  0  0
  9  4  2  0  0  0  0
 10  5  1  0  0  0  0
 10  7  2  0  0  0  0
 11 17  1  0  0  0  0
 11  5  2  0  0  0  0
 12  6  2  0  0  0  0
 13  1  1  0  0  0  0
 13  3  2  0  0  0  0
 15  1  2  0  0  0  0
 16 15  1  0  0  0  0
 16  6  1  0  0  0  0
 17 16  2  0  0  0  0
 18 19  2  0  0  0  0
 19  2  1  0  0  0  0
 20 30  1  0  0  0  0
 21 23  2  0  0  0  0
 21 27  1  0  0  0  0
 23 25  1  0  0  0  0
 24 26  1  0  0  0  0
 25 24  1  0  0  0  0
 25 20  2  0  0  0  0
 26 18  1  1  0  0  0
 26 28  1  0  0  0  0
 27 29  2  0  0  0  0
 29 20  1  0  0  0  0
 30 28  1  0  0  0  0
 30 22  1  1  0  0  0
 31 32  2  0  0  0  0
 32 10  1  0  0  0  0
 33 34  1  0  0  0  0
 33 32  1  0  0  0  0
 35 33  1  0  0  0  0
 35 34  1  0  0  0  0
 36 37  1  0  0  0  0
 37 38  1  0  0  0  0
 38 39  1  0  0  0  0
 39 40  1  0  0  0  0
 42 41  2  0  0  0  0
 43 40  1  0  0  0  0
 43 42  1  0  0  0  0
 44 42  1  1  0  0  0
 44 57  1  0  0  0  0
 45 50  1  0  0  0  0
 46 50  1  0  0  0  0
 47 51  1  1  0  0  0
 47 49  1  0  0  0  0
 47 48  1  0  0  0  0
 48 46  1  0  0  0  0
 49 45  1  0  0  0  0
 50 44  1  1  0  0  0
 51 54  1  0  0  0  0
 52 53  1  0  0  0  0
 54 52  1  0  0  0  0
 55 52  2  0  0  0  0
 56 57  1  0  0  0  0
M  END
>  <MODEL>
4

>  <REMARK>
 VINA RESULT:      -7.4      3.374      8.884
  Name = 
  15 active torsions:
  status: ('A' for Active; 'I' for Inactive)
    1  A    between atoms: C_7  and  C_46
    2  A    between atoms: C_11  and  C_24
    3  A    between atoms: N_13  and  C_50
    4  A    between atoms: C_15  and  C_28
    5  A    between atoms: C_15  and  N_47
    6  A    between atoms: C_16  and  N_21
    7  A    between atoms: C_17  and  C_27
    8  A    between atoms: C_17  and  C_28
    9  A    between atoms: C_22  and  N_36
   10  A    between atoms: C_22  and  C_43
   11  A    between atoms: C_24  and  O_34
   12  A    between atoms: C_24  and  C_57
   13  A    between atoms: C_26  and  N_47
   14  A    between atoms: C_27  and  N_38
   15  A    between atoms: C_33  and  C_50
                            x       y       z     vdW  Elec       q    Type
                         _______ _______ _______ _____ _____    ______ ____

>  <TORSDO>
F 15

$$$$
=
 OpenBabel11042411243D

 57 64  0  0  1  0  0  0  0  0999 V2000
  187.4170  178.1810  140.0410 C   0  0  0  0  0  0  0  0  0  0  0  0
  191.5120  176.0490  137.3400 C   0  0  0  0  0  0  0  0  0  0  0  0
  185.6780  178.9780  141.1100 C   0  0  0  0  0  0  0  0  0  0  0  0
  185.2930  178.8070  139.7010 C   0  0  0  0  0  3  0  0  0  0  0  0
  189.5050  177.6820  141.1290 C   0  0  0  0  0  0  0  0  0  0  0  0
  189.3040  176.9630  137.5250 C   0  0  0  0  0  0  0  0  0  0  0  0
  187.6730  178.5820  142.3910 N   0  0  0  0  0  0  0  0  0  0  0  0
  191.7520  176.2600  138.7080 C   0  0  0  0  0  3  0  0  0  0  0  0
  186.3540  178.3180  139.0470 C   0  0  0  0  0  3  0  0  0  0  0  0
  188.9740  178.1430  142.3670 C   0  0  0  0  0  0  0  0  0  0  0  0
  190.7110  177.1530  140.8890 C   0  0  0  0  0  3  0  0  0  0  0  0
  190.3090  176.4050  136.7860 N   0  0  0  0  0  0  0  0  0  0  0  0
  186.9290  178.5960  141.2500 C   0  0  0  0  0  0  0  0  0  0  0  0
  184.8610  179.4540  142.1260 O   0  0  0  0  0  1  0  0  0  0  0  0
  188.7250  177.7150  139.9720 C   0  0  0  0  0  0  0  0  0  0  0  0
  189.5250  177.1630  138.8900 C   0  0  0  0  0  0  0  0  0  0  0  0
  190.7270  176.8230  139.4610 C   0  0  0  0  0  0  0  0  0  0  0  0
  193.6760  175.0530  137.0370 N   0  0  0  0  0  0  0  0  0  0  0  0
  192.5660  175.4580  136.5140 C   0  0  0  0  0  3  0  0  0  0  0  0
  197.2830  173.6210  135.2540 C   0  0  0  0  0  0  0  0  0  0  0  0
  198.2720  171.0820  135.9380 C   0  0  0  0  0  3  0  0  0  0  0  0
  197.7520  175.8780  134.6230 O   0  0  0  0  0  1  0  0  0  0  0  0
  197.1420  171.5900  136.5870 C   0  0  0  0  0  3  0  0  0  0  0  0
  195.4430  173.3690  136.9920 C   0  0  0  0  0  2  0  0  0  0  0  0
  196.6320  172.8450  136.2390 C   0  0  0  0  0  0  0  0  0  0  0  0
  194.7110  174.4580  136.2080 C   0  0  2  0  0  3  0  0  0  0  0  0
  198.8990  171.8320  134.9400 C   0  0  0  0  0  3  0  0  0  0  0  0
  195.7090  175.5290  135.7950 C   0  0  0  0  0  2  0  0  0  0  0  0
  198.4030  173.0920  134.5950 C   0  0  0  0  0  3  0  0  0  0  0  0
  196.7240  174.9540  134.8080 C   0  0  2  0  0  3  0  0  0  0  0  0
  191.2280  178.8530  143.7340 S   0  0  0  0  0  0  0  0  0  0  0  0
  189.7420  178.1650  143.6330 C   0  0  0  0  0  0  0  0  0  0  0  0
  189.1050  177.7540  144.8400 N   0  0  0  0  0  0  0  0  0  0  0  0
  187.8960  177.4630  145.6660 C   0  0  0  0  0  2  0  0  0  0  0  0
  189.1310  177.2840  146.2560 C   0  0  0  0  0  2  0  0  0  0  0  0
  188.0820  177.3630  136.9110 N   0  0  0  0  0  2  0  0  0  0  0  0
  187.9710  177.6500  135.4900 C   0  0  0  0  0  2  0  0  0  0  0  0
  186.6060  177.2170  134.9860 C   0  0  0  0  0  2  0  0  0  0  0  0
  185.8390  176.5300  136.1060 C   0  0  0  0  0  2  0  0  0  0  0  0
  184.4530  177.1300  136.2560 C   0  0  0  0  0  2  0  0  0  0  0  0
  183.4430  176.1580  138.7250 O   0  0  0  0  0  0  0  0  0  0  0  0
  183.0210  175.6130  137.6670 C   0  0  0  0  0  0  0  0  0  0  0  0
  183.4630  176.0720  136.3900 N   0  0  0  0  0  2  0  0  0  0  0  0
  182.0050  174.5050  137.7400 C   0  0  1  0  0  3  0  0  0  0  0  0
  180.6800  175.0760  139.8040 C   0  0  0  0  0  2  0  0  0  0  0  0
  180.2670  176.2410  137.7130 N   0  0  0  0  0  2  0  0  0  0  0  0
  178.9400  176.6020  139.7660 C   0  0  1  0  0  3  0  0  0  0  0  0
  178.9560  176.6230  138.2280 C   0  0  0  0  0  2  0  0  0  0  0  0
  179.4010  175.3820  140.3170 O   0  0  0  0  0  0  0  0  0  0  0  0
  180.6340  174.9450  138.2800 C   0  0  1  0  0  3  0  0  0  0  0  0
  179.5180  177.8470  140.4500 C   0  0  0  0  0  2  0  0  0  0  0  0
  179.5250  178.7940  142.7970 C   0  0  0  0  0  0  0  0  0  0  0  0
  179.6740  178.5640  144.2590 C   0  0  0  0  0  1  0  0  0  0  0  0
  179.6140  177.6890  141.8960 N   0  0  0  0  0  2  0  0  0  0  0  0
  179.3220  179.9600  142.3670 O   0  0  0  0  0  0  0  0  0  0  0  0
  181.5380  172.4320  136.8600 C   0  0  0  0  0  1  0  0  0  0  0  0
  181.9440  173.7410  136.5500 O   0  0  0  0  0  0  0  0  0  0  0  0
  1 13  1  0  0  0  0
  2  8  2  0  0  0  0
  3 13  1  0  0  0  0
  3 14  1  0  0  0  0
  4  3  2  0  0  0  0
  5 10  2  0  0  0  0
  6 16  1  0  0  0  0
  8 17  1  0  0  0  0
  9  4  1  0  0  0  0
  9  1  2  0  0  0  0
 10  7  1  0  0  0  0
 10 32  1  0  0  0  0
 11  5  1  0  0  0  0
 12  2  1  0  0  0  0
 12  6  2  0  0  0  0
 13  7  2  0  0  0  0
 15  1  1  0  0  0  0
 15  5  1  0  0  0  0
 16 17  1  0  0  0  0
 16 15  2  0  0  0  0
 17 11  2  0  0  0  0
 19 18  2  0  0  0  0
 19  2  1  0  0  0  0
 20 25  1  0  0  0  0
 21 23  1  0  0  0  0
 25 23  2  0  0  0  0
 25 24  1  0  0  0  0
 26 24  1  0  0  0  0
 26 18  1  1  0  0  0
 27 21  2  0  0  0  0
 28 26  1  0  0  0  0
 29 27  1  0  0  0  0
 29 20  2  0  0  0  0
 30 22  1  1  0  0  0
 30 20  1  0  0  0  0
 30 28  1  0  0  0  0
 32 31  2  0  0  0  0
 32 33  1  0  0  0  0
 33 34  1  0  0  0  0
 33 35  1  0  0  0  0
 34 35  1  0  0  0  0
 36  6  1  0  0  0  0
 37 36  1  0  0  0  0
 38 37  1  0  0  0  0
 38 39  1  0  0  0  0
 39 40  1  0  0  0  0
 40 43  1  0  0  0  0
 42 44  1  0  0  0  0
 42 41  2  0  0  0  0
 43 42  1  0  0  0  0
 44 57  1  6  0  0  0
 45 49  1  0  0  0  0
 46 48  1  0  0  0  0
 46 50  1  0  0  0  0
 47 49  1  0  0  0  0
 47 51  1  1  0  0  0
 48 47  1  0  0  0  0
 50 44  1  6  0  0  0
 50 45  1  0  0  0  0
 51 54  1  0  0  0  0
 52 53  1  0  0  0  0
 54 52  1  0  0  0  0
 55 52  2  0  0  0  0
 57 56  1  0  0  0  0
M  END
>  <MODEL>
5

>  <REMARK>
 VINA RESULT:      -7.3      2.263      3.159
  Name = 
  15 active torsions:
  status: ('A' for Active; 'I' for Inactive)
    1  A    between atoms: C_7  and  C_46
    2  A    between atoms: C_11  and  C_24
    3  A    between atoms: N_13  and  C_50
    4  A    between atoms: C_15  and  C_28
    5  A    between atoms: C_15  and  N_47
    6  A    between atoms: C_16  and  N_21
    7  A    between atoms: C_17  and  C_27
    8  A    between atoms: C_17  and  C_28
    9  A    between atoms: C_22  and  N_36
   10  A    between atoms: C_22  and  C_43
   11  A    between atoms: C_24  and  O_34
   12  A    between atoms: C_24  and  C_57
   13  A    between atoms: C_26  and  N_47
   14  A    between atoms: C_27  and  N_38
   15  A    between atoms: C_33  and  C_50
                            x       y       z     vdW  Elec       q    Type
                         _______ _______ _______ _____ _____    ______ ____

>  <TORSDO>
F 15

$$$$
=
 OpenBabel11042411243D

 57 64  0  0  1  0  0  0  0  0999 V2000
  189.1260  177.1990  142.6530 C   0  0  0  0  0  0  0  0  0  0  0  0
  185.1110  179.0460  139.6390 C   0  0  0  0  0  0  0  0  0  0  0  0
  190.7040  176.3730  143.9280 C   0  0  0  0  0  0  0  0  0  0  0  0
  189.5550  176.6830  144.7900 C   0  0  0  0  0  3  0  0  0  0  0  0
  189.3670  177.4520  140.2720 C   0  0  0  0  0  0  0  0  0  0  0  0
  186.1380  178.4560  141.7240 C   0  0  0  0  0  0  0  0  0  0  0  0
  191.1730  176.5630  141.5790 N   0  0  0  0  0  0  0  0  0  0  0  0
  186.2760  178.7070  138.9300 C   0  0  0  0  0  3  0  0  0  0  0  0
  188.5890  177.1860  144.0120 C   0  0  0  0  0  3  0  0  0  0  0  0
  190.6950  176.9440  140.3490 C   0  0  0  0  0  0  0  0  0  0  0  0
  188.6800  177.8150  139.1820 C   0  0  0  0  0  3  0  0  0  0  0  0
  185.0710  178.9180  141.0050 N   0  0  0  0  0  0  0  0  0  0  0  0
  190.3970  176.6950  142.6910 C   0  0  0  0  0  0  0  0  0  0  0  0
  191.9110  175.8250  144.3440 O   0  0  0  0  0  1  0  0  0  0  0  0
  188.5960  177.5860  141.4270 C   0  0  0  0  0  0  0  0  0  0  0  0
  187.2950  178.0990  141.0280 C   0  0  0  0  0  0  0  0  0  0  0  0
  187.3580  178.2310  139.6620 C   0  0  0  0  0  0  0  0  0  0  0  0
  183.2220  180.5060  139.3830 N   0  0  0  0  0  0  0  0  0  0  0  0
  183.9500  179.5500  138.9050 C   0  0  0  0  0  3  0  0  0  0  0  0
  180.4850  182.1760  136.5610 C   0  0  0  0  0  0  0  0  0  0  0  0
  179.3280  180.5380  134.5940 C   0  0  0  0  0  3  0  0  0  0  0  0
  181.3210  184.3300  137.1720 O   0  0  0  0  0  1  0  0  0  0  0  0
  180.2920  180.0140  135.4610 C   0  0  0  0  0  3  0  0  0  0  0  0
  181.9220  180.2250  137.3350 C   0  0  0  0  0  2  0  0  0  0  0  0
  180.8590  180.8170  136.4550 C   0  0  0  0  0  0  0  0  0  0  0  0
  182.0770  181.0050  138.6400 C   0  0  2  0  0  3  0  0  0  0  0  0
  178.9310  181.8710  134.7170 C   0  0  0  0  0  3  0  0  0  0  0  0
  182.2840  182.4770  138.3170 C   0  0  0  0  0  2  0  0  0  0  0  0
  179.5020  182.6840  135.7000 C   0  0  0  0  0  3  0  0  0  0  0  0
  181.0300  183.0570  137.6640 C   0  0  2  0  0  3  0  0  0  0  0  0
  193.2000  177.0690  139.2710 S   0  0  0  0  0  0  0  0  0  0  0  0
  191.5860  176.7930  139.1750 C   0  0  0  0  0  0  0  0  0  0  0  0
  191.0700  176.2090  137.9820 N   0  0  0  0  0  0  0  0  0  0  0  0
  191.0130  176.0640  136.4970 C   0  0  0  0  0  2  0  0  0  0  0  0
  190.1680  175.2740  137.2490 C   0  0  0  0  0  2  0  0  0  0  0  0
  186.0800  178.3750  143.1460 N   0  0  0  0  0  2  0  0  0  0  0  0
  185.4630  179.4040  143.9680 C   0  0  0  0  0  2  0  0  0  0  0  0
  184.7320  178.7570  145.1310 C   0  0  0  0  0  2  0  0  0  0  0  0
  183.2420  178.6940  144.8310 C   0  0  0  0  0  2  0  0  0  0  0  0
  182.7560  180.0030  144.2360 C   0  0  0  0  0  2  0  0  0  0  0  0
  180.3510  178.5580  143.8020 O   0  0  0  0  0  0  0  0  0  0  0  0
  180.9550  179.0030  142.7860 C   0  0  0  0  0  0  0  0  0  0  0  0
  182.1530  179.7660  142.9330 N   0  0  0  0  0  2  0  0  0  0  0  0
  180.3880  178.7810  141.4100 C   0  0  1  0  0  3  0  0  0  0  0  0
  179.5610  177.0360  139.7950 C   0  0  0  0  0  2  0  0  0  0  0  0
  181.9350  177.2630  140.2540 N   0  0  0  0  0  2  0  0  0  0  0  0
  180.9840  175.5010  138.8060 C   0  0  1  0  0  3  0  0  0  0  0  0
  182.1240  175.9030  139.7580 C   0  0  0  0  0  2  0  0  0  0  0  0
  179.6940  175.7010  139.3550 O   0  0  0  0  0  0  0  0  0  0  0  0
  180.6100  177.3620  140.8610 C   0  0  1  0  0  3  0  0  0  0  0  0
  181.1250  175.9950  137.3610 C   0  0  0  0  0  2  0  0  0  0  0  0
  183.1860  176.3010  135.9250 C   0  0  0  0  0  0  0  0  0  0  0  0
  184.5320  176.9070  135.7480 C   0  0  0  0  0  1  0  0  0  0  0  0
  182.4320  176.5860  137.1040 N   0  0  0  0  0  2  0  0  0  0  0  0
  182.7220  175.5410  135.0330 O   0  0  0  0  0  0  0  0  0  0  0  0
  179.0650  180.4750  140.5930 C   0  0  0  0  0  1  0  0  0  0  0  0
  179.0600  179.2520  141.2840 O   0  0  0  0  0  0  0  0  0  0  0  0
  1 13  1  0  0  0  0
  1  9  1  0  0  0  0
  2 12  1  0  0  0  0
  3 14  1  0  0  0  0
  3  4  1  0  0  0  0
  5 10  1  0  0  0  0
  5 15  1  0  0  0  0
  6 36  1  0  0  0  0
  7 13  1  0  0  0  0
  8  2  2  0  0  0  0
  8 17  1  0  0  0  0
  9  4  2  0  0  0  0
 10  7  2  0  0  0  0
 11 17  1  0  0  0  0
 11  5  2  0  0  0  0
 12  6  2  0  0  0  0
 13  3  2  0  0  0  0
 15  1  2  0  0  0  0
 16 15  1  0  0  0  0
 16  6  1  0  0  0  0
 17 16  2  0  0  0  0
 19 18  2  0  0  0  0
 19  2  1  0  0  0  0
 20 30  1  0  0  0  0
 21 27  2  0  0  0  0
 21 23  1  0  0  0  0
 23 25  2  0  0  0  0
 24 26  1  0  0  0  0
 25 20  1  0  0  0  0
 25 24  1  0  0  0  0
 26 18  1  6  0  0  0
 27 29  1  0  0  0  0
 28 26  1  0  0  0  0
 29 20  2  0  0  0  0
 30 22  1  6  0  0  0
 30 28  1  0  0  0  0
 32 31  2  0  0  0  0
 32 10  1  0  0  0  0
 33 32  1  0  0  0  0
 34 35  1  0  0  0  0
 34 33  1  0  0  0  0
 35 33  1  0  0  0  0
 36 37  1  0  0  0  0
 37 38  1  0  0  0  0
 39 38  1  0  0  0  0
 40 39  1  0  0  0  0
 42 43  1  0  0  0  0
 42 41  2  0  0  0  0
 43 40  1  0  0  0  0
 44 57  1  1  0  0  0
 44 42  1  0  0  0  0
 45 50  1  0  0  0  0
 46 50  1  0  0  0  0
 47 51  1  6  0  0  0
 47 49  1  0  0  0  0
 47 48  1  0  0  0  0
 48 46  1  0  0  0  0
 49 45  1  0  0  0  0
 50 44  1  6  0  0  0
 52 54  1  0  0  0  0
 53 52  1  0  0  0  0
 54 51  1  0  0  0  0
 55 52  2  0  0  0  0
 56 57  1  0  0  0  0
M  END
>  <MODEL>
6

>  <REMARK>
 VINA RESULT:      -7.3      3.184      9.095
  Name = 
  15 active torsions:
  status: ('A' for Active; 'I' for Inactive)
    1  A    between atoms: C_7  and  C_46
    2  A    between atoms: C_11  and  C_24
    3  A    between atoms: N_13  and  C_50
    4  A    between atoms: C_15  and  C_28
    5  A    between atoms: C_15  and  N_47
    6  A    between atoms: C_16  and  N_21
    7  A    between atoms: C_17  and  C_27
    8  A    between atoms: C_17  and  C_28
    9  A    between atoms: C_22  and  N_36
   10  A    between atoms: C_22  and  C_43
   11  A    between atoms: C_24  and  O_34
   12  A    between atoms: C_24  and  C_57
   13  A    between atoms: C_26  and  N_47
   14  A    between atoms: C_27  and  N_38
   15  A    between atoms: C_33  and  C_50
                            x       y       z     vdW  Elec       q    Type
                         _______ _______ _______ _____ _____    ______ ____

>  <TORSDO>
F 15

$$$$
=
 OpenBabel11042411243D

 57 64  0  0  1  0  0  0  0  0999 V2000
  186.6150  178.3120  143.0720 C   0  0  0  0  0  0  0  0  0  0  0  0
  190.7880  177.0580  139.9690 C   0  0  0  0  0  0  0  0  0  0  0  0
  184.8460  178.7640  144.2830 C   0  0  0  0  0  0  0  0  0  0  0  0
  184.4920  179.0030  142.8770 C   0  0  0  0  0  3  0  0  0  0  0  0
  188.6840  177.5310  144.0200 C   0  0  0  0  0  0  0  0  0  0  0  0
  188.5670  177.8740  140.3570 C   0  0  0  0  0  0  0  0  0  0  0  0
  186.8170  178.0250  145.4440 N   0  0  0  0  0  0  0  0  0  0  0  0
  190.9960  176.8700  141.3460 C   0  0  0  0  0  3  0  0  0  0  0  0
  185.5720  178.7250  142.1350 C   0  0  0  0  0  3  0  0  0  0  0  0
  188.1220  177.6150  145.3250 C   0  0  0  0  0  0  0  0  0  0  0  0
  189.9000  177.0960  143.6670 C   0  0  0  0  0  3  0  0  0  0  0  0
  189.5930  177.5540  139.5120 N   0  0  0  0  0  0  0  0  0  0  0  0
  186.0970  178.3620  144.3370 C   0  0  0  0  0  0  0  0  0  0  0  0
  184.0020  178.9260  145.3740 O   0  0  0  0  0  1  0  0  0  0  0  0
  187.9290  177.8900  142.9030 C   0  0  0  0  0  0  0  0  0  0  0  0
  188.7560  177.6750  141.7270 C   0  0  0  0  0  0  0  0  0  0  0  0
  189.9500  177.1900  142.2040 C   0  0  0  0  0  0  0  0  0  0  0  0
  191.7660  175.7280  138.2270 N   0  0  0  0  0  0  0  0  0  0  0  0
  191.8640  176.7330  139.0330 C   0  0  0  0  0  3  0  0  0  0  0  0
  195.4350  175.2850  136.0840 C   0  0  0  0  0  0  0  0  0  0  0  0
  197.1230  173.1080  136.6340 C   0  0  0  0  0  3  0  0  0  0  0  0
  195.2250  177.5780  135.4450 O   0  0  0  0  0  1  0  0  0  0  0  0
  195.9670  173.3050  137.3950 C   0  0  0  0  0  3  0  0  0  0  0  0
  193.9040  174.5740  137.9880 C   0  0  0  0  0  2  0  0  0  0  0  0
  195.1110  174.3750  137.1170 C   0  0  0  0  0  0  0  0  0  0  0  0
  192.8370  175.4200  137.2940 C   0  0  2  0  0  3  0  0  0  0  0  0
  197.4290  173.9850  135.5910 C   0  0  0  0  0  3  0  0  0  0  0  0
  193.4700  176.7120  136.8030 C   0  0  0  0  0  2  0  0  0  0  0  0
  196.5850  175.0650  135.3140 C   0  0  0  0  0  3  0  0  0  0  0  0
  194.5010  176.4160  135.7140 C   0  0  2  0  0  3  0  0  0  0  0  0
  188.1450  177.2940  148.0360 S   0  0  0  0  0  0  0  0  0  0  0  0
  188.8630  177.2760  146.5620 C   0  0  0  0  0  0  0  0  0  0  0  0
  190.1770  176.7330  146.4580 N   0  0  0  0  0  0  0  0  0  0  0  0
  191.6340  176.7210  146.7830 C   0  0  0  0  0  2  0  0  0  0  0  0
  191.1610  175.7400  145.9370 C   0  0  0  0  0  2  0  0  0  0  0  0
  187.3540  178.4290  139.8550 N   0  0  0  0  0  2  0  0  0  0  0  0
  186.5120  177.7390  138.8910 C   0  0  0  0  0  2  0  0  0  0  0  0
  186.3340  178.6060  137.6570 C   0  0  0  0  0  2  0  0  0  0  0  0
  187.6400  178.6720  136.8820 C   0  0  0  0  0  2  0  0  0  0  0  0
  187.4650  178.1090  135.4830 C   0  0  0  0  0  2  0  0  0  0  0  0
  187.6570  175.3120  135.9330 O   0  0  0  0  0  0  0  0  0  0  0  0
  186.5180  175.7820  135.6600 C   0  0  0  0  0  0  0  0  0  0  0  0
  186.3430  177.1840  135.4530 N   0  0  0  0  0  2  0  0  0  0  0  0
  185.3190  174.8750  135.6020 C   0  0  1  0  0  3  0  0  0  0  0  0
  182.8290  174.6310  135.8930 C   0  0  0  0  0  2  0  0  0  0  0  0
  183.9700  176.6310  136.6640 N   0  0  0  0  0  2  0  0  0  0  0  0
  181.5190  176.3330  136.7560 C   0  0  1  0  0  3  0  0  0  0  0  0
  182.6870  177.3270  136.6420 C   0  0  0  0  0  2  0  0  0  0  0  0
  181.5790  175.2810  135.8090 O   0  0  0  0  0  0  0  0  0  0  0  0
  183.9700  175.6130  135.6160 C   0  0  1  0  0  3  0  0  0  0  0  0
  181.1860  175.8650  138.1790 C   0  0  0  0  0  2  0  0  0  0  0  0
  181.8350  177.4970  140.0010 C   0  0  0  0  0  0  0  0  0  0  0  0
  181.4450  178.6070  140.9090 C   0  0  0  0  0  1  0  0  0  0  0  0
  180.8840  176.9790  139.0690 N   0  0  0  0  0  2  0  0  0  0  0  0
  183.0010  177.0230  140.0610 O   0  0  0  0  0  0  0  0  0  0  0  0
  184.9950  172.6520  135.1070 C   0  0  0  0  0  1  0  0  0  0  0  0
  185.4290  173.8860  134.5950 O   0  0  0  0  0  0  0  0  0  0  0  0
  1 13  1  0  0  0  0
  2  8  2  0  0  0  0
  3 13  1  0  0  0  0
  3 14  1  0  0  0  0
  4  3  2  0  0  0  0
  5 10  2  0  0  0  0
  6 16  1  0  0  0  0
  8 17  1  0  0  0  0
  9  4  1  0  0  0  0
  9  1  2  0  0  0  0
 10  7  1  0  0  0  0
 10 32  1  0  0  0  0
 11  5  1  0  0  0  0
 12  2  1  0  0  0  0
 12  6  2  0  0  0  0
 13  7  2  0  0  0  0
 15  1  1  0  0  0  0
 15  5  1  0  0  0  0
 16 17  1  0  0  0  0
 16 15  2  0  0  0  0
 17 11  2  0  0  0  0
 18 19  2  0  0  0  0
 19  2  1  0  0  0  0
 20 25  1  0  0  0  0
 21 23  1  0  0  0  0
 25 23  2  0  0  0  0
 25 24  1  0  0  0  0
 26 24  1  0  0  0  0
 26 18  1  1  0  0  0
 27 21  2  0  0  0  0
 28 26  1  0  0  0  0
 29 27  1  0  0  0  0
 29 20  2  0  0  0  0
 30 22  1  1  0  0  0
 30 20  1  0  0  0  0
 30 28  1  0  0  0  0
 32 31  2  0  0  0  0
 33 32  1  0  0  0  0
 33 34  1  0  0  0  0
 35 33  1  0  0  0  0
 35 34  1  0  0  0  0
 36  6  1  0  0  0  0
 37 36  1  0  0  0  0
 38 37  1  0  0  0  0
 39 38  1  0  0  0  0
 40 39  1  0  0  0  0
 42 41  2  0  0  0  0
 43 40  1  0  0  0  0
 43 42  1  0  0  0  0
 44 57  1  6  0  0  0
 44 42  1  0  0  0  0
 47 51  1  1  0  0  0
 48 46  1  0  0  0  0
 48 47  1  0  0  0  0
 49 45  1  0  0  0  0
 49 47  1  0  0  0  0
 50 44  1  1  0  0  0
 50 45  1  0  0  0  0
 50 46  1  0  0  0  0
 51 54  1  0  0  0  0
 52 55  2  0  0  0  0
 52 53  1  0  0  0  0
 54 52  1  0  0  0  0
 57 56  1  0  0  0  0
M  END
>  <MODEL>
7

>  <REMARK>
 VINA RESULT:      -7.2      1.935      3.383
  Name = 
  15 active torsions:
  status: ('A' for Active; 'I' for Inactive)
    1  A    between atoms: C_7  and  C_46
    2  A    between atoms: C_11  and  C_24
    3  A    between atoms: N_13  and  C_50
    4  A    between atoms: C_15  and  C_28
    5  A    between atoms: C_15  and  N_47
    6  A    between atoms: C_16  and  N_21
    7  A    between atoms: C_17  and  C_27
    8  A    between atoms: C_17  and  C_28
    9  A    between atoms: C_22  and  N_36
   10  A    between atoms: C_22  and  C_43
   11  A    between atoms: C_24  and  O_34
   12  A    between atoms: C_24  and  C_57
   13  A    between atoms: C_26  and  N_47
   14  A    between atoms: C_27  and  N_38
   15  A    between atoms: C_33  and  C_50
                            x       y       z     vdW  Elec       q    Type
                         _______ _______ _______ _____ _____    ______ ____

>  <TORSDO>
F 15

$$$$
=
 OpenBabel11042411243D

 57 64  0  0  1  0  0  0  0  0999 V2000
  186.2470  178.4200  143.2920 C   0  0  0  0  0  0  0  0  0  0  0  0
  189.9070  177.2340  139.5760 C   0  0  0  0  0  0  0  0  0  0  0  0
  184.6800  178.8450  144.7630 C   0  0  0  0  0  0  0  0  0  0  0  0
  184.1210  179.1140  143.4300 C   0  0  0  0  0  3  0  0  0  0  0  0
  188.4320  177.6180  143.9040 C   0  0  0  0  0  0  0  0  0  0  0  0
  187.7720  178.0400  140.3080 C   0  0  0  0  0  0  0  0  0  0  0  0
  186.8000  178.0810  145.6000 N   0  0  0  0  0  0  0  0  0  0  0  0
  190.3180  177.0150  140.9010 C   0  0  0  0  0  3  0  0  0  0  0  0
  185.0780  178.8530  142.5300 C   0  0  0  0  0  3  0  0  0  0  0  0
  188.0710  177.6740  145.2800 C   0  0  0  0  0  0  0  0  0  0  0  0
  189.5800  177.1910  143.3640 C   0  0  0  0  0  3  0  0  0  0  0  0
  188.6590  177.7390  139.3130 N   0  0  0  0  0  0  0  0  0  0  0  0
  185.9240  178.4420  144.6210 C   0  0  0  0  0  0  0  0  0  0  0  0
  184.0090  178.9830  145.9710 O   0  0  0  0  0  1  0  0  0  0  0  0
  187.5200  178.0010  142.9200 C   0  0  0  0  0  0  0  0  0  0  0  0
  188.1620  177.8120  141.6290 C   0  0  0  0  0  0  0  0  0  0  0  0
  189.4120  177.3160  141.9130 C   0  0  0  0  0  0  0  0  0  0  0  0
  191.4730  175.8080  138.4450 N   0  0  0  0  0  0  0  0  0  0  0  0
  190.8310  176.9290  138.4830 C   0  0  0  0  0  3  0  0  0  0  0  0
  194.7920  175.0980  135.8520 C   0  0  0  0  0  0  0  0  0  0  0  0
  195.9090  172.5260  135.6790 C   0  0  0  0  0  3  0  0  0  0  0  0
  195.1280  177.4630  135.7950 O   0  0  0  0  0  1  0  0  0  0  0  0
  194.8820  172.7820  136.5930 C   0  0  0  0  0  3  0  0  0  0  0  0
  193.2380  174.2950  137.6990 C   0  0  0  0  0  2  0  0  0  0  0  0
  194.3070  174.0540  136.6730 C   0  0  0  0  0  0  0  0  0  0  0  0
  192.3810  175.5110  137.3500 C   0  0  2  0  0  3  0  0  0  0  0  0
  196.3670  173.5460  134.8420 C   0  0  0  0  0  3  0  0  0  0  0  0
  193.2890  176.7050  137.1050 C   0  0  0  0  0  2  0  0  0  0  0  0
  195.8070  174.8240  134.9240 C   0  0  0  0  0  3  0  0  0  0  0  0
  194.1520  176.4690  135.8660 C   0  0  2  0  0  3  0  0  0  0  0  0
  188.4570  177.1250  147.9260 S   0  0  0  0  0  0  0  0  0  0  0  0
  188.9870  177.3080  146.3850 C   0  0  0  0  0  0  0  0  0  0  0  0
  190.3230  176.9150  146.0790 N   0  0  0  0  0  0  0  0  0  0  0  0
  191.4450  176.6690  145.1250 C   0  0  0  0  0  2  0  0  0  0  0  0
  191.6800  176.4280  146.4630 C   0  0  0  0  0  2  0  0  0  0  0  0
  186.4990  178.6060  140.0040 N   0  0  0  0  0  2  0  0  0  0  0  0
  185.2770  177.8180  139.9610 C   0  0  0  0  0  2  0  0  0  0  0  0
  184.5520  178.0750  138.6520 C   0  0  0  0  0  2  0  0  0  0  0  0
  183.9260  176.7830  138.1490 C   0  0  0  0  0  2  0  0  0  0  0  0
  183.4260  176.9450  136.7260 C   0  0  0  0  0  2  0  0  0  0  0  0
  182.4700  178.8480  134.8470 O   0  0  0  0  0  0  0  0  0  0  0  0
  181.6840  178.4920  135.7690 C   0  0  0  0  0  0  0  0  0  0  0  0
  182.0870  177.5150  136.7280 N   0  0  0  0  0  2  0  0  0  0  0  0
  180.2890  179.0550  135.8330 C   0  0  1  0  0  3  0  0  0  0  0  0
  179.3610  178.6370  138.1350 C   0  0  0  0  0  2  0  0  0  0  0  0
  181.1240  180.2710  137.7960 N   0  0  0  0  0  2  0  0  0  0  0  0
  180.0280  179.8740  139.9750 C   0  0  1  0  0  3  0  0  0  0  0  0
  180.7500  180.8840  139.0670 C   0  0  0  0  0  2  0  0  0  0  0  0
  178.9360  179.2300  139.3440 O   0  0  0  0  0  0  0  0  0  0  0  0
  179.9300  179.6920  137.1850 C   0  0  1  0  0  3  0  0  0  0  0  0
  180.9400  178.9200  140.7580 C   0  0  0  0  0  2  0  0  0  0  0  0
  180.1680  179.3040  143.1370 C   0  0  0  0  0  0  0  0  0  0  0  0
  179.5680  178.7540  144.3820 C   0  0  0  0  0  1  0  0  0  0  0  0
  180.3230  178.4590  141.9950 N   0  0  0  0  0  2  0  0  0  0  0  0
  180.5340  180.5080  143.1010 O   0  0  0  0  0  0  0  0  0  0  0  0
  179.0640  180.8560  135.0950 C   0  0  0  0  0  1  0  0  0  0  0  0
  179.9720  179.8560  134.7100 O   0  0  0  0  0  0  0  0  0  0  0  0
  1 13  1  0  0  0  0
  2  8  2  0  0  0  0
  3 14  1  0  0  0  0
  4  3  2  0  0  0  0
  5 10  2  0  0  0  0
  6 16  1  0  0  0  0
  8 17  1  0  0  0  0
  9  1  2  0  0  0  0
  9  4  1  0  0  0  0
 10  7  1  0  0  0  0
 10 32  1  0  0  0  0
 11  5  1  0  0  0  0
 12  2  1  0  0  0  0
 12  6  2  0  0  0  0
 13  3  1  0  0  0  0
 13  7  2  0  0  0  0
 15  1  1  0  0  0  0
 15  5  1  0  0  0  0
 16 17  1  0  0  0  0
 16 15  2  0  0  0  0
 17 11  2  0  0  0  0
 18 19  2  0  0  0  0
 19  2  1  0  0  0  0
 20 30  1  0  0  0  0
 20 25  1  0  0  0  0
 21 23  1  0  0  0  0
 23 25  2  0  0  0  0
 25 24  1  0  0  0  0
 26 24  1  0  0  0  0
 26 18  1  1  0  0  0
 27 29  1  0  0  0  0
 27 21  2  0  0  0  0
 28 26  1  0  0  0  0
 29 20  2  0  0  0  0
 30 22  1  1  0  0  0
 30 28  1  0  0  0  0
 32 31  2  0  0  0  0
 33 32  1  0  0  0  0
 33 35  1  0  0  0  0
 34 33  1  0  0  0  0
 34 35  1  0  0  0  0
 36  6  1  0  0  0  0
 37 36  1  0  0  0  0
 38 37  1  0  0  0  0
 39 38  1  0  0  0  0
 40 43  1  0  0  0  0
 40 39  1  0  0  0  0
 41 42  2  0  0  0  0
 42 44  1  0  0  0  0
 42 43  1  0  0  0  0
 44 57  1  6  0  0  0
 45 49  1  0  0  0  0
 46 48  1  0  0  0  0
 47 51  1  6  0  0  0
 48 47  1  0  0  0  0
 49 47  1  0  0  0  0
 50 44  1  6  0  0  0
 50 46  1  0  0  0  0
 50 45  1  0  0  0  0
 51 54  1  0  0  0  0
 52 53  1  0  0  0  0
 54 52  1  0  0  0  0
 55 52  2  0  0  0  0
 57 56  1  0  0  0  0
M  END
>  <MODEL>
8

>  <REMARK>
 VINA RESULT:      -7.0      1.763      2.908
  Name = 
  15 active torsions:
  status: ('A' for Active; 'I' for Inactive)
    1  A    between atoms: C_7  and  C_46
    2  A    between atoms: C_11  and  C_24
    3  A    between atoms: N_13  and  C_50
    4  A    between atoms: C_15  and  C_28
    5  A    between atoms: C_15  and  N_47
    6  A    between atoms: C_16  and  N_21
    7  A    between atoms: C_17  and  C_27
    8  A    between atoms: C_17  and  C_28
    9  A    between atoms: C_22  and  N_36
   10  A    between atoms: C_22  and  C_43
   11  A    between atoms: C_24  and  O_34
   12  A    between atoms: C_24  and  C_57
   13  A    between atoms: C_26  and  N_47
   14  A    between atoms: C_27  and  N_38
   15  A    between atoms: C_33  and  C_50
                            x       y       z     vdW  Elec       q    Type
                         _______ _______ _______ _____ _____    ______ ____

>  <TORSDO>
F 15

$$$$
=
 OpenBabel11042411243D

 57 64  0  0  1  0  0  0  0  0999 V2000
  183.3200  177.8830  137.2460 C   0  0  0  0  0  0  0  0  0  0  0  0
  186.3710  178.4840  141.5980 C   0  0  0  0  0  0  0  0  0  0  0  0
  182.1100  177.5390  135.4520 C   0  0  0  0  0  0  0  0  0  0  0  0
  183.5020  177.2070  135.1180 C   0  0  0  0  0  3  0  0  0  0  0  0
  182.3830  178.6300  139.3330 C   0  0  0  0  0  0  0  0  0  0  0  0
  186.0070  177.9890  139.2810 C   0  0  0  0  0  0  0  0  0  0  0  0
  180.9690  178.3160  137.4210 N   0  0  0  0  0  0  0  0  0  0  0  0
  185.0080  178.7690  141.7880 C   0  0  0  0  0  3  0  0  0  0  0  0
  184.2430  177.4150  136.2130 C   0  0  0  0  0  3  0  0  0  0  0  0
  181.0920  178.6870  138.7360 C   0  0  0  0  0  0  0  0  0  0  0  0
  182.7220  178.8780  140.6040 C   0  0  0  0  0  3  0  0  0  0  0  0
  186.8340  178.1090  140.3630 N   0  0  0  0  0  0  0  0  0  0  0  0
  182.0630  177.9280  136.7080 C   0  0  0  0  0  0  0  0  0  0  0  0
  181.0220  177.4530  134.5940 O   0  0  0  0  0  1  0  0  0  0  0  0
  183.4900  178.2380  138.5800 C   0  0  0  0  0  0  0  0  0  0  0  0
  184.6470  178.2530  139.4600 C   0  0  0  0  0  0  0  0  0  0  0  0
  184.1660  178.6410  140.6880 C   0  0  0  0  0  0  0  0  0  0  0  0
  187.8940  177.5720  143.2150 N   0  0  0  0  0  0  0  0  0  0  0  0
  187.2890  178.6060  142.7310 C   0  0  0  0  0  3  0  0  0  0  0  0
  190.1610  177.2200  146.8180 C   0  0  0  0  0  0  0  0  0  0  0  0
  192.4780  175.6330  146.8650 C   0  0  0  0  0  3  0  0  0  0  0  0
  188.2500  178.0560  147.9860 O   0  0  0  0  0  1  0  0  0  0  0  0
  191.6850  175.6780  145.7140 C   0  0  0  0  0  3  0  0  0  0  0  0
  189.6950  176.4630  144.4340 C   0  0  0  0  0  2  0  0  0  0  0  0
  190.5400  176.4800  145.6750 C   0  0  0  0  0  0  0  0  0  0  0  0
  188.8120  177.7060  144.3340 C   0  0  2  0  0  3  0  0  0  0  0  0
  192.1250  176.3890  147.9850 C   0  0  0  0  0  3  0  0  0  0  0  0
  188.0220  177.8600  145.6240 C   0  0  0  0  0  2  0  0  0  0  0  0
  190.9750  177.1840  147.9590 C   0  0  0  0  0  3  0  0  0  0  0  0
  188.9650  178.1460  146.7910 C   0  0  2  0  0  3  0  0  0  0  0  0
  178.9550  178.0590  140.3150 S   0  0  0  0  0  0  0  0  0  0  0  0
  179.8720  179.1160  139.4590 C   0  0  0  0  0  0  0  0  0  0  0  0
  179.5880  180.5070  139.5790 N   0  0  0  0  0  0  0  0  0  0  0  0
  179.5380  181.8990  139.0420 C   0  0  0  0  0  2  0  0  0  0  0  0
  179.1130  181.7000  140.3400 C   0  0  0  0  0  2  0  0  0  0  0  0
  186.5270  177.6410  138.0000 N   0  0  0  0  0  2  0  0  0  0  0  0
  186.9950  178.6310  137.0440 C   0  0  0  0  0  2  0  0  0  0  0  0
  187.9730  177.9850  136.0790 C   0  0  0  0  0  2  0  0  0  0  0  0
  187.4290  176.6430  135.6160 C   0  0  0  0  0  2  0  0  0  0  0  0
  188.5110  175.8300  134.9310 C   0  0  0  0  0  2  0  0  0  0  0  0
  189.2610  174.8910  137.5040 O   0  0  0  0  0  0  0  0  0  0  0  0
  190.0960  175.5990  136.8750 C   0  0  0  0  0  0  0  0  0  0  0  0
  189.7980  176.0780  135.5630 N   0  0  0  0  0  2  0  0  0  0  0  0
  191.4400  175.9010  137.4800 C   0  0  1  0  0  3  0  0  0  0  0  0
  193.8400  176.5320  137.0500 C   0  0  0  0  0  2  0  0  0  0  0  0
  192.9600  174.4130  136.2520 N   0  0  0  0  0  2  0  0  0  0  0  0
  195.2480  175.2130  135.7700 C   0  0  1  0  0  3  0  0  0  0  0  0
  194.0610  174.3590  135.2940 C   0  0  0  0  0  2  0  0  0  0  0  0
  194.8880  176.5420  136.1050 O   0  0  0  0  0  0  0  0  0  0  0  0
  192.6110  175.8120  136.4880 C   0  0  1  0  0  3  0  0  0  0  0  0
  196.1730  174.5460  136.7960 C   0  0  0  0  0  2  0  0  0  0  0  0
  195.6010  172.3830  137.9780 C   0  0  0  0  0  0  0  0  0  0  0  0
  195.5100  170.8990  137.9380 C   0  0  0  0  0  1  0  0  0  0  0  0
  196.0220  173.0970  136.8140 N   0  0  0  0  0  2  0  0  0  0  0  0
  195.3060  172.9970  139.0370 O   0  0  0  0  0  0  0  0  0  0  0  0
  191.4310  176.7250  139.6270 C   0  0  0  0  0  1  0  0  0  0  0  0
  191.4330  177.0770  138.2680 O   0  0  0  0  0  0  0  0  0  0  0  0
  1 15  1  0  0  0  0
  2  8  2  0  0  0  0
  2 19  1  0  0  0  0
  3 13  1  0  0  0  0
  4  3  2  0  0  0  0
  4  9  1  0  0  0  0
  5 11  1  0  0  0  0
  6 16  1  0  0  0  0
  6 12  2  0  0  0  0
  7 10  1  0  0  0  0
  9  1  2  0  0  0  0
 10  5  2  0  0  0  0
 10 32  1  0  0  0  0
 11 17  2  0  0  0  0
 12  2  1  0  0  0  0
 13  1  1  0  0  0  0
 13  7  2  0  0  0  0
 14  3  1  0  0  0  0
 15  5  1  0  0  0  0
 15 16  2  0  0  0  0
 16 17  1  0  0  0  0
 17  8  1  0  0  0  0
 19 18  2  0  0  0  0
 20 29  1  0  0  0  0
 21 27  1  0  0  0  0
 23 21  2  0  0  0  0
 24 25  1  0  0  0  0
 25 23  1  0  0  0  0
 25 20  2  0  0  0  0
 26 18  1  6  0  0  0
 26 24  1  0  0  0  0
 26 28  1  0  0  0  0
 28 30  1  0  0  0  0
 29 27  2  0  0  0  0
 30 20  1  0  0  0  0
 30 22  1  1  0  0  0
 32 33  1  0  0  0  0
 32 31  2  0  0  0  0
 33 35  1  0  0  0  0
 34 33  1  0  0  0  0
 34 35  1  0  0  0  0
 36  6  1  0  0  0  0
 37 36  1  0  0  0  0
 38 37  1  0  0  0  0
 39 38  1  0  0  0  0
 40 43  1  0  0  0  0
 40 39  1  0  0  0  0
 42 41  2  0  0  0  0
 43 42  1  0  0  0  0
 44 42  1  6  0  0  0
 44 57  1  0  0  0  0
 46 50  1  0  0  0  0
 47 49  1  0  0  0  0
 47 51  1  1  0  0  0
 48 47  1  0  0  0  0
 48 46  1  0  0  0  0
 49 45  1  0  0  0  0
 50 45  1  0  0  0  0
 50 44  1  1  0  0  0
 51 54  1  0  0  0  0
 52 55  2  0  0  0  0
 53 52  1  0  0  0  0
 54 52  1  0  0  0  0
 57 56  1  0  0  0  0
M  END
>  <MODEL>
9

>  <REMARK>
 VINA RESULT:      -6.8      3.064     10.946
  Name = 
  15 active torsions:
  status: ('A' for Active; 'I' for Inactive)
    1  A    between atoms: C_7  and  C_46
    2  A    between atoms: C_11  and  C_24
    3  A    between atoms: N_13  and  C_50
    4  A    between atoms: C_15  and  C_28
    5  A    between atoms: C_15  and  N_47
    6  A    between atoms: C_16  and  N_21
    7  A    between atoms: C_17  and  C_27
    8  A    between atoms: C_17  and  C_28
    9  A    between atoms: C_22  and  N_36
   10  A    between atoms: C_22  and  C_43
   11  A    between atoms: C_24  and  O_34
   12  A    between atoms: C_24  and  C_57
   13  A    between atoms: C_26  and  N_47
   14  A    between atoms: C_27  and  N_38
   15  A    between atoms: C_33  and  C_50
                            x       y       z     vdW  Elec       q    Type
                         _______ _______ _______ _____ _____    ______ ____

>  <TORSDO>
F 15

$$$$
