=
 OpenBabel11032419263D

 30 33  0  0  1  0  0  0  0  0999 V2000
  188.4240  177.9470  138.8240 C   0  0  0  0  0  0  0  0  0  0  0  0
  188.3910  177.9370  136.4880 C   0  0  1  0  0  3  0  0  0  0  0  0
  189.7910  177.5160  136.9480 C   0  0  0  0  0  2  0  0  0  0  0  0
  187.7650  176.8600  135.7650 N   0  0  0  0  0  0  0  0  0  0  0  0
  188.0380  178.2800  140.0270 C   0  0  0  0  0  0  0  0  0  0  0  0
  185.8470  175.3990  135.5780 C   0  0  0  0  0  1  0  0  0  0  0  0
  187.6050  178.1460  137.6880 N   0  0  0  0  0  0  0  0  0  0  0  0
  189.8280  177.6300  138.4720 C   0  0  2  0  0  3  0  0  0  0  0  0
  187.6510  178.6090  141.2260 C   0  0  0  0  0  3  0  0  0  0  0  0
  185.9870  177.4450  137.5900 S   0  0  0  0  0  0  0  0  0  0  0  0
  186.6030  176.5270  136.1880 C   0  0  0  0  0  0  0  0  0  0  0  0
  188.4940  178.3390  142.3390 N   0  0  0  0  0  2  0  0  0  0  0  0
  188.8140  176.9730  142.7040 C   0  0  0  0  0  2  0  0  0  0  0  0
  189.7570  177.3610  146.3390 C   0  0  0  0  0  0  0  0  0  0  0  0
  189.0160  177.3960  145.1560 C   0  0  0  0  0  3  0  0  0  0  0  0
  191.0780  176.8850  146.3210 C   0  0  0  0  0  0  0  0  0  0  0  0
  189.6030  176.9700  143.9640 C   0  0  0  0  0  0  0  0  0  0  0  0
  190.8810  176.5050  143.9630 N   0  0  0  0  0  0  0  0  0  0  0  0
  191.6220  176.4560  145.1020 C   0  0  0  0  0  3  0  0  0  0  0  0
  187.6030  177.7770  147.4740 C   0  0  0  0  0  1  0  0  0  0  0  0
  189.1150  177.8020  147.6140 C   0  0  0  0  0  2  0  0  0  0  0  0
  191.8210  176.8440  147.5060 O   0  0  0  0  0  0  0  0  0  0  0  0
  192.5650  175.7020  147.9100 C   0  0  0  0  0  1  0  0  0  0  0  0
  190.2320  176.2850  139.0580 C   0  0  0  0  0  2  0  0  0  0  0  0
  193.4940  175.1220  137.2620 C   0  0  0  0  0  0  0  0  0  0  0  0
  192.8910  176.4060  138.1630 S   0  0  0  0  0  0  0  0  0  0  0  0
  194.8800  175.0130  136.7380 C   0  0  0  0  0  1  0  0  0  0  0  0
  191.3140  174.5020  137.6750 N   0  0  0  0  0  0  0  0  0  0  0  0
  192.4980  174.1700  137.0910 C   0  0  0  0  0  3  0  0  0  0  0  0
  191.3690  175.7030  138.2920 C   0  0  0  0  0  0  0  0  0  0  0  0
  1  5  2  0  0  0  0
  2  3  1  1  0  0  0
  2  7  1  0  0  0  0
  3  8  1  0  0  0  0
  4 11  2  0  0  0  0
  4  2  1  0  0  0  0
  5  9  2  0  0  0  0
  6 11  1  0  0  0  0
  7  1  1  0  0  0  0
  8  1  1  0  0  0  0
  8 24  1  1  0  0  0
  9 12  1  0  0  0  0
 10  7  1  0  0  0  0
 11 10  1  0  0  0  0
 12 13  1  0  0  0  0
 13 17  1  0  0  0  0
 14 21  1  0  0  0  0
 15 14  2  0  0  0  0
 16 14  1  0  0  0  0
 16 22  1  0  0  0  0
 17 15  1  0  0  0  0
 18 17  2  0  0  0  0
 18 19  1  0  0  0  0
 19 16  2  0  0  0  0
 20 21  1  0  0  0  0
 22 23  1  0  0  0  0
 25 26  1  0  0  0  0
 26 30  1  0  0  0  0
 27 25  1  0  0  0  0
 28 30  2  0  0  0  0
 29 25  2  0  0  0  0
 29 28  1  0  0  0  0
 30 24  1  0  0  0  0
M  END
>  <MODEL>
1

>  <REMARK>
 VINA RESULT:      -8.1      0.000      0.000
  Name = 
  7 active torsions:
  status: ('A' for Active; 'I' for Inactive)
    1  A    between atoms: C_2  and  C_28
    2  A    between atoms: N_4  and  C_23
    3  A    between atoms: N_4  and  C_26
    4  A    between atoms: C_5  and  O_14
    5  A    between atoms: C_7  and  C_26
    6  A    between atoms: C_18  and  C_21
    7  A    between atoms: C_18  and  C_30
                            x       y       z     vdW  Elec       q    Type
                         _______ _______ _______ _____ _____    ______ ____

>  <TORSDO>
F 7

$$$$
=
 OpenBabel11032419263D

 30 33  0  0  1  0  0  0  0  0999 V2000
  188.8620  177.5760  138.8670 C   0  0  0  0  0  0  0  0  0  0  0  0
  191.0200  176.8650  138.3200 C   0  0  1  0  0  3  0  0  0  0  0  0
  190.9620  177.0990  139.8340 C   0  0  0  0  0  2  0  0  0  0  0  0
  191.2900  175.4770  138.0460 N   0  0  0  0  0  0  0  0  0  0  0  0
  187.6820  178.0980  138.6580 C   0  0  0  0  0  0  0  0  0  0  0  0
  190.5770  173.4670  136.9050 C   0  0  0  0  0  1  0  0  0  0  0  0
  189.6920  177.1400  137.8070 N   0  0  0  0  0  0  0  0  0  0  0  0
  189.5800  177.6630  140.1600 C   0  0  2  0  0  3  0  0  0  0  0  0
  186.5060  178.6160  138.4480 C   0  0  0  0  0  3  0  0  0  0  0  0
  189.1340  175.9370  136.6410 S   0  0  0  0  0  0  0  0  0  0  0  0
  190.4630  174.9110  137.2480 C   0  0  0  0  0  0  0  0  0  0  0  0
  185.6920  178.9890  139.5530 N   0  0  0  0  0  2  0  0  0  0  0  0
  186.1160  178.7000  140.9090 C   0  0  0  0  0  2  0  0  0  0  0  0
  183.9750  178.7320  144.0180 C   0  0  0  0  0  0  0  0  0  0  0  0
  185.0980  178.7190  143.1880 C   0  0  0  0  0  3  0  0  0  0  0  0
  182.6890  178.7220  143.4530 C   0  0  0  0  0  0  0  0  0  0  0  0
  184.9280  178.6810  141.8040 C   0  0  0  0  0  0  0  0  0  0  0  0
  183.6780  178.6800  141.2700 N   0  0  0  0  0  0  0  0  0  0  0  0
  182.5680  178.6970  142.0560 C   0  0  0  0  0  3  0  0  0  0  0  0
  185.6330  178.9810  145.8320 C   0  0  0  0  0  1  0  0  0  0  0  0
  184.1640  178.7910  145.4990 C   0  0  0  0  0  2  0  0  0  0  0  0
  181.5620  178.7400  144.2820 O   0  0  0  0  0  0  0  0  0  0  0  0
  180.2340  178.7770  143.7760 C   0  0  0  0  0  1  0  0  0  0  0  0
  188.9150  176.7730  141.1990 C   0  0  0  0  0  2  0  0  0  0  0  0
  189.2620  177.7730  144.9540 C   0  0  0  0  0  0  0  0  0  0  0  0
  188.3380  176.7930  143.9470 S   0  0  0  0  0  0  0  0  0  0  0  0
  189.1090  177.8790  146.4280 C   0  0  0  0  0  1  0  0  0  0  0  0
  190.1410  178.1830  142.8650 N   0  0  0  0  0  0  0  0  0  0  0  0
  190.1990  178.4600  144.1950 C   0  0  0  0  0  3  0  0  0  0  0  0
  189.1650  177.2950  142.5710 C   0  0  0  0  0  0  0  0  0  0  0  0
  1  8  1  0  0  0  0
  2  3  1  1  0  0  0
  3  8  1  0  0  0  0
  4  2  1  0  0  0  0
  5  1  2  0  0  0  0
  6 11  1  0  0  0  0
  7  2  1  0  0  0  0
  7  1  1  0  0  0  0
  8 24  1  1  0  0  0
  9  5  2  0  0  0  0
  9 12  1  0  0  0  0
 10 11  1  0  0  0  0
 10  7  1  0  0  0  0
 11  4  2  0  0  0  0
 12 13  1  0  0  0  0
 13 17  1  0  0  0  0
 14 21  1  0  0  0  0
 15 14  2  0  0  0  0
 16 14  1  0  0  0  0
 16 22  1  0  0  0  0
 17 15  1  0  0  0  0
 18 17  2  0  0  0  0
 18 19  1  0  0  0  0
 19 16  2  0  0  0  0
 21 20  1  0  0  0  0
 23 22  1  0  0  0  0
 24 30  1  0  0  0  0
 25 27  1  0  0  0  0
 26 25  1  0  0  0  0
 28 29  1  0  0  0  0
 29 25  2  0  0  0  0
 30 28  2  0  0  0  0
 30 26  1  0  0  0  0
M  END
>  <MODEL>
2

>  <REMARK>
 VINA RESULT:      -7.8      3.782      6.431
  Name = 
  7 active torsions:
  status: ('A' for Active; 'I' for Inactive)
    1  A    between atoms: C_2  and  C_28
    2  A    between atoms: N_4  and  C_23
    3  A    between atoms: N_4  and  C_26
    4  A    between atoms: C_5  and  O_14
    5  A    between atoms: C_7  and  C_26
    6  A    between atoms: C_18  and  C_21
    7  A    between atoms: C_18  and  C_30
                            x       y       z     vdW  Elec       q    Type
                         _______ _______ _______ _____ _____    ______ ____

>  <TORSDO>
F 7

$$$$
=
 OpenBabel11032419263D

 30 33  0  0  1  0  0  0  0  0999 V2000
  187.9200  177.9130  138.2960 C   0  0  0  0  0  0  0  0  0  0  0  0
  187.2530  178.2320  136.0790 C   0  0  1  0  0  3  0  0  0  0  0  0
  188.6410  177.5830  136.0720 C   0  0  0  0  0  2  0  0  0  0  0  0
  186.2930  177.3500  135.4650 N   0  0  0  0  0  0  0  0  0  0  0  0
  187.9320  178.1200  139.5860 C   0  0  0  0  0  0  0  0  0  0  0  0
  184.1920  176.1740  135.6950 C   0  0  0  0  0  1  0  0  0  0  0  0
  186.8640  178.3660  137.4690 N   0  0  0  0  0  0  0  0  0  0  0  0
  189.1080  177.4790  137.5240 C   0  0  2  0  0  3  0  0  0  0  0  0
  187.9410  178.3240  140.8710 C   0  0  0  0  0  3  0  0  0  0  0  0
  185.1920  177.8880  137.7740 S   0  0  0  0  0  0  0  0  0  0  0  0
  185.2520  177.1060  136.1700 C   0  0  0  0  0  0  0  0  0  0  0  0
  189.0010  177.8010  141.6620 N   0  0  0  0  0  2  0  0  0  0  0  0
  188.7860  176.6400  142.5030 C   0  0  0  0  0  2  0  0  0  0  0  0
  186.7710  177.8440  145.4610 C   0  0  0  0  0  0  0  0  0  0  0  0
  187.1080  177.4560  144.1620 C   0  0  0  0  0  3  0  0  0  0  0  0
  187.7520  177.8430  146.4660 C   0  0  0  0  0  0  0  0  0  0  0  0
  188.4220  177.0860  143.8750 C   0  0  0  0  0  0  0  0  0  0  0  0
  189.3600  177.0820  144.8600 N   0  0  0  0  0  0  0  0  0  0  0  0
  189.0560  177.4500  146.1340 C   0  0  0  0  0  3  0  0  0  0  0  0
  184.8420  179.1970  144.7230 C   0  0  0  0  0  1  0  0  0  0  0  0
  185.3580  178.2220  145.7650 C   0  0  0  0  0  2  0  0  0  0  0  0
  187.4160  178.2260  147.7700 O   0  0  0  0  0  0  0  0  0  0  0  0
  188.2670  177.9920  148.8840 C   0  0  0  0  0  1  0  0  0  0  0  0
  189.4410  176.0260  137.8330 C   0  0  0  0  0  2  0  0  0  0  0  0
  193.2370  175.1360  137.7090 C   0  0  0  0  0  0  0  0  0  0  0  0
  191.7400  174.5210  137.2550 S   0  0  0  0  0  0  0  0  0  0  0  0
  194.5480  174.4860  137.4550 C   0  0  0  0  0  1  0  0  0  0  0  0
  191.7590  176.7390  138.4520 N   0  0  0  0  0  0  0  0  0  0  0  0
  193.0600  176.3550  138.3500 C   0  0  0  0  0  3  0  0  0  0  0  0
  190.9160  175.8340  137.9080 C   0  0  0  0  0  0  0  0  0  0  0  0
  1  5  2  0  0  0  0
  2  3  1  1  0  0  0
  2  7  1  0  0  0  0
  3  8  1  0  0  0  0
  4  2  1  0  0  0  0
  4 11  2  0  0  0  0
  5  9  2  0  0  0  0
  6 11  1  0  0  0  0
  7 10  1  0  0  0  0
  7  1  1  0  0  0  0
  8 24  1  1  0  0  0
  8  1  1  0  0  0  0
  9 12  1  0  0  0  0
 11 10  1  0  0  0  0
 12 13  1  0  0  0  0
 13 17  1  0  0  0  0
 14 21  1  0  0  0  0
 14 16  1  0  0  0  0
 15 14  2  0  0  0  0
 16 22  1  0  0  0  0
 17 15  1  0  0  0  0
 17 18  2  0  0  0  0
 18 19  1  0  0  0  0
 19 16  2  0  0  0  0
 20 21  1  0  0  0  0
 22 23  1  0  0  0  0
 24 30  1  0  0  0  0
 25 29  2  0  0  0  0
 26 25  1  0  0  0  0
 26 30  1  0  0  0  0
 27 25  1  0  0  0  0
 29 28  1  0  0  0  0
 30 28  2  0  0  0  0
M  END
>  <MODEL>
3

>  <REMARK>
 VINA RESULT:      -7.8      1.803      2.308
  Name = 
  7 active torsions:
  status: ('A' for Active; 'I' for Inactive)
    1  A    between atoms: C_2  and  C_28
    2  A    between atoms: N_4  and  C_23
    3  A    between atoms: N_4  and  C_26
    4  A    between atoms: C_5  and  O_14
    5  A    between atoms: C_7  and  C_26
    6  A    between atoms: C_18  and  C_21
    7  A    between atoms: C_18  and  C_30
                            x       y       z     vdW  Elec       q    Type
                         _______ _______ _______ _____ _____    ______ ____

>  <TORSDO>
F 7

$$$$
=
 OpenBabel11032419263D

 30 33  0  0  1  0  0  0  0  0999 V2000
  190.5280  176.1520  138.6910 C   0  0  0  0  0  0  0  0  0  0  0  0
  191.0820  174.7970  136.8690 C   0  0  1  0  0  3  0  0  0  0  0  0
  189.6560  175.3180  136.6600 C   0  0  0  0  0  2  0  0  0  0  0  0
  191.9430  175.2870  135.8230 N   0  0  0  0  0  0  0  0  0  0  0  0
  190.6050  176.6100  139.9110 C   0  0  0  0  0  0  0  0  0  0  0  0
  193.9720  176.4820  135.2690 C   0  0  0  0  0  1  0  0  0  0  0  0
  191.5600  175.3790  138.1080 N   0  0  0  0  0  0  0  0  0  0  0  0
  189.2700  176.1140  137.9080 C   0  0  2  0  0  3  0  0  0  0  0  0
  190.6850  177.0680  141.1280 C   0  0  0  0  0  3  0  0  0  0  0  0
  193.2120  175.9920  137.9970 S   0  0  0  0  0  0  0  0  0  0  0  0
  193.0060  175.8770  136.2270 C   0  0  0  0  0  0  0  0  0  0  0  0
  189.6420  177.8830  141.6450 N   0  0  0  0  0  2  0  0  0  0  0  0
  188.3730  177.2960  142.0300 C   0  0  0  0  0  2  0  0  0  0  0  0
  186.8480  177.7650  145.4520 C   0  0  0  0  0  0  0  0  0  0  0  0
  186.9870  177.7220  144.0630 C   0  0  0  0  0  3  0  0  0  0  0  0
  187.9410  177.4490  146.2740 C   0  0  0  0  0  0  0  0  0  0  0  0
  188.2200  177.3780  143.5080 C   0  0  0  0  0  0  0  0  0  0  0  0
  189.2690  177.0660  144.3160 N   0  0  0  0  0  0  0  0  0  0  0  0
  189.1570  177.0960  145.6710 C   0  0  0  0  0  3  0  0  0  0  0  0
  184.7290  178.9740  145.0690 C   0  0  0  0  0  1  0  0  0  0  0  0
  185.5190  178.1170  146.0400 C   0  0  0  0  0  2  0  0  0  0  0  0
  187.8030  177.4870  147.6660 O   0  0  0  0  0  0  0  0  0  0  0  0
  188.6330  178.2840  148.5010 C   0  0  0  0  0  1  0  0  0  0  0  0
  188.8610  177.5190  137.4900 C   0  0  0  0  0  2  0  0  0  0  0  0
  184.9640  177.6720  137.5940 C   0  0  0  0  0  0  0  0  0  0  0  0
  186.2190  177.0570  136.6590 S   0  0  0  0  0  0  0  0  0  0  0  0
  183.5160  177.4950  137.3150 C   0  0  0  0  0  1  0  0  0  0  0  0
  186.8510  178.3750  138.7130 N   0  0  0  0  0  0  0  0  0  0  0  0
  185.4910  178.3630  138.6760 C   0  0  0  0  0  3  0  0  0  0  0  0
  187.3940  177.7100  137.6690 C   0  0  0  0  0  0  0  0  0  0  0  0
  1  5  2  0  0  0  0
  2  3  1  6  0  0  0
  2  7  1  0  0  0  0
  3  8  1  0  0  0  0
  4 11  2  0  0  0  0
  4  2  1  0  0  0  0
  5  9  2  0  0  0  0
  6 11  1  0  0  0  0
  7  1  1  0  0  0  0
  8 24  1  6  0  0  0
  8  1  1  0  0  0  0
  9 12  1  0  0  0  0
 10  7  1  0  0  0  0
 11 10  1  0  0  0  0
 12 13  1  0  0  0  0
 13 17  1  0  0  0  0
 14 21  1  0  0  0  0
 14 16  1  0  0  0  0
 15 14  2  0  0  0  0
 16 22  1  0  0  0  0
 17 15  1  0  0  0  0
 17 18  2  0  0  0  0
 18 19  1  0  0  0  0
 19 16  2  0  0  0  0
 20 21  1  0  0  0  0
 22 23  1  0  0  0  0
 24 30  1  0  0  0  0
 25 29  2  0  0  0  0
 26 25  1  0  0  0  0
 26 30  1  0  0  0  0
 27 25  1  0  0  0  0
 29 28  1  0  0  0  0
 30 28  2  0  0  0  0
M  END
>  <MODEL>
4

>  <REMARK>
 VINA RESULT:      -7.7      2.000      5.046
  Name = 
  7 active torsions:
  status: ('A' for Active; 'I' for Inactive)
    1  A    between atoms: C_2  and  C_28
    2  A    between atoms: N_4  and  C_23
    3  A    between atoms: N_4  and  C_26
    4  A    between atoms: C_5  and  O_14
    5  A    between atoms: C_7  and  C_26
    6  A    between atoms: C_18  and  C_21
    7  A    between atoms: C_18  and  C_30
                            x       y       z     vdW  Elec       q    Type
                         _______ _______ _______ _____ _____    ______ ____

>  <TORSDO>
F 7

$$$$
=
 OpenBabel11032419263D

 30 33  0  0  1  0  0  0  0  0999 V2000
  188.4220  178.1250  141.0480 C   0  0  0  0  0  0  0  0  0  0  0  0
  190.4400  177.5890  139.9990 C   0  0  1  0  0  3  0  0  0  0  0  0
  190.5800  177.2760  141.4930 C   0  0  0  0  0  2  0  0  0  0  0  0
  190.5710  176.3800  139.2280 N   0  0  0  0  0  0  0  0  0  0  0  0
  187.2690  178.7210  141.1960 C   0  0  0  0  0  0  0  0  0  0  0  0
  189.5790  174.9220  137.5720 C   0  0  0  0  0  1  0  0  0  0  0  0
  189.0860  178.0660  139.7990 N   0  0  0  0  0  0  0  0  0  0  0  0
  189.2920  177.7300  142.1800 C   0  0  2  0  0  3  0  0  0  0  0  0
  186.1190  179.3140  141.3410 C   0  0  0  0  0  3  0  0  0  0  0  0
  188.3050  177.3680  138.3780 S   0  0  0  0  0  0  0  0  0  0  0  0
  189.6150  176.1560  138.4050 C   0  0  0  0  0  0  0  0  0  0  0  0
  185.4710  179.2970  142.6060 N   0  0  0  0  0  2  0  0  0  0  0  0
  184.5130  178.2580  142.9280 C   0  0  0  0  0  2  0  0  0  0  0  0
  180.9170  179.3730  142.6430 C   0  0  0  0  0  0  0  0  0  0  0  0
  182.1480  179.0120  143.1950 C   0  0  0  0  0  3  0  0  0  0  0  0
  180.7420  179.3460  141.2500 C   0  0  0  0  0  0  0  0  0  0  0  0
  183.1870  178.6130  142.3540 C   0  0  0  0  0  0  0  0  0  0  0  0
  183.0060  178.5990  141.0070 N   0  0  0  0  0  0  0  0  0  0  0  0
  181.8190  178.9510  140.4430 C   0  0  0  0  0  3  0  0  0  0  0  0
  179.2910  178.6380  144.3510 C   0  0  0  0  0  1  0  0  0  0  0  0
  179.8140  179.8160  143.5480 C   0  0  0  0  0  2  0  0  0  0  0  0
  179.5110  179.7110  140.6930 O   0  0  0  0  0  0  0  0  0  0  0  0
  179.3310  180.9010  139.9360 C   0  0  0  0  0  1  0  0  0  0  0  0
  188.6890  176.5500  142.9280 C   0  0  0  0  0  2  0  0  0  0  0  0
  188.5690  177.5440  146.6990 C   0  0  0  0  0  0  0  0  0  0  0  0
  189.6670  177.1330  145.4950 S   0  0  0  0  0  0  0  0  0  0  0  0
  188.9180  177.9080  148.0960 C   0  0  0  0  0  1  0  0  0  0  0  0
  187.2260  177.1480  144.8690 N   0  0  0  0  0  0  0  0  0  0  0  0
  187.2810  177.5020  146.1820 C   0  0  0  0  0  3  0  0  0  0  0  0
  188.4520  176.9040  144.3560 C   0  0  0  0  0  0  0  0  0  0  0  0
  1  5  2  0  0  0  0
  1  8  1  0  0  0  0
  2  3  1  1  0  0  0
  3  8  1  0  0  0  0
  4  2  1  0  0  0  0
  5  9  2  0  0  0  0
  6 11  1  0  0  0  0
  7  2  1  0  0  0  0
  7  1  1  0  0  0  0
  8 24  1  6  0  0  0
  9 12  1  0  0  0  0
 10 11  1  0  0  0  0
 10  7  1  0  0  0  0
 11  4  2  0  0  0  0
 12 13  1  0  0  0  0
 14 15  1  0  0  0  0
 14 21  1  0  0  0  0
 16 14  2  0  0  0  0
 17 13  1  0  0  0  0
 17 15  2  0  0  0  0
 18 17  1  0  0  0  0
 19 18  2  0  0  0  0
 19 16  1  0  0  0  0
 21 20  1  0  0  0  0
 22 16  1  0  0  0  0
 23 22  1  0  0  0  0
 24 30  1  0  0  0  0
 25 27  1  0  0  0  0
 26 25  1  0  0  0  0
 28 29  1  0  0  0  0
 29 25  2  0  0  0  0
 30 28  2  0  0  0  0
 30 26  1  0  0  0  0
M  END
>  <MODEL>
5

>  <REMARK>
 VINA RESULT:      -7.6      5.122      8.097
  Name = 
  7 active torsions:
  status: ('A' for Active; 'I' for Inactive)
    1  A    between atoms: C_2  and  C_28
    2  A    between atoms: N_4  and  C_23
    3  A    between atoms: N_4  and  C_26
    4  A    between atoms: C_5  and  O_14
    5  A    between atoms: C_7  and  C_26
    6  A    between atoms: C_18  and  C_21
    7  A    between atoms: C_18  and  C_30
                            x       y       z     vdW  Elec       q    Type
                         _______ _______ _______ _____ _____    ______ ____

>  <TORSDO>
F 7

$$$$
=
 OpenBabel11032419263D

 30 33  0  0  1  0  0  0  0  0999 V2000
  189.0180  177.8650  140.7180 C   0  0  0  0  0  0  0  0  0  0  0  0
  190.9180  177.4030  139.4380 C   0  0  1  0  0  3  0  0  0  0  0  0
  191.2670  177.1690  140.9120 C   0  0  0  0  0  2  0  0  0  0  0  0
  191.0280  176.1690  138.7030 N   0  0  0  0  0  0  0  0  0  0  0  0
  187.8570  178.3970  140.9910 C   0  0  0  0  0  0  0  0  0  0  0  0
  189.9320  174.5790  137.2470 C   0  0  0  0  0  1  0  0  0  0  0  0
  189.5210  177.7880  139.3970 N   0  0  0  0  0  0  0  0  0  0  0  0
  190.0490  177.5760  141.7430 C   0  0  2  0  0  3  0  0  0  0  0  0
  186.6980  178.9260  141.2620 C   0  0  0  0  0  3  0  0  0  0  0  0
  188.6130  176.9790  138.1170 S   0  0  0  0  0  0  0  0  0  0  0  0
  189.9920  175.8500  138.0210 C   0  0  0  0  0  0  0  0  0  0  0  0
  186.2190  178.9290  142.6000 N   0  0  0  0  0  2  0  0  0  0  0  0
  185.3190  177.8900  143.0610 C   0  0  0  0  0  2  0  0  0  0  0  0
  182.0880  178.6230  141.2500 C   0  0  0  0  0  0  0  0  0  0  0  0
  183.4170  178.2660  141.4880 C   0  0  0  0  0  3  0  0  0  0  0  0
  181.2630  178.9960  142.3230 C   0  0  0  0  0  0  0  0  0  0  0  0
  183.9140  178.2990  142.7910 C   0  0  0  0  0  0  0  0  0  0  0  0
  183.1020  178.6560  143.8210 N   0  0  0  0  0  0  0  0  0  0  0  0
  181.8030  179.0030  143.6170 C   0  0  0  0  0  3  0  0  0  0  0  0
  182.1340  179.7030  139.0300 C   0  0  0  0  0  1  0  0  0  0  0  0
  181.5570  178.5670  139.8540 C   0  0  0  0  0  2  0  0  0  0  0  0
  179.9290  179.3500  142.0880 O   0  0  0  0  0  0  0  0  0  0  0  0
  179.5240  180.6840  141.8080 C   0  0  0  0  0  1  0  0  0  0  0  0
  189.6250  176.3980  142.6070 C   0  0  0  0  0  2  0  0  0  0  0  0
  189.4160  177.2860  146.4000 C   0  0  0  0  0  0  0  0  0  0  0  0
  188.4390  177.1460  145.0400 S   0  0  0  0  0  0  0  0  0  0  0  0
  188.9480  177.6410  147.7650 C   0  0  0  0  0  1  0  0  0  0  0  0
  190.9010  176.6990  144.7390 N   0  0  0  0  0  0  0  0  0  0  0  0
  190.7310  177.0060  146.0540 C   0  0  0  0  0  3  0  0  0  0  0  0
  189.7380  176.7430  144.0520 C   0  0  0  0  0  0  0  0  0  0  0  0
  1  5  2  0  0  0  0
  1  8  1  0  0  0  0
  2  3  1  1  0  0  0
  3  8  1  0  0  0  0
  4  2  1  0  0  0  0
  5  9  2  0  0  0  0
  6 11  1  0  0  0  0
  7  2  1  0  0  0  0
  7  1  1  0  0  0  0
  8 24  1  1  0  0  0
  9 12  1  0  0  0  0
 10  7  1  0  0  0  0
 11 10  1  0  0  0  0
 11  4  2  0  0  0  0
 12 13  1  0  0  0  0
 14 15  2  0  0  0  0
 14 16  1  0  0  0  0
 15 17  1  0  0  0  0
 16 19  2  0  0  0  0
 17 13  1  0  0  0  0
 17 18  2  0  0  0  0
 19 18  1  0  0  0  0
 20 21  1  0  0  0  0
 21 14  1  0  0  0  0
 22 16  1  0  0  0  0
 23 22  1  0  0  0  0
 24 30  1  0  0  0  0
 25 27  1  0  0  0  0
 26 25  1  0  0  0  0
 28 29  1  0  0  0  0
 29 25  2  0  0  0  0
 30 28  2  0  0  0  0
 30 26  1  0  0  0  0
M  END
>  <MODEL>
6

>  <REMARK>
 VINA RESULT:      -7.4      4.537      7.653
  Name = 
  7 active torsions:
  status: ('A' for Active; 'I' for Inactive)
    1  A    between atoms: C_2  and  C_28
    2  A    between atoms: N_4  and  C_23
    3  A    between atoms: N_4  and  C_26
    4  A    between atoms: C_5  and  O_14
    5  A    between atoms: C_7  and  C_26
    6  A    between atoms: C_18  and  C_21
    7  A    between atoms: C_18  and  C_30
                            x       y       z     vdW  Elec       q    Type
                         _______ _______ _______ _____ _____    ______ ____

>  <TORSDO>
F 7

$$$$
=
 OpenBabel11032419263D

 30 33  0  0  1  0  0  0  0  0999 V2000
  183.1360  178.6400  141.2630 C   0  0  0  0  0  0  0  0  0  0  0  0
  180.8790  178.3680  141.8030 C   0  0  1  0  0  3  0  0  0  0  0  0
  181.6950  178.2670  143.0970 C   0  0  0  0  0  2  0  0  0  0  0  0
  179.9940  179.5030  141.8650 N   0  0  0  0  0  0  0  0  0  0  0  0
  184.1940  178.6380  140.4980 C   0  0  0  0  0  0  0  0  0  0  0  0
  179.2670  181.5580  140.8170 C   0  0  0  0  0  1  0  0  0  0  0  0
  181.8230  178.6330  140.7360 N   0  0  0  0  0  0  0  0  0  0  0  0
  183.1730  178.3420  142.7140 C   0  0  2  0  0  3  0  0  0  0  0  0
  185.2480  178.6380  139.7330 C   0  0  0  0  0  3  0  0  0  0  0  0
  181.2770  179.8890  139.6200 S   0  0  0  0  0  0  0  0  0  0  0  0
  180.0790  180.3110  140.8750 C   0  0  0  0  0  0  0  0  0  0  0  0
  186.5430  178.6990  140.3160 N   0  0  0  0  0  2  0  0  0  0  0  0
  187.7160  178.3480  139.5390 C   0  0  0  0  0  2  0  0  0  0  0  0
  189.8850  177.9340  142.6020 C   0  0  0  0  0  0  0  0  0  0  0  0
  188.8910  178.4040  141.7410 C   0  0  0  0  0  3  0  0  0  0  0  0
  190.7640  176.9280  142.1680 C   0  0  0  0  0  0  0  0  0  0  0  0
  188.7910  177.8780  140.4530 C   0  0  0  0  0  0  0  0  0  0  0  0
  189.6440  176.8990  140.0490 N   0  0  0  0  0  0  0  0  0  0  0  0
  190.6180  176.4200  140.8690 C   0  0  0  0  0  3  0  0  0  0  0  0
  190.9070  179.6850  144.0100 C   0  0  0  0  0  1  0  0  0  0  0  0
  189.9740  178.4890  143.9860 C   0  0  0  0  0  2  0  0  0  0  0  0
  191.7580  176.4500  143.0290 O   0  0  0  0  0  0  0  0  0  0  0  0
  191.5370  175.3880  143.9480 C   0  0  0  0  0  1  0  0  0  0  0  0
  183.8240  179.4860  143.4770 C   0  0  0  0  0  2  0  0  0  0  0  0
  186.3200  178.0950  146.1330 C   0  0  0  0  0  0  0  0  0  0  0  0
  186.1850  178.3400  144.4750 S   0  0  0  0  0  0  0  0  0  0  0  0
  187.5060  177.5300  146.8260 C   0  0  0  0  0  1  0  0  0  0  0  0
  184.2150  179.0030  145.9010 N   0  0  0  0  0  0  0  0  0  0  0  0
  185.1530  178.5140  146.7570 C   0  0  0  0  0  3  0  0  0  0  0  0
  184.6290  178.9640  144.6160 C   0  0  0  0  0  0  0  0  0  0  0  0
  1  8  1  0  0  0  0
  2  4  1  0  0  0  0
  2  3  1  1  0  0  0
  5  1  2  0  0  0  0
  6 11  1  0  0  0  0
  7  1  1  0  0  0  0
  7  2  1  0  0  0  0
  8  3  1  0  0  0  0
  8 24  1  1  0  0  0
  9 12  1  0  0  0  0
  9  5  2  0  0  0  0
 10  7  1  0  0  0  0
 10 11  1  0  0  0  0
 11  4  2  0  0  0  0
 13 12  1  0  0  0  0
 13 17  1  0  0  0  0
 14 21  1  0  0  0  0
 15 14  2  0  0  0  0
 16 14  1  0  0  0  0
 16 22  1  0  0  0  0
 17 15  1  0  0  0  0
 18 17  2  0  0  0  0
 18 19  1  0  0  0  0
 19 16  2  0  0  0  0
 21 20  1  0  0  0  0
 22 23  1  0  0  0  0
 24 30  1  0  0  0  0
 25 29  2  0  0  0  0
 25 27  1  0  0  0  0
 26 30  1  0  0  0  0
 26 25  1  0  0  0  0
 28 29  1  0  0  0  0
 30 28  2  0  0  0  0
M  END
>  <MODEL>
7

>  <REMARK>
 VINA RESULT:      -7.4      4.584      7.596
  Name = 
  7 active torsions:
  status: ('A' for Active; 'I' for Inactive)
    1  A    between atoms: C_2  and  C_28
    2  A    between atoms: N_4  and  C_23
    3  A    between atoms: N_4  and  C_26
    4  A    between atoms: C_5  and  O_14
    5  A    between atoms: C_7  and  C_26
    6  A    between atoms: C_18  and  C_21
    7  A    between atoms: C_18  and  C_30
                            x       y       z     vdW  Elec       q    Type
                         _______ _______ _______ _____ _____    ______ ____

>  <TORSDO>
F 7

$$$$
=
 OpenBabel11032419263D

 30 33  0  0  1  0  0  0  0  0999 V2000
  189.1640  178.0520  142.9420 C   0  0  0  0  0  0  0  0  0  0  0  0
  190.6630  177.9670  144.7320 C   0  0  1  0  0  3  0  0  0  0  0  0
  189.2510  178.1550  145.2990 C   0  0  0  0  0  2  0  0  0  0  0  0
  191.2100  176.7110  145.1760 N   0  0  0  0  0  0  0  0  0  0  0  0
  188.7810  178.2330  141.7060 C   0  0  0  0  0  0  0  0  0  0  0  0
  192.2000  174.5990  144.5350 C   0  0  0  0  0  1  0  0  0  0  0  0
  190.5230  177.8750  143.2920 N   0  0  0  0  0  0  0  0  0  0  0  0
  188.2970  178.3140  144.1150 C   0  0  2  0  0  3  0  0  0  0  0  0
  188.4020  178.4120  140.4730 C   0  0  0  0  0  3  0  0  0  0  0  0
  191.4930  176.5830  142.5810 S   0  0  0  0  0  0  0  0  0  0  0  0
  191.6500  175.9520  144.2430 C   0  0  0  0  0  0  0  0  0  0  0  0
  187.0170  178.5310  140.1710 N   0  0  0  0  0  2  0  0  0  0  0  0
  186.5320  178.2690  138.8300 C   0  0  0  0  0  2  0  0  0  0  0  0
  182.8140  177.7460  138.4360 C   0  0  0  0  0  0  0  0  0  0  0  0
  184.1880  177.4960  138.4560 C   0  0  0  0  0  3  0  0  0  0  0  0
  182.3330  179.0260  138.7510 C   0  0  0  0  0  0  0  0  0  0  0  0
  185.0690  178.5300  138.7750 C   0  0  0  0  0  0  0  0  0  0  0  0
  184.5890  179.7630  139.0850 N   0  0  0  0  0  0  0  0  0  0  0  0
  183.2550  180.0310  139.0780 C   0  0  0  0  0  3  0  0  0  0  0  0
  181.5210  175.8610  139.3720 C   0  0  0  0  0  1  0  0  0  0  0  0
  181.8760  176.6290  138.1120 C   0  0  0  0  0  2  0  0  0  0  0  0
  180.9560  179.2780  138.7370 O   0  0  0  0  0  0  0  0  0  0  0  0
  180.2970  180.0160  139.7590 C   0  0  0  0  0  1  0  0  0  0  0  0
  187.2050  177.2600  144.2150 C   0  0  0  0  0  2  0  0  0  0  0  0
  183.6250  178.7850  143.9390 C   0  0  0  0  0  0  0  0  0  0  0  0
  184.8240  178.0960  142.9840 S   0  0  0  0  0  0  0  0  0  0  0  0
  182.3000  179.2520  143.4560 C   0  0  0  0  0  1  0  0  0  0  0  0
  185.3110  178.3400  145.4450 N   0  0  0  0  0  0  0  0  0  0  0  0
  184.0590  178.8400  145.2570 C   0  0  0  0  0  3  0  0  0  0  0  0
  185.8640  177.9040  144.2910 C   0  0  0  0  0  0  0  0  0  0  0  0
  1  7  1  0  0  0  0
  1  8  1  0  0  0  0
  2  4  1  0  0  0  0
  2  3  1  1  0  0  0
  5  1  2  0  0  0  0
  7  2  1  0  0  0  0
  8 24  1  1  0  0  0
  8  3  1  0  0  0  0
  9  5  2  0  0  0  0
 10  7  1  0  0  0  0
 10 11  1  0  0  0  0
 11  6  1  0  0  0  0
 11  4  2  0  0  0  0
 12  9  1  0  0  0  0
 13 12  1  0  0  0  0
 14 15  2  0  0  0  0
 14 16  1  0  0  0  0
 15 17  1  0  0  0  0
 16 19  2  0  0  0  0
 17 13  1  0  0  0  0
 17 18  2  0  0  0  0
 19 18  1  0  0  0  0
 21 14  1  0  0  0  0
 21 20  1  0  0  0  0
 22 16  1  0  0  0  0
 22 23  1  0  0  0  0
 24 30  1  0  0  0  0
 25 29  2  0  0  0  0
 26 25  1  0  0  0  0
 26 30  1  0  0  0  0
 27 25  1  0  0  0  0
 29 28  1  0  0  0  0
 30 28  2  0  0  0  0
M  END
>  <MODEL>
8

>  <REMARK>
 VINA RESULT:      -7.3      4.554      9.542
  Name = 
  7 active torsions:
  status: ('A' for Active; 'I' for Inactive)
    1  A    between atoms: C_2  and  C_28
    2  A    between atoms: N_4  and  C_23
    3  A    between atoms: N_4  and  C_26
    4  A    between atoms: C_5  and  O_14
    5  A    between atoms: C_7  and  C_26
    6  A    between atoms: C_18  and  C_21
    7  A    between atoms: C_18  and  C_30
                            x       y       z     vdW  Elec       q    Type
                         _______ _______ _______ _____ _____    ______ ____

>  <TORSDO>
F 7

$$$$
=
 OpenBabel11032419263D

 30 33  0  0  1  0  0  0  0  0999 V2000
  186.2650  177.9130  143.1720 C   0  0  0  0  0  0  0  0  0  0  0  0
  186.9530  176.7520  145.0800 C   0  0  1  0  0  3  0  0  0  0  0  0
  188.0550  176.6280  144.0210 C   0  0  0  0  0  2  0  0  0  0  0  0
  187.4530  177.4590  146.2310 N   0  0  0  0  0  0  0  0  0  0  0  0
  185.4180  178.4650  142.3450 C   0  0  0  0  0  0  0  0  0  0  0  0
  187.1580  179.3240  147.7420 C   0  0  0  0  0  1  0  0  0  0  0  0
  185.9130  177.5810  144.5020 N   0  0  0  0  0  0  0  0  0  0  0  0
  187.5460  177.3010  142.7470 C   0  0  2  0  0  3  0  0  0  0  0  0
  184.5730  179.0170  141.5220 C   0  0  0  0  0  3  0  0  0  0  0  0
  185.2950  178.8010  145.6180 S   0  0  0  0  0  0  0  0  0  0  0  0
  186.7470  178.4620  146.6000 C   0  0  0  0  0  0  0  0  0  0  0  0
  184.9950  179.3780  140.2130 N   0  0  0  0  0  2  0  0  0  0  0  0
  184.0810  179.2770  139.0920 C   0  0  0  0  0  2  0  0  0  0  0  0
  185.6170  176.4540  137.1100 C   0  0  0  0  0  0  0  0  0  0  0  0
  185.4400  177.7020  137.7120 C   0  0  0  0  0  3  0  0  0  0  0  0
  184.6210  175.4710  137.2370 C   0  0  0  0  0  0  0  0  0  0  0  0
  184.2660  177.9630  138.4210 C   0  0  0  0  0  0  0  0  0  0  0  0
  183.3150  177.0000  138.5410 N   0  0  0  0  0  0  0  0  0  0  0  0
  183.4650  175.7740  137.9690 C   0  0  0  0  0  3  0  0  0  0  0  0
  187.2050  177.3270  135.4330 C   0  0  0  0  0  1  0  0  0  0  0  0
  186.8830  176.1760  136.3690 C   0  0  0  0  0  2  0  0  0  0  0  0
  184.7980  174.2180  136.6390 O   0  0  0  0  0  0  0  0  0  0  0  0
  185.1110  173.0470  137.3830 C   0  0  0  0  0  1  0  0  0  0  0  0
  188.5360  178.3770  142.3260 C   0  0  0  0  0  2  0  0  0  0  0  0
  190.1010  177.3640  138.8990 C   0  0  0  0  0  0  0  0  0  0  0  0
  190.3140  177.1250  140.5490 S   0  0  0  0  0  0  0  0  0  0  0  0
  190.9300  176.7560  137.8270 C   0  0  0  0  0  1  0  0  0  0  0  0
  188.4200  178.6290  139.8380 N   0  0  0  0  0  0  0  0  0  0  0  0
  189.0210  178.2110  138.6910 C   0  0  0  0  0  3  0  0  0  0  0  0
  189.0210  178.1270  140.9400 C   0  0  0  0  0  0  0  0  0  0  0  0
  1  7  1  0  0  0  0
  2  3  1  6  0  0  0
  2  4  1  0  0  0  0
  4 11  2  0  0  0  0
  5  1  2  0  0  0  0
  7  2  1  0  0  0  0
  7 10  1  0  0  0  0
  8 24  1  1  0  0  0
  8  1  1  0  0  0  0
  8  3  1  0  0  0  0
  9  5  2  0  0  0  0
 10 11  1  0  0  0  0
 11  6  1  0  0  0  0
 12  9  1  0  0  0  0
 13 12  1  0  0  0  0
 14 16  2  0  0  0  0
 14 15  1  0  0  0  0
 15 17  2  0  0  0  0
 16 19  1  0  0  0  0
 17 18  1  0  0  0  0
 17 13  1  0  0  0  0
 19 18  2  0  0  0  0
 20 21  1  0  0  0  0
 21 14  1  0  0  0  0
 22 16  1  0  0  0  0
 22 23  1  0  0  0  0
 25 26  1  0  0  0  0
 26 30  1  0  0  0  0
 27 25  1  0  0  0  0
 28 30  2  0  0  0  0
 29 25  2  0  0  0  0
 29 28  1  0  0  0  0
 30 24  1  0  0  0  0
M  END
>  <MODEL>
9

>  <REMARK>
 VINA RESULT:      -7.3      3.820      8.370
  Name = 
  7 active torsions:
  status: ('A' for Active; 'I' for Inactive)
    1  A    between atoms: C_2  and  C_28
    2  A    between atoms: N_4  and  C_23
    3  A    between atoms: N_4  and  C_26
    4  A    between atoms: C_5  and  O_14
    5  A    between atoms: C_7  and  C_26
    6  A    between atoms: C_18  and  C_21
    7  A    between atoms: C_18  and  C_30
                            x       y       z     vdW  Elec       q    Type
                         _______ _______ _______ _____ _____    ______ ____

>  <TORSDO>
F 7

$$$$
