=
 OpenBabel11042411003D

 29 31  0  0  1  0  0  0  0  0999 V2000
  184.9040  179.2790  140.5610 C   0  0  0  0  0  3  0  0  0  0  0  0
  187.0840  178.4080  141.0360 N   0  0  0  0  0  0  0  0  0  0  0  0
  186.7970  178.3470  139.6530 C   0  0  0  0  0  0  0  0  0  0  0  0
  185.5150  178.8220  139.3220 N   0  0  0  0  0  0  0  0  0  0  0  0
  187.6200  177.9450  138.7880 O   0  0  0  0  0  0  0  0  0  0  0  0
  185.9240  179.0050  141.6930 C   0  0  2  0  0  3  0  0  0  0  0  0
  186.3740  177.7280  143.7950 C   0  0  0  0  0  3  0  0  0  0  0  0
  186.3780  178.2630  145.0290 C   0  0  0  0  0  0  0  0  0  0  0  0
  185.3340  178.0510  142.7470 C   0  0  1  0  0  3  0  0  0  0  0  0
  184.0950  178.6400  143.3820 C   0  0  0  0  0  0  0  0  0  0  0  0
  182.9930  178.5960  142.7760 O   0  0  0  0  0  0  0  0  0  0  0  0
  185.2560  179.1310  145.4550 C   0  0  0  0  0  3  0  0  0  0  0  0
  184.1770  179.2980  144.6920 C   0  0  0  0  0  3  0  0  0  0  0  0
  187.4750  177.9530  145.9770 C   0  0  0  0  0  0  0  0  0  0  0  0
  187.2590  178.0130  147.3610 C   0  0  0  0  0  3  0  0  0  0  0  0
  189.5080  177.3840  147.7940 C   0  0  0  0  0  3  0  0  0  0  0  0
  189.7730  177.3110  146.4270 C   0  0  0  0  0  3  0  0  0  0  0  0
  188.2680  177.7310  148.2300 N   0  0  0  0  0  0  0  0  0  0  0  0
  188.7520  177.5960  145.5200 C   0  0  0  0  0  3  0  0  0  0  0  0
  188.4380  178.5330  141.5660 C   0  0  0  0  0  2  0  0  0  0  0  0
  188.5340  176.2650  142.1770 O   0  0  0  0  0  0  0  0  0  0  0  0
  189.1030  177.1970  141.6300 C   0  0  0  0  0  0  0  0  0  0  0  0
  190.4580  177.0130  141.0130 C   0  0  2  0  0  3  0  0  0  0  0  0
  191.5900  177.3340  141.9750 C   0  0  0  0  0  1  0  0  0  0  0  0
  190.6230  177.6800  139.6440 C   0  0  0  0  0  2  0  0  0  0  0  0
  190.4550  176.9940  136.8450 O   0  0  0  0  0  0  0  0  0  0  0  0
  191.1770  176.5610  138.3100 P   0  0  0  0  0  0  0  0  0  0  0  0
  190.7660  175.1500  138.6580 O   0  0  0  0  0  1  0  0  0  0  0  0
  192.8600  176.6220  138.1470 O   0  0  0  0  0  1  0  0  0  0  0  0
  2 20  1  0  0  0  0
  2  6  1  0  0  0  0
  3  2  1  0  0  0  0
  4  3  1  0  0  0  0
  4  1  2  0  0  0  0
  5  3  2  0  0  0  0
  6  1  1  6  0  0  0
  6  9  1  0  0  0  0
  7  8  2  0  0  0  0
  8 12  1  0  0  0  0
  8 14  1  0  0  0  0
  9 10  1  0  0  0  0
  9  7  1  1  0  0  0
 10 13  1  0  0  0  0
 11 10  2  0  0  0  0
 13 12  2  0  0  0  0
 14 15  1  0  0  0  0
 15 18  2  0  0  0  0
 16 18  1  0  0  0  0
 17 16  2  0  0  0  0
 19 14  2  0  0  0  0
 19 17  1  0  0  0  0
 20 22  1  0  0  0  0
 22 21  2  0  0  0  0
 23 22  1  0  0  0  0
 23 24  1  1  0  0  0
 25 23  1  0  0  0  0
 26 27  2  0  0  0  0
 27 28  1  0  0  0  0
 27 25  1  0  0  0  0
 29 27  1  0  0  0  0
M  END
>  <MODEL>
1

>  <REMARK>
 VINA RESULT:      -8.9      0.000      0.000
  Name = 
  7 active torsions:
  status: ('A' for Active; 'I' for Inactive)
    1  A    between atoms: C_2  and  C_10
    2  A    between atoms: C_3  and  C_8
    3  A    between atoms: C_3  and  C_24
    4  A    between atoms: P_7  and  C_8
    5  A    between atoms: N_9  and  C_18
    6  A    between atoms: C_18  and  C_24
    7  A    between atoms: C_19  and  C_29
                            x       y       z     vdW  Elec       q    Type
                         _______ _______ _______ _____ _____    ______ ____

>  <TORSDO>
F 7

$$$$
=
 OpenBabel11042411003D

 29 31  0  0  1  0  0  0  0  0999 V2000
  187.4830  177.2440  146.6960 C   0  0  0  0  0  3  0  0  0  0  0  0
  188.2770  177.2120  144.4360 N   0  0  0  0  0  0  0  0  0  0  0  0
  189.3310  176.9950  145.3530 C   0  0  0  0  0  0  0  0  0  0  0  0
  188.9230  177.0300  146.6990 N   0  0  0  0  0  0  0  0  0  0  0  0
  190.5170  176.7500  145.0070 O   0  0  0  0  0  0  0  0  0  0  0  0
  187.0510  177.3710  145.2140 C   0  0  2  0  0  3  0  0  0  0  0  0
  185.9260  178.8180  143.5130 C   0  0  0  0  0  3  0  0  0  0  0  0
  184.6360  178.7080  143.1500 C   0  0  0  0  0  0  0  0  0  0  0  0
  186.4000  178.7400  144.9460 C   0  0  1  0  0  3  0  0  0  0  0  0
  185.2610  178.9980  145.9060 C   0  0  0  0  0  0  0  0  0  0  0  0
  185.4990  179.3800  147.0810 O   0  0  0  0  0  0  0  0  0  0  0  0
  183.5860  178.6190  144.1910 C   0  0  0  0  0  3  0  0  0  0  0  0
  183.8730  178.7700  145.4840 C   0  0  0  0  0  3  0  0  0  0  0  0
  184.2560  178.7210  141.7180 C   0  0  0  0  0  0  0  0  0  0  0  0
  185.1900  179.0810  140.7350 C   0  0  0  0  0  3  0  0  0  0  0  0
  183.5860  178.7620  139.0140 C   0  0  0  0  0  3  0  0  0  0  0  0
  182.6200  178.3970  139.9520 C   0  0  0  0  0  3  0  0  0  0  0  0
  184.8400  179.0940  139.4200 N   0  0  0  0  0  0  0  0  0  0  0  0
  182.9600  178.3770  141.3050 C   0  0  0  0  0  3  0  0  0  0  0  0
  188.2820  176.6860  143.0760 C   0  0  0  0  0  2  0  0  0  0  0  0
  189.3800  178.7030  142.5710 O   0  0  0  0  0  0  0  0  0  0  0  0
  188.9420  177.6470  142.1410 C   0  0  0  0  0  0  0  0  0  0  0  0
  189.0680  177.3000  140.6870 C   0  0  2  0  0  3  0  0  0  0  0  0
  190.4250  176.7100  140.3410 C   0  0  0  0  0  1  0  0  0  0  0  0
  188.6330  178.4150  139.7320 C   0  0  0  0  0  2  0  0  0  0  0  0
  187.8710  176.3150  137.9040 O   0  0  0  0  0  1  0  0  0  0  0  0
  188.4500  177.9010  137.9890 P   0  0  0  0  0  0  0  0  0  0  0  0
  189.8040  177.9620  137.3200 O   0  0  0  0  0  1  0  0  0  0  0  0
  187.3850  178.9330  137.1750 O   0  0  0  0  0  0  0  0  0  0  0  0
  1  4  2  0  0  0  0
  2  6  1  0  0  0  0
  2  3  1  0  0  0  0
  3  4  1  0  0  0  0
  5  3  2  0  0  0  0
  6  1  1  1  0  0  0
  8  7  2  0  0  0  0
  8 12  1  0  0  0  0
  9  7  1  6  0  0  0
  9  6  1  0  0  0  0
  9 10  1  0  0  0  0
 10 11  2  0  0  0  0
 12 13  2  0  0  0  0
 13 10  1  0  0  0  0
 14  8  1  0  0  0  0
 15 14  2  0  0  0  0
 16 18  2  0  0  0  0
 16 17  1  0  0  0  0
 17 19  2  0  0  0  0
 18 15  1  0  0  0  0
 19 14  1  0  0  0  0
 20  2  1  0  0  0  0
 22 21  2  0  0  0  0
 22 20  1  0  0  0  0
 23 24  1  6  0  0  0
 23 22  1  0  0  0  0
 25 23  1  0  0  0  0
 26 27  1  0  0  0  0
 27 25  1  0  0  0  0
 28 27  1  0  0  0  0
 29 27  2  0  0  0  0
M  END
>  <MODEL>
2

>  <REMARK>
 VINA RESULT:      -8.5      1.984      5.284
  Name = 
  7 active torsions:
  status: ('A' for Active; 'I' for Inactive)
    1  A    between atoms: C_2  and  C_10
    2  A    between atoms: C_3  and  C_8
    3  A    between atoms: C_3  and  C_24
    4  A    between atoms: P_7  and  C_8
    5  A    between atoms: N_9  and  C_18
    6  A    between atoms: C_18  and  C_24
    7  A    between atoms: C_19  and  C_29
                            x       y       z     vdW  Elec       q    Type
                         _______ _______ _______ _____ _____    ______ ____

>  <TORSDO>
F 7

$$$$
=
 OpenBabel11042411003D

 29 31  0  0  1  0  0  0  0  0999 V2000
  184.8770  179.2030  140.1760 C   0  0  0  0  0  3  0  0  0  0  0  0
  186.9700  178.5170  141.1170 N   0  0  0  0  0  0  0  0  0  0  0  0
  186.9700  178.3760  139.7100 C   0  0  0  0  0  0  0  0  0  0  0  0
  185.7510  178.7410  139.1080 N   0  0  0  0  0  0  0  0  0  0  0  0
  187.9720  178.0010  139.0460 O   0  0  0  0  0  0  0  0  0  0  0  0
  185.6670  179.0530  141.5000 C   0  0  2  0  0  3  0  0  0  0  0  0
  185.8170  177.8130  143.6660 C   0  0  0  0  0  3  0  0  0  0  0  0
  185.6270  178.3660  144.8770 C   0  0  0  0  0  0  0  0  0  0  0  0
  184.9410  178.1030  142.4690 C   0  0  1  0  0  3  0  0  0  0  0  0
  183.6110  178.6770  142.9010 C   0  0  0  0  0  0  0  0  0  0  0  0
  182.6130  178.6040  142.1370 O   0  0  0  0  0  0  0  0  0  0  0  0
  184.4400  179.2180  145.1160 C   0  0  0  0  0  3  0  0  0  0  0  0
  183.4840  179.3540  144.1970 C   0  0  0  0  0  3  0  0  0  0  0  0
  186.5740  178.0900  145.9840 C   0  0  0  0  0  0  0  0  0  0  0  0
  187.5620  177.1050  145.8480 C   0  0  0  0  0  3  0  0  0  0  0  0
  188.3700  177.5360  148.0390 C   0  0  0  0  0  3  0  0  0  0  0  0
  187.4050  178.5260  148.2240 C   0  0  0  0  0  3  0  0  0  0  0  0
  188.4290  176.8510  146.8670 N   0  0  0  0  0  0  0  0  0  0  0  0
  186.5070  178.8010  147.1920 C   0  0  0  0  0  3  0  0  0  0  0  0
  188.1800  178.7640  141.8940 C   0  0  0  0  0  2  0  0  0  0  0  0
  188.3830  176.4660  142.3500 O   0  0  0  0  0  0  0  0  0  0  0  0
  188.9630  177.5020  142.0640 C   0  0  0  0  0  0  0  0  0  0  0  0
  190.4500  177.5210  141.8710 C   0  0  2  0  0  3  0  0  0  0  0  0
  190.8730  176.9760  140.5160 C   0  0  0  0  0  1  0  0  0  0  0  0
  191.2450  176.9240  143.0350 C   0  0  0  0  0  2  0  0  0  0  0  0
  189.9240  178.7760  144.8120 O   0  0  0  0  0  1  0  0  0  0  0  0
  191.3980  178.0120  144.4950 P   0  0  0  0  0  0  0  0  0  0  0  0
  192.4410  179.0660  144.2070 O   0  0  0  0  0  0  0  0  0  0  0  0
  191.8730  177.1210  145.8520 O   0  0  0  0  0  1  0  0  0  0  0  0
  2  6  1  0  0  0  0
  2 20  1  0  0  0  0
  3  2  1  0  0  0  0
  4  3  1  0  0  0  0
  4  1  2  0  0  0  0
  5  3  2  0  0  0  0
  6  1  1  6  0  0  0
  6  9  1  0  0  0  0
  7  8  2  0  0  0  0
  8 12  1  0  0  0  0
  8 14  1  0  0  0  0
  9 10  1  0  0  0  0
  9  7  1  1  0  0  0
 10 13  1  0  0  0  0
 11 10  2  0  0  0  0
 13 12  2  0  0  0  0
 14 19  1  0  0  0  0
 15 14  2  0  0  0  0
 15 18  1  0  0  0  0
 16 17  1  0  0  0  0
 18 16  2  0  0  0  0
 19 17  2  0  0  0  0
 20 22  1  0  0  0  0
 22 21  2  0  0  0  0
 23 24  1  6  0  0  0
 23 22  1  0  0  0  0
 23 25  1  0  0  0  0
 25 27  1  0  0  0  0
 27 26  1  0  0  0  0
 27 29  1  0  0  0  0
 28 27  2  0  0  0  0
M  END
>  <MODEL>
3

>  <REMARK>
 VINA RESULT:      -8.4      2.062      3.027
  Name = 
  7 active torsions:
  status: ('A' for Active; 'I' for Inactive)
    1  A    between atoms: C_2  and  C_10
    2  A    between atoms: C_3  and  C_8
    3  A    between atoms: C_3  and  C_24
    4  A    between atoms: P_7  and  C_8
    5  A    between atoms: N_9  and  C_18
    6  A    between atoms: C_18  and  C_24
    7  A    between atoms: C_19  and  C_29
                            x       y       z     vdW  Elec       q    Type
                         _______ _______ _______ _____ _____    ______ ____

>  <TORSDO>
F 7

$$$$
=
 OpenBabel11042411003D

 29 31  0  0  1  0  0  0  0  0999 V2000
  190.5490  176.4420  146.5590 C   0  0  0  0  0  3  0  0  0  0  0  0
  189.9680  176.7680  144.2580 N   0  0  0  0  0  0  0  0  0  0  0  0
  191.3440  176.4770  144.4040 C   0  0  0  0  0  0  0  0  0  0  0  0
  191.7440  176.3020  145.7410 N   0  0  0  0  0  0  0  0  0  0  0  0
  192.1340  176.3430  143.4330 O   0  0  0  0  0  0  0  0  0  0  0  0
  189.3780  176.7550  145.5950 C   0  0  2  0  0  3  0  0  0  0  0  0
  187.5430  178.3580  145.0360 C   0  0  0  0  0  3  0  0  0  0  0  0
  186.2690  178.2340  145.4480 C   0  0  0  0  0  0  0  0  0  0  0  0
  188.7370  178.1130  145.9300 C   0  0  1  0  0  3  0  0  0  0  0  0
  188.3430  178.1840  147.3880 C   0  0  0  0  0  0  0  0  0  0  0  0
  189.2120  178.4170  148.2670 O   0  0  0  0  0  0  0  0  0  0  0  0
  185.9820  177.9560  146.8740 C   0  0  0  0  0  3  0  0  0  0  0  0
  186.9510  177.9460  147.7890 C   0  0  0  0  0  3  0  0  0  0  0  0
  185.1510  178.4190  144.4920 C   0  0  0  0  0  0  0  0  0  0  0  0
  185.3410  178.1960  143.1200 C   0  0  0  0  0  3  0  0  0  0  0  0
  183.0800  178.7590  142.6600 C   0  0  0  0  0  3  0  0  0  0  0  0
  182.8400  178.9940  144.0140 C   0  0  0  0  0  3  0  0  0  0  0  0
  184.3140  178.3690  142.2440 N   0  0  0  0  0  0  0  0  0  0  0  0
  183.8800  178.8220  144.9280 C   0  0  0  0  0  3  0  0  0  0  0  0
  189.2050  176.4390  143.0600 C   0  0  0  0  0  2  0  0  0  0  0  0
  189.4910  178.6870  142.4340 O   0  0  0  0  0  0  0  0  0  0  0  0
  189.3000  177.5420  142.0560 C   0  0  0  0  0  0  0  0  0  0  0  0
  189.1700  177.2280  140.5950 C   0  0  2  0  0  3  0  0  0  0  0  0
  190.4720  176.7380  139.9820 C   0  0  0  0  0  1  0  0  0  0  0  0
  188.4920  178.3260  139.7710 C   0  0  0  0  0  2  0  0  0  0  0  0
  187.8690  176.2460  137.8690 O   0  0  0  0  0  1  0  0  0  0  0  0
  188.1960  177.8970  138.0200 P   0  0  0  0  0  0  0  0  0  0  0  0
  189.4390  178.2220  137.2250 O   0  0  0  0  0  0  0  0  0  0  0  0
  186.8980  178.7870  137.4020 O   0  0  0  0  0  1  0  0  0  0  0  0
  2  3  1  0  0  0  0
  2  6  1  0  0  0  0
  3  4  1  0  0  0  0
  4  1  2  0  0  0  0
  5  3  2  0  0  0  0
  6  9  1  0  0  0  0
  6  1  1  1  0  0  0
  7  8  2  0  0  0  0
  8 12  1  0  0  0  0
  9  7  1  6  0  0  0
  9 10  1  0  0  0  0
 10 13  1  0  0  0  0
 10 11  2  0  0  0  0
 12 13  2  0  0  0  0
 14 19  1  0  0  0  0
 14  8  1  0  0  0  0
 15 14  2  0  0  0  0
 16 17  1  0  0  0  0
 17 19  2  0  0  0  0
 18 16  2  0  0  0  0
 18 15  1  0  0  0  0
 20  2  1  0  0  0  0
 22 21  2  0  0  0  0
 22 20  1  0  0  0  0
 23 24  1  6  0  0  0
 23 22  1  0  0  0  0
 25 23  1  0  0  0  0
 26 27  1  0  0  0  0
 27 25  1  0  0  0  0
 28 27  2  0  0  0  0
 29 27  1  0  0  0  0
M  END
>  <MODEL>
4

>  <REMARK>
 VINA RESULT:      -8.3      2.379      5.225
  Name = 
  7 active torsions:
  status: ('A' for Active; 'I' for Inactive)
    1  A    between atoms: C_2  and  C_10
    2  A    between atoms: C_3  and  C_8
    3  A    between atoms: C_3  and  C_24
    4  A    between atoms: P_7  and  C_8
    5  A    between atoms: N_9  and  C_18
    6  A    between atoms: C_18  and  C_24
    7  A    between atoms: C_19  and  C_29
                            x       y       z     vdW  Elec       q    Type
                         _______ _______ _______ _____ _____    ______ ____

>  <TORSDO>
F 7

$$$$
=
 OpenBabel11042411003D

 29 31  0  0  1  0  0  0  0  0999 V2000
  191.7110  176.3920  143.6910 C   0  0  0  0  0  3  0  0  0  0  0  0
  189.9420  177.2290  142.3090 N   0  0  0  0  0  0  0  0  0  0  0  0
  191.1590  177.1520  141.5940 C   0  0  0  0  0  0  0  0  0  0  0  0
  192.2400  176.6910  142.3680 N   0  0  0  0  0  0  0  0  0  0  0  0
  191.2670  177.4290  140.3700 O   0  0  0  0  0  0  0  0  0  0  0  0
  190.2050  176.7490  143.6630 C   0  0  2  0  0  3  0  0  0  0  0  0
  188.4250  178.2370  144.5960 C   0  0  0  0  0  3  0  0  0  0  0  0
  187.4740  177.8420  145.4600 C   0  0  0  0  0  0  0  0  0  0  0  0
  189.8770  177.8310  144.7080 C   0  0  1  0  0  3  0  0  0  0  0  0
  190.1960  177.3540  146.1060 C   0  0  0  0  0  0  0  0  0  0  0  0
  191.3840  177.3630  146.5210 O   0  0  0  0  0  0  0  0  0  0  0  0
  187.8520  177.0610  146.6600 C   0  0  0  0  0  3  0  0  0  0  0  0
  189.1280  176.8430  146.9750 C   0  0  0  0  0  3  0  0  0  0  0  0
  186.0580  178.2220  145.2420 C   0  0  0  0  0  0  0  0  0  0  0  0
  185.2330  178.5550  146.3260 C   0  0  0  0  0  3  0  0  0  0  0  0
  183.3900  178.9380  144.8770 C   0  0  0  0  0  3  0  0  0  0  0  0
  184.1690  178.6150  143.7660 C   0  0  0  0  0  3  0  0  0  0  0  0
  183.9320  178.9010  146.1230 N   0  0  0  0  0  0  0  0  0  0  0  0
  185.5050  178.2580  143.9520 C   0  0  0  0  0  3  0  0  0  0  0  0
  188.6340  177.1130  141.6740 C   0  0  0  0  0  2  0  0  0  0  0  0
  188.5600  179.4620  141.5850 O   0  0  0  0  0  0  0  0  0  0  0  0
  188.2340  178.4120  141.0530 C   0  0  0  0  0  0  0  0  0  0  0  0
  187.4450  178.4110  139.7770 C   0  0  2  0  0  3  0  0  0  0  0  0
  185.9440  178.3960  140.0150 C   0  0  0  0  0  1  0  0  0  0  0  0
  187.9040  177.3690  138.7530 C   0  0  0  0  0  2  0  0  0  0  0  0
  188.9690  179.7270  137.4730 O   0  0  0  0  0  1  0  0  0  0  0  0
  188.8110  178.0510  137.3220 P   0  0  0  0  0  0  0  0  0  0  0  0
  188.0330  177.7450  136.0630 O   0  0  0  0  0  0  0  0  0  0  0  0
  190.3460  177.3490  137.2040 O   0  0  0  0  0  1  0  0  0  0  0  0
  2  6  1  0  0  0  0
  3  2  1  0  0  0  0
  3  4  1  0  0  0  0
  4  1  2  0  0  0  0
  5  3  2  0  0  0  0
  6  1  1  6  0  0  0
  6  9  1  0  0  0  0
  7  8  2  0  0  0  0
  8 12  1  0  0  0  0
  9  7  1  1  0  0  0
  9 10  1  0  0  0  0
 10 11  2  0  0  0  0
 10 13  1  0  0  0  0
 12 13  2  0  0  0  0
 14  8  1  0  0  0  0
 14 15  1  0  0  0  0
 16 18  1  0  0  0  0
 17 19  1  0  0  0  0
 17 16  2  0  0  0  0
 18 15  2  0  0  0  0
 19 14  2  0  0  0  0
 20  2  1  0  0  0  0
 22 21  2  0  0  0  0
 22 20  1  0  0  0  0
 23 24  1  1  0  0  0
 23 22  1  0  0  0  0
 25 23  1  0  0  0  0
 27 26  1  0  0  0  0
 27 25  1  0  0  0  0
 28 27  2  0  0  0  0
 29 27  1  0  0  0  0
M  END
>  <MODEL>
5

>  <REMARK>
 VINA RESULT:      -8.2      2.369      4.803
  Name = 
  7 active torsions:
  status: ('A' for Active; 'I' for Inactive)
    1  A    between atoms: C_2  and  C_10
    2  A    between atoms: C_3  and  C_8
    3  A    between atoms: C_3  and  C_24
    4  A    between atoms: P_7  and  C_8
    5  A    between atoms: N_9  and  C_18
    6  A    between atoms: C_18  and  C_24
    7  A    between atoms: C_19  and  C_29
                            x       y       z     vdW  Elec       q    Type
                         _______ _______ _______ _____ _____    ______ ____

>  <TORSDO>
F 7

$$$$
=
 OpenBabel11042411003D

 29 31  0  0  1  0  0  0  0  0999 V2000
  188.4970  176.7400  147.2130 C   0  0  0  0  0  3  0  0  0  0  0  0
  189.2110  177.1540  144.9650 N   0  0  0  0  0  0  0  0  0  0  0  0
  190.3000  176.7910  145.7910 C   0  0  0  0  0  0  0  0  0  0  0  0
  189.9390  176.5620  147.1310 N   0  0  0  0  0  0  0  0  0  0  0  0
  191.4770  176.6430  145.3670 O   0  0  0  0  0  0  0  0  0  0  0  0
  188.0110  177.1350  145.7970 C   0  0  2  0  0  3  0  0  0  0  0  0
  186.3290  178.6130  144.6850 C   0  0  0  0  0  3  0  0  0  0  0  0
  184.9990  178.5230  144.8600 C   0  0  0  0  0  0  0  0  0  0  0  0
  187.3280  178.5140  145.8140 C   0  0  1  0  0  3  0  0  0  0  0  0
  186.6640  178.7770  147.1460 C   0  0  0  0  0  0  0  0  0  0  0  0
  187.3510  179.1430  148.1340 O   0  0  0  0  0  0  0  0  0  0  0  0
  184.4430  178.4360  146.2300 C   0  0  0  0  0  3  0  0  0  0  0  0
  185.2190  178.5700  147.3050 C   0  0  0  0  0  3  0  0  0  0  0  0
  184.0850  178.5550  143.6920 C   0  0  0  0  0  0  0  0  0  0  0  0
  182.7600  178.9890  143.8350 C   0  0  0  0  0  3  0  0  0  0  0  0
  182.3340  178.6260  141.5280 C   0  0  0  0  0  3  0  0  0  0  0  0
  183.6430  178.1860  141.3330 C   0  0  0  0  0  3  0  0  0  0  0  0
  181.9220  179.0150  142.7630 N   0  0  0  0  0  0  0  0  0  0  0  0
  184.5170  178.1520  142.4190 C   0  0  0  0  0  3  0  0  0  0  0  0
  189.1760  176.8940  143.5300 C   0  0  0  0  0  2  0  0  0  0  0  0
  190.2650  178.9630  143.2870 O   0  0  0  0  0  0  0  0  0  0  0  0
  189.5550  178.1190  142.7630 C   0  0  0  0  0  0  0  0  0  0  0  0
  189.0650  178.2930  141.3560 C   0  0  2  0  0  3  0  0  0  0  0  0
  187.5800  178.6110  141.2860 C   0  0  0  0  0  1  0  0  0  0  0  0
  189.4880  177.1760  140.3990 C   0  0  0  0  0  2  0  0  0  0  0  0
  189.0530  179.2380  138.4270 O   0  0  0  0  0  1  0  0  0  0  0  0
  189.3140  177.5800  138.6260 P   0  0  0  0  0  0  0  0  0  0  0  0
  188.1260  176.8300  138.0710 O   0  0  0  0  0  1  0  0  0  0  0  0
  190.7030  177.1230  137.7740 O   0  0  0  0  0  0  0  0  0  0  0  0
  2  3  1  0  0  0  0
  2  6  1  0  0  0  0
  3  4  1  0  0  0  0
  4  1  2  0  0  0  0
  5  3  2  0  0  0  0
  6  9  1  0  0  0  0
  6  1  1  1  0  0  0
  7  8  2  0  0  0  0
  8 12  1  0  0  0  0
  9  7  1  6  0  0  0
  9 10  1  0  0  0  0
 10 13  1  0  0  0  0
 10 11  2  0  0  0  0
 12 13  2  0  0  0  0
 14 15  1  0  0  0  0
 14  8  1  0  0  0  0
 16 18  1  0  0  0  0
 17 16  2  0  0  0  0
 17 19  1  0  0  0  0
 18 15  2  0  0  0  0
 19 14  2  0  0  0  0
 20  2  1  0  0  0  0
 22 21  2  0  0  0  0
 22 20  1  0  0  0  0
 23 24  1  1  0  0  0
 23 22  1  0  0  0  0
 25 23  1  0  0  0  0
 26 27  1  0  0  0  0
 27 25  1  0  0  0  0
 28 27  1  0  0  0  0
 29 27  2  0  0  0  0
M  END
>  <MODEL>
6

>  <REMARK>
 VINA RESULT:      -8.1      2.365      5.203
  Name = 
  7 active torsions:
  status: ('A' for Active; 'I' for Inactive)
    1  A    between atoms: C_2  and  C_10
    2  A    between atoms: C_3  and  C_8
    3  A    between atoms: C_3  and  C_24
    4  A    between atoms: P_7  and  C_8
    5  A    between atoms: N_9  and  C_18
    6  A    between atoms: C_18  and  C_24
    7  A    between atoms: C_19  and  C_29
                            x       y       z     vdW  Elec       q    Type
                         _______ _______ _______ _____ _____    ______ ____

>  <TORSDO>
F 7

$$$$
=
 OpenBabel11042411003D

 29 31  0  0  1  0  0  0  0  0999 V2000
  184.0780  179.9040  144.6410 C   0  0  0  0  0  3  0  0  0  0  0  0
  184.0880  178.3670  142.8040 N   0  0  0  0  0  0  0  0  0  0  0  0
  182.8560  179.0550  142.8900 C   0  0  0  0  0  0  0  0  0  0  0  0
  182.7870  179.9530  143.9710 N   0  0  0  0  0  0  0  0  0  0  0  0
  181.9200  178.9160  142.0600 O   0  0  0  0  0  0  0  0  0  0  0  0
  184.9370  178.8600  143.8850 C   0  0  2  0  0  3  0  0  0  0  0  0
  186.7120  177.1790  144.4090 C   0  0  0  0  0  3  0  0  0  0  0  0
  187.8520  177.4510  145.0670 C   0  0  0  0  0  0  0  0  0  0  0  0
  185.3600  177.7140  144.8220 C   0  0  1  0  0  3  0  0  0  0  0  0
  185.3780  178.1680  146.2640 C   0  0  0  0  0  0  0  0  0  0  0  0
  184.3030  178.2550  146.9130 O   0  0  0  0  0  0  0  0  0  0  0  0
  187.8030  178.2200  146.3320 C   0  0  0  0  0  3  0  0  0  0  0  0
  186.6440  178.5450  146.9050 C   0  0  0  0  0  3  0  0  0  0  0  0
  189.1500  176.9490  144.5570 C   0  0  0  0  0  0  0  0  0  0  0  0
  189.2220  176.2710  143.3320 C   0  0  0  0  0  3  0  0  0  0  0  0
  191.5680  175.9850  143.5640 C   0  0  0  0  0  3  0  0  0  0  0  0
  191.5500  176.6540  144.7880 C   0  0  0  0  0  3  0  0  0  0  0  0
  190.4140  175.8080  142.8670 N   0  0  0  0  0  0  0  0  0  0  0  0
  190.3380  177.1360  145.2820 C   0  0  0  0  0  3  0  0  0  0  0  0
  184.6310  177.8560  141.5500 C   0  0  0  0  0  2  0  0  0  0  0  0
  186.0250  179.7310  141.2930 O   0  0  0  0  0  0  0  0  0  0  0  0
  185.2460  178.9610  140.7540 C   0  0  0  0  0  0  0  0  0  0  0  0
  184.9080  179.1040  139.3000 C   0  0  2  0  0  3  0  0  0  0  0  0
  183.4530  179.4800  139.0700 C   0  0  0  0  0  1  0  0  0  0  0  0
  185.3740  177.9350  138.4260 C   0  0  0  0  0  2  0  0  0  0  0  0
  188.1200  178.4750  139.1330 O   0  0  0  0  0  1  0  0  0  0  0  0
  187.1040  178.0530  137.8500 P   0  0  0  0  0  0  0  0  0  0  0  0
  187.1890  179.1230  136.7870 O   0  0  0  0  0  0  0  0  0  0  0  0
  187.6100  176.5790  137.1910 O   0  0  0  0  0  1  0  0  0  0  0  0
  2  3  1  0  0  0  0
  2  6  1  0  0  0  0
  3  4  1  0  0  0  0
  4  1  2  0  0  0  0
  5  3  2  0  0  0  0
  6  1  1  1  0  0  0
  6  9  1  0  0  0  0
  7  8  2  0  0  0  0
  8 12  1  0  0  0  0
  9  7  1  6  0  0  0
  9 10  1  0  0  0  0
 10 13  1  0  0  0  0
 10 11  2  0  0  0  0
 12 13  2  0  0  0  0
 14  8  1  0  0  0  0
 14 19  1  0  0  0  0
 15 14  2  0  0  0  0
 16 17  1  0  0  0  0
 17 19  2  0  0  0  0
 18 15  1  0  0  0  0
 18 16  2  0  0  0  0
 20  2  1  0  0  0  0
 22 21  2  0  0  0  0
 22 20  1  0  0  0  0
 23 24  1  1  0  0  0
 23 22  1  0  0  0  0
 25 23  1  0  0  0  0
 27 25  1  0  0  0  0
 27 26  1  0  0  0  0
 28 27  2  0  0  0  0
 29 27  1  0  0  0  0
M  END
>  <MODEL>
7

>  <REMARK>
 VINA RESULT:      -8.0      2.708      4.489
  Name = 
  7 active torsions:
  status: ('A' for Active; 'I' for Inactive)
    1  A    between atoms: C_2  and  C_10
    2  A    between atoms: C_3  and  C_8
    3  A    between atoms: C_3  and  C_24
    4  A    between atoms: P_7  and  C_8
    5  A    between atoms: N_9  and  C_18
    6  A    between atoms: C_18  and  C_24
    7  A    between atoms: C_19  and  C_29
                            x       y       z     vdW  Elec       q    Type
                         _______ _______ _______ _____ _____    ______ ____

>  <TORSDO>
F 7

$$$$
=
 OpenBabel11042411003D

 29 31  0  0  1  0  0  0  0  0999 V2000
  186.3070  178.6280  146.8400 C   0  0  0  0  0  3  0  0  0  0  0  0
  185.2970  178.8050  144.6750 N   0  0  0  0  0  0  0  0  0  0  0  0
  184.3230  178.8290  145.7000 C   0  0  0  0  0  0  0  0  0  0  0  0
  184.8620  178.7000  146.9930 N   0  0  0  0  0  0  0  0  0  0  0  0
  183.0920  178.9900  145.4870 O   0  0  0  0  0  0  0  0  0  0  0  0
  186.6020  178.6890  145.3210 C   0  0  2  0  0  3  0  0  0  0  0  0
  187.5940  177.4900  143.3640 C   0  0  0  0  0  3  0  0  0  0  0  0
  188.7960  177.7680  142.8270 C   0  0  0  0  0  0  0  0  0  0  0  0
  187.3410  177.4220  144.8530 C   0  0  1  0  0  3  0  0  0  0  0  0
  188.6340  177.2330  145.6120 C   0  0  0  0  0  0  0  0  0  0  0  0
  188.6200  176.7530  146.7750 O   0  0  0  0  0  0  0  0  0  0  0  0
  189.9780  177.9080  143.7080 C   0  0  0  0  0  3  0  0  0  0  0  0
  189.9100  177.6430  145.0120 C   0  0  0  0  0  3  0  0  0  0  0  0
  188.9500  177.8900  141.3580 C   0  0  0  0  0  0  0  0  0  0  0  0
  187.9620  178.5190  140.5870 C   0  0  0  0  0  3  0  0  0  0  0  0
  189.1960  178.1370  138.5940 C   0  0  0  0  0  3  0  0  0  0  0  0
  190.2070  177.5030  139.3160 C   0  0  0  0  0  3  0  0  0  0  0  0
  188.1040  178.6280  139.2370 N   0  0  0  0  0  0  0  0  0  0  0  0
  190.0800  177.3810  140.7000 C   0  0  0  0  0  3  0  0  0  0  0  0
  185.1140  179.4600  143.3850 C   0  0  0  0  0  2  0  0  0  0  0  0
  184.7510  177.4800  142.1700 O   0  0  0  0  0  0  0  0  0  0  0  0
  184.3290  178.5880  142.4590 C   0  0  0  0  0  0  0  0  0  0  0  0
  183.0260  179.0820  141.9030 C   0  0  2  0  0  3  0  0  0  0  0  0
  181.8910  179.0030  142.9110 C   0  0  0  0  0  1  0  0  0  0  0  0
  182.6610  178.4960  140.5370 C   0  0  0  0  0  2  0  0  0  0  0  0
  183.4690  178.3240  137.7710 O   0  0  0  0  0  0  0  0  0  0  0  0
  183.4150  179.3530  139.1100 P   0  0  0  0  0  0  0  0  0  0  0  0
  184.8260  179.7530  139.4750 O   0  0  0  0  0  1  0  0  0  0  0  0
  182.5320  180.7420  138.7190 O   0  0  0  0  0  1  0  0  0  0  0  0
  1  4  2  0  0  0  0
  2  6  1  0  0  0  0
  2  3  1  0  0  0  0
  3  4  1  0  0  0  0
  5  3  2  0  0  0  0
  6  1  1  1  0  0  0
  8  7  2  0  0  0  0
  8 12  1  0  0  0  0
  9  7  1  6  0  0  0
  9  6  1  0  0  0  0
  9 10  1  0  0  0  0
 10 11  2  0  0  0  0
 12 13  2  0  0  0  0
 13 10  1  0  0  0  0
 14  8  1  0  0  0  0
 15 14  2  0  0  0  0
 16 18  2  0  0  0  0
 16 17  1  0  0  0  0
 17 19  2  0  0  0  0
 18 15  1  0  0  0  0
 19 14  1  0  0  0  0
 20  2  1  0  0  0  0
 21 22  2  0  0  0  0
 22 20  1  0  0  0  0
 23 22  1  0  0  0  0
 23 24  1  1  0  0  0
 25 23  1  0  0  0  0
 26 27  2  0  0  0  0
 27 28  1  0  0  0  0
 27 25  1  0  0  0  0
 29 27  1  0  0  0  0
M  END
>  <MODEL>
8

>  <REMARK>
 VINA RESULT:      -7.9      3.401      6.688
  Name = 
  7 active torsions:
  status: ('A' for Active; 'I' for Inactive)
    1  A    between atoms: C_2  and  C_10
    2  A    between atoms: C_3  and  C_8
    3  A    between atoms: C_3  and  C_24
    4  A    between atoms: P_7  and  C_8
    5  A    between atoms: N_9  and  C_18
    6  A    between atoms: C_18  and  C_24
    7  A    between atoms: C_19  and  C_29
                            x       y       z     vdW  Elec       q    Type
                         _______ _______ _______ _____ _____    ______ ____

>  <TORSDO>
F 7

$$$$
=
 OpenBabel11042411003D

 29 31  0  0  1  0  0  0  0  0999 V2000
  189.9760  178.2930  144.9460 C   0  0  0  0  0  3  0  0  0  0  0  0
  187.8750  177.1670  145.1850 N   0  0  0  0  0  0  0  0  0  0  0  0
  188.4750  177.4070  146.4430 C   0  0  0  0  0  0  0  0  0  0  0  0
  189.7260  178.0430  146.3580 N   0  0  0  0  0  0  0  0  0  0  0  0
  187.9300  177.1190  147.5410 O   0  0  0  0  0  0  0  0  0  0  0  0
  188.7680  177.7150  144.1680 C   0  0  2  0  0  3  0  0  0  0  0  0
  188.7480  176.9560  141.7860 C   0  0  0  0  0  3  0  0  0  0  0  0
  189.5540  177.4370  140.8230 C   0  0  0  0  0  0  0  0  0  0  0  0
  189.2210  176.6230  143.1820 C   0  0  1  0  0  3  0  0  0  0  0  0
  190.7210  176.4460  143.2160 C   0  0  0  0  0  0  0  0  0  0  0  0
  191.2600  175.7850  144.1420 O   0  0  0  0  0  0  0  0  0  0  0  0
  191.0090  177.5520  141.0750 C   0  0  0  0  0  3  0  0  0  0  0  0
  191.5620  177.0750  142.1900 C   0  0  0  0  0  3  0  0  0  0  0  0
  189.0020  177.8100  139.4990 C   0  0  0  0  0  0  0  0  0  0  0  0
  187.6750  178.2460  139.3770 C   0  0  0  0  0  3  0  0  0  0  0  0
  187.9210  178.5160  137.0310 C   0  0  0  0  0  3  0  0  0  0  0  0
  189.2470  178.0880  137.0990 C   0  0  0  0  0  3  0  0  0  0  0  0
  187.1680  178.5860  138.1600 N   0  0  0  0  0  0  0  0  0  0  0  0
  189.7850  177.7360  138.3370 C   0  0  0  0  0  3  0  0  0  0  0  0
  186.4320  177.0710  144.9940 C   0  0  0  0  0  2  0  0  0  0  0  0
  186.0690  179.2100  145.9000 O   0  0  0  0  0  0  0  0  0  0  0  0
  185.8090  178.4300  144.9980 C   0  0  0  0  0  0  0  0  0  0  0  0
  184.8800  178.8220  143.8880 C   0  0  2  0  0  3  0  0  0  0  0  0
  183.4690  179.1080  144.3760 C   0  0  0  0  0  1  0  0  0  0  0  0
  184.9200  177.8900  142.6730 C   0  0  0  0  0  2  0  0  0  0  0  0
  182.4380  179.0010  141.7040 O   0  0  0  0  0  1  0  0  0  0  0  0
  183.9720  178.4780  141.2260 P   0  0  0  0  0  0  0  0  0  0  0  0
  183.8160  177.3340  140.2510 O   0  0  0  0  0  0  0  0  0  0  0  0
  184.7870  179.7470  140.4600 O   0  0  0  0  0  1  0  0  0  0  0  0
  1  4  2  0  0  0  0
  2  3  1  0  0  0  0
  3  5  2  0  0  0  0
  4  3  1  0  0  0  0
  6  1  1  1  0  0  0
  6  2  1  0  0  0  0
  8 12  1  0  0  0  0
  8  7  2  0  0  0  0
  9  7  1  6  0  0  0
  9 10  1  0  0  0  0
  9  6  1  0  0  0  0
 10 11  2  0  0  0  0
 12 13  2  0  0  0  0
 13 10  1  0  0  0  0
 14  8  1  0  0  0  0
 15 14  1  0  0  0  0
 16 17  2  0  0  0  0
 16 18  1  0  0  0  0
 17 19  1  0  0  0  0
 18 15  2  0  0  0  0
 19 14  2  0  0  0  0
 20 22  1  0  0  0  0
 20  2  1  0  0  0  0
 22 21  2  0  0  0  0
 23 24  1  1  0  0  0
 23 22  1  0  0  0  0
 25 23  1  0  0  0  0
 27 26  1  0  0  0  0
 27 25  1  0  0  0  0
 28 27  2  0  0  0  0
 29 27  1  0  0  0  0
M  END
>  <MODEL>
9

>  <REMARK>
 VINA RESULT:      -7.8      3.012      7.364
  Name = 
  7 active torsions:
  status: ('A' for Active; 'I' for Inactive)
    1  A    between atoms: C_2  and  C_10
    2  A    between atoms: C_3  and  C_8
    3  A    between atoms: C_3  and  C_24
    4  A    between atoms: P_7  and  C_8
    5  A    between atoms: N_9  and  C_18
    6  A    between atoms: C_18  and  C_24
    7  A    between atoms: C_19  and  C_29
                            x       y       z     vdW  Elec       q    Type
                         _______ _______ _______ _____ _____    ______ ____

>  <TORSDO>
F 7

$$$$
