=
 OpenBabel11042410533D

 26 29  0  0  1  0  0  0  0  0999 V2000
  184.0230  179.2740  145.4200 C   0  0  0  0  0  3  0  0  0  0  0  0
  185.8370  178.1780  143.1270 C   0  0  0  0  0  0  0  0  0  0  0  0
  184.6030  178.0360  146.0530 C   0  0  0  0  0  2  0  0  0  0  0  0
  183.9170  179.4550  144.0910 C   0  0  0  0  0  3  0  0  0  0  0  0
  187.9040  177.9410  142.0150 C   0  0  0  0  0  3  0  0  0  0  0  0
  188.6080  177.6400  143.2050 C   0  0  0  0  0  0  0  0  0  0  0  0
  187.8550  177.6130  144.3720 C   0  0  0  0  0  0  0  0  0  0  0  0
  186.0190  177.8220  145.6200 C   0  0  0  0  0  0  0  0  0  0  0  0
  188.1730  177.3860  145.6990 C   0  0  0  0  0  3  0  0  0  0  0  0
  186.5830  178.1930  142.0180 O   0  0  0  0  0  0  0  0  0  0  0  0
  184.3600  178.4410  143.0670 C   0  0  0  0  0  2  0  0  0  0  0  0
  186.4640  177.8780  144.3280 C   0  0  0  0  0  0  0  0  0  0  0  0
  187.0450  177.5130  146.4510 N   0  0  0  0  0  0  0  0  0  0  0  0
  190.0790  177.3550  143.2190 C   0  0  1  0  0  3  0  0  0  0  0  0
  190.8100  176.5740  139.8430 C   0  0  0  0  0  0  0  0  0  0  0  0
  191.7010  177.7980  141.3490 N   0  0  0  0  0  0  0  0  0  0  0  0
  190.0080  176.3930  140.9100 N   0  0  0  0  0  0  0  0  0  0  0  0
  190.6080  177.1750  141.8290 C   0  0  0  0  0  0  0  0  0  0  0  0
  191.8300  177.4150  140.0910 N   0  0  0  0  0  2  0  0  0  0  0  0
  190.4240  175.4250  137.5510 N   0  0  0  0  0  0  0  0  0  0  0  0
  190.5960  175.9390  138.5750 C   0  0  0  0  0  0  0  0  0  0  0  0
  190.8430  178.4300  143.9850 C   0  0  0  0  0  2  0  0  0  0  0  0
  191.7550  177.7950  145.0190 C   0  0  0  0  0  2  0  0  0  0  0  0
  191.5730  176.3570  145.0040 N   0  0  0  0  0  2  0  0  0  0  0  0
  191.9450  175.8760  146.3220 C   0  0  0  0  0  2  0  0  0  0  0  0
  191.3430  176.7790  147.3780 C   0  0  0  0  0  1  0  0  0  0  0  0
  1  3  1  0  0  0  0
  2 12  2  0  0  0  0
  4  1  2  0  0  0  0
  5 10  1  0  0  0  0
  5  6  2  0  0  0  0
  6 14  1  0  0  0  0
  6  7  1  0  0  0  0
  7  9  2  0  0  0  0
  8  3  1  0  0  0  0
  8 13  2  0  0  0  0
  9 13  1  0  0  0  0
 10  2  1  0  0  0  0
 11  2  1  0  0  0  0
 11  4  1  0  0  0  0
 12  7  1  0  0  0  0
 12  8  1  0  0  0  0
 14 22  1  6  0  0  0
 15 19  1  0  0  0  0
 15 17  2  0  0  0  0
 16 18  2  0  0  0  0
 17 18  1  0  0  0  0
 18 14  1  0  0  0  0
 19 16  1  0  0  0  0
 20 21  3  0  0  0  0
 21 15  1  0  0  0  0
 22 23  1  0  0  0  0
 24 23  1  0  0  0  0
 24 25  1  0  0  0  0
 25 26  1  0  0  0  0
M  END
>  <MODEL>
1

>  <REMARK>
 VINA RESULT:      -7.7      0.000      0.000
  Name = 
  7 active torsions:
  status: ('A' for Active; 'I' for Inactive)
    1  A    between atoms: C_5  and  C_25
    2  A    between atoms: C_7  and  N_20
    3  A    between atoms: C_8  and  C_16
    4  A    between atoms: C_11  and  C_15
    5  A    between atoms: C_11  and  C_16
    6  A    between atoms: C_15  and  N_20
    7  A    between atoms: C_16  and  C_21
                            x       y       z     vdW  Elec       q    Type
                         _______ _______ _______ _____ _____    ______ ____

>  <TORSDO>
F 7

$$$$
=
 OpenBabel11042410533D

 26 29  0  0  1  0  0  0  0  0999 V2000
  189.5280  178.0890  148.1680 C   0  0  0  0  0  3  0  0  0  0  0  0
  187.0500  177.8880  146.2800 C   0  0  0  0  0  0  0  0  0  0  0  0
  189.8800  176.8890  147.3280 C   0  0  0  0  0  2  0  0  0  0  0  0
  188.2700  178.5200  148.3670 C   0  0  0  0  0  3  0  0  0  0  0  0
  185.9090  178.3120  144.2590 C   0  0  0  0  0  3  0  0  0  0  0  0
  187.0050  177.9160  143.4570 C   0  0  0  0  0  0  0  0  0  0  0  0
  188.1410  177.4930  144.1350 C   0  0  0  0  0  0  0  0  0  0  0  0
  189.4080  177.0610  145.9180 C   0  0  0  0  0  0  0  0  0  0  0  0
  189.3870  177.0620  143.7200 C   0  0  0  0  0  3  0  0  0  0  0  0
  185.9680  178.2850  145.6030 O   0  0  0  0  0  0  0  0  0  0  0  0
  187.0510  177.8550  147.7800 C   0  0  0  0  0  2  0  0  0  0  0  0
  188.1570  177.4760  145.5520 C   0  0  0  0  0  0  0  0  0  0  0  0
  190.1520  176.7990  144.8160 N   0  0  0  0  0  0  0  0  0  0  0  0
  186.9550  177.9380  141.9590 C   0  0  1  0  0  3  0  0  0  0  0  0
  183.5660  178.6480  141.2170 C   0  0  0  0  0  0  0  0  0  0  0  0
  185.4540  179.4290  140.5990 N   0  0  0  0  0  0  0  0  0  0  0  0
  184.4530  177.8940  141.8920 N   0  0  0  0  0  0  0  0  0  0  0  0
  185.6210  178.4160  141.4700 C   0  0  0  0  0  0  0  0  0  0  0  0
  184.1510  179.5750  140.4370 N   0  0  0  0  0  2  0  0  0  0  0  0
  180.9970  178.3520  141.4060 N   0  0  0  0  0  0  0  0  0  0  0  0
  182.1440  178.4840  141.3220 C   0  0  0  0  0  0  0  0  0  0  0  0
  188.1020  178.7570  141.3790 C   0  0  0  0  0  2  0  0  0  0  0  0
  188.7630  178.0080  140.2370 C   0  0  0  0  0  2  0  0  0  0  0  0
  188.6770  178.8010  139.0260 N   0  0  0  0  0  2  0  0  0  0  0  0
  188.2990  177.8930  137.9580 C   0  0  0  0  0  2  0  0  0  0  0  0
  186.8050  177.9810  137.7260 C   0  0  0  0  0  1  0  0  0  0  0  0
  1  4  2  0  0  0  0
  2 11  1  0  0  0  0
  3  1  1  0  0  0  0
  5 10  1  0  0  0  0
  6  7  1  0  0  0  0
  6  5  2  0  0  0  0
  7 12  1  0  0  0  0
  8  3  1  0  0  0  0
  9  7  2  0  0  0  0
  9 13  1  0  0  0  0
 10  2  1  0  0  0  0
 11  4  1  0  0  0  0
 12  8  1  0  0  0  0
 12  2  2  0  0  0  0
 13  8  2  0  0  0  0
 14 22  1  1  0  0  0
 14  6  1  0  0  0  0
 15 21  1  0  0  0  0
 15 17  2  0  0  0  0
 16 18  2  0  0  0  0
 18 17  1  0  0  0  0
 18 14  1  0  0  0  0
 19 16  1  0  0  0  0
 19 15  1  0  0  0  0
 21 20  3  0  0  0  0
 23 22  1  0  0  0  0
 24 23  1  0  0  0  0
 25 24  1  0  0  0  0
 26 25  1  0  0  0  0
M  END
>  <MODEL>
2

>  <REMARK>
 VINA RESULT:      -7.6      3.216      6.023
  Name = 
  7 active torsions:
  status: ('A' for Active; 'I' for Inactive)
    1  A    between atoms: C_5  and  C_25
    2  A    between atoms: C_7  and  N_20
    3  A    between atoms: C_8  and  C_16
    4  A    between atoms: C_11  and  C_15
    5  A    between atoms: C_11  and  C_16
    6  A    between atoms: C_15  and  N_20
    7  A    between atoms: C_16  and  C_21
                            x       y       z     vdW  Elec       q    Type
                         _______ _______ _______ _____ _____    ______ ____

>  <TORSDO>
F 7

$$$$
=
 OpenBabel11042410533D

 26 29  0  0  1  0  0  0  0  0999 V2000
  189.6180  177.9500  147.7140 C   0  0  0  0  0  3  0  0  0  0  0  0
  186.5910  178.2150  146.9980 C   0  0  0  0  0  0  0  0  0  0  0  0
  189.4010  176.7370  146.8470 C   0  0  0  0  0  2  0  0  0  0  0  0
  188.6350  178.5720  148.3890 C   0  0  0  0  0  3  0  0  0  0  0  0
  184.8140  178.8840  145.5980 C   0  0  0  0  0  3  0  0  0  0  0  0
  185.4120  178.3420  144.4350 C   0  0  0  0  0  0  0  0  0  0  0  0
  186.6400  177.7190  144.6120 C   0  0  0  0  0  0  0  0  0  0  0  0
  188.4330  177.0290  145.7430 C   0  0  0  0  0  0  0  0  0  0  0  0
  187.5240  177.1050  143.7430 C   0  0  0  0  0  3  0  0  0  0  0  0
  185.4070  178.8040  146.8020 O   0  0  0  0  0  0  0  0  0  0  0  0
  187.1930  178.1330  148.3700 C   0  0  0  0  0  2  0  0  0  0  0  0
  187.2260  177.6530  145.9000 C   0  0  0  0  0  0  0  0  0  0  0  0
  188.6140  176.6850  144.4450 N   0  0  0  0  0  0  0  0  0  0  0  0
  184.7640  178.4210  143.0860 C   0  0  1  0  0  3  0  0  0  0  0  0
  181.2800  178.9540  142.7420 C   0  0  0  0  0  0  0  0  0  0  0  0
  182.6130  178.6120  144.3740 N   0  0  0  0  0  0  0  0  0  0  0  0
  182.4830  178.8490  142.1480 N   0  0  0  0  0  0  0  0  0  0  0  0
  183.2870  178.6400  143.2090 C   0  0  0  0  0  0  0  0  0  0  0  0
  181.3410  178.8130  144.0780 N   0  0  0  0  0  2  0  0  0  0  0  0
  179.0740  179.3760  141.4450 N   0  0  0  0  0  0  0  0  0  0  0  0
  180.0590  179.1880  142.0240 C   0  0  0  0  0  0  0  0  0  0  0  0
  185.4270  179.4810  142.2150 C   0  0  0  0  0  2  0  0  0  0  0  0
  185.8290  178.8900  140.8760 C   0  0  0  0  0  2  0  0  0  0  0  0
  185.0450  179.5060  139.8220 N   0  0  0  0  0  2  0  0  0  0  0  0
  184.5020  178.4250  139.0200 C   0  0  0  0  0  2  0  0  0  0  0  0
  185.5050  178.0330  137.9560 C   0  0  0  0  0  1  0  0  0  0  0  0
  1  4  2  0  0  0  0
  2 11  1  0  0  0  0
  3  1  1  0  0  0  0
  5 10  1  0  0  0  0
  6  7  1  0  0  0  0
  6  5  2  0  0  0  0
  7 12  1  0  0  0  0
  8 12  1  0  0  0  0
  8  3  1  0  0  0  0
  9 13  1  0  0  0  0
  9  7  2  0  0  0  0
 10  2  1  0  0  0  0
 11  4  1  0  0  0  0
 12  2  2  0  0  0  0
 13  8  2  0  0  0  0
 14 22  1  6  0  0  0
 14 18  1  0  0  0  0
 14  6  1  0  0  0  0
 15 19  1  0  0  0  0
 17 15  2  0  0  0  0
 17 18  1  0  0  0  0
 18 16  2  0  0  0  0
 19 16  1  0  0  0  0
 20 21  3  0  0  0  0
 21 15  1  0  0  0  0
 23 22  1  0  0  0  0
 24 23  1  0  0  0  0
 25 24  1  0  0  0  0
 26 25  1  0  0  0  0
M  END
>  <MODEL>
3

>  <REMARK>
 VINA RESULT:      -7.6      3.792      7.378
  Name = 
  7 active torsions:
  status: ('A' for Active; 'I' for Inactive)
    1  A    between atoms: C_5  and  C_25
    2  A    between atoms: C_7  and  N_20
    3  A    between atoms: C_8  and  C_16
    4  A    between atoms: C_11  and  C_15
    5  A    between atoms: C_11  and  C_16
    6  A    between atoms: C_15  and  N_20
    7  A    between atoms: C_16  and  C_21
                            x       y       z     vdW  Elec       q    Type
                         _______ _______ _______ _____ _____    ______ ____

>  <TORSDO>
F 7

$$$$
=
 OpenBabel11042410533D

 26 29  0  0  1  0  0  0  0  0999 V2000
  188.2250  176.9760  147.7860 C   0  0  0  0  0  3  0  0  0  0  0  0
  187.8700  177.8670  144.8150 C   0  0  0  0  0  0  0  0  0  0  0  0
  187.5490  178.3140  147.9450 C   0  0  0  0  0  2  0  0  0  0  0  0
  188.9370  176.6230  146.7010 C   0  0  0  0  0  3  0  0  0  0  0  0
  186.6340  178.0710  142.8160 C   0  0  0  0  0  3  0  0  0  0  0  0
  185.4820  178.5580  143.4770 C   0  0  0  0  0  0  0  0  0  0  0  0
  185.5770  178.6930  144.8560 C   0  0  0  0  0  0  0  0  0  0  0  0
  186.5490  178.5460  146.8570 C   0  0  0  0  0  0  0  0  0  0  0  0
  184.6870  179.1030  145.8310 C   0  0  0  0  0  3  0  0  0  0  0  0
  187.7540  177.7520  143.4880 O   0  0  0  0  0  0  0  0  0  0  0  0
  189.1550  177.5200  145.5090 C   0  0  0  0  0  2  0  0  0  0  0  0
  186.7790  178.3500  145.5230 C   0  0  0  0  0  0  0  0  0  0  0  0
  185.2910  179.0120  147.0480 N   0  0  0  0  0  0  0  0  0  0  0  0
  184.2260  178.9200  142.7430 C   0  0  1  0  0  3  0  0  0  0  0  0
  184.2260  178.0730  139.3040 C   0  0  0  0  0  0  0  0  0  0  0  0
  185.1350  179.5930  140.4970 N   0  0  0  0  0  0  0  0  0  0  0  0
  183.8040  177.7890  140.5510 N   0  0  0  0  0  0  0  0  0  0  0  0
  184.4010  178.7630  141.2630 C   0  0  0  0  0  0  0  0  0  0  0  0
  185.0250  179.1550  139.2550 N   0  0  0  0  0  2  0  0  0  0  0  0
  183.5630  176.6880  137.2150 N   0  0  0  0  0  0  0  0  0  0  0  0
  183.8590  177.3060  138.1480 C   0  0  0  0  0  0  0  0  0  0  0  0
  183.0330  178.1270  143.2630 C   0  0  0  0  0  2  0  0  0  0  0  0
  181.8460  179.0440  143.4910 C   0  0  0  0  0  2  0  0  0  0  0  0
  181.0070  179.0500  142.3080 N   0  0  0  0  0  2  0  0  0  0  0  0
  179.6470  178.8190  142.7590 C   0  0  0  0  0  2  0  0  0  0  0  0
  179.6280  178.7070  144.2690 C   0  0  0  0  0  1  0  0  0  0  0  0
  1  3  1  0  0  0  0
  2 11  1  0  0  0  0
  2 12  2  0  0  0  0
  4  1  2  0  0  0  0
  5  6  2  0  0  0  0
  5 10  1  0  0  0  0
  6  7  1  0  0  0  0
  7 12  1  0  0  0  0
  7  9  2  0  0  0  0
  8 13  2  0  0  0  0
  8  3  1  0  0  0  0
  9 13  1  0  0  0  0
 10  2  1  0  0  0  0
 11  4  1  0  0  0  0
 12  8  1  0  0  0  0
 14 22  1  1  0  0  0
 14  6  1  0  0  0  0
 15 17  2  0  0  0  0
 16 18  2  0  0  0  0
 17 18  1  0  0  0  0
 18 14  1  0  0  0  0
 19 15  1  0  0  0  0
 19 16  1  0  0  0  0
 20 21  3  0  0  0  0
 21 15  1  0  0  0  0
 22 23  1  0  0  0  0
 24 25  1  0  0  0  0
 24 23  1  0  0  0  0
 25 26  1  0  0  0  0
M  END
>  <MODEL>
4

>  <REMARK>
 VINA RESULT:      -7.5      3.767      6.613
  Name = 
  7 active torsions:
  status: ('A' for Active; 'I' for Inactive)
    1  A    between atoms: C_5  and  C_25
    2  A    between atoms: C_7  and  N_20
    3  A    between atoms: C_8  and  C_16
    4  A    between atoms: C_11  and  C_15
    5  A    between atoms: C_11  and  C_16
    6  A    between atoms: C_15  and  N_20
    7  A    between atoms: C_16  and  C_21
                            x       y       z     vdW  Elec       q    Type
                         _______ _______ _______ _____ _____    ______ ____

>  <TORSDO>
F 7

$$$$
=
 OpenBabel11042410533D

 26 29  0  0  1  0  0  0  0  0999 V2000
  182.8450  178.4860  142.4840 C   0  0  0  0  0  3  0  0  0  0  0  0
  184.7740  178.8210  144.9150 C   0  0  0  0  0  0  0  0  0  0  0  0
  184.0920  179.0050  141.8160 C   0  0  0  0  0  2  0  0  0  0  0  0
  182.5520  178.6870  143.7810 C   0  0  0  0  0  3  0  0  0  0  0  0
  186.4880  178.0770  146.3550 C   0  0  0  0  0  3  0  0  0  0  0  0
  187.3210  177.6620  145.2900 C   0  0  0  0  0  0  0  0  0  0  0  0
  186.8230  177.8600  144.0090 C   0  0  0  0  0  0  0  0  0  0  0  0
  185.3210  178.4660  142.4760 C   0  0  0  0  0  0  0  0  0  0  0  0
  187.3130  177.5750  142.7480 C   0  0  0  0  0  3  0  0  0  0  0  0
  185.2790  178.6250  146.1370 O   0  0  0  0  0  0  0  0  0  0  0  0
  183.4290  179.4620  144.7310 C   0  0  0  0  0  2  0  0  0  0  0  0
  185.5470  178.4470  143.8250 C   0  0  0  0  0  0  0  0  0  0  0  0
  186.3900  177.9520  141.8190 N   0  0  0  0  0  0  0  0  0  0  0  0
  188.6720  177.0510  145.5160 C   0  0  1  0  0  3  0  0  0  0  0  0
  190.9800  177.8310  142.9460 C   0  0  0  0  0  0  0  0  0  0  0  0
  190.2040  178.8490  144.6550 N   0  0  0  0  0  0  0  0  0  0  0  0
  190.1420  176.9310  143.4950 N   0  0  0  0  0  0  0  0  0  0  0  0
  189.6840  177.6100  144.5630 C   0  0  0  0  0  0  0  0  0  0  0  0
  191.0270  178.9880  143.6300 N   0  0  0  0  0  2  0  0  0  0  0  0
  192.3520  177.3840  140.7920 N   0  0  0  0  0  0  0  0  0  0  0  0
  191.7400  177.5830  141.7540 C   0  0  0  0  0  0  0  0  0  0  0  0
  189.1100  177.2020  146.9680 C   0  0  0  0  0  2  0  0  0  0  0  0
  190.2680  176.2690  147.2700 C   0  0  0  0  0  2  0  0  0  0  0  0
  191.3640  177.0300  147.8400 N   0  0  0  0  0  2  0  0  0  0  0  0
  192.5120  176.1430  147.8770 C   0  0  0  0  0  2  0  0  0  0  0  0
  192.4360  175.1690  146.7210 C   0  0  0  0  0  1  0  0  0  0  0  0
  1  4  2  0  0  0  0
  2 10  1  0  0  0  0
  3  8  1  0  0  0  0
  3  1  1  0  0  0  0
  4 11  1  0  0  0  0
  6 14  1  0  0  0  0
  6  5  2  0  0  0  0
  7  6  1  0  0  0  0
  8 12  1  0  0  0  0
  9  7  2  0  0  0  0
 10  5  1  0  0  0  0
 11  2  1  0  0  0  0
 12  7  1  0  0  0  0
 12  2  2  0  0  0  0
 13  8  2  0  0  0  0
 13  9  1  0  0  0  0
 14 22  1  1  0  0  0
 15 17  2  0  0  0  0
 15 19  1  0  0  0  0
 17 18  1  0  0  0  0
 18 16  2  0  0  0  0
 18 14  1  0  0  0  0
 19 16  1  0  0  0  0
 20 21  3  0  0  0  0
 21 15  1  0  0  0  0
 22 23  1  0  0  0  0
 23 24  1  0  0  0  0
 24 25  1  0  0  0  0
 26 25  1  0  0  0  0
M  END
>  <MODEL>
5

>  <REMARK>
 VINA RESULT:      -7.4      2.020      3.206
  Name = 
  7 active torsions:
  status: ('A' for Active; 'I' for Inactive)
    1  A    between atoms: C_5  and  C_25
    2  A    between atoms: C_7  and  N_20
    3  A    between atoms: C_8  and  C_16
    4  A    between atoms: C_11  and  C_15
    5  A    between atoms: C_11  and  C_16
    6  A    between atoms: C_15  and  N_20
    7  A    between atoms: C_16  and  C_21
                            x       y       z     vdW  Elec       q    Type
                         _______ _______ _______ _____ _____    ______ ____

>  <TORSDO>
F 7

$$$$
=
 OpenBabel11042410533D

 26 29  0  0  1  0  0  0  0  0999 V2000
  185.7880  178.8020  146.0300 C   0  0  0  0  0  3  0  0  0  0  0  0
  185.6310  178.5130  142.9260 C   0  0  0  0  0  0  0  0  0  0  0  0
  186.3010  177.4000  145.8260 C   0  0  0  0  0  2  0  0  0  0  0  0
  184.9910  179.4410  145.1560 C   0  0  0  0  0  3  0  0  0  0  0  0
  186.5570  178.6050  140.7580 C   0  0  0  0  0  3  0  0  0  0  0  0
  187.7140  177.8790  141.1280 C   0  0  0  0  0  0  0  0  0  0  0  0
  187.7840  177.4720  142.4540 C   0  0  0  0  0  0  0  0  0  0  0  0
  187.1100  177.2980  144.5720 C   0  0  0  0  0  0  0  0  0  0  0  0
  188.7350  176.7830  143.1840 C   0  0  0  0  0  3  0  0  0  0  0  0
  185.5850  178.8880  141.6430 O   0  0  0  0  0  0  0  0  0  0  0  0
  184.5040  178.8360  143.8630 C   0  0  0  0  0  2  0  0  0  0  0  0
  186.7340  177.7880  143.3510 C   0  0  0  0  0  0  0  0  0  0  0  0
  188.3120  176.6800  144.4750 N   0  0  0  0  0  0  0  0  0  0  0  0
  188.8050  177.5530  140.1530 C   0  0  1  0  0  3  0  0  0  0  0  0
  187.6830  178.2920  136.8770 C   0  0  0  0  0  0  0  0  0  0  0  0
  188.9200  179.2680  138.3180 N   0  0  0  0  0  0  0  0  0  0  0  0
  187.6970  177.4320  137.9130 N   0  0  0  0  0  0  0  0  0  0  0  0
  188.4860  178.0830  138.7890 C   0  0  0  0  0  0  0  0  0  0  0  0
  188.4120  179.3990  137.1050 N   0  0  0  0  0  2  0  0  0  0  0  0
  186.3830  177.8610  134.6750 N   0  0  0  0  0  0  0  0  0  0  0  0
  186.9640  178.0540  135.6580 C   0  0  0  0  0  0  0  0  0  0  0  0
  190.1590  178.0430  140.6540 C   0  0  0  0  0  2  0  0  0  0  0  0
  191.2550  177.0730  140.2540 C   0  0  0  0  0  2  0  0  0  0  0  0
  190.7140  176.0850  139.3400 N   0  0  0  0  0  2  0  0  0  0  0  0
  191.6980  175.9070  138.2880 C   0  0  0  0  0  2  0  0  0  0  0  0
  191.1080  176.3420  136.9640 C   0  0  0  0  0  1  0  0  0  0  0  0
  2 12  2  0  0  0  0
  2 11  1  0  0  0  0
  3  1  1  0  0  0  0
  4  1  2  0  0  0  0
  5  6  2  0  0  0  0
  5 10  1  0  0  0  0
  6  7  1  0  0  0  0
  7  9  2  0  0  0  0
  7 12  1  0  0  0  0
  8  3  1  0  0  0  0
  9 13  1  0  0  0  0
 10  2  1  0  0  0  0
 11  4  1  0  0  0  0
 12  8  1  0  0  0  0
 13  8  2  0  0  0  0
 14 22  1  1  0  0  0
 14  6  1  0  0  0  0
 15 19  1  0  0  0  0
 15 17  2  0  0  0  0
 16 18  2  0  0  0  0
 17 18  1  0  0  0  0
 18 14  1  0  0  0  0
 19 16  1  0  0  0  0
 20 21  3  0  0  0  0
 21 15  1  0  0  0  0
 23 22  1  0  0  0  0
 24 23  1  0  0  0  0
 25 24  1  0  0  0  0
 26 25  1  0  0  0  0
M  END
>  <MODEL>
6

>  <REMARK>
 VINA RESULT:      -7.1      2.502      4.141
  Name = 
  7 active torsions:
  status: ('A' for Active; 'I' for Inactive)
    1  A    between atoms: C_5  and  C_25
    2  A    between atoms: C_7  and  N_20
    3  A    between atoms: C_8  and  C_16
    4  A    between atoms: C_11  and  C_15
    5  A    between atoms: C_11  and  C_16
    6  A    between atoms: C_15  and  N_20
    7  A    between atoms: C_16  and  C_21
                            x       y       z     vdW  Elec       q    Type
                         _______ _______ _______ _____ _____    ______ ____

>  <TORSDO>
F 7

$$$$
=
 OpenBabel11042410533D

 26 29  0  0  1  0  0  0  0  0999 V2000
  185.0830  178.9330  145.9780 C   0  0  0  0  0  3  0  0  0  0  0  0
  185.3430  178.5440  142.8910 C   0  0  0  0  0  0  0  0  0  0  0  0
  185.6430  177.5370  145.8910 C   0  0  0  0  0  2  0  0  0  0  0  0
  184.3970  179.5270  144.9850 C   0  0  0  0  0  3  0  0  0  0  0  0
  186.5440  178.5890  140.8620 C   0  0  0  0  0  3  0  0  0  0  0  0
  187.6560  177.9010  141.4060 C   0  0  0  0  0  0  0  0  0  0  0  0
  187.5580  177.5380  142.7420 C   0  0  0  0  0  0  0  0  0  0  0  0
  186.6130  177.4150  144.7580 C   0  0  0  0  0  0  0  0  0  0  0  0
  188.4160  176.8930  143.6140 C   0  0  0  0  0  3  0  0  0  0  0  0
  185.4590  178.8780  141.6020 O   0  0  0  0  0  0  0  0  0  0  0  0
  184.0960  178.8700  143.6610 C   0  0  0  0  0  2  0  0  0  0  0  0
  186.3930  177.8580  143.4830 C   0  0  0  0  0  0  0  0  0  0  0  0
  187.8290  176.8210  144.8400 N   0  0  0  0  0  0  0  0  0  0  0  0
  188.8720  177.5700  140.5940 C   0  0  1  0  0  3  0  0  0  0  0  0
  188.1450  177.8820  137.1420 C   0  0  0  0  0  0  0  0  0  0  0  0
  188.9880  179.1480  138.6410 N   0  0  0  0  0  0  0  0  0  0  0  0
  188.1390  177.1110  138.2450 N   0  0  0  0  0  0  0  0  0  0  0  0
  188.6790  177.9430  139.1560 C   0  0  0  0  0  0  0  0  0  0  0  0
  188.6510  179.1090  137.3630 N   0  0  0  0  0  2  0  0  0  0  0  0
  187.2680  177.0900  134.8350 N   0  0  0  0  0  0  0  0  0  0  0  0
  187.6600  177.4430  135.8650 C   0  0  0  0  0  0  0  0  0  0  0  0
  190.1230  178.2070  141.1870 C   0  0  0  0  0  2  0  0  0  0  0  0
  191.2950  177.2470  141.1060 C   0  0  0  0  0  2  0  0  0  0  0  0
  191.7840  176.9690  142.4430 N   0  0  0  0  0  2  0  0  0  0  0  0
  191.6490  178.1990  143.2010 C   0  0  0  0  0  2  0  0  0  0  0  0
  191.6280  177.8820  144.6810 C   0  0  0  0  0  1  0  0  0  0  0  0
  2 12  2  0  0  0  0
  2 11  1  0  0  0  0
  3  1  1  0  0  0  0
  4  1  2  0  0  0  0
  5  6  2  0  0  0  0
  5 10  1  0  0  0  0
  6  7  1  0  0  0  0
  7 12  1  0  0  0  0
  7  9  2  0  0  0  0
  8 13  2  0  0  0  0
  8  3  1  0  0  0  0
  9 13  1  0  0  0  0
 10  2  1  0  0  0  0
 11  4  1  0  0  0  0
 12  8  1  0  0  0  0
 14 22  1  1  0  0  0
 14  6  1  0  0  0  0
 15 19  1  0  0  0  0
 15 17  2  0  0  0  0
 16 18  2  0  0  0  0
 17 18  1  0  0  0  0
 18 14  1  0  0  0  0
 19 16  1  0  0  0  0
 20 21  3  0  0  0  0
 21 15  1  0  0  0  0
 23 22  1  0  0  0  0
 23 24  1  0  0  0  0
 24 25  1  0  0  0  0
 25 26  1  0  0  0  0
M  END
>  <MODEL>
7

>  <REMARK>
 VINA RESULT:      -7.1      2.145      2.809
  Name = 
  7 active torsions:
  status: ('A' for Active; 'I' for Inactive)
    1  A    between atoms: C_5  and  C_25
    2  A    between atoms: C_7  and  N_20
    3  A    between atoms: C_8  and  C_16
    4  A    between atoms: C_11  and  C_15
    5  A    between atoms: C_11  and  C_16
    6  A    between atoms: C_15  and  N_20
    7  A    between atoms: C_16  and  C_21
                            x       y       z     vdW  Elec       q    Type
                         _______ _______ _______ _____ _____    ______ ____

>  <TORSDO>
F 7

$$$$
=
 OpenBabel11042410533D

 26 29  0  0  1  0  0  0  0  0999 V2000
  189.5620  177.7250  145.9420 C   0  0  0  0  0  3  0  0  0  0  0  0
  188.1720  177.3640  143.1700 C   0  0  0  0  0  0  0  0  0  0  0  0
  190.4890  176.7530  145.2590 C   0  0  0  0  0  2  0  0  0  0  0  0
  188.2670  177.8810  145.6130 C   0  0  0  0  0  3  0  0  0  0  0  0
  187.8750  177.8750  140.8870 C   0  0  0  0  0  3  0  0  0  0  0  0
  189.2600  177.8160  140.6040 C   0  0  0  0  0  0  0  0  0  0  0  0
  190.0910  177.5100  141.6740 C   0  0  0  0  0  0  0  0  0  0  0  0
  190.5980  177.0500  143.7960 C   0  0  0  0  0  0  0  0  0  0  0  0
  191.4620  177.3840  141.8030 C   0  0  0  0  0  3  0  0  0  0  0  0
  187.3940  177.6540  142.1230 O   0  0  0  0  0  0  0  0  0  0  0  0
  187.5770  177.1010  144.5230 C   0  0  0  0  0  2  0  0  0  0  0  0
  189.5400  177.2780  142.9590 C   0  0  0  0  0  0  0  0  0  0  0  0
  191.7600  177.1000  143.1010 N   0  0  0  0  0  0  0  0  0  0  0  0
  189.8120  178.0570  139.2320 C   0  0  1  0  0  3  0  0  0  0  0  0
  191.8380  175.4380  137.9770 C   0  0  0  0  0  0  0  0  0  0  0  0
  189.7620  175.6810  138.4130 N   0  0  0  0  0  0  0  0  0  0  0  0
  191.7560  176.7070  138.4190 N   0  0  0  0  0  0  0  0  0  0  0  0
  190.4380  176.8150  138.6750 C   0  0  0  0  0  0  0  0  0  0  0  0
  190.6490  174.8080  137.9680 N   0  0  0  0  0  2  0  0  0  0  0  0
  194.0550  174.3220  137.2270 N   0  0  0  0  0  0  0  0  0  0  0  0
  193.0650  174.8200  137.5620 C   0  0  0  0  0  0  0  0  0  0  0  0
  188.7490  178.6280  138.3010 C   0  0  0  0  0  2  0  0  0  0  0  0
  189.2000  178.5250  136.8560 C   0  0  0  0  0  2  0  0  0  0  0  0
  188.1560  177.9000  136.0670 N   0  0  0  0  0  2  0  0  0  0  0  0
  186.9870  177.8060  136.9230 C   0  0  0  0  0  2  0  0  0  0  0  0
  186.2860  176.4870  136.6780 C   0  0  0  0  0  1  0  0  0  0  0  0
  2 11  1  0  0  0  0
  3  1  1  0  0  0  0
  4  1  2  0  0  0  0
  5 10  1  0  0  0  0
  6  5  2  0  0  0  0
  6  7  1  0  0  0  0
  7  9  2  0  0  0  0
  7 12  1  0  0  0  0
  8  3  1  0  0  0  0
  9 13  1  0  0  0  0
 10  2  1  0  0  0  0
 11  4  1  0  0  0  0
 12  2  2  0  0  0  0
 12  8  1  0  0  0  0
 13  8  2  0  0  0  0
 14 22  1  6  0  0  0
 14  6  1  0  0  0  0
 15 17  2  0  0  0  0
 16 18  2  0  0  0  0
 17 18  1  0  0  0  0
 18 14  1  0  0  0  0
 19 15  1  0  0  0  0
 19 16  1  0  0  0  0
 20 21  3  0  0  0  0
 21 15  1  0  0  0  0
 23 22  1  0  0  0  0
 24 23  1  0  0  0  0
 24 25  1  0  0  0  0
 26 25  1  0  0  0  0
M  END
>  <MODEL>
8

>  <REMARK>
 VINA RESULT:      -7.0      2.387      5.504
  Name = 
  7 active torsions:
  status: ('A' for Active; 'I' for Inactive)
    1  A    between atoms: C_5  and  C_25
    2  A    between atoms: C_7  and  N_20
    3  A    between atoms: C_8  and  C_16
    4  A    between atoms: C_11  and  C_15
    5  A    between atoms: C_11  and  C_16
    6  A    between atoms: C_15  and  N_20
    7  A    between atoms: C_16  and  C_21
                            x       y       z     vdW  Elec       q    Type
                         _______ _______ _______ _____ _____    ______ ____

>  <TORSDO>
F 7

$$$$
=
 OpenBabel11042410533D

 26 29  0  0  1  0  0  0  0  0999 V2000
  190.1710  176.7920  136.9360 C   0  0  0  0  0  3  0  0  0  0  0  0
  188.5340  178.3580  139.0830 C   0  0  0  0  0  0  0  0  0  0  0  0
  191.1930  176.9730  138.0280 C   0  0  0  0  0  2  0  0  0  0  0  0
  189.1000  177.5890  136.7740 C   0  0  0  0  0  3  0  0  0  0  0  0
  187.2040  178.4900  141.0270 C   0  0  0  0  0  3  0  0  0  0  0  0
  188.0580  177.6440  141.7730 C   0  0  0  0  0  0  0  0  0  0  0  0
  189.1810  177.1680  141.1100 C   0  0  0  0  0  0  0  0  0  0  0  0
  190.5590  176.8800  139.3800 C   0  0  0  0  0  0  0  0  0  0  0  0
  190.2130  176.3250  141.4790 C   0  0  0  0  0  3  0  0  0  0  0  0
  187.4640  178.8080  139.7460 O   0  0  0  0  0  0  0  0  0  0  0  0
  188.7870  178.7670  137.6610 C   0  0  0  0  0  2  0  0  0  0  0  0
  189.4190  177.5330  139.7610 C   0  0  0  0  0  0  0  0  0  0  0  0
  191.0500  176.1590  140.4170 N   0  0  0  0  0  0  0  0  0  0  0  0
  187.7840  177.2820  143.2020 C   0  0  1  0  0  3  0  0  0  0  0  0
  190.5400  177.3330  145.4250 C   0  0  0  0  0  0  0  0  0  0  0  0
  189.6580  178.7210  144.0630 N   0  0  0  0  0  0  0  0  0  0  0  0
  189.5000  176.6510  144.9110 N   0  0  0  0  0  0  0  0  0  0  0  0
  188.9750  177.5600  144.0670 C   0  0  0  0  0  0  0  0  0  0  0  0
  190.6490  178.5780  144.9250 N   0  0  0  0  0  2  0  0  0  0  0  0
  192.1680  176.3500  147.1870 N   0  0  0  0  0  0  0  0  0  0  0  0
  191.4410  176.7900  146.4010 C   0  0  0  0  0  0  0  0  0  0  0  0
  186.5290  177.9770  143.7170 C   0  0  0  0  0  2  0  0  0  0  0  0
  186.3190  177.6680  145.1880 C   0  0  0  0  0  2  0  0  0  0  0  0
  185.4130  178.6440  145.7610 N   0  0  0  0  0  2  0  0  0  0  0  0
  184.6870  179.2400  144.6550 C   0  0  0  0  0  2  0  0  0  0  0  0
  183.2170  178.8970  144.7710 C   0  0  0  0  0  1  0  0  0  0  0  0
  1  3  1  0  0  0  0
  2 10  1  0  0  0  0
  2 12  2  0  0  0  0
  3  8  1  0  0  0  0
  4  1  2  0  0  0  0
  4 11  1  0  0  0  0
  5  6  2  0  0  0  0
  6 14  1  0  0  0  0
  7  9  2  0  0  0  0
  7  6  1  0  0  0  0
  8 12  1  0  0  0  0
  8 13  2  0  0  0  0
 10  5  1  0  0  0  0
 11  2  1  0  0  0  0
 12  7  1  0  0  0  0
 13  9  1  0  0  0  0
 14 22  1  1  0  0  0
 14 18  1  0  0  0  0
 15 21  1  0  0  0  0
 16 18  2  0  0  0  0
 16 19  1  0  0  0  0
 17 15  2  0  0  0  0
 18 17  1  0  0  0  0
 19 15  1  0  0  0  0
 21 20  3  0  0  0  0
 22 23  1  0  0  0  0
 23 24  1  0  0  0  0
 25 26  1  0  0  0  0
 25 24  1  0  0  0  0
M  END
>  <MODEL>
9

>  <REMARK>
 VINA RESULT:      -7.0      1.842      6.407
  Name = 
  7 active torsions:
  status: ('A' for Active; 'I' for Inactive)
    1  A    between atoms: C_5  and  C_25
    2  A    between atoms: C_7  and  N_20
    3  A    between atoms: C_8  and  C_16
    4  A    between atoms: C_11  and  C_15
    5  A    between atoms: C_11  and  C_16
    6  A    between atoms: C_15  and  N_20
    7  A    between atoms: C_16  and  C_21
                            x       y       z     vdW  Elec       q    Type
                         _______ _______ _______ _____ _____    ______ ____

>  <TORSDO>
F 7

$$$$
