=
 OpenBabel11042411523D

 35 37  0  0  0  0  0  0  0  0999 V2000
  188.8720  178.1320  139.5060 C   0  0  0  0  0  2  0  0  0  0  0  0
  189.5690  177.1850  138.6310 N   0  0  0  0  0  0  0  0  0  0  0  0
  188.7760  177.6060  140.9180 C   0  0  0  0  0  0  0  0  0  0  0  0
  190.8180  176.3150  140.4740 C   0  0  0  0  0  3  0  0  0  0  0  0
  190.7380  176.5170  139.1550 C   0  0  0  0  0  0  0  0  0  0  0  0
  189.7520  176.7840  141.3810 C   0  0  0  0  0  0  0  0  0  0  0  0
  194.0060  176.5100  137.3150 N   0  0  0  0  0  0  0  0  0  0  0  0
  192.9760  176.9020  138.1110 C   0  0  0  0  0  3  0  0  0  0  0  0
  193.9820  175.3200  136.6570 C   0  0  0  0  0  0  0  0  0  0  0  0
  191.8100  174.8530  137.5920 C   0  0  0  0  0  0  0  0  0  0  0  0
  191.8520  176.0800  138.2810 C   0  0  0  0  0  0  0  0  0  0  0  0
  195.3310  174.8550  135.6450 Cl  0  0  0  0  0  0  0  0  0  0  0  0
  190.7270  174.0410  137.6730 F   0  0  0  0  0  0  0  0  0  0  0  0
  192.8800  174.4740  136.7800 C   0  0  0  0  0  3  0  0  0  0  0  0
  188.0640  175.8430  137.2080 C   0  0  0  0  0  3  0  0  0  0  0  0
  187.9250  176.2390  134.8280 C   0  0  0  0  0  3  0  0  0  0  0  0
  189.4080  177.5770  136.1920 C   0  0  0  0  0  3  0  0  0  0  0  0
  187.5130  175.5170  135.9580 C   0  0  0  0  0  0  0  0  0  0  0  0
  189.0050  176.8750  137.3400 C   0  0  0  0  0  0  0  0  0  0  0  0
  188.8680  177.2620  134.9430 C   0  0  0  0  0  3  0  0  0  0  0  0
  186.8490  173.1040  136.2720 C   0  0  0  0  0  1  0  0  0  0  0  0
  185.2210  174.7070  135.2860 C   0  0  0  0  0  1  0  0  0  0  0  0
  186.5430  174.4590  135.8400 N   0  0  0  0  0  0  0  0  0  0  0  0
  187.7940  178.1560  143.0030 O   0  0  0  0  0  0  0  0  0  0  0  0
  187.6530  178.1080  141.7510 C   0  0  0  0  0  0  0  0  0  0  0  0
  186.4390  178.5770  141.1480 N   0  0  0  0  0  2  0  0  0  0  0  0
  184.2930  179.4590  141.1820 O   0  0  0  0  0  0  0  0  0  0  0  0
  185.2810  179.1610  143.2740 N   0  0  0  0  0  2  0  0  0  0  0  0
  185.2950  179.0810  141.8450 C   0  0  0  0  0  0  0  0  0  0  0  0
  184.1300  179.6410  144.0240 C   0  0  0  0  0  2  0  0  0  0  0  0
  184.0140  178.8880  145.3390 C   0  0  0  0  0  2  0  0  0  0  0  0
  185.3880  178.6750  145.9440 C   0  0  0  0  0  2  0  0  0  0  0  0
  185.5090  179.4100  147.1250 O   0  0  0  0  0  1  0  0  0  0  0  0
  189.8550  176.3620  142.8120 C   0  0  0  0  0  2  0  0  0  0  0  0
  191.2020  176.7660  143.3810 C   0  0  0  0  0  1  0  0  0  0  0  0
  1  3  1  0  0  0  0
  2  5  1  0  0  0  0
  2  1  1  0  0  0  0
  3  6  2  0  0  0  0
  3 25  1  0  0  0  0
  4  6  1  0  0  0  0
  5  4  2  0  0  0  0
  6 34  1  0  0  0  0
  7  8  1  0  0  0  0
  8 11  2  0  0  0  0
  9 14  1  0  0  0  0
  9  7  2  0  0  0  0
 10 13  1  0  0  0  0
 10 11  1  0  0  0  0
 11  5  1  0  0  0  0
 12  9  1  0  0  0  0
 14 10  2  0  0  0  0
 15 19  1  0  0  0  0
 16 20  2  0  0  0  0
 16 18  1  0  0  0  0
 17 19  2  0  0  0  0
 18 15  2  0  0  0  0
 19  2  1  0  0  0  0
 20 17  1  0  0  0  0
 22 23  1  0  0  0  0
 23 18  1  0  0  0  0
 23 21  1  0  0  0  0
 25 24  2  0  0  0  0
 26 25  1  0  0  0  0
 26 29  1  0  0  0  0
 27 29  2  0  0  0  0
 28 30  1  0  0  0  0
 29 28  1  0  0  0  0
 30 31  1  0  0  0  0
 31 32  1  0  0  0  0
 32 33  1  0  0  0  0
 34 35  1  0  0  0  0
M  END
>  <MODEL>
1

>  <REMARK>
 VINA RESULT:      -7.2      0.000      0.000
  Name = 
  8 active torsions:
  status: ('A' for Active; 'I' for Inactive)
    1  A    between atoms: C_2  and  C_34
    2  A    between atoms: N_8  and  C_28
    3  A    between atoms: C_11  and  C_14
    4  A    between atoms: C_12  and  C_32
    5  A    between atoms: C_16  and  C_29
    6  A    between atoms: C_23  and  N_27
    7  A    between atoms: N_30  and  C_31
    8  A    between atoms: C_31  and  C_32
                            x       y       z     vdW  Elec       q    Type
                         _______ _______ _______ _____ _____    ______ ____

>  <TORSDO>
F 8

$$$$
=
 OpenBabel11042411523D

 35 37  0  0  0  0  0  0  0  0999 V2000
  191.8800  177.7060  140.1200 C   0  0  0  0  0  2  0  0  0  0  0  0
  190.8170  177.5560  141.1170 N   0  0  0  0  0  0  0  0  0  0  0  0
  191.8110  176.6180  139.0750 C   0  0  0  0  0  0  0  0  0  0  0  0
  189.4010  176.4720  139.5260 C   0  0  0  0  0  3  0  0  0  0  0  0
  189.5000  177.1880  140.6500 C   0  0  0  0  0  0  0  0  0  0  0  0
  190.6030  176.0830  138.7630 C   0  0  0  0  0  0  0  0  0  0  0  0
  186.3810  179.0780  141.5240 N   0  0  0  0  0  0  0  0  0  0  0  0
  187.5150  178.6880  140.8820 C   0  0  0  0  0  3  0  0  0  0  0  0
  185.9440  178.4430  142.6430 C   0  0  0  0  0  0  0  0  0  0  0  0
  187.8340  176.9520  142.5280 C   0  0  0  0  0  0  0  0  0  0  0  0
  188.2690  177.6070  141.3600 C   0  0  0  0  0  0  0  0  0  0  0  0
  184.4770  178.9770  143.4350 Cl  0  0  0  0  0  0  0  0  0  0  0  0
  188.5500  175.9350  143.0690 F   0  0  0  0  0  0  0  0  0  0  0  0
  186.6670  177.3720  143.1680 C   0  0  0  0  0  3  0  0  0  0  0  0
  191.4520  176.5190  143.2650 C   0  0  0  0  0  3  0  0  0  0  0  0
  191.7560  177.8630  145.2510 C   0  0  0  0  0  3  0  0  0  0  0  0
  191.1380  178.9140  143.1620 C   0  0  0  0  0  3  0  0  0  0  0  0
  191.7620  176.6040  144.6320 C   0  0  0  0  0  0  0  0  0  0  0  0
  191.1470  177.6660  142.5180 C   0  0  0  0  0  0  0  0  0  0  0  0
  191.4440  179.0120  144.5210 C   0  0  0  0  0  3  0  0  0  0  0  0
  192.2170  175.4580  146.8330 C   0  0  0  0  0  1  0  0  0  0  0  0
  192.2730  174.1360  144.7250 C   0  0  0  0  0  1  0  0  0  0  0  0
  192.0800  175.4180  145.3850 N   0  0  0  0  0  0  0  0  0  0  0  0
  194.0460  175.8330  139.0540 O   0  0  0  0  0  0  0  0  0  0  0  0
  193.0750  176.2690  138.3780 C   0  0  0  0  0  0  0  0  0  0  0  0
  193.1870  176.3800  136.9520 N   0  0  0  0  0  2  0  0  0  0  0  0
  194.3040  176.2180  134.9240 O   0  0  0  0  0  0  0  0  0  0  0  0
  195.5500  175.6040  136.7990 N   0  0  0  0  0  2  0  0  0  0  0  0
  194.3500  176.0730  136.1750 C   0  0  0  0  0  0  0  0  0  0  0  0
  196.7620  175.3070  136.0510 C   0  0  0  0  0  2  0  0  0  0  0  0
  197.7240  174.5090  136.9140 C   0  0  0  0  0  2  0  0  0  0  0  0
  197.3870  174.6900  138.3810 C   0  0  0  0  0  2  0  0  0  0  0  0
  198.2670  175.6030  138.9650 O   0  0  0  0  0  1  0  0  0  0  0  0
  190.3970  175.1430  137.6190 C   0  0  0  0  0  2  0  0  0  0  0  0
  189.3000  175.6610  136.7070 C   0  0  0  0  0  1  0  0  0  0  0  0
  1  2  1  0  0  0  0
  2 19  1  0  0  0  0
  3  1  1  0  0  0  0
  4  5  2  0  0  0  0
  5  2  1  0  0  0  0
  5 11  1  0  0  0  0
  6  3  2  0  0  0  0
  6  4  1  0  0  0  0
  7  9  1  0  0  0  0
  8 11  1  0  0  0  0
  8  7  2  0  0  0  0
  9 14  2  0  0  0  0
  9 12  1  0  0  0  0
 10 13  1  0  0  0  0
 10 14  1  0  0  0  0
 11 10  2  0  0  0  0
 15 18  1  0  0  0  0
 17 20  2  0  0  0  0
 18 16  2  0  0  0  0
 18 23  1  0  0  0  0
 19 17  1  0  0  0  0
 19 15  2  0  0  0  0
 20 16  1  0  0  0  0
 22 23  1  0  0  0  0
 23 21  1  0  0  0  0
 25 24  2  0  0  0  0
 25  3  1  0  0  0  0
 26 25  1  0  0  0  0
 27 29  2  0  0  0  0
 29 28  1  0  0  0  0
 29 26  1  0  0  0  0
 30 28  1  0  0  0  0
 30 31  1  0  0  0  0
 31 32  1  0  0  0  0
 32 33  1  0  0  0  0
 34  6  1  0  0  0  0
 35 34  1  0  0  0  0
M  END
>  <MODEL>
2

>  <REMARK>
 VINA RESULT:      -7.0      4.550      9.558
  Name = 
  8 active torsions:
  status: ('A' for Active; 'I' for Inactive)
    1  A    between atoms: C_2  and  C_34
    2  A    between atoms: N_8  and  C_28
    3  A    between atoms: C_11  and  C_14
    4  A    between atoms: C_12  and  C_32
    5  A    between atoms: C_16  and  C_29
    6  A    between atoms: C_23  and  N_27
    7  A    between atoms: N_30  and  C_31
    8  A    between atoms: C_31  and  C_32
                            x       y       z     vdW  Elec       q    Type
                         _______ _______ _______ _____ _____    ______ ____

>  <TORSDO>
F 8

$$$$
=
 OpenBabel11042411523D

 35 37  0  0  0  0  0  0  0  0999 V2000
  183.3440  179.0290  142.1730 C   0  0  0  0  0  2  0  0  0  0  0  0
  182.6210  178.7630  140.9260 N   0  0  0  0  0  0  0  0  0  0  0  0
  184.8120  178.6990  142.0380 C   0  0  0  0  0  0  0  0  0  0  0  0
  184.5940  179.1530  139.6340 C   0  0  0  0  0  3  0  0  0  0  0  0
  183.2590  179.1360  139.6840 C   0  0  0  0  0  0  0  0  0  0  0  0
  185.4040  178.8240  140.8240 C   0  0  0  0  0  0  0  0  0  0  0  0
  181.1790  181.1660  137.3140 N   0  0  0  0  0  0  0  0  0  0  0  0
  181.8930  180.7970  138.4110 C   0  0  0  0  0  3  0  0  0  0  0  0
  181.0030  180.3220  136.2630 C   0  0  0  0  0  0  0  0  0  0  0  0
  182.2880  178.6360  137.4110 C   0  0  0  0  0  0  0  0  0  0  0  0
  182.4780  179.5250  138.4860 C   0  0  0  0  0  0  0  0  0  0  0  0
  180.0780  180.8400  134.8710 Cl  0  0  0  0  0  0  0  0  0  0  0  0
  182.7830  177.3740  137.4500 F   0  0  0  0  0  0  0  0  0  0  0  0
  181.5500  179.0390  136.2970 C   0  0  0  0  0  3  0  0  0  0  0  0
  181.2170  176.8400  140.2780 C   0  0  0  0  0  3  0  0  0  0  0  0
  178.9310  176.6580  141.0420 C   0  0  0  0  0  3  0  0  0  0  0  0
  180.2790  178.5540  141.7020 C   0  0  0  0  0  3  0  0  0  0  0  0
  180.0030  176.1340  140.3050 C   0  0  0  0  0  0  0  0  0  0  0  0
  181.3700  178.0460  140.9780 C   0  0  0  0  0  0  0  0  0  0  0  0
  179.0670  177.8620  141.7360 C   0  0  0  0  0  3  0  0  0  0  0  0
  180.3030  174.7690  138.2040 C   0  0  0  0  0  1  0  0  0  0  0  0
  179.2760  173.7200  140.2150 C   0  0  0  0  0  1  0  0  0  0  0  0
  179.8630  174.8940  139.5850 N   0  0  0  0  0  0  0  0  0  0  0  0
  186.4720  177.4990  143.2280 O   0  0  0  0  0  0  0  0  0  0  0  0
  185.5420  178.3480  143.2830 C   0  0  0  0  0  0  0  0  0  0  0  0
  185.2320  178.9930  144.5270 N   0  0  0  0  0  2  0  0  0  0  0  0
  185.4900  179.3820  146.8010 O   0  0  0  0  0  0  0  0  0  0  0  0
  186.9150  177.7700  145.8980 N   0  0  0  0  0  2  0  0  0  0  0  0
  185.8660  178.7380  145.7860 C   0  0  0  0  0  0  0  0  0  0  0  0
  187.5670  177.4610  147.1620 C   0  0  0  0  0  2  0  0  0  0  0  0
  189.0370  177.1550  146.9280 C   0  0  0  0  0  2  0  0  0  0  0  0
  189.5310  177.8720  145.6860 C   0  0  0  0  0  2  0  0  0  0  0  0
  189.9610  176.9430  144.7370 O   0  0  0  0  0  1  0  0  0  0  0  0
  186.8800  178.7080  140.6190 C   0  0  0  0  0  2  0  0  0  0  0  0
  187.1780  178.2440  139.2060 C   0  0  0  0  0  1  0  0  0  0  0  0
  2 19  1  0  0  0  0
  2  1  1  0  0  0  0
  3  1  1  0  0  0  0
  3 25  1  0  0  0  0
  4  5  2  0  0  0  0
  4  6  1  0  0  0  0
  5  2  1  0  0  0  0
  6  3  2  0  0  0  0
  7  8  1  0  0  0  0
  8 11  2  0  0  0  0
  9 14  1  0  0  0  0
  9  7  2  0  0  0  0
 10 13  1  0  0  0  0
 10 11  1  0  0  0  0
 11  5  1  0  0  0  0
 12  9  1  0  0  0  0
 14 10  2  0  0  0  0
 15 18  2  0  0  0  0
 15 19  1  0  0  0  0
 16 20  2  0  0  0  0
 17 20  1  0  0  0  0
 18 16  1  0  0  0  0
 19 17  2  0  0  0  0
 21 23  1  0  0  0  0
 23 22  1  0  0  0  0
 23 18  1  0  0  0  0
 24 25  2  0  0  0  0
 25 26  1  0  0  0  0
 26 29  1  0  0  0  0
 28 30  1  0  0  0  0
 29 28  1  0  0  0  0
 29 27  2  0  0  0  0
 31 30  1  0  0  0  0
 32 31  1  0  0  0  0
 33 32  1  0  0  0  0
 34  6  1  0  0  0  0
 35 34  1  0  0  0  0
M  END
>  <MODEL>
3

>  <REMARK>
 VINA RESULT:      -6.7      5.538      8.380
  Name = 
  8 active torsions:
  status: ('A' for Active; 'I' for Inactive)
    1  A    between atoms: C_2  and  C_34
    2  A    between atoms: N_8  and  C_28
    3  A    between atoms: C_11  and  C_14
    4  A    between atoms: C_12  and  C_32
    5  A    between atoms: C_16  and  C_29
    6  A    between atoms: C_23  and  N_27
    7  A    between atoms: N_30  and  C_31
    8  A    between atoms: C_31  and  C_32
                            x       y       z     vdW  Elec       q    Type
                         _______ _______ _______ _____ _____    ______ ____

>  <TORSDO>
F 8

$$$$
=
 OpenBabel11042411523D

 35 37  0  0  0  0  0  0  0  0999 V2000
  191.4810  176.7320  137.7560 C   0  0  0  0  0  2  0  0  0  0  0  0
  190.0480  176.5830  138.0190 N   0  0  0  0  0  0  0  0  0  0  0  0
  192.0900  175.4360  137.2750 C   0  0  0  0  0  0  0  0  0  0  0  0
  189.8760  174.8340  136.3980 C   0  0  0  0  0  3  0  0  0  0  0  0
  189.2670  175.8080  137.0810 C   0  0  0  0  0  0  0  0  0  0  0  0
  191.3170  174.5680  136.5740 C   0  0  0  0  0  0  0  0  0  0  0  0
  185.5400  175.3960  137.0280 N   0  0  0  0  0  0  0  0  0  0  0  0
  186.8610  175.1520  137.2410 C   0  0  0  0  0  3  0  0  0  0  0  0
  185.1160  176.5360  136.4220 C   0  0  0  0  0  0  0  0  0  0  0  0
  187.4040  177.2600  136.1970 C   0  0  0  0  0  0  0  0  0  0  0  0
  187.8310  176.0820  136.8400 C   0  0  0  0  0  0  0  0  0  0  0  0
  183.4060  176.8080  136.1720 Cl  0  0  0  0  0  0  0  0  0  0  0  0
  188.2980  178.1700  135.7380 F   0  0  0  0  0  0  0  0  0  0  0  0
  186.0420  177.4850  135.9910 C   0  0  0  0  0  3  0  0  0  0  0  0
  190.0660  176.7630  140.4800 C   0  0  0  0  0  3  0  0  0  0  0  0
  188.4210  178.1020  141.6400 C   0  0  0  0  0  3  0  0  0  0  0  0
  188.3760  177.9530  139.2260 C   0  0  0  0  0  3  0  0  0  0  0  0
  189.5380  177.2550  141.6850 C   0  0  0  0  0  0  0  0  0  0  0  0
  189.4990  177.1100  139.2450 C   0  0  0  0  0  0  0  0  0  0  0  0
  187.8410  178.4480  140.4170 C   0  0  0  0  0  3  0  0  0  0  0  0
  191.5690  176.6790  143.0680 C   0  0  0  0  0  1  0  0  0  0  0  0
  189.3250  176.7320  144.1440 C   0  0  0  0  0  1  0  0  0  0  0  0
  190.1350  176.8940  142.9460 N   0  0  0  0  0  0  0  0  0  0  0  0
  194.3340  176.1940  137.3040 O   0  0  0  0  0  0  0  0  0  0  0  0
  193.5410  175.2390  137.5220 C   0  0  0  0  0  0  0  0  0  0  0  0
  194.0390  173.9980  138.0430 N   0  0  0  0  0  2  0  0  0  0  0  0
  195.7030  172.5570  138.7780 O   0  0  0  0  0  0  0  0  0  0  0  0
  196.4400  174.6610  138.0870 N   0  0  0  0  0  2  0  0  0  0  0  0
  195.4100  173.6940  138.3200 C   0  0  0  0  0  0  0  0  0  0  0  0
  197.8480  174.3840  138.3290 C   0  0  0  0  0  2  0  0  0  0  0  0
  198.3580  175.2420  139.4750 C   0  0  0  0  0  2  0  0  0  0  0  0
  197.3390  175.2780  140.5980 C   0  0  0  0  0  2  0  0  0  0  0  0
  197.0220  176.6000  140.9130 O   0  0  0  0  0  1  0  0  0  0  0  0
  191.8630  173.3540  135.8930 C   0  0  0  0  0  2  0  0  0  0  0  0
  190.7470  172.5980  135.1960 C   0  0  0  0  0  1  0  0  0  0  0  0
  1  2  1  0  0  0  0
  2 19  1  0  0  0  0
  3 25  1  0  0  0  0
  3  1  1  0  0  0  0
  4  6  1  0  0  0  0
  4  5  2  0  0  0  0
  5  2  1  0  0  0  0
  6  3  2  0  0  0  0
  7  8  1  0  0  0  0
  9  7  2  0  0  0  0
 10 11  1  0  0  0  0
 11  5  1  0  0  0  0
 11  8  2  0  0  0  0
 12  9  1  0  0  0  0
 13 10  1  0  0  0  0
 14 10  2  0  0  0  0
 14  9  1  0  0  0  0
 15 18  1  0  0  0  0
 16 18  2  0  0  0  0
 17 19  1  0  0  0  0
 17 20  2  0  0  0  0
 18 23  1  0  0  0  0
 19 15  2  0  0  0  0
 20 16  1  0  0  0  0
 23 21  1  0  0  0  0
 23 22  1  0  0  0  0
 24 25  2  0  0  0  0
 25 26  1  0  0  0  0
 26 29  1  0  0  0  0
 28 29  1  0  0  0  0
 28 30  1  0  0  0  0
 29 27  2  0  0  0  0
 30 31  1  0  0  0  0
 31 32  1  0  0  0  0
 32 33  1  0  0  0  0
 34  6  1  0  0  0  0
 35 34  1  0  0  0  0
M  END
>  <MODEL>
4

>  <REMARK>
 VINA RESULT:      -6.7      4.616      8.794
  Name = 
  8 active torsions:
  status: ('A' for Active; 'I' for Inactive)
    1  A    between atoms: C_2  and  C_34
    2  A    between atoms: N_8  and  C_28
    3  A    between atoms: C_11  and  C_14
    4  A    between atoms: C_12  and  C_32
    5  A    between atoms: C_16  and  C_29
    6  A    between atoms: C_23  and  N_27
    7  A    between atoms: N_30  and  C_31
    8  A    between atoms: C_31  and  C_32
                            x       y       z     vdW  Elec       q    Type
                         _______ _______ _______ _____ _____    ______ ____

>  <TORSDO>
F 8

$$$$
=
 OpenBabel11042411523D

 35 37  0  0  0  0  0  0  0  0999 V2000
  185.9840  178.9000  141.5740 C   0  0  0  0  0  2  0  0  0  0  0  0
  186.6180  178.2490  142.7230 N   0  0  0  0  0  0  0  0  0  0  0  0
  184.4950  178.6470  141.5530 C   0  0  0  0  0  0  0  0  0  0  0  0
  184.5990  178.3970  143.9940 C   0  0  0  0  0  3  0  0  0  0  0  0
  185.9320  178.3040  143.9940 C   0  0  0  0  0  0  0  0  0  0  0  0
  183.8420  178.4690  142.7280 C   0  0  0  0  0  0  0  0  0  0  0  0
  188.7450  178.2350  146.4720 N   0  0  0  0  0  0  0  0  0  0  0  0
  188.0640  178.2440  145.2950 C   0  0  0  0  0  3  0  0  0  0  0  0
  188.1000  178.2630  147.6680 C   0  0  0  0  0  0  0  0  0  0  0  0
  185.9830  178.3020  146.5150 C   0  0  0  0  0  0  0  0  0  0  0  0
  186.6630  178.2880  145.2830 C   0  0  0  0  0  0  0  0  0  0  0  0
  189.0170  178.2530  149.1570 Cl  0  0  0  0  0  0  0  0  0  0  0  0
  184.6270  178.2890  146.5680 F   0  0  0  0  0  0  0  0  0  0  0  0
  186.7050  178.2910  147.7090 C   0  0  0  0  0  3  0  0  0  0  0  0
  188.7210  177.8430  141.4970 C   0  0  0  0  0  3  0  0  0  0  0  0
  190.1730  176.0050  142.0950 C   0  0  0  0  0  3  0  0  0  0  0  0
  188.1220  176.3750  143.3220 C   0  0  0  0  0  3  0  0  0  0  0  0
  189.8990  177.1100  141.2760 C   0  0  0  0  0  0  0  0  0  0  0  0
  187.8290  177.4910  142.5210 C   0  0  0  0  0  0  0  0  0  0  0  0
  189.2880  175.6380  143.1120 C   0  0  0  0  0  3  0  0  0  0  0  0
  192.2460  177.5000  140.4390 C   0  0  0  0  0  1  0  0  0  0  0  0
  190.3200  177.8690  138.9070 C   0  0  0  0  0  1  0  0  0  0  0  0
  190.8080  177.4880  140.2240 N   0  0  0  0  0  0  0  0  0  0  0  0
  183.7940  179.8030  139.6060 O   0  0  0  0  0  0  0  0  0  0  0  0
  183.8190  178.7080  140.2310 C   0  0  0  0  0  0  0  0  0  0  0  0
  183.2390  177.5340  139.6440 N   0  0  0  0  0  2  0  0  0  0  0  0
  182.1030  176.3670  137.9910 O   0  0  0  0  0  0  0  0  0  0  0  0
  182.4170  178.6400  137.5690 N   0  0  0  0  0  2  0  0  0  0  0  0
  182.5650  177.4710  138.3820 C   0  0  0  0  0  0  0  0  0  0  0  0
  181.7160  178.6260  136.2940 C   0  0  0  0  0  2  0  0  0  0  0  0
  180.7970  179.8330  136.1920 C   0  0  0  0  0  2  0  0  0  0  0  0
  180.8150  180.6170  137.4900 C   0  0  0  0  0  2  0  0  0  0  0  0
  181.1820  181.9420  137.2430 O   0  0  0  0  0  1  0  0  0  0  0  0
  182.3520  178.4010  142.8340 C   0  0  0  0  0  2  0  0  0  0  0  0
  181.8950  178.9560  144.1700 C   0  0  0  0  0  1  0  0  0  0  0  0
  1  2  1  0  0  0  0
  2  5  1  0  0  0  0
  3  1  1  0  0  0  0
  3  6  2  0  0  0  0
  5  4  2  0  0  0  0
  5 11  1  0  0  0  0
  6 34  1  0  0  0  0
  6  4  1  0  0  0  0
  7  9  1  0  0  0  0
  8  7  2  0  0  0  0
  9 14  2  0  0  0  0
  9 12  1  0  0  0  0
 10 13  1  0  0  0  0
 10 14  1  0  0  0  0
 11  8  1  0  0  0  0
 11 10  2  0  0  0  0
 15 19  1  0  0  0  0
 16 20  2  0  0  0  0
 18 15  2  0  0  0  0
 18 16  1  0  0  0  0
 19  2  1  0  0  0  0
 19 17  2  0  0  0  0
 20 17  1  0  0  0  0
 22 23  1  0  0  0  0
 23 21  1  0  0  0  0
 23 18  1  0  0  0  0
 24 25  2  0  0  0  0
 25  3  1  0  0  0  0
 26 25  1  0  0  0  0
 27 29  2  0  0  0  0
 28 29  1  0  0  0  0
 29 26  1  0  0  0  0
 30 28  1  0  0  0  0
 31 30  1  0  0  0  0
 31 32  1  0  0  0  0
 33 32  1  0  0  0  0
 34 35  1  0  0  0  0
M  END
>  <MODEL>
5

>  <REMARK>
 VINA RESULT:      -6.5      4.690      8.316
  Name = 
  8 active torsions:
  status: ('A' for Active; 'I' for Inactive)
    1  A    between atoms: C_2  and  C_34
    2  A    between atoms: N_8  and  C_28
    3  A    between atoms: C_11  and  C_14
    4  A    between atoms: C_12  and  C_32
    5  A    between atoms: C_16  and  C_29
    6  A    between atoms: C_23  and  N_27
    7  A    between atoms: N_30  and  C_31
    8  A    between atoms: C_31  and  C_32
                            x       y       z     vdW  Elec       q    Type
                         _______ _______ _______ _____ _____    ______ ____

>  <TORSDO>
F 8

$$$$
=
 OpenBabel11042411523D

 35 37  0  0  0  0  0  0  0  0999 V2000
  187.3310  178.6620  139.3140 C   0  0  0  0  0  2  0  0  0  0  0  0
  186.0100  178.4430  139.9100 N   0  0  0  0  0  0  0  0  0  0  0  0
  187.6090  177.6640  138.2140 C   0  0  0  0  0  0  0  0  0  0  0  0
  185.1820  177.5110  137.8700 C   0  0  0  0  0  3  0  0  0  0  0  0
  184.9120  178.1310  139.0230 C   0  0  0  0  0  0  0  0  0  0  0  0
  186.5690  177.1710  137.4960 C   0  0  0  0  0  0  0  0  0  0  0  0
  181.7800  180.1620  139.3800 N   0  0  0  0  0  0  0  0  0  0  0  0
  183.0630  179.8100  139.0960 C   0  0  0  0  0  3  0  0  0  0  0  0
  180.9000  179.2740  139.9110 C   0  0  0  0  0  0  0  0  0  0  0  0
  182.6150  177.5800  139.9060 C   0  0  0  0  0  0  0  0  0  0  0  0
  183.5140  178.5050  139.3410 C   0  0  0  0  0  0  0  0  0  0  0  0
  179.2590  179.7700  140.2580 Cl  0  0  0  0  0  0  0  0  0  0  0  0
  183.0100  176.3200  140.2160 F   0  0  0  0  0  0  0  0  0  0  0  0
  181.3050  177.9680  140.1890 C   0  0  0  0  0  3  0  0  0  0  0  0
  186.9140  177.9240  142.1470 C   0  0  0  0  0  3  0  0  0  0  0  0
  185.6270  178.3790  144.1420 C   0  0  0  0  0  3  0  0  0  0  0  0
  184.7110  178.9040  141.9660 C   0  0  0  0  0  3  0  0  0  0  0  0
  186.8010  177.8940  143.5470 C   0  0  0  0  0  0  0  0  0  0  0  0
  185.8800  178.4340  141.3470 C   0  0  0  0  0  0  0  0  0  0  0  0
  184.5860  178.8790  143.3570 C   0  0  0  0  0  3  0  0  0  0  0  0
  189.0170  176.7070  143.7530 C   0  0  0  0  0  1  0  0  0  0  0  0
  187.8530  177.4980  145.8050 C   0  0  0  0  0  1  0  0  0  0  0  0
  187.8730  177.3740  144.3550 N   0  0  0  0  0  0  0  0  0  0  0  0
  189.8070  178.2980  137.5960 O   0  0  0  0  0  0  0  0  0  0  0  0
  189.0340  177.3580  137.9250 C   0  0  0  0  0  0  0  0  0  0  0  0
  189.5440  176.0240  138.0590 N   0  0  0  0  0  2  0  0  0  0  0  0
  191.1990  174.3990  137.9680 O   0  0  0  0  0  0  0  0  0  0  0  0
  191.8840  176.5530  137.3880 N   0  0  0  0  0  2  0  0  0  0  0  0
  190.8920  175.6110  137.8090 C   0  0  0  0  0  0  0  0  0  0  0  0
  193.2570  176.1720  137.0970 C   0  0  0  0  0  2  0  0  0  0  0  0
  193.4430  175.9990  135.5990 C   0  0  0  0  0  2  0  0  0  0  0  0
  194.8150  176.4940  135.1800 C   0  0  0  0  0  2  0  0  0  0  0  0
  195.0520  177.7590  135.7210 O   0  0  0  0  0  1  0  0  0  0  0  0
  186.7470  176.3320  136.2710 C   0  0  0  0  0  2  0  0  0  0  0  0
  186.2110  174.9330  136.5130 C   0  0  0  0  0  1  0  0  0  0  0  0
  1  2  1  0  0  0  0
  2 19  1  0  0  0  0
  3  1  1  0  0  0  0
  4  5  2  0  0  0  0
  5 11  1  0  0  0  0
  5  2  1  0  0  0  0
  6  4  1  0  0  0  0
  6  3  2  0  0  0  0
  7  9  1  0  0  0  0
  8 11  1  0  0  0  0
  8  7  2  0  0  0  0
  9 14  2  0  0  0  0
  9 12  1  0  0  0  0
 10 14  1  0  0  0  0
 10 13  1  0  0  0  0
 11 10  2  0  0  0  0
 15 18  1  0  0  0  0
 17 20  2  0  0  0  0
 18 16  2  0  0  0  0
 18 23  1  0  0  0  0
 19 17  1  0  0  0  0
 19 15  2  0  0  0  0
 20 16  1  0  0  0  0
 21 23  1  0  0  0  0
 23 22  1  0  0  0  0
 24 25  2  0  0  0  0
 25 26  1  0  0  0  0
 25  3  1  0  0  0  0
 28 29  1  0  0  0  0
 29 27  2  0  0  0  0
 29 26  1  0  0  0  0
 30 28  1  0  0  0  0
 31 30  1  0  0  0  0
 32 31  1  0  0  0  0
 32 33  1  0  0  0  0
 34 35  1  0  0  0  0
 34  6  1  0  0  0  0
M  END
>  <MODEL>
6

>  <REMARK>
 VINA RESULT:      -6.3      4.643      9.500
  Name = 
  8 active torsions:
  status: ('A' for Active; 'I' for Inactive)
    1  A    between atoms: C_2  and  C_34
    2  A    between atoms: N_8  and  C_28
    3  A    between atoms: C_11  and  C_14
    4  A    between atoms: C_12  and  C_32
    5  A    between atoms: C_16  and  C_29
    6  A    between atoms: C_23  and  N_27
    7  A    between atoms: N_30  and  C_31
    8  A    between atoms: C_31  and  C_32
                            x       y       z     vdW  Elec       q    Type
                         _______ _______ _______ _____ _____    ______ ____

>  <TORSDO>
F 8

$$$$
=
 OpenBabel11042411523D

 35 37  0  0  0  0  0  0  0  0999 V2000
  186.9120  177.2390  142.0180 C   0  0  0  0  0  2  0  0  0  0  0  0
  186.2790  177.9590  140.9100 N   0  0  0  0  0  0  0  0  0  0  0  0
  186.7090  177.9590  143.3300 C   0  0  0  0  0  0  0  0  0  0  0  0
  184.6480  178.9010  142.3820 C   0  0  0  0  0  3  0  0  0  0  0  0
  184.9730  178.5350  141.1390 C   0  0  0  0  0  0  0  0  0  0  0  0
  185.5870  178.7020  143.5040 C   0  0  0  0  0  0  0  0  0  0  0  0
  182.9330  180.1070  138.4130 N   0  0  0  0  0  0  0  0  0  0  0  0
  183.8330  179.9450  139.4200 C   0  0  0  0  0  3  0  0  0  0  0  0
  182.1520  179.0800  137.9850 C   0  0  0  0  0  0  0  0  0  0  0  0
  183.1710  177.6330  139.6230 C   0  0  0  0  0  0  0  0  0  0  0  0
  183.9850  178.7000  140.0470 C   0  0  0  0  0  0  0  0  0  0  0  0
  181.0100  179.3320  136.6850 Cl  0  0  0  0  0  0  0  0  0  0  0  0
  183.2340  176.4210  140.2270 F   0  0  0  0  0  0  0  0  0  0  0  0
  182.2540  177.8250  138.5880 C   0  0  0  0  0  3  0  0  0  0  0  0
  186.4320  177.8660  138.4490 C   0  0  0  0  0  3  0  0  0  0  0  0
  188.4600  178.5190  137.3060 C   0  0  0  0  0  3  0  0  0  0  0  0
  188.3430  178.6280  139.7190 C   0  0  0  0  0  3  0  0  0  0  0  0
  187.1410  178.0440  137.2490 C   0  0  0  0  0  0  0  0  0  0  0  0
  187.0190  178.1620  139.6890 C   0  0  0  0  0  0  0  0  0  0  0  0
  189.0580  178.8090  138.5340 C   0  0  0  0  0  3  0  0  0  0  0  0
  187.2490  177.9010  134.7330 C   0  0  0  0  0  1  0  0  0  0  0  0
  185.1500  177.2630  135.9110 C   0  0  0  0  0  1  0  0  0  0  0  0
  186.5230  177.7410  135.9840 N   0  0  0  0  0  0  0  0  0  0  0  0
  187.3440  177.2600  145.5030 O   0  0  0  0  0  0  0  0  0  0  0  0
  187.7200  177.7250  144.3930 C   0  0  0  0  0  0  0  0  0  0  0  0
  189.1120  177.9780  144.1560 N   0  0  0  0  0  2  0  0  0  0  0  0
  191.3540  178.0560  144.7520 O   0  0  0  0  0  0  0  0  0  0  0  0
  189.9040  177.3060  146.4200 N   0  0  0  0  0  2  0  0  0  0  0  0
  190.1720  177.7910  145.1000 C   0  0  0  0  0  0  0  0  0  0  0  0
  190.9470  177.1270  147.4190 C   0  0  0  0  0  2  0  0  0  0  0  0
  191.5030  175.7150  147.3440 C   0  0  0  0  0  2  0  0  0  0  0  0
  192.8190  175.6280  148.0930 C   0  0  0  0  0  2  0  0  0  0  0  0
  192.9910  176.7630  148.8890 O   0  0  0  0  0  1  0  0  0  0  0  0
  185.1960  179.2970  144.8190 C   0  0  0  0  0  2  0  0  0  0  0  0
  183.7370  179.0040  145.1140 C   0  0  0  0  0  1  0  0  0  0  0  0
  1  3  1  0  0  0  0
  2  5  1  0  0  0  0
  2  1  1  0  0  0  0
  3  6  2  0  0  0  0
  3 25  1  0  0  0  0
  4  6  1  0  0  0  0
  5  4  2  0  0  0  0
  6 34  1  0  0  0  0
  7  8  1  0  0  0  0
  8 11  2  0  0  0  0
  9  7  2  0  0  0  0
  9 14  1  0  0  0  0
 10 11  1  0  0  0  0
 10 13  1  0  0  0  0
 11  5  1  0  0  0  0
 12  9  1  0  0  0  0
 14 10  2  0  0  0  0
 15 19  1  0  0  0  0
 16 20  2  0  0  0  0
 18 16  1  0  0  0  0
 18 15  2  0  0  0  0
 19 17  2  0  0  0  0
 19  2  1  0  0  0  0
 20 17  1  0  0  0  0
 21 23  1  0  0  0  0
 22 23  1  0  0  0  0
 23 18  1  0  0  0  0
 25 24  2  0  0  0  0
 26 25  1  0  0  0  0
 26 29  1  0  0  0  0
 27 29  2  0  0  0  0
 28 30  1  0  0  0  0
 29 28  1  0  0  0  0
 31 30  1  0  0  0  0
 31 32  1  0  0  0  0
 32 33  1  0  0  0  0
 34 35  1  0  0  0  0
M  END
>  <MODEL>
7

>  <REMARK>
 VINA RESULT:      -6.2      4.400      7.105
  Name = 
  8 active torsions:
  status: ('A' for Active; 'I' for Inactive)
    1  A    between atoms: C_2  and  C_34
    2  A    between atoms: N_8  and  C_28
    3  A    between atoms: C_11  and  C_14
    4  A    between atoms: C_12  and  C_32
    5  A    between atoms: C_16  and  C_29
    6  A    between atoms: C_23  and  N_27
    7  A    between atoms: N_30  and  C_31
    8  A    between atoms: C_31  and  C_32
                            x       y       z     vdW  Elec       q    Type
                         _______ _______ _______ _____ _____    ______ ____

>  <TORSDO>
F 8

$$$$
=
 OpenBabel11042411523D

 35 37  0  0  0  0  0  0  0  0999 V2000
  186.7670  179.2470  140.6390 C   0  0  0  0  0  2  0  0  0  0  0  0
  187.7080  178.3080  141.2550 N   0  0  0  0  0  0  0  0  0  0  0  0
  185.3450  178.9540  141.0570 C   0  0  0  0  0  0  0  0  0  0  0  0
  186.2550  177.9930  143.1270 C   0  0  0  0  0  3  0  0  0  0  0  0
  187.4990  177.9560  142.6410 C   0  0  0  0  0  0  0  0  0  0  0  0
  185.1200  178.4080  142.2790 C   0  0  0  0  0  0  0  0  0  0  0  0
  190.2770  178.2380  145.1450 N   0  0  0  0  0  0  0  0  0  0  0  0
  189.2490  178.5670  144.3170 C   0  0  0  0  0  3  0  0  0  0  0  0
  190.7320  176.9620  145.2400 C   0  0  0  0  0  0  0  0  0  0  0  0
  189.0950  176.2630  143.6150 C   0  0  0  0  0  0  0  0  0  0  0  0
  188.6220  177.5860  143.5350 C   0  0  0  0  0  0  0  0  0  0  0  0
  192.0550  176.5840  146.3210 Cl  0  0  0  0  0  0  0  0  0  0  0  0
  188.5650  175.2820  142.8430 F   0  0  0  0  0  0  0  0  0  0  0  0
  190.1520  175.9520  144.4720 C   0  0  0  0  0  3  0  0  0  0  0  0
  188.3990  177.1800  139.1720 C   0  0  0  0  0  3  0  0  0  0  0  0
  190.6850  176.4630  138.8480 C   0  0  0  0  0  3  0  0  0  0  0  0
  190.0440  177.5700  140.9000 C   0  0  0  0  0  3  0  0  0  0  0  0
  189.3720  176.5650  138.3660 C   0  0  0  0  0  0  0  0  0  0  0  0
  188.7250  177.6930  140.4370 C   0  0  0  0  0  0  0  0  0  0  0  0
  191.0200  176.9610  140.1090 C   0  0  0  0  0  3  0  0  0  0  0  0
  187.8580  175.1970  136.8810 C   0  0  0  0  0  1  0  0  0  0  0  0
  189.8250  176.3600  135.8930 C   0  0  0  0  0  1  0  0  0  0  0  0
  189.0240  176.0480  137.0670 N   0  0  0  0  0  0  0  0  0  0  0  0
  184.5550  180.1280  139.1570 O   0  0  0  0  0  0  0  0  0  0  0  0
  184.2670  179.3780  140.1290 C   0  0  0  0  0  0  0  0  0  0  0  0
  182.9210  178.9110  140.2980 N   0  0  0  0  0  2  0  0  0  0  0  0
  180.6730  178.7640  139.7390 O   0  0  0  0  0  0  0  0  0  0  0  0
  181.9590  180.1270  138.3480 N   0  0  0  0  0  2  0  0  0  0  0  0
  181.8030  179.2510  139.4690 C   0  0  0  0  0  0  0  0  0  0  0  0
  180.8460  180.5190  137.4970 C   0  0  0  0  0  2  0  0  0  0  0  0
  180.3680  181.9120  137.8740 C   0  0  0  0  0  2  0  0  0  0  0  0
  180.6790  182.8930  136.7600 C   0  0  0  0  0  2  0  0  0  0  0  0
  181.5190  183.9030  137.2340 O   0  0  0  0  0  1  0  0  0  0  0  0
  183.7530  178.2540  142.8660 C   0  0  0  0  0  2  0  0  0  0  0  0
  183.6660  178.9880  144.1910 C   0  0  0  0  0  1  0  0  0  0  0  0
  1  3  1  0  0  0  0
  1  2  1  0  0  0  0
  2  5  1  0  0  0  0
  3  6  2  0  0  0  0
  5  4  2  0  0  0  0
  5 11  1  0  0  0  0
  6 34  1  0  0  0  0
  6  4  1  0  0  0  0
  7  9  1  0  0  0  0
  8  7  2  0  0  0  0
  9 12  1  0  0  0  0
 10 14  1  0  0  0  0
 11 10  2  0  0  0  0
 11  8  1  0  0  0  0
 13 10  1  0  0  0  0
 14  9  2  0  0  0  0
 15 19  1  0  0  0  0
 16 20  2  0  0  0  0
 18 16  1  0  0  0  0
 18 15  2  0  0  0  0
 19 17  2  0  0  0  0
 19  2  1  0  0  0  0
 20 17  1  0  0  0  0
 21 23  1  0  0  0  0
 22 23  1  0  0  0  0
 23 18  1  0  0  0  0
 24 25  2  0  0  0  0
 25 26  1  0  0  0  0
 25  3  1  0  0  0  0
 28 29  1  0  0  0  0
 29 27  2  0  0  0  0
 29 26  1  0  0  0  0
 30 31  1  0  0  0  0
 30 28  1  0  0  0  0
 32 33  1  0  0  0  0
 32 31  1  0  0  0  0
 34 35  1  0  0  0  0
M  END
>  <MODEL>
8

>  <REMARK>
 VINA RESULT:      -6.2      3.832      6.357
  Name = 
  8 active torsions:
  status: ('A' for Active; 'I' for Inactive)
    1  A    between atoms: C_2  and  C_34
    2  A    between atoms: N_8  and  C_28
    3  A    between atoms: C_11  and  C_14
    4  A    between atoms: C_12  and  C_32
    5  A    between atoms: C_16  and  C_29
    6  A    between atoms: C_23  and  N_27
    7  A    between atoms: N_30  and  C_31
    8  A    between atoms: C_31  and  C_32
                            x       y       z     vdW  Elec       q    Type
                         _______ _______ _______ _____ _____    ______ ____

>  <TORSDO>
F 8

$$$$
=
 OpenBabel11042411523D

 35 37  0  0  0  0  0  0  0  0999 V2000
  191.9920  177.6450  140.0240 C   0  0  0  0  0  2  0  0  0  0  0  0
  190.8970  177.5390  140.9930 N   0  0  0  0  0  0  0  0  0  0  0  0
  191.9580  176.5070  139.0310 C   0  0  0  0  0  0  0  0  0  0  0  0
  189.5350  176.3750  139.4110 C   0  0  0  0  0  3  0  0  0  0  0  0
  189.5970  177.1450  140.5010 C   0  0  0  0  0  0  0  0  0  0  0  0
  190.7630  175.9540  138.7070 C   0  0  0  0  0  0  0  0  0  0  0  0
  186.9450  177.6780  143.0990 N   0  0  0  0  0  0  0  0  0  0  0  0
  188.0900  177.2680  142.4910 C   0  0  0  0  0  3  0  0  0  0  0  0
  186.0100  178.4060  142.4340 C   0  0  0  0  0  0  0  0  0  0  0  0
  187.3730  178.3340  140.4480 C   0  0  0  0  0  0  0  0  0  0  0  0
  188.3420  177.5930  141.1510 C   0  0  0  0  0  0  0  0  0  0  0  0
  184.5520  178.9150  143.2570 Cl  0  0  0  0  0  0  0  0  0  0  0  0
  187.5360  178.6320  139.1350 F   0  0  0  0  0  0  0  0  0  0  0  0
  186.2060  178.7420  141.0950 C   0  0  0  0  0  3  0  0  0  0  0  0
  191.4120  176.6050  143.2190 C   0  0  0  0  0  3  0  0  0  0  0  0
  191.7000  178.0500  145.1350 C   0  0  0  0  0  3  0  0  0  0  0  0
  191.2010  179.0000  142.9680 C   0  0  0  0  0  3  0  0  0  0  0  0
  191.6760  176.7580  144.5900 C   0  0  0  0  0  0  0  0  0  0  0  0
  191.1810  177.7180  142.3960 C   0  0  0  0  0  0  0  0  0  0  0  0
  191.4620  179.1660  144.3290 C   0  0  0  0  0  3  0  0  0  0  0  0
  191.7600  175.6720  146.8650 C   0  0  0  0  0  1  0  0  0  0  0  0
  192.3260  174.3340  144.8440 C   0  0  0  0  0  1  0  0  0  0  0  0
  191.9170  175.6060  145.4200 N   0  0  0  0  0  0  0  0  0  0  0  0
  193.6670  176.8070  137.4170 O   0  0  0  0  0  0  0  0  0  0  0  0
  193.2460  176.1290  138.3940 C   0  0  0  0  0  0  0  0  0  0  0  0
  194.0280  175.0390  138.9010 N   0  0  0  0  0  2  0  0  0  0  0  0
  195.8580  173.6110  138.9210 O   0  0  0  0  0  0  0  0  0  0  0  0
  195.8730  175.2250  137.2370 N   0  0  0  0  0  2  0  0  0  0  0  0
  195.2790  174.5860  138.3710 C   0  0  0  0  0  0  0  0  0  0  0  0
  197.1280  174.7800  136.6500 C   0  0  0  0  0  2  0  0  0  0  0  0
  197.0340  174.8110  135.1340 C   0  0  0  0  0  2  0  0  0  0  0  0
  197.4110  176.1850  134.6130 C   0  0  0  0  0  2  0  0  0  0  0  0
  196.2910  177.0180  134.6070 O   0  0  0  0  0  1  0  0  0  0  0  0
  190.5950  174.9590  137.6030 C   0  0  0  0  0  2  0  0  0  0  0  0
  189.9710  175.6230  136.3900 C   0  0  0  0  0  1  0  0  0  0  0  0
  1  2  1  0  0  0  0
  2 19  1  0  0  0  0
  3  1  1  0  0  0  0
  4  5  2  0  0  0  0
  5  2  1  0  0  0  0
  5 11  1  0  0  0  0
  6  3  2  0  0  0  0
  6  4  1  0  0  0  0
  8  7  1  0  0  0  0
  9  7  2  0  0  0  0
  9 12  1  0  0  0  0
 10 14  2  0  0  0  0
 10 11  1  0  0  0  0
 11  8  2  0  0  0  0
 13 10  1  0  0  0  0
 14  9  1  0  0  0  0
 15 18  1  0  0  0  0
 17 20  2  0  0  0  0
 18 16  2  0  0  0  0
 18 23  1  0  0  0  0
 19 17  1  0  0  0  0
 19 15  2  0  0  0  0
 20 16  1  0  0  0  0
 22 23  1  0  0  0  0
 23 21  1  0  0  0  0
 24 25  2  0  0  0  0
 25 26  1  0  0  0  0
 25  3  1  0  0  0  0
 28 29  1  0  0  0  0
 29 26  1  0  0  0  0
 29 27  2  0  0  0  0
 30 28  1  0  0  0  0
 31 30  1  0  0  0  0
 32 31  1  0  0  0  0
 33 32  1  0  0  0  0
 34  6  1  0  0  0  0
 35 34  1  0  0  0  0
M  END
>  <MODEL>
9

>  <REMARK>
 VINA RESULT:      -6.1      4.704      9.765
  Name = 
  8 active torsions:
  status: ('A' for Active; 'I' for Inactive)
    1  A    between atoms: C_2  and  C_34
    2  A    between atoms: N_8  and  C_28
    3  A    between atoms: C_11  and  C_14
    4  A    between atoms: C_12  and  C_32
    5  A    between atoms: C_16  and  C_29
    6  A    between atoms: C_23  and  N_27
    7  A    between atoms: N_30  and  C_31
    8  A    between atoms: C_31  and  C_32
                            x       y       z     vdW  Elec       q    Type
                         _______ _______ _______ _____ _____    ______ ____

>  <TORSDO>
F 8

$$$$
