=
 OpenBabel11032421063D

 59 64  0  0  1  0  0  0  0  0999 V2000
  189.3480  173.8190  136.8720 C   0  0  0  0  0  3  0  0  0  0  0  0
  187.3990  174.9860  136.1030 C   0  0  0  0  0  0  0  0  0  0  0  0
  187.9110  176.1740  136.5640 C   0  0  0  0  0  0  0  0  0  0  0  0
  186.9090  178.6400  136.7550 C   0  0  0  0  0  2  0  0  0  0  0  0
  189.8810  175.0350  137.3380 C   0  0  0  0  0  3  0  0  0  0  0  0
  187.4850  178.3280  135.3840 C   0  0  0  0  0  2  0  0  0  0  0  0
  188.0950  173.7880  136.2460 C   0  0  0  0  0  3  0  0  0  0  0  0
  189.1580  176.2370  137.2020 C   0  0  0  0  0  0  0  0  0  0  0  0
  186.9100  177.2200  136.2340 C   0  0  0  0  0  0  0  0  0  0  0  0
  186.1290  175.1300  135.4770 N   0  0  0  0  0  2  0  0  0  0  0  0
  185.7280  176.5380  135.5410 C   0  0  1  0  0  3  0  0  0  0  0  0
  183.5070  176.7310  137.0140 C   0  0  0  0  0  0  0  0  0  0  0  0
  184.5120  176.6540  136.3540 C   0  0  0  0  0  0  0  0  0  0  0  0
  182.2770  176.8050  137.8120 C   0  0  2  0  0  3  0  0  0  0  0  0
  182.5300  176.4250  139.2720 C   0  0  0  0  0  2  0  0  0  0  0  0
  181.2640  176.5000  140.1180 C   0  0  0  0  0  2  0  0  0  0  0  0
  181.2670  177.7670  140.9650 C   0  0  0  0  0  2  0  0  0  0  0  0
  179.7680  177.9020  142.8570 O   0  0  0  0  0  1  0  0  0  0  0  0
  179.8780  178.1550  141.4870 C   0  0  1  0  0  3  0  0  0  0  0  0
  179.4480  179.5910  141.1670 C   0  0  1  0  0  3  0  0  0  0  0  0
  180.1300  180.5280  141.9470 O   0  0  0  0  0  1  0  0  0  0  0  0
  179.5640  179.9290  139.6850 C   0  0  0  0  0  2  0  0  0  0  0  0
  180.7120  180.7270  139.4320 O   0  0  0  0  0  0  0  0  0  0  0  0
  182.8520  180.2890  138.6910 O   0  0  0  0  0  0  0  0  0  0  0  0
  181.1570  180.2100  137.0370 C   0  0  0  0  0  1  0  0  0  0  0  0
  181.6290  180.4060  138.4310 C   0  0  0  0  0  0  0  0  0  0  0  0
  181.1760  175.9570  137.1940 C   0  0  0  0  0  2  0  0  0  0  0  0
  181.6190  174.5100  137.0980 C   0  0  0  0  0  2  0  0  0  0  0  0
  181.2070  173.9120  135.7630 C   0  0  0  0  0  2  0  0  0  0  0  0
  181.2020  172.3950  135.8530 C   0  0  0  0  0  2  0  0  0  0  0  0
  182.1480  171.9160  136.9410 C   0  0  0  0  0  2  0  0  0  0  0  0
  184.4610  172.0260  136.0510 C   0  0  0  0  0  3  0  0  0  0  0  0
  183.3430  171.3490  136.3410 N   0  0  0  0  0  0  0  0  0  0  0  0
  183.4870  170.0780  135.9350 C   0  0  0  0  0  3  0  0  0  0  0  0
  184.7410  169.9280  135.3780 C   0  0  0  0  0  3  0  0  0  0  0  0
  185.3610  171.1640  135.4520 C   0  0  0  0  0  3  0  0  0  0  0  0
  189.7600  177.5530  137.6050 C   0  0  0  0  0  2  0  0  0  0  0  0
  190.8980  177.3860  138.4020 O   0  0  0  0  0  0  0  0  0  0  0  0
  191.3170  177.3260  140.7640 C   0  0  0  0  0  0  0  0  0  0  0  0
  190.4150  176.9200  139.6300 C   0  0  1  0  0  3  0  0  0  0  0  0
  188.4920  177.0200  141.2260 C   0  0  0  0  0  2  0  0  0  0  0  0
  188.9950  177.4380  139.8510 C   0  0  0  0  0  2  0  0  0  0  0  0
  192.5680  177.3650  140.5990 O   0  0  0  0  0  0  0  0  0  0  0  0
  189.3280  177.6970  142.3110 C   0  0  2  0  0  3  0  0  0  0  0  0
  190.7680  177.5350  142.0690 N   0  0  0  0  0  2  0  0  0  0  0  0
  189.5030  177.9970  144.7550 C   0  0  1  0  0  3  0  0  0  0  0  0
  187.4650  177.0320  143.7400 C   0  0  1  0  0  3  0  0  0  0  0  0
  188.9290  177.2070  143.6410 N   0  0  1  0  0  0  0  0  0  0  0  0
  188.7230  177.8000  146.0210 C   0  0  0  0  0  0  0  0  0  0  0  0
  187.1660  176.3230  144.9240 O   0  0  0  0  0  0  0  0  0  0  0  0
  189.0840  178.3570  147.0900 O   0  0  0  0  0  0  0  0  0  0  0  0
  187.5200  177.0890  145.9810 O   0  0  0  0  0  0  0  0  0  0  0  0
  190.9600  177.6020  144.9850 C   0  0  0  0  0  1  0  0  0  0  0  0
  186.6550  178.3470  143.5990 C   0  0  1  0  0  3  0  0  0  0  0  0
  186.0670  178.4410  142.2020 C   0  0  0  0  0  1  0  0  0  0  0  0
  185.5110  178.4360  144.6060 C   0  0  0  0  0  2  0  0  0  0  0  0
  184.3060  179.1510  144.0090 C   0  0  0  0  0  3  0  0  0  0  0  0
  184.3680  180.6330  144.3250 C   0  0  0  0  0  1  0  0  0  0  0  0
  183.0400  178.5750  144.6110 C   0  0  0  0  0  1  0  0  0  0  0  0
  1  5  1  0  0  0  0
  2  7  1  0  0  0  0
  2  3  2  0  0  0  0
  3  8  1  0  0  0  0
  6  9  1  0  0  0  0
  6  4  1  0  0  0  0
  7  1  2  0  0  0  0
  8  5  2  0  0  0  0
  8 37  1  0  0  0  0
  9  3  1  0  0  0  0
  9  4  1  0  0  0  0
 10 11  1  0  0  0  0
 10  2  1  0  0  0  0
 11  9  1  0  0  0  0
 11 13  1  1  0  0  0
 13 12  3  0  0  0  0
 14 12  1  6  0  0  0
 14 15  1  0  0  0  0
 15 16  1  0  0  0  0
 16 17  1  0  0  0  0
 17 19  1  0  0  0  0
 19 18  1  1  0  0  0
 20 19  1  0  0  0  0
 20 21  1  1  0  0  0
 22 20  1  0  0  0  0
 23 22  1  0  0  0  0
 25 26  1  0  0  0  0
 26 24  2  0  0  0  0
 26 23  1  0  0  0  0
 27 14  1  0  0  0  0
 28 27  1  0  0  0  0
 29 30  1  0  0  0  0
 29 28  1  0  0  0  0
 30 31  1  0  0  0  0
 32 33  1  0  0  0  0
 33 31  1  0  0  0  0
 34 33  1  0  0  0  0
 35 36  1  0  0  0  0
 35 34  2  0  0  0  0
 36 32  2  0  0  0  0
 37 38  1  0  0  0  0
 39 45  1  0  0  0  0
 40 38  1  6  0  0  0
 40 42  1  0  0  0  0
 40 39  1  0  0  0  0
 42 41  1  0  0  0  0
 43 39  2  0  0  0  0
 44 41  1  6  0  0  0
 45 44  1  0  0  0  0
 46 53  1  1  0  0  0
 46 49  1  0  0  0  0
 47 54  1  1  0  0  0
 47 50  1  0  0  0  0
 48 44  1  6  0  0  0
 48 47  1  0  0  0  0
 48 46  1  0  0  0  0
 49 51  2  0  0  0  0
 50 52  1  0  0  0  0
 52 49  1  0  0  0  0
 54 55  1  6  0  0  0
 54 56  1  0  0  0  0
 57 58  1  0  0  0  0
 57 56  1  0  0  0  0
 57 59  1  0  0  0  0
M  END
>  <MODEL>
1

>  <REMARK>
 VINA RESULT:      -6.1      0.000      0.000
  Name = 
  23 active torsions:
  status: ('A' for Active; 'I' for Inactive)
    1  A    between atoms: C_3  and  C_30
    2  A    between atoms: C_3  and  C_40
    3  A    between atoms: C_6  and  C_26
    4  A    between atoms: C_6  and  O_46
    5  A    between atoms: C_8  and  C_40
    6  A    between atoms: C_8  and  C_42
    7  A    between atoms: C_9  and  O_46
    8  A    between atoms: C_14  and  C_22
    9  A    between atoms: C_15  and  C_27
   10  A    between atoms: C_15  and  O_49
   11  A    between atoms: N_16  and  C_31
   12  A    between atoms: C_22  and  C_47
   13  A    between atoms: C_25  and  C_47
   14  A    between atoms: C_27  and  C_53
   15  A    between atoms: C_30  and  N_33
   16  A    between atoms: C_35  and  C_36
   17  A    between atoms: C_35  and  C_41
   18  A    between atoms: C_36  and  C_53
   19  A    between atoms: C_41  and  C_44
   20  A    between atoms: C_42  and  C_44
   21  A    between atoms: C_44  and  C_50
   22  A    between atoms: C_45  and  C_51
   23  A    between atoms: O_49  and  C_57
                            x       y       z     vdW  Elec       q    Type
                         _______ _______ _______ _____ _____    ______ ____

>  <TORSDO>
F 23

$$$$
=
 OpenBabel11032421063D

 59 64  0  0  1  0  0  0  0  0999 V2000
  188.0320  178.2200  135.8100 C   0  0  0  0  0  3  0  0  0  0  0  0
  185.9690  177.0730  135.3870 C   0  0  0  0  0  0  0  0  0  0  0  0
  185.7270  176.9810  136.7360 C   0  0  0  0  0  0  0  0  0  0  0  0
  183.8570  175.7330  138.1730 C   0  0  0  0  0  2  0  0  0  0  0  0
  187.7850  178.1370  137.1930 C   0  0  0  0  0  3  0  0  0  0  0  0
  183.4160  177.0930  137.6610 C   0  0  0  0  0  2  0  0  0  0  0  0
  187.1180  177.6850  134.8930 C   0  0  0  0  0  3  0  0  0  0  0  0
  186.6260  177.5000  137.6790 C   0  0  0  0  0  0  0  0  0  0  0  0
  184.4250  176.2830  136.8840 C   0  0  0  0  0  0  0  0  0  0  0  0
  184.9360  176.4990  134.5940 N   0  0  0  0  0  2  0  0  0  0  0  0
  183.9120  175.9430  135.4830 C   0  0  1  0  0  3  0  0  0  0  0  0
  183.7930  173.2940  135.1540 C   0  0  0  0  0  0  0  0  0  0  0  0
  183.8480  174.4900  135.2910 C   0  0  0  0  0  0  0  0  0  0  0  0
  183.7200  171.8350  135.0080 C   0  0  2  0  0  3  0  0  0  0  0  0
  182.7650  171.2140  136.0290 C   0  0  0  0  0  2  0  0  0  0  0  0
  181.3040  171.3630  135.6230 C   0  0  0  0  0  2  0  0  0  0  0  0
  180.4880  171.9320  136.7790 C   0  0  0  0  0  2  0  0  0  0  0  0
  179.0050  173.3950  135.5510 O   0  0  0  0  0  1  0  0  0  0  0  0
  179.9990  173.3650  136.5330 C   0  0  1  0  0  3  0  0  0  0  0  0
  179.5400  174.1120  137.7900 C   0  0  1  0  0  3  0  0  0  0  0  0
  179.7580  173.3660  138.9510 O   0  0  0  0  0  1  0  0  0  0  0  0
  180.1530  175.5020  137.9120 C   0  0  0  0  0  2  0  0  0  0  0  0
  180.0210  176.0040  139.2350 O   0  0  0  0  0  0  0  0  0  0  0  0
  179.4740  178.1920  138.7520 O   0  0  0  0  0  0  0  0  0  0  0  0
  180.7580  177.8640  140.7160 C   0  0  0  0  0  1  0  0  0  0  0  0
  180.0440  177.3700  139.5120 C   0  0  0  0  0  0  0  0  0  0  0  0
  185.1050  171.2110  135.0820 C   0  0  0  0  0  2  0  0  0  0  0  0
  186.1630  172.2390  134.7310 C   0  0  0  0  0  2  0  0  0  0  0  0
  186.9210  172.6730  135.9740 C   0  0  0  0  0  2  0  0  0  0  0  0
  187.6090  174.0050  135.7260 C   0  0  0  0  0  2  0  0  0  0  0  0
  189.0720  173.7970  135.3700 C   0  0  0  0  0  2  0  0  0  0  0  0
  191.1500  175.0330  135.9230 C   0  0  0  0  0  3  0  0  0  0  0  0
  189.9070  174.6340  136.2150 N   0  0  0  0  0  0  0  0  0  0  0  0
  189.5810  175.0840  137.4370 C   0  0  0  0  0  3  0  0  0  0  0  0
  190.6430  175.8060  137.9420 C   0  0  0  0  0  3  0  0  0  0  0  0
  191.6400  175.7760  136.9810 C   0  0  0  0  0  3  0  0  0  0  0  0
  186.3030  177.4940  139.1460 C   0  0  0  0  0  2  0  0  0  0  0  0
  185.7200  178.6970  139.5580 O   0  0  0  0  0  0  0  0  0  0  0  0
  185.5310  178.3980  141.9320 C   0  0  0  0  0  0  0  0  0  0  0  0
  186.3170  178.9860  140.7910 C   0  0  1  0  0  3  0  0  0  0  0  0
  188.3850  178.6900  142.1650 C   0  0  0  0  0  2  0  0  0  0  0  0
  187.7540  178.4700  140.7970 C   0  0  0  0  0  2  0  0  0  0  0  0
  184.2700  178.3580  141.8820 O   0  0  0  0  0  0  0  0  0  0  0  0
  187.6620  177.8430  143.2110 C   0  0  2  0  0  3  0  0  0  0  0  0
  186.2040  178.0100  143.1330 N   0  0  0  0  0  2  0  0  0  0  0  0
  187.4960  177.3890  145.6320 C   0  0  1  0  0  3  0  0  0  0  0  0
  189.6570  178.0170  144.6060 C   0  0  1  0  0  3  0  0  0  0  0  0
  188.1840  178.1380  144.5550 N   0  0  1  0  0  0  0  0  0  0  0  0
  188.3330  177.3300  146.8750 C   0  0  0  0  0  0  0  0  0  0  0  0
  190.1200  178.5580  145.8260 O   0  0  0  0  0  0  0  0  0  0  0  0
  187.8970  176.7690  147.9150 O   0  0  0  0  0  0  0  0  0  0  0  0
  189.6510  177.7940  146.8380 O   0  0  0  0  0  0  0  0  0  0  0  0
  186.1510  178.0400  145.9500 C   0  0  0  0  0  1  0  0  0  0  0  0
  190.1880  176.5860  144.3360 C   0  0  1  0  0  3  0  0  0  0  0  0
  190.1530  176.2980  142.8450 C   0  0  0  0  0  1  0  0  0  0  0  0
  191.6220  176.3960  144.8270 C   0  0  0  0  0  2  0  0  0  0  0  0
  191.7320  175.1840  145.7440 C   0  0  0  0  0  3  0  0  0  0  0  0
  192.4630  175.5600  147.0190 C   0  0  0  0  0  1  0  0  0  0  0  0
  192.5150  174.0970  145.0340 C   0  0  0  0  0  1  0  0  0  0  0  0
  1  5  1  0  0  0  0
  2  3  2  0  0  0  0
  3  9  1  0  0  0  0
  3  8  1  0  0  0  0
  5  8  2  0  0  0  0
  6  4  1  0  0  0  0
  7  2  1  0  0  0  0
  7  1  2  0  0  0  0
  8 37  1  0  0  0  0
  9  6  1  0  0  0  0
  9  4  1  0  0  0  0
 10  2  1  0  0  0  0
 10 11  1  0  0  0  0
 11 13  1  1  0  0  0
 11  9  1  0  0  0  0
 12 13  3  0  0  0  0
 14 27  1  1  0  0  0
 14 12  1  0  0  0  0
 14 15  1  0  0  0  0
 16 15  1  0  0  0  0
 16 17  1  0  0  0  0
 19 18  1  6  0  0  0
 19 17  1  0  0  0  0
 19 20  1  0  0  0  0
 20 22  1  0  0  0  0
 20 21  1  1  0  0  0
 22 23  1  0  0  0  0
 23 26  1  0  0  0  0
 24 26  2  0  0  0  0
 26 25  1  0  0  0  0
 28 27  1  0  0  0  0
 28 29  1  0  0  0  0
 30 29  1  0  0  0  0
 31 30  1  0  0  0  0
 31 33  1  0  0  0  0
 32 33  1  0  0  0  0
 32 36  2  0  0  0  0
 33 34  1  0  0  0  0
 34 35  2  0  0  0  0
 36 35  1  0  0  0  0
 37 38  1  0  0  0  0
 39 45  1  0  0  0  0
 40 38  1  6  0  0  0
 40 42  1  0  0  0  0
 40 39  1  0  0  0  0
 42 41  1  0  0  0  0
 43 39  2  0  0  0  0
 44 41  1  6  0  0  0
 45 44  1  0  0  0  0
 46 53  1  1  0  0  0
 46 49  1  0  0  0  0
 47 54  1  1  0  0  0
 47 50  1  0  0  0  0
 48 44  1  6  0  0  0
 48 47  1  0  0  0  0
 48 46  1  0  0  0  0
 49 51  2  0  0  0  0
 50 52  1  0  0  0  0
 52 49  1  0  0  0  0
 54 55  1  6  0  0  0
 54 56  1  0  0  0  0
 56 57  1  0  0  0  0
 57 58  1  0  0  0  0
 59 57  1  0  0  0  0
M  END
>  <MODEL>
2

>  <REMARK>
 VINA RESULT:      -5.7      2.343      5.513
  Name = 
  23 active torsions:
  status: ('A' for Active; 'I' for Inactive)
    1  A    between atoms: C_3  and  C_30
    2  A    between atoms: C_3  and  C_40
    3  A    between atoms: C_6  and  C_26
    4  A    between atoms: C_6  and  O_46
    5  A    between atoms: C_8  and  C_40
    6  A    between atoms: C_8  and  C_42
    7  A    between atoms: C_9  and  O_46
    8  A    between atoms: C_14  and  C_22
    9  A    between atoms: C_15  and  C_27
   10  A    between atoms: C_15  and  O_49
   11  A    between atoms: N_16  and  C_31
   12  A    between atoms: C_22  and  C_47
   13  A    between atoms: C_25  and  C_47
   14  A    between atoms: C_27  and  C_53
   15  A    between atoms: C_30  and  N_33
   16  A    between atoms: C_35  and  C_36
   17  A    between atoms: C_35  and  C_41
   18  A    between atoms: C_36  and  C_53
   19  A    between atoms: C_41  and  C_44
   20  A    between atoms: C_42  and  C_44
   21  A    between atoms: C_44  and  C_50
   22  A    between atoms: C_45  and  C_51
   23  A    between atoms: O_49  and  C_57
                            x       y       z     vdW  Elec       q    Type
                         _______ _______ _______ _____ _____    ______ ____

>  <TORSDO>
F 23

$$$$
=
 OpenBabel11032421063D

 59 64  0  0  1  0  0  0  0  0999 V2000
  191.7750  175.7370  136.7760 C   0  0  0  0  0  3  0  0  0  0  0  0
  189.5800  176.2310  135.9460 C   0  0  0  0  0  0  0  0  0  0  0  0
  189.2810  176.9120  137.1010 C   0  0  0  0  0  0  0  0  0  0  0  0
  187.0390  178.0100  138.0420 C   0  0  0  0  0  2  0  0  0  0  0  0
  191.4770  176.4410  137.9570 C   0  0  0  0  0  3  0  0  0  0  0  0
  187.8000  178.9170  137.0910 C   0  0  0  0  0  2  0  0  0  0  0  0
  190.8210  175.6280  135.7560 C   0  0  0  0  0  3  0  0  0  0  0  0
  190.2120  177.0320  138.1430 C   0  0  0  0  0  0  0  0  0  0  0  0
  187.8940  177.4170  136.9440 C   0  0  0  0  0  0  0  0  0  0  0  0
  188.5120  176.2310  135.0050 N   0  0  0  0  0  2  0  0  0  0  0  0
  187.3750  176.9530  135.5810 C   0  0  1  0  0  3  0  0  0  0  0  0
  185.3360  175.2500  135.8650 C   0  0  0  0  0  0  0  0  0  0  0  0
  186.2490  176.0270  135.7410 C   0  0  0  0  0  0  0  0  0  0  0  0
  184.2370  174.2880  136.0100 C   0  0  2  0  0  3  0  0  0  0  0  0
  183.0120  174.9270  136.6680 C   0  0  0  0  0  2  0  0  0  0  0  0
  182.2570  175.8470  135.7160 C   0  0  0  0  0  2  0  0  0  0  0  0
  180.8530  176.1200  136.2450 C   0  0  0  0  0  2  0  0  0  0  0  0
  181.9270  176.4650  138.3840 O   0  0  0  0  0  1  0  0  0  0  0  0
  180.8420  176.8520  137.5930 C   0  0  1  0  0  3  0  0  0  0  0  0
  180.7630  178.3800  137.4940 C   0  0  1  0  0  3  0  0  0  0  0  0
  179.7980  178.9110  138.3550 O   0  0  0  0  0  1  0  0  0  0  0  0
  182.1110  179.0580  137.7020 C   0  0  0  0  0  2  0  0  0  0  0  0
  182.3770  179.2550  139.0840 O   0  0  0  0  0  0  0  0  0  0  0  0
  184.4760  180.2090  139.0570 O   0  0  0  0  0  0  0  0  0  0  0  0
  184.1210  178.5570  140.7180 C   0  0  0  0  0  1  0  0  0  0  0  0
  183.6750  179.3920  139.5740 C   0  0  0  0  0  0  0  0  0  0  0  0
  184.6950  173.0480  136.7630 C   0  0  0  0  0  2  0  0  0  0  0  0
  183.6580  171.9480  136.6430 C   0  0  0  0  0  2  0  0  0  0  0  0
  184.3060  170.6500  136.1910 C   0  0  0  0  0  2  0  0  0  0  0  0
  184.8480  170.8020  134.7800 C   0  0  0  0  0  2  0  0  0  0  0  0
  186.1820  170.0890  134.6350 C   0  0  0  0  0  2  0  0  0  0  0  0
  187.1780  172.3610  134.6040 C   0  0  0  0  0  3  0  0  0  0  0  0
  187.2690  171.0400  134.7950 N   0  0  0  0  0  0  0  0  0  0  0  0
  188.5390  170.7310  135.1020 C   0  0  0  0  0  3  0  0  0  0  0  0
  189.2860  171.8920  135.1210 C   0  0  0  0  0  3  0  0  0  0  0  0
  188.4220  172.9270  134.8070 C   0  0  0  0  0  3  0  0  0  0  0  0
  189.9170  177.8700  139.3550 C   0  0  0  0  0  2  0  0  0  0  0  0
  190.9370  177.7840  140.3100 O   0  0  0  0  0  0  0  0  0  0  0  0
  189.5370  176.5600  141.8270 C   0  0  0  0  0  0  0  0  0  0  0  0
  190.2810  177.8370  141.5450 C   0  0  1  0  0  3  0  0  0  0  0  0
  190.6120  178.1000  144.0100 C   0  0  0  0  0  2  0  0  0  0  0  0
  191.2940  178.1330  142.6490 C   0  0  0  0  0  2  0  0  0  0  0  0
  188.9750  175.9310  140.8890 O   0  0  0  0  0  0  0  0  0  0  0  0
  190.1150  176.6850  144.3050 C   0  0  2  0  0  3  0  0  0  0  0  0
  189.3490  176.1320  143.1800 N   0  0  0  0  0  2  0  0  0  0  0  0
  189.8860  177.5860  146.5910 C   0  0  1  0  0  3  0  0  0  0  0  0
  187.9010  176.8380  145.3200 C   0  0  1  0  0  3  0  0  0  0  0  0
  189.3490  176.6660  145.5620 N   0  0  1  0  0  0  0  0  0  0  0  0
  188.8510  177.9050  147.6300 C   0  0  0  0  0  0  0  0  0  0  0  0
  187.2000  176.5520  146.5130 O   0  0  0  0  0  0  0  0  0  0  0  0
  189.1340  178.6400  148.6120 O   0  0  0  0  0  0  0  0  0  0  0  0
  187.5330  177.4810  147.4380 O   0  0  0  0  0  0  0  0  0  0  0  0
  191.1110  176.9680  147.2620 C   0  0  0  0  0  1  0  0  0  0  0  0
  187.5160  178.2070  144.7020 C   0  0  1  0  0  3  0  0  0  0  0  0
  186.9320  177.9990  143.3160 C   0  0  0  0  0  1  0  0  0  0  0  0
  186.4890  178.9570  145.5470 C   0  0  0  0  0  2  0  0  0  0  0  0
  185.0710  178.6680  145.0730 C   0  0  0  0  0  3  0  0  0  0  0  0
  184.4850  179.8930  144.3980 C   0  0  0  0  0  1  0  0  0  0  0  0
  184.2110  178.3120  146.2710 C   0  0  0  0  0  1  0  0  0  0  0  0
  1  5  1  0  0  0  0
  2  3  2  0  0  0  0
  3  8  1  0  0  0  0
  5  8  2  0  0  0  0
  6  4  1  0  0  0  0
  7  2  1  0  0  0  0
  7  1  2  0  0  0  0
  8 37  1  0  0  0  0
  9  6  1  0  0  0  0
  9  3  1  0  0  0  0
  9  4  1  0  0  0  0
 10 11  1  0  0  0  0
 10  2  1  0  0  0  0
 11 13  1  1  0  0  0
 11  9  1  0  0  0  0
 13 12  3  0  0  0  0
 14 12  1  1  0  0  0
 14 15  1  0  0  0  0
 14 27  1  0  0  0  0
 16 17  1  0  0  0  0
 16 15  1  0  0  0  0
 17 19  1  0  0  0  0
 19 18  1  6  0  0  0
 20 19  1  0  0  0  0
 20 22  1  0  0  0  0
 20 21  1  1  0  0  0
 22 23  1  0  0  0  0
 23 26  1  0  0  0  0
 24 26  2  0  0  0  0
 26 25  1  0  0  0  0
 28 27  1  0  0  0  0
 29 28  1  0  0  0  0
 30 29  1  0  0  0  0
 31 30  1  0  0  0  0
 31 33  1  0  0  0  0
 32 33  1  0  0  0  0
 32 36  2  0  0  0  0
 33 34  1  0  0  0  0
 34 35  2  0  0  0  0
 36 35  1  0  0  0  0
 37 38  1  0  0  0  0
 39 45  1  0  0  0  0
 40 38  1  6  0  0  0
 40 39  1  0  0  0  0
 40 42  1  0  0  0  0
 42 41  1  0  0  0  0
 43 39  2  0  0  0  0
 44 41  1  6  0  0  0
 45 44  1  0  0  0  0
 46 53  1  1  0  0  0
 46 49  1  0  0  0  0
 47 54  1  1  0  0  0
 47 48  1  0  0  0  0
 47 50  1  0  0  0  0
 48 44  1  6  0  0  0
 48 46  1  0  0  0  0
 49 51  2  0  0  0  0
 50 52  1  0  0  0  0
 52 49  1  0  0  0  0
 54 55  1  6  0  0  0
 54 56  1  0  0  0  0
 57 56  1  0  0  0  0
 57 59  1  0  0  0  0
 58 57  1  0  0  0  0
M  END
>  <MODEL>
3

>  <REMARK>
 VINA RESULT:      -5.0      1.972      3.067
  Name = 
  23 active torsions:
  status: ('A' for Active; 'I' for Inactive)
    1  A    between atoms: C_3  and  C_30
    2  A    between atoms: C_3  and  C_40
    3  A    between atoms: C_6  and  C_26
    4  A    between atoms: C_6  and  O_46
    5  A    between atoms: C_8  and  C_40
    6  A    between atoms: C_8  and  C_42
    7  A    between atoms: C_9  and  O_46
    8  A    between atoms: C_14  and  C_22
    9  A    between atoms: C_15  and  C_27
   10  A    between atoms: C_15  and  O_49
   11  A    between atoms: N_16  and  C_31
   12  A    between atoms: C_22  and  C_47
   13  A    between atoms: C_25  and  C_47
   14  A    between atoms: C_27  and  C_53
   15  A    between atoms: C_30  and  N_33
   16  A    between atoms: C_35  and  C_36
   17  A    between atoms: C_35  and  C_41
   18  A    between atoms: C_36  and  C_53
   19  A    between atoms: C_41  and  C_44
   20  A    between atoms: C_42  and  C_44
   21  A    between atoms: C_44  and  C_50
   22  A    between atoms: C_45  and  C_51
   23  A    between atoms: O_49  and  C_57
                            x       y       z     vdW  Elec       q    Type
                         _______ _______ _______ _____ _____    ______ ____

>  <TORSDO>
F 23

$$$$
=
 OpenBabel11032421063D

 59 64  0  0  1  0  0  0  0  0999 V2000
  190.8940  176.6780  144.9750 C   0  0  0  0  0  3  0  0  0  0  0  0
  191.1540  177.2590  142.6630 C   0  0  0  0  0  0  0  0  0  0  0  0
  189.7950  177.1810  142.4760 C   0  0  0  0  0  0  0  0  0  0  0  0
  188.2410  177.3240  140.3120 C   0  0  0  0  0  2  0  0  0  0  0  0
  189.5010  176.6050  144.7920 C   0  0  0  0  0  3  0  0  0  0  0  0
  188.6060  178.6840  140.8830 C   0  0  0  0  0  2  0  0  0  0  0  0
  191.7350  177.0080  143.9040 C   0  0  0  0  0  3  0  0  0  0  0  0
  188.9290  176.8450  143.5270 C   0  0  0  0  0  0  0  0  0  0  0  0
  189.5470  177.5150  141.0510 C   0  0  0  0  0  0  0  0  0  0  0  0
  191.8600  177.6250  141.4830 N   0  0  0  0  0  2  0  0  0  0  0  0
  190.8990  177.7840  140.3880 C   0  0  1  0  0  3  0  0  0  0  0  0
  191.4270  175.9530  138.5150 C   0  0  0  0  0  0  0  0  0  0  0  0
  191.1800  176.7820  139.3540 C   0  0  0  0  0  0  0  0  0  0  0  0
  191.7450  174.9360  137.5060 C   0  0  2  0  0  3  0  0  0  0  0  0
  192.4590  175.5450  136.2980 C   0  0  0  0  0  2  0  0  0  0  0  0
  193.7970  174.8710  136.0150 C   0  0  0  0  0  2  0  0  0  0  0  0
  194.6480  174.8300  137.2790 C   0  0  0  0  0  2  0  0  0  0  0  0
  195.2490  172.6720  136.3690 O   0  0  0  0  0  1  0  0  0  0  0  0
  195.5780  173.6120  137.3490 C   0  0  1  0  0  3  0  0  0  0  0  0
  197.0750  173.9430  137.2990 C   0  0  1  0  0  3  0  0  0  0  0  0
  197.5440  174.4280  138.5220 O   0  0  0  0  0  1  0  0  0  0  0  0
  197.9240  172.7740  136.8130 C   0  0  0  0  0  2  0  0  0  0  0  0
  197.5590  171.5690  137.4710 O   0  0  0  0  0  0  0  0  0  0  0  0
  198.6440  169.6410  138.1220 O   0  0  0  0  0  0  0  0  0  0  0  0
  198.3330  169.9060  135.7880 C   0  0  0  0  0  1  0  0  0  0  0  0
  198.1890  170.3560  137.1960 C   0  0  0  0  0  0  0  0  0  0  0  0
  190.4960  174.1720  137.0920 C   0  0  0  0  0  2  0  0  0  0  0  0
  190.2930  174.2700  135.5920 C   0  0  0  0  0  2  0  0  0  0  0  0
  189.4730  175.5020  135.2430 C   0  0  0  0  0  2  0  0  0  0  0  0
  187.9910  175.1890  135.3560 C   0  0  0  0  0  2  0  0  0  0  0  0
  187.1560  176.3360  134.8120 C   0  0  0  0  0  2  0  0  0  0  0  0
  185.9050  176.2970  136.9530 C   0  0  0  0  0  3  0  0  0  0  0  0
  185.9730  176.5190  135.6360 N   0  0  0  0  0  0  0  0  0  0  0  0
  184.7590  176.8830  135.1920 C   0  0  0  0  0  3  0  0  0  0  0  0
  183.8850  176.9080  136.2600 C   0  0  0  0  0  3  0  0  0  0  0  0
  184.6120  176.5370  137.3790 C   0  0  0  0  0  3  0  0  0  0  0  0
  187.4380  176.8690  143.3420 C   0  0  0  0  0  2  0  0  0  0  0  0
  186.9100  178.1530  143.5170 O   0  0  0  0  0  0  0  0  0  0  0  0
  184.8180  179.3270  143.4410 C   0  0  0  0  0  0  0  0  0  0  0  0
  185.5450  178.0260  143.2340 C   0  0  1  0  0  3  0  0  0  0  0  0
  183.8850  177.4700  141.4500 C   0  0  0  0  0  2  0  0  0  0  0  0
  185.3650  177.5220  141.8040 C   0  0  0  0  0  2  0  0  0  0  0  0
  185.1560  180.1030  144.3770 O   0  0  0  0  0  0  0  0  0  0  0  0
  183.3040  178.8830  141.4420 C   0  0  2  0  0  3  0  0  0  0  0  0
  183.6550  179.6220  142.6620 N   0  0  0  0  0  2  0  0  0  0  0  0
  181.1000  179.8350  142.0130 C   0  0  1  0  0  3  0  0  0  0  0  0
  181.5200  178.8630  139.7780 C   0  0  1  0  0  3  0  0  0  0  0  0
  181.8510  178.8350  141.2180 N   0  0  1  0  0  0  0  0  0  0  0  0
  179.7440  180.0920  141.4250 C   0  0  0  0  0  0  0  0  0  0  0  0
  180.1510  178.5540  139.6150 O   0  0  0  0  0  0  0  0  0  0  0  0
  178.9410  180.8820  141.9860 O   0  0  0  0  0  0  0  0  0  0  0  0
  179.4200  179.5400  140.1820 O   0  0  0  0  0  0  0  0  0  0  0  0
  180.9510  179.3580  143.4560 C   0  0  0  0  0  1  0  0  0  0  0  0
  181.9370  180.1690  139.0530 C   0  0  1  0  0  3  0  0  0  0  0  0
  183.4310  180.1490  138.7800 C   0  0  0  0  0  1  0  0  0  0  0  0
  181.2100  180.3530  137.7230 C   0  0  0  0  0  2  0  0  0  0  0  0
  181.3210  181.7910  137.2310 C   0  0  0  0  0  3  0  0  0  0  0  0
  180.8710  182.7500  138.3160 C   0  0  0  0  0  1  0  0  0  0  0  0
  180.4260  181.9690  136.0200 C   0  0  0  0  0  1  0  0  0  0  0  0
  2  7  1  0  0  0  0
  3  2  2  0  0  0  0
  3  8  1  0  0  0  0
  4  6  1  0  0  0  0
  4  9  1  0  0  0  0
  5  1  1  0  0  0  0
  6  9  1  0  0  0  0
  7  1  2  0  0  0  0
  8  5  2  0  0  0  0
  9  3  1  0  0  0  0
 10  2  1  0  0  0  0
 11 13  1  6  0  0  0
 11  9  1  0  0  0  0
 11 10  1  0  0  0  0
 12 13  3  0  0  0  0
 14 15  1  6  0  0  0
 14 12  1  0  0  0  0
 16 15  1  0  0  0  0
 16 17  1  0  0  0  0
 17 19  1  0  0  0  0
 19 18  1  6  0  0  0
 20 19  1  0  0  0  0
 20 21  1  1  0  0  0
 22 20  1  0  0  0  0
 22 23  1  0  0  0  0
 25 26  1  0  0  0  0
 26 23  1  0  0  0  0
 26 24  2  0  0  0  0
 27 14  1  0  0  0  0
 28 27  1  0  0  0  0
 29 30  1  0  0  0  0
 29 28  1  0  0  0  0
 31 30  1  0  0  0  0
 31 33  1  0  0  0  0
 32 36  2  0  0  0  0
 33 32  1  0  0  0  0
 34 33  1  0  0  0  0
 34 35  2  0  0  0  0
 35 36  1  0  0  0  0
 37 38  1  0  0  0  0
 37  8  1  0  0  0  0
 39 43  2  0  0  0  0
 40 39  1  0  0  0  0
 40 38  1  6  0  0  0
 41 42  1  0  0  0  0
 42 40  1  0  0  0  0
 44 41  1  1  0  0  0
 44 45  1  0  0  0  0
 45 39  1  0  0  0  0
 46 53  1  1  0  0  0
 47 54  1  1  0  0  0
 47 48  1  0  0  0  0
 48 44  1  6  0  0  0
 48 46  1  0  0  0  0
 49 51  2  0  0  0  0
 49 46  1  0  0  0  0
 50 47  1  0  0  0  0
 50 52  1  0  0  0  0
 52 49  1  0  0  0  0
 54 55  1  6  0  0  0
 56 54  1  0  0  0  0
 57 56  1  0  0  0  0
 57 58  1  0  0  0  0
 59 57  1  0  0  0  0
M  END
>  <MODEL>
4

>  <REMARK>
 VINA RESULT:      -4.8      3.826     10.465
  Name = 
  23 active torsions:
  status: ('A' for Active; 'I' for Inactive)
    1  A    between atoms: C_3  and  C_30
    2  A    between atoms: C_3  and  C_40
    3  A    between atoms: C_6  and  C_26
    4  A    between atoms: C_6  and  O_46
    5  A    between atoms: C_8  and  C_40
    6  A    between atoms: C_8  and  C_42
    7  A    between atoms: C_9  and  O_46
    8  A    between atoms: C_14  and  C_22
    9  A    between atoms: C_15  and  C_27
   10  A    between atoms: C_15  and  O_49
   11  A    between atoms: N_16  and  C_31
   12  A    between atoms: C_22  and  C_47
   13  A    between atoms: C_25  and  C_47
   14  A    between atoms: C_27  and  C_53
   15  A    between atoms: C_30  and  N_33
   16  A    between atoms: C_35  and  C_36
   17  A    between atoms: C_35  and  C_41
   18  A    between atoms: C_36  and  C_53
   19  A    between atoms: C_41  and  C_44
   20  A    between atoms: C_42  and  C_44
   21  A    between atoms: C_44  and  C_50
   22  A    between atoms: C_45  and  C_51
   23  A    between atoms: O_49  and  C_57
                            x       y       z     vdW  Elec       q    Type
                         _______ _______ _______ _____ _____    ______ ____

>  <TORSDO>
F 23

$$$$
=
 OpenBabel11032421063D

 59 64  0  0  1  0  0  0  0  0999 V2000
  190.8700  176.4990  144.9590 C   0  0  0  0  0  3  0  0  0  0  0  0
  191.1880  177.2650  142.7090 C   0  0  0  0  0  0  0  0  0  0  0  0
  189.8440  177.1310  142.4580 C   0  0  0  0  0  0  0  0  0  0  0  0
  188.3700  177.3550  140.2460 C   0  0  0  0  0  2  0  0  0  0  0  0
  189.4910  176.3690  144.7110 C   0  0  0  0  0  3  0  0  0  0  0  0
  188.6370  178.6860  140.9290 C   0  0  0  0  0  2  0  0  0  0  0  0
  191.7320  176.9520  143.9520 C   0  0  0  0  0  3  0  0  0  0  0  0
  188.9560  176.6740  143.4430 C   0  0  0  0  0  0  0  0  0  0  0  0
  189.6330  177.5580  141.0520 C   0  0  0  0  0  0  0  0  0  0  0  0
  191.9190  177.7540  141.5900 N   0  0  0  0  0  2  0  0  0  0  0  0
  190.9940  177.9450  140.4690 C   0  0  1  0  0  3  0  0  0  0  0  0
  191.6950  176.2890  138.4920 C   0  0  0  0  0  0  0  0  0  0  0  0
  191.3690  177.0380  139.3780 C   0  0  0  0  0  0  0  0  0  0  0  0
  192.1080  175.3710  137.4240 C   0  0  2  0  0  3  0  0  0  0  0  0
  192.8690  176.1020  136.3160 C   0  0  0  0  0  2  0  0  0  0  0  0
  194.0990  175.3310  135.8520 C   0  0  0  0  0  2  0  0  0  0  0  0
  195.0430  175.0840  137.0230 C   0  0  0  0  0  2  0  0  0  0  0  0
  197.3540  174.6960  136.4260 O   0  0  0  0  0  1  0  0  0  0  0  0
  196.1430  174.0610  136.7140 C   0  0  1  0  0  3  0  0  0  0  0  0
  196.3400  172.9850  137.7890 C   0  0  1  0  0  3  0  0  0  0  0  0
  196.7640  173.5300  139.0030 O   0  0  0  0  0  1  0  0  0  0  0  0
  195.1080  172.1100  137.9850 C   0  0  0  0  0  2  0  0  0  0  0  0
  195.1140  171.0100  137.0850 O   0  0  0  0  0  0  0  0  0  0  0  0
  193.8660  169.6510  135.7030 O   0  0  0  0  0  0  0  0  0  0  0  0
  193.2230  171.9300  135.7540 C   0  0  0  0  0  1  0  0  0  0  0  0
  194.0790  170.7940  136.1760 C   0  0  0  0  0  0  0  0  0  0  0  0
  190.9160  174.6040  136.8740 C   0  0  0  0  0  2  0  0  0  0  0  0
  189.9720  175.5470  136.1530 C   0  0  0  0  0  2  0  0  0  0  0  0
  188.7800  175.8880  137.0320 C   0  0  0  0  0  2  0  0  0  0  0  0
  187.5580  175.1080  136.5770 C   0  0  0  0  0  2  0  0  0  0  0  0
  187.8160  174.4360  135.2390 C   0  0  0  0  0  2  0  0  0  0  0  0
  186.2130  172.5670  135.5350 C   0  0  0  0  0  3  0  0  0  0  0  0
  187.4470  173.0330  135.3130 N   0  0  0  0  0  0  0  0  0  0  0  0
  188.2940  171.9950  135.2250 C   0  0  0  0  0  3  0  0  0  0  0  0
  187.5810  170.8240  135.3850 C   0  0  0  0  0  3  0  0  0  0  0  0
  186.2590  171.1860  135.5800 C   0  0  0  0  0  3  0  0  0  0  0  0
  187.4750  176.6340  143.1970 C   0  0  0  0  0  2  0  0  0  0  0  0
  186.8320  177.7720  143.6970 O   0  0  0  0  0  0  0  0  0  0  0  0
  184.6280  178.6970  143.9130 C   0  0  0  0  0  0  0  0  0  0  0  0
  185.5020  177.6520  143.2750 C   0  0  1  0  0  3  0  0  0  0  0  0
  183.9900  177.7090  141.2850 C   0  0  0  0  0  2  0  0  0  0  0  0
  185.4390  177.7420  141.7520 C   0  0  0  0  0  2  0  0  0  0  0  0
  184.8380  179.0640  145.1020 O   0  0  0  0  0  0  0  0  0  0  0  0
  183.2570  178.9550  141.7810 C   0  0  2  0  0  3  0  0  0  0  0  0
  183.4720  179.1760  143.2170 N   0  0  0  0  0  2  0  0  0  0  0  0
  181.0440  180.0390  141.9140 C   0  0  1  0  0  3  0  0  0  0  0  0
  181.6280  178.5810  140.0030 C   0  0  1  0  0  3  0  0  0  0  0  0
  181.8280  178.8760  141.4380 N   0  0  1  0  0  0  0  0  0  0  0  0
  179.7540  180.1720  141.1580 C   0  0  0  0  0  0  0  0  0  0  0  0
  180.2700  178.2600  139.7860 O   0  0  0  0  0  0  0  0  0  0  0  0
  178.9310  181.0790  141.4500 O   0  0  0  0  0  0  0  0  0  0  0  0
  179.5240  179.3570  140.0460 O   0  0  0  0  0  0  0  0  0  0  0  0
  180.7510  179.9020  143.4070 C   0  0  0  0  0  1  0  0  0  0  0  0
  182.1520  179.6830  139.0470 C   0  0  1  0  0  3  0  0  0  0  0  0
  183.6180  179.9560  139.3330 C   0  0  0  0  0  1  0  0  0  0  0  0
  182.0150  179.2910  137.5780 C   0  0  0  0  0  2  0  0  0  0  0  0
  181.1160  180.2660  136.8300 C   0  0  0  0  0  3  0  0  0  0  0  0
  180.8220  181.4760  137.6960 C   0  0  0  0  0  1  0  0  0  0  0  0
  179.8070  179.5760  136.4960 C   0  0  0  0  0  1  0  0  0  0  0  0
  2  7  1  0  0  0  0
  3  2  2  0  0  0  0
  3  8  1  0  0  0  0
  4  6  1  0  0  0  0
  4  9  1  0  0  0  0
  5  1  1  0  0  0  0
  6  9  1  0  0  0  0
  7  1  2  0  0  0  0
  8  5  2  0  0  0  0
  9  3  1  0  0  0  0
 10  2  1  0  0  0  0
 11 13  1  6  0  0  0
 11  9  1  0  0  0  0
 11 10  1  0  0  0  0
 12 13  3  0  0  0  0
 14 15  1  6  0  0  0
 14 12  1  0  0  0  0
 16 15  1  0  0  0  0
 16 17  1  0  0  0  0
 19 18  1  1  0  0  0
 19 17  1  0  0  0  0
 19 20  1  0  0  0  0
 20 22  1  0  0  0  0
 20 21  1  1  0  0  0
 23 22  1  0  0  0  0
 24 26  2  0  0  0  0
 25 26  1  0  0  0  0
 26 23  1  0  0  0  0
 27 14  1  0  0  0  0
 28 27  1  0  0  0  0
 28 29  1  0  0  0  0
 30 29  1  0  0  0  0
 31 33  1  0  0  0  0
 31 30  1  0  0  0  0
 32 36  2  0  0  0  0
 33 32  1  0  0  0  0
 34 33  1  0  0  0  0
 34 35  2  0  0  0  0
 35 36  1  0  0  0  0
 37  8  1  0  0  0  0
 37 38  1  0  0  0  0
 39 43  2  0  0  0  0
 40 38  1  1  0  0  0
 40 39  1  0  0  0  0
 41 42  1  0  0  0  0
 42 40  1  0  0  0  0
 44 41  1  1  0  0  0
 44 45  1  0  0  0  0
 45 39  1  0  0  0  0
 46 53  1  1  0  0  0
 47 54  1  6  0  0  0
 47 48  1  0  0  0  0
 48 44  1  6  0  0  0
 48 46  1  0  0  0  0
 49 51  2  0  0  0  0
 49 46  1  0  0  0  0
 50 47  1  0  0  0  0
 50 52  1  0  0  0  0
 52 49  1  0  0  0  0
 54 55  1  1  0  0  0
 56 54  1  0  0  0  0
 57 56  1  0  0  0  0
 57 58  1  0  0  0  0
 59 57  1  0  0  0  0
M  END
>  <MODEL>
5

>  <REMARK>
 VINA RESULT:      -4.7      3.354      9.915
  Name = 
  23 active torsions:
  status: ('A' for Active; 'I' for Inactive)
    1  A    between atoms: C_3  and  C_30
    2  A    between atoms: C_3  and  C_40
    3  A    between atoms: C_6  and  C_26
    4  A    between atoms: C_6  and  O_46
    5  A    between atoms: C_8  and  C_40
    6  A    between atoms: C_8  and  C_42
    7  A    between atoms: C_9  and  O_46
    8  A    between atoms: C_14  and  C_22
    9  A    between atoms: C_15  and  C_27
   10  A    between atoms: C_15  and  O_49
   11  A    between atoms: N_16  and  C_31
   12  A    between atoms: C_22  and  C_47
   13  A    between atoms: C_25  and  C_47
   14  A    between atoms: C_27  and  C_53
   15  A    between atoms: C_30  and  N_33
   16  A    between atoms: C_35  and  C_36
   17  A    between atoms: C_35  and  C_41
   18  A    between atoms: C_36  and  C_53
   19  A    between atoms: C_41  and  C_44
   20  A    between atoms: C_42  and  C_44
   21  A    between atoms: C_44  and  C_50
   22  A    between atoms: C_45  and  C_51
   23  A    between atoms: O_49  and  C_57
                            x       y       z     vdW  Elec       q    Type
                         _______ _______ _______ _____ _____    ______ ____

>  <TORSDO>
F 23

$$$$
=
 OpenBabel11032421063D

 59 64  0  0  1  0  0  0  0  0999 V2000
  190.7170  176.6880  136.8070 C   0  0  0  0  0  3  0  0  0  0  0  0
  188.5390  177.6910  136.7490 C   0  0  0  0  0  0  0  0  0  0  0  0
  188.3830  177.4650  138.0950 C   0  0  0  0  0  0  0  0  0  0  0  0
  186.3280  177.7690  139.7690 C   0  0  0  0  0  2  0  0  0  0  0  0
  190.5660  176.4620  138.1880 C   0  0  0  0  0  3  0  0  0  0  0  0
  187.1210  179.0460  139.5500 C   0  0  0  0  0  2  0  0  0  0  0  0
  189.6960  177.3100  136.0750 C   0  0  0  0  0  3  0  0  0  0  0  0
  189.3820  176.8380  138.8530 C   0  0  0  0  0  0  0  0  0  0  0  0
  187.0480  178.0030  138.4600 C   0  0  0  0  0  0  0  0  0  0  0  0
  187.4220  178.3470  136.1600 N   0  0  0  0  0  2  0  0  0  0  0  0
  186.4030  178.5630  137.1910 C   0  0  1  0  0  3  0  0  0  0  0  0
  184.2210  177.1600  136.5480 C   0  0  0  0  0  0  0  0  0  0  0  0
  185.1990  177.8010  136.8410 C   0  0  0  0  0  0  0  0  0  0  0  0
  183.0430  176.3620  136.1870 C   0  0  2  0  0  3  0  0  0  0  0  0
  181.8520  177.2500  135.8240 C   0  0  0  0  0  2  0  0  0  0  0  0
  181.1120  177.7610  137.0550 C   0  0  0  0  0  2  0  0  0  0  0  0
  180.3440  179.0350  136.7200 C   0  0  0  0  0  2  0  0  0  0  0  0
  182.1050  180.1120  137.9800 O   0  0  0  0  0  1  0  0  0  0  0  0
  180.7810  180.2470  137.5540 C   0  0  1  0  0  3  0  0  0  0  0  0
  180.5690  181.6050  136.8740 C   0  0  1  0  0  3  0  0  0  0  0  0
  180.2250  181.4680  135.5270 O   0  0  0  0  0  1  0  0  0  0  0  0
  179.5610  182.4830  137.6060 C   0  0  0  0  0  2  0  0  0  0  0  0
  180.0770  183.7920  137.8090 O   0  0  0  0  0  0  0  0  0  0  0  0
  182.3110  184.2730  137.5010 O   0  0  0  0  0  0  0  0  0  0  0  0
  180.8780  184.8640  135.7090 C   0  0  0  0  0  1  0  0  0  0  0  0
  181.1380  184.2920  137.0550 C   0  0  0  0  0  0  0  0  0  0  0  0
  182.6930  175.3790  137.2930 C   0  0  0  0  0  2  0  0  0  0  0  0
  181.6420  174.3980  136.8110 C   0  0  0  0  0  2  0  0  0  0  0  0
  182.1790  172.9770  136.8470 C   0  0  0  0  0  2  0  0  0  0  0  0
  183.4860  172.8950  136.0760 C   0  0  0  0  0  2  0  0  0  0  0  0
  184.6170  172.4370  136.9810 C   0  0  0  0  0  2  0  0  0  0  0  0
  187.0000  173.0510  137.2970 C   0  0  0  0  0  3  0  0  0  0  0  0
  185.8410  173.1420  136.6360 N   0  0  0  0  0  0  0  0  0  0  0  0
  185.9760  174.0310  135.6390 C   0  0  0  0  0  3  0  0  0  0  0  0
  187.2680  174.5180  135.6510 C   0  0  0  0  0  3  0  0  0  0  0  0
  187.9190  173.8960  136.7030 C   0  0  0  0  0  3  0  0  0  0  0  0
  189.2510  176.6930  140.3430 C   0  0  0  0  0  2  0  0  0  0  0  0
  190.4690  176.3600  140.9450 O   0  0  0  0  0  0  0  0  0  0  0  0
  190.7160  177.9160  142.7550 C   0  0  0  0  0  0  0  0  0  0  0  0
  190.2600  176.5510  142.3160 C   0  0  1  0  0  3  0  0  0  0  0  0
  188.5240  176.6360  144.1130 C   0  0  0  0  0  2  0  0  0  0  0  0
  188.7840  176.3370  142.6430 C   0  0  0  0  0  2  0  0  0  0  0  0
  191.7380  178.4430  142.2360 O   0  0  0  0  0  0  0  0  0  0  0  0
  188.7760  178.1170  144.3930 C   0  0  2  0  0  3  0  0  0  0  0  0
  190.0710  178.5580  143.8590 N   0  0  0  0  0  2  0  0  0  0  0  0
  187.5020  177.6900  146.4640 C   0  0  1  0  0  3  0  0  0  0  0  0
  189.9230  178.1890  146.5450 C   0  0  1  0  0  3  0  0  0  0  0  0
  188.6440  178.3920  145.8330 N   0  0  1  0  0  0  0  0  0  0  0  0
  187.6770  177.5930  147.9510 C   0  0  0  0  0  0  0  0  0  0  0  0
  189.8090  178.7130  147.8530 O   0  0  0  0  0  0  0  0  0  0  0  0
  186.7870  177.0660  148.6680 O   0  0  0  0  0  0  0  0  0  0  0  0
  188.8900  177.9830  148.5260 O   0  0  0  0  0  0  0  0  0  0  0  0
  186.1970  178.4170  146.1480 C   0  0  0  0  0  1  0  0  0  0  0  0
  190.4420  176.7280  146.5200 C   0  0  1  0  0  3  0  0  0  0  0  0
  191.6630  176.6330  145.6220 C   0  0  0  0  0  1  0  0  0  0  0  0
  190.8290  176.2240  147.9090 C   0  0  0  0  0  2  0  0  0  0  0  0
  192.3410  176.2300  148.0940 C   0  0  0  0  0  3  0  0  0  0  0  0
  192.8130  174.8710  148.5760 C   0  0  0  0  0  1  0  0  0  0  0  0
  192.7080  177.2710  149.1330 C   0  0  0  0  0  1  0  0  0  0  0  0
  1  5  1  0  0  0  0
  2  3  2  0  0  0  0
  3  9  1  0  0  0  0
  3  8  1  0  0  0  0
  5  8  2  0  0  0  0
  6  4  1  0  0  0  0
  7  2  1  0  0  0  0
  7  1  2  0  0  0  0
  8 37  1  0  0  0  0
  9  6  1  0  0  0  0
  9  4  1  0  0  0  0
 10  2  1  0  0  0  0
 10 11  1  0  0  0  0
 11 13  1  6  0  0  0
 11  9  1  0  0  0  0
 12 13  3  0  0  0  0
 14 15  1  1  0  0  0
 14 12  1  0  0  0  0
 14 27  1  0  0  0  0
 15 16  1  0  0  0  0
 17 16  1  0  0  0  0
 17 19  1  0  0  0  0
 19 18  1  6  0  0  0
 20 21  1  6  0  0  0
 20 19  1  0  0  0  0
 20 22  1  0  0  0  0
 22 23  1  0  0  0  0
 25 26  1  0  0  0  0
 26 24  2  0  0  0  0
 26 23  1  0  0  0  0
 28 29  1  0  0  0  0
 28 27  1  0  0  0  0
 30 29  1  0  0  0  0
 30 31  1  0  0  0  0
 33 31  1  0  0  0  0
 33 32  1  0  0  0  0
 34 35  2  0  0  0  0
 34 33  1  0  0  0  0
 35 36  1  0  0  0  0
 36 32  2  0  0  0  0
 37 38  1  0  0  0  0
 39 45  1  0  0  0  0
 40 38  1  6  0  0  0
 40 42  1  0  0  0  0
 40 39  1  0  0  0  0
 42 41  1  0  0  0  0
 43 39  2  0  0  0  0
 44 41  1  1  0  0  0
 45 44  1  0  0  0  0
 46 53  1  1  0  0  0
 46 49  1  0  0  0  0
 47 54  1  1  0  0  0
 47 50  1  0  0  0  0
 48 44  1  6  0  0  0
 48 46  1  0  0  0  0
 48 47  1  0  0  0  0
 49 52  1  0  0  0  0
 49 51  2  0  0  0  0
 50 52  1  0  0  0  0
 54 55  1  6  0  0  0
 54 56  1  0  0  0  0
 56 57  1  0  0  0  0
 57 58  1  0  0  0  0
 57 59  1  0  0  0  0
M  END
>  <MODEL>
6

>  <REMARK>
 VINA RESULT:      -4.3      2.308      4.227
  Name = 
  23 active torsions:
  status: ('A' for Active; 'I' for Inactive)
    1  A    between atoms: C_3  and  C_30
    2  A    between atoms: C_3  and  C_40
    3  A    between atoms: C_6  and  C_26
    4  A    between atoms: C_6  and  O_46
    5  A    between atoms: C_8  and  C_40
    6  A    between atoms: C_8  and  C_42
    7  A    between atoms: C_9  and  O_46
    8  A    between atoms: C_14  and  C_22
    9  A    between atoms: C_15  and  C_27
   10  A    between atoms: C_15  and  O_49
   11  A    between atoms: N_16  and  C_31
   12  A    between atoms: C_22  and  C_47
   13  A    between atoms: C_25  and  C_47
   14  A    between atoms: C_27  and  C_53
   15  A    between atoms: C_30  and  N_33
   16  A    between atoms: C_35  and  C_36
   17  A    between atoms: C_35  and  C_41
   18  A    between atoms: C_36  and  C_53
   19  A    between atoms: C_41  and  C_44
   20  A    between atoms: C_42  and  C_44
   21  A    between atoms: C_44  and  C_50
   22  A    between atoms: C_45  and  C_51
   23  A    between atoms: O_49  and  C_57
                            x       y       z     vdW  Elec       q    Type
                         _______ _______ _______ _____ _____    ______ ____

>  <TORSDO>
F 23

$$$$
=
 OpenBabel11032421063D

 59 64  0  0  1  0  0  0  0  0999 V2000
  191.7520  175.9490  144.0470 C   0  0  0  0  0  3  0  0  0  0  0  0
  189.4190  176.1960  143.5500 C   0  0  0  0  0  0  0  0  0  0  0  0
  189.7090  177.1300  142.5850 C   0  0  0  0  0  0  0  0  0  0  0  0
  188.1920  178.7240  141.0750 C   0  0  0  0  0  2  0  0  0  0  0  0
  192.0550  176.8970  143.0530 C   0  0  0  0  0  3  0  0  0  0  0  0
  188.3510  177.3250  140.5040 C   0  0  0  0  0  2  0  0  0  0  0  0
  190.4220  175.5900  144.3020 C   0  0  0  0  0  3  0  0  0  0  0  0
  191.0290  177.5160  142.3110 C   0  0  0  0  0  0  0  0  0  0  0  0
  188.4100  177.5440  141.9970 C   0  0  0  0  0  0  0  0  0  0  0  0
  188.0260  175.9310  143.6700 N   0  0  0  0  0  2  0  0  0  0  0  0
  187.3000  176.7790  142.7200 C   0  0  1  0  0  3  0  0  0  0  0  0
  185.7330  178.4520  144.0930 C   0  0  0  0  0  0  0  0  0  0  0  0
  186.4340  177.7000  143.4640 C   0  0  0  0  0  0  0  0  0  0  0  0
  184.8920  179.3660  144.8750 C   0  0  2  0  0  3  0  0  0  0  0  0
  185.3820  179.4860  146.3190 C   0  0  0  0  0  2  0  0  0  0  0  0
  185.0870  178.2340  147.1370 C   0  0  0  0  0  2  0  0  0  0  0  0
  186.3620  177.4240  147.3460 C   0  0  0  0  0  2  0  0  0  0  0  0
  188.0060  178.6530  148.6240 O   0  0  0  0  0  1  0  0  0  0  0  0
  187.6350  178.2790  147.3300 C   0  0  1  0  0  3  0  0  0  0  0  0
  188.8220  177.6500  146.5890 C   0  0  1  0  0  3  0  0  0  0  0  0
  189.7110  178.6160  146.1100 O   0  0  0  0  0  1  0  0  0  0  0  0
  189.5520  176.6020  147.4190 C   0  0  0  0  0  2  0  0  0  0  0  0
  190.9120  176.9630  147.6160 O   0  0  0  0  0  0  0  0  0  0  0  0
  191.8850  174.8960  147.2970 O   0  0  0  0  0  0  0  0  0  0  0  0
  192.9770  176.3160  148.8480 C   0  0  0  0  0  1  0  0  0  0  0  0
  191.8990  176.0120  147.8730 C   0  0  0  0  0  0  0  0  0  0  0  0
  183.4310  178.9500  144.8110 C   0  0  0  0  0  2  0  0  0  0  0  0
  182.7690  179.5410  143.5810 C   0  0  0  0  0  2  0  0  0  0  0  0
  181.5960  178.6820  143.1390 C   0  0  0  0  0  2  0  0  0  0  0  0
  181.9500  177.9360  141.8640 C   0  0  0  0  0  2  0  0  0  0  0  0
  182.4970  178.8900  140.8150 C   0  0  0  0  0  2  0  0  0  0  0  0
  182.4650  177.0800  139.1190 C   0  0  0  0  0  3  0  0  0  0  0  0
  183.0450  178.1350  139.7000 N   0  0  0  0  0  0  0  0  0  0  0  0
  184.2390  178.3480  139.1240 C   0  0  0  0  0  3  0  0  0  0  0  0
  184.4270  177.4070  138.1320 C   0  0  0  0  0  3  0  0  0  0  0  0
  183.3010  176.6020  138.1280 C   0  0  0  0  0  3  0  0  0  0  0  0
  191.3460  178.4540  141.1820 C   0  0  0  0  0  2  0  0  0  0  0  0
  192.6230  178.2260  140.6560 O   0  0  0  0  0  0  0  0  0  0  0  0
  193.1010  176.3350  139.2570 C   0  0  0  0  0  0  0  0  0  0  0  0
  192.4000  177.6600  139.3950 C   0  0  1  0  0  3  0  0  0  0  0  0
  190.6430  176.8070  137.8350 C   0  0  0  0  0  2  0  0  0  0  0  0
  190.8990  177.5090  139.1610 C   0  0  0  0  0  2  0  0  0  0  0  0
  194.2280  176.1530  139.7940 O   0  0  0  0  0  0  0  0  0  0  0  0
  191.1740  175.3750  137.8960 C   0  0  2  0  0  3  0  0  0  0  0  0
  192.5530  175.3280  138.4020 N   0  0  0  0  0  2  0  0  0  0  0  0
  191.3970  173.2880  136.5980 C   0  0  1  0  0  3  0  0  0  0  0  0
  189.7220  174.9960  135.9720 C   0  0  1  0  0  3  0  0  0  0  0  0
  191.0410  174.7250  136.5820 N   0  0  1  0  0  0  0  0  0  0  0  0
  190.8050  172.5660  135.4230 C   0  0  0  0  0  0  0  0  0  0  0  0
  189.7460  174.5770  134.6230 O   0  0  0  0  0  0  0  0  0  0  0  0
  191.0330  171.3420  135.2410 O   0  0  0  0  0  0  0  0  0  0  0  0
  189.8980  173.2340  134.5950 O   0  0  0  0  0  0  0  0  0  0  0  0
  192.9150  173.1210  136.5900 C   0  0  0  0  0  1  0  0  0  0  0  0
  188.5220  174.4180  136.7670 C   0  0  1  0  0  3  0  0  0  0  0  0
  187.6460  175.5510  137.2710 C   0  0  0  0  0  1  0  0  0  0  0  0
  187.6590  173.4860  135.9190 C   0  0  0  0  0  2  0  0  0  0  0  0
  187.2600  172.2420  136.7020 C   0  0  0  0  0  3  0  0  0  0  0  0
  187.6730  170.9940  135.9460 C   0  0  0  0  0  1  0  0  0  0  0  0
  185.7540  172.2310  136.8780 C   0  0  0  0  0  1  0  0  0  0  0  0
  1  7  1  0  0  0  0
  2 10  1  0  0  0  0
  2  7  2  0  0  0  0
  3  2  1  0  0  0  0
  4  9  1  0  0  0  0
  5  1  2  0  0  0  0
  6  4  1  0  0  0  0
  6  9  1  0  0  0  0
  8  3  2  0  0  0  0
  8  5  1  0  0  0  0
  9  3  1  0  0  0  0
  9 11  1  0  0  0  0
 11 13  1  1  0  0  0
 11 10  1  0  0  0  0
 13 12  3  0  0  0  0
 14 12  1  6  0  0  0
 14 15  1  0  0  0  0
 15 16  1  0  0  0  0
 16 17  1  0  0  0  0
 19 17  1  0  0  0  0
 19 18  1  1  0  0  0
 20 21  1  1  0  0  0
 20 19  1  0  0  0  0
 20 22  1  0  0  0  0
 22 23  1  0  0  0  0
 23 26  1  0  0  0  0
 24 26  2  0  0  0  0
 26 25  1  0  0  0  0
 27 14  1  0  0  0  0
 28 27  1  0  0  0  0
 29 28  1  0  0  0  0
 30 29  1  0  0  0  0
 31 30  1  0  0  0  0
 32 33  1  0  0  0  0
 33 31  1  0  0  0  0
 34 33  1  0  0  0  0
 35 34  2  0  0  0  0
 36 35  1  0  0  0  0
 36 32  2  0  0  0  0
 37  8  1  0  0  0  0
 38 37  1  0  0  0  0
 39 40  1  0  0  0  0
 39 43  2  0  0  0  0
 40 38  1  1  0  0  0
 41 42  1  0  0  0  0
 42 40  1  0  0  0  0
 44 41  1  6  0  0  0
 44 45  1  0  0  0  0
 45 39  1  0  0  0  0
 46 53  1  6  0  0  0
 47 48  1  0  0  0  0
 47 54  1  1  0  0  0
 48 46  1  0  0  0  0
 48 44  1  1  0  0  0
 49 46  1  0  0  0  0
 50 47  1  0  0  0  0
 51 49  2  0  0  0  0
 52 50  1  0  0  0  0
 52 49  1  0  0  0  0
 54 55  1  6  0  0  0
 56 57  1  0  0  0  0
 56 54  1  0  0  0  0
 57 59  1  0  0  0  0
 58 57  1  0  0  0  0
M  END
>  <MODEL>
7

>  <REMARK>
 VINA RESULT:      -4.2      3.643      8.860
  Name = 
  23 active torsions:
  status: ('A' for Active; 'I' for Inactive)
    1  A    between atoms: C_3  and  C_30
    2  A    between atoms: C_3  and  C_40
    3  A    between atoms: C_6  and  C_26
    4  A    between atoms: C_6  and  O_46
    5  A    between atoms: C_8  and  C_40
    6  A    between atoms: C_8  and  C_42
    7  A    between atoms: C_9  and  O_46
    8  A    between atoms: C_14  and  C_22
    9  A    between atoms: C_15  and  C_27
   10  A    between atoms: C_15  and  O_49
   11  A    between atoms: N_16  and  C_31
   12  A    between atoms: C_22  and  C_47
   13  A    between atoms: C_25  and  C_47
   14  A    between atoms: C_27  and  C_53
   15  A    between atoms: C_30  and  N_33
   16  A    between atoms: C_35  and  C_36
   17  A    between atoms: C_35  and  C_41
   18  A    between atoms: C_36  and  C_53
   19  A    between atoms: C_41  and  C_44
   20  A    between atoms: C_42  and  C_44
   21  A    between atoms: C_44  and  C_50
   22  A    between atoms: C_45  and  C_51
   23  A    between atoms: O_49  and  C_57
                            x       y       z     vdW  Elec       q    Type
                         _______ _______ _______ _____ _____    ______ ____

>  <TORSDO>
F 23

$$$$
=
 OpenBabel11032421063D

 59 64  0  0  1  0  0  0  0  0999 V2000
  191.8170  176.4600  142.3530 C   0  0  0  0  0  3  0  0  0  0  0  0
  189.4690  176.3810  142.8380 C   0  0  0  0  0  0  0  0  0  0  0  0
  189.2180  177.2890  141.8370 C   0  0  0  0  0  0  0  0  0  0  0  0
  187.0200  178.5900  141.0660 C   0  0  0  0  0  2  0  0  0  0  0  0
  191.5640  177.3830  141.3210 C   0  0  0  0  0  3  0  0  0  0  0  0
  187.1300  177.1940  140.4790 C   0  0  0  0  0  2  0  0  0  0  0  0
  190.7620  175.9500  143.1220 C   0  0  0  0  0  3  0  0  0  0  0  0
  190.2520  177.8240  141.0560 C   0  0  0  0  0  0  0  0  0  0  0  0
  187.7480  177.5010  141.8220 C   0  0  0  0  0  0  0  0  0  0  0  0
  188.2910  175.9480  143.5080 N   0  0  0  0  0  2  0  0  0  0  0  0
  187.1360  176.6420  142.9300 C   0  0  1  0  0  3  0  0  0  0  0  0
  186.0100  178.1610  144.8190 C   0  0  0  0  0  0  0  0  0  0  0  0
  186.5200  177.4850  143.9610 C   0  0  0  0  0  0  0  0  0  0  0  0
  185.3880  178.9670  145.8760 C   0  0  2  0  0  3  0  0  0  0  0  0
  185.9060  178.5760  147.2610 C   0  0  0  0  0  2  0  0  0  0  0  0
  186.0810  177.0690  147.4110 C   0  0  0  0  0  2  0  0  0  0  0  0
  187.5270  176.7350  147.7600 C   0  0  0  0  0  2  0  0  0  0  0  0
  189.1540  178.2860  148.6490 O   0  0  0  0  0  1  0  0  0  0  0  0
  188.5020  177.8850  147.4800 C   0  0  1  0  0  3  0  0  0  0  0  0
  189.5160  177.6110  146.3630 C   0  0  1  0  0  3  0  0  0  0  0  0
  189.3730  178.5020  145.2960 O   0  0  0  0  0  1  0  0  0  0  0  0
  190.9560  177.5840  146.8610 C   0  0  0  0  0  2  0  0  0  0  0  0
  191.2040  176.4230  147.6420 O   0  0  0  0  0  0  0  0  0  0  0  0
  193.2450  175.3540  147.7440 O   0  0  0  0  0  0  0  0  0  0  0  0
  192.8160  176.9140  149.4750 C   0  0  0  0  0  1  0  0  0  0  0  0
  192.4430  176.1850  148.2370 C   0  0  0  0  0  0  0  0  0  0  0  0
  183.8710  178.8850  145.8010 C   0  0  0  0  0  2  0  0  0  0  0  0
  183.4100  178.9990  144.3610 C   0  0  0  0  0  2  0  0  0  0  0  0
  181.9040  178.8150  144.2650 C   0  0  0  0  0  2  0  0  0  0  0  0
  181.3900  179.4050  142.9630 C   0  0  0  0  0  2  0  0  0  0  0  0
  181.1370  178.3120  141.9380 C   0  0  0  0  0  2  0  0  0  0  0  0
  182.3810  178.0430  139.8100 C   0  0  0  0  0  3  0  0  0  0  0  0
  181.5940  178.7480  140.6300 N   0  0  0  0  0  0  0  0  0  0  0  0
  181.3430  179.9420  140.0710 C   0  0  0  0  0  3  0  0  0  0  0  0
  181.9780  180.0030  138.8480 C   0  0  0  0  0  3  0  0  0  0  0  0
  182.6370  178.7970  138.6800 C   0  0  0  0  0  3  0  0  0  0  0  0
  189.9590  178.7310  139.8950 C   0  0  0  0  0  2  0  0  0  0  0  0
  190.5590  178.2790  138.7140 O   0  0  0  0  0  0  0  0  0  0  0  0
  189.0800  177.9370  136.8550 C   0  0  0  0  0  0  0  0  0  0  0  0
  189.6300  177.3980  138.1480 C   0  0  1  0  0  3  0  0  0  0  0  0
  189.3110  175.0930  137.2350 C   0  0  0  0  0  2  0  0  0  0  0  0
  190.2810  176.0330  137.9380 C   0  0  0  0  0  2  0  0  0  0  0  0
  188.8800  179.1750  136.7160 O   0  0  0  0  0  0  0  0  0  0  0  0
  189.0190  175.6080  135.8260 C   0  0  2  0  0  3  0  0  0  0  0  0
  188.6550  177.0310  135.8320 N   0  0  0  0  0  2  0  0  0  0  0  0
  188.1380  173.3290  135.4760 C   0  0  1  0  0  3  0  0  0  0  0  0
  186.6310  175.2900  135.4380 C   0  0  1  0  0  3  0  0  0  0  0  0
  187.9930  174.7740  135.1810 N   0  0  1  0  0  0  0  0  0  0  0  0
  186.8550  172.5910  135.2310 C   0  0  0  0  0  0  0  0  0  0  0  0
  185.7190  174.6180  134.5940 O   0  0  0  0  0  0  0  0  0  0  0  0
  186.7940  171.3430  135.3850 O   0  0  0  0  0  0  0  0  0  0  0  0
  185.6930  173.3130  134.9460 O   0  0  0  0  0  0  0  0  0  0  0  0
  189.2480  172.7260  134.6180 C   0  0  0  0  0  1  0  0  0  0  0  0
  186.2110  175.2630  136.9300 C   0  0  1  0  0  3  0  0  0  0  0  0
  185.8370  176.6640  137.3830 C   0  0  0  0  0  1  0  0  0  0  0  0
  185.0170  174.3440  137.1810 C   0  0  0  0  0  2  0  0  0  0  0  0
  183.7510  175.1490  137.4470 C   0  0  0  0  0  3  0  0  0  0  0  0
  183.0810  174.6630  138.7180 C   0  0  0  0  0  1  0  0  0  0  0  0
  182.7920  174.9610  136.2870 C   0  0  0  0  0  1  0  0  0  0  0  0
  1  7  1  0  0  0  0
  2  7  2  0  0  0  0
  2 10  1  0  0  0  0
  3  2  1  0  0  0  0
  4  9  1  0  0  0  0
  5  1  2  0  0  0  0
  6  4  1  0  0  0  0
  6  9  1  0  0  0  0
  8  5  1  0  0  0  0
  8  3  2  0  0  0  0
  9  3  1  0  0  0  0
  9 11  1  0  0  0  0
 11 10  1  0  0  0  0
 11 13  1  1  0  0  0
 13 12  3  0  0  0  0
 14 12  1  6  0  0  0
 14 15  1  0  0  0  0
 15 16  1  0  0  0  0
 16 17  1  0  0  0  0
 19 17  1  0  0  0  0
 19 18  1  1  0  0  0
 20 21  1  6  0  0  0
 20 22  1  0  0  0  0
 20 19  1  0  0  0  0
 22 23  1  0  0  0  0
 23 26  1  0  0  0  0
 24 26  2  0  0  0  0
 26 25  1  0  0  0  0
 27 14  1  0  0  0  0
 28 27  1  0  0  0  0
 29 28  1  0  0  0  0
 30 29  1  0  0  0  0
 31 30  1  0  0  0  0
 32 33  1  0  0  0  0
 33 31  1  0  0  0  0
 34 33  1  0  0  0  0
 35 34  2  0  0  0  0
 36 35  1  0  0  0  0
 36 32  2  0  0  0  0
 37  8  1  0  0  0  0
 38 37  1  0  0  0  0
 39 40  1  0  0  0  0
 40 38  1  6  0  0  0
 41 42  1  0  0  0  0
 42 40  1  0  0  0  0
 43 39  2  0  0  0  0
 44 45  1  0  0  0  0
 44 41  1  1  0  0  0
 45 39  1  0  0  0  0
 46 53  1  6  0  0  0
 47 54  1  1  0  0  0
 48 47  1  0  0  0  0
 48 46  1  0  0  0  0
 48 44  1  1  0  0  0
 49 51  2  0  0  0  0
 49 46  1  0  0  0  0
 50 52  1  0  0  0  0
 50 47  1  0  0  0  0
 52 49  1  0  0  0  0
 54 56  1  0  0  0  0
 54 55  1  6  0  0  0
 56 57  1  0  0  0  0
 57 58  1  0  0  0  0
 59 57  1  0  0  0  0
M  END
>  <MODEL>
8

>  <REMARK>
 VINA RESULT:      -4.2      3.042      9.100
  Name = 
  23 active torsions:
  status: ('A' for Active; 'I' for Inactive)
    1  A    between atoms: C_3  and  C_30
    2  A    between atoms: C_3  and  C_40
    3  A    between atoms: C_6  and  C_26
    4  A    between atoms: C_6  and  O_46
    5  A    between atoms: C_8  and  C_40
    6  A    between atoms: C_8  and  C_42
    7  A    between atoms: C_9  and  O_46
    8  A    between atoms: C_14  and  C_22
    9  A    between atoms: C_15  and  C_27
   10  A    between atoms: C_15  and  O_49
   11  A    between atoms: N_16  and  C_31
   12  A    between atoms: C_22  and  C_47
   13  A    between atoms: C_25  and  C_47
   14  A    between atoms: C_27  and  C_53
   15  A    between atoms: C_30  and  N_33
   16  A    between atoms: C_35  and  C_36
   17  A    between atoms: C_35  and  C_41
   18  A    between atoms: C_36  and  C_53
   19  A    between atoms: C_41  and  C_44
   20  A    between atoms: C_42  and  C_44
   21  A    between atoms: C_44  and  C_50
   22  A    between atoms: C_45  and  C_51
   23  A    between atoms: O_49  and  C_57
                            x       y       z     vdW  Elec       q    Type
                         _______ _______ _______ _____ _____    ______ ____

>  <TORSDO>
F 23

$$$$
=
 OpenBabel11032421063D

 59 64  0  0  1  0  0  0  0  0999 V2000
  186.0100  179.2520  140.6730 C   0  0  0  0  0  3  0  0  0  0  0  0
  183.8900  178.8120  139.6420 C   0  0  0  0  0  0  0  0  0  0  0  0
  183.2730  178.8330  140.8690 C   0  0  0  0  0  0  0  0  0  0  0  0
  180.7890  178.2770  141.6700 C   0  0  0  0  0  2  0  0  0  0  0  0
  185.3820  179.2830  141.9320 C   0  0  0  0  0  3  0  0  0  0  0  0
  180.9520  179.6960  141.1510 C   0  0  0  0  0  2  0  0  0  0  0  0
  185.2620  179.0150  139.5130 C   0  0  0  0  0  3  0  0  0  0  0  0
  183.9950  179.0590  142.0490 C   0  0  0  0  0  0  0  0  0  0  0  0
  181.8300  178.5890  140.6180 C   0  0  0  0  0  0  0  0  0  0  0  0
  182.9880  178.5790  138.5660 N   0  0  0  0  0  2  0  0  0  0  0  0
  181.6390  178.3980  139.1120 C   0  0  1  0  0  3  0  0  0  0  0  0
  180.7830  175.9260  138.5700 C   0  0  0  0  0  0  0  0  0  0  0  0
  181.1800  177.0380  138.8140 C   0  0  0  0  0  0  0  0  0  0  0  0
  180.2800  174.5800  138.2710 C   0  0  2  0  0  3  0  0  0  0  0  0
  181.4230  173.5890  138.0430 C   0  0  0  0  0  2  0  0  0  0  0  0
  181.2580  172.8000  136.7490 C   0  0  0  0  0  2  0  0  0  0  0  0
  182.5330  172.8750  135.9170 C   0  0  0  0  0  2  0  0  0  0  0  0
  184.5930  172.5440  137.1380 O   0  0  0  0  0  1  0  0  0  0  0  0
  183.7100  173.5170  136.6620 C   0  0  1  0  0  3  0  0  0  0  0  0
  184.4650  174.5890  135.8680 C   0  0  1  0  0  3  0  0  0  0  0  0
  183.9170  174.7820  134.5970 O   0  0  0  0  0  1  0  0  0  0  0  0
  184.5800  175.9110  136.6180 C   0  0  0  0  0  2  0  0  0  0  0  0
  185.7850  176.5850  136.2820 O   0  0  0  0  0  0  0  0  0  0  0  0
  187.7180  175.9040  135.2240 O   0  0  0  0  0  0  0  0  0  0  0  0
  187.5050  175.2500  137.4910 C   0  0  0  0  0  1  0  0  0  0  0  0
  187.0170  175.9310  136.2660 C   0  0  0  0  0  0  0  0  0  0  0  0
  179.3180  174.6080  137.0940 C   0  0  0  0  0  2  0  0  0  0  0  0
  179.9480  175.3300  135.9180 C   0  0  0  0  0  2  0  0  0  0  0  0
  178.9570  176.2950  135.2890 C   0  0  0  0  0  2  0  0  0  0  0  0
  178.9590  177.6110  136.0490 C   0  0  0  0  0  2  0  0  0  0  0  0
  180.1090  178.4930  135.5950 C   0  0  0  0  0  2  0  0  0  0  0  0
  179.1110  180.1390  137.1600 C   0  0  0  0  0  3  0  0  0  0  0  0
  180.0200  179.7910  136.2430 N   0  0  0  0  0  0  0  0  0  0  0  0
  180.7990  180.8520  135.9790 C   0  0  0  0  0  3  0  0  0  0  0  0
  180.3850  181.9120  136.7590 C   0  0  0  0  0  3  0  0  0  0  0  0
  179.3140  181.4600  137.5110 C   0  0  0  0  0  3  0  0  0  0  0  0
  183.2990  179.1890  143.3740 C   0  0  0  0  0  2  0  0  0  0  0  0
  183.7510  178.2410  144.2980 O   0  0  0  0  0  0  0  0  0  0  0  0
  185.5060  178.4950  145.9160 C   0  0  0  0  0  0  0  0  0  0  0  0
  185.1140  178.5160  144.4630 C   0  0  1  0  0  3  0  0  0  0  0  0
  187.4240  177.7400  143.9060 C   0  0  0  0  0  2  0  0  0  0  0  0
  185.9390  177.5130  143.6610 C   0  0  0  0  0  2  0  0  0  0  0  0
  184.7080  178.9200  146.7960 O   0  0  0  0  0  0  0  0  0  0  0  0
  187.7590  177.4420  145.3670 C   0  0  2  0  0  3  0  0  0  0  0  0
  186.8360  178.1220  146.2860 N   0  0  0  0  0  2  0  0  0  0  0  0
  189.7690  176.9330  146.7060 C   0  0  1  0  0  3  0  0  0  0  0  0
  189.9700  177.8190  144.4050 C   0  0  1  0  0  3  0  0  0  0  0  0
  189.1660  177.7730  145.6450 N   0  0  1  0  0  0  0  0  0  0  0  0
  191.2680  176.9490  146.6270 C   0  0  0  0  0  0  0  0  0  0  0  0
  191.2290  178.3900  144.6960 O   0  0  0  0  0  0  0  0  0  0  0  0
  191.9610  176.3260  147.4740 O   0  0  0  0  0  0  0  0  0  0  0  0
  191.8900  177.5610  145.5360 O   0  0  0  0  0  0  0  0  0  0  0  0
  189.3230  177.4220  148.0820 C   0  0  0  0  0  1  0  0  0  0  0  0
  190.0750  176.4620  143.6640 C   0  0  1  0  0  3  0  0  0  0  0  0
  188.6880  175.9780  143.2790 C   0  0  0  0  0  1  0  0  0  0  0  0
  190.9170  176.5570  142.3930 C   0  0  0  0  0  2  0  0  0  0  0  0
  190.0410  176.7800  141.1680 C   0  0  0  0  0  3  0  0  0  0  0  0
  190.8170  176.4590  139.9050 C   0  0  0  0  0  1  0  0  0  0  0  0
  189.6140  178.2350  141.1230 C   0  0  0  0  0  1  0  0  0  0  0  0
  1  5  1  0  0  0  0
  2  3  2  0  0  0  0
  3  8  1  0  0  0  0
  5  8  2  0  0  0  0
  6  4  1  0  0  0  0
  7  2  1  0  0  0  0
  7  1  2  0  0  0  0
  8 37  1  0  0  0  0
  9  3  1  0  0  0  0
  9  6  1  0  0  0  0
  9  4  1  0  0  0  0
 10 11  1  0  0  0  0
 10  2  1  0  0  0  0
 11 13  1  1  0  0  0
 11  9  1  0  0  0  0
 12 13  3  0  0  0  0
 14 27  1  6  0  0  0
 14 12  1  0  0  0  0
 15 14  1  0  0  0  0
 16 15  1  0  0  0  0
 17 19  1  0  0  0  0
 17 16  1  0  0  0  0
 19 18  1  6  0  0  0
 20 21  1  6  0  0  0
 20 22  1  0  0  0  0
 20 19  1  0  0  0  0
 23 22  1  0  0  0  0
 24 26  2  0  0  0  0
 26 23  1  0  0  0  0
 26 25  1  0  0  0  0
 28 27  1  0  0  0  0
 29 28  1  0  0  0  0
 29 30  1  0  0  0  0
 31 30  1  0  0  0  0
 31 33  1  0  0  0  0
 32 36  2  0  0  0  0
 33 32  1  0  0  0  0
 34 33  1  0  0  0  0
 34 35  2  0  0  0  0
 35 36  1  0  0  0  0
 37 38  1  0  0  0  0
 39 45  1  0  0  0  0
 39 43  2  0  0  0  0
 40 38  1  1  0  0  0
 40 39  1  0  0  0  0
 42 41  1  0  0  0  0
 42 40  1  0  0  0  0
 44 41  1  6  0  0  0
 44 45  1  0  0  0  0
 46 53  1  1  0  0  0
 47 54  1  1  0  0  0
 47 50  1  0  0  0  0
 47 48  1  0  0  0  0
 48 44  1  6  0  0  0
 48 46  1  0  0  0  0
 49 46  1  0  0  0  0
 49 51  2  0  0  0  0
 50 52  1  0  0  0  0
 52 49  1  0  0  0  0
 54 55  1  6  0  0  0
 56 54  1  0  0  0  0
 57 56  1  0  0  0  0
 58 57  1  0  0  0  0
 59 57  1  0  0  0  0
M  END
>  <MODEL>
9

>  <REMARK>
 VINA RESULT:      -4.2      2.828      6.881
  Name = 
  23 active torsions:
  status: ('A' for Active; 'I' for Inactive)
    1  A    between atoms: C_3  and  C_30
    2  A    between atoms: C_3  and  C_40
    3  A    between atoms: C_6  and  C_26
    4  A    between atoms: C_6  and  O_46
    5  A    between atoms: C_8  and  C_40
    6  A    between atoms: C_8  and  C_42
    7  A    between atoms: C_9  and  O_46
    8  A    between atoms: C_14  and  C_22
    9  A    between atoms: C_15  and  C_27
   10  A    between atoms: C_15  and  O_49
   11  A    between atoms: N_16  and  C_31
   12  A    between atoms: C_22  and  C_47
   13  A    between atoms: C_25  and  C_47
   14  A    between atoms: C_27  and  C_53
   15  A    between atoms: C_30  and  N_33
   16  A    between atoms: C_35  and  C_36
   17  A    between atoms: C_35  and  C_41
   18  A    between atoms: C_36  and  C_53
   19  A    between atoms: C_41  and  C_44
   20  A    between atoms: C_42  and  C_44
   21  A    between atoms: C_44  and  C_50
   22  A    between atoms: C_45  and  C_51
   23  A    between atoms: O_49  and  C_57
                            x       y       z     vdW  Elec       q    Type
                         _______ _______ _______ _____ _____    ______ ____

>  <TORSDO>
F 23

$$$$
