=
 OpenBabel11042411213D

 25 29  0  0  1  0  0  0  0  0999 V2000
  187.6540  177.9250  145.9910 O   0  0  0  0  0  0  0  0  0  0  0  0
  191.4180  176.2030  143.2710 N   0  0  0  0  0  2  0  0  0  0  0  0
  189.3870  176.6760  144.1060 C   0  0  2  0  0  0  0  0  0  0  0  0
  189.7010  176.6720  146.9480 C   0  0  2  0  0  3  0  0  0  0  0  0
  189.0180  177.8450  146.2410 C   0  0  2  0  0  0  0  0  0  0  0  0
  189.0230  177.6890  147.7660 C   0  0  0  0  0  2  0  0  0  0  0  0
  189.1720  175.6170  143.1270 N   0  0  0  0  0  2  0  0  0  0  0  0
  191.6610  177.0620  145.4800 C   0  0  0  0  0  3  0  0  0  0  0  0
  188.4770  177.8230  143.8880 C   0  0  2  0  0  3  0  0  0  0  0  0
  190.8760  176.8570  144.2370 C   0  0  1  0  0  3  0  0  0  0  0  0
  190.4310  175.5610  142.5600 O   0  0  0  0  0  0  0  0  0  0  0  0
  191.1490  176.9700  146.7190 C   0  0  0  0  0  3  0  0  0  0  0  0
  188.3050  176.9880  145.1890 C   0  0  2  0  0  0  0  0  0  0  0  0
  187.2870  177.5680  142.9630 C   0  0  0  0  0  2  0  0  0  0  0  0
  188.2320  178.0820  140.8370 O   0  0  0  0  0  1  0  0  0  0  0  0
  187.3110  178.5310  141.7830 C   0  0  1  0  0  3  0  0  0  0  0  0
  185.9540  178.6580  141.1470 C   0  0  0  0  0  0  0  0  0  0  0  0
  185.8480  179.1230  140.0220 O   0  0  0  0  0  0  0  0  0  0  0  0
  183.5790  177.9900  140.9090 C   0  0  0  0  0  1  0  0  0  0  0  0
  184.7140  178.2400  141.8840 C   0  0  2  0  0  3  0  0  0  0  0  0
  184.2880  179.2800  142.9110 C   0  0  0  0  0  2  0  0  0  0  0  0
  182.9070  178.9590  143.4510 C   0  0  0  0  0  2  0  0  0  0  0  0
  182.9650  178.8760  144.9610 C   0  0  0  0  0  2  0  0  0  0  0  0
  184.4080  178.9380  145.4150 C   0  0  0  0  0  2  0  0  0  0  0  0
  184.4950  178.5230  146.7420 O   0  0  0  0  0  1  0  0  0  0  0  0
  1  5  1  0  0  0  0
  2 10  1  0  0  0  0
  3  7  1  6  0  0  0
  3 10  1  0  0  0  0
  3 13  1  0  0  0  0
  4 12  1  1  0  0  0
  4  6  1  0  0  0  0
  5  4  1  0  0  0  0
  5  6  1  6  0  0  0
  8 12  2  0  0  0  0
  9 14  1  6  0  0  0
  9  3  1  0  0  0  0
  9 13  1  0  0  0  0
 10  8  1  1  0  0  0
 11  7  1  0  0  0  0
 11  2  1  0  0  0  0
 13  1  1  1  0  0  0
 13  5  1  0  0  0  0
 16 15  1  6  0  0  0
 16 14  1  0  0  0  0
 17 16  1  0  0  0  0
 17 20  1  0  0  0  0
 18 17  2  0  0  0  0
 20 19  1  6  0  0  0
 20 21  1  0  0  0  0
 21 22  1  0  0  0  0
 22 23  1  0  0  0  0
 23 24  1  0  0  0  0
 24 25  1  0  0  0  0
M  END
>  <MODEL>
1

>  <REMARK>
 VINA RESULT:      -8.0      0.000      0.000
  Name = 
  8 active torsions:
  status: ('A' for Active; 'I' for Inactive)
    1  A    between atoms: C_1  and  C_9
    2  A    between atoms: C_1  and  C_12
    3  A    between atoms: C_4  and  C_12
    4  A    between atoms: C_7  and  C_11
    5  A    between atoms: C_7  and  C_20
    6  A    between atoms: C_9  and  C_20
    7  A    between atoms: C_11  and  C_15
    8  A    between atoms: C_15  and  C_19
                            x       y       z     vdW  Elec       q    Type
                         _______ _______ _______ _____ _____    ______ ____

>  <TORSDO>
F 8

$$$$
=
 OpenBabel11042411213D

 25 29  0  0  1  0  0  0  0  0999 V2000
  187.4440  177.9780  145.9290 O   0  0  0  0  0  0  0  0  0  0  0  0
  191.2110  176.2900  143.1920 N   0  0  0  0  0  2  0  0  0  0  0  0
  189.1790  176.7430  144.0370 C   0  0  2  0  0  0  0  0  0  0  0  0
  189.5100  176.7500  146.8770 C   0  0  2  0  0  3  0  0  0  0  0  0
  188.8100  177.9140  146.1710 C   0  0  2  0  0  0  0  0  0  0  0  0
  188.8260  177.7620  147.6970 C   0  0  0  0  0  2  0  0  0  0  0  0
  188.9700  175.6790  143.0620 N   0  0  0  0  0  2  0  0  0  0  0  0
  191.4570  177.1570  145.3970 C   0  0  0  0  0  3  0  0  0  0  0  0
  188.2550  177.8800  143.8220 C   0  0  2  0  0  3  0  0  0  0  0  0
  190.6670  176.9400  144.1590 C   0  0  1  0  0  3  0  0  0  0  0  0
  190.2260  175.6360  142.4880 O   0  0  0  0  0  0  0  0  0  0  0  0
  190.9530  177.0630  146.6390 C   0  0  0  0  0  3  0  0  0  0  0  0
  188.1000  177.0450  145.1260 C   0  0  2  0  0  0  0  0  0  0  0  0
  187.0630  177.6090  142.9050 C   0  0  0  0  0  2  0  0  0  0  0  0
  187.7760  178.3410  140.7520 O   0  0  0  0  0  1  0  0  0  0  0  0
  186.9600  178.6830  141.8290 C   0  0  1  0  0  3  0  0  0  0  0  0
  185.5430  178.8570  141.3560 C   0  0  0  0  0  0  0  0  0  0  0  0
  185.2920  179.6440  140.4560 O   0  0  0  0  0  0  0  0  0  0  0  0
  183.3470  177.7780  140.9600 C   0  0  0  0  0  1  0  0  0  0  0  0
  184.4180  178.0880  141.9880 C   0  0  2  0  0  3  0  0  0  0  0  0
  183.8040  178.8420  143.1580 C   0  0  0  0  0  2  0  0  0  0  0  0
  182.3420  179.1430  142.8880 C   0  0  0  0  0  2  0  0  0  0  0  0
  181.5150  178.7320  144.0870 C   0  0  0  0  0  2  0  0  0  0  0  0
  180.0450  178.8160  143.7380 C   0  0  0  0  0  2  0  0  0  0  0  0
  179.5370  177.5310  143.5540 O   0  0  0  0  0  1  0  0  0  0  0  0
  1  5  1  0  0  0  0
  2 10  1  0  0  0  0
  3  7  1  6  0  0  0
  3 10  1  0  0  0  0
  3 13  1  0  0  0  0
  4 12  1  1  0  0  0
  4  6  1  0  0  0  0
  5  4  1  0  0  0  0
  5  6  1  6  0  0  0
  8 12  2  0  0  0  0
  9 14  1  6  0  0  0
  9  3  1  0  0  0  0
  9 13  1  0  0  0  0
 10  8  1  1  0  0  0
 11  7  1  0  0  0  0
 11  2  1  0  0  0  0
 13  1  1  1  0  0  0
 13  5  1  0  0  0  0
 16 15  1  6  0  0  0
 16 14  1  0  0  0  0
 17 16  1  0  0  0  0
 17 20  1  0  0  0  0
 18 17  2  0  0  0  0
 20 19  1  6  0  0  0
 20 21  1  0  0  0  0
 22 21  1  0  0  0  0
 22 23  1  0  0  0  0
 24 23  1  0  0  0  0
 25 24  1  0  0  0  0
M  END
>  <MODEL>
2

>  <REMARK>
 VINA RESULT:      -7.7      1.414      1.601
  Name = 
  8 active torsions:
  status: ('A' for Active; 'I' for Inactive)
    1  A    between atoms: C_1  and  C_9
    2  A    between atoms: C_1  and  C_12
    3  A    between atoms: C_4  and  C_12
    4  A    between atoms: C_7  and  C_11
    5  A    between atoms: C_7  and  C_20
    6  A    between atoms: C_9  and  C_20
    7  A    between atoms: C_11  and  C_15
    8  A    between atoms: C_15  and  C_19
                            x       y       z     vdW  Elec       q    Type
                         _______ _______ _______ _____ _____    ______ ____

>  <TORSDO>
F 8

$$$$
=
 OpenBabel11042411213D

 25 29  0  0  1  0  0  0  0  0999 V2000
  186.4130  178.3660  144.8690 O   0  0  0  0  0  0  0  0  0  0  0  0
  183.8860  178.8420  140.6360 N   0  0  0  0  0  2  0  0  0  0  0  0
  185.4580  178.9050  142.2400 C   0  0  2  0  0  0  0  0  0  0  0  0
  184.0500  179.3940  144.6800 C   0  0  2  0  0  3  0  0  0  0  0  0
  185.0600  178.2480  144.5790 C   0  0  2  0  0  0  0  0  0  0  0  0
  184.4400  178.6880  145.9110 C   0  0  0  0  0  2  0  0  0  0  0  0
  185.9440  179.7800  141.1790 N   0  0  0  0  0  2  0  0  0  0  0  0
  182.8710  178.3890  142.7440 C   0  0  0  0  0  3  0  0  0  0  0  0
  186.4800  177.9180  142.6540 C   0  0  2  0  0  3  0  0  0  0  0  0
  184.0610  178.4910  141.8610 C   0  0  1  0  0  3  0  0  0  0  0  0
  185.0100  179.5020  140.1990 O   0  0  0  0  0  0  0  0  0  0  0  0
  182.8430  178.8050  144.0220 C   0  0  0  0  0  3  0  0  0  0  0  0
  186.0490  179.0030  143.6830 C   0  0  2  0  0  0  0  0  0  0  0  0
  187.9100  178.2010  142.1930 C   0  0  0  0  0  2  0  0  0  0  0  0
  189.2770  176.9610  140.6850 O   0  0  0  0  0  1  0  0  0  0  0  0
  188.6550  176.8980  141.9320 C   0  0  1  0  0  3  0  0  0  0  0  0
  189.6820  176.6260  142.9960 C   0  0  0  0  0  0  0  0  0  0  0  0
  190.2410  175.5410  143.0430 O   0  0  0  0  0  0  0  0  0  0  0  0
  191.2180  178.4830  143.5750 C   0  0  0  0  0  1  0  0  0  0  0  0
  190.0210  177.6670  144.0250 C   0  0  2  0  0  3  0  0  0  0  0  0
  190.3040  177.0480  145.3860 C   0  0  0  0  0  2  0  0  0  0  0  0
  189.1330  177.2690  146.3240 C   0  0  0  0  0  2  0  0  0  0  0  0
  189.6440  177.4030  147.7420 C   0  0  0  0  0  2  0  0  0  0  0  0
  188.6350  178.1650  148.5730 C   0  0  0  0  0  2  0  0  0  0  0  0
  187.3570  177.9580  148.0560 O   0  0  0  0  0  1  0  0  0  0  0  0
  2 10  1  0  0  0  0
  3  7  1  6  0  0  0
  3  9  1  0  0  0  0
  3 13  1  0  0  0  0
  4 12  1  6  0  0  0
  4  6  1  0  0  0  0
  5  4  1  0  0  0  0
  5  1  1  0  0  0  0
  5  6  1  6  0  0  0
  8 12  2  0  0  0  0
  9 14  1  6  0  0  0
  9 13  1  0  0  0  0
 10  3  1  0  0  0  0
 10  8  1  1  0  0  0
 11  2  1  0  0  0  0
 11  7  1  0  0  0  0
 13  5  1  0  0  0  0
 13  1  1  1  0  0  0
 16 15  1  6  0  0  0
 16 14  1  0  0  0  0
 16 17  1  0  0  0  0
 17 18  2  0  0  0  0
 17 20  1  0  0  0  0
 20 19  1  6  0  0  0
 20 21  1  0  0  0  0
 21 22  1  0  0  0  0
 22 23  1  0  0  0  0
 23 24  1  0  0  0  0
 25 24  1  0  0  0  0
M  END
>  <MODEL>
3

>  <REMARK>
 VINA RESULT:      -7.5      2.136      5.886
  Name = 
  8 active torsions:
  status: ('A' for Active; 'I' for Inactive)
    1  A    between atoms: C_1  and  C_9
    2  A    between atoms: C_1  and  C_12
    3  A    between atoms: C_4  and  C_12
    4  A    between atoms: C_7  and  C_11
    5  A    between atoms: C_7  and  C_20
    6  A    between atoms: C_9  and  C_20
    7  A    between atoms: C_11  and  C_15
    8  A    between atoms: C_15  and  C_19
                            x       y       z     vdW  Elec       q    Type
                         _______ _______ _______ _____ _____    ______ ____

>  <TORSDO>
F 8

$$$$
=
 OpenBabel11042411213D

 25 29  0  0  1  0  0  0  0  0999 V2000
  185.6730  178.3810  144.5850 O   0  0  0  0  0  0  0  0  0  0  0  0
  183.5510  178.9170  140.1420 N   0  0  0  0  0  2  0  0  0  0  0  0
  184.9830  178.9130  141.8730 C   0  0  2  0  0  0  0  0  0  0  0  0
  183.4150  179.5670  144.1730 C   0  0  2  0  0  3  0  0  0  0  0  0
  184.3440  178.3500  144.1830 C   0  0  2  0  0  0  0  0  0  0  0  0
  183.6470  178.8690  145.4470 C   0  0  0  0  0  2  0  0  0  0  0  0
  185.6190  179.7220  140.8400 N   0  0  0  0  0  2  0  0  0  0  0  0
  182.3330  178.5960  142.1650 C   0  0  0  0  0  3  0  0  0  0  0  0
  185.8930  177.8680  142.3950 C   0  0  2  0  0  3  0  0  0  0  0  0
  183.5960  178.5880  141.3850 C   0  0  1  0  0  3  0  0  0  0  0  0
  184.7530  179.4840  139.7890 O   0  0  0  0  0  0  0  0  0  0  0  0
  182.2280  179.0470  143.4260 C   0  0  0  0  0  3  0  0  0  0  0  0
  185.4570  179.0090  143.3590 C   0  0  2  0  0  0  0  0  0  0  0  0
  187.3720  178.0360  142.0510 C   0  0  0  0  0  2  0  0  0  0  0  0
  188.2650  176.0020  142.9140 O   0  0  0  0  0  1  0  0  0  0  0  0
  188.2460  177.3820  143.1140 C   0  0  1  0  0  3  0  0  0  0  0  0
  189.6510  177.9180  143.0810 C   0  0  0  0  0  0  0  0  0  0  0  0
  190.3490  177.7410  142.0950 O   0  0  0  0  0  0  0  0  0  0  0  0
  191.7320  178.7610  144.1320 C   0  0  0  0  0  1  0  0  0  0  0  0
  190.2240  178.6540  144.2590 C   0  0  2  0  0  3  0  0  0  0  0  0
  189.8650  177.9820  145.5760 C   0  0  0  0  0  2  0  0  0  0  0  0
  190.6870  176.7210  145.7700 C   0  0  0  0  0  2  0  0  0  0  0  0
  191.0890  176.6030  147.2240 C   0  0  0  0  0  2  0  0  0  0  0  0
  192.3280  175.7390  147.3360 C   0  0  0  0  0  2  0  0  0  0  0  0
  193.0110  176.0580  148.5080 O   0  0  0  0  0  1  0  0  0  0  0  0
  2 10  1  0  0  0  0
  3  7  1  6  0  0  0
  3  9  1  0  0  0  0
  3 13  1  0  0  0  0
  4 12  1  6  0  0  0
  4  5  1  0  0  0  0
  4  6  1  0  0  0  0
  5  1  1  0  0  0  0
  5  6  1  6  0  0  0
  8 12  2  0  0  0  0
  9 14  1  6  0  0  0
  9 13  1  0  0  0  0
 10  3  1  0  0  0  0
 10  8  1  1  0  0  0
 11  2  1  0  0  0  0
 11  7  1  0  0  0  0
 13  5  1  0  0  0  0
 13  1  1  1  0  0  0
 14 16  1  0  0  0  0
 16 15  1  6  0  0  0
 17 16  1  0  0  0  0
 17 20  1  0  0  0  0
 18 17  2  0  0  0  0
 20 19  1  6  0  0  0
 20 21  1  0  0  0  0
 21 22  1  0  0  0  0
 22 23  1  0  0  0  0
 23 24  1  0  0  0  0
 24 25  1  0  0  0  0
M  END
>  <MODEL>
4

>  <REMARK>
 VINA RESULT:      -7.5      2.608      6.702
  Name = 
  8 active torsions:
  status: ('A' for Active; 'I' for Inactive)
    1  A    between atoms: C_1  and  C_9
    2  A    between atoms: C_1  and  C_12
    3  A    between atoms: C_4  and  C_12
    4  A    between atoms: C_7  and  C_11
    5  A    between atoms: C_7  and  C_20
    6  A    between atoms: C_9  and  C_20
    7  A    between atoms: C_11  and  C_15
    8  A    between atoms: C_15  and  C_19
                            x       y       z     vdW  Elec       q    Type
                         _______ _______ _______ _____ _____    ______ ____

>  <TORSDO>
F 8

$$$$
=
 OpenBabel11042411213D

 25 29  0  0  1  0  0  0  0  0999 V2000
  191.8960  176.7420  141.5050 O   0  0  0  0  0  0  0  0  0  0  0  0
  187.1560  178.1050  141.9560 N   0  0  0  0  0  2  0  0  0  0  0  0
  189.1610  177.1220  142.2030 C   0  0  2  0  0  0  0  0  0  0  0  0
  190.2000  176.8120  139.5570 C   0  0  2  0  0  3  0  0  0  0  0  0
  191.0510  177.4480  140.6600 C   0  0  2  0  0  0  0  0  0  0  0  0
  191.6240  177.0640  139.2900 C   0  0  0  0  0  2  0  0  0  0  0  0
  188.2350  176.3320  143.0080 N   0  0  0  0  0  2  0  0  0  0  0  0
  188.4840  178.5400  140.0260 C   0  0  0  0  0  3  0  0  0  0  0  0
  190.3630  177.5170  142.9730 C   0  0  2  0  0  3  0  0  0  0  0  0
  188.3360  178.1270  141.4450 C   0  0  1  0  0  3  0  0  0  0  0  0
  187.1140  177.1370  142.9320 O   0  0  0  0  0  0  0  0  0  0  0  0
  189.3150  177.9480  139.1520 C   0  0  0  0  0  3  0  0  0  0  0  0
  190.5450  176.5330  141.7810 C   0  0  2  0  0  0  0  0  0  0  0  0
  190.5940  176.7680  144.2850 C   0  0  0  0  0  2  0  0  0  0  0  0
  190.1890  178.9950  145.0320 O   0  0  0  0  0  1  0  0  0  0  0  0
  190.6280  177.7410  145.4570 C   0  0  1  0  0  3  0  0  0  0  0  0
  189.7690  177.2640  146.5960 C   0  0  0  0  0  0  0  0  0  0  0  0
  190.1120  176.2950  147.2550 O   0  0  0  0  0  0  0  0  0  0  0  0
  188.3300  178.1070  148.4300 C   0  0  0  0  0  1  0  0  0  0  0  0
  188.4750  177.9520  146.9280 C   0  0  2  0  0  3  0  0  0  0  0  0
  187.2750  177.2000  146.3700 C   0  0  0  0  0  2  0  0  0  0  0  0
  186.0190  178.0420  146.4870 C   0  0  0  0  0  2  0  0  0  0  0  0
  185.9380  178.9880  145.3090 C   0  0  0  0  0  2  0  0  0  0  0  0
  184.5210  179.0110  144.7770 C   0  0  0  0  0  2  0  0  0  0  0  0
  183.6240  178.9990  145.8440 O   0  0  0  0  0  1  0  0  0  0  0  0
  2 11  1  0  0  0  0
  3  9  1  0  0  0  0
  3  7  1  1  0  0  0
  4 12  1  6  0  0  0
  4  5  1  0  0  0  0
  5  6  1  1  0  0  0
  5  1  1  0  0  0  0
  5 13  1  0  0  0  0
  6  4  1  0  0  0  0
  9 14  1  1  0  0  0
 10  8  1  6  0  0  0
 10  2  1  0  0  0  0
 10  3  1  0  0  0  0
 11  7  1  0  0  0  0
 12  8  2  0  0  0  0
 13  1  1  1  0  0  0
 13  3  1  0  0  0  0
 13  9  1  0  0  0  0
 14 16  1  0  0  0  0
 16 15  1  6  0  0  0
 16 17  1  0  0  0  0
 17 20  1  0  0  0  0
 17 18  2  0  0  0  0
 20 19  1  1  0  0  0
 21 22  1  0  0  0  0
 21 20  1  0  0  0  0
 23 22  1  0  0  0  0
 24 23  1  0  0  0  0
 24 25  1  0  0  0  0
M  END
>  <MODEL>
5

>  <REMARK>
 VINA RESULT:      -7.2      2.388      5.486
  Name = 
  8 active torsions:
  status: ('A' for Active; 'I' for Inactive)
    1  A    between atoms: C_1  and  C_9
    2  A    between atoms: C_1  and  C_12
    3  A    between atoms: C_4  and  C_12
    4  A    between atoms: C_7  and  C_11
    5  A    between atoms: C_7  and  C_20
    6  A    between atoms: C_9  and  C_20
    7  A    between atoms: C_11  and  C_15
    8  A    between atoms: C_15  and  C_19
                            x       y       z     vdW  Elec       q    Type
                         _______ _______ _______ _____ _____    ______ ____

>  <TORSDO>
F 8

$$$$
=
 OpenBabel11042411213D

 25 29  0  0  1  0  0  0  0  0999 V2000
  187.2920  177.5600  142.4350 O   0  0  0  0  0  0  0  0  0  0  0  0
  191.5020  176.4830  144.8110 N   0  0  0  0  0  2  0  0  0  0  0  0
  189.7860  176.5430  143.3620 C   0  0  2  0  0  0  0  0  0  0  0  0
  187.4520  176.9950  144.9510 C   0  0  2  0  0  3  0  0  0  0  0  0
  187.7340  177.8560  143.7170 C   0  0  2  0  0  0  0  0  0  0  0  0
  186.4030  177.9110  144.4770 C   0  0  0  0  0  2  0  0  0  0  0  0
  190.5430  175.3430  143.0240 N   0  0  0  0  0  2  0  0  0  0  0  0
  189.6830  177.6610  145.8010 C   0  0  0  0  0  3  0  0  0  0  0  0
  189.5310  177.3880  142.1740 C   0  0  2  0  0  3  0  0  0  0  0  0
  190.3920  177.1040  144.6210 C   0  0  1  0  0  3  0  0  0  0  0  0
  191.6490  175.5270  143.8330 O   0  0  0  0  0  0  0  0  0  0  0  0
  188.3520  177.6100  145.9740 C   0  0  0  0  0  3  0  0  0  0  0  0
  188.3130  176.7160  142.8710 C   0  0  2  0  0  0  0  0  0  0  0  0
  189.7650  176.7240  140.8170 C   0  0  0  0  0  2  0  0  0  0  0  0
  192.0320  177.4580  140.7970 O   0  0  0  0  0  1  0  0  0  0  0  0
  190.8570  177.4540  140.0460 C   0  0  1  0  0  3  0  0  0  0  0  0
  191.1130  176.8130  138.7090 C   0  0  0  0  0  0  0  0  0  0  0  0
  192.2560  176.6980  138.2960 O   0  0  0  0  0  0  0  0  0  0  0  0
  190.2640  174.9280  137.3410 C   0  0  0  0  0  1  0  0  0  0  0  0
  189.9750  176.3250  137.8580 C   0  0  2  0  0  3  0  0  0  0  0  0
  189.7030  177.2590  136.6880 C   0  0  0  0  0  2  0  0  0  0  0  0
  189.0560  178.5430  137.1720 C   0  0  0  0  0  2  0  0  0  0  0  0
  187.6090  178.5730  136.7310 C   0  0  0  0  0  2  0  0  0  0  0  0
  186.7260  178.0820  137.8590 C   0  0  0  0  0  2  0  0  0  0  0  0
  187.2450  178.5170  139.0770 O   0  0  0  0  0  1  0  0  0  0  0  0
  1  5  1  0  0  0  0
  3  7  1  6  0  0  0
  3 10  1  0  0  0  0
  4  6  1  1  0  0  0
  4 12  1  0  0  0  0
  5  6  1  1  0  0  0
  5  4  1  0  0  0  0
  7 11  1  0  0  0  0
  8 12  2  0  0  0  0
  9 14  1  6  0  0  0
  9 13  1  0  0  0  0
  9  3  1  0  0  0  0
 10  2  1  0  0  0  0
 10  8  1  1  0  0  0
 11  2  1  0  0  0  0
 13  1  1  6  0  0  0
 13  3  1  0  0  0  0
 13  5  1  0  0  0  0
 16 15  1  1  0  0  0
 16 14  1  0  0  0  0
 17 16  1  0  0  0  0
 18 17  2  0  0  0  0
 20 19  1  6  0  0  0
 20 17  1  0  0  0  0
 21 22  1  0  0  0  0
 21 20  1  0  0  0  0
 23 22  1  0  0  0  0
 23 24  1  0  0  0  0
 24 25  1  0  0  0  0
M  END
>  <MODEL>
6

>  <REMARK>
 VINA RESULT:      -7.1      3.306      5.258
  Name = 
  8 active torsions:
  status: ('A' for Active; 'I' for Inactive)
    1  A    between atoms: C_1  and  C_9
    2  A    between atoms: C_1  and  C_12
    3  A    between atoms: C_4  and  C_12
    4  A    between atoms: C_7  and  C_11
    5  A    between atoms: C_7  and  C_20
    6  A    between atoms: C_9  and  C_20
    7  A    between atoms: C_11  and  C_15
    8  A    between atoms: C_15  and  C_19
                            x       y       z     vdW  Elec       q    Type
                         _______ _______ _______ _____ _____    ______ ____

>  <TORSDO>
F 8

$$$$
=
 OpenBabel11042411213D

 25 29  0  0  1  0  0  0  0  0999 V2000
  187.5270  178.5480  139.3510 O   0  0  0  0  0  0  0  0  0  0  0  0
  191.7200  176.0450  138.5230 N   0  0  0  0  0  2  0  0  0  0  0  0
  190.1380  177.4110  139.3490 C   0  0  2  0  0  0  0  0  0  0  0  0
  188.7430  178.4390  137.0740 C   0  0  2  0  0  3  0  0  0  0  0  0
  187.9760  177.8300  138.2500 C   0  0  2  0  0  0  0  0  0  0  0  0
  187.2800  178.5830  137.1100 C   0  0  0  0  0  2  0  0  0  0  0  0
  191.3770  177.7970  140.0140 N   0  0  0  0  0  2  0  0  0  0  0  0
  189.9850  176.2990  136.9100 C   0  0  0  0  0  3  0  0  0  0  0  0
  189.0420  177.1760  140.3150 C   0  0  2  0  0  3  0  0  0  0  0  0
  190.5030  176.3970  138.2980 C   0  0  1  0  0  3  0  0  0  0  0  0
  192.2050  176.7790  139.5810 O   0  0  0  0  0  0  0  0  0  0  0  0
  189.1960  177.2210  136.3330 C   0  0  0  0  0  3  0  0  0  0  0  0
  188.9100  178.3770  139.3350 C   0  0  2  0  0  0  0  0  0  0  0  0
  189.2730  177.7030  141.7310 C   0  0  0  0  0  2  0  0  0  0  0  0
  190.1560  175.5900  142.3910 O   0  0  0  0  0  1  0  0  0  0  0  0
  189.2210  176.5630  142.7410 C   0  0  1  0  0  3  0  0  0  0  0  0
  189.4950  177.0500  144.1380 C   0  0  0  0  0  0  0  0  0  0  0  0
  190.5990  176.8890  144.6350 O   0  0  0  0  0  0  0  0  0  0  0  0
  188.7230  177.5970  146.4290 C   0  0  0  0  0  1  0  0  0  0  0  0
  188.4200  177.7180  144.9470 C   0  0  2  0  0  3  0  0  0  0  0  0
  187.0460  177.1330  144.6550 C   0  0  0  0  0  2  0  0  0  0  0  0
  185.9550  178.0800  145.1180 C   0  0  0  0  0  2  0  0  0  0  0  0
  185.1630  178.5570  143.9210 C   0  0  0  0  0  2  0  0  0  0  0  0
  183.7270  178.8040  144.3330 C   0  0  0  0  0  2  0  0  0  0  0  0
  183.6820  179.1330  145.6860 O   0  0  0  0  0  1  0  0  0  0  0  0
  2 11  1  0  0  0  0
  3  7  1  1  0  0  0
  3  9  1  0  0  0  0
  4 12  1  6  0  0  0
  4  6  1  0  0  0  0
  4  5  1  0  0  0  0
  5  6  1  6  0  0  0
  5 13  1  0  0  0  0
  5  1  1  0  0  0  0
  9 14  1  1  0  0  0
 10  8  1  6  0  0  0
 10  2  1  0  0  0  0
 10  3  1  0  0  0  0
 11  7  1  0  0  0  0
 12  8  2  0  0  0  0
 13  3  1  0  0  0  0
 13  1  1  1  0  0  0
 13  9  1  0  0  0  0
 14 16  1  0  0  0  0
 16 15  1  6  0  0  0
 16 17  1  0  0  0  0
 17 18  2  0  0  0  0
 17 20  1  0  0  0  0
 20 19  1  1  0  0  0
 21 20  1  0  0  0  0
 21 22  1  0  0  0  0
 23 24  1  0  0  0  0
 23 22  1  0  0  0  0
 24 25  1  0  0  0  0
M  END
>  <MODEL>
7

>  <REMARK>
 VINA RESULT:      -7.1      3.227      5.998
  Name = 
  8 active torsions:
  status: ('A' for Active; 'I' for Inactive)
    1  A    between atoms: C_1  and  C_9
    2  A    between atoms: C_1  and  C_12
    3  A    between atoms: C_4  and  C_12
    4  A    between atoms: C_7  and  C_11
    5  A    between atoms: C_7  and  C_20
    6  A    between atoms: C_9  and  C_20
    7  A    between atoms: C_11  and  C_15
    8  A    between atoms: C_15  and  C_19
                            x       y       z     vdW  Elec       q    Type
                         _______ _______ _______ _____ _____    ______ ____

>  <TORSDO>
F 8

$$$$
=
 OpenBabel11042411213D

 25 29  0  0  1  0  0  0  0  0999 V2000
  191.3320  177.0480  140.1730 O   0  0  0  0  0  0  0  0  0  0  0  0
  187.0170  177.6880  142.5180 N   0  0  0  0  0  2  0  0  0  0  0  0
  189.0520  176.9820  141.8780 C   0  0  2  0  0  0  0  0  0  0  0  0
  189.0210  177.0290  139.0200 C   0  0  2  0  0  3  0  0  0  0  0  0
  190.1600  177.6910  139.7980 C   0  0  2  0  0  0  0  0  0  0  0  0
  190.1990  177.5010  138.2770 C   0  0  0  0  0  2  0  0  0  0  0  0
  188.5910  176.0090  142.8630 N   0  0  0  0  0  2  0  0  0  0  0  0
  187.4510  178.4550  140.3050 C   0  0  0  0  0  3  0  0  0  0  0  0
  190.4100  177.4820  142.1900 C   0  0  2  0  0  3  0  0  0  0  0  0
  187.9020  177.9160  141.6130 C   0  0  1  0  0  3  0  0  0  0  0  0
  187.4510  176.6510  143.3110 O   0  0  0  0  0  0  0  0  0  0  0  0
  187.9380  178.0560  139.1170 C   0  0  0  0  0  3  0  0  0  0  0  0
  190.2200  176.6300  140.9020 C   0  0  2  0  0  0  0  0  0  0  0  0
  191.2020  176.6740  143.2170 C   0  0  0  0  0  2  0  0  0  0  0  0
  192.0310  178.8200  143.8390 O   0  0  0  0  0  1  0  0  0  0  0  0
  191.6790  177.5720  144.3520 C   0  0  1  0  0  3  0  0  0  0  0  0
  190.6190  177.7390  145.4070 C   0  0  0  0  0  0  0  0  0  0  0  0
  189.5830  178.3300  145.1440 O   0  0  0  0  0  0  0  0  0  0  0  0
  191.7060  175.9720  146.7640 C   0  0  0  0  0  1  0  0  0  0  0  0
  190.8240  177.2060  146.7970 C   0  0  2  0  0  3  0  0  0  0  0  0
  189.5030  176.8750  147.4760 C   0  0  0  0  0  2  0  0  0  0  0  0
  189.0130  178.0580  148.2900 C   0  0  0  0  0  2  0  0  0  0  0  0
  187.5100  177.9770  148.4390 C   0  0  0  0  0  2  0  0  0  0  0  0
  186.8540  178.2780  147.1080 C   0  0  0  0  0  2  0  0  0  0  0  0
  185.7210  179.0620  147.3160 O   0  0  0  0  0  1  0  0  0  0  0  0
  2 11  1  0  0  0  0
  3  9  1  0  0  0  0
  3  7  1  1  0  0  0
  4  6  1  6  0  0  0
  4 12  1  0  0  0  0
  4  5  1  0  0  0  0
  5  6  1  1  0  0  0
  5  1  1  0  0  0  0
  5 13  1  0  0  0  0
  7 11  1  0  0  0  0
  9 14  1  1  0  0  0
 10  8  1  6  0  0  0
 10  3  1  0  0  0  0
 10  2  1  0  0  0  0
 12  8  2  0  0  0  0
 13  1  1  6  0  0  0
 13  3  1  0  0  0  0
 13  9  1  0  0  0  0
 14 16  1  0  0  0  0
 16 15  1  6  0  0  0
 16 17  1  0  0  0  0
 17 20  1  0  0  0  0
 18 17  2  0  0  0  0
 20 19  1  6  0  0  0
 20 21  1  0  0  0  0
 21 22  1  0  0  0  0
 22 23  1  0  0  0  0
 24 25  1  0  0  0  0
 24 23  1  0  0  0  0
M  END
>  <MODEL>
8

>  <REMARK>
 VINA RESULT:      -7.1      2.691      6.071
  Name = 
  8 active torsions:
  status: ('A' for Active; 'I' for Inactive)
    1  A    between atoms: C_1  and  C_9
    2  A    between atoms: C_1  and  C_12
    3  A    between atoms: C_4  and  C_12
    4  A    between atoms: C_7  and  C_11
    5  A    between atoms: C_7  and  C_20
    6  A    between atoms: C_9  and  C_20
    7  A    between atoms: C_11  and  C_15
    8  A    between atoms: C_15  and  C_19
                            x       y       z     vdW  Elec       q    Type
                         _______ _______ _______ _____ _____    ______ ____

>  <TORSDO>
F 8

$$$$
=
 OpenBabel11042411213D

 25 29  0  0  1  0  0  0  0  0999 V2000
  186.7230  177.6690  142.8600 O   0  0  0  0  0  0  0  0  0  0  0  0
  191.3320  176.7160  144.4010 N   0  0  0  0  0  2  0  0  0  0  0  0
  189.3880  176.7540  143.2770 C   0  0  2  0  0  0  0  0  0  0  0  0
  187.3490  176.9760  145.2690 C   0  0  2  0  0  3  0  0  0  0  0  0
  187.3680  177.9200  144.0640 C   0  0  2  0  0  0  0  0  0  0  0  0
  186.1890  177.8530  145.0430 C   0  0  0  0  0  2  0  0  0  0  0  0
  190.1320  175.6210  142.7360 N   0  0  0  0  0  2  0  0  0  0  0  0
  189.6590  177.7270  145.7640 C   0  0  0  0  0  3  0  0  0  0  0  0
  188.8870  177.6460  142.2070 C   0  0  2  0  0  3  0  0  0  0  0  0
  190.1760  177.2790  144.4460 C   0  0  1  0  0  3  0  0  0  0  0  0
  191.3520  175.8270  143.3520 O   0  0  0  0  0  0  0  0  0  0  0  0
  188.3830  177.5870  146.1600 C   0  0  0  0  0  3  0  0  0  0  0  0
  187.8450  176.8650  143.0590 C   0  0  2  0  0  0  0  0  0  0  0  0
  188.9120  177.0730  140.7910 C   0  0  0  0  0  2  0  0  0  0  0  0
  191.0350  177.0900  139.7100 O   0  0  0  0  0  1  0  0  0  0  0  0
  189.8860  177.8520  139.9160 C   0  0  1  0  0  3  0  0  0  0  0  0
  189.2720  178.2120  138.5900 C   0  0  0  0  0  0  0  0  0  0  0  0
  189.0700  179.3830  138.3080 O   0  0  0  0  0  0  0  0  0  0  0  0
  189.9890  176.9330  136.5910 C   0  0  0  0  0  1  0  0  0  0  0  0
  188.8820  177.1450  137.6060 C   0  0  2  0  0  3  0  0  0  0  0  0
  187.5850  177.4850  136.8880 C   0  0  0  0  0  2  0  0  0  0  0  0
  186.3890  177.1040  137.7410 C   0  0  0  0  0  2  0  0  0  0  0  0
  185.5530  178.3360  138.0120 C   0  0  0  0  0  2  0  0  0  0  0  0
  185.4560  178.5610  139.5060 C   0  0  0  0  0  2  0  0  0  0  0  0
  184.7640  179.7450  139.7530 O   0  0  0  0  0  1  0  0  0  0  0  0
  1  5  1  0  0  0  0
  2 10  1  0  0  0  0
  3  7  1  6  0  0  0
  3 10  1  0  0  0  0
  4  6  1  1  0  0  0
  4 12  1  0  0  0  0
  5  6  1  1  0  0  0
  5  4  1  0  0  0  0
  7 11  1  0  0  0  0
  8 12  2  0  0  0  0
  9 14  1  6  0  0  0
  9 13  1  0  0  0  0
  9  3  1  0  0  0  0
 10  8  1  1  0  0  0
 11  2  1  0  0  0  0
 13  1  1  6  0  0  0
 13  3  1  0  0  0  0
 13  5  1  0  0  0  0
 16 15  1  6  0  0  0
 16 14  1  0  0  0  0
 17 16  1  0  0  0  0
 18 17  2  0  0  0  0
 20 19  1  6  0  0  0
 20 17  1  0  0  0  0
 21 20  1  0  0  0  0
 21 22  1  0  0  0  0
 22 23  1  0  0  0  0
 23 24  1  0  0  0  0
 24 25  1  0  0  0  0
M  END
>  <MODEL>
9

>  <REMARK>
 VINA RESULT:      -7.0      2.703      4.317
  Name = 
  8 active torsions:
  status: ('A' for Active; 'I' for Inactive)
    1  A    between atoms: C_1  and  C_9
    2  A    between atoms: C_1  and  C_12
    3  A    between atoms: C_4  and  C_12
    4  A    between atoms: C_7  and  C_11
    5  A    between atoms: C_7  and  C_20
    6  A    between atoms: C_9  and  C_20
    7  A    between atoms: C_11  and  C_15
    8  A    between atoms: C_15  and  C_19
                            x       y       z     vdW  Elec       q    Type
                         _______ _______ _______ _____ _____    ______ ____

>  <TORSDO>
F 8

$$$$
