=
 OpenBabel11042412393D

 43 47  0  0  1  0  0  0  0  0999 V2000
  184.6100  177.1320  138.3660 N   0  0  0  0  0  0  0  0  0  0  0  0
  183.8370  178.1710  138.5010 C   0  0  0  0  0  0  0  0  0  0  0  0
  184.4110  180.3980  139.0610 O   0  0  0  0  0  0  0  0  0  0  0  0
  184.3400  178.9300  140.8740 N   0  0  0  0  0  0  0  0  0  0  0  0
  184.2000  179.2240  139.4700 C   0  0  0  0  0  0  0  0  0  0  0  0
  183.3260  178.2590  141.6370 C   0  0  0  0  0  3  0  0  0  0  0  0
  182.6820  178.8440  142.6430 C   0  0  0  0  0  2  0  0  0  0  0  0
  185.5090  179.4090  141.5950 C   0  0  0  0  0  2  0  0  0  0  0  0
  186.6410  178.4000  141.4970 C   0  0  0  0  0  2  0  0  0  0  0  0
  186.8450  177.7210  142.8090 C   0  0  0  0  0  0  0  0  0  0  0  0
  187.9820  177.0070  143.1740 C   0  0  0  0  0  0  0  0  0  0  0  0
  188.8780  178.1940  147.7110 C   0  0  0  0  0  1  0  0  0  0  0  0
  186.7750  177.8000  146.2780 C   0  0  0  0  0  2  0  0  0  0  0  0
  188.8080  176.9780  145.4660 C   0  0  0  0  0  0  0  0  0  0  0  0
  188.1800  177.5230  146.6260 N   0  0  0  0  0  0  0  0  0  0  0  0
  187.7840  176.7820  144.5030 C   0  0  0  0  0  0  0  0  0  0  0  0
  190.1520  175.8170  142.9570 C   0  0  0  0  0  2  0  0  0  0  0  0
  186.6340  177.2960  144.9110 N   0  0  0  0  0  0  0  0  0  0  0  0
  190.5100  177.1380  143.6180 C   0  0  0  0  0  0  0  0  0  0  0  0
  190.0700  177.2190  145.0820 C   0  0  0  0  0  3  0  0  0  0  0  0
  189.3650  177.0650  142.5650 C   0  0  0  0  0  0  0  0  0  0  0  0
  186.0590  177.9270  143.8980 N   0  0  0  0  0  0  0  0  0  0  0  0
  182.6020  178.3360  137.6620 C   0  0  0  0  0  2  0  0  0  0  0  0
  180.5370  179.4990  138.2710 N   0  0  0  0  0  0  0  0  0  0  0  0
  181.4040  178.5840  138.5310 C   0  0  0  0  0  3  0  0  0  0  0  0
  180.6370  180.3680  137.1240 C   0  0  0  0  0  2  0  0  0  0  0  0
  181.6020  181.9830  138.5800 O   0  0  0  0  0  0  0  0  0  0  0  0
  180.8730  181.7670  137.5730 C   0  0  0  0  0  0  0  0  0  0  0  0
  180.2670  182.8210  136.8870 O   0  0  0  0  0  0  0  0  0  0  0  0
  181.5940  184.7780  137.2840 C   0  0  0  0  0  2  0  0  0  0  0  0
  180.3720  185.1780  136.4830 C   0  0  0  0  0  2  0  0  0  0  0  0
  181.0290  183.8340  136.2420 C   0  0  0  0  0  3  0  0  0  0  0  0
  184.3690  176.0370  137.4350 C   0  0  0  0  0  2  0  0  0  0  0  0
  185.5580  175.8630  136.5050 C   0  0  0  0  0  2  0  0  0  0  0  0
  186.4430  174.7730  137.0140 C   0  0  0  0  0  0  0  0  0  0  0  0
  187.8630  174.8520  136.8770 N   0  0  0  0  0  2  0  0  0  0  0  0
  185.9320  173.7800  137.5950 O   0  0  0  0  0  0  0  0  0  0  0  0
  188.8300  177.0560  136.7170 C   0  0  0  0  0  3  0  0  0  0  0  0
  188.5070  175.8980  136.1460 C   0  0  0  0  0  3  0  0  0  0  0  0
  189.8170  177.3330  138.9450 C   0  0  0  0  0  1  0  0  0  0  0  0
  188.5280  177.3680  138.1470 C   0  0  1  0  0  3  0  0  0  0  0  0
  187.9640  178.6430  138.2380 O   0  0  0  0  0  0  0  0  0  0  0  0
  188.9760  179.4400  138.5160 O   0  0  0  0  0  1  0  0  0  0  0  0
  1  2  2  0  0  0  0
  2  5  1  0  0  0  0
  3  5  2  0  0  0  0
  4  8  1  0  0  0  0
  4  6  1  0  0  0  0
  5  4  1  0  0  0  0
  6  7  2  0  0  0  0
  9  8  1  0  0  0  0
  9 10  1  0  0  0  0
 10 11  1  0  0  0  0
 10 22  2  0  0  0  0
 11 16  1  0  0  0  0
 13 15  1  0  0  0  0
 14 15  1  0  0  0  0
 15 12  1  0  0  0  0
 16 18  1  0  0  0  0
 16 14  2  0  0  0  0
 17 19  1  0  0  0  0
 18 13  1  0  0  0  0
 19 20  2  3  0  0  0
 20 14  1  0  0  0  0
 21 17  1  0  0  0  0
 21 11  2  3  0  0  0
 21 19  1  0  0  0  0
 22 18  1  0  0  0  0
 23  2  1  0  0  0  0
 23 25  1  0  0  0  0
 24 25  2  0  0  0  0
 26 28  1  0  0  0  0
 26 24  1  0  0  0  0
 28 27  2  0  0  0  0
 29 28  1  0  0  0  0
 31 30  1  0  0  0  0
 32 31  1  0  0  0  0
 32 29  1  0  0  0  0
 32 30  1  0  0  0  0
 33  1  1  0  0  0  0
 34 35  1  0  0  0  0
 34 33  1  0  0  0  0
 35 37  2  0  0  0  0
 36 35  1  0  0  0  0
 38 41  1  0  0  0  0
 39 38  2  0  0  0  0
 39 36  1  0  0  0  0
 41 42  1  0  0  0  0
 41 40  1  1  0  0  0
 42 43  1  0  0  0  0
M  END
>  <MODEL>
1

>  <REMARK>
 VINA RESULT:      -7.3      0.000      0.000
  Name = 
  17 active torsions:
  status: ('A' for Active; 'I' for Inactive)
    1  A    between atoms: C_2  and  C_6
    2  A    between atoms: N_3  and  C_29
    3  A    between atoms: C_4  and  C_40
    4  A    between atoms: C_5  and  C_6
    5  A    between atoms: C_5  and  N_11
    6  A    between atoms: C_10  and  C_39
    7  A    between atoms: N_11  and  C_12
    8  A    between atoms: N_13  and  C_20
    9  A    between atoms: C_19  and  C_26
   10  A    between atoms: C_20  and  C_38
   11  A    between atoms: C_22  and  N_37
   12  A    between atoms: C_26  and  C_31
   13  A    between atoms: O_27  and  C_36
   14  A    between atoms: O_27  and  C_38
   15  A    between atoms: O_28  and  C_39
   16  A    between atoms: C_29  and  C_40
   17  A    between atoms: C_31  and  C_43
                            x       y       z     vdW  Elec       q    Type
                         _______ _______ _______ _____ _____    ______ ____

>  <TORSDO>
F 17

$$$$
=
 OpenBabel11042412393D

 43 47  0  0  1  0  0  0  0  0999 V2000
  182.1530  179.0950  140.9400 N   0  0  0  0  0  0  0  0  0  0  0  0
  183.2300  178.4260  140.6430 C   0  0  0  0  0  0  0  0  0  0  0  0
  185.1570  179.7790  140.4140 O   0  0  0  0  0  0  0  0  0  0  0  0
  185.1430  178.4250  142.3150 N   0  0  0  0  0  0  0  0  0  0  0  0
  184.5420  178.9210  141.1040 C   0  0  0  0  0  0  0  0  0  0  0  0
  184.4570  178.3980  143.5760 C   0  0  0  0  0  3  0  0  0  0  0  0
  184.1740  179.5020  144.2610 C   0  0  0  0  0  2  0  0  0  0  0  0
  186.5400  178.0170  142.3090 C   0  0  0  0  0  2  0  0  0  0  0  0
  186.8240  177.0880  143.4770 C   0  0  0  0  0  2  0  0  0  0  0  0
  188.1170  177.4530  144.1260 C   0  0  0  0  0  0  0  0  0  0  0  0
  188.2680  177.8290  145.4570 C   0  0  0  0  0  0  0  0  0  0  0  0
  192.2350  175.6600  146.9920 C   0  0  0  0  0  1  0  0  0  0  0  0
  191.4500  176.7500  144.7950 C   0  0  0  0  0  2  0  0  0  0  0  0
  190.2580  177.2570  146.7420 C   0  0  0  0  0  0  0  0  0  0  0  0
  191.4600  176.6530  146.2660 N   0  0  0  0  0  0  0  0  0  0  0  0
  189.6210  177.8410  145.6160 C   0  0  0  0  0  0  0  0  0  0  0  0
  187.6600  178.5500  147.7540 C   0  0  0  0  0  2  0  0  0  0  0  0
  190.2400  177.5160  144.4910 N   0  0  0  0  0  0  0  0  0  0  0  0
  188.0310  177.0840  147.9050 C   0  0  0  0  0  0  0  0  0  0  0  0
  189.5370  176.8290  147.7880 C   0  0  0  0  0  3  0  0  0  0  0  0
  187.3240  177.5930  146.6140 C   0  0  0  0  0  0  0  0  0  0  0  0
  189.3350  177.2200  143.5700 N   0  0  0  0  0  0  0  0  0  0  0  0
  183.1570  177.1380  139.8720 C   0  0  0  0  0  2  0  0  0  0  0  0
  183.5000  176.4460  137.5500 N   0  0  0  0  0  0  0  0  0  0  0  0
  183.6420  177.3390  138.4660 C   0  0  0  0  0  3  0  0  0  0  0  0
  182.8640  175.1720  137.7910 C   0  0  0  0  0  2  0  0  0  0  0  0
  185.0310  174.2550  137.4420 O   0  0  0  0  0  0  0  0  0  0  0  0
  183.7840  174.0700  137.3990 C   0  0  0  0  0  0  0  0  0  0  0  0
  183.2530  172.8530  136.9690 O   0  0  0  0  0  0  0  0  0  0  0  0
  184.3520  171.2850  135.5270 C   0  0  0  0  0  2  0  0  0  0  0  0
  183.2410  170.5660  136.2620 C   0  0  0  0  0  2  0  0  0  0  0  0
  184.0260  171.6590  136.9580 C   0  0  0  0  0  3  0  0  0  0  0  0
  180.8020  178.7020  140.5570 C   0  0  0  0  0  2  0  0  0  0  0  0
  180.0450  179.8930  139.9960 C   0  0  0  0  0  2  0  0  0  0  0  0
  180.0200  179.8190  138.5030 C   0  0  0  0  0  0  0  0  0  0  0  0
  179.8660  180.9970  137.7100 N   0  0  0  0  0  2  0  0  0  0  0  0
  180.1620  178.7050  137.9360 O   0  0  0  0  0  0  0  0  0  0  0  0
  180.0490  183.4020  137.7210 C   0  0  0  0  0  3  0  0  0  0  0  0
  179.6020  182.2800  138.2820 C   0  0  0  0  0  3  0  0  0  0  0  0
  179.9550  183.3560  135.2700 C   0  0  0  0  0  1  0  0  0  0  0  0
  180.8750  183.4140  136.4750 C   0  0  1  0  0  3  0  0  0  0  0  0
  181.6260  184.5900  136.4240 O   0  0  0  0  0  0  0  0  0  0  0  0
  182.2750  184.6260  137.5710 O   0  0  0  0  0  1  0  0  0  0  0  0
  2  1  2  0  0  0  0
  2  5  1  0  0  0  0
  3  5  2  0  0  0  0
  4  6  1  0  0  0  0
  5  4  1  0  0  0  0
  6  7  2  0  0  0  0
  8  4  1  0  0  0  0
  8  9  1  0  0  0  0
  9 10  1  0  0  0  0
 10 11  1  0  0  0  0
 11 16  2  0  0  0  0
 11 21  1  0  0  0  0
 13 15  1  0  0  0  0
 14 20  2  0  0  0  0
 15 14  1  0  0  0  0
 15 12  1  0  0  0  0
 16 14  1  0  0  0  0
 17 19  1  0  0  0  0
 18 13  1  0  0  0  0
 18 16  1  0  0  0  0
 20 19  1  0  0  0  0
 21 17  1  0  0  0  0
 21 19  2  0  0  0  0
 22 10  2  0  0  0  0
 22 18  1  0  0  0  0
 23  2  1  0  0  0  0
 24 26  1  0  0  0  0
 24 25  2  0  0  0  0
 25 23  1  0  0  0  0
 28 27  2  0  0  0  0
 28 26  1  0  0  0  0
 29 28  1  0  0  0  0
 30 31  1  0  0  0  0
 30 32  1  0  0  0  0
 31 32  1  0  0  0  0
 32 29  1  0  0  0  0
 33  1  1  0  0  0  0
 34 33  1  0  0  0  0
 35 34  1  0  0  0  0
 36 39  1  0  0  0  0
 36 35  1  0  0  0  0
 37 35  2  0  0  0  0
 38 39  2  0  0  0  0
 41 40  1  6  0  0  0
 41 38  1  0  0  0  0
 42 41  1  0  0  0  0
 42 43  1  0  0  0  0
M  END
>  <MODEL>
2

>  <REMARK>
 VINA RESULT:      -7.2      2.500      6.955
  Name = 
  17 active torsions:
  status: ('A' for Active; 'I' for Inactive)
    1  A    between atoms: C_2  and  C_6
    2  A    between atoms: N_3  and  C_29
    3  A    between atoms: C_4  and  C_40
    4  A    between atoms: C_5  and  C_6
    5  A    between atoms: C_5  and  N_11
    6  A    between atoms: C_10  and  C_39
    7  A    between atoms: N_11  and  C_12
    8  A    between atoms: N_13  and  C_20
    9  A    between atoms: C_19  and  C_26
   10  A    between atoms: C_20  and  C_38
   11  A    between atoms: C_22  and  N_37
   12  A    between atoms: C_26  and  C_31
   13  A    between atoms: O_27  and  C_36
   14  A    between atoms: O_27  and  C_38
   15  A    between atoms: O_28  and  C_39
   16  A    between atoms: C_29  and  C_40
   17  A    between atoms: C_31  and  C_43
                            x       y       z     vdW  Elec       q    Type
                         _______ _______ _______ _____ _____    ______ ____

>  <TORSDO>
F 17

$$$$
=
 OpenBabel11042412393D

 43 47  0  0  1  0  0  0  0  0999 V2000
  185.2190  177.5040  137.9260 N   0  0  0  0  0  0  0  0  0  0  0  0
  184.2000  177.9910  138.5740 C   0  0  0  0  0  0  0  0  0  0  0  0
  184.5650  180.2680  139.1030 O   0  0  0  0  0  0  0  0  0  0  0  0
  184.4630  178.8470  140.9520 N   0  0  0  0  0  0  0  0  0  0  0  0
  184.4090  179.0930  139.5340 C   0  0  0  0  0  0  0  0  0  0  0  0
  183.4460  178.1220  141.6600 C   0  0  0  0  0  3  0  0  0  0  0  0
  182.2290  178.6140  141.8680 C   0  0  0  0  0  2  0  0  0  0  0  0
  185.5360  179.4310  141.7420 C   0  0  0  0  0  2  0  0  0  0  0  0
  186.7690  178.5440  141.6990 C   0  0  0  0  0  2  0  0  0  0  0  0
  186.9380  177.8300  142.9980 C   0  0  0  0  0  0  0  0  0  0  0  0
  188.1170  177.2390  143.4390 C   0  0  0  0  0  0  0  0  0  0  0  0
  188.4620  178.2990  148.0820 C   0  0  0  0  0  1  0  0  0  0  0  0
  186.5560  177.7300  146.4460 C   0  0  0  0  0  2  0  0  0  0  0  0
  188.7370  177.1950  145.7950 C   0  0  0  0  0  0  0  0  0  0  0  0
  187.9490  177.6040  146.9120 N   0  0  0  0  0  0  0  0  0  0  0  0
  187.8330  176.9270  144.7350 C   0  0  0  0  0  0  0  0  0  0  0  0
  190.4270  176.3250  143.3790 C   0  0  0  0  0  2  0  0  0  0  0  0
  186.5980  177.2810  145.0540 N   0  0  0  0  0  0  0  0  0  0  0  0
  190.5620  177.6450  144.1200 C   0  0  0  0  0  0  0  0  0  0  0  0
  189.9890  177.6020  145.5390 C   0  0  0  0  0  3  0  0  0  0  0  0
  189.5310  177.4890  142.9640 C   0  0  0  0  0  0  0  0  0  0  0  0
  186.0410  177.8890  144.0170 N   0  0  0  0  0  0  0  0  0  0  0  0
  182.8090  177.4750  138.3360 C   0  0  0  0  0  2  0  0  0  0  0  0
  181.9120  175.1990  138.4020 N   0  0  0  0  0  0  0  0  0  0  0  0
  182.6420  176.1120  138.9410 C   0  0  0  0  0  3  0  0  0  0  0  0
  181.1880  175.4020  137.1700 C   0  0  0  0  0  2  0  0  0  0  0  0
  182.3050  175.5960  135.0790 O   0  0  0  0  0  0  0  0  0  0  0  0
  181.9670  174.8420  136.0320 C   0  0  0  0  0  0  0  0  0  0  0  0
  182.2920  173.4860  136.0240 O   0  0  0  0  0  0  0  0  0  0  0  0
  183.6740  171.5500  135.7260 C   0  0  0  0  0  2  0  0  0  0  0  0
  183.8480  172.0520  137.1440 C   0  0  0  0  0  2  0  0  0  0  0  0
  183.6420  173.0370  136.0120 C   0  0  0  0  0  3  0  0  0  0  0  0
  185.1390  176.4290  136.9440 C   0  0  0  0  0  2  0  0  0  0  0  0
  186.4690  176.2690  136.2270 C   0  0  0  0  0  2  0  0  0  0  0  0
  187.2850  175.2170  136.9040 C   0  0  0  0  0  0  0  0  0  0  0  0
  188.6970  175.3700  137.0640 N   0  0  0  0  0  2  0  0  0  0  0  0
  186.7180  174.1920  137.3620 O   0  0  0  0  0  0  0  0  0  0  0  0
  189.7240  177.5490  137.1850 C   0  0  0  0  0  3  0  0  0  0  0  0
  189.4220  176.4570  136.4860 C   0  0  0  0  0  3  0  0  0  0  0  0
  190.4860  177.4120  139.5130 C   0  0  0  0  0  1  0  0  0  0  0  0
  189.3120  177.7400  138.6100 C   0  0  1  0  0  3  0  0  0  0  0  0
  188.9320  179.0690  138.8120 O   0  0  0  0  0  0  0  0  0  0  0  0
  188.9210  179.6030  137.6070 O   0  0  0  0  0  1  0  0  0  0  0  0
  1  2  2  0  0  0  0
  2  5  1  0  0  0  0
  3  5  2  0  0  0  0
  4  6  1  0  0  0  0
  4  8  1  0  0  0  0
  5  4  1  0  0  0  0
  6  7  2  0  0  0  0
  9  8  1  0  0  0  0
  9 10  1  0  0  0  0
 10 11  1  0  0  0  0
 10 22  2  0  0  0  0
 11 16  1  0  0  0  0
 13 15  1  0  0  0  0
 14 15  1  0  0  0  0
 15 12  1  0  0  0  0
 16 18  1  0  0  0  0
 16 14  2  0  0  0  0
 17 19  1  0  0  0  0
 18 13  1  0  0  0  0
 19 20  2  3  0  0  0
 20 14  1  0  0  0  0
 21 17  1  0  0  0  0
 21 11  2  3  0  0  0
 21 19  1  0  0  0  0
 22 18  1  0  0  0  0
 23  2  1  0  0  0  0
 23 25  1  0  0  0  0
 24 25  2  0  0  0  0
 26 24  1  0  0  0  0
 27 28  2  0  0  0  0
 28 26  1  0  0  0  0
 29 28  1  0  0  0  0
 30 32  1  0  0  0  0
 30 31  1  0  0  0  0
 32 29  1  0  0  0  0
 32 31  1  0  0  0  0
 33  1  1  0  0  0  0
 34 35  1  0  0  0  0
 34 33  1  0  0  0  0
 35 36  1  0  0  0  0
 35 37  2  0  0  0  0
 38 41  1  0  0  0  0
 39 36  1  0  0  0  0
 39 38  2  0  0  0  0
 41 42  1  0  0  0  0
 41 40  1  1  0  0  0
 43 42  1  0  0  0  0
M  END
>  <MODEL>
3

>  <REMARK>
 VINA RESULT:      -7.2      2.511      4.198
  Name = 
  17 active torsions:
  status: ('A' for Active; 'I' for Inactive)
    1  A    between atoms: C_2  and  C_6
    2  A    between atoms: N_3  and  C_29
    3  A    between atoms: C_4  and  C_40
    4  A    between atoms: C_5  and  C_6
    5  A    between atoms: C_5  and  N_11
    6  A    between atoms: C_10  and  C_39
    7  A    between atoms: N_11  and  C_12
    8  A    between atoms: N_13  and  C_20
    9  A    between atoms: C_19  and  C_26
   10  A    between atoms: C_20  and  C_38
   11  A    between atoms: C_22  and  N_37
   12  A    between atoms: C_26  and  C_31
   13  A    between atoms: O_27  and  C_36
   14  A    between atoms: O_27  and  C_38
   15  A    between atoms: O_28  and  C_39
   16  A    between atoms: C_29  and  C_40
   17  A    between atoms: C_31  and  C_43
                            x       y       z     vdW  Elec       q    Type
                         _______ _______ _______ _____ _____    ______ ____

>  <TORSDO>
F 17

$$$$
=
 OpenBabel11042412393D

 43 47  0  0  1  0  0  0  0  0999 V2000
  185.6320  177.8390  137.7960 N   0  0  0  0  0  0  0  0  0  0  0  0
  184.4760  178.0190  138.3660 C   0  0  0  0  0  0  0  0  0  0  0  0
  184.5860  180.2550  139.1330 O   0  0  0  0  0  0  0  0  0  0  0  0
  183.9410  178.7050  140.7540 N   0  0  0  0  0  0  0  0  0  0  0  0
  184.3360  179.0510  139.4120 C   0  0  0  0  0  0  0  0  0  0  0  0
  182.7720  177.9240  141.0490 C   0  0  0  0  0  3  0  0  0  0  0  0
  181.6630  178.4570  141.5500 C   0  0  0  0  0  2  0  0  0  0  0  0
  184.6870  179.2380  141.8830 C   0  0  0  0  0  2  0  0  0  0  0  0
  186.1370  178.7880  141.8180 C   0  0  0  0  0  2  0  0  0  0  0  0
  186.4880  177.9950  143.0320 C   0  0  0  0  0  0  0  0  0  0  0  0
  187.6870  177.3200  143.2300 C   0  0  0  0  0  0  0  0  0  0  0  0
  188.9010  178.1000  147.7810 C   0  0  0  0  0  1  0  0  0  0  0  0
  186.7080  177.7220  146.4860 C   0  0  0  0  0  2  0  0  0  0  0  0
  188.7060  177.1120  145.4340 C   0  0  0  0  0  0  0  0  0  0  0  0
  188.1510  177.4990  146.6910 N   0  0  0  0  0  0  0  0  0  0  0  0
  187.6150  176.9510  144.5390 C   0  0  0  0  0  0  0  0  0  0  0  0
  189.8910  176.2930  142.7190 C   0  0  0  0  0  2  0  0  0  0  0  0
  186.4790  177.3500  145.0890 N   0  0  0  0  0  0  0  0  0  0  0  0
  190.2340  177.5610  143.4830 C   0  0  0  0  0  0  0  0  0  0  0  0
  189.9150  177.4680  144.9780 C   0  0  0  0  0  3  0  0  0  0  0  0
  189.0090  177.5230  142.5230 C   0  0  0  0  0  0  0  0  0  0  0  0
  185.7870  178.0430  144.1960 N   0  0  0  0  0  0  0  0  0  0  0  0
  183.2720  177.2200  137.9530 C   0  0  0  0  0  2  0  0  0  0  0  0
  182.9100  174.8040  137.8150 N   0  0  0  0  0  0  0  0  0  0  0  0
  183.3720  175.8140  138.4660 C   0  0  0  0  0  3  0  0  0  0  0  0
  182.2540  174.9320  136.5360 C   0  0  0  0  0  2  0  0  0  0  0  0
  180.1780  174.2860  135.5680 O   0  0  0  0  0  0  0  0  0  0  0  0
  180.8970  174.3230  136.6050 C   0  0  0  0  0  0  0  0  0  0  0  0
  180.4300  173.8210  137.8200 O   0  0  0  0  0  0  0  0  0  0  0  0
  179.5420  175.8860  138.6530 C   0  0  0  0  0  2  0  0  0  0  0  0
  179.7760  174.9550  139.8240 C   0  0  0  0  0  2  0  0  0  0  0  0
  179.3170  174.3970  138.4930 C   0  0  0  0  0  3  0  0  0  0  0  0
  185.8930  176.8640  136.7430 C   0  0  0  0  0  2  0  0  0  0  0  0
  187.3270  176.3680  136.8270 C   0  0  0  0  0  2  0  0  0  0  0  0
  188.2460  177.3710  136.2100 C   0  0  0  0  0  0  0  0  0  0  0  0
  189.3010  177.9660  136.9670 N   0  0  0  0  0  2  0  0  0  0  0  0
  188.1050  177.6780  134.9980 O   0  0  0  0  0  0  0  0  0  0  0  0
  190.3580  176.8750  138.8410 C   0  0  0  0  0  3  0  0  0  0  0  0
  189.4630  177.7400  138.3690 C   0  0  0  0  0  3  0  0  0  0  0  0
  192.6670  176.5560  138.0780 C   0  0  0  0  0  1  0  0  0  0  0  0
  191.2400  176.0560  137.9550 C   0  0  1  0  0  3  0  0  0  0  0  0
  191.1860  174.7170  138.3500 O   0  0  0  0  0  0  0  0  0  0  0  0
  190.2920  174.1670  137.5530 O   0  0  0  0  0  1  0  0  0  0  0  0
  1  2  2  0  0  0  0
  2  5  1  0  0  0  0
  3  5  2  0  0  0  0
  4  6  1  0  0  0  0
  4  8  1  0  0  0  0
  5  4  1  0  0  0  0
  6  7  2  0  0  0  0
  9  8  1  0  0  0  0
  9 10  1  0  0  0  0
 10 11  1  0  0  0  0
 10 22  2  0  0  0  0
 11 16  1  0  0  0  0
 13 15  1  0  0  0  0
 14 15  1  0  0  0  0
 15 12  1  0  0  0  0
 16 18  1  0  0  0  0
 16 14  2  0  0  0  0
 17 19  1  0  0  0  0
 18 13  1  0  0  0  0
 19 20  2  3  0  0  0
 20 14  1  0  0  0  0
 21 17  1  0  0  0  0
 21 11  2  3  0  0  0
 21 19  1  0  0  0  0
 22 18  1  0  0  0  0
 23  2  1  0  0  0  0
 23 25  1  0  0  0  0
 24 25  2  0  0  0  0
 26 28  1  0  0  0  0
 26 24  1  0  0  0  0
 27 28  2  0  0  0  0
 28 29  1  0  0  0  0
 29 32  1  0  0  0  0
 30 31  1  0  0  0  0
 32 30  1  0  0  0  0
 32 31  1  0  0  0  0
 33 34  1  0  0  0  0
 33  1  1  0  0  0  0
 35 34  1  0  0  0  0
 35 36  1  0  0  0  0
 36 39  1  0  0  0  0
 37 35  2  0  0  0  0
 39 38  2  0  0  0  0
 41 40  1  1  0  0  0
 41 42  1  0  0  0  0
 41 38  1  0  0  0  0
 43 42  1  0  0  0  0
M  END
>  <MODEL>
4

>  <REMARK>
 VINA RESULT:      -6.8      2.803      4.139
  Name = 
  17 active torsions:
  status: ('A' for Active; 'I' for Inactive)
    1  A    between atoms: C_2  and  C_6
    2  A    between atoms: N_3  and  C_29
    3  A    between atoms: C_4  and  C_40
    4  A    between atoms: C_5  and  C_6
    5  A    between atoms: C_5  and  N_11
    6  A    between atoms: C_10  and  C_39
    7  A    between atoms: N_11  and  C_12
    8  A    between atoms: N_13  and  C_20
    9  A    between atoms: C_19  and  C_26
   10  A    between atoms: C_20  and  C_38
   11  A    between atoms: C_22  and  N_37
   12  A    between atoms: C_26  and  C_31
   13  A    between atoms: O_27  and  C_36
   14  A    between atoms: O_27  and  C_38
   15  A    between atoms: O_28  and  C_39
   16  A    between atoms: C_29  and  C_40
   17  A    between atoms: C_31  and  C_43
                            x       y       z     vdW  Elec       q    Type
                         _______ _______ _______ _____ _____    ______ ____

>  <TORSDO>
F 17

$$$$
=
 OpenBabel11042412393D

 43 47  0  0  1  0  0  0  0  0999 V2000
  188.7610  177.4790  139.7280 N   0  0  0  0  0  0  0  0  0  0  0  0
  188.8660  177.7130  138.4520 C   0  0  0  0  0  0  0  0  0  0  0  0
  187.7370  179.2840  137.0890 O   0  0  0  0  0  0  0  0  0  0  0  0
  186.4660  177.4140  137.6720 N   0  0  0  0  0  0  0  0  0  0  0  0
  187.6850  178.1820  137.7000 C   0  0  0  0  0  0  0  0  0  0  0  0
  186.4250  176.0240  137.3130 C   0  0  0  0  0  3  0  0  0  0  0  0
  186.5940  175.6010  136.0650 C   0  0  0  0  0  2  0  0  0  0  0  0
  185.1940  178.0760  137.9180 C   0  0  0  0  0  2  0  0  0  0  0  0
  185.2300  178.8120  139.2470 C   0  0  0  0  0  2  0  0  0  0  0  0
  184.0670  178.4110  140.0920 C   0  0  0  0  0  0  0  0  0  0  0  0
  184.0860  178.2940  141.4780 C   0  0  0  0  0  0  0  0  0  0  0  0
  179.9680  180.1620  143.0100 C   0  0  0  0  0  1  0  0  0  0  0  0
  180.7320  178.7700  140.9830 C   0  0  0  0  0  2  0  0  0  0  0  0
  182.1440  178.8350  142.8460 C   0  0  0  0  0  0  0  0  0  0  0  0
  180.8270  179.1600  142.4020 N   0  0  0  0  0  0  0  0  0  0  0  0
  182.7700  178.1280  141.7850 C   0  0  0  0  0  0  0  0  0  0  0  0
  184.9870  178.1410  143.7880 C   0  0  0  0  0  2  0  0  0  0  0  0
  182.0170  178.1320  140.6960 N   0  0  0  0  0  0  0  0  0  0  0  0
  184.4040  179.5420  143.7020 C   0  0  0  0  0  0  0  0  0  0  0  0
  182.8730  179.5590  143.7070 C   0  0  0  0  0  3  0  0  0  0  0  0
  185.0730  178.8860  142.4580 C   0  0  0  0  0  0  0  0  0  0  0  0
  182.7870  178.3570  139.6410 N   0  0  0  0  0  0  0  0  0  0  0  0
  190.1770  177.5490  137.7370 C   0  0  0  0  0  2  0  0  0  0  0  0
  190.9070  176.1490  135.8670 N   0  0  0  0  0  0  0  0  0  0  0  0
  189.9790  176.8440  136.4280 C   0  0  0  0  0  3  0  0  0  0  0  0
  192.2200  175.9870  136.4440 C   0  0  0  0  0  2  0  0  0  0  0  0
  191.5620  174.2580  137.9400 O   0  0  0  0  0  0  0  0  0  0  0  0
  192.3490  174.6230  137.0240 C   0  0  0  0  0  0  0  0  0  0  0  0
  193.3540  173.7720  136.5610 O   0  0  0  0  0  0  0  0  0  0  0  0
  194.9770  173.1700  138.2190 C   0  0  0  0  0  2  0  0  0  0  0  0
  194.7730  174.6700  138.2660 C   0  0  0  0  0  2  0  0  0  0  0  0
  194.7140  173.9400  136.9410 C   0  0  0  0  0  3  0  0  0  0  0  0
  189.8550  177.0280  140.5800 C   0  0  0  0  0  2  0  0  0  0  0  0
  189.3670  176.8330  142.0060 C   0  0  0  0  0  2  0  0  0  0  0  0
  190.2260  177.6150  142.9460 C   0  0  0  0  0  0  0  0  0  0  0  0
  189.7830  177.9180  144.2690 N   0  0  0  0  0  2  0  0  0  0  0  0
  191.3680  177.9910  142.5740 O   0  0  0  0  0  0  0  0  0  0  0  0
  188.1780  177.5220  146.0250 C   0  0  0  0  0  3  0  0  0  0  0  0
  188.4650  177.6100  144.7280 C   0  0  0  0  0  3  0  0  0  0  0  0
  188.5120  178.1840  148.3630 C   0  0  0  0  0  1  0  0  0  0  0  0
  189.2010  177.7090  147.0980 C   0  0  1  0  0  3  0  0  0  0  0  0
  189.8400  176.4930  147.3510 O   0  0  0  0  0  0  0  0  0  0  0  0
  191.1270  176.7720  147.3020 O   0  0  0  0  0  1  0  0  0  0  0  0
  1 33  1  0  0  0  0
  2  1  2  0  0  0  0
  3  5  2  0  0  0  0
  4  5  1  0  0  0  0
  4  8  1  0  0  0  0
  5  2  1  0  0  0  0
  6  4  1  0  0  0  0
  7  6  2  0  0  0  0
  8  9  1  0  0  0  0
  9 10  1  0  0  0  0
 10 11  1  0  0  0  0
 11 16  2  0  0  0  0
 11 21  1  0  0  0  0
 13 15  1  0  0  0  0
 14 20  2  0  0  0  0
 15 14  1  0  0  0  0
 15 12  1  0  0  0  0
 16 14  1  0  0  0  0
 18 13  1  0  0  0  0
 18 16  1  0  0  0  0
 19 20  1  0  0  0  0
 19 17  1  0  0  0  0
 21 19  2  0  0  0  0
 21 17  1  0  0  0  0
 22 10  2  0  0  0  0
 22 18  1  0  0  0  0
 23  2  1  0  0  0  0
 24 25  2  0  0  0  0
 24 26  1  0  0  0  0
 25 23  1  0  0  0  0
 26 28  1  0  0  0  0
 28 27  2  0  0  0  0
 29 32  1  0  0  0  0
 29 28  1  0  0  0  0
 30 31  1  0  0  0  0
 32 30  1  0  0  0  0
 32 31  1  0  0  0  0
 33 34  1  0  0  0  0
 34 35  1  0  0  0  0
 35 36  1  0  0  0  0
 36 39  1  0  0  0  0
 37 35  2  0  0  0  0
 38 41  1  0  0  0  0
 39 38  2  0  0  0  0
 41 42  1  0  0  0  0
 41 40  1  1  0  0  0
 43 42  1  0  0  0  0
M  END
>  <MODEL>
5

>  <REMARK>
 VINA RESULT:      -6.8      3.574      9.085
  Name = 
  17 active torsions:
  status: ('A' for Active; 'I' for Inactive)
    1  A    between atoms: C_2  and  C_6
    2  A    between atoms: N_3  and  C_29
    3  A    between atoms: C_4  and  C_40
    4  A    between atoms: C_5  and  C_6
    5  A    between atoms: C_5  and  N_11
    6  A    between atoms: C_10  and  C_39
    7  A    between atoms: N_11  and  C_12
    8  A    between atoms: N_13  and  C_20
    9  A    between atoms: C_19  and  C_26
   10  A    between atoms: C_20  and  C_38
   11  A    between atoms: C_22  and  N_37
   12  A    between atoms: C_26  and  C_31
   13  A    between atoms: O_27  and  C_36
   14  A    between atoms: O_27  and  C_38
   15  A    between atoms: O_28  and  C_39
   16  A    between atoms: C_29  and  C_40
   17  A    between atoms: C_31  and  C_43
                            x       y       z     vdW  Elec       q    Type
                         _______ _______ _______ _____ _____    ______ ____

>  <TORSDO>
F 17

$$$$
=
 OpenBabel11042412393D

 43 47  0  0  1  0  0  0  0  0999 V2000
  184.1440  177.2700  138.5580 N   0  0  0  0  0  0  0  0  0  0  0  0
  183.6390  178.1160  139.4090 C   0  0  0  0  0  0  0  0  0  0  0  0
  184.9180  180.0880  139.6880 O   0  0  0  0  0  0  0  0  0  0  0  0
  185.0190  178.6030  141.4860 N   0  0  0  0  0  0  0  0  0  0  0  0
  184.5410  178.9910  140.1830 C   0  0  0  0  0  0  0  0  0  0  0  0
  184.1470  178.1830  142.5460 C   0  0  0  0  0  3  0  0  0  0  0  0
  183.6900  179.0200  143.4720 C   0  0  0  0  0  2  0  0  0  0  0  0
  186.4350  178.7270  141.7980 C   0  0  0  0  0  2  0  0  0  0  0  0
  186.9050  177.5270  142.6030 C   0  0  0  0  0  2  0  0  0  0  0  0
  188.1000  177.8890  143.4210 C   0  0  0  0  0  0  0  0  0  0  0  0
  188.1030  178.0650  144.8000 C   0  0  0  0  0  0  0  0  0  0  0  0
  192.1110  176.0050  146.3780 C   0  0  0  0  0  1  0  0  0  0  0  0
  191.4150  177.3570  144.3000 C   0  0  0  0  0  2  0  0  0  0  0  0
  190.0220  177.4600  146.1750 C   0  0  0  0  0  0  0  0  0  0  0  0
  191.3110  177.0340  145.7340 N   0  0  0  0  0  0  0  0  0  0  0  0
  189.4310  178.1590  145.0900 C   0  0  0  0  0  0  0  0  0  0  0  0
  187.2390  178.3710  147.1090 C   0  0  0  0  0  2  0  0  0  0  0  0
  190.1700  178.0630  143.9960 N   0  0  0  0  0  0  0  0  0  0  0  0
  187.7310  176.9340  147.0780 C   0  0  0  0  0  0  0  0  0  0  0  0
  189.2580  176.8190  147.0720 C   0  0  0  0  0  3  0  0  0  0  0  0
  187.0910  177.5780  145.8130 C   0  0  0  0  0  0  0  0  0  0  0  0
  189.3760  177.8420  142.9570 N   0  0  0  0  0  0  0  0  0  0  0  0
  182.1530  178.2440  139.5900 C   0  0  0  0  0  2  0  0  0  0  0  0
  180.3340  176.7710  140.3040 N   0  0  0  0  0  0  0  0  0  0  0  0
  181.5970  177.0200  140.2550 C   0  0  0  0  0  3  0  0  0  0  0  0
  179.3420  177.6440  139.7260 C   0  0  0  0  0  2  0  0  0  0  0  0
  178.9810  179.9490  140.1930 O   0  0  0  0  0  0  0  0  0  0  0  0
  179.0680  178.7770  140.6520 C   0  0  0  0  0  0  0  0  0  0  0  0
  178.9330  178.5290  142.0180 O   0  0  0  0  0  0  0  0  0  0  0  0
  180.0850  178.2820  144.1070 C   0  0  0  0  0  2  0  0  0  0  0  0
  178.9430  179.2590  144.2980 C   0  0  0  0  0  2  0  0  0  0  0  0
  179.7030  179.2290  142.9880 C   0  0  0  0  0  3  0  0  0  0  0  0
  183.3590  176.3660  137.7250 C   0  0  0  0  0  2  0  0  0  0  0  0
  184.2040  175.8360  136.5790 C   0  0  0  0  0  2  0  0  0  0  0  0
  185.1490  174.7960  137.0850 C   0  0  0  0  0  0  0  0  0  0  0  0
  186.5530  174.8960  136.8410 N   0  0  0  0  0  2  0  0  0  0  0  0
  184.7050  173.8300  137.7590 O   0  0  0  0  0  0  0  0  0  0  0  0
  187.5620  177.0600  136.5030 C   0  0  0  0  0  3  0  0  0  0  0  0
  187.1180  175.9080  136.0050 C   0  0  0  0  0  3  0  0  0  0  0  0
  188.7290  176.8820  138.6530 C   0  0  0  0  0  1  0  0  0  0  0  0
  187.4850  177.4000  137.9560 C   0  0  1  0  0  3  0  0  0  0  0  0
  187.4160  178.7870  138.1080 O   0  0  0  0  0  0  0  0  0  0  0  0
  188.5800  179.2320  137.6800 O   0  0  0  0  0  1  0  0  0  0  0  0
  1  2  2  0  0  0  0
  2 23  1  0  0  0  0
  2  5  1  0  0  0  0
  3  5  2  0  0  0  0
  4  8  1  0  0  0  0
  4  6  1  0  0  0  0
  5  4  1  0  0  0  0
  6  7  2  0  0  0  0
  8  9  1  0  0  0  0
  9 10  1  0  0  0  0
 10 11  1  0  0  0  0
 11 16  2  0  0  0  0
 11 21  1  0  0  0  0
 13 15  1  0  0  0  0
 14 20  2  0  0  0  0
 15 14  1  0  0  0  0
 15 12  1  0  0  0  0
 16 14  1  0  0  0  0
 18 13  1  0  0  0  0
 18 16  1  0  0  0  0
 19 17  1  0  0  0  0
 20 19  1  0  0  0  0
 21 19  2  0  0  0  0
 21 17  1  0  0  0  0
 22 10  2  0  0  0  0
 22 18  1  0  0  0  0
 23 25  1  0  0  0  0
 25 24  2  0  0  0  0
 26 24  1  0  0  0  0
 26 28  1  0  0  0  0
 27 28  2  0  0  0  0
 28 29  1  0  0  0  0
 29 32  1  0  0  0  0
 30 31  1  0  0  0  0
 32 30  1  0  0  0  0
 32 31  1  0  0  0  0
 33  1  1  0  0  0  0
 34 35  1  0  0  0  0
 34 33  1  0  0  0  0
 35 37  2  0  0  0  0
 36 35  1  0  0  0  0
 38 41  1  0  0  0  0
 39 38  2  0  0  0  0
 39 36  1  0  0  0  0
 41 42  1  0  0  0  0
 41 40  1  1  0  0  0
 43 42  1  0  0  0  0
M  END
>  <MODEL>
6

>  <REMARK>
 VINA RESULT:      -6.8      2.668      3.631
  Name = 
  17 active torsions:
  status: ('A' for Active; 'I' for Inactive)
    1  A    between atoms: C_2  and  C_6
    2  A    between atoms: N_3  and  C_29
    3  A    between atoms: C_4  and  C_40
    4  A    between atoms: C_5  and  C_6
    5  A    between atoms: C_5  and  N_11
    6  A    between atoms: C_10  and  C_39
    7  A    between atoms: N_11  and  C_12
    8  A    between atoms: N_13  and  C_20
    9  A    between atoms: C_19  and  C_26
   10  A    between atoms: C_20  and  C_38
   11  A    between atoms: C_22  and  N_37
   12  A    between atoms: C_26  and  C_31
   13  A    between atoms: O_27  and  C_36
   14  A    between atoms: O_27  and  C_38
   15  A    between atoms: O_28  and  C_39
   16  A    between atoms: C_29  and  C_40
   17  A    between atoms: C_31  and  C_43
                            x       y       z     vdW  Elec       q    Type
                         _______ _______ _______ _____ _____    ______ ____

>  <TORSDO>
F 17

$$$$
=
 OpenBabel11042412393D

 43 47  0  0  1  0  0  0  0  0999 V2000
  189.9710  174.7710  137.7560 N   0  0  0  0  0  0  0  0  0  0  0  0
  190.6070  175.8530  138.1030 C   0  0  0  0  0  0  0  0  0  0  0  0
  190.5950  176.3140  140.4250 O   0  0  0  0  0  0  0  0  0  0  0  0
  189.1930  177.6820  139.1560 N   0  0  0  0  0  0  0  0  0  0  0  0
  190.1520  176.6150  139.2830 C   0  0  0  0  0  0  0  0  0  0  0  0
  189.3490  178.7690  138.2310 C   0  0  0  0  0  3  0  0  0  0  0  0
  188.6710  178.8410  137.0900 C   0  0  0  0  0  2  0  0  0  0  0  0
  188.0550  177.7370  140.0610 C   0  0  0  0  0  2  0  0  0  0  0  0
  188.3880  178.5830  141.2780 C   0  0  0  0  0  2  0  0  0  0  0  0
  188.0820  177.8320  142.5300 C   0  0  0  0  0  0  0  0  0  0  0  0
  189.0310  177.2900  143.3920 C   0  0  0  0  0  0  0  0  0  0  0  0
  187.4620  178.1940  147.8100 C   0  0  0  0  0  1  0  0  0  0  0  0
  186.3890  177.5820  145.5500 C   0  0  0  0  0  2  0  0  0  0  0  0
  188.6810  177.1930  145.8010 C   0  0  0  0  0  0  0  0  0  0  0  0
  187.4940  177.5160  146.5240 N   0  0  0  0  0  0  0  0  0  0  0  0
  188.2830  176.9150  144.4670 C   0  0  0  0  0  0  0  0  0  0  0  0
  191.2340  176.5080  144.2320 C   0  0  0  0  0  2  0  0  0  0  0  0
  187.0010  177.1880  144.2800 N   0  0  0  0  0  0  0  0  0  0  0  0
  190.9820  177.8050  144.9830 C   0  0  0  0  0  0  0  0  0  0  0  0
  189.9040  177.6770  146.0620 C   0  0  0  0  0  3  0  0  0  0  0  0
  190.4980  177.6350  143.5130 C   0  0  0  0  0  0  0  0  0  0  0  0
  186.8560  177.8030  143.1160 N   0  0  0  0  0  0  0  0  0  0  0  0
  191.8190  176.3190  137.3470 C   0  0  0  0  0  2  0  0  0  0  0  0
  194.0050  175.8070  138.3220 N   0  0  0  0  0  0  0  0  0  0  0  0
  192.9640  176.5630  138.2870 C   0  0  0  0  0  3  0  0  0  0  0  0
  194.1660  174.6570  137.4650 C   0  0  0  0  0  2  0  0  0  0  0  0
  195.3380  174.6350  135.3950 O   0  0  0  0  0  0  0  0  0  0  0  0
  195.3970  174.8110  136.6430 C   0  0  0  0  0  0  0  0  0  0  0  0
  196.6040  175.1270  137.2670 O   0  0  0  0  0  0  0  0  0  0  0  0
  198.2200  174.9510  139.0290 C   0  0  0  0  0  2  0  0  0  0  0  0
  198.7610  174.2400  137.8060 C   0  0  0  0  0  2  0  0  0  0  0  0
  197.2780  174.2010  138.1100 C   0  0  0  0  0  3  0  0  0  0  0  0
  190.3320  173.9260  136.6230 C   0  0  0  0  0  2  0  0  0  0  0  0
  189.1820  173.8520  135.6330 C   0  0  0  0  0  2  0  0  0  0  0  0
  187.9240  173.4760  136.3460 C   0  0  0  0  0  0  0  0  0  0  0  0
  186.7420  174.2700  136.2220 N   0  0  0  0  0  2  0  0  0  0  0  0
  187.8970  172.4320  137.0480 O   0  0  0  0  0  0  0  0  0  0  0  0
  185.9780  176.5390  135.9370 C   0  0  0  0  0  3  0  0  0  0  0  0
  186.7230  175.5170  135.5240 C   0  0  0  0  0  3  0  0  0  0  0  0
  185.0890  177.8080  137.8390 C   0  0  0  0  0  1  0  0  0  0  0  0
  185.0890  176.4640  137.1360 C   0  0  1  0  0  3  0  0  0  0  0  0
  183.7870  176.1550  136.7340 O   0  0  0  0  0  0  0  0  0  0  0  0
  183.3000  177.2880  136.2700 O   0  0  0  0  0  1  0  0  0  0  0  0
  1  2  2  0  0  0  0
  2  5  1  0  0  0  0
  4  5  1  0  0  0  0
  4  8  1  0  0  0  0
  5  3  2  0  0  0  0
  6  4  1  0  0  0  0
  7  6  2  0  0  0  0
  8  9  1  0  0  0  0
  9 10  1  0  0  0  0
 10 22  2  0  0  0  0
 10 11  1  0  0  0  0
 11 21  2  3  0  0  0
 11 16  1  0  0  0  0
 13 15  1  0  0  0  0
 14 20  1  0  0  0  0
 14 15  1  0  0  0  0
 15 12  1  0  0  0  0
 16 14  2  0  0  0  0
 17 19  1  0  0  0  0
 18 16  1  0  0  0  0
 18 13  1  0  0  0  0
 19 20  2  3  0  0  0
 21 17  1  0  0  0  0
 21 19  1  0  0  0  0
 22 18  1  0  0  0  0
 23  2  1  0  0  0  0
 23 25  1  0  0  0  0
 25 24  2  0  0  0  0
 26 24  1  0  0  0  0
 27 28  2  0  0  0  0
 28 29  1  0  0  0  0
 28 26  1  0  0  0  0
 29 32  1  0  0  0  0
 31 32  1  0  0  0  0
 31 30  1  0  0  0  0
 32 30  1  0  0  0  0
 33  1  1  0  0  0  0
 34 35  1  0  0  0  0
 34 33  1  0  0  0  0
 35 37  2  0  0  0  0
 36 35  1  0  0  0  0
 38 41  1  0  0  0  0
 39 38  2  0  0  0  0
 39 36  1  0  0  0  0
 41 40  1  6  0  0  0
 42 41  1  0  0  0  0
 43 42  1  0  0  0  0
M  END
>  <MODEL>
7

>  <REMARK>
 VINA RESULT:      -6.8      3.861      8.657
  Name = 
  17 active torsions:
  status: ('A' for Active; 'I' for Inactive)
    1  A    between atoms: C_2  and  C_6
    2  A    between atoms: N_3  and  C_29
    3  A    between atoms: C_4  and  C_40
    4  A    between atoms: C_5  and  C_6
    5  A    between atoms: C_5  and  N_11
    6  A    between atoms: C_10  and  C_39
    7  A    between atoms: N_11  and  C_12
    8  A    between atoms: N_13  and  C_20
    9  A    between atoms: C_19  and  C_26
   10  A    between atoms: C_20  and  C_38
   11  A    between atoms: C_22  and  N_37
   12  A    between atoms: C_26  and  C_31
   13  A    between atoms: O_27  and  C_36
   14  A    between atoms: O_27  and  C_38
   15  A    between atoms: O_28  and  C_39
   16  A    between atoms: C_29  and  C_40
   17  A    between atoms: C_31  and  C_43
                            x       y       z     vdW  Elec       q    Type
                         _______ _______ _______ _____ _____    ______ ____

>  <TORSDO>
F 17

$$$$
=
 OpenBabel11042412393D

 43 47  0  0  1  0  0  0  0  0999 V2000
  184.0540  177.1640  138.7290 N   0  0  0  0  0  0  0  0  0  0  0  0
  183.6520  177.7540  139.8180 C   0  0  0  0  0  0  0  0  0  0  0  0
  184.9350  179.7430  139.8220 O   0  0  0  0  0  0  0  0  0  0  0  0
  184.9530  178.5730  141.8410 N   0  0  0  0  0  0  0  0  0  0  0  0
  184.5300  178.7430  140.4750 C   0  0  0  0  0  0  0  0  0  0  0  0
  184.0370  178.3330  142.9200 C   0  0  0  0  0  3  0  0  0  0  0  0
  183.7960  179.2330  143.8680 C   0  0  0  0  0  2  0  0  0  0  0  0
  186.3560  178.7440  142.1860 C   0  0  0  0  0  2  0  0  0  0  0  0
  186.8890  177.4960  142.8680 C   0  0  0  0  0  2  0  0  0  0  0  0
  188.1100  177.8210  143.6620 C   0  0  0  0  0  0  0  0  0  0  0  0
  188.1360  178.0490  145.0340 C   0  0  0  0  0  0  0  0  0  0  0  0
  192.0390  175.8290  146.6600 C   0  0  0  0  0  1  0  0  0  0  0  0
  191.3990  177.1380  144.5360 C   0  0  0  0  0  2  0  0  0  0  0  0
  190.0320  177.3900  146.4170 C   0  0  0  0  0  0  0  0  0  0  0  0
  191.2910  176.8760  145.9830 N   0  0  0  0  0  0  0  0  0  0  0  0
  189.4700  178.0800  145.3100 C   0  0  0  0  0  0  0  0  0  0  0  0
  187.3130  178.4910  147.3360 C   0  0  0  0  0  2  0  0  0  0  0  0
  190.1920  177.9000  144.2140 N   0  0  0  0  0  0  0  0  0  0  0  0
  187.7250  177.0280  147.3570 C   0  0  0  0  0  0  0  0  0  0  0  0
  189.2430  176.8280  147.3430 C   0  0  0  0  0  3  0  0  0  0  0  0
  187.1090  177.6590  146.0730 C   0  0  0  0  0  0  0  0  0  0  0  0
  189.3770  177.6850  143.1920 N   0  0  0  0  0  0  0  0  0  0  0  0
  182.2950  177.4730  140.3990 C   0  0  0  0  0  2  0  0  0  0  0  0
  179.9650  177.7790  139.7150 N   0  0  0  0  0  0  0  0  0  0  0  0
  181.2170  177.9640  139.4770 C   0  0  0  0  0  3  0  0  0  0  0  0
  179.4860  177.0850  140.8860 C   0  0  0  0  0  2  0  0  0  0  0  0
  179.1340  174.8060  141.4700 O   0  0  0  0  0  0  0  0  0  0  0  0
  179.2050  175.6630  140.5470 C   0  0  0  0  0  0  0  0  0  0  0  0
  179.0480  175.2940  139.2110 O   0  0  0  0  0  0  0  0  0  0  0  0
  180.0010  174.5460  137.1420 C   0  0  0  0  0  2  0  0  0  0  0  0
  178.9860  173.5210  137.6040 C   0  0  0  0  0  2  0  0  0  0  0  0
  179.8290  174.2620  138.6200 C   0  0  0  0  0  3  0  0  0  0  0  0
  183.2750  176.1850  137.9820 C   0  0  0  0  0  2  0  0  0  0  0  0
  184.0720  175.6710  136.7950 C   0  0  0  0  0  2  0  0  0  0  0  0
  185.0980  174.6900  137.2610 C   0  0  0  0  0  0  0  0  0  0  0  0
  186.4820  174.8740  136.9590 N   0  0  0  0  0  2  0  0  0  0  0  0
  184.7420  173.7000  137.9510 O   0  0  0  0  0  0  0  0  0  0  0  0
  187.5830  176.9870  136.5800 C   0  0  0  0  0  3  0  0  0  0  0  0
  186.9500  175.9180  136.1010 C   0  0  0  0  0  3  0  0  0  0  0  0
  189.2350  176.7260  138.3740 C   0  0  0  0  0  1  0  0  0  0  0  0
  187.8330  177.1970  138.0380 C   0  0  1  0  0  3  0  0  0  0  0  0
  187.7200  178.5570  138.3400 O   0  0  0  0  0  0  0  0  0  0  0  0
  186.9490  179.0490  137.3910 O   0  0  0  0  0  1  0  0  0  0  0  0
  1  2  2  0  0  0  0
  2 23  1  0  0  0  0
  2  5  1  0  0  0  0
  3  5  2  0  0  0  0
  4  8  1  0  0  0  0
  4  6  1  0  0  0  0
  5  4  1  0  0  0  0
  6  7  2  0  0  0  0
  8  9  1  0  0  0  0
  9 10  1  0  0  0  0
 10 11  1  0  0  0  0
 11 16  2  0  0  0  0
 11 21  1  0  0  0  0
 13 15  1  0  0  0  0
 14 20  2  0  0  0  0
 15 14  1  0  0  0  0
 15 12  1  0  0  0  0
 16 14  1  0  0  0  0
 17 19  1  0  0  0  0
 18 13  1  0  0  0  0
 18 16  1  0  0  0  0
 20 19  1  0  0  0  0
 21 17  1  0  0  0  0
 21 19  2  0  0  0  0
 22 10  2  0  0  0  0
 22 18  1  0  0  0  0
 24 26  1  0  0  0  0
 25 24  2  0  0  0  0
 25 23  1  0  0  0  0
 28 26  1  0  0  0  0
 28 27  2  0  0  0  0
 29 28  1  0  0  0  0
 30 31  1  0  0  0  0
 30 32  1  0  0  0  0
 31 32  1  0  0  0  0
 32 29  1  0  0  0  0
 33  1  1  0  0  0  0
 34 35  1  0  0  0  0
 34 33  1  0  0  0  0
 35 37  2  0  0  0  0
 36 35  1  0  0  0  0
 38 41  1  0  0  0  0
 39 38  2  0  0  0  0
 39 36  1  0  0  0  0
 41 42  1  0  0  0  0
 41 40  1  6  0  0  0
 43 42  1  0  0  0  0
M  END
>  <MODEL>
8

>  <REMARK>
 VINA RESULT:      -6.7      2.777      4.238
  Name = 
  17 active torsions:
  status: ('A' for Active; 'I' for Inactive)
    1  A    between atoms: C_2  and  C_6
    2  A    between atoms: N_3  and  C_29
    3  A    between atoms: C_4  and  C_40
    4  A    between atoms: C_5  and  C_6
    5  A    between atoms: C_5  and  N_11
    6  A    between atoms: C_10  and  C_39
    7  A    between atoms: N_11  and  C_12
    8  A    between atoms: N_13  and  C_20
    9  A    between atoms: C_19  and  C_26
   10  A    between atoms: C_20  and  C_38
   11  A    between atoms: C_22  and  N_37
   12  A    between atoms: C_26  and  C_31
   13  A    between atoms: O_27  and  C_36
   14  A    between atoms: O_27  and  C_38
   15  A    between atoms: O_28  and  C_39
   16  A    between atoms: C_29  and  C_40
   17  A    between atoms: C_31  and  C_43
                            x       y       z     vdW  Elec       q    Type
                         _______ _______ _______ _____ _____    ______ ____

>  <TORSDO>
F 17

$$$$
=
 OpenBabel11042412393D

 43 47  0  0  1  0  0  0  0  0999 V2000
  187.2930  178.4960  140.5810 N   0  0  0  0  0  0  0  0  0  0  0  0
  188.5690  178.3030  140.4050 C   0  0  0  0  0  0  0  0  0  0  0  0
  189.0560  179.3810  138.3550 O   0  0  0  0  0  0  0  0  0  0  0  0
  189.7170  177.1450  138.4560 N   0  0  0  0  0  0  0  0  0  0  0  0
  189.1230  178.3220  139.0360 C   0  0  0  0  0  0  0  0  0  0  0  0
  190.7480  176.3860  139.1060 C   0  0  0  0  0  3  0  0  0  0  0  0
  192.0250  176.7550  139.0920 C   0  0  0  0  0  2  0  0  0  0  0  0
  189.3420  176.7410  137.1090 C   0  0  0  0  0  2  0  0  0  0  0  0
  188.5470  175.4470  137.1470 C   0  0  0  0  0  2  0  0  0  0  0  0
  187.0970  175.7240  136.9330 C   0  0  0  0  0  0  0  0  0  0  0  0
  186.1270  174.7620  136.6700 C   0  0  0  0  0  0  0  0  0  0  0  0
  182.3060  176.0100  139.2480 C   0  0  0  0  0  1  0  0  0  0  0  0
  184.1450  177.2490  137.9390 C   0  0  0  0  0  2  0  0  0  0  0  0
  183.8420  174.9740  137.4890 C   0  0  0  0  0  0  0  0  0  0  0  0
  183.2520  176.0950  138.1460 N   0  0  0  0  0  0  0  0  0  0  0  0
  184.9660  175.4660  136.7740 C   0  0  0  0  0  0  0  0  0  0  0  0
  185.1280  172.5660  136.0780 C   0  0  0  0  0  2  0  0  0  0  0  0
  185.1990  176.7380  137.0610 N   0  0  0  0  0  0  0  0  0  0  0  0
  184.9010  172.6920  137.5760 C   0  0  0  0  0  0  0  0  0  0  0  0
  183.8170  173.7110  137.9370 C   0  0  0  0  0  3  0  0  0  0  0  0
  186.1890  173.2710  136.9190 C   0  0  0  0  0  0  0  0  0  0  0  0
  186.5030  176.9130  137.2160 N   0  0  0  0  0  0  0  0  0  0  0  0
  189.4930  178.0980  141.5710 C   0  0  0  0  0  2  0  0  0  0  0  0
  189.1750  176.3850  143.2900 N   0  0  0  0  0  0  0  0  0  0  0  0
  189.4160  176.6810  142.0610 C   0  0  0  0  0  3  0  0  0  0  0  0
  188.9590  177.3850  144.3080 C   0  0  0  0  0  2  0  0  0  0  0  0
  191.1500  177.3460  145.2330 O   0  0  0  0  0  0  0  0  0  0  0  0
  189.9150  177.1770  145.4290 C   0  0  0  0  0  0  0  0  0  0  0  0
  189.4350  176.7760  146.6760 O   0  0  0  0  0  0  0  0  0  0  0  0
  187.9460  177.1940  148.5080 C   0  0  0  0  0  2  0  0  0  0  0  0
  187.7180  178.2540  147.4490 C   0  0  0  0  0  2  0  0  0  0  0  0
  189.1130  177.7160  147.6940 C   0  0  0  0  0  3  0  0  0  0  0  0
  186.6320  178.5150  141.8800 C   0  0  0  0  0  2  0  0  0  0  0  0
  185.3800  179.3750  141.8220 C   0  0  0  0  0  2  0  0  0  0  0  0
  184.5630  179.1620  143.0550 C   0  0  0  0  0  0  0  0  0  0  0  0
  183.1990  178.7480  142.9730 N   0  0  0  0  0  2  0  0  0  0  0  0
  185.0920  179.3280  144.1850 O   0  0  0  0  0  0  0  0  0  0  0  0
  181.1920  178.8440  141.6380 C   0  0  0  0  0  3  0  0  0  0  0  0
  182.5040  178.6350  141.7290 C   0  0  0  0  0  3  0  0  0  0  0  0
  179.5920  180.4730  142.5330 C   0  0  0  0  0  1  0  0  0  0  0  0
  180.3400  179.1850  142.8180 C   0  0  1  0  0  3  0  0  0  0  0  0
  179.4200  178.1580  143.0420 O   0  0  0  0  0  0  0  0  0  0  0  0
  179.5540  177.8580  144.3180 O   0  0  0  0  0  1  0  0  0  0  0  0
  1 33  1  0  0  0  0
  2  1  2  0  0  0  0
  2 23  1  0  0  0  0
  3  5  2  0  0  0  0
  4  5  1  0  0  0  0
  4  6  1  0  0  0  0
  5  2  1  0  0  0  0
  7  6  2  0  0  0  0
  8  9  1  0  0  0  0
  8  4  1  0  0  0  0
 10  9  1  0  0  0  0
 10 22  2  0  0  0  0
 11 16  2  0  0  0  0
 11 21  1  0  0  0  0
 11 10  1  0  0  0  0
 13 15  1  0  0  0  0
 14 20  2  0  0  0  0
 14 15  1  0  0  0  0
 15 12  1  0  0  0  0
 16 18  1  0  0  0  0
 16 14  1  0  0  0  0
 17 21  1  0  0  0  0
 17 19  1  0  0  0  0
 18 22  1  0  0  0  0
 18 13  1  0  0  0  0
 19 20  1  0  0  0  0
 21 19  2  0  0  0  0
 23 25  1  0  0  0  0
 24 26  1  0  0  0  0
 25 24  2  0  0  0  0
 26 28  1  0  0  0  0
 27 28  2  0  0  0  0
 28 29  1  0  0  0  0
 29 32  1  0  0  0  0
 31 32  1  0  0  0  0
 31 30  1  0  0  0  0
 32 30  1  0  0  0  0
 34 33  1  0  0  0  0
 34 35  1  0  0  0  0
 35 37  2  0  0  0  0
 36 35  1  0  0  0  0
 38 39  2  0  0  0  0
 38 41  1  0  0  0  0
 39 36  1  0  0  0  0
 41 40  1  6  0  0  0
 41 42  1  0  0  0  0
 42 43  1  0  0  0  0
M  END
>  <MODEL>
9

>  <REMARK>
 VINA RESULT:      -6.6      3.363      9.444
  Name = 
  17 active torsions:
  status: ('A' for Active; 'I' for Inactive)
    1  A    between atoms: C_2  and  C_6
    2  A    between atoms: N_3  and  C_29
    3  A    between atoms: C_4  and  C_40
    4  A    between atoms: C_5  and  C_6
    5  A    between atoms: C_5  and  N_11
    6  A    between atoms: C_10  and  C_39
    7  A    between atoms: N_11  and  C_12
    8  A    between atoms: N_13  and  C_20
    9  A    between atoms: C_19  and  C_26
   10  A    between atoms: C_20  and  C_38
   11  A    between atoms: C_22  and  N_37
   12  A    between atoms: C_26  and  C_31
   13  A    between atoms: O_27  and  C_36
   14  A    between atoms: O_27  and  C_38
   15  A    between atoms: O_28  and  C_39
   16  A    between atoms: C_29  and  C_40
   17  A    between atoms: C_31  and  C_43
                            x       y       z     vdW  Elec       q    Type
                         _______ _______ _______ _____ _____    ______ ____

>  <TORSDO>
F 17

$$$$
