=
 OpenBabel11042410063D

 29 32  0  0  1  0  0  0  0  0999 V2000
  188.4890  177.1290  142.0550 C   0  0  0  0  0  2  0  0  0  0  0  0
  187.0620  177.9930  144.4430 C   0  0  2  0  0  3  0  0  0  0  0  0
  187.2530  179.3460  140.5630 O   0  0  0  0  0  0  0  0  0  0  0  0
  185.2410  179.1360  141.9140 C   0  0  2  0  0  3  0  0  0  0  0  0
  186.5950  178.7230  141.4390 C   0  0  0  0  0  0  0  0  0  0  0  0
  188.4170  177.3040  144.5830 C   0  0  0  0  0  2  0  0  0  0  0  0
  184.9610  178.0720  143.0010 C   0  0  1  0  0  3  0  0  0  0  0  0
  189.2370  177.5840  143.3170 C   0  0  0  0  0  2  0  0  0  0  0  0
  187.0990  177.5780  142.1050 N   0  0  0  0  0  0  0  0  0  0  0  0
  186.2170  178.0620  145.7030 C   0  0  2  0  0  3  0  0  0  0  0  0
  185.0800  179.0290  145.4020 C   0  0  0  0  0  2  0  0  0  0  0  0
  186.2950  177.3480  143.2840 C   0  0  1  0  0  3  0  0  0  0  0  0
  184.1890  178.4950  144.2800 C   0  0  1  0  0  3  0  0  0  0  0  0
  183.3820  177.4010  139.2270 C   0  0  0  0  0  2  0  0  0  0  0  0
  184.9120  179.2590  139.4430 N   0  0  0  0  0  0  0  0  0  0  0  0
  183.6650  177.6290  140.6830 C   0  0  0  0  0  2  0  0  0  0  0  0
  184.3640  178.2930  138.4950 C   0  0  1  0  0  3  0  0  0  0  0  0
  184.2670  179.0150  140.7300 C   0  0  1  0  0  3  0  0  0  0  0  0
  184.5070  180.4830  139.0290 O   0  0  0  0  0  1  0  0  0  0  0  0
  186.8250  178.5190  137.1130 C   0  0  0  0  0  1  0  0  0  0  0  0
  185.7020  177.2960  137.8080 S   0  0  2  0  0  0  0  0  0  0  0  0
  185.0780  176.6630  136.5720 O   0  0  0  0  0  0  0  0  0  0  0  0
  183.0490  179.4620  144.0060 C   0  0  0  0  0  2  0  0  0  0  0  0
  181.7390  178.7120  143.8570 C   0  0  0  0  0  1  0  0  0  0  0  0
  187.0260  178.6070  146.8740 C   0  0  0  0  0  2  0  0  0  0  0  0
  187.6460  177.5460  147.5920 O   0  0  0  0  0  0  0  0  0  0  0  0
  189.2830  178.4500  148.9530 O   0  0  0  0  0  0  0  0  0  0  0  0
  188.9600  177.6250  148.0560 C   0  0  0  0  0  0  0  0  0  0  0  0
  189.9920  176.7210  147.4860 C   0  0  0  0  0  1  0  0  0  0  0  0
  1  9  1  0  0  0  0
  1  8  1  0  0  0  0
  2  6  1  1  0  0  0
  2 10  1  0  0  0  0
  3  5  2  0  0  0  0
  4  5  1  6  0  0  0
  4  7  1  0  0  0  0
  5  9  1  0  0  0  0
  7 12  1  0  0  0  0
  7 13  1  0  0  0  0
  8  6  1  0  0  0  0
  9 12  1  0  0  0  0
 10 25  1  0  0  0  0
 11 10  1  0  0  0  0
 12  2  1  0  0  0  0
 13 11  1  0  0  0  0
 14 16  1  0  0  0  0
 15 18  1  0  0  0  0
 16 18  1  0  0  0  0
 17 14  1  0  0  0  0
 17 15  1  0  0  0  0
 18  4  1  0  0  0  0
 19 15  1  0  0  0  0
 20 21  1  0  0  0  0
 21 17  1  0  0  0  0
 22 21  2  0  0  0  0
 23 13  1  0  0  0  0
 24 23  1  0  0  0  0
 25 26  1  0  0  0  0
 26 28  1  0  0  0  0
 28 27  2  0  0  0  0
 29 28  1  0  0  0  0
M  END
>  <MODEL>
1

>  <REMARK>
 VINA RESULT:      -8.3      0.000      0.000
  Name = 
  6 active torsions:
  status: ('A' for Active; 'I' for Inactive)
    1  A    between atoms: C_8  and  O_10
    2  A    between atoms: C_9  and  C_22
    3  A    between atoms: O_10  and  C_23
    4  A    between atoms: C_11  and  C_29
    5  A    between atoms: C_20  and  C_23
    6  A    between atoms: C_21  and  S_25
                            x       y       z     vdW  Elec       q    Type
                         _______ _______ _______ _____ _____    ______ ____

>  <TORSDO>
F 6

$$$$
=
 OpenBabel11042410063D

 29 32  0  0  1  0  0  0  0  0999 V2000
  191.5830  176.0500  143.6980 C   0  0  0  0  0  2  0  0  0  0  0  0
  188.9220  177.1800  144.0560 C   0  0  2  0  0  3  0  0  0  0  0  0
  192.1070  178.0510  141.6020 O   0  0  0  0  0  0  0  0  0  0  0  0
  189.7660  177.9810  140.9470 C   0  0  2  0  0  3  0  0  0  0  0  0
  190.9650  177.5320  141.7150 C   0  0  0  0  0  0  0  0  0  0  0  0
  189.6320  176.5310  145.2430 C   0  0  0  0  0  2  0  0  0  0  0  0
  188.6690  177.0540  141.5220 C   0  0  1  0  0  3  0  0  0  0  0  0
  191.1460  176.6650  145.0350 C   0  0  0  0  0  2  0  0  0  0  0  0
  190.6870  176.4830  142.6270 N   0  0  0  0  0  0  0  0  0  0  0  0
  187.4260  177.3910  144.2090 C   0  0  2  0  0  3  0  0  0  0  0  0
  187.0030  178.2990  143.0630 C   0  0  0  0  0  2  0  0  0  0  0  0
  189.2530  176.3880  142.7870 C   0  0  1  0  0  3  0  0  0  0  0  0
  187.2360  177.6200  141.7120 C   0  0  1  0  0  3  0  0  0  0  0  0
  189.0630  178.0680  137.3160 C   0  0  0  0  0  2  0  0  0  0  0  0
  189.4950  176.4140  139.0240 N   0  0  0  0  0  0  0  0  0  0  0  0
  189.3850  178.7720  138.6020 C   0  0  0  0  0  2  0  0  0  0  0  0
  188.9190  176.6080  137.6970 C   0  0  1  0  0  3  0  0  0  0  0  0
  190.0260  177.7030  139.4570 C   0  0  1  0  0  3  0  0  0  0  0  0
  190.5550  175.5860  138.8700 O   0  0  0  0  0  1  0  0  0  0  0  0
  187.0680  174.8150  136.5240 C   0  0  0  0  0  1  0  0  0  0  0  0
  187.1730  176.1520  137.7250 S   0  0  2  0  0  0  0  0  0  0  0  0
  186.4900  177.3090  137.0100 O   0  0  0  0  0  0  0  0  0  0  0  0
  186.7900  178.5310  140.5800 C   0  0  0  0  0  2  0  0  0  0  0  0
  185.3480  178.9570  140.7760 C   0  0  0  0  0  1  0  0  0  0  0  0
  187.1050  178.0860  145.5270 C   0  0  0  0  0  2  0  0  0  0  0  0
  186.0390  179.0140  145.3570 O   0  0  0  0  0  0  0  0  0  0  0  0
  184.5560  178.4060  147.0250 O   0  0  0  0  0  0  0  0  0  0  0  0
  184.7500  178.7670  145.8330 C   0  0  0  0  0  0  0  0  0  0  0  0
  183.5890  178.9360  144.9200 C   0  0  0  0  0  1  0  0  0  0  0  0
  1  8  1  0  0  0  0
  2 10  1  0  0  0  0
  2  6  1  1  0  0  0
  3  5  2  0  0  0  0
  4  7  1  0  0  0  0
  4  5  1  1  0  0  0
  5  9  1  0  0  0  0
  7 13  1  0  0  0  0
  7 12  1  0  0  0  0
  8  6  1  0  0  0  0
  9 12  1  0  0  0  0
  9  1  1  0  0  0  0
 10 25  1  0  0  0  0
 11 10  1  0  0  0  0
 12  2  1  0  0  0  0
 13 11  1  0  0  0  0
 14 17  1  0  0  0  0
 14 16  1  0  0  0  0
 15 18  1  0  0  0  0
 16 18  1  0  0  0  0
 17 21  1  0  0  0  0
 17 15  1  0  0  0  0
 18  4  1  0  0  0  0
 19 15  1  0  0  0  0
 20 21  1  0  0  0  0
 22 21  2  0  0  0  0
 23 24  1  0  0  0  0
 23 13  1  0  0  0  0
 26 25  1  0  0  0  0
 26 28  1  0  0  0  0
 28 27  2  0  0  0  0
 29 28  1  0  0  0  0
M  END
>  <MODEL>
2

>  <REMARK>
 VINA RESULT:      -7.8      2.593      4.465
  Name = 
  6 active torsions:
  status: ('A' for Active; 'I' for Inactive)
    1  A    between atoms: C_8  and  O_10
    2  A    between atoms: C_9  and  C_22
    3  A    between atoms: O_10  and  C_23
    4  A    between atoms: C_11  and  C_29
    5  A    between atoms: C_20  and  C_23
    6  A    between atoms: C_21  and  S_25
                            x       y       z     vdW  Elec       q    Type
                         _______ _______ _______ _____ _____    ______ ____

>  <TORSDO>
F 6

$$$$
=
 OpenBabel11042410063D

 29 32  0  0  1  0  0  0  0  0999 V2000
  188.3310  177.1830  147.5140 C   0  0  0  0  0  2  0  0  0  0  0  0
  186.3650  178.1730  145.6060 C   0  0  2  0  0  3  0  0  0  0  0  0
  190.4540  178.4850  145.9420 O   0  0  0  0  0  0  0  0  0  0  0  0
  189.2090  178.0500  143.8980 C   0  0  2  0  0  3  0  0  0  0  0  0
  189.4740  177.9430  145.3640 C   0  0  0  0  0  0  0  0  0  0  0  0
  185.9630  177.9690  147.0650 C   0  0  0  0  0  2  0  0  0  0  0  0
  187.8830  177.2640  143.7700 C   0  0  1  0  0  3  0  0  0  0  0  0
  187.2110  178.1430  147.9410 C   0  0  0  0  0  2  0  0  0  0  0  0
  188.4860  177.2040  146.0610 N   0  0  0  0  0  0  0  0  0  0  0  0
  185.2240  178.3120  144.6140 C   0  0  2  0  0  3  0  0  0  0  0  0
  185.8460  178.7950  143.3110 C   0  0  0  0  0  2  0  0  0  0  0  0
  187.3340  177.0580  145.1980 C   0  0  1  0  0  3  0  0  0  0  0  0
  186.8190  177.7560  142.7510 C   0  0  1  0  0  3  0  0  0  0  0  0
  191.7100  177.5750  141.2130 C   0  0  0  0  0  2  0  0  0  0  0  0
  189.8930  176.3370  142.2170 N   0  0  0  0  0  0  0  0  0  0  0  0
  191.1720  178.3590  142.3750 C   0  0  0  0  0  2  0  0  0  0  0  0
  190.7250  176.4390  141.0210 C   0  0  1  0  0  3  0  0  0  0  0  0
  190.3610  177.3510  143.1570 C   0  0  1  0  0  3  0  0  0  0  0  0
  190.1600  175.1320  142.7750 O   0  0  0  0  0  1  0  0  0  0  0  0
  190.4490  175.8040  138.2760 C   0  0  0  0  0  1  0  0  0  0  0  0
  189.6810  176.7690  139.5860 S   0  0  2  0  0  0  0  0  0  0  0  0
  190.0340  178.2010  139.2100 O   0  0  0  0  0  0  0  0  0  0  0  0
  187.4150  178.2440  141.4410 C   0  0  0  0  0  2  0  0  0  0  0  0
  186.3190  178.6590  140.4790 C   0  0  0  0  0  1  0  0  0  0  0  0
  184.2120  179.3490  145.0870 C   0  0  0  0  0  2  0  0  0  0  0  0
  183.4160  179.8050  143.9980 O   0  0  0  0  0  0  0  0  0  0  0  0
  181.4430  178.6090  144.1590 O   0  0  0  0  0  0  0  0  0  0  0  0
  182.3920  179.0330  143.4460 C   0  0  0  0  0  0  0  0  0  0  0  0
  182.4210  178.7100  141.9960 C   0  0  0  0  0  1  0  0  0  0  0  0
  1  8  1  0  0  0  0
  2  6  1  1  0  0  0
  4  5  1  1  0  0  0
  5  3  2  0  0  0  0
  5  9  1  0  0  0  0
  6  8  1  0  0  0  0
  7  4  1  0  0  0  0
  7 12  1  0  0  0  0
  9  1  1  0  0  0  0
 10 25  1  0  0  0  0
 10  2  1  0  0  0  0
 11 10  1  0  0  0  0
 12  2  1  0  0  0  0
 12  9  1  0  0  0  0
 13 11  1  0  0  0  0
 13  7  1  0  0  0  0
 14 16  1  0  0  0  0
 15 19  1  0  0  0  0
 15 18  1  0  0  0  0
 16 18  1  0  0  0  0
 17 14  1  0  0  0  0
 17 15  1  0  0  0  0
 18  4  1  0  0  0  0
 20 21  1  0  0  0  0
 21 17  1  0  0  0  0
 22 21  2  0  0  0  0
 23 13  1  0  0  0  0
 24 23  1  0  0  0  0
 26 25  1  0  0  0  0
 28 26  1  0  0  0  0
 28 27  2  0  0  0  0
 29 28  1  0  0  0  0
M  END
>  <MODEL>
3

>  <REMARK>
 VINA RESULT:      -7.7      2.802      5.795
  Name = 
  6 active torsions:
  status: ('A' for Active; 'I' for Inactive)
    1  A    between atoms: C_8  and  O_10
    2  A    between atoms: C_9  and  C_22
    3  A    between atoms: O_10  and  C_23
    4  A    between atoms: C_11  and  C_29
    5  A    between atoms: C_20  and  C_23
    6  A    between atoms: C_21  and  S_25
                            x       y       z     vdW  Elec       q    Type
                         _______ _______ _______ _____ _____    ______ ____

>  <TORSDO>
F 6

$$$$
=
 OpenBabel11042410063D

 29 32  0  0  1  0  0  0  0  0999 V2000
  186.7100  177.5310  146.3150 C   0  0  0  0  0  2  0  0  0  0  0  0
  186.0530  178.2530  143.5710 C   0  0  2  0  0  3  0  0  0  0  0  0
  189.3610  178.7640  145.9630 O   0  0  0  0  0  0  0  0  0  0  0  0
  189.3680  178.0860  143.6270 C   0  0  2  0  0  3  0  0  0  0  0  0
  188.8230  178.1300  145.0160 C   0  0  0  0  0  0  0  0  0  0  0  0
  184.9420  178.1720  144.6150 C   0  0  0  0  0  2  0  0  0  0  0  0
  188.2940  177.2380  142.9040 C   0  0  1  0  0  3  0  0  0  0  0  0
  185.5470  178.4800  145.9910 C   0  0  0  0  0  2  0  0  0  0  0  0
  187.6050  177.4210  145.1640 N   0  0  0  0  0  0  0  0  0  0  0  0
  185.6040  178.2500  142.1200 C   0  0  2  0  0  3  0  0  0  0  0  0
  186.8240  178.6330  141.2940 C   0  0  0  0  0  2  0  0  0  0  0  0
  187.0750  177.1460  143.8470 C   0  0  1  0  0  3  0  0  0  0  0  0
  187.9310  177.5870  141.4350 C   0  0  1  0  0  3  0  0  0  0  0  0
  191.6900  175.2760  144.2570 C   0  0  0  0  0  2  0  0  0  0  0  0
  191.4330  177.5820  144.9340 N   0  0  0  0  0  0  0  0  0  0  0  0
  190.5420  175.8790  143.5000 C   0  0  0  0  0  2  0  0  0  0  0  0
  192.0540  176.3120  145.3010 C   0  0  1  0  0  3  0  0  0  0  0  0
  190.7270  177.3690  143.6740 C   0  0  1  0  0  3  0  0  0  0  0  0
  192.4400  178.4480  144.6770 O   0  0  0  0  0  1  0  0  0  0  0  0
  191.1520  177.3430  147.7790 C   0  0  0  0  0  1  0  0  0  0  0  0
  191.4510  175.7900  146.9200 S   0  0  2  0  0  0  0  0  0  0  0  0
  192.6980  175.2520  147.6080 O   0  0  0  0  0  0  0  0  0  0  0  0
  189.1330  177.9730  140.5890 C   0  0  0  0  0  2  0  0  0  0  0  0
  188.6850  178.5800  139.2740 C   0  0  0  0  0  1  0  0  0  0  0  0
  184.5100  179.2850  141.8840 C   0  0  0  0  0  2  0  0  0  0  0  0
  183.6930  178.9080  140.7810 O   0  0  0  0  0  0  0  0  0  0  0  0
  184.1830  180.4170  139.0970 O   0  0  0  0  0  0  0  0  0  0  0  0
  184.0290  179.2210  139.4620 C   0  0  0  0  0  0  0  0  0  0  0  0
  184.2110  178.1240  138.4760 C   0  0  0  0  0  1  0  0  0  0  0  0
  2 12  1  0  0  0  0
  2  6  1  1  0  0  0
  4 18  1  0  0  0  0
  4  5  1  1  0  0  0
  5  9  1  0  0  0  0
  5  3  2  0  0  0  0
  6  8  1  0  0  0  0
  7  4  1  0  0  0  0
  7 12  1  0  0  0  0
  8  1  1  0  0  0  0
  9  1  1  0  0  0  0
 10  2  1  0  0  0  0
 11 13  1  0  0  0  0
 11 10  1  0  0  0  0
 12  9  1  0  0  0  0
 13  7  1  0  0  0  0
 14 17  1  0  0  0  0
 15 17  1  0  0  0  0
 16 18  1  0  0  0  0
 16 14  1  0  0  0  0
 17 21  1  0  0  0  0
 18 15  1  0  0  0  0
 19 15  1  0  0  0  0
 21 22  2  0  0  0  0
 21 20  1  0  0  0  0
 23 13  1  0  0  0  0
 24 23  1  0  0  0  0
 25 10  1  0  0  0  0
 26 25  1  0  0  0  0
 27 28  2  0  0  0  0
 28 26  1  0  0  0  0
 29 28  1  0  0  0  0
M  END
>  <MODEL>
4

>  <REMARK>
 VINA RESULT:      -7.2      3.066      7.651
  Name = 
  6 active torsions:
  status: ('A' for Active; 'I' for Inactive)
    1  A    between atoms: C_8  and  O_10
    2  A    between atoms: C_9  and  C_22
    3  A    between atoms: O_10  and  C_23
    4  A    between atoms: C_11  and  C_29
    5  A    between atoms: C_20  and  C_23
    6  A    between atoms: C_21  and  S_25
                            x       y       z     vdW  Elec       q    Type
                         _______ _______ _______ _____ _____    ______ ____

>  <TORSDO>
F 6

$$$$
=
 OpenBabel11042410063D

 29 32  0  0  1  0  0  0  0  0999 V2000
  185.9460  178.6240  140.3200 C   0  0  0  0  0  2  0  0  0  0  0  0
  184.1020  178.8960  142.5580 C   0  0  2  0  0  3  0  0  0  0  0  0
  184.2070  180.3880  138.7250 O   0  0  0  0  0  0  0  0  0  0  0  0
  182.2530  179.4960  139.8670 C   0  0  2  0  0  3  0  0  0  0  0  0
  183.7060  179.5550  139.5270 C   0  0  0  0  0  0  0  0  0  0  0  0
  185.5870  178.6700  142.8290 C   0  0  0  0  0  2  0  0  0  0  0  0
  182.2300  178.3560  140.9130 C   0  0  1  0  0  3  0  0  0  0  0  0
  186.3870  179.2450  141.6530 C   0  0  0  0  0  2  0  0  0  0  0  0
  184.4870  178.6050  140.2330 N   0  0  0  0  0  0  0  0  0  0  0  0
  183.1650  178.6440  143.7270 C   0  0  2  0  0  3  0  0  0  0  0  0
  181.8120  179.2090  143.3210 C   0  0  0  0  0  2  0  0  0  0  0  0
  183.6930  178.0850  141.3240 C   0  0  1  0  0  3  0  0  0  0  0  0
  181.2480  178.4620  142.1110 C   0  0  1  0  0  3  0  0  0  0  0  0
  179.2860  178.6070  137.8420 C   0  0  0  0  0  2  0  0  0  0  0  0
  181.4550  177.6750  138.3580 N   0  0  0  0  0  0  0  0  0  0  0  0
  180.0520  179.5930  138.6760 C   0  0  0  0  0  2  0  0  0  0  0  0
  180.1190  177.3420  137.8740 C   0  0  1  0  0  3  0  0  0  0  0  0
  181.4840  179.1160  138.5900 C   0  0  1  0  0  3  0  0  0  0  0  0
  182.3120  177.4250  137.3400 O   0  0  0  0  0  1  0  0  0  0  0  0
  180.7600  175.4260  139.8580 C   0  0  0  0  0  1  0  0  0  0  0  0
  179.3590  176.1350  138.9800 S   0  0  2  0  0  0  0  0  0  0  0  0
  178.9350  175.0110  138.0450 O   0  0  0  0  0  0  0  0  0  0  0  0
  179.8880  179.0250  141.7310 C   0  0  0  0  0  2  0  0  0  0  0  0
  179.6450  180.3490  142.4300 C   0  0  0  0  0  1  0  0  0  0  0  0
  183.6440  179.3730  144.9770 C   0  0  0  0  0  2  0  0  0  0  0  0
  184.1560  178.4480  145.9310 O   0  0  0  0  0  0  0  0  0  0  0  0
  185.6610  179.4920  147.3440 O   0  0  0  0  0  0  0  0  0  0  0  0
  185.4240  178.5870  146.5000 C   0  0  0  0  0  0  0  0  0  0  0  0
  186.5080  177.6510  146.1050 C   0  0  0  0  0  1  0  0  0  0  0  0
  1  8  1  0  0  0  0
  2  6  1  1  0  0  0
  2 10  1  0  0  0  0
  3  5  2  0  0  0  0
  4  5  1  6  0  0  0
  4  7  1  0  0  0  0
  5  9  1  0  0  0  0
  7 12  1  0  0  0  0
  7 13  1  0  0  0  0
  8  6  1  0  0  0  0
  9  1  1  0  0  0  0
  9 12  1  0  0  0  0
 10 25  1  0  0  0  0
 11 10  1  0  0  0  0
 12  2  1  0  0  0  0
 13 11  1  0  0  0  0
 14 17  1  0  0  0  0
 14 16  1  0  0  0  0
 15 18  1  0  0  0  0
 17 15  1  0  0  0  0
 17 21  1  0  0  0  0
 18 16  1  0  0  0  0
 18  4  1  0  0  0  0
 19 15  1  0  0  0  0
 21 20  1  0  0  0  0
 22 21  2  0  0  0  0
 23 13  1  0  0  0  0
 23 24  1  0  0  0  0
 25 26  1  0  0  0  0
 26 28  1  0  0  0  0
 28 27  2  0  0  0  0
 29 28  1  0  0  0  0
M  END
>  <MODEL>
5

>  <REMARK>
 VINA RESULT:      -7.1      2.887      4.217
  Name = 
  6 active torsions:
  status: ('A' for Active; 'I' for Inactive)
    1  A    between atoms: C_8  and  O_10
    2  A    between atoms: C_9  and  C_22
    3  A    between atoms: O_10  and  C_23
    4  A    between atoms: C_11  and  C_29
    5  A    between atoms: C_20  and  C_23
    6  A    between atoms: C_21  and  S_25
                            x       y       z     vdW  Elec       q    Type
                         _______ _______ _______ _____ _____    ______ ____

>  <TORSDO>
F 6

$$$$
=
 OpenBabel11042410063D

 29 32  0  0  1  0  0  0  0  0999 V2000
  183.3290  179.4170  144.1250 C   0  0  0  0  0  2  0  0  0  0  0  0
  186.0310  178.3500  143.9070 C   0  0  2  0  0  3  0  0  0  0  0  0
  182.5870  177.9260  141.6960 O   0  0  0  0  0  0  0  0  0  0  0  0
  184.8320  178.2440  140.8140 C   0  0  2  0  0  3  0  0  0  0  0  0
  183.7270  178.4550  141.7960 C   0  0  0  0  0  0  0  0  0  0  0  0
  185.4600  178.6800  145.2840 C   0  0  0  0  0  2  0  0  0  0  0  0
  185.9750  179.0610  141.4600 C   0  0  1  0  0  3  0  0  0  0  0  0
  183.9340  178.5320  145.2240 C   0  0  0  0  0  2  0  0  0  0  0  0
  184.0970  179.2780  142.8880 N   0  0  0  0  0  0  0  0  0  0  0  0
  187.5380  178.1730  143.8360 C   0  0  2  0  0  3  0  0  0  0  0  0
  187.8330  177.5700  142.4700 C   0  0  0  0  0  2  0  0  0  0  0  0
  185.5380  179.3960  142.9020 C   0  0  1  0  0  3  0  0  0  0  0  0
  187.4290  178.5280  141.3490 C   0  0  1  0  0  3  0  0  0  0  0  0
  182.4400  179.5820  138.3280 C   0  0  0  0  0  2  0  0  0  0  0  0
  184.0910  177.8230  138.4680 N   0  0  0  0  0  0  0  0  0  0  0  0
  183.1460  179.6830  139.6490 C   0  0  0  0  0  2  0  0  0  0  0  0
  182.9080  178.2680  137.7370 C   0  0  1  0  0  3  0  0  0  0  0  0
  184.3900  178.8430  139.4680 C   0  0  1  0  0  3  0  0  0  0  0  0
  185.1180  177.8270  137.5850 O   0  0  0  0  0  1  0  0  0  0  0  0
  182.3470  175.7590  138.9240 C   0  0  0  0  0  1  0  0  0  0  0  0
  181.6040  177.0290  137.8870 S   0  0  2  0  0  0  0  0  0  0  0  0
  181.5730  176.3750  136.5130 O   0  0  0  0  0  0  0  0  0  0  0  0
  187.7500  177.9200  139.9940 C   0  0  0  0  0  2  0  0  0  0  0  0
  189.2220  177.5650  139.9040 C   0  0  0  0  0  1  0  0  0  0  0  0
  188.0260  177.2100  144.9120 C   0  0  0  0  0  2  0  0  0  0  0  0
  188.8910  177.8760  145.8260 O   0  0  0  0  0  0  0  0  0  0  0  0
  189.9580  176.5570  147.3980 O   0  0  0  0  0  0  0  0  0  0  0  0
  189.0850  177.4270  147.1340 C   0  0  0  0  0  0  0  0  0  0  0  0
  188.2520  177.9870  148.2290 C   0  0  0  0  0  1  0  0  0  0  0  0
  1  8  1  0  0  0  0
  2  6  1  1  0  0  0
  3  5  2  0  0  0  0
  4  7  1  0  0  0  0
  4  5  1  1  0  0  0
  5  9  1  0  0  0  0
  7 12  1  0  0  0  0
  8  6  1  0  0  0  0
  9 12  1  0  0  0  0
  9  1  1  0  0  0  0
 10  2  1  0  0  0  0
 10 25  1  0  0  0  0
 11 10  1  0  0  0  0
 12  2  1  0  0  0  0
 13  7  1  0  0  0  0
 13 11  1  0  0  0  0
 14 16  1  0  0  0  0
 15 18  1  0  0  0  0
 17 21  1  0  0  0  0
 17 14  1  0  0  0  0
 17 15  1  0  0  0  0
 18 16  1  0  0  0  0
 18  4  1  0  0  0  0
 19 15  1  0  0  0  0
 21 20  1  0  0  0  0
 22 21  2  0  0  0  0
 23 13  1  0  0  0  0
 24 23  1  0  0  0  0
 25 26  1  0  0  0  0
 26 28  1  0  0  0  0
 28 27  2  0  0  0  0
 28 29  1  0  0  0  0
M  END
>  <MODEL>
6

>  <REMARK>
 VINA RESULT:      -7.1      1.973      3.755
  Name = 
  6 active torsions:
  status: ('A' for Active; 'I' for Inactive)
    1  A    between atoms: C_8  and  O_10
    2  A    between atoms: C_9  and  C_22
    3  A    between atoms: O_10  and  C_23
    4  A    between atoms: C_11  and  C_29
    5  A    between atoms: C_20  and  C_23
    6  A    between atoms: C_21  and  S_25
                            x       y       z     vdW  Elec       q    Type
                         _______ _______ _______ _____ _____    ______ ____

>  <TORSDO>
F 6

$$$$
=
 OpenBabel11042410063D

 29 32  0  0  1  0  0  0  0  0999 V2000
  184.8830  179.0030  140.1070 C   0  0  0  0  0  2  0  0  0  0  0  0
  186.3510  178.0460  142.4330 C   0  0  2  0  0  3  0  0  0  0  0  0
  186.4780  177.2010  138.4090 O   0  0  0  0  0  0  0  0  0  0  0  0
  188.3950  177.5170  139.8720 C   0  0  2  0  0  3  0  0  0  0  0  0
  187.0090  177.7910  139.3870 C   0  0  0  0  0  0  0  0  0  0  0  0
  184.9050  178.5090  142.5930 C   0  0  0  0  0  2  0  0  0  0  0  0
  188.4820  178.4590  141.0960 C   0  0  1  0  0  3  0  0  0  0  0  0
  184.1740  178.2840  141.2640 C   0  0  0  0  0  2  0  0  0  0  0  0
  186.3220  178.7540  140.1670 N   0  0  0  0  0  0  0  0  0  0  0  0
  187.1600  177.9330  143.7140 C   0  0  2  0  0  3  0  0  0  0  0  0
  188.4360  177.1860  143.3500 C   0  0  0  0  0  2  0  0  0  0  0  0
  187.0480  178.9410  141.4040 C   0  0  1  0  0  3  0  0  0  0  0  0
  189.2700  177.9850  142.3480 C   0  0  1  0  0  3  0  0  0  0  0  0
  189.4310  178.4140  136.4350 C   0  0  0  0  0  2  0  0  0  0  0  0
  190.0180  176.7870  138.1220 N   0  0  0  0  0  0  0  0  0  0  0  0
  188.6530  178.7090  137.6850 C   0  0  0  0  0  2  0  0  0  0  0  0
  190.0860  177.0730  136.6920 C   0  0  1  0  0  3  0  0  0  0  0  0
  189.3750  177.9310  138.7610 C   0  0  1  0  0  3  0  0  0  0  0  0
  191.2950  176.7530  138.5730 O   0  0  0  0  0  1  0  0  0  0  0  0
  187.9630  176.6870  134.8580 C   0  0  0  0  0  1  0  0  0  0  0  0
  189.2190  175.7820  135.7770 S   0  0  2  0  0  0  0  0  0  0  0  0
  188.4090  175.0660  136.8500 O   0  0  0  0  0  0  0  0  0  0  0  0
  190.5490  177.2360  142.0100 C   0  0  0  0  0  2  0  0  0  0  0  0
  190.6660  175.9780  142.8490 C   0  0  0  0  0  1  0  0  0  0  0  0
  186.4060  177.1290  144.7670 C   0  0  0  0  0  2  0  0  0  0  0  0
  186.4660  177.7790  146.0320 O   0  0  0  0  0  0  0  0  0  0  0  0
  185.7360  179.5380  147.3450 O   0  0  0  0  0  0  0  0  0  0  0  0
  185.4870  178.6800  146.4560 C   0  0  0  0  0  0  0  0  0  0  0  0
  184.1330  178.6280  145.8460 C   0  0  0  0  0  1  0  0  0  0  0  0
  1  9  1  0  0  0  0
  1  8  1  0  0  0  0
  2  6  1  1  0  0  0
  2 10  1  0  0  0  0
  3  5  2  0  0  0  0
  4  5  1  6  0  0  0
  4  7  1  0  0  0  0
  5  9  1  0  0  0  0
  7 12  1  0  0  0  0
  7 13  1  0  0  0  0
  8  6  1  0  0  0  0
  9 12  1  0  0  0  0
 10 25  1  0  0  0  0
 11 10  1  0  0  0  0
 12  2  1  0  0  0  0
 13 11  1  0  0  0  0
 14 17  1  0  0  0  0
 14 16  1  0  0  0  0
 15 19  1  0  0  0  0
 15 18  1  0  0  0  0
 16 18  1  0  0  0  0
 17 15  1  0  0  0  0
 18  4  1  0  0  0  0
 20 21  1  0  0  0  0
 21 17  1  0  0  0  0
 21 22  2  0  0  0  0
 23 13  1  0  0  0  0
 23 24  1  0  0  0  0
 25 26  1  0  0  0  0
 26 28  1  0  0  0  0
 28 27  2  0  0  0  0
 29 28  1  0  0  0  0
M  END
>  <MODEL>
7

>  <REMARK>
 VINA RESULT:      -6.9      2.483      4.946
  Name = 
  6 active torsions:
  status: ('A' for Active; 'I' for Inactive)
    1  A    between atoms: C_8  and  O_10
    2  A    between atoms: C_9  and  C_22
    3  A    between atoms: O_10  and  C_23
    4  A    between atoms: C_11  and  C_29
    5  A    between atoms: C_20  and  C_23
    6  A    between atoms: C_21  and  S_25
                            x       y       z     vdW  Elec       q    Type
                         _______ _______ _______ _____ _____    ______ ____

>  <TORSDO>
F 6

$$$$
=
 OpenBabel11042410063D

 29 32  0  0  1  0  0  0  0  0999 V2000
  188.5790  178.4280  138.8510 C   0  0  0  0  0  2  0  0  0  0  0  0
  186.3460  178.2310  140.7100 C   0  0  2  0  0  3  0  0  0  0  0  0
  189.9900  176.3500  140.3880 O   0  0  0  0  0  0  0  0  0  0  0  0
  188.9760  177.1750  142.4390 C   0  0  2  0  0  3  0  0  0  0  0  0
  189.2900  177.2150  140.9800 C   0  0  0  0  0  0  0  0  0  0  0  0
  186.0850  178.6210  139.2580 C   0  0  0  0  0  2  0  0  0  0  0  0
  188.0610  178.4140  142.5880 C   0  0  1  0  0  3  0  0  0  0  0  0
  187.1810  177.9980  138.3840 C   0  0  0  0  0  2  0  0  0  0  0  0
  188.6850  178.3030  140.3040 N   0  0  0  0  0  0  0  0  0  0  0  0
  185.2220  178.5200  141.6900 C   0  0  2  0  0  3  0  0  0  0  0  0
  185.5790  177.7920  142.9780 C   0  0  0  0  0  2  0  0  0  0  0  0
  187.6660  178.8620  141.1640 C   0  0  1  0  0  3  0  0  0  0  0  0
  186.8700  178.3480  143.5810 C   0  0  1  0  0  3  0  0  0  0  0  0
  191.6800  176.1980  144.7680 C   0  0  0  0  0  2  0  0  0  0  0  0
  190.1150  178.0190  144.4920 N   0  0  0  0  0  0  0  0  0  0  0  0
  190.9160  175.9930  143.4920 C   0  0  0  0  0  2  0  0  0  0  0  0
  190.9770  177.3480  145.4610 C   0  0  1  0  0  3  0  0  0  0  0  0
  190.2950  177.3420  143.2120 C   0  0  1  0  0  3  0  0  0  0  0  0
  190.6010  179.2740  144.3440 O   0  0  0  0  0  1  0  0  0  0  0  0
  189.5720  178.2000  147.7670 C   0  0  0  0  0  1  0  0  0  0  0  0
  189.9770  176.7210  146.8260 S   0  0  2  0  0  0  0  0  0  0  0  0
  190.9900  176.0150  147.7160 O   0  0  0  0  0  0  0  0  0  0  0  0
  187.2020  177.6240  144.8760 C   0  0  0  0  0  2  0  0  0  0  0  0
  186.2690  178.0670  145.9870 C   0  0  0  0  0  1  0  0  0  0  0  0
  183.8940  177.9780  141.1740 C   0  0  0  0  0  2  0  0  0  0  0  0
  182.8730  178.9630  141.2880 O   0  0  0  0  0  0  0  0  0  0  0  0
  180.7610  178.0790  140.9540 O   0  0  0  0  0  0  0  0  0  0  0  0
  181.5810  178.6530  141.7200 C   0  0  0  0  0  0  0  0  0  0  0  0
  181.1700  179.0040  143.1040 C   0  0  0  0  0  1  0  0  0  0  0  0
  1  9  1  0  0  0  0
  2  6  1  6  0  0  0
  2 12  1  0  0  0  0
  2 10  1  0  0  0  0
  3  5  2  0  0  0  0
  4  5  1  6  0  0  0
  4  7  1  0  0  0  0
  4 18  1  0  0  0  0
  7 13  1  0  0  0  0
  8  1  1  0  0  0  0
  8  6  1  0  0  0  0
  9  5  1  0  0  0  0
  9 12  1  0  0  0  0
 10 11  1  0  0  0  0
 11 13  1  0  0  0  0
 12  7  1  0  0  0  0
 13 23  1  0  0  0  0
 14 17  1  0  0  0  0
 15 17  1  0  0  0  0
 16 14  1  0  0  0  0
 17 21  1  0  0  0  0
 18 16  1  0  0  0  0
 18 15  1  0  0  0  0
 19 15  1  0  0  0  0
 21 22  2  0  0  0  0
 21 20  1  0  0  0  0
 23 24  1  0  0  0  0
 25 26  1  0  0  0  0
 25 10  1  0  0  0  0
 26 28  1  0  0  0  0
 27 28  2  0  0  0  0
 28 29  1  0  0  0  0
M  END
>  <MODEL>
8

>  <REMARK>
 VINA RESULT:      -6.9      2.955      7.157
  Name = 
  6 active torsions:
  status: ('A' for Active; 'I' for Inactive)
    1  A    between atoms: C_8  and  O_10
    2  A    between atoms: C_9  and  C_22
    3  A    between atoms: O_10  and  C_23
    4  A    between atoms: C_11  and  C_29
    5  A    between atoms: C_20  and  C_23
    6  A    between atoms: C_21  and  S_25
                            x       y       z     vdW  Elec       q    Type
                         _______ _______ _______ _____ _____    ______ ____

>  <TORSDO>
F 6

$$$$
=
 OpenBabel11042410063D

 29 32  0  0  1  0  0  0  0  0999 V2000
  188.5980  177.2060  142.3180 C   0  0  0  0  0  2  0  0  0  0  0  0
  186.8450  178.1780  144.4320 C   0  0  2  0  0  3  0  0  0  0  0  0
  187.3520  179.1210  140.4590 O   0  0  0  0  0  0  0  0  0  0  0  0
  185.2270  178.8630  141.6150 C   0  0  2  0  0  3  0  0  0  0  0  0
  186.6560  178.5350  141.3310 C   0  0  0  0  0  0  0  0  0  0  0  0
  188.2290  177.6430  144.7880 C   0  0  0  0  0  2  0  0  0  0  0  0
  184.9190  177.8980  142.7840 C   0  0  1  0  0  3  0  0  0  0  0  0
  189.1580  177.8640  143.5870 C   0  0  0  0  0  2  0  0  0  0  0  0
  187.1780  177.5220  142.1740 N   0  0  0  0  0  0  0  0  0  0  0  0
  185.8610  178.3000  145.5830 C   0  0  2  0  0  3  0  0  0  0  0  0
  184.6870  179.1140  145.0580 C   0  0  0  0  0  2  0  0  0  0  0  0
  186.2690  177.3410  143.2840 C   0  0  1  0  0  3  0  0  0  0  0  0
  183.9760  178.3800  143.9200 C   0  0  1  0  0  3  0  0  0  0  0  0
  182.9830  179.5410  138.7520 C   0  0  0  0  0  2  0  0  0  0  0  0
  183.0500  178.0820  140.6780 N   0  0  0  0  0  0  0  0  0  0  0  0
  184.2950  179.7300  139.4590 C   0  0  0  0  0  2  0  0  0  0  0  0
  182.1590  178.6780  139.6860 C   0  0  1  0  0  3  0  0  0  0  0  0
  184.4050  178.5220  140.3610 C   0  0  1  0  0  3  0  0  0  0  0  0
  183.0150  176.7440  140.4780 O   0  0  0  0  0  1  0  0  0  0  0  0
  179.4650  178.6270  140.5540 C   0  0  0  0  0  1  0  0  0  0  0  0
  180.9180  179.6890  140.5190 S   0  0  2  0  0  0  0  0  0  0  0  0
  180.5520  180.7360  139.4760 O   0  0  0  0  0  0  0  0  0  0  0  0
  182.7950  179.1960  143.4220 C   0  0  0  0  0  2  0  0  0  0  0  0
  181.4950  178.6480  143.9790 C   0  0  0  0  0  1  0  0  0  0  0  0
  186.4850  179.0430  146.7580 C   0  0  0  0  0  2  0  0  0  0  0  0
  186.7240  178.1530  147.8430 O   0  0  0  0  0  0  0  0  0  0  0  0
  188.6540  178.5540  149.0550 O   0  0  0  0  0  0  0  0  0  0  0  0
  188.0130  177.8140  148.2610 C   0  0  0  0  0  0  0  0  0  0  0  0
  188.6350  176.5590  147.7650 C   0  0  0  0  0  1  0  0  0  0  0  0
  1  8  1  0  0  0  0
  2  6  1  1  0  0  0
  2 10  1  0  0  0  0
  3  5  2  0  0  0  0
  4  5  1  6  0  0  0
  4  7  1  0  0  0  0
  5  9  1  0  0  0  0
  7 12  1  0  0  0  0
  7 13  1  0  0  0  0
  8  6  1  0  0  0  0
  9  1  1  0  0  0  0
  9 12  1  0  0  0  0
 10 25  1  0  0  0  0
 11 10  1  0  0  0  0
 12  2  1  0  0  0  0
 13 11  1  0  0  0  0
 14 16  1  0  0  0  0
 14 17  1  0  0  0  0
 16 18  1  0  0  0  0
 17 21  1  0  0  0  0
 17 15  1  0  0  0  0
 18 15  1  0  0  0  0
 18  4  1  0  0  0  0
 19 15  1  0  0  0  0
 21 20  1  0  0  0  0
 22 21  2  0  0  0  0
 23 13  1  0  0  0  0
 23 24  1  0  0  0  0
 25 26  1  0  0  0  0
 26 28  1  0  0  0  0
 28 27  2  0  0  0  0
 29 28  1  0  0  0  0
M  END
>  <MODEL>
9

>  <REMARK>
 VINA RESULT:      -6.8      1.936      2.610
  Name = 
  6 active torsions:
  status: ('A' for Active; 'I' for Inactive)
    1  A    between atoms: C_8  and  O_10
    2  A    between atoms: C_9  and  C_22
    3  A    between atoms: O_10  and  C_23
    4  A    between atoms: C_11  and  C_29
    5  A    between atoms: C_20  and  C_23
    6  A    between atoms: C_21  and  S_25
                            x       y       z     vdW  Elec       q    Type
                         _______ _______ _______ _____ _____    ______ ____

>  <TORSDO>
F 6

$$$$
