=
 OpenBabel11032421083D

 54 62  0  0  1  0  0  0  0  0999 V2000
  186.6770  178.7470  140.7890 C   0  0  0  0  0  3  0  0  0  0  0  0
  189.5910  177.0690  145.1470 N   0  0  0  0  0  0  0  0  0  0  0  0
  186.7140  177.9470  143.0530 N   0  0  0  0  0  0  0  0  0  0  0  0
  190.9300  177.7450  142.8610 C   0  0  0  0  0  3  0  0  0  0  0  0
  184.4960  179.0450  139.5130 C   0  0  2  0  0  3  0  0  0  0  0  0
  191.6060  177.3330  143.9610 N   0  0  0  0  0  0  0  0  0  0  0  0
  185.2570  178.0750  143.2040 C   0  0  0  0  0  2  0  0  0  0  0  0
  188.8570  178.2550  141.7820 C   0  0  0  0  0  0  0  0  0  0  0  0
  184.5550  178.3650  141.9010 C   0  0  0  0  0  3  0  0  0  0  0  0
  186.8740  177.1260  145.3850 N   0  0  0  0  0  1  0  0  0  0  0  0
  190.9460  177.0010  145.0970 C   0  0  0  0  0  3  0  0  0  0  0  0
  188.1780  178.8320  137.6530 C   0  0  2  0  0  3  0  0  0  0  0  0
  187.7730  178.3940  136.2660 C   0  0  0  0  0  2  0  0  0  0  0  0
  189.2810  177.4600  139.4640 C   0  0  2  0  0  3  0  0  0  0  0  0
  189.3990  178.0160  138.0510 C   0  0  0  0  0  2  0  0  0  0  0  0
  188.8590  177.4760  144.0740 C   0  0  0  0  0  0  0  0  0  0  0  0
  187.5140  177.5160  144.1690 C   0  0  0  0  0  0  0  0  0  0  0  0
  186.9510  177.9470  137.4610 C   0  0  2  0  0  3  0  0  0  0  0  0
  189.5320  177.8400  142.8760 C   0  0  0  0  0  0  0  0  0  0  0  0
  187.3840  178.3480  141.8460 C   0  0  0  0  0  0  0  0  0  0  0  0
  185.7960  178.7310  137.5200 O   0  0  0  0  0  0  0  0  0  0  0  0
  184.9160  178.0800  138.3890 C   0  0  2  0  0  3  0  0  0  0  0  0
  189.5680  178.5550  140.4870 C   0  0  0  0  0  2  0  0  0  0  0  0
  185.2130  178.7330  140.7970 C   0  0  0  0  0  0  0  0  0  0  0  0
  182.7330  179.3400  139.7120 Cl  0  0  0  0  0  0  0  0  0  0  0  0
  183.7570  177.4340  137.6200 C   0  0  0  0  0  2  0  0  0  0  0  0
  183.8880  175.9190  137.5480 C   0  0  0  0  0  2  0  0  0  0  0  0
  183.5430  175.4500  136.1480 C   0  0  0  0  0  2  0  0  0  0  0  0
  183.7470  173.9480  136.0570 C   0  0  0  0  0  2  0  0  0  0  0  0
  184.8670  173.4950  136.9820 C   0  0  1  0  0  3  0  0  0  0  0  0
  184.4150  172.4430  137.7820 O   0  0  0  0  0  0  0  0  0  0  0  0
  183.5920  171.6830  136.9490 C   0  0  0  0  0  1  0  0  0  0  0  0
  186.0670  173.0300  136.1650 C   0  0  0  0  0  2  0  0  0  0  0  0
  187.2710  172.8290  137.0560 C   0  0  0  0  0  2  0  0  0  0  0  0
  188.5130  174.8650  136.5250 O   0  0  0  0  0  0  0  0  0  0  0  0
  189.7000  174.0130  134.5980 C   0  0  0  0  0  2  0  0  0  0  0  0
  189.0290  175.2220  135.2470 C   0  0  0  0  0  2  0  0  0  0  0  0
  189.2440  171.7290  135.2000 O   0  0  0  0  0  0  0  0  0  0  0  0
  188.4220  173.5090  136.4990 N   0  0  0  0  0  0  0  0  0  0  0  0
  189.1460  172.9610  135.4290 C   0  0  0  0  0  0  0  0  0  0  0  0
  190.2250  176.2880  139.6950 C   0  0  0  0  0  2  0  0  0  0  0  0
  191.3590  176.2700  138.6790 C   0  0  0  0  0  2  0  0  0  0  0  0
  191.4480  174.9460  138.0860 N   0  0  0  0  0  2  0  0  0  0  0  0
  194.5030  176.0570  136.2270 C   0  0  1  0  0  3  0  0  0  0  0  0
  195.6180  174.0480  137.3660 C   0  0  1  0  0  0  0  0  0  0  0  0
  194.8760  177.3020  135.7170 O   0  0  0  0  0  1  0  0  0  0  0  0
  195.9370  173.1000  136.2460 C   0  0  0  0  0  2  0  0  0  0  0  0
  197.7190  174.7040  136.1210 C   0  0  0  0  0  1  0  0  0  0  0  0
  194.1910  173.5900  137.7790 C   0  0  0  0  0  2  0  0  0  0  0  0
  195.6230  175.4920  136.9930 N   0  0  1  0  0  0  0  0  0  0  0  0
  192.3250  175.0390  136.9260 C   0  0  2  0  0  3  0  0  0  0  0  0
  193.0750  173.7190  136.7460 C   0  0  0  0  0  2  0  0  0  0  0  0
  196.2130  174.5440  136.0420 C   0  0  2  0  0  0  0  0  0  0  0  0
  193.2690  176.2260  137.1010 C   0  0  0  0  0  2  0  0  0  0  0  0
  1 24  1  0  0  0  0
  1 20  2  0  0  0  0
  3  7  1  0  0  0  0
  3 17  1  0  0  0  0
  4 19  1  0  0  0  0
  4  6  2  0  0  0  0
  5 25  1  1  0  0  0
  5 24  1  0  0  0  0
  6 11  1  0  0  0  0
  8 20  1  0  0  0  0
  8 19  2  0  0  0  0
  9  7  1  0  0  0  0
 11  2  2  0  0  0  0
 12 13  1  6  0  0  0
 12 15  1  0  0  0  0
 14 41  1  6  0  0  0
 14 23  1  0  0  0  0
 15 14  1  0  0  0  0
 16 17  2  0  0  0  0
 16  2  1  0  0  0  0
 17 10  1  0  0  0  0
 18 13  1  6  0  0  0
 18 21  1  0  0  0  0
 18 12  1  0  0  0  0
 19 16  1  0  0  0  0
 20  3  1  0  0  0  0
 21 22  1  0  0  0  0
 22 26  1  6  0  0  0
 22  5  1  0  0  0  0
 23  8  1  0  0  0  0
 24  9  2  0  0  0  0
 27 26  1  0  0  0  0
 28 27  1  0  0  0  0
 29 28  1  0  0  0  0
 30 29  1  6  0  0  0
 30 31  1  0  0  0  0
 32 31  1  0  0  0  0
 33 30  1  0  0  0  0
 33 34  1  0  0  0  0
 36 37  1  0  0  0  0
 36 40  1  0  0  0  0
 37 35  1  0  0  0  0
 38 40  2  0  0  0  0
 39 35  1  0  0  0  0
 39 34  1  0  0  0  0
 40 39  1  0  0  0  0
 42 41  1  0  0  0  0
 43 42  1  0  0  0  0
 44 46  1  1  0  0  0
 44 50  1  0  0  0  0
 44 54  1  0  0  0  0
 45 47  1  1  0  0  0
 45 49  1  0  0  0  0
 50 45  1  0  0  0  0
 51 54  1  0  0  0  0
 51 43  1  0  0  0  0
 52 51  1  0  0  0  0
 52 49  1  0  0  0  0
 53 48  1  0  0  0  0
 53 47  1  0  0  0  0
 53 50  1  0  0  0  0
 53 45  1  0  0  0  0
M  END
>  <MODEL>
1

>  <REMARK>
 VINA RESULT:      -8.1      0.000      0.000
  Name = 
  13 active torsions:
  status: ('A' for Active; 'I' for Inactive)
    1  A    between atoms: O_4  and  C_12
    2  A    between atoms: C_8  and  C_23
    3  A    between atoms: C_8  and  N_43
    4  A    between atoms: C_10  and  C_16
    5  A    between atoms: C_10  and  C_29
    6  A    between atoms: C_12  and  C_17
    7  A    between atoms: C_12  and  C_23
    8  A    between atoms: C_16  and  C_17
    9  A    between atoms: N_28  and  C_34
   10  A    between atoms: N_28  and  C_42
   11  A    between atoms: C_29  and  C_46
   12  A    between atoms: C_32  and  C_52
   13  A    between atoms: C_34  and  C_52
                            x       y       z     vdW  Elec       q    Type
                         _______ _______ _______ _____ _____    ______ ____

>  <TORSDO>
F 13

$$$$
=
 OpenBabel11032421083D

 54 62  0  0  1  0  0  0  0  0999 V2000
  184.4670  178.8230  139.6260 C   0  0  0  0  0  3  0  0  0  0  0  0
  181.9370  177.3750  134.9580 N   0  0  0  0  0  0  0  0  0  0  0  0
  184.6080  177.9150  137.4080 N   0  0  0  0  0  0  0  0  0  0  0  0
  180.4260  178.3720  137.0070 C   0  0  0  0  0  3  0  0  0  0  0  0
  186.4750  178.8540  141.1880 C   0  0  2  0  0  3  0  0  0  0  0  0
  179.8480  178.0090  135.8370 N   0  0  0  0  0  0  0  0  0  0  0  0
  186.0740  177.8110  137.4610 C   0  0  0  0  0  2  0  0  0  0  0  0
  182.3900  178.6170  138.3520 C   0  0  0  0  0  0  0  0  0  0  0  0
  186.6310  178.0610  138.8390 C   0  0  0  0  0  3  0  0  0  0  0  0
  184.6350  177.0020  135.1050 N   0  0  0  0  0  1  0  0  0  0  0  0
  180.5940  177.5180  134.8170 C   0  0  0  0  0  3  0  0  0  0  0  0
  182.5900  179.3090  142.5140 C   0  0  2  0  0  3  0  0  0  0  0  0
  182.7290  178.8900  143.9580 C   0  0  0  0  0  2  0  0  0  0  0  0
  181.5360  178.0240  140.6110 C   0  0  2  0  0  3  0  0  0  0  0  0
  181.3190  178.6680  141.9740 C   0  0  0  0  0  2  0  0  0  0  0  0
  182.5730  177.7230  136.1090 C   0  0  0  0  0  0  0  0  0  0  0  0
  183.9070  177.5520  136.2040 C   0  0  0  0  0  0  0  0  0  0  0  0
  183.6230  178.2590  142.9070 C   0  0  2  0  0  3  0  0  0  0  0  0
  181.8110  178.2510  137.1880 C   0  0  0  0  0  0  0  0  0  0  0  0
  183.8540  178.4800  138.4940 C   0  0  0  0  0  0  0  0  0  0  0  0
  184.8850  178.8520  142.9870 O   0  0  0  0  0  0  0  0  0  0  0  0
  185.7590  178.0270  142.2720 C   0  0  2  0  0  3  0  0  0  0  0  0
  181.5680  179.0930  139.5230 C   0  0  0  0  0  2  0  0  0  0  0  0
  185.8970  178.5850  139.8270 C   0  0  0  0  0  0  0  0  0  0  0  0
  188.2740  178.8640  141.2310 Cl  0  0  0  0  0  0  0  0  0  0  0  0
  186.6860  177.2550  143.2190 C   0  0  0  0  0  2  0  0  0  0  0  0
  186.6510  177.8100  144.6370 C   0  0  0  0  0  2  0  0  0  0  0  0
  187.8710  177.3250  145.3960 C   0  0  0  0  0  2  0  0  0  0  0  0
  188.0360  178.1500  146.6610 C   0  0  0  0  0  2  0  0  0  0  0  0
  189.4290  177.9730  147.2460 C   0  0  1  0  0  3  0  0  0  0  0  0
  189.3680  178.0840  148.6380 O   0  0  0  0  0  0  0  0  0  0  0  0
  188.0320  177.8430  148.9610 C   0  0  0  0  0  1  0  0  0  0  0  0
  189.9860  176.6040  146.8730 C   0  0  0  0  0  2  0  0  0  0  0  0
  191.4680  176.6900  146.5940 C   0  0  0  0  0  2  0  0  0  0  0  0
  191.3310  178.3130  144.7720 O   0  0  0  0  0  0  0  0  0  0  0  0
  191.2150  176.7270  142.9500 C   0  0  0  0  0  2  0  0  0  0  0  0
  190.7620  178.0840  143.4880 C   0  0  0  0  0  2  0  0  0  0  0  0
  192.0280  174.9310  144.3270 O   0  0  0  0  0  0  0  0  0  0  0  0
  191.6960  177.0820  145.2180 N   0  0  0  0  0  0  0  0  0  0  0  0
  191.7010  176.1360  144.1820 C   0  0  0  0  0  0  0  0  0  0  0  0
  180.4580  177.0000  140.2880 C   0  0  0  0  0  2  0  0  0  0  0  0
  181.0540  175.7000  139.7640 C   0  0  0  0  0  2  0  0  0  0  0  0
  180.1530  175.1250  138.7780 N   0  0  0  0  0  2  0  0  0  0  0  0
  183.0830  173.7310  136.9080 C   0  0  1  0  0  3  0  0  0  0  0  0
  181.8080  171.5110  137.0710 C   0  0  1  0  0  0  0  0  0  0  0  0
  184.4040  174.1650  136.8000 O   0  0  0  0  0  1  0  0  0  0  0  0
  181.4310  171.1800  135.6560 C   0  0  0  0  0  2  0  0  0  0  0  0
  183.7270  170.4920  135.7780 C   0  0  0  0  0  1  0  0  0  0  0  0
  180.5820  172.3410  137.5460 C   0  0  0  0  0  2  0  0  0  0  0  0
  183.0670  172.2950  137.2220 N   0  0  1  0  0  0  0  0  0  0  0  0
  180.9350  174.8270  137.5870 C   0  0  2  0  0  3  0  0  0  0  0  0
  180.2960  173.6600  136.8350 C   0  0  0  0  0  2  0  0  0  0  0  0
  182.8010  171.6850  135.9160 C   0  0  2  0  0  0  0  0  0  0  0  0
  182.3800  174.5390  137.9890 C   0  0  0  0  0  2  0  0  0  0  0  0
  1 24  1  0  0  0  0
  2 16  1  0  0  0  0
  3  7  1  0  0  0  0
  3 20  1  0  0  0  0
  4 19  1  0  0  0  0
  5 25  1  6  0  0  0
  5 22  1  0  0  0  0
  6  4  2  0  0  0  0
  7  9  1  0  0  0  0
  8 20  1  0  0  0  0
  8 23  1  0  0  0  0
  9 24  2  0  0  0  0
 10 17  1  0  0  0  0
 11  2  2  0  0  0  0
 11  6  1  0  0  0  0
 12 15  1  6  0  0  0
 12 18  1  0  0  0  0
 12 13  1  0  0  0  0
 14 41  1  6  0  0  0
 14 15  1  0  0  0  0
 16 17  2  0  0  0  0
 16 19  1  0  0  0  0
 17  3  1  0  0  0  0
 18 21  1  0  0  0  0
 18 13  1  1  0  0  0
 19  8  2  0  0  0  0
 20  1  2  0  0  0  0
 22 21  1  0  0  0  0
 22 26  1  1  0  0  0
 23 14  1  0  0  0  0
 24  5  1  0  0  0  0
 26 27  1  0  0  0  0
 27 28  1  0  0  0  0
 28 29  1  0  0  0  0
 30 29  1  6  0  0  0
 30 31  1  0  0  0  0
 31 32  1  0  0  0  0
 33 30  1  0  0  0  0
 34 33  1  0  0  0  0
 35 39  1  0  0  0  0
 36 37  1  0  0  0  0
 36 40  1  0  0  0  0
 37 35  1  0  0  0  0
 39 34  1  0  0  0  0
 40 38  2  0  0  0  0
 40 39  1  0  0  0  0
 42 41  1  0  0  0  0
 43 42  1  0  0  0  0
 44 46  1  1  0  0  0
 44 50  1  0  0  0  0
 44 54  1  0  0  0  0
 45 47  1  1  0  0  0
 45 50  1  0  0  0  0
 45 49  1  0  0  0  0
 47 53  1  0  0  0  0
 48 53  1  0  0  0  0
 51 54  1  0  0  0  0
 51 43  1  0  0  0  0
 52 49  1  0  0  0  0
 52 51  1  0  0  0  0
 53 45  1  0  0  0  0
 53 50  1  0  0  0  0
M  END
>  <MODEL>
2

>  <REMARK>
 VINA RESULT:      -7.9      4.699     10.194
  Name = 
  13 active torsions:
  status: ('A' for Active; 'I' for Inactive)
    1  A    between atoms: O_4  and  C_12
    2  A    between atoms: C_8  and  C_23
    3  A    between atoms: C_8  and  N_43
    4  A    between atoms: C_10  and  C_16
    5  A    between atoms: C_10  and  C_29
    6  A    between atoms: C_12  and  C_17
    7  A    between atoms: C_12  and  C_23
    8  A    between atoms: C_16  and  C_17
    9  A    between atoms: N_28  and  C_34
   10  A    between atoms: N_28  and  C_42
   11  A    between atoms: C_29  and  C_46
   12  A    between atoms: C_32  and  C_52
   13  A    between atoms: C_34  and  C_52
                            x       y       z     vdW  Elec       q    Type
                         _______ _______ _______ _____ _____    ______ ____

>  <TORSDO>
F 13

$$$$
=
 OpenBabel11032421083D

 54 62  0  0  1  0  0  0  0  0999 V2000
  182.3770  176.2790  137.9450 C   0  0  0  0  0  3  0  0  0  0  0  0
  179.1980  177.9640  142.1090 N   0  0  0  0  0  0  0  0  0  0  0  0
  180.6800  175.7790  139.5680 N   0  0  0  0  0  0  0  0  0  0  0  0
  180.9830  179.7320  141.0300 C   0  0  0  0  0  3  0  0  0  0  0  0
  183.3790  174.4720  136.4590 C   0  0  2  0  0  3  0  0  0  0  0  0
  180.1750  180.1040  142.0520 N   0  0  0  0  0  0  0  0  0  0  0  0
  180.4740  174.4190  139.0480 C   0  0  0  0  0  2  0  0  0  0  0  0
  181.7160  178.0640  139.4790 C   0  0  0  0  0  0  0  0  0  0  0  0
  181.5180  174.0120  138.0380 C   0  0  0  0  0  3  0  0  0  0  0  0
  178.9310  175.3800  141.2770 N   0  0  0  0  0  1  0  0  0  0  0  0
  179.2860  179.2320  142.5870 C   0  0  0  0  0  3  0  0  0  0  0  0
  185.1860  178.1350  137.0720 C   0  0  2  0  0  3  0  0  0  0  0  0
  186.6220  177.8040  136.7450 C   0  0  0  0  0  2  0  0  0  0  0  0
  184.1540  178.5330  139.3430 C   0  0  2  0  0  3  0  0  0  0  0  0
  185.1910  178.9960  138.3270 C   0  0  0  0  0  2  0  0  0  0  0  0
  179.9830  177.5340  141.0850 C   0  0  0  0  0  0  0  0  0  0  0  0
  179.8670  176.2610  140.6530 C   0  0  0  0  0  0  0  0  0  0  0  0
  185.7280  176.7370  137.3490 C   0  0  2  0  0  3  0  0  0  0  0  0
  180.9150  178.4360  140.5010 C   0  0  0  0  0  0  0  0  0  0  0  0
  181.6030  176.6900  138.9490 C   0  0  0  0  0  0  0  0  0  0  0  0
  185.3260  175.8700  136.3300 O   0  0  0  0  0  0  0  0  0  0  0  0
  184.8130  174.7300  136.9560 C   0  0  2  0  0  3  0  0  0  0  0  0
  182.7630  178.9950  138.9220 C   0  0  0  0  0  2  0  0  0  0  0  0
  182.3620  174.8890  137.4850 C   0  0  0  0  0  0  0  0  0  0  0  0
  183.0540  172.8660  135.7170 Cl  0  0  0  0  0  0  0  0  0  0  0  0
  185.7730  173.5430  136.8140 C   0  0  0  0  0  2  0  0  0  0  0  0
  186.4450  173.5080  135.4480 C   0  0  0  0  0  2  0  0  0  0  0  0
  187.9510  173.5200  135.6270 C   0  0  0  0  0  2  0  0  0  0  0  0
  188.4510  174.9530  135.5760 C   0  0  0  0  0  2  0  0  0  0  0  0
  189.7600  175.0980  136.3380 C   0  0  1  0  0  3  0  0  0  0  0  0
  190.6180  175.9460  135.6340 O   0  0  0  0  0  0  0  0  0  0  0  0
  189.7910  176.6520  134.7580 C   0  0  0  0  0  1  0  0  0  0  0  0
  189.5010  175.6770  137.7230 C   0  0  0  0  0  2  0  0  0  0  0  0
  190.5580  176.6960  138.0800 C   0  0  0  0  0  2  0  0  0  0  0  0
  190.2470  176.7630  140.5020 O   0  0  0  0  0  0  0  0  0  0  0  0
  188.5150  178.4500  140.5480 C   0  0  0  0  0  2  0  0  0  0  0  0
  189.0670  177.1760  141.1840 C   0  0  0  0  0  2  0  0  0  0  0  0
  189.0150  179.1690  138.3080 O   0  0  0  0  0  0  0  0  0  0  0  0
  190.1920  177.3900  139.2970 N   0  0  0  0  0  0  0  0  0  0  0  0
  189.2390  178.4200  139.2920 C   0  0  0  0  0  0  0  0  0  0  0  0
  184.4610  179.0480  140.7430 C   0  0  0  0  0  2  0  0  0  0  0  0
  184.7660  177.9090  141.7070 C   0  0  0  0  0  2  0  0  0  0  0  0
  184.1410  178.1900  142.9890 N   0  0  0  0  0  2  0  0  0  0  0  0
  185.9450  178.9570  146.1800 C   0  0  1  0  0  3  0  0  0  0  0  0
  187.3570  176.9020  145.5800 C   0  0  1  0  0  0  0  0  0  0  0  0
  185.5480  179.6470  147.3270 O   0  0  0  0  0  1  0  0  0  0  0  0
  188.7280  177.4470  145.3020 C   0  0  0  0  0  2  0  0  0  0  0  0
  188.6560  177.3670  147.6990 C   0  0  0  0  0  1  0  0  0  0  0  0
  186.6970  176.9560  144.1740 C   0  0  0  0  0  2  0  0  0  0  0  0
  186.5580  177.6800  146.5700 N   0  0  1  0  0  0  0  0  0  0  0  0
  185.1210  178.8800  143.8160 C   0  0  2  0  0  3  0  0  0  0  0  0
  186.5160  178.3260  143.5240 C   0  0  0  0  0  2  0  0  0  0  0  0
  187.9910  177.9720  146.4770 C   0  0  2  0  0  0  0  0  0  0  0  0
  184.7340  178.7370  145.2860 C   0  0  0  0  0  2  0  0  0  0  0  0
  1 20  2  0  0  0  0
  2 11  2  0  0  0  0
  3 17  1  0  0  0  0
  4  6  2  0  0  0  0
  5 25  1  1  0  0  0
  5 22  1  0  0  0  0
  5 24  1  0  0  0  0
  6 11  1  0  0  0  0
  7  3  1  0  0  0  0
  8 19  2  0  0  0  0
  9  7  1  0  0  0  0
 12 13  1  6  0  0  0
 12 18  1  0  0  0  0
 12 15  1  0  0  0  0
 14 41  1  1  0  0  0
 15 14  1  0  0  0  0
 16  2  1  0  0  0  0
 17 16  2  0  0  0  0
 17 10  1  0  0  0  0
 18 13  1  6  0  0  0
 19  4  1  0  0  0  0
 19 16  1  0  0  0  0
 20  8  1  0  0  0  0
 20  3  1  0  0  0  0
 21 22  1  0  0  0  0
 21 18  1  0  0  0  0
 22 26  1  6  0  0  0
 23 14  1  0  0  0  0
 23  8  1  0  0  0  0
 24  1  1  0  0  0  0
 24  9  2  0  0  0  0
 27 28  1  0  0  0  0
 27 26  1  0  0  0  0
 29 28  1  0  0  0  0
 30 29  1  6  0  0  0
 30 33  1  0  0  0  0
 31 30  1  0  0  0  0
 32 31  1  0  0  0  0
 33 34  1  0  0  0  0
 34 39  1  0  0  0  0
 35 37  1  0  0  0  0
 36 37  1  0  0  0  0
 38 40  2  0  0  0  0
 39 35  1  0  0  0  0
 40 39  1  0  0  0  0
 40 36  1  0  0  0  0
 41 42  1  0  0  0  0
 42 43  1  0  0  0  0
 43 51  1  0  0  0  0
 44 50  1  0  0  0  0
 44 46  1  1  0  0  0
 45 49  1  6  0  0  0
 45 53  1  0  0  0  0
 45 50  1  0  0  0  0
 47 45  1  0  0  0  0
 47 53  1  0  0  0  0
 51 54  1  0  0  0  0
 52 51  1  0  0  0  0
 52 49  1  0  0  0  0
 53 50  1  0  0  0  0
 53 48  1  0  0  0  0
 54 44  1  0  0  0  0
M  END
>  <MODEL>
3

>  <REMARK>
 VINA RESULT:      -7.9      3.534      8.467
  Name = 
  13 active torsions:
  status: ('A' for Active; 'I' for Inactive)
    1  A    between atoms: O_4  and  C_12
    2  A    between atoms: C_8  and  C_23
    3  A    between atoms: C_8  and  N_43
    4  A    between atoms: C_10  and  C_16
    5  A    between atoms: C_10  and  C_29
    6  A    between atoms: C_12  and  C_17
    7  A    between atoms: C_12  and  C_23
    8  A    between atoms: C_16  and  C_17
    9  A    between atoms: N_28  and  C_34
   10  A    between atoms: N_28  and  C_42
   11  A    between atoms: C_29  and  C_46
   12  A    between atoms: C_32  and  C_52
   13  A    between atoms: C_34  and  C_52
                            x       y       z     vdW  Elec       q    Type
                         _______ _______ _______ _____ _____    ______ ____

>  <TORSDO>
F 13

$$$$
=
 OpenBabel11032421083D

 54 62  0  0  1  0  0  0  0  0999 V2000
  186.7710  175.0620  136.2910 C   0  0  0  0  0  3  0  0  0  0  0  0
  181.5550  173.5890  137.2470 N   0  0  0  0  0  0  0  0  0  0  0  0
  185.1760  173.3270  136.7510 N   0  0  0  0  0  0  0  0  0  0  0  0
  182.1170  176.2390  136.8810 C   0  0  0  0  0  3  0  0  0  0  0  0
  189.2710  174.5980  136.2320 C   0  0  2  0  0  3  0  0  0  0  0  0
  180.8470  175.8290  137.1130 N   0  0  0  0  0  0  0  0  0  0  0  0
  186.1850  172.2630  136.6360 C   0  0  0  0  0  2  0  0  0  0  0  0
  184.4330  175.7190  136.5820 C   0  0  0  0  0  0  0  0  0  0  0  0
  187.5930  172.7950  136.5550 C   0  0  0  0  0  3  0  0  0  0  0  0
  183.4420  171.6190  137.2180 N   0  0  0  0  0  1  0  0  0  0  0  0
  180.5630  174.5150  137.2900 C   0  0  0  0  0  3  0  0  0  0  0  0
  187.7000  178.3960  136.6300 C   0  0  2  0  0  3  0  0  0  0  0  0
  188.8570  179.1190  137.2750 C   0  0  0  0  0  2  0  0  0  0  0  0
  185.5360  177.6490  137.6970 C   0  0  2  0  0  3  0  0  0  0  0  0
  186.4320  178.8310  137.3510 C   0  0  0  0  0  2  0  0  0  0  0  0
  182.8490  173.9410  137.0180 C   0  0  0  0  0  0  0  0  0  0  0  0
  183.7990  172.9840  136.9950 C   0  0  0  0  0  0  0  0  0  0  0  0
  188.6440  177.6440  137.5610 C   0  0  2  0  0  3  0  0  0  0  0  0
  183.1670  175.3120  136.8180 C   0  0  0  0  0  0  0  0  0  0  0  0
  185.5060  174.7060  136.5150 C   0  0  0  0  0  0  0  0  0  0  0  0
  189.5610  176.9110  136.8040 O   0  0  0  0  0  0  0  0  0  0  0  0
  189.5800  175.6210  137.3420 C   0  0  2  0  0  3  0  0  0  0  0  0
  184.7790  177.1810  136.4580 C   0  0  0  0  0  2  0  0  0  0  0  0
  187.8620  174.0870  136.3380 C   0  0  0  0  0  0  0  0  0  0  0  0
  190.4980  173.3110  135.9520 Cl  0  0  0  0  0  0  0  0  0  0  0  0
  190.8760  175.3650  138.1190 C   0  0  0  0  0  2  0  0  0  0  0  0
  191.8290  176.5520  138.0520 C   0  0  0  0  0  2  0  0  0  0  0  0
  191.7840  177.3080  139.3660 C   0  0  0  0  0  2  0  0  0  0  0  0
  191.2850  176.3830  140.4620 C   0  0  0  0  0  2  0  0  0  0  0  0
  190.4470  177.1470  141.4760 C   0  0  1  0  0  3  0  0  0  0  0  0
  189.1230  177.2100  141.0350 O   0  0  0  0  0  0  0  0  0  0  0  0
  188.7790  178.5600  141.1140 C   0  0  0  0  0  1  0  0  0  0  0  0
  190.4960  176.4490  142.8300 C   0  0  0  0  0  2  0  0  0  0  0  0
  191.7750  176.7880  143.5580 C   0  0  0  0  0  2  0  0  0  0  0  0
  191.9200  176.3000  145.9480 O   0  0  0  0  0  0  0  0  0  0  0  0
  189.8800  177.4130  146.6170 C   0  0  0  0  0  2  0  0  0  0  0  0
  190.8260  176.2380  146.8580 C   0  0  0  0  0  2  0  0  0  0  0  0
  189.7650  178.6580  144.5630 O   0  0  0  0  0  0  0  0  0  0  0  0
  191.4930  177.1080  144.9420 N   0  0  0  0  0  0  0  0  0  0  0  0
  190.3410  177.8230  145.3040 C   0  0  0  0  0  0  0  0  0  0  0  0
  184.5450  177.9910  138.8010 C   0  0  0  0  0  2  0  0  0  0  0  0
  185.2130  178.7400  139.9460 C   0  0  0  0  0  2  0  0  0  0  0  0
  184.2240  179.0220  140.9740 N   0  0  0  0  0  2  0  0  0  0  0  0
  186.1480  177.4730  143.7880 C   0  0  1  0  0  3  0  0  0  0  0  0
  185.2010  179.4160  145.1700 C   0  0  1  0  0  0  0  0  0  0  0  0
  187.2680  176.6400  143.7970 O   0  0  0  0  0  1  0  0  0  0  0  0
  184.2740  178.7670  146.1580 C   0  0  0  0  0  2  0  0  0  0  0  0
  186.4380  178.4180  147.1360 C   0  0  0  0  0  1  0  0  0  0  0  0
  184.2490  179.6990  143.9730 C   0  0  0  0  0  2  0  0  0  0  0  0
  186.3540  178.5740  144.7400 N   0  0  1  0  0  0  0  0  0  0  0  0
  184.4370  178.0790  142.0620 C   0  0  2  0  0  3  0  0  0  0  0  0
  183.6080  178.5030  143.2740 C   0  0  0  0  0  2  0  0  0  0  0  0
  185.5910  178.1310  145.9110 C   0  0  2  0  0  0  0  0  0  0  0  0
  185.9290  177.9990  142.3770 C   0  0  0  0  0  2  0  0  0  0  0  0
  1 24  1  0  0  0  0
  1 20  2  0  0  0  0
  2 11  2  0  0  0  0
  3 17  1  0  0  0  0
  4  6  2  0  0  0  0
  5 25  1  1  0  0  0
  5 24  1  0  0  0  0
  5 22  1  0  0  0  0
  6 11  1  0  0  0  0
  7  3  1  0  0  0  0
  8 19  2  0  0  0  0
  9  7  1  0  0  0  0
 12 13  1  1  0  0  0
 12 15  1  0  0  0  0
 12 18  1  0  0  0  0
 14 41  1  1  0  0  0
 15 14  1  0  0  0  0
 16  2  1  0  0  0  0
 17 16  2  0  0  0  0
 17 10  1  0  0  0  0
 18 13  1  6  0  0  0
 19  4  1  0  0  0  0
 19 16  1  0  0  0  0
 20  8  1  0  0  0  0
 20  3  1  0  0  0  0
 21 22  1  0  0  0  0
 21 18  1  0  0  0  0
 22 26  1  6  0  0  0
 23  8  1  0  0  0  0
 23 14  1  0  0  0  0
 24  9  2  0  0  0  0
 27 26  1  0  0  0  0
 27 28  1  0  0  0  0
 28 29  1  0  0  0  0
 30 29  1  6  0  0  0
 30 33  1  0  0  0  0
 31 32  1  0  0  0  0
 31 30  1  0  0  0  0
 33 34  1  0  0  0  0
 34 39  1  0  0  0  0
 35 37  1  0  0  0  0
 36 37  1  0  0  0  0
 38 40  2  0  0  0  0
 39 40  1  0  0  0  0
 39 35  1  0  0  0  0
 40 36  1  0  0  0  0
 41 42  1  0  0  0  0
 42 43  1  0  0  0  0
 43 51  1  0  0  0  0
 44 46  1  6  0  0  0
 44 50  1  0  0  0  0
 45 49  1  6  0  0  0
 45 53  1  0  0  0  0
 45 47  1  0  0  0  0
 50 45  1  0  0  0  0
 50 53  1  0  0  0  0
 51 54  1  0  0  0  0
 51 52  1  0  0  0  0
 52 49  1  0  0  0  0
 53 47  1  0  0  0  0
 53 48  1  0  0  0  0
 54 44  1  0  0  0  0
M  END
>  <MODEL>
4

>  <REMARK>
 VINA RESULT:      -7.8      3.413      9.695
  Name = 
  13 active torsions:
  status: ('A' for Active; 'I' for Inactive)
    1  A    between atoms: O_4  and  C_12
    2  A    between atoms: C_8  and  C_23
    3  A    between atoms: C_8  and  N_43
    4  A    between atoms: C_10  and  C_16
    5  A    between atoms: C_10  and  C_29
    6  A    between atoms: C_12  and  C_17
    7  A    between atoms: C_12  and  C_23
    8  A    between atoms: C_16  and  C_17
    9  A    between atoms: N_28  and  C_34
   10  A    between atoms: N_28  and  C_42
   11  A    between atoms: C_29  and  C_46
   12  A    between atoms: C_32  and  C_52
   13  A    between atoms: C_34  and  C_52
                            x       y       z     vdW  Elec       q    Type
                         _______ _______ _______ _____ _____    ______ ____

>  <TORSDO>
F 13

$$$$
=
 OpenBabel11032421083D

 54 62  0  0  1  0  0  0  0  0999 V2000
  184.0270  175.1800  136.5820 C   0  0  0  0  0  3  0  0  0  0  0  0
  179.3040  176.0060  139.2850 N   0  0  0  0  0  0  0  0  0  0  0  0
  182.0280  174.2700  137.5540 N   0  0  0  0  0  0  0  0  0  0  0  0
  180.9080  178.1590  138.7700 C   0  0  0  0  0  3  0  0  0  0  0  0
  185.8600  173.6820  135.6510 C   0  0  2  0  0  3  0  0  0  0  0  0
  179.7340  178.3150  139.4270 N   0  0  0  0  0  0  0  0  0  0  0  0
  182.3260  172.9090  137.0840 C   0  0  0  0  0  2  0  0  0  0  0  0
  182.4900  176.7350  137.6770 C   0  0  0  0  0  0  0  0  0  0  0  0
  183.7190  172.7740  136.5220 C   0  0  0  0  0  3  0  0  0  0  0  0
  179.9290  173.4450  138.5810 N   0  0  0  0  0  1  0  0  0  0  0  0
  178.9330  177.2510  139.6800 C   0  0  0  0  0  3  0  0  0  0  0  0
  186.4710  177.6540  136.6070 C   0  0  2  0  0  3  0  0  0  0  0  0
  187.9660  177.6710  136.8140 C   0  0  0  0  0  2  0  0  0  0  0  0
  184.6510  177.7600  138.3550 C   0  0  2  0  0  3  0  0  0  0  0  0
  185.8460  178.4690  137.7290 C   0  0  0  0  0  2  0  0  0  0  0  0
  180.4720  175.7880  138.6220 C   0  0  0  0  0  0  0  0  0  0  0  0
  180.8010  174.5310  138.2600 C   0  0  0  0  0  0  0  0  0  0  0  0
  187.1810  176.4150  137.1430 C   0  0  2  0  0  3  0  0  0  0  0  0
  181.3210  176.8920  138.3360 C   0  0  0  0  0  0  0  0  0  0  0  0
  182.8800  175.3820  137.2300 C   0  0  0  0  0  0  0  0  0  0  0  0
  187.3640  175.4960  136.1060 O   0  0  0  0  0  0  0  0  0  0  0  0
  186.9350  174.2580  136.5920 C   0  0  2  0  0  3  0  0  0  0  0  0
  183.4280  177.8940  137.4540 C   0  0  0  0  0  2  0  0  0  0  0  0
  184.4840  173.8330  136.2360 C   0  0  0  0  0  0  0  0  0  0  0  0
  186.1840  172.0580  134.9480 Cl  0  0  0  0  0  0  0  0  0  0  0  0
  188.1240  173.3290  136.8650 C   0  0  0  0  0  2  0  0  0  0  0  0
  189.1360  173.3420  135.7280 C   0  0  0  0  0  2  0  0  0  0  0  0
  190.5310  173.1510  136.2930 C   0  0  0  0  0  2  0  0  0  0  0  0
  191.3480  174.4070  136.0480 C   0  0  0  0  0  2  0  0  0  0  0  0
  192.2960  174.6720  137.2080 C   0  0  1  0  0  3  0  0  0  0  0  0
  193.6160  174.5050  136.7800 O   0  0  0  0  0  0  0  0  0  0  0  0
  194.3840  175.2480  137.6770 C   0  0  0  0  0  1  0  0  0  0  0  0
  192.1090  176.0930  137.7260 C   0  0  0  0  0  2  0  0  0  0  0  0
  190.8130  176.2130  138.4920 C   0  0  0  0  0  2  0  0  0  0  0  0
  192.2020  177.1540  140.2680 O   0  0  0  0  0  0  0  0  0  0  0  0
  190.4410  177.5140  141.8850 C   0  0  0  0  0  2  0  0  0  0  0  0
  191.9050  177.1410  141.6600 C   0  0  0  0  0  2  0  0  0  0  0  0
  188.7260  177.3280  140.2090 O   0  0  0  0  0  0  0  0  0  0  0  0
  190.9950  177.0630  139.6510 N   0  0  0  0  0  0  0  0  0  0  0  0
  189.9390  177.3220  140.5380 C   0  0  0  0  0  0  0  0  0  0  0  0
  184.3270  178.3070  139.7390 C   0  0  0  0  0  2  0  0  0  0  0  0
  185.5540  178.9160  140.4050 C   0  0  0  0  0  2  0  0  0  0  0  0
  185.1950  179.3720  141.7380 N   0  0  0  0  0  2  0  0  0  0  0  0
  187.0510  177.3350  144.2740 C   0  0  1  0  0  3  0  0  0  0  0  0
  186.1000  179.0230  145.9540 C   0  0  1  0  0  0  0  0  0  0  0  0
  188.1610  176.4970  144.1570 O   0  0  0  0  0  1  0  0  0  0  0  0
  185.1490  178.2280  146.8010 C   0  0  0  0  0  2  0  0  0  0  0  0
  187.2900  177.6850  147.7390 C   0  0  0  0  0  1  0  0  0  0  0  0
  185.1730  179.5220  144.8090 C   0  0  0  0  0  2  0  0  0  0  0  0
  187.2520  178.2520  145.4040 N   0  0  1  0  0  0  0  0  0  0  0  0
  185.3780  178.2530  142.6510 C   0  0  2  0  0  3  0  0  0  0  0  0
  184.5320  178.4730  143.9050 C   0  0  0  0  0  2  0  0  0  0  0  0
  186.4630  177.6250  146.4690 C   0  0  2  0  0  0  0  0  0  0  0  0
  186.8630  178.0990  142.9710 C   0  0  0  0  0  2  0  0  0  0  0  0
  1 20  2  0  0  0  0
  2 11  2  0  0  0  0
  3 17  1  0  0  0  0
  4  6  2  0  0  0  0
  5 25  1  1  0  0  0
  5 24  1  0  0  0  0
  5 22  1  0  0  0  0
  6 11  1  0  0  0  0
  7  3  1  0  0  0  0
  8 19  2  0  0  0  0
  9  7  1  0  0  0  0
 12 13  1  1  0  0  0
 12 18  1  0  0  0  0
 12 15  1  0  0  0  0
 14 41  1  1  0  0  0
 15 14  1  0  0  0  0
 16  2  1  0  0  0  0
 17 10  1  0  0  0  0
 17 16  2  0  0  0  0
 18 13  1  6  0  0  0
 19 16  1  0  0  0  0
 19  4  1  0  0  0  0
 20  3  1  0  0  0  0
 20  8  1  0  0  0  0
 21 22  1  0  0  0  0
 21 18  1  0  0  0  0
 22 26  1  6  0  0  0
 23  8  1  0  0  0  0
 23 14  1  0  0  0  0
 24  9  2  0  0  0  0
 24  1  1  0  0  0  0
 27 28  1  0  0  0  0
 27 26  1  0  0  0  0
 29 28  1  0  0  0  0
 30 29  1  6  0  0  0
 30 33  1  0  0  0  0
 31 30  1  0  0  0  0
 31 32  1  0  0  0  0
 33 34  1  0  0  0  0
 34 39  1  0  0  0  0
 35 37  1  0  0  0  0
 37 36  1  0  0  0  0
 38 40  2  0  0  0  0
 39 35  1  0  0  0  0
 39 40  1  0  0  0  0
 40 36  1  0  0  0  0
 41 42  1  0  0  0  0
 42 43  1  0  0  0  0
 43 51  1  0  0  0  0
 44 46  1  6  0  0  0
 44 50  1  0  0  0  0
 45 49  1  6  0  0  0
 45 53  1  0  0  0  0
 45 47  1  0  0  0  0
 50 45  1  0  0  0  0
 50 53  1  0  0  0  0
 51 54  1  0  0  0  0
 51 52  1  0  0  0  0
 52 49  1  0  0  0  0
 53 47  1  0  0  0  0
 53 48  1  0  0  0  0
 54 44  1  0  0  0  0
M  END
>  <MODEL>
5

>  <REMARK>
 VINA RESULT:      -7.4      3.393      9.019
  Name = 
  13 active torsions:
  status: ('A' for Active; 'I' for Inactive)
    1  A    between atoms: O_4  and  C_12
    2  A    between atoms: C_8  and  C_23
    3  A    between atoms: C_8  and  N_43
    4  A    between atoms: C_10  and  C_16
    5  A    between atoms: C_10  and  C_29
    6  A    between atoms: C_12  and  C_17
    7  A    between atoms: C_12  and  C_23
    8  A    between atoms: C_16  and  C_17
    9  A    between atoms: N_28  and  C_34
   10  A    between atoms: N_28  and  C_42
   11  A    between atoms: C_29  and  C_46
   12  A    between atoms: C_32  and  C_52
   13  A    between atoms: C_34  and  C_52
                            x       y       z     vdW  Elec       q    Type
                         _______ _______ _______ _____ _____    ______ ____

>  <TORSDO>
F 13

$$$$
=
 OpenBabel11032421083D

 54 62  0  0  1  0  0  0  0  0999 V2000
  185.2530  178.2580  138.8390 C   0  0  0  0  0  3  0  0  0  0  0  0
  180.4270  178.1460  141.4840 N   0  0  0  0  0  0  0  0  0  0  0  0
  182.9340  177.6360  138.8590 N   0  0  0  0  0  0  0  0  0  0  0  0
  182.5870  179.2410  142.7530 C   0  0  0  0  0  3  0  0  0  0  0  0
  186.8090  177.5520  136.9550 C   0  0  2  0  0  3  0  0  0  0  0  0
  181.3780  179.1970  143.3620 N   0  0  0  0  0  0  0  0  0  0  0  0
  182.9760  177.1380  137.4760 C   0  0  0  0  0  2  0  0  0  0  0  0
  183.9570  178.7790  140.8470 C   0  0  0  0  0  0  0  0  0  0  0  0
  184.3760  177.0520  136.9260 C   0  0  0  0  0  3  0  0  0  0  0  0
  180.5290  177.0500  138.9870 N   0  0  0  0  0  1  0  0  0  0  0  0
  180.3030  178.6590  142.7350 C   0  0  0  0  0  3  0  0  0  0  0  0
  188.1740  178.8550  140.6280 C   0  0  2  0  0  3  0  0  0  0  0  0
  189.5500  178.2340  140.6590 C   0  0  0  0  0  2  0  0  0  0  0  0
  186.1150  178.1530  141.9110 C   0  0  2  0  0  3  0  0  0  0  0  0
  187.5520  178.6520  142.0020 C   0  0  0  0  0  2  0  0  0  0  0  0
  181.6160  178.1610  140.8220 C   0  0  0  0  0  0  0  0  0  0  0  0
  181.6900  177.6290  139.5850 C   0  0  0  0  0  0  0  0  0  0  0  0
  188.4270  177.5260  139.9250 C   0  0  2  0  0  3  0  0  0  0  0  0
  182.7530  178.7320  141.4570 C   0  0  0  0  0  0  0  0  0  0  0  0
  184.0830  178.2380  139.4780 C   0  0  0  0  0  0  0  0  0  0  0  0
  188.5880  177.7460  138.5550 O   0  0  0  0  0  0  0  0  0  0  0  0
  187.7720  176.8150  137.9040 C   0  0  2  0  0  3  0  0  0  0  0  0
  185.1790  179.3030  141.5570 C   0  0  0  0  0  2  0  0  0  0  0  0
  185.4230  177.6220  137.5310 C   0  0  0  0  0  0  0  0  0  0  0  0
  186.8580  177.0760  135.2200 Cl  0  0  0  0  0  0  0  0  0  0  0  0
  188.6100  175.7090  137.2510 C   0  0  0  0  0  2  0  0  0  0  0  0
  189.9100  176.2430  136.6650 C   0  0  0  0  0  2  0  0  0  0  0  0
  191.0360  175.2750  136.9720 C   0  0  0  0  0  2  0  0  0  0  0  0
  191.7520  175.7200  138.2340 C   0  0  0  0  0  2  0  0  0  0  0  0
  193.1310  176.2740  137.9080 C   0  0  1  0  0  3  0  0  0  0  0  0
  193.8230  176.5310  139.0950 O   0  0  0  0  0  0  0  0  0  0  0  0
  193.0400  177.4640  139.7760 C   0  0  0  0  0  1  0  0  0  0  0  0
  193.9170  175.2710  137.0720 C   0  0  0  0  0  2  0  0  0  0  0  0
  194.3540  174.0990  137.9190 C   0  0  0  0  0  2  0  0  0  0  0  0
  196.6550  174.8890  138.1510 O   0  0  0  0  0  0  0  0  0  0  0  0
  197.6270  173.5360  136.3990 C   0  0  0  0  0  2  0  0  0  0  0  0
  197.6520  174.8740  137.1350 C   0  0  0  0  0  2  0  0  0  0  0  0
  195.7360  172.0520  136.3550 O   0  0  0  0  0  0  0  0  0  0  0  0
  195.7850  173.9040  137.8020 N   0  0  0  0  0  0  0  0  0  0  0  0
  196.3270  173.0550  136.8270 C   0  0  0  0  0  0  0  0  0  0  0  0
  185.6570  177.5030  143.2100 C   0  0  0  0  0  2  0  0  0  0  0  0
  185.6320  178.5000  144.3600 C   0  0  0  0  0  2  0  0  0  0  0  0
  185.9110  177.8000  145.6040 N   0  0  0  0  0  2  0  0  0  0  0  0
  188.9110  177.8300  147.8440 C   0  0  1  0  0  3  0  0  0  0  0  0
  189.9760  176.3790  146.0170 C   0  0  1  0  0  0  0  0  0  0  0  0
  189.0390  178.0290  149.2200 O   0  0  0  0  0  1  0  0  0  0  0  0
  191.0670  177.2310  145.4370 C   0  0  0  0  0  2  0  0  0  0  0  0
  192.0600  176.3760  147.4480 C   0  0  0  0  0  1  0  0  0  0  0  0
  188.7620  176.7560  145.1210 C   0  0  0  0  0  2  0  0  0  0  0  0
  189.6710  176.6340  147.4540 N   0  0  1  0  0  0  0  0  0  0  0  0
  187.1340  178.3600  146.1620 C   0  0  2  0  0  3  0  0  0  0  0  0
  188.2730  178.2010  145.1550 C   0  0  0  0  0  2  0  0  0  0  0  0
  190.9080  177.2040  146.9120 C   0  0  2  0  0  0  0  0  0  0  0  0
  187.4370  177.6840  147.4960 C   0  0  0  0  0  2  0  0  0  0  0  0
  1 20  2  0  0  0  0
  2 11  2  0  0  0  0
  3 20  1  0  0  0  0
  3 17  1  0  0  0  0
  4  6  2  0  0  0  0
  5 25  1  6  0  0  0
  5 24  1  0  0  0  0
  5 22  1  0  0  0  0
  7  3  1  0  0  0  0
  8 19  2  0  0  0  0
  8 23  1  0  0  0  0
  9  7  1  0  0  0  0
  9 24  2  0  0  0  0
 10 17  1  0  0  0  0
 11  6  1  0  0  0  0
 12 13  1  1  0  0  0
 12 15  1  0  0  0  0
 14 15  1  0  0  0  0
 14 41  1  1  0  0  0
 16 19  1  0  0  0  0
 16  2  1  0  0  0  0
 17 16  2  0  0  0  0
 18 12  1  0  0  0  0
 18 13  1  1  0  0  0
 19  4  1  0  0  0  0
 20  8  1  0  0  0  0
 21 18  1  0  0  0  0
 22 26  1  6  0  0  0
 22 21  1  0  0  0  0
 23 14  1  0  0  0  0
 24  1  1  0  0  0  0
 27 28  1  0  0  0  0
 27 26  1  0  0  0  0
 28 29  1  0  0  0  0
 30 33  1  6  0  0  0
 30 29  1  0  0  0  0
 30 31  1  0  0  0  0
 31 32  1  0  0  0  0
 33 34  1  0  0  0  0
 36 40  1  0  0  0  0
 36 37  1  0  0  0  0
 37 35  1  0  0  0  0
 38 40  2  0  0  0  0
 39 34  1  0  0  0  0
 39 35  1  0  0  0  0
 40 39  1  0  0  0  0
 41 42  1  0  0  0  0
 42 43  1  0  0  0  0
 43 51  1  0  0  0  0
 44 46  1  1  0  0  0
 45 49  1  6  0  0  0
 45 53  1  0  0  0  0
 45 50  1  0  0  0  0
 47 45  1  0  0  0  0
 47 53  1  0  0  0  0
 49 52  1  0  0  0  0
 50 44  1  0  0  0  0
 51 54  1  0  0  0  0
 52 51  1  0  0  0  0
 53 48  1  0  0  0  0
 53 50  1  0  0  0  0
 54 44  1  0  0  0  0
M  END
>  <MODEL>
6

>  <REMARK>
 VINA RESULT:      -7.3      3.206      8.315
  Name = 
  13 active torsions:
  status: ('A' for Active; 'I' for Inactive)
    1  A    between atoms: O_4  and  C_12
    2  A    between atoms: C_8  and  C_23
    3  A    between atoms: C_8  and  N_43
    4  A    between atoms: C_10  and  C_16
    5  A    between atoms: C_10  and  C_29
    6  A    between atoms: C_12  and  C_17
    7  A    between atoms: C_12  and  C_23
    8  A    between atoms: C_16  and  C_17
    9  A    between atoms: N_28  and  C_34
   10  A    between atoms: N_28  and  C_42
   11  A    between atoms: C_29  and  C_46
   12  A    between atoms: C_32  and  C_52
   13  A    between atoms: C_34  and  C_52
                            x       y       z     vdW  Elec       q    Type
                         _______ _______ _______ _____ _____    ______ ____

>  <TORSDO>
F 13

$$$$
=
 OpenBabel11032421083D

 54 62  0  0  1  0  0  0  0  0999 V2000
  186.5340  178.6830  140.7980 C   0  0  0  0  0  3  0  0  0  0  0  0
  189.5720  177.2570  145.1600 N   0  0  0  0  0  0  0  0  0  0  0  0
  186.6340  177.9560  143.0840 N   0  0  0  0  0  0  0  0  0  0  0  0
  190.8520  177.9130  142.8350 C   0  0  0  0  0  3  0  0  0  0  0  0
  184.3250  178.8560  139.5460 C   0  0  2  0  0  3  0  0  0  0  0  0
  191.5580  177.5620  143.9360 N   0  0  0  0  0  0  0  0  0  0  0  0
  185.1750  178.0320  143.2530 C   0  0  0  0  0  2  0  0  0  0  0  0
  188.7450  178.3080  141.7720 C   0  0  0  0  0  0  0  0  0  0  0  0
  184.4440  178.2530  141.9530 C   0  0  0  0  0  3  0  0  0  0  0  0
  186.8580  177.2150  145.4380 N   0  0  0  0  0  1  0  0  0  0  0  0
  190.9280  177.2400  145.0920 C   0  0  0  0  0  3  0  0  0  0  0  0
  187.9870  178.7290  137.6380 C   0  0  2  0  0  3  0  0  0  0  0  0
  187.5800  178.2320  136.2720 C   0  0  0  0  0  2  0  0  0  0  0  0
  189.1680  177.4580  139.4740 C   0  0  2  0  0  3  0  0  0  0  0  0
  189.2450  177.9740  138.0420 C   0  0  0  0  0  2  0  0  0  0  0  0
  188.8090  177.6010  144.0870 C   0  0  0  0  0  0  0  0  0  0  0  0
  187.4660  177.5910  144.2010 C   0  0  0  0  0  0  0  0  0  0  0  0
  186.7930  177.7920  137.4920 C   0  0  2  0  0  3  0  0  0  0  0  0
  189.4510  177.9530  142.8680 C   0  0  0  0  0  0  0  0  0  0  0  0
  187.2710  178.3450  141.8560 C   0  0  0  0  0  0  0  0  0  0  0  0
  185.6090  178.5310  137.5440 O   0  0  0  0  0  0  0  0  0  0  0  0
  184.7680  177.8730  138.4460 C   0  0  2  0  0  3  0  0  0  0  0  0
  189.4250  178.5950  140.4580 C   0  0  0  0  0  2  0  0  0  0  0  0
  185.0720  178.6120  140.8280 C   0  0  0  0  0  0  0  0  0  0  0  0
  182.5540  179.0880  139.7620 Cl  0  0  0  0  0  0  0  0  0  0  0  0
  183.6250  177.1600  137.7150 C   0  0  0  0  0  2  0  0  0  0  0  0
  183.7640  177.2530  136.2010 C   0  0  0  0  0  2  0  0  0  0  0  0
  183.6070  175.8720  135.5950 C   0  0  0  0  0  2  0  0  0  0  0  0
  184.9330  175.1350  135.6730 C   0  0  0  0  0  2  0  0  0  0  0  0
  184.7140  173.6440  135.8780 C   0  0  1  0  0  3  0  0  0  0  0  0
  185.8280  173.0920  136.5150 O   0  0  0  0  0  0  0  0  0  0  0  0
  186.4000  174.1500  137.2240 C   0  0  0  0  0  1  0  0  0  0  0  0
  183.4750  173.4080  136.7330 C   0  0  0  0  0  2  0  0  0  0  0  0
  182.6040  172.3340  136.1230 C   0  0  0  0  0  2  0  0  0  0  0  0
  181.0040  173.5890  134.7670 O   0  0  0  0  0  0  0  0  0  0  0  0
  179.5380  174.2710  136.5660 C   0  0  0  0  0  2  0  0  0  0  0  0
  180.1660  174.6450  135.2240 C   0  0  0  0  0  2  0  0  0  0  0  0
  180.4300  172.6090  138.0580 O   0  0  0  0  0  0  0  0  0  0  0  0
  181.2730  172.8510  135.8760 N   0  0  0  0  0  0  0  0  0  0  0  0
  180.4080  173.1690  136.9340 C   0  0  0  0  0  0  0  0  0  0  0  0
  190.1610  176.3310  139.7260 C   0  0  0  0  0  2  0  0  0  0  0  0
  191.3090  176.3590  138.7260 C   0  0  0  0  0  2  0  0  0  0  0  0
  191.4350  175.0490  138.1080 N   0  0  0  0  0  2  0  0  0  0  0  0
  194.4060  176.2420  136.1650 C   0  0  1  0  0  3  0  0  0  0  0  0
  195.5560  174.1640  137.1330 C   0  0  1  0  0  0  0  0  0  0  0  0
  194.7650  177.5110  135.7070 O   0  0  0  0  0  1  0  0  0  0  0  0
  195.8100  173.2790  135.9470 C   0  0  0  0  0  2  0  0  0  0  0  0
  197.5990  174.8740  135.8230 C   0  0  0  0  0  1  0  0  0  0  0  0
  194.1460  173.6940  137.5900 C   0  0  0  0  0  2  0  0  0  0  0  0
  195.5560  175.6270  136.8410 N   0  0  1  0  0  0  0  0  0  0  0  0
  192.2540  175.2010  136.9130 C   0  0  2  0  0  3  0  0  0  0  0  0
  192.9820  173.8880  136.6230 C   0  0  0  0  0  2  0  0  0  0  0  0
  196.0890  174.7300  135.8110 C   0  0  2  0  0  0  0  0  0  0  0  0
  193.2170  176.3700  137.1070 C   0  0  0  0  0  2  0  0  0  0  0  0
  1 24  1  0  0  0  0
  1 20  2  0  0  0  0
  3  7  1  0  0  0  0
  3 17  1  0  0  0  0
  4 19  1  0  0  0  0
  4  6  2  0  0  0  0
  5 25  1  1  0  0  0
  5 24  1  0  0  0  0
  6 11  1  0  0  0  0
  8 20  1  0  0  0  0
  8 19  2  0  0  0  0
  9  7  1  0  0  0  0
 11  2  2  0  0  0  0
 12 13  1  6  0  0  0
 12 15  1  0  0  0  0
 14 41  1  6  0  0  0
 14 23  1  0  0  0  0
 15 14  1  0  0  0  0
 16 17  2  0  0  0  0
 16  2  1  0  0  0  0
 17 10  1  0  0  0  0
 18 13  1  6  0  0  0
 18 21  1  0  0  0  0
 18 12  1  0  0  0  0
 19 16  1  0  0  0  0
 20  3  1  0  0  0  0
 21 22  1  0  0  0  0
 22 26  1  6  0  0  0
 22  5  1  0  0  0  0
 23  8  1  0  0  0  0
 24  9  2  0  0  0  0
 27 26  1  0  0  0  0
 28 29  1  0  0  0  0
 28 27  1  0  0  0  0
 30 29  1  1  0  0  0
 30 31  1  0  0  0  0
 30 33  1  0  0  0  0
 31 32  1  0  0  0  0
 34 33  1  0  0  0  0
 35 37  1  0  0  0  0
 35 39  1  0  0  0  0
 36 40  1  0  0  0  0
 37 36  1  0  0  0  0
 39 34  1  0  0  0  0
 39 40  1  0  0  0  0
 40 38  2  0  0  0  0
 42 41  1  0  0  0  0
 43 42  1  0  0  0  0
 44 46  1  1  0  0  0
 44 50  1  0  0  0  0
 44 54  1  0  0  0  0
 45 47  1  1  0  0  0
 45 49  1  0  0  0  0
 50 45  1  0  0  0  0
 51 54  1  0  0  0  0
 51 43  1  0  0  0  0
 52 51  1  0  0  0  0
 52 49  1  0  0  0  0
 53 48  1  0  0  0  0
 53 47  1  0  0  0  0
 53 50  1  0  0  0  0
 53 45  1  0  0  0  0
M  END
>  <MODEL>
7

>  <REMARK>
 VINA RESULT:      -7.3      1.666      3.111
  Name = 
  13 active torsions:
  status: ('A' for Active; 'I' for Inactive)
    1  A    between atoms: O_4  and  C_12
    2  A    between atoms: C_8  and  C_23
    3  A    between atoms: C_8  and  N_43
    4  A    between atoms: C_10  and  C_16
    5  A    between atoms: C_10  and  C_29
    6  A    between atoms: C_12  and  C_17
    7  A    between atoms: C_12  and  C_23
    8  A    between atoms: C_16  and  C_17
    9  A    between atoms: N_28  and  C_34
   10  A    between atoms: N_28  and  C_42
   11  A    between atoms: C_29  and  C_46
   12  A    between atoms: C_32  and  C_52
   13  A    between atoms: C_34  and  C_52
                            x       y       z     vdW  Elec       q    Type
                         _______ _______ _______ _____ _____    ______ ____

>  <TORSDO>
F 13

$$$$
=
 OpenBabel11032421083D

 54 62  0  0  1  0  0  0  0  0999 V2000
  186.6340  178.6230  140.4130 C   0  0  0  0  0  3  0  0  0  0  0  0
  189.9720  176.9840  144.4710 N   0  0  0  0  0  0  0  0  0  0  0  0
  186.9030  177.8860  142.6820 N   0  0  0  0  0  0  0  0  0  0  0  0
  191.0650  177.5550  142.0310 C   0  0  0  0  0  3  0  0  0  0  0  0
  184.3330  178.9490  139.3780 C   0  0  2  0  0  3  0  0  0  0  0  0
  191.8480  177.1540  143.0610 N   0  0  0  0  0  0  0  0  0  0  0  0
  185.4750  178.0620  142.9900 C   0  0  0  0  0  2  0  0  0  0  0  0
  188.8980  178.0950  141.1730 C   0  0  0  0  0  0  0  0  0  0  0  0
  184.6400  178.3350  141.7650 C   0  0  0  0  0  3  0  0  0  0  0  0
  187.3010  177.1280  145.0080 N   0  0  0  0  0  1  0  0  0  0  0  0
  191.3100  176.8750  144.2740 C   0  0  0  0  0  3  0  0  0  0  0  0
  187.7770  178.5750  137.1290 C   0  0  2  0  0  3  0  0  0  0  0  0
  187.2080  178.1100  135.8090 C   0  0  0  0  0  2  0  0  0  0  0  0
  189.0390  177.2230  138.8490 C   0  0  2  0  0  3  0  0  0  0  0  0
  189.0130  177.7340  137.4140 C   0  0  0  0  0  2  0  0  0  0  0  0
  189.1350  177.3810  143.4740 C   0  0  0  0  0  0  0  0  0  0  0  0
  187.8110  177.4640  143.7160 C   0  0  0  0  0  0  0  0  0  0  0  0
  186.5140  177.7220  137.1020 C   0  0  2  0  0  3  0  0  0  0  0  0
  189.6800  177.6910  142.1970 C   0  0  0  0  0  0  0  0  0  0  0  0
  187.4440  178.2330  141.3970 C   0  0  0  0  0  0  0  0  0  0  0  0
  185.3930  178.5410  137.2630 O   0  0  0  0  0  0  0  0  0  0  0  0
  184.5990  177.9400  138.2450 C   0  0  2  0  0  3  0  0  0  0  0  0
  189.4670  178.3380  139.7980 C   0  0  0  0  0  2  0  0  0  0  0  0
  185.1800  178.6520  140.5830 C   0  0  0  0  0  0  0  0  0  0  0  0
  182.6110  179.3010  139.7610 Cl  0  0  0  0  0  0  0  0  0  0  0  0
  183.3450  177.3080  137.6300 C   0  0  0  0  0  2  0  0  0  0  0  0
  183.0680  175.9180  138.1890 C   0  0  0  0  0  2  0  0  0  0  0  0
  181.5720  175.6740  138.2120 C   0  0  0  0  0  2  0  0  0  0  0  0
  181.0730  175.7480  139.6440 C   0  0  0  0  0  2  0  0  0  0  0  0
  179.5550  175.8520  139.6850 C   0  0  1  0  0  3  0  0  0  0  0  0
  178.9980  174.5720  139.6120 O   0  0  0  0  0  0  0  0  0  0  0  0
  179.3990  173.9350  140.7870 C   0  0  0  0  0  1  0  0  0  0  0  0
  179.1080  176.5240  140.9770 C   0  0  0  0  0  2  0  0  0  0  0  0
  179.2840  178.0220  140.8850 C   0  0  0  0  0  2  0  0  0  0  0  0
  179.7110  177.7920  143.2800 O   0  0  0  0  0  0  0  0  0  0  0  0
  179.4770  180.1270  143.8640 C   0  0  0  0  0  2  0  0  0  0  0  0
  179.2630  178.6780  144.3000 C   0  0  0  0  0  2  0  0  0  0  0  0
  179.7220  180.8280  141.5770 O   0  0  0  0  0  0  0  0  0  0  0  0
  179.7510  178.5480  142.1510 N   0  0  0  0  0  0  0  0  0  0  0  0
  179.6770  179.9190  142.4430 C   0  0  0  0  0  0  0  0  0  0  0  0
  189.9720  176.0300  139.0090 C   0  0  0  0  0  2  0  0  0  0  0  0
  191.3530  176.3130  138.4330 C   0  0  0  0  0  2  0  0  0  0  0  0
  191.6030  175.4050  137.3250 N   0  0  0  0  0  2  0  0  0  0  0  0
  195.1720  174.5090  138.0190 C   0  0  1  0  0  3  0  0  0  0  0  0
  194.5890  172.3160  136.8220 C   0  0  1  0  0  0  0  0  0  0  0  0
  196.0670  174.9560  138.9910 O   0  0  0  0  0  1  0  0  0  0  0  0
  195.4020  172.3410  135.5600 C   0  0  0  0  0  2  0  0  0  0  0  0
  196.9940  171.6430  137.2140 C   0  0  0  0  0  1  0  0  0  0  0  0
  193.2700  173.0050  136.3700 C   0  0  0  0  0  2  0  0  0  0  0  0
  195.1940  173.0400  137.9770 N   0  0  1  0  0  0  0  0  0  0  0  0
  193.0360  175.4070  137.0680 C   0  0  2  0  0  3  0  0  0  0  0  0
  193.3480  174.4590  135.9100 C   0  0  0  0  0  2  0  0  0  0  0  0
  196.0550  172.7670  136.8220 C   0  0  2  0  0  0  0  0  0  0  0  0
  193.7790  175.0290  138.3460 C   0  0  0  0  0  2  0  0  0  0  0  0
  1 24  1  0  0  0  0
  1 20  2  0  0  0  0
  3  7  1  0  0  0  0
  3 17  1  0  0  0  0
  4 19  1  0  0  0  0
  4  6  2  0  0  0  0
  5 25  1  1  0  0  0
  5 24  1  0  0  0  0
  6 11  1  0  0  0  0
  8 20  1  0  0  0  0
  8 19  2  0  0  0  0
  9  7  1  0  0  0  0
 11  2  2  0  0  0  0
 12 13  1  6  0  0  0
 12 15  1  0  0  0  0
 14 41  1  6  0  0  0
 14 23  1  0  0  0  0
 15 14  1  0  0  0  0
 16 17  2  0  0  0  0
 16  2  1  0  0  0  0
 17 10  1  0  0  0  0
 18 13  1  6  0  0  0
 18 12  1  0  0  0  0
 18 21  1  0  0  0  0
 19 16  1  0  0  0  0
 20  3  1  0  0  0  0
 21 22  1  0  0  0  0
 22 26  1  6  0  0  0
 22  5  1  0  0  0  0
 23  8  1  0  0  0  0
 24  9  2  0  0  0  0
 26 27  1  0  0  0  0
 27 28  1  0  0  0  0
 28 29  1  0  0  0  0
 30 29  1  1  0  0  0
 30 33  1  0  0  0  0
 31 30  1  0  0  0  0
 31 32  1  0  0  0  0
 34 33  1  0  0  0  0
 34 39  1  0  0  0  0
 35 37  1  0  0  0  0
 36 37  1  0  0  0  0
 38 40  2  0  0  0  0
 39 40  1  0  0  0  0
 39 35  1  0  0  0  0
 40 36  1  0  0  0  0
 42 41  1  0  0  0  0
 43 42  1  0  0  0  0
 44 54  1  0  0  0  0
 44 46  1  1  0  0  0
 45 47  1  1  0  0  0
 45 50  1  0  0  0  0
 47 53  1  0  0  0  0
 49 45  1  0  0  0  0
 50 44  1  0  0  0  0
 51 43  1  0  0  0  0
 51 54  1  0  0  0  0
 52 49  1  0  0  0  0
 52 51  1  0  0  0  0
 53 45  1  0  0  0  0
 53 48  1  0  0  0  0
 53 50  1  0  0  0  0
M  END
>  <MODEL>
8

>  <REMARK>
 VINA RESULT:      -7.2      3.041      5.255
  Name = 
  13 active torsions:
  status: ('A' for Active; 'I' for Inactive)
    1  A    between atoms: O_4  and  C_12
    2  A    between atoms: C_8  and  C_23
    3  A    between atoms: C_8  and  N_43
    4  A    between atoms: C_10  and  C_16
    5  A    between atoms: C_10  and  C_29
    6  A    between atoms: C_12  and  C_17
    7  A    between atoms: C_12  and  C_23
    8  A    between atoms: C_16  and  C_17
    9  A    between atoms: N_28  and  C_34
   10  A    between atoms: N_28  and  C_42
   11  A    between atoms: C_29  and  C_46
   12  A    between atoms: C_32  and  C_52
   13  A    between atoms: C_34  and  C_52
                            x       y       z     vdW  Elec       q    Type
                         _______ _______ _______ _____ _____    ______ ____

>  <TORSDO>
F 13

$$$$
=
 OpenBabel11032421083D

 54 62  0  0  1  0  0  0  0  0999 V2000
  187.5620  174.7490  135.7970 C   0  0  0  0  0  3  0  0  0  0  0  0
  182.5520  172.5400  135.2390 N   0  0  0  0  0  0  0  0  0  0  0  0
  186.1350  172.8240  135.9520 N   0  0  0  0  0  0  0  0  0  0  0  0
  182.8680  175.2070  134.7270 C   0  0  0  0  0  3  0  0  0  0  0  0
  189.9780  174.6890  136.5930 C   0  0  2  0  0  3  0  0  0  0  0  0
  181.6550  174.6190  134.5970 N   0  0  0  0  0  0  0  0  0  0  0  0
  187.2490  171.9300  136.3010 C   0  0  0  0  0  2  0  0  0  0  0  0
  185.1980  175.0430  135.2460 C   0  0  0  0  0  0  0  0  0  0  0  0
  188.5260  172.6730  136.6010 C   0  0  0  0  0  3  0  0  0  0  0  0
  184.5720  170.9040  136.0660 N   0  0  0  0  0  1  0  0  0  0  0  0
  181.4940  173.2960  134.8450 C   0  0  0  0  0  3  0  0  0  0  0  0
  187.9020  178.2050  135.9740 C   0  0  2  0  0  3  0  0  0  0  0  0
  188.6800  179.1560  136.8520 C   0  0  0  0  0  2  0  0  0  0  0  0
  185.6180  177.2100  136.3900 C   0  0  2  0  0  3  0  0  0  0  0  0
  186.4230  178.4890  136.1940 C   0  0  0  0  0  2  0  0  0  0  0  0
  183.7930  173.0760  135.3880 C   0  0  0  0  0  0  0  0  0  0  0  0
  184.8090  172.2860  135.7910 C   0  0  0  0  0  0  0  0  0  0  0  0
  188.5690  177.6940  137.2450 C   0  0  2  0  0  3  0  0  0  0  0  0
  183.9860  174.4590  135.1200 C   0  0  0  0  0  0  0  0  0  0  0  0
  186.3500  174.2130  135.6540 C   0  0  0  0  0  0  0  0  0  0  0  0
  189.7700  177.0580  136.9200 O   0  0  0  0  0  0  0  0  0  0  0  0
  189.7700  175.8360  137.5990 C   0  0  2  0  0  3  0  0  0  0  0  0
  185.3800  176.5260  135.0480 C   0  0  0  0  0  2  0  0  0  0  0  0
  188.6890  173.9690  136.3130 C   0  0  0  0  0  0  0  0  0  0  0  0
  191.3780  173.5970  136.8850 Cl  0  0  0  0  0  0  0  0  0  0  0  0
  190.7570  175.8580  138.7730 C   0  0  0  0  0  2  0  0  0  0  0  0
  190.4560  176.9810  139.7560 C   0  0  0  0  0  2  0  0  0  0  0  0
  191.7420  177.4180  140.4300 C   0  0  0  0  0  2  0  0  0  0  0  0
  191.5240  177.4900  141.9310 C   0  0  0  0  0  2  0  0  0  0  0  0
  190.1780  176.8920  142.3120 C   0  0  1  0  0  3  0  0  0  0  0  0
  190.3790  175.7100  143.0290 O   0  0  0  0  0  0  0  0  0  0  0  0
  191.6520  175.8370  143.5870 C   0  0  0  0  0  1  0  0  0  0  0  0
  189.3900  177.8750  143.1700 C   0  0  0  0  0  2  0  0  0  0  0  0
  188.5460  177.1390  144.1840 C   0  0  0  0  0  2  0  0  0  0  0  0
  190.1320  177.5910  145.9870 O   0  0  0  0  0  0  0  0  0  0  0  0
  188.5970  177.2990  147.8330 C   0  0  0  0  0  2  0  0  0  0  0  0
  190.0300  177.1270  147.3290 C   0  0  0  0  0  2  0  0  0  0  0  0
  186.6760  177.5060  146.4010 O   0  0  0  0  0  0  0  0  0  0  0  0
  188.8550  177.6010  145.5210 N   0  0  0  0  0  0  0  0  0  0  0  0
  187.9220  177.4930  146.5640 C   0  0  0  0  0  0  0  0  0  0  0  0
  184.2820  177.4790  137.0700 C   0  0  0  0  0  2  0  0  0  0  0  0
  184.4600  178.2150  138.3920 C   0  0  0  0  0  2  0  0  0  0  0  0
  183.5200  177.6820  139.3650 N   0  0  0  0  0  2  0  0  0  0  0  0
  182.3000  179.0090  142.6470 C   0  0  1  0  0  3  0  0  0  0  0  0
  184.5400  178.1390  143.5440 C   0  0  1  0  0  0  0  0  0  0  0  0
  181.0130  179.2530  143.1270 O   0  0  0  0  0  1  0  0  0  0  0  0
  185.3000  179.3730  143.9380 C   0  0  0  0  0  2  0  0  0  0  0  0
  183.8140  179.0390  145.7920 C   0  0  0  0  0  1  0  0  0  0  0  0
  184.9720  177.9540  142.0610 C   0  0  0  0  0  2  0  0  0  0  0  0
  183.0570  178.2500  143.6520 N   0  0  1  0  0  0  0  0  0  0  0  0
  183.2850  178.7160  140.3630 C   0  0  2  0  0  3  0  0  0  0  0  0
  184.5990  179.0520  141.0680 C   0  0  0  0  0  2  0  0  0  0  0  0
  183.8630  179.2910  144.2970 C   0  0  2  0  0  0  0  0  0  0  0  0
  182.2060  178.2440  141.3350 C   0  0  0  0  0  2  0  0  0  0  0  0
  1 24  1  0  0  0  0
  2 16  1  0  0  0  0
  3  7  1  0  0  0  0
  4 19  1  0  0  0  0
  5 25  1  1  0  0  0
  5 22  1  0  0  0  0
  6  4  2  0  0  0  0
  6 11  1  0  0  0  0
  7  9  1  0  0  0  0
  8 20  1  0  0  0  0
 11  2  2  0  0  0  0
 12 15  1  1  0  0  0
 12 13  1  0  0  0  0
 12 18  1  0  0  0  0
 14 41  1  6  0  0  0
 15 14  1  0  0  0  0
 16 17  2  0  0  0  0
 17  3  1  0  0  0  0
 17 10  1  0  0  0  0
 18 13  1  1  0  0  0
 19  8  2  0  0  0  0
 19 16  1  0  0  0  0
 20  1  2  0  0  0  0
 20  3  1  0  0  0  0
 21 18  1  0  0  0  0
 21 22  1  0  0  0  0
 22 26  1  1  0  0  0
 23  8  1  0  0  0  0
 23 14  1  0  0  0  0
 24  5  1  0  0  0  0
 24  9  2  0  0  0  0
 26 27  1  0  0  0  0
 27 28  1  0  0  0  0
 28 29  1  0  0  0  0
 30 29  1  1  0  0  0
 30 31  1  0  0  0  0
 30 33  1  0  0  0  0
 31 32  1  0  0  0  0
 33 34  1  0  0  0  0
 34 39  1  0  0  0  0
 35 37  1  0  0  0  0
 37 36  1  0  0  0  0
 38 40  2  0  0  0  0
 39 35  1  0  0  0  0
 39 40  1  0  0  0  0
 40 36  1  0  0  0  0
 41 42  1  0  0  0  0
 42 43  1  0  0  0  0
 43 51  1  0  0  0  0
 44 46  1  1  0  0  0
 44 50  1  0  0  0  0
 45 49  1  6  0  0  0
 45 50  1  0  0  0  0
 45 47  1  0  0  0  0
 45 53  1  0  0  0  0
 47 53  1  0  0  0  0
 50 53  1  0  0  0  0
 51 52  1  0  0  0  0
 51 54  1  0  0  0  0
 52 49  1  0  0  0  0
 53 48  1  0  0  0  0
 54 44  1  0  0  0  0
M  END
>  <MODEL>
9

>  <REMARK>
 VINA RESULT:      -7.2      3.613     10.338
  Name = 
  13 active torsions:
  status: ('A' for Active; 'I' for Inactive)
    1  A    between atoms: O_4  and  C_12
    2  A    between atoms: C_8  and  C_23
    3  A    between atoms: C_8  and  N_43
    4  A    between atoms: C_10  and  C_16
    5  A    between atoms: C_10  and  C_29
    6  A    between atoms: C_12  and  C_17
    7  A    between atoms: C_12  and  C_23
    8  A    between atoms: C_16  and  C_17
    9  A    between atoms: N_28  and  C_34
   10  A    between atoms: N_28  and  C_42
   11  A    between atoms: C_29  and  C_46
   12  A    between atoms: C_32  and  C_52
   13  A    between atoms: C_34  and  C_52
                            x       y       z     vdW  Elec       q    Type
                         _______ _______ _______ _____ _____    ______ ____

>  <TORSDO>
F 13

$$$$
