=
 OpenBabel11032420573D

 47 51  0  0  1  0  0  0  0  0999 V2000
  188.8340  175.4230  143.2210 C   0  0  0  0  0  2  0  0  0  0  0  0
  188.2410  176.4810  144.1850 C   0  0  0  0  0  2  0  0  0  0  0  0
  189.8000  176.6690  141.1270 C   0  0  1  0  0  3  0  0  0  0  0  0
  188.1190  177.9150  142.2980 C   0  0  0  0  0  0  0  0  0  0  0  0
  187.6440  177.6770  143.4810 C   0  0  0  0  0  0  0  0  0  0  0  0
  190.0830  175.9440  142.4770 C   0  0  0  0  0  2  0  0  0  0  0  0
  188.7800  177.7900  141.1880 C   0  0  0  0  0  0  0  0  0  0  0  0
  191.4680  176.8220  139.2410 N   0  0  0  0  0  2  0  0  0  0  0  0
  191.9100  177.7680  141.3310 O   0  0  0  0  0  0  0  0  0  0  0  0
  191.1020  177.1520  140.5810 C   0  0  0  0  0  0  0  0  0  0  0  0
  192.8310  176.9960  138.7630 C   0  0  0  0  0  2  0  0  0  0  0  0
  193.0260  176.3660  137.3730 C   0  0  2  0  0  3  0  0  0  0  0  0
  192.0960  174.2030  136.9920 C   0  0  0  0  0  2  0  0  0  0  0  0
  190.7700  173.7570  135.0380 O   0  0  0  0  0  0  0  0  0  0  0  0
  191.5750  175.9750  135.5050 C   0  0  0  0  0  2  0  0  0  0  0  0
  191.8240  175.6480  136.9160 N   0  0  0  0  0  0  0  0  0  0  0  0
  190.4190  175.1200  134.9770 C   0  0  0  0  0  2  0  0  0  0  0  0
  190.9180  173.4250  136.3980 C   0  0  0  0  0  2  0  0  0  0  0  0
  194.8400  175.1560  138.4760 N   0  0  0  0  0  0  0  0  0  0  0  0
  194.2200  175.4510  137.3770 C   0  0  0  0  0  3  0  0  0  0  0  0
  195.9760  174.2890  138.4940 C   0  0  0  0  0  0  0  0  0  0  0  0
  197.1440  174.7510  138.6100 O   0  0  0  0  0  0  0  0  0  0  0  0
  195.7810  172.8190  138.3780 C   0  0  0  0  0  1  0  0  0  0  0  0
  188.3450  178.5000  139.9430 C   0  0  0  0  0  2  0  0  0  0  0  0
  186.6040  177.7080  138.2230 C   0  0  1  0  0  3  0  0  0  0  0  0
  187.8490  178.2020  137.5120 C   0  0  1  0  0  3  0  0  0  0  0  0
  187.9870  177.4940  138.8450 C   0  0  1  0  0  3  0  0  0  0  0  0
  188.1650  177.3130  136.4850 O   0  0  0  0  0  1  0  0  0  0  0  0
  184.4650  179.0360  138.7910 C   0  0  0  0  0  0  0  0  0  0  0  0
  185.8920  178.8520  138.7850 N   0  0  0  0  0  2  0  0  0  0  0  0
  184.0200  180.1720  139.1150 O   0  0  0  0  0  0  0  0  0  0  0  0
  182.9940  177.8250  137.2220 C   0  0  0  0  0  2  0  0  0  0  0  0
  183.4950  177.9640  138.4440 C   0  0  0  0  0  0  0  0  0  0  0  0
  183.1770  176.9030  139.4420 C   0  0  0  0  0  2  0  0  0  0  0  0
  181.6740  176.7130  139.5580 C   0  0  0  0  0  1  0  0  0  0  0  0
  186.9780  178.7710  144.2500 C   0  0  0  0  0  2  0  0  0  0  0  0
  183.2350  179.0470  144.7560 C   0  0  0  0  0  3  0  0  0  0  0  0
  185.0390  178.6980  142.6510 C   0  0  0  0  0  3  0  0  0  0  0  0
  183.6670  178.7390  142.3940 C   0  0  0  0  0  3  0  0  0  0  0  0
  184.6080  179.0040  145.0130 C   0  0  0  0  0  3  0  0  0  0  0  0
  182.7510  178.9200  143.4430 C   0  0  0  0  0  0  0  0  0  0  0  0
  185.5130  178.8330  143.9620 C   0  0  0  0  0  0  0  0  0  0  0  0
  180.7760  179.3390  141.8940 C   0  0  0  0  0  2  0  0  0  0  0  0
  178.9950  178.9040  143.5100 C   0  0  0  0  0  2  0  0  0  0  0  0
  180.3310  178.6020  144.1640 C   0  0  0  0  0  2  0  0  0  0  0  0
  179.2790  179.1220  142.0260 C   0  0  0  0  0  2  0  0  0  0  0  0
  181.3390  178.9570  143.1790 N   0  0  0  0  0  0  0  0  0  0  0  0
  1  2  1  0  0  0  0
  3 10  1  1  0  0  0
  3  7  1  0  0  0  0
  3  6  1  0  0  0  0
  4  5  2  0  0  0  0
  5  2  1  0  0  0  0
  5 36  1  0  0  0  0
  6  1  1  0  0  0  0
  7  4  2  0  0  0  0
  8 10  1  0  0  0  0
 10  9  2  0  0  0  0
 11  8  1  0  0  0  0
 12 20  1  1  0  0  0
 12 11  1  0  0  0  0
 14 18  1  0  0  0  0
 15 16  1  0  0  0  0
 16 13  1  0  0  0  0
 16 12  1  0  0  0  0
 17 14  1  0  0  0  0
 17 15  1  0  0  0  0
 18 13  1  0  0  0  0
 19 21  1  0  0  0  0
 20 19  2  0  0  0  0
 21 22  2  0  0  0  0
 23 21  1  0  0  0  0
 24  7  1  0  0  0  0
 25 30  1  1  0  0  0
 25 27  1  0  0  0  0
 26 28  1  6  0  0  0
 26 25  1  0  0  0  0
 26 27  1  0  0  0  0
 27 24  1  1  0  0  0
 29 31  2  0  0  0  0
 30 29  1  0  0  0  0
 32 33  2  0  0  0  0
 33 29  1  0  0  0  0
 33 34  1  0  0  0  0
 34 35  1  0  0  0  0
 37 40  1  0  0  0  0
 38 42  1  0  0  0  0
 39 38  2  0  0  0  0
 39 41  1  0  0  0  0
 41 37  2  0  0  0  0
 42 36  1  0  0  0  0
 42 40  2  0  0  0  0
 43 46  1  0  0  0  0
 43 47  1  0  0  0  0
 44 45  1  0  0  0  0
 46 44  1  0  0  0  0
 47 41  1  0  0  0  0
 47 45  1  0  0  0  0
M  END
>  <MODEL>
1

>  <REMARK>
 VINA RESULT:      -7.8      0.000      0.000
  Name = 
  14 active torsions:
  status: ('A' for Active; 'I' for Inactive)
    1  A    between atoms: C_1  and  N_5
    2  A    between atoms: C_2  and  C_43
    3  A    between atoms: C_3  and  N_12
    4  A    between atoms: C_3  and  C_18
    5  A    between atoms: C_4  and  N_9
    6  A    between atoms: C_7  and  C_31
    7  A    between atoms: C_18  and  N_26
    8  A    between atoms: C_18  and  C_34
    9  A    between atoms: C_19  and  C_20
   10  A    between atoms: C_22  and  C_43
   11  A    between atoms: C_30  and  C_42
   12  A    between atoms: C_31  and  C_46
   13  A    between atoms: N_41  and  C_45
   14  A    between atoms: C_42  and  C_47
                            x       y       z     vdW  Elec       q    Type
                         _______ _______ _______ _____ _____    ______ ____

>  <TORSDO>
F 14

$$$$
=
 OpenBabel11032420573D

 47 51  0  0  1  0  0  0  0  0999 V2000
  192.9140  176.7650  138.3320 C   0  0  0  0  0  2  0  0  0  0  0  0
  192.6520  175.6590  137.2800 C   0  0  0  0  0  2  0  0  0  0  0  0
  190.6040  177.5550  139.2850 C   0  0  1  0  0  3  0  0  0  0  0  0
  190.4550  176.5390  137.1190 C   0  0  0  0  0  0  0  0  0  0  0  0
  191.3650  175.8430  136.5110 C   0  0  0  0  0  0  0  0  0  0  0  0
  191.9000  176.7170  139.4960 C   0  0  0  0  0  2  0  0  0  0  0  0
  189.8570  177.2910  137.9920 C   0  0  0  0  0  0  0  0  0  0  0  0
  190.3050  177.0320  141.7350 N   0  0  0  0  0  2  0  0  0  0  0  0
  188.4660  177.3590  140.3320 O   0  0  0  0  0  0  0  0  0  0  0  0
  189.7220  177.3470  140.4710 C   0  0  0  0  0  0  0  0  0  0  0  0
  189.5010  176.5230  142.8350 C   0  0  0  0  0  2  0  0  0  0  0  0
  189.0270  177.6580  143.7600 C   0  0  2  0  0  3  0  0  0  0  0  0
  190.9290  176.7780  144.8990 C   0  0  0  0  0  2  0  0  0  0  0  0
  190.8070  176.1780  147.2230 O   0  0  0  0  0  0  0  0  0  0  0  0
  188.9400  177.2140  146.1150 C   0  0  0  0  0  2  0  0  0  0  0  0
  189.7900  177.7020  145.0190 N   0  0  0  0  0  0  0  0  0  0  0  0
  189.7690  177.1130  147.3990 C   0  0  0  0  0  2  0  0  0  0  0  0
  191.6690  176.6940  146.2370 C   0  0  0  0  0  2  0  0  0  0  0  0
  186.7050  178.4040  143.6100 N   0  0  0  0  0  0  0  0  0  0  0  0
  187.5550  177.5240  144.0380 C   0  0  0  0  0  3  0  0  0  0  0  0
  185.3040  178.2910  143.8670 C   0  0  0  0  0  0  0  0  0  0  0  0
  184.8680  178.1750  145.0450 O   0  0  0  0  0  0  0  0  0  0  0  0
  184.3430  178.3110  142.7320 C   0  0  0  0  0  1  0  0  0  0  0  0
  188.6520  178.1000  137.6220 C   0  0  0  0  0  2  0  0  0  0  0  0
  186.2070  177.5290  137.0660 C   0  0  1  0  0  3  0  0  0  0  0  0
  186.8720  178.1820  135.8700 C   0  0  1  0  0  3  0  0  0  0  0  0
  187.6870  177.2730  136.7680 C   0  0  1  0  0  3  0  0  0  0  0  0
  186.5120  177.4850  134.7170 O   0  0  0  0  0  1  0  0  0  0  0  0
  184.7400  178.8430  138.7340 C   0  0  0  0  0  0  0  0  0  0  0  0
  185.9950  178.5370  138.1010 N   0  0  0  0  0  2  0  0  0  0  0  0
  184.6800  179.8840  139.4470 O   0  0  0  0  0  0  0  0  0  0  0  0
  182.6720  178.1370  137.5880 C   0  0  0  0  0  2  0  0  0  0  0  0
  183.5220  178.0020  138.5990 C   0  0  0  0  0  0  0  0  0  0  0  0
  183.3070  176.8570  139.5300 C   0  0  0  0  0  2  0  0  0  0  0  0
  182.5140  175.7550  138.8460 C   0  0  0  0  0  1  0  0  0  0  0  0
  190.9770  174.9030  135.4180 C   0  0  0  0  0  2  0  0  0  0  0  0
  187.3130  174.0170  135.0590 C   0  0  0  0  0  3  0  0  0  0  0  0
  189.4470  173.4330  136.7660 C   0  0  0  0  0  3  0  0  0  0  0  0
  188.1900  172.8750  137.0060 C   0  0  0  0  0  3  0  0  0  0  0  0
  188.5710  174.5770  134.8220 C   0  0  0  0  0  3  0  0  0  0  0  0
  187.1110  173.1560  136.1510 C   0  0  0  0  0  0  0  0  0  0  0  0
  189.6410  174.2850  135.6710 C   0  0  0  0  0  0  0  0  0  0  0  0
  185.2650  171.4840  135.6290 C   0  0  0  0  0  2  0  0  0  0  0  0
  183.6410  172.2610  137.2820 C   0  0  0  0  0  2  0  0  0  0  0  0
  184.9320  173.0410  137.4610 C   0  0  0  0  0  2  0  0  0  0  0  0
  183.9510  171.1310  136.3040 C   0  0  0  0  0  2  0  0  0  0  0  0
  185.8150  172.5850  136.4020 N   0  0  0  0  0  0  0  0  0  0  0  0
  1  6  1  0  0  0  0
  2  1  1  0  0  0  0
  3  6  1  0  0  0  0
  3 10  1  1  0  0  0
  4  7  2  0  0  0  0
  5  4  2  0  0  0  0
  5  2  1  0  0  0  0
  7  3  1  0  0  0  0
  8 11  1  0  0  0  0
  9 10  2  0  0  0  0
 10  8  1  0  0  0  0
 12 11  1  6  0  0  0
 12 20  1  0  0  0  0
 12 16  1  0  0  0  0
 13 16  1  0  0  0  0
 13 18  1  0  0  0  0
 14 17  1  0  0  0  0
 15 17  1  0  0  0  0
 16 15  1  0  0  0  0
 18 14  1  0  0  0  0
 19 21  1  0  0  0  0
 19 20  2  0  0  0  0
 21 22  2  0  0  0  0
 23 21  1  0  0  0  0
 24  7  1  0  0  0  0
 25 30  1  1  0  0  0
 26 28  1  6  0  0  0
 26 27  1  0  0  0  0
 26 25  1  0  0  0  0
 27 25  1  0  0  0  0
 27 24  1  1  0  0  0
 29 31  2  0  0  0  0
 30 29  1  0  0  0  0
 32 33  2  0  0  0  0
 33 29  1  0  0  0  0
 33 34  1  0  0  0  0
 35 34  1  0  0  0  0
 36 42  1  0  0  0  0
 36  5  1  0  0  0  0
 37 41  1  0  0  0  0
 38 39  1  0  0  0  0
 40 37  2  0  0  0  0
 40 42  1  0  0  0  0
 41 47  1  0  0  0  0
 41 39  2  0  0  0  0
 42 38  2  0  0  0  0
 43 46  1  0  0  0  0
 43 47  1  0  0  0  0
 44 45  1  0  0  0  0
 46 44  1  0  0  0  0
 47 45  1  0  0  0  0
M  END
>  <MODEL>
2

>  <REMARK>
 VINA RESULT:      -7.8      3.103      8.132
  Name = 
  14 active torsions:
  status: ('A' for Active; 'I' for Inactive)
    1  A    between atoms: C_1  and  N_5
    2  A    between atoms: C_2  and  C_43
    3  A    between atoms: C_3  and  N_12
    4  A    between atoms: C_3  and  C_18
    5  A    between atoms: C_4  and  N_9
    6  A    between atoms: C_7  and  C_31
    7  A    between atoms: C_18  and  N_26
    8  A    between atoms: C_18  and  C_34
    9  A    between atoms: C_19  and  C_20
   10  A    between atoms: C_22  and  C_43
   11  A    between atoms: C_30  and  C_42
   12  A    between atoms: C_31  and  C_46
   13  A    between atoms: N_41  and  C_45
   14  A    between atoms: C_42  and  C_47
                            x       y       z     vdW  Elec       q    Type
                         _______ _______ _______ _____ _____    ______ ____

>  <TORSDO>
F 14

$$$$
=
 OpenBabel11032420573D

 47 51  0  0  1  0  0  0  0  0999 V2000
  182.1980  178.8390  143.8900 C   0  0  0  0  0  2  0  0  0  0  0  0
  180.8920  179.3520  143.2340 C   0  0  0  0  0  2  0  0  0  0  0  0
  183.8760  178.1940  141.9830 C   0  0  1  0  0  3  0  0  0  0  0  0
  181.5800  178.1770  141.2920 C   0  0  0  0  0  0  0  0  0  0  0  0
  180.5640  178.6780  141.9230 C   0  0  0  0  0  0  0  0  0  0  0  0
  183.4520  179.2220  143.0740 C   0  0  0  0  0  2  0  0  0  0  0  0
  182.7850  177.7810  141.0130 C   0  0  0  0  0  0  0  0  0  0  0  0
  186.3680  178.2990  141.6080 N   0  0  0  0  0  2  0  0  0  0  0  0
  184.9040  179.6750  140.4170 O   0  0  0  0  0  0  0  0  0  0  0  0
  185.0590  178.7480  141.2610 C   0  0  0  0  0  0  0  0  0  0  0  0
  187.5570  179.0120  141.1670 C   0  0  0  0  0  2  0  0  0  0  0  0
  188.8420  178.2540  141.5410 C   0  0  2  0  0  3  0  0  0  0  0  0
  190.7320  177.2430  140.4940 C   0  0  0  0  0  2  0  0  0  0  0  0
  190.8280  176.9850  138.1060 O   0  0  0  0  0  0  0  0  0  0  0  0
  188.8580  177.8570  139.1770 C   0  0  0  0  0  2  0  0  0  0  0  0
  189.2620  177.3190  140.4830 N   0  0  0  0  0  0  0  0  0  0  0  0
  189.4200  176.9700  138.0610 C   0  0  0  0  0  2  0  0  0  0  0  0
  191.2120  176.3850  139.3200 C   0  0  0  0  0  2  0  0  0  0  0  0
  189.0790  178.0360  143.9630 N   0  0  0  0  0  0  0  0  0  0  0  0
  188.6600  177.5290  142.8470 C   0  0  0  0  0  3  0  0  0  0  0  0
  188.9140  177.3590  145.2110 C   0  0  0  0  0  0  0  0  0  0  0  0
  189.9020  176.8470  145.8070 O   0  0  0  0  0  0  0  0  0  0  0  0
  187.5610  177.2550  145.8180 C   0  0  0  0  0  1  0  0  0  0  0  0
  183.0350  176.7260  139.9810 C   0  0  0  0  0  2  0  0  0  0  0  0
  182.0080  175.5440  137.9410 C   0  0  1  0  0  3  0  0  0  0  0  0
  181.1590  175.2870  139.1710 C   0  0  1  0  0  3  0  0  0  0  0  0
  181.8520  176.6260  139.0130 C   0  0  1  0  0  3  0  0  0  0  0  0
  179.8150  175.4240  138.8280 O   0  0  0  0  0  1  0  0  0  0  0  0
  184.3460  174.8210  137.1220 C   0  0  0  0  0  0  0  0  0  0  0  0
  183.2540  174.7930  138.0590 N   0  0  0  0  0  2  0  0  0  0  0  0
  185.2550  173.9540  137.2530 O   0  0  0  0  0  0  0  0  0  0  0  0
  184.1850  175.5130  134.7590 C   0  0  0  0  0  2  0  0  0  0  0  0
  184.4630  175.8140  136.0220 C   0  0  0  0  0  0  0  0  0  0  0  0
  184.7480  177.2420  136.3420 C   0  0  0  0  0  2  0  0  0  0  0  0
  185.6590  177.3460  137.5540 C   0  0  0  0  0  1  0  0  0  0  0  0
  179.3130  179.0070  141.1770 C   0  0  0  0  0  2  0  0  0  0  0  0
  179.9210  182.1800  139.2010 C   0  0  0  0  0  3  0  0  0  0  0  0
  179.7050  179.4340  138.7310 C   0  0  0  0  0  3  0  0  0  0  0  0
  179.9370  180.3070  137.6660 C   0  0  0  0  0  3  0  0  0  0  0  0
  179.6860  181.3060  140.2650 C   0  0  0  0  0  3  0  0  0  0  0  0
  180.0530  181.6890  137.8910 C   0  0  0  0  0  0  0  0  0  0  0  0
  179.5810  179.9320  140.0340 C   0  0  0  0  0  0  0  0  0  0  0  0
  180.4850  182.1440  135.4240 C   0  0  0  0  0  2  0  0  0  0  0  0
  180.7270  184.5710  135.5760 C   0  0  0  0  0  2  0  0  0  0  0  0
  180.3330  184.0330  136.9400 C   0  0  0  0  0  2  0  0  0  0  0  0
  180.5740  183.4120  134.5950 C   0  0  0  0  0  2  0  0  0  0  0  0
  180.2870  182.5880  136.7940 N   0  0  0  0  0  0  0  0  0  0  0  0
  2  1  1  0  0  0  0
  3 10  1  6  0  0  0
  3  6  1  0  0  0  0
  4  5  2  0  0  0  0
  5  2  1  0  0  0  0
  6  1  1  0  0  0  0
  7  4  2  0  0  0  0
  7  3  1  0  0  0  0
  9 10  2  0  0  0  0
 10  8  1  0  0  0  0
 11  8  1  0  0  0  0
 12 11  1  6  0  0  0
 12 20  1  0  0  0  0
 14 18  1  0  0  0  0
 15 16  1  0  0  0  0
 16 13  1  0  0  0  0
 16 12  1  0  0  0  0
 17 14  1  0  0  0  0
 17 15  1  0  0  0  0
 18 13  1  0  0  0  0
 19 21  1  0  0  0  0
 20 19  2  0  0  0  0
 21 22  2  0  0  0  0
 21 23  1  0  0  0  0
 24  7  1  0  0  0  0
 25 30  1  1  0  0  0
 25 27  1  0  0  0  0
 25 26  1  0  0  0  0
 26 28  1  6  0  0  0
 27 26  1  0  0  0  0
 27 24  1  1  0  0  0
 29 31  2  0  0  0  0
 29 30  1  0  0  0  0
 32 33  2  0  0  0  0
 33 34  1  0  0  0  0
 33 29  1  0  0  0  0
 34 35  1  0  0  0  0
 36  5  1  0  0  0  0
 37 40  1  0  0  0  0
 38 42  1  0  0  0  0
 39 41  1  0  0  0  0
 39 38  2  0  0  0  0
 41 37  2  0  0  0  0
 42 40  2  0  0  0  0
 42 36  1  0  0  0  0
 43 47  1  0  0  0  0
 44 45  1  0  0  0  0
 46 43  1  0  0  0  0
 46 44  1  0  0  0  0
 47 45  1  0  0  0  0
 47 41  1  0  0  0  0
M  END
>  <MODEL>
3

>  <REMARK>
 VINA RESULT:      -7.4      3.380      6.919
  Name = 
  14 active torsions:
  status: ('A' for Active; 'I' for Inactive)
    1  A    between atoms: C_1  and  N_5
    2  A    between atoms: C_2  and  C_43
    3  A    between atoms: C_3  and  N_12
    4  A    between atoms: C_3  and  C_18
    5  A    between atoms: C_4  and  N_9
    6  A    between atoms: C_7  and  C_31
    7  A    between atoms: C_18  and  N_26
    8  A    between atoms: C_18  and  C_34
    9  A    between atoms: C_19  and  C_20
   10  A    between atoms: C_22  and  C_43
   11  A    between atoms: C_30  and  C_42
   12  A    between atoms: C_31  and  C_46
   13  A    between atoms: N_41  and  C_45
   14  A    between atoms: C_42  and  C_47
                            x       y       z     vdW  Elec       q    Type
                         _______ _______ _______ _____ _____    ______ ____

>  <TORSDO>
F 14

$$$$
=
 OpenBabel11032420573D

 47 51  0  0  1  0  0  0  0  0999 V2000
  182.3200  178.8200  143.8600 C   0  0  0  0  0  2  0  0  0  0  0  0
  181.0160  179.3210  143.1930 C   0  0  0  0  0  2  0  0  0  0  0  0
  184.0220  178.1920  141.9680 C   0  0  1  0  0  3  0  0  0  0  0  0
  181.7330  178.1530  141.2560 C   0  0  0  0  0  0  0  0  0  0  0  0
  180.7060  178.6440  141.8780 C   0  0  0  0  0  0  0  0  0  0  0  0
  183.5780  179.2150  143.0560 C   0  0  0  0  0  2  0  0  0  0  0  0
  182.9440  177.7690  140.9880 C   0  0  0  0  0  0  0  0  0  0  0  0
  186.5190  178.3670  141.6590 N   0  0  0  0  0  2  0  0  0  0  0  0
  185.0450  179.6440  140.3730 O   0  0  0  0  0  0  0  0  0  0  0  0
  185.2060  178.7570  141.2580 C   0  0  0  0  0  0  0  0  0  0  0  0
  187.6960  179.1030  141.2220 C   0  0  0  0  0  2  0  0  0  0  0  0
  188.9880  178.3110  141.4870 C   0  0  2  0  0  3  0  0  0  0  0  0
  190.7570  177.3040  140.2440 C   0  0  0  0  0  2  0  0  0  0  0  0
  190.5860  177.0220  137.8630 O   0  0  0  0  0  0  0  0  0  0  0  0
  188.7410  177.8900  139.1400 C   0  0  0  0  0  2  0  0  0  0  0  0
  189.2940  177.3680  140.3970 N   0  0  0  0  0  0  0  0  0  0  0  0
  189.1830  176.9960  137.9770 C   0  0  0  0  0  2  0  0  0  0  0  0
  191.1090  176.4380  139.0310 C   0  0  0  0  0  2  0  0  0  0  0  0
  189.4400  178.0680  143.8760 N   0  0  0  0  0  0  0  0  0  0  0  0
  188.8960  177.5870  142.8030 C   0  0  0  0  0  3  0  0  0  0  0  0
  189.3620  177.3920  145.1330 C   0  0  0  0  0  0  0  0  0  0  0  0
  190.3780  176.8360  145.6350 O   0  0  0  0  0  0  0  0  0  0  0  0
  188.0670  177.3410  145.8620 C   0  0  0  0  0  1  0  0  0  0  0  0
  183.2130  176.7170  139.9580 C   0  0  0  0  0  2  0  0  0  0  0  0
  182.2830  175.6300  137.8210 C   0  0  1  0  0  3  0  0  0  0  0  0
  181.3910  175.2980  139.0010 C   0  0  1  0  0  3  0  0  0  0  0  0
  182.0700  176.6520  138.9400 C   0  0  1  0  0  3  0  0  0  0  0  0
  180.0590  175.4350  138.6130 O   0  0  0  0  0  1  0  0  0  0  0  0
  183.7880  173.5680  137.4400 C   0  0  0  0  0  0  0  0  0  0  0  0
  183.5350  174.8900  137.9480 N   0  0  0  0  0  2  0  0  0  0  0  0
  184.8410  172.9830  137.8210 O   0  0  0  0  0  0  0  0  0  0  0  0
  183.1380  172.7850  135.1910 C   0  0  0  0  0  2  0  0  0  0  0  0
  182.8850  172.8630  136.4930 C   0  0  0  0  0  0  0  0  0  0  0  0
  181.7310  172.0770  137.0160 C   0  0  0  0  0  2  0  0  0  0  0  0
  180.4250  172.5990  136.4410 C   0  0  0  0  0  1  0  0  0  0  0  0
  179.4590  178.9630  141.1210 C   0  0  0  0  0  2  0  0  0  0  0  0
  180.6050  180.6770  137.9450 C   0  0  0  0  0  3  0  0  0  0  0  0
  179.2690  181.3350  140.3090 C   0  0  0  0  0  3  0  0  0  0  0  0
  179.5090  182.3190  139.3480 C   0  0  0  0  0  3  0  0  0  0  0  0
  180.3660  179.6940  138.9080 C   0  0  0  0  0  3  0  0  0  0  0  0
  180.1750  181.9990  138.1530 C   0  0  0  0  0  0  0  0  0  0  0  0
  179.6950  180.0180  140.0900 C   0  0  0  0  0  0  0  0  0  0  0  0
  180.6020  184.4190  137.4920 C   0  0  0  0  0  2  0  0  0  0  0  0
  180.6820  184.0880  135.0720 C   0  0  0  0  0  2  0  0  0  0  0  0
  180.5490  182.7340  135.7450 C   0  0  0  0  0  2  0  0  0  0  0  0
  180.9610  185.0980  136.1820 C   0  0  0  0  0  2  0  0  0  0  0  0
  180.4280  183.0130  137.1660 N   0  0  0  0  0  0  0  0  0  0  0  0
  2  1  1  0  0  0  0
  3 10  1  6  0  0  0
  3  6  1  0  0  0  0
  4  5  2  0  0  0  0
  5  2  1  0  0  0  0
  6  1  1  0  0  0  0
  7  4  2  0  0  0  0
  7  3  1  0  0  0  0
  9 10  2  0  0  0  0
 10  8  1  0  0  0  0
 11  8  1  0  0  0  0
 12 11  1  6  0  0  0
 12 20  1  0  0  0  0
 13 16  1  0  0  0  0
 14 17  1  0  0  0  0
 14 18  1  0  0  0  0
 15 16  1  0  0  0  0
 16 12  1  0  0  0  0
 17 15  1  0  0  0  0
 18 13  1  0  0  0  0
 19 21  1  0  0  0  0
 20 19  2  0  0  0  0
 21 22  2  0  0  0  0
 21 23  1  0  0  0  0
 24  7  1  0  0  0  0
 25 30  1  1  0  0  0
 25 27  1  0  0  0  0
 25 26  1  0  0  0  0
 26 28  1  6  0  0  0
 27 26  1  0  0  0  0
 27 24  1  1  0  0  0
 29 31  2  0  0  0  0
 29 30  1  0  0  0  0
 32 33  2  0  0  0  0
 33 34  1  0  0  0  0
 33 29  1  0  0  0  0
 35 34  1  0  0  0  0
 36  5  1  0  0  0  0
 37 41  2  0  0  0  0
 37 40  1  0  0  0  0
 39 38  2  0  0  0  0
 40 42  2  0  0  0  0
 41 39  1  0  0  0  0
 42 38  1  0  0  0  0
 42 36  1  0  0  0  0
 44 45  1  0  0  0  0
 44 46  1  0  0  0  0
 45 47  1  0  0  0  0
 46 43  1  0  0  0  0
 47 43  1  0  0  0  0
 47 41  1  0  0  0  0
M  END
>  <MODEL>
4

>  <REMARK>
 VINA RESULT:      -7.4      3.682      6.946
  Name = 
  14 active torsions:
  status: ('A' for Active; 'I' for Inactive)
    1  A    between atoms: C_1  and  N_5
    2  A    between atoms: C_2  and  C_43
    3  A    between atoms: C_3  and  N_12
    4  A    between atoms: C_3  and  C_18
    5  A    between atoms: C_4  and  N_9
    6  A    between atoms: C_7  and  C_31
    7  A    between atoms: C_18  and  N_26
    8  A    between atoms: C_18  and  C_34
    9  A    between atoms: C_19  and  C_20
   10  A    between atoms: C_22  and  C_43
   11  A    between atoms: C_30  and  C_42
   12  A    between atoms: C_31  and  C_46
   13  A    between atoms: N_41  and  C_45
   14  A    between atoms: C_42  and  C_47
                            x       y       z     vdW  Elec       q    Type
                         _______ _______ _______ _____ _____    ______ ____

>  <TORSDO>
F 14

$$$$
=
 OpenBabel11032420573D

 47 51  0  0  1  0  0  0  0  0999 V2000
  181.4860  178.7180  143.7120 C   0  0  0  0  0  2  0  0  0  0  0  0
  180.2830  179.2240  142.8770 C   0  0  0  0  0  2  0  0  0  0  0  0
  183.4180  178.0740  142.0610 C   0  0  1  0  0  3  0  0  0  0  0  0
  181.2410  178.0450  141.0550 C   0  0  0  0  0  0  0  0  0  0  0  0
  180.1450  178.5440  141.5350 C   0  0  0  0  0  0  0  0  0  0  0  0
  182.8410  179.1040  143.0780 C   0  0  0  0  0  2  0  0  0  0  0  0
  182.4740  177.6540  140.9490 C   0  0  0  0  0  0  0  0  0  0  0  0
  185.9380  178.1530  142.0070 N   0  0  0  0  0  2  0  0  0  0  0  0
  184.6510  179.5810  140.6800 O   0  0  0  0  0  0  0  0  0  0  0  0
  184.6880  178.6300  141.5100 C   0  0  0  0  0  0  0  0  0  0  0  0
  187.1800  178.8610  141.7390 C   0  0  0  0  0  2  0  0  0  0  0  0
  188.3790  177.8980  141.6850 C   0  0  2  0  0  3  0  0  0  0  0  0
  190.6370  177.5220  142.3560 C   0  0  0  0  0  2  0  0  0  0  0  0
  191.1890  177.1230  144.6620 O   0  0  0  0  0  0  0  0  0  0  0  0
  188.9380  177.6610  144.0050 C   0  0  0  0  0  2  0  0  0  0  0  0
  189.3850  178.2080  142.7160 N   0  0  0  0  0  0  0  0  0  0  0  0
  190.0430  177.8440  145.0500 C   0  0  0  0  0  2  0  0  0  0  0  0
  191.6660  177.7090  143.4750 C   0  0  0  0  0  2  0  0  0  0  0  0
  188.4960  178.6200  139.3540 N   0  0  0  0  0  0  0  0  0  0  0  0
  189.0020  177.9150  140.3160 C   0  0  0  0  0  3  0  0  0  0  0  0
  189.0770  178.6450  138.0480 C   0  0  0  0  0  0  0  0  0  0  0  0
  188.9940  179.6730  137.3210 O   0  0  0  0  0  0  0  0  0  0  0  0
  189.7900  177.4440  137.5370 C   0  0  0  0  0  1  0  0  0  0  0  0
  182.8700  176.5970  139.9660 C   0  0  0  0  0  2  0  0  0  0  0  0
  182.7890  175.9770  137.4710 C   0  0  1  0  0  3  0  0  0  0  0  0
  181.4400  175.7200  138.1130 C   0  0  1  0  0  3  0  0  0  0  0  0
  182.2760  176.8930  138.5860 C   0  0  1  0  0  3  0  0  0  0  0  0
  180.4390  176.1840  137.2610 O   0  0  0  0  0  1  0  0  0  0  0  0
  184.1650  173.8080  137.2150 C   0  0  0  0  0  0  0  0  0  0  0  0
  183.7380  174.9730  137.9430 N   0  0  0  0  0  2  0  0  0  0  0  0
  184.8170  172.9280  137.8430 O   0  0  0  0  0  0  0  0  0  0  0  0
  184.5820  174.1880  134.8120 C   0  0  0  0  0  2  0  0  0  0  0  0
  183.8840  173.5910  135.7710 C   0  0  0  0  0  0  0  0  0  0  0  0
  182.8940  172.5550  135.3570 C   0  0  0  0  0  2  0  0  0  0  0  0
  181.4800  173.1060  135.4370 C   0  0  0  0  0  1  0  0  0  0  0  0
  179.0100  178.8670  140.6200 C   0  0  0  0  0  2  0  0  0  0  0  0
  179.5580  182.3230  139.1730 C   0  0  0  0  0  3  0  0  0  0  0  0
  179.7990  179.6580  138.3680 C   0  0  0  0  0  3  0  0  0  0  0  0
  180.1120  180.6860  137.4770 C   0  0  0  0  0  3  0  0  0  0  0  0
  179.2430  181.2940  140.0630 C   0  0  0  0  0  3  0  0  0  0  0  0
  180.0010  182.0300  137.8720 C   0  0  0  0  0  0  0  0  0  0  0  0
  179.3650  179.9600  139.6660 C   0  0  0  0  0  0  0  0  0  0  0  0
  180.6420  184.4420  137.3720 C   0  0  0  0  0  2  0  0  0  0  0  0
  180.6040  184.2920  134.9330 C   0  0  0  0  0  2  0  0  0  0  0  0
  180.3610  182.9090  135.5110 C   0  0  0  0  0  2  0  0  0  0  0  0
  181.0200  185.1810  136.1020 C   0  0  0  0  0  2  0  0  0  0  0  0
  180.3180  183.0880  136.9520 N   0  0  0  0  0  0  0  0  0  0  0  0
  2  1  1  0  0  0  0
  3 10  1  6  0  0  0
  3  6  1  0  0  0  0
  4  5  2  0  0  0  0
  5  2  1  0  0  0  0
  6  1  1  0  0  0  0
  7  4  2  0  0  0  0
  7  3  1  0  0  0  0
  9 10  2  0  0  0  0
 10  8  1  0  0  0  0
 11  8  1  0  0  0  0
 12 20  1  6  0  0  0
 12 11  1  0  0  0  0
 12 16  1  0  0  0  0
 13 16  1  0  0  0  0
 13 18  1  0  0  0  0
 14 17  1  0  0  0  0
 15 17  1  0  0  0  0
 16 15  1  0  0  0  0
 18 14  1  0  0  0  0
 19 20  2  0  0  0  0
 21 19  1  0  0  0  0
 22 21  2  0  0  0  0
 23 21  1  0  0  0  0
 24  7  1  0  0  0  0
 25 30  1  1  0  0  0
 25 26  1  0  0  0  0
 25 27  1  0  0  0  0
 26 28  1  6  0  0  0
 26 27  1  0  0  0  0
 27 24  1  1  0  0  0
 29 31  2  0  0  0  0
 29 30  1  0  0  0  0
 32 33  2  0  0  0  0
 33 29  1  0  0  0  0
 34 35  1  0  0  0  0
 34 33  1  0  0  0  0
 36  5  1  0  0  0  0
 37 40  1  0  0  0  0
 38 42  1  0  0  0  0
 39 41  1  0  0  0  0
 39 38  2  0  0  0  0
 41 37  2  0  0  0  0
 42 40  2  0  0  0  0
 42 36  1  0  0  0  0
 44 45  1  0  0  0  0
 44 46  1  0  0  0  0
 45 47  1  0  0  0  0
 46 43  1  0  0  0  0
 47 43  1  0  0  0  0
 47 41  1  0  0  0  0
M  END
>  <MODEL>
5

>  <REMARK>
 VINA RESULT:      -7.3      3.690      7.378
  Name = 
  14 active torsions:
  status: ('A' for Active; 'I' for Inactive)
    1  A    between atoms: C_1  and  N_5
    2  A    between atoms: C_2  and  C_43
    3  A    between atoms: C_3  and  N_12
    4  A    between atoms: C_3  and  C_18
    5  A    between atoms: C_4  and  N_9
    6  A    between atoms: C_7  and  C_31
    7  A    between atoms: C_18  and  N_26
    8  A    between atoms: C_18  and  C_34
    9  A    between atoms: C_19  and  C_20
   10  A    between atoms: C_22  and  C_43
   11  A    between atoms: C_30  and  C_42
   12  A    between atoms: C_31  and  C_46
   13  A    between atoms: N_41  and  C_45
   14  A    between atoms: C_42  and  C_47
                            x       y       z     vdW  Elec       q    Type
                         _______ _______ _______ _____ _____    ______ ____

>  <TORSDO>
F 14

$$$$
=
 OpenBabel11032420573D

 47 51  0  0  1  0  0  0  0  0999 V2000
  181.8910  178.6490  143.7300 C   0  0  0  0  0  2  0  0  0  0  0  0
  180.6200  179.1730  143.0160 C   0  0  0  0  0  2  0  0  0  0  0  0
  183.6730  178.0530  141.9020 C   0  0  1  0  0  3  0  0  0  0  0  0
  181.4180  178.0450  141.0870 C   0  0  0  0  0  0  0  0  0  0  0  0
  180.3670  178.5280  141.6730 C   0  0  0  0  0  0  0  0  0  0  0  0
  183.1860  179.0540  142.9920 C   0  0  0  0  0  2  0  0  0  0  0  0
  182.6370  177.6590  140.8650 C   0  0  0  0  0  0  0  0  0  0  0  0
  186.1660  178.0420  141.5200 N   0  0  0  0  0  2  0  0  0  0  0  0
  184.8000  179.6790  140.5650 O   0  0  0  0  0  0  0  0  0  0  0  0
  184.8910  178.6270  141.2590 C   0  0  0  0  0  0  0  0  0  0  0  0
  187.4010  178.7300  141.1780 C   0  0  0  0  0  2  0  0  0  0  0  0
  188.5300  178.3910  142.1670 C   0  0  2  0  0  3  0  0  0  0  0  0
  190.8670  177.9190  142.0940 C   0  0  0  0  0  2  0  0  0  0  0  0
  191.9620  177.4280  140.0120 O   0  0  0  0  0  0  0  0  0  0  0  0
  189.5800  177.7460  140.1100 C   0  0  0  0  0  2  0  0  0  0  0  0
  189.5530  177.5210  141.5620 N   0  0  0  0  0  0  0  0  0  0  0  0
  190.7400  176.9610  139.4910 C   0  0  0  0  0  2  0  0  0  0  0  0
  191.9710  177.1280  141.3870 C   0  0  0  0  0  2  0  0  0  0  0  0
  188.3570  178.1190  144.5890 N   0  0  0  0  0  0  0  0  0  0  0  0
  187.9640  177.7570  143.4080 C   0  0  0  0  0  3  0  0  0  0  0  0
  187.8300  177.5260  145.7770 C   0  0  0  0  0  0  0  0  0  0  0  0
  186.6230  177.1650  145.8410 O   0  0  0  0  0  0  0  0  0  0  0  0
  188.7140  177.3290  146.9560 C   0  0  0  0  0  1  0  0  0  0  0  0
  182.9480  176.6300  139.8240 C   0  0  0  0  0  2  0  0  0  0  0  0
  182.5460  176.0170  137.3590 C   0  0  1  0  0  3  0  0  0  0  0  0
  181.3270  175.6610  138.1860 C   0  0  1  0  0  3  0  0  0  0  0  0
  182.1380  176.8890  138.5500 C   0  0  1  0  0  3  0  0  0  0  0  0
  180.1810  176.0570  137.4970 O   0  0  0  0  0  1  0  0  0  0  0  0
  184.9870  175.1900  137.2280 C   0  0  0  0  0  0  0  0  0  0  0  0
  183.6220  175.0830  137.6720 N   0  0  0  0  0  2  0  0  0  0  0  0
  185.7410  174.1920  137.4000 O   0  0  0  0  0  0  0  0  0  0  0  0
  185.8060  176.4750  135.2870 C   0  0  0  0  0  2  0  0  0  0  0  0
  185.5520  176.4070  136.5890 C   0  0  0  0  0  0  0  0  0  0  0  0
  185.7030  177.6590  137.3850 C   0  0  0  0  0  2  0  0  0  0  0  0
  187.1070  178.2200  137.2350 C   0  0  0  0  0  1  0  0  0  0  0  0
  179.1570  178.8720  140.8680 C   0  0  0  0  0  2  0  0  0  0  0  0
  180.0690  180.5980  137.6230 C   0  0  0  0  0  3  0  0  0  0  0  0
  179.4040  181.2950  140.2460 C   0  0  0  0  0  3  0  0  0  0  0  0
  179.6930  182.2920  139.3130 C   0  0  0  0  0  3  0  0  0  0  0  0
  179.7810  179.6020  138.5590 C   0  0  0  0  0  3  0  0  0  0  0  0
  180.0220  181.9540  137.9900 C   0  0  0  0  0  0  0  0  0  0  0  0
  179.4460  179.9460  139.8710 C   0  0  0  0  0  0  0  0  0  0  0  0
  180.6880  182.7030  135.6500 C   0  0  0  0  0  2  0  0  0  0  0  0
  180.7930  185.1040  136.0910 C   0  0  0  0  0  2  0  0  0  0  0  0
  180.2850  184.4010  137.3370 C   0  0  0  0  0  2  0  0  0  0  0  0
  180.8000  184.0590  134.9780 C   0  0  0  0  0  2  0  0  0  0  0  0
  180.3250  182.9810  137.0300 N   0  0  0  0  0  0  0  0  0  0  0  0
  2  1  1  0  0  0  0
  3 10  1  6  0  0  0
  3  6  1  0  0  0  0
  4  5  2  0  0  0  0
  5  2  1  0  0  0  0
  6  1  1  0  0  0  0
  7  4  2  0  0  0  0
  7  3  1  0  0  0  0
  9 10  2  0  0  0  0
 10  8  1  0  0  0  0
 11  8  1  0  0  0  0
 12 11  1  6  0  0  0
 12 20  1  0  0  0  0
 14 18  1  0  0  0  0
 15 16  1  0  0  0  0
 16 13  1  0  0  0  0
 16 12  1  0  0  0  0
 17 14  1  0  0  0  0
 17 15  1  0  0  0  0
 18 13  1  0  0  0  0
 19 21  1  0  0  0  0
 20 19  2  0  0  0  0
 21 22  2  0  0  0  0
 21 23  1  0  0  0  0
 24  7  1  0  0  0  0
 25 30  1  1  0  0  0
 25 26  1  0  0  0  0
 25 27  1  0  0  0  0
 26 28  1  6  0  0  0
 26 27  1  0  0  0  0
 27 24  1  1  0  0  0
 29 31  2  0  0  0  0
 29 30  1  0  0  0  0
 32 33  2  0  0  0  0
 33 29  1  0  0  0  0
 33 34  1  0  0  0  0
 35 34  1  0  0  0  0
 36  5  1  0  0  0  0
 37 41  2  0  0  0  0
 37 40  1  0  0  0  0
 39 38  2  0  0  0  0
 40 42  2  0  0  0  0
 41 39  1  0  0  0  0
 42 38  1  0  0  0  0
 42 36  1  0  0  0  0
 43 47  1  0  0  0  0
 44 45  1  0  0  0  0
 46 43  1  0  0  0  0
 46 44  1  0  0  0  0
 47 45  1  0  0  0  0
 47 41  1  0  0  0  0
M  END
>  <MODEL>
6

>  <REMARK>
 VINA RESULT:      -7.3      3.488      7.284
  Name = 
  14 active torsions:
  status: ('A' for Active; 'I' for Inactive)
    1  A    between atoms: C_1  and  N_5
    2  A    between atoms: C_2  and  C_43
    3  A    between atoms: C_3  and  N_12
    4  A    between atoms: C_3  and  C_18
    5  A    between atoms: C_4  and  N_9
    6  A    between atoms: C_7  and  C_31
    7  A    between atoms: C_18  and  N_26
    8  A    between atoms: C_18  and  C_34
    9  A    between atoms: C_19  and  C_20
   10  A    between atoms: C_22  and  C_43
   11  A    between atoms: C_30  and  C_42
   12  A    between atoms: C_31  and  C_46
   13  A    between atoms: N_41  and  C_45
   14  A    between atoms: C_42  and  C_47
                            x       y       z     vdW  Elec       q    Type
                         _______ _______ _______ _____ _____    ______ ____

>  <TORSDO>
F 14

$$$$
=
 OpenBabel11032420573D

 47 51  0  0  1  0  0  0  0  0999 V2000
  188.3620  177.6460  136.6410 C   0  0  0  0  0  2  0  0  0  0  0  0
  188.4430  176.1010  136.7100 C   0  0  0  0  0  2  0  0  0  0  0  0
  186.2450  178.4190  137.9790 C   0  0  1  0  0  3  0  0  0  0  0  0
  186.1240  176.1500  137.2120 C   0  0  0  0  0  0  0  0  0  0  0  0
  187.0930  175.4230  136.7500 C   0  0  0  0  0  0  0  0  0  0  0  0
  187.7940  178.2610  137.9390 C   0  0  0  0  0  2  0  0  0  0  0  0
  185.4510  177.1660  137.6580 C   0  0  0  0  0  0  0  0  0  0  0  0
  186.6470  178.6200  140.4610 N   0  0  0  0  0  2  0  0  0  0  0  0
  184.8200  179.6580  139.4410 O   0  0  0  0  0  0  0  0  0  0  0  0
  185.8710  178.9680  139.3150 C   0  0  0  0  0  0  0  0  0  0  0  0
  186.1620  178.8660  141.8100 C   0  0  0  0  0  2  0  0  0  0  0  0
  186.3870  177.6490  142.7230 C   0  0  2  0  0  3  0  0  0  0  0  0
  184.6070  178.8190  143.7960 C   0  0  0  0  0  2  0  0  0  0  0  0
  184.7160  179.3510  146.1380 O   0  0  0  0  0  0  0  0  0  0  0  0
  186.4330  178.0320  145.0890 C   0  0  0  0  0  2  0  0  0  0  0  0
  185.5670  177.7130  143.9450 N   0  0  0  0  0  0  0  0  0  0  0  0
  185.5720  178.2510  146.3370 C   0  0  0  0  0  2  0  0  0  0  0  0
  183.8280  179.0050  145.1010 C   0  0  0  0  0  2  0  0  0  0  0  0
  188.5180  176.4550  142.7610 N   0  0  0  0  0  0  0  0  0  0  0  0
  187.8450  177.5180  143.0700 C   0  0  0  0  0  3  0  0  0  0  0  0
  189.9040  176.3160  143.0850 C   0  0  0  0  0  0  0  0  0  0  0  0
  190.5290  175.2530  142.8190 O   0  0  0  0  0  0  0  0  0  0  0  0
  190.6210  177.4400  143.7440 C   0  0  0  0  0  1  0  0  0  0  0  0
  183.9570  177.2070  137.5650 C   0  0  0  0  0  2  0  0  0  0  0  0
  182.2690  176.6080  139.4100 C   0  0  1  0  0  3  0  0  0  0  0  0
  181.8580  175.9620  138.1020 C   0  0  1  0  0  3  0  0  0  0  0  0
  183.3310  176.1070  138.4280 C   0  0  1  0  0  3  0  0  0  0  0  0
  181.4610  174.6490  138.3520 O   0  0  0  0  0  1  0  0  0  0  0  0
  181.0890  178.7970  140.1030 C   0  0  0  0  0  0  0  0  0  0  0  0
  182.0370  178.0470  139.3230 N   0  0  0  0  0  2  0  0  0  0  0  0
  180.8540  179.9880  139.7570 O   0  0  0  0  0  0  0  0  0  0  0  0
  179.4760  177.2810  141.1940 C   0  0  0  0  0  2  0  0  0  0  0  0
  180.3820  178.2470  141.2890 C   0  0  0  0  0  0  0  0  0  0  0  0
  180.7960  178.6690  142.6580 C   0  0  0  0  0  2  0  0  0  0  0  0
  179.7710  179.6180  143.2570 C   0  0  0  0  0  1  0  0  0  0  0  0
  186.9780  173.9340  136.7620 C   0  0  0  0  0  2  0  0  0  0  0  0
  183.6140  172.2490  137.1880 C   0  0  0  0  0  3  0  0  0  0  0  0
  184.9270  173.8490  135.3110 C   0  0  0  0  0  3  0  0  0  0  0  0
  183.6240  173.4130  135.0650 C   0  0  0  0  0  3  0  0  0  0  0  0
  184.9180  172.6850  137.4330 C   0  0  0  0  0  3  0  0  0  0  0  0
  182.9510  172.6130  136.0040 C   0  0  0  0  0  0  0  0  0  0  0  0
  185.5770  173.4880  136.4980 C   0  0  0  0  0  0  0  0  0  0  0  0
  180.5240  173.0480  135.3720 C   0  0  0  0  0  2  0  0  0  0  0  0
  179.7080  170.7570  135.6080 C   0  0  0  0  0  2  0  0  0  0  0  0
  181.2110  170.7640  135.8220 C   0  0  0  0  0  2  0  0  0  0  0  0
  179.3390  172.1430  135.0870 C   0  0  0  0  0  2  0  0  0  0  0  0
  181.6110  172.1590  135.7470 N   0  0  0  0  0  0  0  0  0  0  0  0
  1  2  1  0  0  0  0
  1  6  1  0  0  0  0
  2  5  1  0  0  0  0
  3 10  1  1  0  0  0
  4  7  2  0  0  0  0
  5 36  1  0  0  0  0
  5  4  2  0  0  0  0
  6  3  1  0  0  0  0
  7  3  1  0  0  0  0
  8 11  1  0  0  0  0
 10  9  2  0  0  0  0
 10  8  1  0  0  0  0
 12 11  1  1  0  0  0
 12 20  1  0  0  0  0
 12 16  1  0  0  0  0
 13 16  1  0  0  0  0
 13 18  1  0  0  0  0
 14 17  1  0  0  0  0
 15 17  1  0  0  0  0
 16 15  1  0  0  0  0
 18 14  1  0  0  0  0
 19 20  2  0  0  0  0
 19 21  1  0  0  0  0
 21 23  1  0  0  0  0
 22 21  2  0  0  0  0
 24  7  1  0  0  0  0
 25 30  1  6  0  0  0
 26 28  1  1  0  0  0
 26 27  1  0  0  0  0
 26 25  1  0  0  0  0
 27 24  1  6  0  0  0
 27 25  1  0  0  0  0
 29 33  1  0  0  0  0
 30 29  1  0  0  0  0
 31 29  2  0  0  0  0
 32 33  2  0  0  0  0
 33 34  1  0  0  0  0
 34 35  1  0  0  0  0
 37 40  1  0  0  0  0
 38 42  1  0  0  0  0
 39 38  2  0  0  0  0
 39 41  1  0  0  0  0
 41 37  2  0  0  0  0
 42 36  1  0  0  0  0
 42 40  2  0  0  0  0
 43 47  1  0  0  0  0
 44 45  1  0  0  0  0
 46 43  1  0  0  0  0
 46 44  1  0  0  0  0
 47 45  1  0  0  0  0
 47 41  1  0  0  0  0
M  END
>  <MODEL>
7

>  <REMARK>
 VINA RESULT:      -7.0      3.713      8.208
  Name = 
  14 active torsions:
  status: ('A' for Active; 'I' for Inactive)
    1  A    between atoms: C_1  and  N_5
    2  A    between atoms: C_2  and  C_43
    3  A    between atoms: C_3  and  N_12
    4  A    between atoms: C_3  and  C_18
    5  A    between atoms: C_4  and  N_9
    6  A    between atoms: C_7  and  C_31
    7  A    between atoms: C_18  and  N_26
    8  A    between atoms: C_18  and  C_34
    9  A    between atoms: C_19  and  C_20
   10  A    between atoms: C_22  and  C_43
   11  A    between atoms: C_30  and  C_42
   12  A    between atoms: C_31  and  C_46
   13  A    between atoms: N_41  and  C_45
   14  A    between atoms: C_42  and  C_47
                            x       y       z     vdW  Elec       q    Type
                         _______ _______ _______ _____ _____    ______ ____

>  <TORSDO>
F 14

$$$$
=
 OpenBabel11032420573D

 47 51  0  0  1  0  0  0  0  0999 V2000
  187.9550  177.8880  134.6960 C   0  0  0  0  0  2  0  0  0  0  0  0
  186.4380  177.6110  134.8410 C   0  0  0  0  0  2  0  0  0  0  0  0
  189.2190  176.5340  136.5500 C   0  0  1  0  0  3  0  0  0  0  0  0
  186.9200  176.9690  137.0740 C   0  0  0  0  0  0  0  0  0  0  0  0
  185.9950  177.3880  136.2680 C   0  0  0  0  0  0  0  0  0  0  0  0
  188.8130  176.6540  135.0510 C   0  0  0  0  0  2  0  0  0  0  0  0
  188.0790  176.6250  137.5470 C   0  0  0  0  0  0  0  0  0  0  0  0
  191.2730  175.3000  137.3390 N   0  0  0  0  0  2  0  0  0  0  0  0
  189.5390  174.1890  136.2350 O   0  0  0  0  0  0  0  0  0  0  0  0
  189.9870  175.2660  136.7200 C   0  0  0  0  0  0  0  0  0  0  0  0
  192.1840  174.1690  137.2560 C   0  0  0  0  0  2  0  0  0  0  0  0
  193.0650  174.2450  135.9960 C   0  0  2  0  0  3  0  0  0  0  0  0
  192.5970  172.0110  135.3050 C   0  0  0  0  0  2  0  0  0  0  0  0
  193.7570  170.1480  136.2850 O   0  0  0  0  0  0  0  0  0  0  0  0
  194.3400  172.4090  136.8640 C   0  0  0  0  0  2  0  0  0  0  0  0
  193.6750  172.9450  135.6670 N   0  0  0  0  0  0  0  0  0  0  0  0
  194.8460  170.9920  136.5760 C   0  0  0  0  0  2  0  0  0  0  0  0
  193.1790  170.6120  135.0880 C   0  0  0  0  0  2  0  0  0  0  0  0
  194.9430  175.5900  135.2010 N   0  0  0  0  0  0  0  0  0  0  0  0
  194.1250  175.3000  136.1620 C   0  0  0  0  0  3  0  0  0  0  0  0
  195.9560  176.5890  135.3440 C   0  0  0  0  0  0  0  0  0  0  0  0
  196.9750  176.3820  136.0580 O   0  0  0  0  0  0  0  0  0  0  0  0
  195.8090  177.8920  134.6410 C   0  0  0  0  0  1  0  0  0  0  0  0
  188.3460  176.6240  139.0200 C   0  0  0  0  0  2  0  0  0  0  0  0
  189.5770  177.9470  140.8500 C   0  0  1  0  0  3  0  0  0  0  0  0
  190.5040  176.9090  140.2490 C   0  0  1  0  0  3  0  0  0  0  0  0
  189.4810  177.5930  139.3630 C   0  0  1  0  0  3  0  0  0  0  0  0
  191.7540  177.4890  140.0380 O   0  0  0  0  0  1  0  0  0  0  0  0
  188.8220  176.5690  142.8980 C   0  0  0  0  0  0  0  0  0  0  0  0
  188.5730  177.2720  141.6670 N   0  0  0  0  0  2  0  0  0  0  0  0
  187.8910  175.8570  143.3670 O   0  0  0  0  0  0  0  0  0  0  0  0
  191.1980  175.9960  143.2470 C   0  0  0  0  0  2  0  0  0  0  0  0
  190.1070  176.6420  143.6430 C   0  0  0  0  0  0  0  0  0  0  0  0
  190.2450  177.5880  144.7870 C   0  0  0  0  0  2  0  0  0  0  0  0
  190.8550  178.9010  144.3230 C   0  0  0  0  0  1  0  0  0  0  0  0
  184.5570  177.1620  136.6030 C   0  0  0  0  0  2  0  0  0  0  0  0
  184.7150  178.8830  139.9730 C   0  0  0  0  0  3  0  0  0  0  0  0
  183.2800  176.8250  138.7420 C   0  0  0  0  0  3  0  0  0  0  0  0
  183.0200  177.1570  140.0740 C   0  0  0  0  0  3  0  0  0  0  0  0
  184.9760  178.5480  138.6410 C   0  0  0  0  0  3  0  0  0  0  0  0
  183.7310  178.1930  140.7010 C   0  0  0  0  0  0  0  0  0  0  0  0
  184.2590  177.5220  138.0220 C   0  0  0  0  0  0  0  0  0  0  0  0
  182.1410  178.8470  142.5770 C   0  0  0  0  0  2  0  0  0  0  0  0
  183.8070  179.0940  144.3480 C   0  0  0  0  0  2  0  0  0  0  0  0
  184.4960  178.5760  143.0980 C   0  0  0  0  0  2  0  0  0  0  0  0
  182.3070  179.0200  144.0760 C   0  0  0  0  0  2  0  0  0  0  0  0
  183.4670  178.5310  142.0730 N   0  0  0  0  0  0  0  0  0  0  0  0
  1  2  1  0  0  0  0
  1  6  1  0  0  0  0
  2  5  1  0  0  0  0
  3 10  1  6  0  0  0
  3  7  1  0  0  0  0
  4  7  2  0  0  0  0
  5 36  1  0  0  0  0
  5  4  2  0  0  0  0
  6  3  1  0  0  0  0
  7 24  1  0  0  0  0
  9 10  2  0  0  0  0
 10  8  1  0  0  0  0
 11  8  1  0  0  0  0
 12 20  1  1  0  0  0
 12 11  1  0  0  0  0
 13 16  1  0  0  0  0
 14 17  1  0  0  0  0
 16 12  1  0  0  0  0
 16 15  1  0  0  0  0
 17 15  1  0  0  0  0
 18 13  1  0  0  0  0
 18 14  1  0  0  0  0
 19 21  1  0  0  0  0
 19 20  2  0  0  0  0
 21 22  2  0  0  0  0
 23 21  1  0  0  0  0
 25 30  1  1  0  0  0
 26 28  1  6  0  0  0
 26 25  1  0  0  0  0
 27 24  1  1  0  0  0
 27 26  1  0  0  0  0
 27 25  1  0  0  0  0
 29 31  2  0  0  0  0
 29 33  1  0  0  0  0
 30 29  1  0  0  0  0
 32 33  2  0  0  0  0
 33 34  1  0  0  0  0
 35 34  1  0  0  0  0
 36 42  1  0  0  0  0
 37 41  1  0  0  0  0
 38 39  1  0  0  0  0
 39 41  2  0  0  0  0
 40 37  2  0  0  0  0
 41 47  1  0  0  0  0
 42 40  1  0  0  0  0
 42 38  2  0  0  0  0
 43 46  1  0  0  0  0
 45 44  1  0  0  0  0
 46 44  1  0  0  0  0
 47 43  1  0  0  0  0
 47 45  1  0  0  0  0
M  END
>  <MODEL>
8

>  <REMARK>
 VINA RESULT:      -6.8      2.295      5.563
  Name = 
  14 active torsions:
  status: ('A' for Active; 'I' for Inactive)
    1  A    between atoms: C_1  and  N_5
    2  A    between atoms: C_2  and  C_43
    3  A    between atoms: C_3  and  N_12
    4  A    between atoms: C_3  and  C_18
    5  A    between atoms: C_4  and  N_9
    6  A    between atoms: C_7  and  C_31
    7  A    between atoms: C_18  and  N_26
    8  A    between atoms: C_18  and  C_34
    9  A    between atoms: C_19  and  C_20
   10  A    between atoms: C_22  and  C_43
   11  A    between atoms: C_30  and  C_42
   12  A    between atoms: C_31  and  C_46
   13  A    between atoms: N_41  and  C_45
   14  A    between atoms: C_42  and  C_47
                            x       y       z     vdW  Elec       q    Type
                         _______ _______ _______ _____ _____    ______ ____

>  <TORSDO>
F 14

$$$$
=
 OpenBabel11032420573D

 47 51  0  0  1  0  0  0  0  0999 V2000
  188.9720  178.4320  138.7070 C   0  0  0  0  0  2  0  0  0  0  0  0
  189.6780  178.2310  140.0710 C   0  0  0  0  0  2  0  0  0  0  0  0
  189.3210  176.2640  137.2740 C   0  0  1  0  0  3  0  0  0  0  0  0
  190.9710  176.5610  138.9890 C   0  0  0  0  0  0  0  0  0  0  0  0
  190.9260  177.3830  139.9910 C   0  0  0  0  0  0  0  0  0  0  0  0
  188.3670  177.1200  138.1620 C   0  0  0  0  0  2  0  0  0  0  0  0
  190.6740  175.9480  137.8840 C   0  0  0  0  0  0  0  0  0  0  0  0
  187.5300  175.0890  135.9420 N   0  0  0  0  0  2  0  0  0  0  0  0
  188.8680  173.9280  137.4650 O   0  0  0  0  0  0  0  0  0  0  0  0
  188.5970  175.0180  136.8880 C   0  0  0  0  0  0  0  0  0  0  0  0
  186.6030  173.9830  135.7620 C   0  0  0  0  0  2  0  0  0  0  0  0
  185.1400  174.4570  135.8230 C   0  0  2  0  0  3  0  0  0  0  0  0
  183.4820  174.9850  137.4540 C   0  0  0  0  0  2  0  0  0  0  0  0
  183.1800  177.2430  138.2200 O   0  0  0  0  0  0  0  0  0  0  0  0
  184.9560  176.6820  136.6970 C   0  0  0  0  0  2  0  0  0  0  0  0
  184.8660  175.2540  137.0320 N   0  0  0  0  0  0  0  0  0  0  0  0
  184.5250  177.5180  137.9060 C   0  0  0  0  0  2  0  0  0  0  0  0
  183.1150  175.8970  138.6280 C   0  0  0  0  0  2  0  0  0  0  0  0
  184.3690  172.2370  136.4910 N   0  0  0  0  0  0  0  0  0  0  0  0
  184.2060  173.2810  135.7410 C   0  0  0  0  0  3  0  0  0  0  0  0
  183.4900  171.1120  136.4240 C   0  0  0  0  0  0  0  0  0  0  0  0
  183.8480  170.0410  135.8620 O   0  0  0  0  0  0  0  0  0  0  0  0
  182.1320  171.2020  137.0250 C   0  0  0  0  0  1  0  0  0  0  0  0
  191.7180  175.2200  137.0970 C   0  0  0  0  0  2  0  0  0  0  0  0
  194.2600  175.5880  137.2340 C   0  0  1  0  0  3  0  0  0  0  0  0
  193.8290  175.4840  135.7840 C   0  0  1  0  0  3  0  0  0  0  0  0
  192.9030  176.1410  136.7890 C   0  0  1  0  0  3  0  0  0  0  0  0
  194.4810  176.4730  135.0480 O   0  0  0  0  0  1  0  0  0  0  0  0
  195.2620  173.5290  138.4240 C   0  0  0  0  0  0  0  0  0  0  0  0
  194.1690  174.2690  137.8530 N   0  0  0  0  0  2  0  0  0  0  0  0
  195.0610  172.3170  138.7190 O   0  0  0  0  0  0  0  0  0  0  0  0
  197.5730  174.1080  137.7800 C   0  0  0  0  0  2  0  0  0  0  0  0
  196.6030  174.1130  138.6870 C   0  0  0  0  0  0  0  0  0  0  0  0
  196.8450  174.8730  139.9470 C   0  0  0  0  0  2  0  0  0  0  0  0
  198.2520  175.4480  139.9610 C   0  0  0  0  0  1  0  0  0  0  0  0
  191.7650  177.1290  141.2000 C   0  0  0  0  0  2  0  0  0  0  0  0
  190.4960  178.4240  144.5250 C   0  0  0  0  0  3  0  0  0  0  0  0
  189.9860  176.3060  142.7740 C   0  0  0  0  0  3  0  0  0  0  0  0
  189.2590  176.4190  143.9610 C   0  0  0  0  0  3  0  0  0  0  0  0
  191.2240  178.3080  143.3380 C   0  0  0  0  0  3  0  0  0  0  0  0
  189.5030  177.4830  144.8460 C   0  0  0  0  0  0  0  0  0  0  0  0
  190.9690  177.2530  142.4590 C   0  0  0  0  0  0  0  0  0  0  0  0
  187.4010  178.1120  146.1370 C   0  0  0  0  0  2  0  0  0  0  0  0
  188.2280  177.6010  148.3790 C   0  0  0  0  0  2  0  0  0  0  0  0
  189.2810  177.1920  147.3650 C   0  0  0  0  0  2  0  0  0  0  0  0
  186.9710  177.9410  147.5820 C   0  0  0  0  0  2  0  0  0  0  0  0
  188.7580  177.5960  146.0710 N   0  0  0  0  0  0  0  0  0  0  0  0
  1  2  1  0  0  0  0
  3 10  1  1  0  0  0
  3  7  1  0  0  0  0
  3  6  1  0  0  0  0
  4  5  2  0  0  0  0
  5  2  1  0  0  0  0
  5 36  1  0  0  0  0
  6  1  1  0  0  0  0
  7  4  2  0  0  0  0
  8 10  1  0  0  0  0
 10  9  2  0  0  0  0
 11 12  1  0  0  0  0
 11  8  1  0  0  0  0
 12 20  1  1  0  0  0
 12 16  1  0  0  0  0
 13 18  1  0  0  0  0
 14 18  1  0  0  0  0
 15 16  1  0  0  0  0
 15 17  1  0  0  0  0
 16 13  1  0  0  0  0
 17 14  1  0  0  0  0
 20 19  2  0  0  0  0
 21 19  1  0  0  0  0
 21 23  1  0  0  0  0
 22 21  2  0  0  0  0
 24  7  1  0  0  0  0
 25 30  1  1  0  0  0
 26 28  1  6  0  0  0
 26 27  1  0  0  0  0
 26 25  1  0  0  0  0
 27 24  1  1  0  0  0
 27 25  1  0  0  0  0
 29 33  1  0  0  0  0
 29 31  2  0  0  0  0
 30 29  1  0  0  0  0
 32 33  2  0  0  0  0
 33 34  1  0  0  0  0
 34 35  1  0  0  0  0
 36 42  1  0  0  0  0
 37 41  1  0  0  0  0
 38 39  1  0  0  0  0
 39 41  2  0  0  0  0
 40 37  2  0  0  0  0
 41 47  1  0  0  0  0
 42 38  2  0  0  0  0
 42 40  1  0  0  0  0
 43 46  1  0  0  0  0
 45 44  1  0  0  0  0
 46 44  1  0  0  0  0
 47 43  1  0  0  0  0
 47 45  1  0  0  0  0
M  END
>  <MODEL>
9

>  <REMARK>
 VINA RESULT:      -6.7      3.359      8.950
  Name = 
  14 active torsions:
  status: ('A' for Active; 'I' for Inactive)
    1  A    between atoms: C_1  and  N_5
    2  A    between atoms: C_2  and  C_43
    3  A    between atoms: C_3  and  N_12
    4  A    between atoms: C_3  and  C_18
    5  A    between atoms: C_4  and  N_9
    6  A    between atoms: C_7  and  C_31
    7  A    between atoms: C_18  and  N_26
    8  A    between atoms: C_18  and  C_34
    9  A    between atoms: C_19  and  C_20
   10  A    between atoms: C_22  and  C_43
   11  A    between atoms: C_30  and  C_42
   12  A    between atoms: C_31  and  C_46
   13  A    between atoms: N_41  and  C_45
   14  A    between atoms: C_42  and  C_47
                            x       y       z     vdW  Elec       q    Type
                         _______ _______ _______ _____ _____    ______ ____

>  <TORSDO>
F 14

$$$$
