=
 OpenBabel11032419133D

 30 34  0  0  1  0  0  0  0  0999 V2000
  190.8820  177.3890  140.8390 N   0  0  0  0  0  0  0  0  0  0  0  0
  193.0260  176.3680  137.8220 C   0  0  0  0  0  0  0  0  0  0  0  0
  191.5330  177.0200  139.6160 C   0  0  0  0  0  0  0  0  0  0  0  0
  188.7550  177.1170  142.0680 C   0  0  1  0  0  3  0  0  0  0  0  0
  191.6590  177.5610  142.0660 C   0  0  0  0  0  2  0  0  0  0  0  0
  194.0930  175.9900  136.9630 N   0  0  0  0  0  1  0  0  0  0  0  0
  193.1800  176.6800  139.4640 S   0  0  0  0  0  0  0  0  0  0  0  0
  190.7360  177.8950  143.2320 C   0  0  0  0  0  2  0  0  0  0  0  0
  189.4560  177.7080  140.8330 C   0  0  0  0  0  2  0  0  0  0  0  0
  189.6200  176.9350  143.2590 N   0  0  1  0  0  0  0  0  0  0  0  0
  187.5530  177.8530  143.8230 N   0  0  0  0  0  0  0  0  0  0  0  0
  188.6980  177.1680  144.3820 C   0  0  2  0  0  3  0  0  0  0  0  0
  187.5990  177.9300  142.4290 N   0  0  0  0  0  2  0  0  0  0  0  0
  191.7080  176.5290  137.4250 C   0  0  0  0  0  3  0  0  0  0  0  0
  190.8780  176.8950  138.4380 N   0  0  0  0  0  0  0  0  0  0  0  0
  185.1130  178.3210  143.9180 C   0  0  0  0  0  0  0  0  0  0  0  0
  186.3470  178.1380  144.5590 C   0  0  0  0  0  0  0  0  0  0  0  0
  183.3420  178.5870  142.4300 N   0  0  0  0  0  0  0  0  0  0  0  0
  184.7800  178.3080  142.4480 C   0  0  0  0  0  2  0  0  0  0  0  0
  185.1830  178.5170  146.6750 C   0  0  0  0  0  3  0  0  0  0  0  0
  186.3670  178.2390  145.9650 C   0  0  0  0  0  3  0  0  0  0  0  0
  183.9860  178.5910  144.6610 C   0  0  0  0  0  0  0  0  0  0  0  0
  182.5290  178.6880  141.2300 C   0  0  0  0  0  1  0  0  0  0  0  0
  184.0050  178.6910  146.0120 N   0  0  0  0  0  0  0  0  0  0  0  0
  181.6890  179.0160  144.0820 O   0  0  0  0  0  0  0  0  0  0  0  0
  182.8790  178.7580  143.7620 C   0  0  0  0  0  0  0  0  0  0  0  0
  189.2910  177.9290  145.5760 C   0  0  0  0  0  2  0  0  0  0  0  0
  189.5780  177.0040  146.6570 N   0  0  0  0  0  2  0  0  0  0  0  0
  190.9030  176.7450  147.0230 C   0  0  0  0  0  0  0  0  0  0  0  0
  192.0000  176.5290  147.3250 N   0  0  0  0  0  0  0  0  0  0  0  0
  1  5  1  0  0  0  0
  2  7  1  0  0  0  0
  3  1  1  0  0  0  0
  4  9  1  6  0  0  0
  4 13  1  0  0  0  0
  4 10  1  0  0  0  0
  5  8  1  0  0  0  0
  6  2  1  0  0  0  0
  7  3  1  0  0  0  0
  9  1  1  0  0  0  0
 10  8  1  6  0  0  0
 10 12  1  0  0  0  0
 11 12  1  0  0  0  0
 11 17  1  0  0  0  0
 12 27  1  1  0  0  0
 13 11  1  0  0  0  0
 14  2  2  0  0  0  0
 14 15  1  0  0  0  0
 15  3  2  0  0  0  0
 16 17  2  0  0  0  0
 16 22  1  0  0  0  0
 17 21  1  0  0  0  0
 18 19  1  0  0  0  0
 18 26  1  0  0  0  0
 19 16  1  0  0  0  0
 21 20  2  0  0  0  0
 22 24  2  0  0  0  0
 23 18  1  0  0  0  0
 24 20  1  0  0  0  0
 26 25  2  0  0  0  0
 26 22  1  0  0  0  0
 27 28  1  0  0  0  0
 28 29  1  0  0  0  0
 29 30  3  0  0  0  0
M  END
>  <MODEL>
1

>  <REMARK>
 VINA RESULT:      -9.5      0.000      0.000
  Name = 
  4 active torsions:
  status: ('A' for Active; 'I' for Inactive)
    1  A    between atoms: C_6  and  N_8
    2  A    between atoms: N_8  and  C_24
    3  A    between atoms: C_11  and  N_18
    4  A    between atoms: C_20  and  C_24
                            x       y       z     vdW  Elec       q    Type
                         _______ _______ _______ _____ _____    ______ ____

>  <TORSDO>
F 4

$$$$
=
 OpenBabel11032419133D

 30 34  0  0  1  0  0  0  0  0999 V2000
  189.8780  176.7410  138.8650 N   0  0  0  0  0  0  0  0  0  0  0  0
  192.6900  176.1860  136.3120 C   0  0  0  0  0  0  0  0  0  0  0  0
  191.0310  176.4920  138.0510 C   0  0  0  0  0  0  0  0  0  0  0  0
  189.2080  177.6740  141.0530 C   0  0  1  0  0  3  0  0  0  0  0  0
  188.5930  177.0650  138.2470 C   0  0  0  0  0  2  0  0  0  0  0  0
  193.4600  176.0730  135.1220 N   0  0  0  0  0  1  0  0  0  0  0  0
  191.0670  176.6110  136.3670 S   0  0  0  0  0  0  0  0  0  0  0  0
  187.5460  177.3410  139.3190 C   0  0  0  0  0  2  0  0  0  0  0  0
  189.9590  176.5550  140.3120 C   0  0  0  0  0  2  0  0  0  0  0  0
  188.0920  178.2950  140.2980 N   0  0  1  0  0  0  0  0  0  0  0  0
  187.5050  177.8670  142.5130 N   0  0  0  0  0  0  0  0  0  0  0  0
  187.1250  178.6430  141.3520 C   0  0  2  0  0  3  0  0  0  0  0  0
  188.7120  177.1870  142.3360 N   0  0  0  0  0  2  0  0  0  0  0  0
  193.1720  175.9630  137.5910 C   0  0  0  0  0  3  0  0  0  0  0  0
  192.2340  176.1370  138.5610 N   0  0  0  0  0  0  0  0  0  0  0  0
  187.6260  177.7900  144.9950 C   0  0  0  0  0  0  0  0  0  0  0  0
  186.9050  178.0200  143.8140 C   0  0  0  0  0  0  0  0  0  0  0  0
  189.1900  177.2590  146.6370 N   0  0  0  0  0  0  0  0  0  0  0  0
  189.0510  177.3330  145.1800 C   0  0  0  0  0  2  0  0  0  0  0  0
  184.9810  178.5620  145.2220 C   0  0  0  0  0  3  0  0  0  0  0  0
  185.5570  178.4140  143.9450 C   0  0  0  0  0  3  0  0  0  0  0  0
  187.0130  177.9490  146.2170 C   0  0  0  0  0  0  0  0  0  0  0  0
  190.3960  176.8550  147.3380 C   0  0  0  0  0  1  0  0  0  0  0  0
  185.7170  178.3250  146.3440 N   0  0  0  0  0  0  0  0  0  0  0  0
  187.7540  177.6580  148.4880 O   0  0  0  0  0  0  0  0  0  0  0  0
  187.9610  177.6270  147.2460 C   0  0  0  0  0  0  0  0  0  0  0  0
  185.6480  178.4370  140.9870 C   0  0  0  0  0  2  0  0  0  0  0  0
  185.1430  179.6120  140.2990 N   0  0  0  0  0  2  0  0  0  0  0  0
  184.0540  179.4980  139.4290 C   0  0  0  0  0  0  0  0  0  0  0  0
  183.1530  179.4030  138.7080 N   0  0  0  0  0  0  0  0  0  0  0  0
  1  9  1  0  0  0  0
  2  7  1  0  0  0  0
  2 14  2  0  0  0  0
  3 15  2  0  0  0  0
  3  1  1  0  0  0  0
  4  9  1  6  0  0  0
  4 13  1  0  0  0  0
  5  1  1  0  0  0  0
  5  8  1  0  0  0  0
  6  2  1  0  0  0  0
  7  3  1  0  0  0  0
 10  8  1  6  0  0  0
 10  4  1  0  0  0  0
 10 12  1  0  0  0  0
 11 17  1  0  0  0  0
 12 27  1  6  0  0  0
 12 11  1  0  0  0  0
 13 11  1  0  0  0  0
 14 15  1  0  0  0  0
 16 19  1  0  0  0  0
 16 22  1  0  0  0  0
 17 21  1  0  0  0  0
 17 16  2  0  0  0  0
 18 26  1  0  0  0  0
 18 23  1  0  0  0  0
 19 18  1  0  0  0  0
 20 24  1  0  0  0  0
 21 20  2  0  0  0  0
 22 24  2  0  0  0  0
 22 26  1  0  0  0  0
 26 25  2  0  0  0  0
 28 27  1  0  0  0  0
 29 28  1  0  0  0  0
 30 29  3  0  0  0  0
M  END
>  <MODEL>
2

>  <REMARK>
 VINA RESULT:      -8.0      2.290      5.172
  Name = 
  4 active torsions:
  status: ('A' for Active; 'I' for Inactive)
    1  A    between atoms: C_6  and  N_8
    2  A    between atoms: N_8  and  C_24
    3  A    between atoms: C_11  and  N_18
    4  A    between atoms: C_20  and  C_24
                            x       y       z     vdW  Elec       q    Type
                         _______ _______ _______ _____ _____    ______ ____

>  <TORSDO>
F 4

$$$$
=
 OpenBabel11032419133D

 30 34  0  0  1  0  0  0  0  0999 V2000
  184.0700  178.8450  142.6720 N   0  0  0  0  0  0  0  0  0  0  0  0
  180.2600  179.2550  142.4490 C   0  0  0  0  0  0  0  0  0  0  0  0
  182.6420  178.9440  142.7590 C   0  0  0  0  0  0  0  0  0  0  0  0
  185.9740  177.4730  143.4470 C   0  0  1  0  0  3  0  0  0  0  0  0
  184.7670  179.2640  141.4560 C   0  0  0  0  0  2  0  0  0  0  0  0
  178.9310  179.5160  142.0170 N   0  0  0  0  0  1  0  0  0  0  0  0
  181.6330  179.4580  141.5060 S   0  0  0  0  0  0  0  0  0  0  0  0
  186.2630  179.0070  141.5900 C   0  0  0  0  0  2  0  0  0  0  0  0
  184.8410  178.4350  143.8430 C   0  0  0  0  0  2  0  0  0  0  0  0
  186.4800  177.6290  142.0610 N   0  0  1  0  0  0  0  0  0  0  0  0
  188.2190  177.3800  143.5930 N   0  0  0  0  0  0  0  0  0  0  0  0
  187.9060  177.2880  142.1830 C   0  0  2  0  0  3  0  0  0  0  0  0
  187.0860  177.5910  144.3840 N   0  0  0  0  0  2  0  0  0  0  0  0
  180.6060  178.7930  143.7090 C   0  0  0  0  0  3  0  0  0  0  0  0
  181.9450  178.6220  143.8730 N   0  0  0  0  0  0  0  0  0  0  0  0
  189.7740  177.1800  145.5220 C   0  0  0  0  0  0  0  0  0  0  0  0
  189.4800  176.9820  144.1650 C   0  0  0  0  0  0  0  0  0  0  0  0
  189.8150  177.7510  147.7800 N   0  0  0  0  0  0  0  0  0  0  0  0
  188.9470  177.8300  146.6020 C   0  0  0  0  0  2  0  0  0  0  0  0
  191.6990  175.9810  143.9410 C   0  0  0  0  0  3  0  0  0  0  0  0
  190.4710  176.3680  143.3710 C   0  0  0  0  0  3  0  0  0  0  0  0
  190.9910  176.7830  146.0270 C   0  0  0  0  0  0  0  0  0  0  0  0
  189.4750  178.2530  149.1000 C   0  0  0  0  0  1  0  0  0  0  0  0
  191.9450  176.1950  145.2640 N   0  0  0  0  0  0  0  0  0  0  0  0
  191.9980  176.9140  148.2090 O   0  0  0  0  0  0  0  0  0  0  0  0
  191.0380  177.1240  147.4210 C   0  0  0  0  0  0  0  0  0  0  0  0
  188.8620  178.1340  141.3300 C   0  0  0  0  0  2  0  0  0  0  0  0
  188.9950  177.5470  140.0100 N   0  0  0  0  0  2  0  0  0  0  0  0
  188.7970  178.3350  138.8710 C   0  0  0  0  0  0  0  0  0  0  0  0
  188.6330  178.9880  137.9290 N   0  0  0  0  0  0  0  0  0  0  0  0
  1  3  1  0  0  0  0
  1  9  1  0  0  0  0
  2 14  2  0  0  0  0
  3 15  2  0  0  0  0
  4  9  1  1  0  0  0
  4 13  1  0  0  0  0
  5  8  1  0  0  0  0
  5  1  1  0  0  0  0
  6  2  1  0  0  0  0
  7  2  1  0  0  0  0
  7  3  1  0  0  0  0
 10  8  1  1  0  0  0
 10 12  1  0  0  0  0
 10  4  1  0  0  0  0
 11 17  1  0  0  0  0
 11 13  1  0  0  0  0
 12 27  1  6  0  0  0
 12 11  1  0  0  0  0
 14 15  1  0  0  0  0
 16 22  1  0  0  0  0
 16 19  1  0  0  0  0
 17 16  2  0  0  0  0
 18 23  1  0  0  0  0
 19 18  1  0  0  0  0
 20 24  1  0  0  0  0
 21 20  2  0  0  0  0
 21 17  1  0  0  0  0
 22 26  1  0  0  0  0
 24 22  2  0  0  0  0
 26 18  1  0  0  0  0
 26 25  2  0  0  0  0
 28 27  1  0  0  0  0
 29 28  1  0  0  0  0
 30 29  3  0  0  0  0
M  END
>  <MODEL>
3

>  <REMARK>
 VINA RESULT:      -7.8      3.750      8.329
  Name = 
  4 active torsions:
  status: ('A' for Active; 'I' for Inactive)
    1  A    between atoms: C_6  and  N_8
    2  A    between atoms: N_8  and  C_24
    3  A    between atoms: C_11  and  N_18
    4  A    between atoms: C_20  and  C_24
                            x       y       z     vdW  Elec       q    Type
                         _______ _______ _______ _____ _____    ______ ____

>  <TORSDO>
F 4

$$$$
=
 OpenBabel11032419133D

 30 34  0  0  1  0  0  0  0  0999 V2000
  189.3190  176.9330  144.2380 N   0  0  0  0  0  0  0  0  0  0  0  0
  191.6050  176.4900  147.2900 C   0  0  0  0  0  0  0  0  0  0  0  0
  190.0260  176.7910  145.4770 C   0  0  0  0  0  0  0  0  0  0  0  0
  187.4670  178.1900  143.1900 C   0  0  1  0  0  3  0  0  0  0  0  0
  190.0130  176.7430  142.9650 C   0  0  0  0  0  2  0  0  0  0  0  0
  192.7140  176.2800  148.1540 N   0  0  0  0  0  1  0  0  0  0  0  0
  191.6800  176.4790  145.6130 S   0  0  0  0  0  0  0  0  0  0  0  0
  189.0640  177.0030  141.8020 C   0  0  0  0  0  2  0  0  0  0  0  0
  187.8750  177.1520  144.2490 C   0  0  0  0  0  2  0  0  0  0  0  0
  188.3710  178.2840  142.0170 N   0  0  1  0  0  0  0  0  0  0  0  0
  186.1280  178.3020  141.3830 N   0  0  0  0  0  0  0  0  0  0  0  0
  187.4580  178.6280  140.9150 C   0  0  2  0  0  3  0  0  0  0  0  0
  186.1050  177.9360  142.7320 N   0  0  0  0  0  2  0  0  0  0  0  0
  190.3080  176.7360  147.7110 C   0  0  0  0  0  3  0  0  0  0  0  0
  189.4290  176.9040  146.6860 N   0  0  0  0  0  0  0  0  0  0  0  0
  183.6780  178.7210  141.3090 C   0  0  0  0  0  0  0  0  0  0  0  0
  184.9200  178.6220  140.6650 C   0  0  0  0  0  0  0  0  0  0  0  0
  181.8770  178.7270  142.7850 N   0  0  0  0  0  0  0  0  0  0  0  0
  183.3240  178.5000  142.7570 C   0  0  0  0  0  2  0  0  0  0  0  0
  183.7630  179.1670  138.5820 C   0  0  0  0  0  3  0  0  0  0  0  0
  184.9490  178.8530  139.2740 C   0  0  0  0  0  3  0  0  0  0  0  0
  182.5510  179.0300  140.5830 C   0  0  0  0  0  0  0  0  0  0  0  0
  181.0410  178.6280  143.9690 C   0  0  0  0  0  1  0  0  0  0  0  0
  182.5760  179.2500  139.2460 N   0  0  0  0  0  0  0  0  0  0  0  0
  180.2290  179.2820  141.1650 O   0  0  0  0  0  0  0  0  0  0  0  0
  181.4250  179.0410  141.4750 C   0  0  0  0  0  0  0  0  0  0  0  0
  187.7670  177.9600  139.5680 C   0  0  0  0  0  2  0  0  0  0  0  0
  188.6040  178.8340  138.7660 N   0  0  0  0  0  2  0  0  0  0  0  0
  188.8670  178.5160  137.4300 C   0  0  0  0  0  0  0  0  0  0  0  0
  189.0840  178.2530  136.3230 N   0  0  0  0  0  0  0  0  0  0  0  0
  1  9  1  0  0  0  0
  1  3  1  0  0  0  0
  2 14  2  0  0  0  0
  2  6  1  0  0  0  0
  3  7  1  0  0  0  0
  3 15  2  0  0  0  0
  4  9  1  1  0  0  0
  5  1  1  0  0  0  0
  7  2  1  0  0  0  0
  8  5  1  0  0  0  0
 10  8  1  6  0  0  0
 10  4  1  0  0  0  0
 11 13  1  0  0  0  0
 12 27  1  6  0  0  0
 12 11  1  0  0  0  0
 12 10  1  0  0  0  0
 13  4  1  0  0  0  0
 15 14  1  0  0  0  0
 16 19  1  0  0  0  0
 17 16  1  0  0  0  0
 17 11  1  0  0  0  0
 18 23  1  0  0  0  0
 19 18  1  0  0  0  0
 20 24  2  0  0  0  0
 20 21  1  0  0  0  0
 21 17  2  0  0  0  0
 22 16  2  0  0  0  0
 22 26  1  0  0  0  0
 24 22  1  0  0  0  0
 25 26  2  0  0  0  0
 26 18  1  0  0  0  0
 28 27  1  0  0  0  0
 29 28  1  0  0  0  0
 30 29  3  0  0  0  0
M  END
>  <MODEL>
4

>  <REMARK>
 VINA RESULT:      -7.7      2.683      6.124
  Name = 
  4 active torsions:
  status: ('A' for Active; 'I' for Inactive)
    1  A    between atoms: C_6  and  N_8
    2  A    between atoms: N_8  and  C_24
    3  A    between atoms: C_11  and  N_18
    4  A    between atoms: C_20  and  C_24
                            x       y       z     vdW  Elec       q    Type
                         _______ _______ _______ _____ _____    ______ ____

>  <TORSDO>
F 4

$$$$
=
 OpenBabel11032419133D

 30 34  0  0  1  0  0  0  0  0999 V2000
  184.9430  178.5810  143.4050 N   0  0  0  0  0  0  0  0  0  0  0  0
  187.6430  177.5330  145.9250 C   0  0  0  0  0  0  0  0  0  0  0  0
  186.0550  178.1590  144.2050 C   0  0  0  0  0  0  0  0  0  0  0  0
  183.7910  178.1060  141.2700 C   0  0  1  0  0  3  0  0  0  0  0  0
  183.7240  179.0810  144.0410 C   0  0  0  0  0  2  0  0  0  0  0  0
  188.3750  177.2360  147.1070 N   0  0  0  0  0  1  0  0  0  0  0  0
  186.0680  178.1150  145.8930 S   0  0  0  0  0  0  0  0  0  0  0  0
  182.6750  179.4090  142.9850 C   0  0  0  0  0  2  0  0  0  0  0  0
  185.0710  178.6230  141.9500 C   0  0  0  0  0  2  0  0  0  0  0  0
  182.5450  178.2730  142.0580 N   0  0  1  0  0  0  0  0  0  0  0  0
  182.2410  178.8620  139.8230 N   0  0  0  0  0  0  0  0  0  0  0  0
  181.5220  178.4960  141.0250 C   0  0  2  0  0  3  0  0  0  0  0  0
  183.6260  178.7340  139.9640 N   0  0  0  0  0  2  0  0  0  0  0  0
  188.1250  177.3830  144.6350 C   0  0  0  0  0  3  0  0  0  0  0  0
  187.2270  177.7360  143.6760 N   0  0  0  0  0  0  0  0  0  0  0  0
  181.4090  180.2900  137.9660 C   0  0  0  0  0  0  0  0  0  0  0  0
  181.6220  179.0250  138.5320 C   0  0  0  0  0  0  0  0  0  0  0  0
  181.2300  182.5590  137.4730 N   0  0  0  0  0  0  0  0  0  0  0  0
  181.7070  181.6580  138.5250 C   0  0  0  0  0  2  0  0  0  0  0  0
  180.6050  178.0730  136.5240 C   0  0  0  0  0  3  0  0  0  0  0  0
  181.2070  177.9030  137.7850 C   0  0  0  0  0  3  0  0  0  0  0  0
  180.8150  180.3990  136.7300 C   0  0  0  0  0  0  0  0  0  0  0  0
  181.2860  184.0100  137.5310 C   0  0  0  0  0  1  0  0  0  0  0  0
  180.4130  179.3220  136.0110 N   0  0  0  0  0  0  0  0  0  0  0  0
  180.1980  182.2730  135.3520 O   0  0  0  0  0  0  0  0  0  0  0  0
  180.6950  181.7920  136.4040 C   0  0  0  0  0  0  0  0  0  0  0  0
  180.4410  179.5280  141.3780 C   0  0  0  0  0  2  0  0  0  0  0  0
  179.2740  178.8540  141.9180 N   0  0  0  0  0  2  0  0  0  0  0  0
  179.0870  178.7800  143.3020 C   0  0  0  0  0  0  0  0  0  0  0  0
  178.9310  178.7190  144.4480 N   0  0  0  0  0  0  0  0  0  0  0  0
  1  5  1  0  0  0  0
  1  3  1  0  0  0  0
  2  6  1  0  0  0  0
  3  7  1  0  0  0  0
  4  9  1  1  0  0  0
  4 10  1  0  0  0  0
  7  2  1  0  0  0  0
  8  5  1  0  0  0  0
  9  1  1  0  0  0  0
 10  8  1  1  0  0  0
 11 13  1  0  0  0  0
 11 12  1  0  0  0  0
 12 27  1  1  0  0  0
 12 10  1  0  0  0  0
 13  4  1  0  0  0  0
 14  2  2  0  0  0  0
 15  3  2  0  0  0  0
 15 14  1  0  0  0  0
 16 19  1  0  0  0  0
 16 17  1  0  0  0  0
 17 11  1  0  0  0  0
 18 23  1  0  0  0  0
 18 19  1  0  0  0  0
 20 21  1  0  0  0  0
 21 17  2  0  0  0  0
 22 16  2  0  0  0  0
 24 20  2  0  0  0  0
 24 22  1  0  0  0  0
 25 26  2  0  0  0  0
 26 22  1  0  0  0  0
 26 18  1  0  0  0  0
 27 28  1  0  0  0  0
 28 29  1  0  0  0  0
 29 30  3  0  0  0  0
M  END
>  <MODEL>
5

>  <REMARK>
 VINA RESULT:      -7.6      4.575      8.704
  Name = 
  4 active torsions:
  status: ('A' for Active; 'I' for Inactive)
    1  A    between atoms: C_6  and  N_8
    2  A    between atoms: N_8  and  C_24
    3  A    between atoms: C_11  and  N_18
    4  A    between atoms: C_20  and  C_24
                            x       y       z     vdW  Elec       q    Type
                         _______ _______ _______ _____ _____    ______ ____

>  <TORSDO>
F 4

$$$$
=
 OpenBabel11032419133D

 30 34  0  0  1  0  0  0  0  0999 V2000
  188.5100  177.2100  143.8240 N   0  0  0  0  0  0  0  0  0  0  0  0
  187.8900  177.8230  147.5630 C   0  0  0  0  0  0  0  0  0  0  0  0
  188.1200  177.5060  145.1720 C   0  0  0  0  0  0  0  0  0  0  0  0
  188.3400  178.0790  141.5160 C   0  0  1  0  0  3  0  0  0  0  0  0
  189.7720  176.5220  143.5540 C   0  0  0  0  0  2  0  0  0  0  0  0
  188.0010  177.8930  148.9780 N   0  0  0  0  0  1  0  0  0  0  0  0
  189.0560  177.1810  146.5400 S   0  0  0  0  0  0  0  0  0  0  0  0
  189.9830  176.3780  142.0520 C   0  0  0  0  0  2  0  0  0  0  0  0
  187.5900  177.4940  142.7250 C   0  0  0  0  0  2  0  0  0  0  0  0
  189.7640  177.6800  141.4020 N   0  0  1  0  0  0  0  0  0  0  0  0
  188.6700  177.5780  139.3460 N   0  0  0  0  0  0  0  0  0  0  0  0
  189.9850  177.6340  139.9480 C   0  0  2  0  0  3  0  0  0  0  0  0
  187.6420  177.7450  140.2790 N   0  0  0  0  0  2  0  0  0  0  0  0
  186.8050  178.2760  146.8300 C   0  0  0  0  0  3  0  0  0  0  0  0
  186.9430  178.0940  145.4890 N   0  0  0  0  0  0  0  0  0  0  0  0
  187.1390  177.5590  137.3880 C   0  0  0  0  0  0  0  0  0  0  0  0
  188.4290  177.6690  137.9290 C   0  0  0  0  0  0  0  0  0  0  0  0
  184.8660  177.2730  136.9690 N   0  0  0  0  0  0  0  0  0  0  0  0
  185.8230  177.3030  138.0770 C   0  0  0  0  0  2  0  0  0  0  0  0
  189.2460  177.9670  135.6450 C   0  0  0  0  0  3  0  0  0  0  0  0
  189.4930  177.8780  137.0280 C   0  0  0  0  0  3  0  0  0  0  0  0
  186.9550  177.6530  136.0270 C   0  0  0  0  0  0  0  0  0  0  0  0
  183.4380  177.0490  137.1080 C   0  0  0  0  0  1  0  0  0  0  0  0
  187.9770  177.8510  135.1590 N   0  0  0  0  0  0  0  0  0  0  0  0
  185.0170  177.5030  134.6080 O   0  0  0  0  0  0  0  0  0  0  0  0
  185.5570  177.4800  135.7450 C   0  0  0  0  0  0  0  0  0  0  0  0
  190.8880  176.4960  139.4530 C   0  0  0  0  0  2  0  0  0  0  0  0
  192.2550  176.9670  139.3340 N   0  0  0  0  0  2  0  0  0  0  0  0
  193.0100  176.6450  138.2010 C   0  0  0  0  0  0  0  0  0  0  0  0
  193.6340  176.3780  137.2630 N   0  0  0  0  0  0  0  0  0  0  0  0
  1  3  1  0  0  0  0
  2  6  1  0  0  0  0
  3 15  2  0  0  0  0
  3  7  1  0  0  0  0
  4  9  1  1  0  0  0
  5  1  1  0  0  0  0
  7  2  1  0  0  0  0
  8  5  1  0  0  0  0
  9  1  1  0  0  0  0
 10  4  1  0  0  0  0
 10  8  1  6  0  0  0
 11 12  1  0  0  0  0
 11 13  1  0  0  0  0
 12 27  1  1  0  0  0
 12 10  1  0  0  0  0
 13  4  1  0  0  0  0
 14  2  2  0  0  0  0
 15 14  1  0  0  0  0
 16 17  1  0  0  0  0
 16 19  1  0  0  0  0
 17 11  1  0  0  0  0
 18 23  1  0  0  0  0
 18 19  1  0  0  0  0
 20 21  1  0  0  0  0
 21 17  2  0  0  0  0
 22 16  2  0  0  0  0
 24 20  2  0  0  0  0
 24 22  1  0  0  0  0
 25 26  2  0  0  0  0
 26 22  1  0  0  0  0
 26 18  1  0  0  0  0
 28 27  1  0  0  0  0
 29 28  1  0  0  0  0
 30 29  3  0  0  0  0
M  END
>  <MODEL>
6

>  <REMARK>
 VINA RESULT:      -7.5      3.754      7.681
  Name = 
  4 active torsions:
  status: ('A' for Active; 'I' for Inactive)
    1  A    between atoms: C_6  and  N_8
    2  A    between atoms: N_8  and  C_24
    3  A    between atoms: C_11  and  N_18
    4  A    between atoms: C_20  and  C_24
                            x       y       z     vdW  Elec       q    Type
                         _______ _______ _______ _____ _____    ______ ____

>  <TORSDO>
F 4

$$$$
=
 OpenBabel11032419133D

 30 34  0  0  1  0  0  0  0  0999 V2000
  185.3020  178.6210  144.0430 N   0  0  0  0  0  0  0  0  0  0  0  0
  187.9940  177.5020  146.5400 C   0  0  0  0  0  0  0  0  0  0  0  0
  186.4160  178.1900  144.8350 C   0  0  0  0  0  0  0  0  0  0  0  0
  184.2300  178.2730  141.8430 C   0  0  1  0  0  3  0  0  0  0  0  0
  184.0420  178.9970  144.6840 C   0  0  0  0  0  2  0  0  0  0  0  0
  188.7140  177.1410  147.7120 N   0  0  0  0  0  1  0  0  0  0  0  0
  186.3920  177.9990  146.5130 S   0  0  0  0  0  0  0  0  0  0  0  0
  183.0020  179.3600  143.6310 C   0  0  0  0  0  2  0  0  0  0  0  0
  185.4620  178.7960  142.6020 C   0  0  0  0  0  2  0  0  0  0  0  0
  182.9580  178.3040  142.6060 N   0  0  1  0  0  0  0  0  0  0  0  0
  182.6750  179.0690  140.4230 N   0  0  0  0  0  0  0  0  0  0  0  0
  181.9490  178.5620  141.5670 C   0  0  2  0  0  3  0  0  0  0  0  0
  184.0610  179.0030  140.5910 N   0  0  0  0  0  2  0  0  0  0  0  0
  188.5150  177.4900  145.2560 C   0  0  0  0  0  3  0  0  0  0  0  0
  187.6230  177.8780  144.3060 N   0  0  0  0  0  0  0  0  0  0  0  0
  181.7840  178.2660  138.2450 C   0  0  0  0  0  0  0  0  0  0  0  0
  182.0790  179.3110  139.1330 C   0  0  0  0  0  0  0  0  0  0  0  0
  181.5280  176.2430  137.1190 N   0  0  0  0  0  0  0  0  0  0  0  0
  182.0290  176.7850  138.3850 C   0  0  0  0  0  2  0  0  0  0  0  0
  181.1810  180.8460  137.4570 C   0  0  0  0  0  3  0  0  0  0  0  0
  181.7650  180.6210  138.7180 C   0  0  0  0  0  3  0  0  0  0  0  0
  181.2140  178.5430  137.0240 C   0  0  0  0  0  0  0  0  0  0  0  0
  181.5420  174.8380  136.7510 C   0  0  0  0  0  1  0  0  0  0  0  0
  180.9140  179.8020  136.6220 N   0  0  0  0  0  0  0  0  0  0  0  0
  180.5550  177.1710  135.1590 O   0  0  0  0  0  0  0  0  0  0  0  0
  181.0450  177.3070  136.3110 C   0  0  0  0  0  0  0  0  0  0  0  0
  180.8040  179.5000  141.9770 C   0  0  0  0  0  2  0  0  0  0  0  0
  179.5320  178.9270  141.5800 N   0  0  0  0  0  2  0  0  0  0  0  0
  179.4020  177.5410  141.4420 C   0  0  0  0  0  0  0  0  0  0  0  0
  179.2940  176.3940  141.3270 N   0  0  0  0  0  0  0  0  0  0  0  0
  1  5  1  0  0  0  0
  1  3  1  0  0  0  0
  2  6  1  0  0  0  0
  3  7  1  0  0  0  0
  4  9  1  1  0  0  0
  4 10  1  0  0  0  0
  7  2  1  0  0  0  0
  8  5  1  0  0  0  0
  9  1  1  0  0  0  0
 10  8  1  1  0  0  0
 11 13  1  0  0  0  0
 11 12  1  0  0  0  0
 12 27  1  1  0  0  0
 12 10  1  0  0  0  0
 13  4  1  0  0  0  0
 14  2  2  0  0  0  0
 15  3  2  0  0  0  0
 15 14  1  0  0  0  0
 16 19  1  0  0  0  0
 16 17  1  0  0  0  0
 17 11  1  0  0  0  0
 18 19  1  0  0  0  0
 20 21  1  0  0  0  0
 21 17  2  0  0  0  0
 22 16  2  0  0  0  0
 23 18  1  0  0  0  0
 24 22  1  0  0  0  0
 24 20  2  0  0  0  0
 25 26  2  0  0  0  0
 26 22  1  0  0  0  0
 26 18  1  0  0  0  0
 28 27  1  0  0  0  0
 29 28  1  0  0  0  0
 30 29  3  0  0  0  0
M  END
>  <MODEL>
7

>  <REMARK>
 VINA RESULT:      -7.4      4.651      8.478
  Name = 
  4 active torsions:
  status: ('A' for Active; 'I' for Inactive)
    1  A    between atoms: C_6  and  N_8
    2  A    between atoms: N_8  and  C_24
    3  A    between atoms: C_11  and  N_18
    4  A    between atoms: C_20  and  C_24
                            x       y       z     vdW  Elec       q    Type
                         _______ _______ _______ _____ _____    ______ ____

>  <TORSDO>
F 4

$$$$
=
 OpenBabel11032419133D

 30 34  0  0  1  0  0  0  0  0999 V2000
  183.4090  178.8490  141.8270 N   0  0  0  0  0  0  0  0  0  0  0  0
  180.0160  178.7620  140.0330 C   0  0  0  0  0  0  0  0  0  0  0  0
  182.0690  178.7960  141.3190 C   0  0  0  0  0  0  0  0  0  0  0  0
  184.8670  177.8770  143.5700 C   0  0  1  0  0  3  0  0  0  0  0  0
  184.5300  179.1140  140.9270 C   0  0  0  0  0  2  0  0  0  0  0  0
  178.9750  178.7820  139.0650 N   0  0  0  0  0  1  0  0  0  0  0  0
  181.6490  178.9470  139.6900 S   0  0  0  0  0  0  0  0  0  0  0  0
  185.8460  179.0630  141.6940 C   0  0  0  0  0  2  0  0  0  0  0  0
  183.6420  178.7560  143.2660 C   0  0  0  0  0  2  0  0  0  0  0  0
  185.8930  177.8310  142.4990 N   0  0  1  0  0  0  0  0  0  0  0  0
  186.8550  178.0760  144.6080 N   0  0  0  0  0  0  0  0  0  0  0  0
  187.1520  177.6880  143.2450 C   0  0  2  0  0  3  0  0  0  0  0  0
  185.4910  178.2950  144.8200 N   0  0  0  0  0  2  0  0  0  0  0  0
  179.8280  178.5850  141.3940 C   0  0  0  0  0  3  0  0  0  0  0  0
  180.9860  178.6060  142.1080 N   0  0  0  0  0  0  0  0  0  0  0  0
  189.0460  177.3570  145.5380 C   0  0  0  0  0  0  0  0  0  0  0  0
  187.7810  177.9400  145.7040 C   0  0  0  0  0  0  0  0  0  0  0  0
  190.9800  176.2970  144.7910 N   0  0  0  0  0  0  0  0  0  0  0  0
  189.6740  176.7520  144.3080 C   0  0  0  0  0  2  0  0  0  0  0  0
  188.3560  178.2610  148.0580 C   0  0  0  0  0  3  0  0  0  0  0  0
  187.4430  178.3970  146.9940 C   0  0  0  0  0  3  0  0  0  0  0  0
  189.8980  177.2480  146.6120 C   0  0  0  0  0  0  0  0  0  0  0  0
  191.9810  175.6280  143.9780 C   0  0  0  0  0  1  0  0  0  0  0  0
  189.5740  177.6850  147.8540 N   0  0  0  0  0  0  0  0  0  0  0  0
  192.1050  176.3260  146.8840 O   0  0  0  0  0  0  0  0  0  0  0  0
  191.1010  176.5970  146.1740 C   0  0  0  0  0  0  0  0  0  0  0  0
  188.3480  178.4670  142.6790 C   0  0  0  0  0  2  0  0  0  0  0  0
  188.9110  177.7530  141.5480 N   0  0  0  0  0  2  0  0  0  0  0  0
  188.8170  178.2940  140.2620 C   0  0  0  0  0  0  0  0  0  0  0  0
  188.7390  178.7430  139.1980 N   0  0  0  0  0  0  0  0  0  0  0  0
  1  9  1  0  0  0  0
  2 14  2  0  0  0  0
  3  1  1  0  0  0  0
  3 15  2  0  0  0  0
  4  9  1  6  0  0  0
  4 13  1  0  0  0  0
  5  8  1  0  0  0  0
  5  1  1  0  0  0  0
  6  2  1  0  0  0  0
  7  2  1  0  0  0  0
  7  3  1  0  0  0  0
 10  8  1  1  0  0  0
 10 12  1  0  0  0  0
 10  4  1  0  0  0  0
 11 13  1  0  0  0  0
 11 17  1  0  0  0  0
 12 27  1  6  0  0  0
 12 11  1  0  0  0  0
 14 15  1  0  0  0  0
 16 17  2  0  0  0  0
 16 22  1  0  0  0  0
 17 21  1  0  0  0  0
 18 26  1  0  0  0  0
 19 18  1  0  0  0  0
 19 16  1  0  0  0  0
 21 20  2  0  0  0  0
 22 24  2  0  0  0  0
 23 18  1  0  0  0  0
 24 20  1  0  0  0  0
 26 22  1  0  0  0  0
 26 25  2  0  0  0  0
 28 27  1  0  0  0  0
 29 28  1  0  0  0  0
 30 29  3  0  0  0  0
M  END
>  <MODEL>
8

>  <REMARK>
 VINA RESULT:      -7.1      3.766      7.854
  Name = 
  4 active torsions:
  status: ('A' for Active; 'I' for Inactive)
    1  A    between atoms: C_6  and  N_8
    2  A    between atoms: N_8  and  C_24
    3  A    between atoms: C_11  and  N_18
    4  A    between atoms: C_20  and  C_24
                            x       y       z     vdW  Elec       q    Type
                         _______ _______ _______ _____ _____    ______ ____

>  <TORSDO>
F 4

$$$$
=
 OpenBabel11032419133D

 30 34  0  0  1  0  0  0  0  0999 V2000
  188.2280  177.4640  142.8450 N   0  0  0  0  0  0  0  0  0  0  0  0
  190.5580  177.2470  145.8890 C   0  0  0  0  0  0  0  0  0  0  0  0
  188.9520  177.4050  144.0820 C   0  0  0  0  0  0  0  0  0  0  0  0
  186.3170  178.5980  141.7640 C   0  0  1  0  0  3  0  0  0  0  0  0
  188.9190  177.2470  141.5740 C   0  0  0  0  0  2  0  0  0  0  0  0
  191.6820  177.1200  146.7500 N   0  0  0  0  0  1  0  0  0  0  0  0
  190.6190  177.1670  144.2140 S   0  0  0  0  0  0  0  0  0  0  0  0
  187.9490  177.4190  140.4120 C   0  0  0  0  0  2  0  0  0  0  0  0
  186.7760  177.6250  142.8630 C   0  0  0  0  0  2  0  0  0  0  0  0
  187.2060  178.6780  140.5790 N   0  0  1  0  0  0  0  0  0  0  0  0
  184.9580  178.5780  139.9690 N   0  0  0  0  0  0  0  0  0  0  0  0
  186.2700  178.9370  139.4730 C   0  0  2  0  0  3  0  0  0  0  0  0
  184.9630  178.2700  141.3320 N   0  0  0  0  0  2  0  0  0  0  0  0
  189.2560  177.4590  146.3130 C   0  0  0  0  0  3  0  0  0  0  0  0
  188.3620  177.5460  145.2920 N   0  0  0  0  0  0  0  0  0  0  0  0
  182.9890  177.7720  138.6830 C   0  0  0  0  0  0  0  0  0  0  0  0
  183.7330  178.8170  139.2500 C   0  0  0  0  0  0  0  0  0  0  0  0
  182.1470  175.7500  137.8920 N   0  0  0  0  0  0  0  0  0  0  0  0
  183.2770  176.2920  138.6500 C   0  0  0  0  0  2  0  0  0  0  0  0
  182.0320  180.3490  138.3920 C   0  0  0  0  0  3  0  0  0  0  0  0
  183.2310  180.1260  139.0950 C   0  0  0  0  0  3  0  0  0  0  0  0
  181.8240  178.0470  138.0050 C   0  0  0  0  0  0  0  0  0  0  0  0
  181.9560  174.3450  137.5730 C   0  0  0  0  0  1  0  0  0  0  0  0
  181.3420  179.3050  137.8530 N   0  0  0  0  0  0  0  0  0  0  0  0
  180.2270  176.6730  136.8400 O   0  0  0  0  0  0  0  0  0  0  0  0
  181.2850  176.8120  137.5090 C   0  0  0  0  0  0  0  0  0  0  0  0
  186.5940  178.2240  138.1530 C   0  0  0  0  0  2  0  0  0  0  0  0
  187.5480  179.0090  137.3910 N   0  0  0  0  0  2  0  0  0  0  0  0
  188.6680  178.3910  136.8250 C   0  0  0  0  0  0  0  0  0  0  0  0
  189.5950  177.8810  136.3550 N   0  0  0  0  0  0  0  0  0  0  0  0
  1  9  1  0  0  0  0
  1  3  1  0  0  0  0
  2 14  2  0  0  0  0
  2  6  1  0  0  0  0
  3  7  1  0  0  0  0
  3 15  2  0  0  0  0
  4  9  1  1  0  0  0
  5  1  1  0  0  0  0
  7  2  1  0  0  0  0
  8  5  1  0  0  0  0
 10  8  1  6  0  0  0
 10  4  1  0  0  0  0
 11 13  1  0  0  0  0
 12 27  1  6  0  0  0
 12 11  1  0  0  0  0
 12 10  1  0  0  0  0
 13  4  1  0  0  0  0
 15 14  1  0  0  0  0
 16 17  1  0  0  0  0
 17 11  1  0  0  0  0
 18 19  1  0  0  0  0
 19 16  1  0  0  0  0
 20 21  1  0  0  0  0
 21 17  2  0  0  0  0
 22 16  2  0  0  0  0
 23 18  1  0  0  0  0
 24 22  1  0  0  0  0
 24 20  2  0  0  0  0
 25 26  2  0  0  0  0
 26 18  1  0  0  0  0
 26 22  1  0  0  0  0
 28 27  1  0  0  0  0
 29 28  1  0  0  0  0
 30 29  3  0  0  0  0
M  END
>  <MODEL>
9

>  <REMARK>
 VINA RESULT:      -7.0      3.408      6.887
  Name = 
  4 active torsions:
  status: ('A' for Active; 'I' for Inactive)
    1  A    between atoms: C_6  and  N_8
    2  A    between atoms: N_8  and  C_24
    3  A    between atoms: C_11  and  N_18
    4  A    between atoms: C_20  and  C_24
                            x       y       z     vdW  Elec       q    Type
                         _______ _______ _______ _____ _____    ______ ____

>  <TORSDO>
F 4

$$$$
