=
 OpenBabel11042410053D

 29 30  0  0  1  0  0  0  0  0999 V2000
  182.6180  178.8720  143.6710 C   0  0  0  0  0  1  0  0  0  0  0  0
  184.1130  178.6110  143.7550 C   0  0  2  0  0  3  0  0  0  0  0  0
  187.9440  178.1140  149.0370 Cl  0  0  0  0  0  0  0  0  0  0  0  0
  189.8380  177.2810  146.7530 C   0  0  0  0  0  3  0  0  0  0  0  0
  186.9160  177.9500  144.6310 N   0  0  0  0  0  0  0  0  0  0  0  0
  184.6520  178.7010  145.1140 N   0  0  0  0  0  2  0  0  0  0  0  0
  188.5370  177.6390  146.3750 C   0  0  0  0  0  0  0  0  0  0  0  0
  190.7660  176.8880  145.7860 C   0  0  0  0  0  0  0  0  0  0  0  0
  190.4010  176.8470  144.4360 C   0  0  0  0  0  3  0  0  0  0  0  0
  187.5790  178.0440  147.3190 C   0  0  0  0  0  0  0  0  0  0  0  0
  189.1060  177.2030  144.0490 C   0  0  0  0  0  3  0  0  0  0  0  0
  186.2970  178.3970  146.8920 C   0  0  0  0  0  3  0  0  0  0  0  0
  188.1730  177.5980  145.0100 C   0  0  0  0  0  0  0  0  0  0  0  0
  185.9770  178.3460  145.5340 C   0  0  0  0  0  0  0  0  0  0  0  0
  192.0530  176.5360  146.1650 O   0  0  0  0  0  1  0  0  0  0  0  0
  184.9430  179.3630  142.7020 C   0  0  0  0  0  2  0  0  0  0  0  0
  185.6070  178.5290  141.5970 C   0  0  1  0  0  3  0  0  0  0  0  0
  184.6920  178.2630  140.4080 C   0  0  0  0  0  2  0  0  0  0  0  0
  184.3220  180.2550  139.1170 O   0  0  0  0  0  1  0  0  0  0  0  0
  183.7800  179.4560  140.1260 C   0  0  1  0  0  3  0  0  0  0  0  0
  182.0940  179.1680  138.2530 C   0  0  0  0  0  1  0  0  0  0  0  0
  182.0900  177.5990  140.1880 C   0  0  0  0  0  1  0  0  0  0  0  0
  182.3650  179.0230  139.7420 C   0  0  0  0  0  3  0  0  0  0  0  0
  186.7980  179.1210  141.1720 O   0  0  0  0  0  0  0  0  0  0  0  0
  187.2700  178.2980  140.1480 C   0  0  0  0  0  2  0  0  0  0  0  0
  188.7170  177.9120  140.4150 C   0  0  0  0  0  2  0  0  0  0  0  0
  189.5770  178.1160  139.1760 C   0  0  0  0  0  2  0  0  0  0  0  0
  188.9710  179.6820  137.4920 O   0  0  0  0  0  1  0  0  0  0  0  0
  188.7050  178.4000  137.9680 C   0  0  0  0  0  2  0  0  0  0  0  0
  2  1  1  1  0  0  0
  2  6  1  0  0  0  0
  5 13  1  0  0  0  0
  5 14  2  0  0  0  0
  6 14  1  0  0  0  0
  7  4  1  0  0  0  0
  7 10  1  0  0  0  0
  8 15  1  0  0  0  0
  8  4  2  0  0  0  0
  9  8  1  0  0  0  0
 10  3  1  0  0  0  0
 11  9  2  0  0  0  0
 11 13  1  0  0  0  0
 12 10  2  0  0  0  0
 13  7  2  0  0  0  0
 14 12  1  0  0  0  0
 16  2  1  0  0  0  0
 17 18  1  6  0  0  0
 17 16  1  0  0  0  0
 20 19  1  6  0  0  0
 20 18  1  0  0  0  0
 21 23  1  0  0  0  0
 23 20  1  0  0  0  0
 23 22  1  0  0  0  0
 24 17  1  0  0  0  0
 25 26  1  0  0  0  0
 25 24  1  0  0  0  0
 27 26  1  0  0  0  0
 28 29  1  0  0  0  0
 29 27  1  0  0  0  0
M  END
>  <MODEL>
1

>  <REMARK>
 VINA RESULT:      -7.7      0.000      0.000
  Name = 
  11 active torsions:
  status: ('A' for Active; 'I' for Inactive)
    1  A    between atoms: C_1  and  C_5
    2  A    between atoms: C_1  and  O_23
    3  A    between atoms: C_5  and  C_17
    4  A    between atoms: C_6  and  C_20
    5  A    between atoms: C_6  and  C_25
    6  A    between atoms: N_9  and  C_19
    7  A    between atoms: C_17  and  C_29
    8  A    between atoms: C_19  and  C_24
    9  A    between atoms: C_20  and  C_21
   10  A    between atoms: C_21  and  O_23
   11  A    between atoms: C_21  and  C_24
                            x       y       z     vdW  Elec       q    Type
                         _______ _______ _______ _____ _____    ______ ____

>  <TORSDO>
F 11

$$$$
=
 OpenBabel11042410053D

 29 30  0  0  1  0  0  0  0  0999 V2000
  186.0940  179.1100  147.3640 C   0  0  0  0  0  1  0  0  0  0  0  0
  185.7630  178.7740  145.9190 C   0  0  2  0  0  3  0  0  0  0  0  0
  179.9680  179.0500  142.8920 Cl  0  0  0  0  0  0  0  0  0  0  0  0
  181.9490  178.8930  140.5360 C   0  0  0  0  0  3  0  0  0  0  0  0
  184.4740  178.7390  143.1980 N   0  0  0  0  0  0  0  0  0  0  0  0
  184.3270  178.7690  145.6280 N   0  0  0  0  0  2  0  0  0  0  0  0
  182.5130  178.8660  141.8180 C   0  0  0  0  0  0  0  0  0  0  0  0
  182.7700  178.8280  139.4070 C   0  0  0  0  0  0  0  0  0  0  0  0
  184.1580  178.7380  139.5520 C   0  0  0  0  0  3  0  0  0  0  0  0
  181.7190  178.9240  142.9750 C   0  0  0  0  0  0  0  0  0  0  0  0
  184.7300  178.7090  140.8270 C   0  0  0  0  0  3  0  0  0  0  0  0
  182.3280  178.8880  144.2320 C   0  0  0  0  0  3  0  0  0  0  0  0
  183.9170  178.7730  141.9600 C   0  0  0  0  0  0  0  0  0  0  0  0
  183.7180  178.7940  144.3300 C   0  0  0  0  0  0  0  0  0  0  0  0
  182.2070  178.8540  138.1400 O   0  0  0  0  0  1  0  0  0  0  0  0
  186.5160  177.5510  145.3690 C   0  0  0  0  0  2  0  0  0  0  0  0
  187.8440  177.8080  144.6410 C   0  0  1  0  0  3  0  0  0  0  0  0
  188.9520  176.8440  145.0470 C   0  0  0  0  0  2  0  0  0  0  0  0
  189.1830  176.7830  147.4370 O   0  0  0  0  0  1  0  0  0  0  0  0
  189.7100  177.3470  146.2740 C   0  0  1  0  0  3  0  0  0  0  0  0
  191.6780  176.0880  147.2640 C   0  0  0  0  0  1  0  0  0  0  0  0
  191.5830  176.5290  144.8130 C   0  0  0  0  0  1  0  0  0  0  0  0
  191.2080  177.0530  146.1870 C   0  0  0  0  0  3  0  0  0  0  0  0
  187.6650  177.7900  143.2570 O   0  0  0  0  0  0  0  0  0  0  0  0
  188.4560  176.7340  142.7990 C   0  0  0  0  0  2  0  0  0  0  0  0
  189.0740  177.0900  141.4560 C   0  0  0  0  0  2  0  0  0  0  0  0
  188.4590  178.3620  140.8900 C   0  0  0  0  0  2  0  0  0  0  0  0
  188.9540  179.1140  138.6900 O   0  0  0  0  0  1  0  0  0  0  0  0
  188.1830  178.2030  139.4080 C   0  0  0  0  0  2  0  0  0  0  0  0
  2  1  1  1  0  0  0
  3 10  1  0  0  0  0
  4  7  1  0  0  0  0
  5 14  2  0  0  0  0
  6  2  1  0  0  0  0
  7 13  2  0  0  0  0
  7 10  1  0  0  0  0
  8  9  1  0  0  0  0
  8  4  2  0  0  0  0
  9 11  2  0  0  0  0
 10 12  2  0  0  0  0
 11 13  1  0  0  0  0
 12 14  1  0  0  0  0
 13  5  1  0  0  0  0
 14  6  1  0  0  0  0
 15  8  1  0  0  0  0
 16  2  1  0  0  0  0
 17 18  1  6  0  0  0
 17 16  1  0  0  0  0
 18 20  1  0  0  0  0
 20 19  1  1  0  0  0
 22 23  1  0  0  0  0
 23 20  1  0  0  0  0
 23 21  1  0  0  0  0
 24 17  1  0  0  0  0
 25 24  1  0  0  0  0
 26 25  1  0  0  0  0
 27 26  1  0  0  0  0
 28 29  1  0  0  0  0
 29 27  1  0  0  0  0
M  END
>  <MODEL>
2

>  <REMARK>
 VINA RESULT:      -7.6      2.368      7.170
  Name = 
  11 active torsions:
  status: ('A' for Active; 'I' for Inactive)
    1  A    between atoms: C_1  and  C_5
    2  A    between atoms: C_1  and  O_23
    3  A    between atoms: C_5  and  C_17
    4  A    between atoms: C_6  and  C_20
    5  A    between atoms: C_6  and  C_25
    6  A    between atoms: N_9  and  C_19
    7  A    between atoms: C_17  and  C_29
    8  A    between atoms: C_19  and  C_24
    9  A    between atoms: C_20  and  C_21
   10  A    between atoms: C_21  and  O_23
   11  A    between atoms: C_21  and  C_24
                            x       y       z     vdW  Elec       q    Type
                         _______ _______ _______ _____ _____    ______ ____

>  <TORSDO>
F 11

$$$$
=
 OpenBabel11042410053D

 29 30  0  0  1  0  0  0  0  0999 V2000
  186.0430  179.7760  147.5080 C   0  0  0  0  0  1  0  0  0  0  0  0
  185.7980  178.8620  146.3170 C   0  0  2  0  0  3  0  0  0  0  0  0
  180.2780  178.9200  142.8010 Cl  0  0  0  0  0  0  0  0  0  0  0  0
  182.4610  178.8850  140.6250 C   0  0  0  0  0  3  0  0  0  0  0  0
  184.7510  178.8080  143.4950 N   0  0  0  0  0  0  0  0  0  0  0  0
  184.3940  178.7970  145.9020 N   0  0  0  0  0  2  0  0  0  0  0  0
  182.9130  178.8660  141.9510 C   0  0  0  0  0  0  0  0  0  0  0  0
  183.3780  178.8730  139.5710 C   0  0  0  0  0  0  0  0  0  0  0  0
  184.7510  178.8440  139.8350 C   0  0  0  0  0  3  0  0  0  0  0  0
  182.0200  178.8720  143.0360 C   0  0  0  0  0  0  0  0  0  0  0  0
  185.2120  178.8230  141.1540 C   0  0  0  0  0  3  0  0  0  0  0  0
  182.5200  178.8450  144.3400 C   0  0  0  0  0  3  0  0  0  0  0  0
  184.3020  178.8340  142.2130 C   0  0  0  0  0  0  0  0  0  0  0  0
  183.8990  178.8130  144.5570 C   0  0  0  0  0  0  0  0  0  0  0  0
  182.9260  178.8910  138.2610 O   0  0  0  0  0  1  0  0  0  0  0  0
  186.4820  177.4900  146.4250 C   0  0  0  0  0  2  0  0  0  0  0  0
  187.8660  177.3370  145.7770 C   0  0  1  0  0  3  0  0  0  0  0  0
  187.8280  177.3860  144.2540 C   0  0  0  0  0  2  0  0  0  0  0  0
  188.6480  175.5240  142.9750 O   0  0  0  0  0  1  0  0  0  0  0  0
  189.0400  176.6870  143.6420 C   0  0  1  0  0  3  0  0  0  0  0  0
  188.8920  178.4110  141.7860 C   0  0  0  0  0  1  0  0  0  0  0  0
  190.7480  178.5190  143.4450 C   0  0  0  0  0  1  0  0  0  0  0  0
  189.8110  177.5980  142.6860 C   0  0  0  0  0  3  0  0  0  0  0  0
  188.7580  178.2890  146.2730 O   0  0  0  0  0  0  0  0  0  0  0  0
  189.2270  177.7580  147.4760 C   0  0  0  0  0  2  0  0  0  0  0  0
  189.9890  176.4680  147.2140 C   0  0  0  0  0  2  0  0  0  0  0  0
  191.4680  176.7430  146.9820 C   0  0  0  0  0  2  0  0  0  0  0  0
  193.1380  176.2070  148.5870 O   0  0  0  0  0  1  0  0  0  0  0  0
  192.3130  175.6520  147.6110 C   0  0  0  0  0  2  0  0  0  0  0  0
  2 16  1  0  0  0  0
  2  1  1  1  0  0  0
  3 10  1  0  0  0  0
  4  7  1  0  0  0  0
  5 14  2  0  0  0  0
  6  2  1  0  0  0  0
  7 13  2  0  0  0  0
  7 10  1  0  0  0  0
  8  9  1  0  0  0  0
  8  4  2  0  0  0  0
  9 11  2  0  0  0  0
 10 12  2  0  0  0  0
 11 13  1  0  0  0  0
 12 14  1  0  0  0  0
 13  5  1  0  0  0  0
 14  6  1  0  0  0  0
 15  8  1  0  0  0  0
 17 18  1  6  0  0  0
 17 24  1  0  0  0  0
 17 16  1  0  0  0  0
 20 19  1  6  0  0  0
 20 18  1  0  0  0  0
 21 23  1  0  0  0  0
 23 22  1  0  0  0  0
 23 20  1  0  0  0  0
 24 25  1  0  0  0  0
 26 25  1  0  0  0  0
 27 26  1  0  0  0  0
 27 29  1  0  0  0  0
 29 28  1  0  0  0  0
M  END
>  <MODEL>
3

>  <REMARK>
 VINA RESULT:      -7.6      2.791      7.376
  Name = 
  11 active torsions:
  status: ('A' for Active; 'I' for Inactive)
    1  A    between atoms: C_1  and  C_5
    2  A    between atoms: C_1  and  O_23
    3  A    between atoms: C_5  and  C_17
    4  A    between atoms: C_6  and  C_20
    5  A    between atoms: C_6  and  C_25
    6  A    between atoms: N_9  and  C_19
    7  A    between atoms: C_17  and  C_29
    8  A    between atoms: C_19  and  C_24
    9  A    between atoms: C_20  and  C_21
   10  A    between atoms: C_21  and  O_23
   11  A    between atoms: C_21  and  C_24
                            x       y       z     vdW  Elec       q    Type
                         _______ _______ _______ _____ _____    ______ ____

>  <TORSDO>
F 11

$$$$
=
 OpenBabel11042410053D

 29 30  0  0  1  0  0  0  0  0999 V2000
  191.4510  177.1210  139.8380 C   0  0  0  0  0  1  0  0  0  0  0  0
  190.7740  177.5150  141.1420 C   0  0  2  0  0  3  0  0  0  0  0  0
  192.2600  175.9170  147.3110 Cl  0  0  0  0  0  0  0  0  0  0  0  0
  189.4030  177.0420  147.5780 C   0  0  0  0  0  3  0  0  0  0  0  0
  189.6620  177.4570  143.9380 N   0  0  0  0  0  0  0  0  0  0  0  0
  191.4260  176.9690  142.3340 N   0  0  0  0  0  2  0  0  0  0  0  0
  189.9350  177.0130  146.2820 C   0  0  0  0  0  0  0  0  0  0  0  0
  188.1150  177.5360  147.7960 C   0  0  0  0  0  0  0  0  0  0  0  0
  187.3510  178.0070  146.7230 C   0  0  0  0  0  3  0  0  0  0  0  0
  191.2240  176.5180  146.0240 C   0  0  0  0  0  0  0  0  0  0  0  0
  187.8720  177.9810  145.4270 C   0  0  0  0  0  3  0  0  0  0  0  0
  191.7070  176.5040  144.7140 C   0  0  0  0  0  3  0  0  0  0  0  0
  189.1590  177.4870  145.2000 C   0  0  0  0  0  0  0  0  0  0  0  0
  190.9090  176.9800  143.6720 C   0  0  0  0  0  0  0  0  0  0  0  0
  187.5920  177.5620  149.0810 O   0  0  0  0  0  1  0  0  0  0  0  0
  189.2450  177.3490  141.1320 C   0  0  0  0  0  2  0  0  0  0  0  0
  188.4240  178.4050  140.3790 C   0  0  1  0  0  3  0  0  0  0  0  0
  187.5410  177.8170  139.2850 C   0  0  0  0  0  2  0  0  0  0  0  0
  189.0310  179.2020  138.0060 O   0  0  0  0  0  1  0  0  0  0  0  0
  187.9370  178.3400  137.9050 C   0  0  1  0  0  3  0  0  0  0  0  0
  189.6740  177.2880  136.3850 C   0  0  0  0  0  1  0  0  0  0  0  0
  188.0160  175.8520  137.5660 C   0  0  0  0  0  1  0  0  0  0  0  0
  188.2560  177.2080  136.9290 C   0  0  0  0  0  3  0  0  0  0  0  0
  187.6590  179.1670  141.2640 O   0  0  0  0  0  0  0  0  0  0  0  0
  186.7700  178.2640  141.8510 C   0  0  0  0  0  2  0  0  0  0  0  0
  185.4460  178.9530  142.1420 C   0  0  0  0  0  2  0  0  0  0  0  0
  184.7840  178.3670  143.3810 C   0  0  0  0  0  2  0  0  0  0  0  0
  183.9490  179.0890  145.4870 O   0  0  0  0  0  1  0  0  0  0  0  0
  184.0390  179.4460  144.1430 C   0  0  0  0  0  2  0  0  0  0  0  0
  2  1  1  6  0  0  0
  2  6  1  0  0  0  0
  4  8  1  0  0  0  0
  5 13  1  0  0  0  0
  6 14  1  0  0  0  0
  7  4  2  0  0  0  0
  8 15  1  0  0  0  0
  9  8  2  0  0  0  0
 10  7  1  0  0  0  0
 10  3  1  0  0  0  0
 11  9  1  0  0  0  0
 12 10  2  0  0  0  0
 13 11  2  0  0  0  0
 13  7  1  0  0  0  0
 14  5  2  0  0  0  0
 14 12  1  0  0  0  0
 16  2  1  0  0  0  0
 17 18  1  6  0  0  0
 17 16  1  0  0  0  0
 17 24  1  0  0  0  0
 20 19  1  1  0  0  0
 20 18  1  0  0  0  0
 21 23  1  0  0  0  0
 23 22  1  0  0  0  0
 23 20  1  0  0  0  0
 24 25  1  0  0  0  0
 25 26  1  0  0  0  0
 26 27  1  0  0  0  0
 27 29  1  0  0  0  0
 29 28  1  0  0  0  0
M  END
>  <MODEL>
4

>  <REMARK>
 VINA RESULT:      -7.5      2.622      5.403
  Name = 
  11 active torsions:
  status: ('A' for Active; 'I' for Inactive)
    1  A    between atoms: C_1  and  C_5
    2  A    between atoms: C_1  and  O_23
    3  A    between atoms: C_5  and  C_17
    4  A    between atoms: C_6  and  C_20
    5  A    between atoms: C_6  and  C_25
    6  A    between atoms: N_9  and  C_19
    7  A    between atoms: C_17  and  C_29
    8  A    between atoms: C_19  and  C_24
    9  A    between atoms: C_20  and  C_21
   10  A    between atoms: C_21  and  O_23
   11  A    between atoms: C_21  and  C_24
                            x       y       z     vdW  Elec       q    Type
                         _______ _______ _______ _____ _____    ______ ____

>  <TORSDO>
F 11

$$$$
=
 OpenBabel11042410053D

 29 30  0  0  1  0  0  0  0  0999 V2000
  182.8740  178.7140  143.6440 C   0  0  0  0  0  1  0  0  0  0  0  0
  184.3860  178.6040  143.7600 C   0  0  2  0  0  3  0  0  0  0  0  0
  188.0290  178.0410  149.1670 Cl  0  0  0  0  0  0  0  0  0  0  0  0
  189.9860  177.1830  146.9460 C   0  0  0  0  0  3  0  0  0  0  0  0
  187.1480  177.8990  144.7280 N   0  0  0  0  0  0  0  0  0  0  0  0
  184.8800  178.6830  145.1370 N   0  0  0  0  0  2  0  0  0  0  0  0
  188.7040  177.5610  146.5250 C   0  0  0  0  0  0  0  0  0  0  0  0
  190.9400  176.7780  146.0100 C   0  0  0  0  0  0  0  0  0  0  0  0
  190.6200  176.7450  144.6490 C   0  0  0  0  0  3  0  0  0  0  0  0
  187.7210  177.9790  147.4370 C   0  0  0  0  0  0  0  0  0  0  0  0
  189.3450  177.1210  144.2190 C   0  0  0  0  0  3  0  0  0  0  0  0
  186.4600  178.3520  146.9680 C   0  0  0  0  0  3  0  0  0  0  0  0
  188.3860  177.5280  145.1490 C   0  0  0  0  0  0  0  0  0  0  0  0
  186.1840  178.3080  145.6000 C   0  0  0  0  0  0  0  0  0  0  0  0
  192.2080  176.4050  146.4310 O   0  0  0  0  0  1  0  0  0  0  0  0
  185.1590  179.4870  142.7660 C   0  0  0  0  0  2  0  0  0  0  0  0
  185.5390  178.8650  141.4150 C   0  0  1  0  0  3  0  0  0  0  0  0
  184.5000  179.1010  140.3270 C   0  0  0  0  0  2  0  0  0  0  0  0
  182.4420  177.8620  140.3910 O   0  0  0  0  0  1  0  0  0  0  0  0
  183.7690  177.8100  139.9610 C   0  0  1  0  0  3  0  0  0  0  0  0
  185.1840  177.8080  137.8550 C   0  0  0  0  0  1  0  0  0  0  0  0
  183.3990  176.0970  138.1610 C   0  0  0  0  0  1  0  0  0  0  0  0
  183.8180  177.5250  138.4600 C   0  0  0  0  0  3  0  0  0  0  0  0
  186.7940  179.3110  140.9950 O   0  0  0  0  0  0  0  0  0  0  0  0
  187.6740  178.2730  141.3080 C   0  0  0  0  0  2  0  0  0  0  0  0
  188.1830  177.6200  140.0330 C   0  0  0  0  0  2  0  0  0  0  0  0
  189.1920  178.5120  139.3250 C   0  0  0  0  0  2  0  0  0  0  0  0
  188.6460  179.7140  137.3480 O   0  0  0  0  0  1  0  0  0  0  0  0
  188.9900  178.4500  137.8230 C   0  0  0  0  0  2  0  0  0  0  0  0
  2  1  1  1  0  0  0
  2  6  1  0  0  0  0
  5 13  1  0  0  0  0
  5 14  2  0  0  0  0
  6 14  1  0  0  0  0
  7  4  1  0  0  0  0
  7 10  1  0  0  0  0
  8 15  1  0  0  0  0
  8  4  2  0  0  0  0
  9  8  1  0  0  0  0
 10  3  1  0  0  0  0
 11  9  2  0  0  0  0
 11 13  1  0  0  0  0
 12 10  2  0  0  0  0
 13  7  2  0  0  0  0
 14 12  1  0  0  0  0
 16  2  1  0  0  0  0
 17 18  1  6  0  0  0
 17 16  1  0  0  0  0
 20 18  1  0  0  0  0
 20 19  1  6  0  0  0
 21 23  1  0  0  0  0
 22 23  1  0  0  0  0
 23 20  1  0  0  0  0
 24 25  1  0  0  0  0
 24 17  1  0  0  0  0
 26 25  1  0  0  0  0
 27 26  1  0  0  0  0
 28 29  1  0  0  0  0
 29 27  1  0  0  0  0
M  END
>  <MODEL>
5

>  <REMARK>
 VINA RESULT:      -7.5      1.128      1.230
  Name = 
  11 active torsions:
  status: ('A' for Active; 'I' for Inactive)
    1  A    between atoms: C_1  and  C_5
    2  A    between atoms: C_1  and  O_23
    3  A    between atoms: C_5  and  C_17
    4  A    between atoms: C_6  and  C_20
    5  A    between atoms: C_6  and  C_25
    6  A    between atoms: N_9  and  C_19
    7  A    between atoms: C_17  and  C_29
    8  A    between atoms: C_19  and  C_24
    9  A    between atoms: C_20  and  C_21
   10  A    between atoms: C_21  and  O_23
   11  A    between atoms: C_21  and  C_24
                            x       y       z     vdW  Elec       q    Type
                         _______ _______ _______ _____ _____    ______ ____

>  <TORSDO>
F 11

$$$$
=
 OpenBabel11042410053D

 29 30  0  0  1  0  0  0  0  0999 V2000
  188.4890  178.4700  140.7410 C   0  0  0  0  0  1  0  0  0  0  0  0
  188.6850  177.2530  141.6310 C   0  0  2  0  0  3  0  0  0  0  0  0
  184.7920  178.6200  146.7100 Cl  0  0  0  0  0  0  0  0  0  0  0  0
  182.8750  178.8650  144.3090 C   0  0  0  0  0  3  0  0  0  0  0  0
  185.8440  177.9310  142.3610 N   0  0  0  0  0  0  0  0  0  0  0  0
  188.1410  177.4160  142.9810 N   0  0  0  0  0  2  0  0  0  0  0  0
  184.1950  178.5070  144.0090 C   0  0  0  0  0  0  0  0  0  0  0  0
  181.9350  179.0020  143.2850 C   0  0  0  0  0  0  0  0  0  0  0  0
  182.3080  178.7840  141.9550 C   0  0  0  0  0  3  0  0  0  0  0  0
  185.1660  178.3550  145.0130 C   0  0  0  0  0  0  0  0  0  0  0  0
  183.6230  178.4250  141.6450 C   0  0  0  0  0  3  0  0  0  0  0  0
  186.4680  177.9910  144.6640 C   0  0  0  0  0  3  0  0  0  0  0  0
  184.5680  178.2860  142.6630 C   0  0  0  0  0  0  0  0  0  0  0  0
  186.7960  177.7790  143.3230 C   0  0  0  0  0  0  0  0  0  0  0  0
  180.6280  179.3550  143.5880 O   0  0  0  0  0  1  0  0  0  0  0  0
  190.1070  176.6700  141.5960 C   0  0  0  0  0  2  0  0  0  0  0  0
  191.1720  177.3490  142.4690 C   0  0  1  0  0  3  0  0  0  0  0  0
  191.4740  176.5880  143.7540 C   0  0  0  0  0  2  0  0  0  0  0  0
  190.6470  178.6630  144.6410 O   0  0  0  0  0  1  0  0  0  0  0  0
  191.2970  177.4760  144.9850 C   0  0  1  0  0  3  0  0  0  0  0  0
  191.4280  176.3400  147.2500 C   0  0  0  0  0  1  0  0  0  0  0  0
  189.3950  177.6350  146.6190 C   0  0  0  0  0  1  0  0  0  0  0  0
  190.5280  176.7680  146.1010 C   0  0  0  0  0  3  0  0  0  0  0  0
  192.3450  177.5690  141.7460 O   0  0  0  0  0  0  0  0  0  0  0  0
  191.9660  177.4950  140.4040 C   0  0  0  0  0  2  0  0  0  0  0  0
  193.1670  177.1340  139.5430 C   0  0  0  0  0  2  0  0  0  0  0  0
  192.7390  176.3720  138.2980 C   0  0  0  0  0  2  0  0  0  0  0  0
  190.6320  177.0100  137.4000 O   0  0  0  0  0  1  0  0  0  0  0  0
  191.2400  176.1440  138.3060 C   0  0  0  0  0  2  0  0  0  0  0  0
  2  1  1  1  0  0  0
  2  6  1  0  0  0  0
  5 13  1  0  0  0  0
  5 14  2  0  0  0  0
  6 14  1  0  0  0  0
  7  4  1  0  0  0  0
  7 10  1  0  0  0  0
  8 15  1  0  0  0  0
  8  4  2  0  0  0  0
  9  8  1  0  0  0  0
 10  3  1  0  0  0  0
 11  9  2  0  0  0  0
 11 13  1  0  0  0  0
 12 10  2  0  0  0  0
 13  7  2  0  0  0  0
 14 12  1  0  0  0  0
 16  2  1  0  0  0  0
 17 16  1  6  0  0  0
 17 18  1  0  0  0  0
 18 20  1  0  0  0  0
 20 19  1  6  0  0  0
 20 23  1  0  0  0  0
 23 22  1  0  0  0  0
 23 21  1  0  0  0  0
 24 17  1  0  0  0  0
 25 24  1  0  0  0  0
 26 25  1  0  0  0  0
 27 29  1  0  0  0  0
 27 26  1  0  0  0  0
 28 29  1  0  0  0  0
M  END
>  <MODEL>
6

>  <REMARK>
 VINA RESULT:      -7.2      2.483      6.853
  Name = 
  11 active torsions:
  status: ('A' for Active; 'I' for Inactive)
    1  A    between atoms: C_1  and  C_5
    2  A    between atoms: C_1  and  O_23
    3  A    between atoms: C_5  and  C_17
    4  A    between atoms: C_6  and  C_20
    5  A    between atoms: C_6  and  C_25
    6  A    between atoms: N_9  and  C_19
    7  A    between atoms: C_17  and  C_29
    8  A    between atoms: C_19  and  C_24
    9  A    between atoms: C_20  and  C_21
   10  A    between atoms: C_21  and  O_23
   11  A    between atoms: C_21  and  C_24
                            x       y       z     vdW  Elec       q    Type
                         _______ _______ _______ _____ _____    ______ ____

>  <TORSDO>
F 11

$$$$
=
 OpenBabel11042410053D

 29 30  0  0  1  0  0  0  0  0999 V2000
  182.6260  178.8730  144.0080 C   0  0  0  0  0  1  0  0  0  0  0  0
  184.1380  178.7170  144.0430 C   0  0  2  0  0  3  0  0  0  0  0  0
  188.0430  177.9140  149.2320 Cl  0  0  0  0  0  0  0  0  0  0  0  0
  189.8750  177.1200  146.8830 C   0  0  0  0  0  3  0  0  0  0  0  0
  186.9360  177.9480  144.8420 N   0  0  0  0  0  0  0  0  0  0  0  0
  184.7020  178.7400  145.3950 N   0  0  0  0  0  2  0  0  0  0  0  0
  188.5780  177.5270  146.5430 C   0  0  0  0  0  0  0  0  0  0  0  0
  190.7750  176.7400  145.8860 C   0  0  0  0  0  0  0  0  0  0  0  0
  190.3860  176.7610  144.5420 C   0  0  0  0  0  3  0  0  0  0  0  0
  187.6480  177.9200  147.5190 C   0  0  0  0  0  0  0  0  0  0  0  0
  189.0950  177.1670  144.1920 C   0  0  0  0  0  3  0  0  0  0  0  0
  186.3690  178.3240  147.1290 C   0  0  0  0  0  3  0  0  0  0  0  0
  188.1890  177.5490  145.1840 C   0  0  0  0  0  0  0  0  0  0  0  0
  186.0240  178.3330  145.7760 C   0  0  0  0  0  0  0  0  0  0  0  0
  192.0580  176.3400  146.2270 O   0  0  0  0  0  1  0  0  0  0  0  0
  184.8860  179.6080  143.0380 C   0  0  0  0  0  2  0  0  0  0  0  0
  185.3300  178.9650  141.7170 C   0  0  1  0  0  3  0  0  0  0  0  0
  186.8170  178.6320  141.6760 C   0  0  0  0  0  2  0  0  0  0  0  0
  186.5190  178.8820  139.3050 O   0  0  0  0  0  1  0  0  0  0  0  0
  187.2560  178.2030  140.2770 C   0  0  1  0  0  3  0  0  0  0  0  0
  189.6040  177.3000  140.6080 C   0  0  0  0  0  1  0  0  0  0  0  0
  189.0520  178.6300  138.5740 C   0  0  0  0  0  1  0  0  0  0  0  0
  188.7510  178.4280  140.0480 C   0  0  0  0  0  3  0  0  0  0  0  0
  184.5690  177.8300  141.4330 O   0  0  0  0  0  0  0  0  0  0  0  0
  183.5780  178.2650  140.5500 C   0  0  0  0  0  2  0  0  0  0  0  0
  182.6620  177.1080  140.1840 C   0  0  0  0  0  2  0  0  0  0  0  0
  182.7990  176.7440  138.7130 C   0  0  0  0  0  2  0  0  0  0  0  0
  184.2700  177.4850  136.9990 O   0  0  0  0  0  1  0  0  0  0  0  0
  183.3250  177.9260  137.9230 C   0  0  0  0  0  2  0  0  0  0  0  0
  2  1  1  1  0  0  0
  2  6  1  0  0  0  0
  5 13  1  0  0  0  0
  5 14  2  0  0  0  0
  6 14  1  0  0  0  0
  7  4  1  0  0  0  0
  7 10  1  0  0  0  0
  8 15  1  0  0  0  0
  8  4  2  0  0  0  0
  9  8  1  0  0  0  0
 10  3  1  0  0  0  0
 11  9  2  0  0  0  0
 11 13  1  0  0  0  0
 12 10  2  0  0  0  0
 13  7  2  0  0  0  0
 14 12  1  0  0  0  0
 16  2  1  0  0  0  0
 17 18  1  1  0  0  0
 17 16  1  0  0  0  0
 20 19  1  6  0  0  0
 20 18  1  0  0  0  0
 22 23  1  0  0  0  0
 23 20  1  0  0  0  0
 23 21  1  0  0  0  0
 24 17  1  0  0  0  0
 25 24  1  0  0  0  0
 26 25  1  0  0  0  0
 27 26  1  0  0  0  0
 28 29  1  0  0  0  0
 29 27  1  0  0  0  0
M  END
>  <MODEL>
7

>  <REMARK>
 VINA RESULT:      -7.1      1.112      3.469
  Name = 
  11 active torsions:
  status: ('A' for Active; 'I' for Inactive)
    1  A    between atoms: C_1  and  C_5
    2  A    between atoms: C_1  and  O_23
    3  A    between atoms: C_5  and  C_17
    4  A    between atoms: C_6  and  C_20
    5  A    between atoms: C_6  and  C_25
    6  A    between atoms: N_9  and  C_19
    7  A    between atoms: C_17  and  C_29
    8  A    between atoms: C_19  and  C_24
    9  A    between atoms: C_20  and  C_21
   10  A    between atoms: C_21  and  O_23
   11  A    between atoms: C_21  and  C_24
                            x       y       z     vdW  Elec       q    Type
                         _______ _______ _______ _____ _____    ______ ____

>  <TORSDO>
F 11

$$$$
=
 OpenBabel11042410053D

 29 30  0  0  1  0  0  0  0  0999 V2000
  191.5950  178.9200  143.6020 C   0  0  0  0  0  1  0  0  0  0  0  0
  190.9180  177.7100  142.9770 C   0  0  2  0  0  3  0  0  0  0  0  0
  191.7450  176.0650  136.6980 Cl  0  0  0  0  0  0  0  0  0  0  0  0
  188.8680  177.1710  136.7290 C   0  0  0  0  0  3  0  0  0  0  0  0
  189.5530  177.7270  140.2940 N   0  0  0  0  0  0  0  0  0  0  0  0
  191.4990  177.3050  141.6940 N   0  0  0  0  0  2  0  0  0  0  0  0
  189.5490  177.1900  137.9540 C   0  0  0  0  0  0  0  0  0  0  0  0
  187.5590  177.6510  136.6470 C   0  0  0  0  0  0  0  0  0  0  0  0
  186.9200  178.1500  137.7880 C   0  0  0  0  0  3  0  0  0  0  0  0
  190.8670  176.7210  138.0730 C   0  0  0  0  0  0  0  0  0  0  0  0
  187.5910  178.1740  139.0130 C   0  0  0  0  0  3  0  0  0  0  0  0
  191.5060  176.7660  139.3140 C   0  0  0  0  0  3  0  0  0  0  0  0
  188.9000  177.6970  139.1030 C   0  0  0  0  0  0  0  0  0  0  0  0
  190.8320  177.2770  140.4260 C   0  0  0  0  0  0  0  0  0  0  0  0
  186.8890  177.6310  135.4330 O   0  0  0  0  0  1  0  0  0  0  0  0
  189.3820  177.7800  142.9740 C   0  0  0  0  0  2  0  0  0  0  0  0
  188.6640  177.6200  144.3220 C   0  0  1  0  0  3  0  0  0  0  0  0
  187.2200  177.1540  144.1860 C   0  0  0  0  0  2  0  0  0  0  0  0
  185.6380  178.3730  142.8500 O   0  0  0  0  0  1  0  0  0  0  0  0
  186.2550  178.3350  144.1020 C   0  0  1  0  0  3  0  0  0  0  0  0
  185.6990  178.8530  146.5230 C   0  0  0  0  0  1  0  0  0  0  0  0
  183.9330  179.0190  144.7730 C   0  0  0  0  0  1  0  0  0  0  0  0
  185.1940  178.2930  145.2020 C   0  0  0  0  0  3  0  0  0  0  0  0
  189.3740  176.7670  145.1680 O   0  0  0  0  0  0  0  0  0  0  0  0
  189.0790  177.2050  146.4610 C   0  0  0  0  0  2  0  0  0  0  0  0
  190.2990  177.0470  147.3550 C   0  0  0  0  0  2  0  0  0  0  0  0
  191.4910  176.5220  146.5680 C   0  0  0  0  0  2  0  0  0  0  0  0
  192.8570  176.4120  148.5100 O   0  0  0  0  0  1  0  0  0  0  0  0
  192.3660  175.6530  147.4500 C   0  0  0  0  0  2  0  0  0  0  0  0
  2  1  1  6  0  0  0
  3 10  1  0  0  0  0
  4  7  1  0  0  0  0
  5 14  2  0  0  0  0
  6  2  1  0  0  0  0
  7 10  1  0  0  0  0
  7 13  2  0  0  0  0
  8  4  2  0  0  0  0
  8  9  1  0  0  0  0
  9 11  2  0  0  0  0
 10 12  2  0  0  0  0
 11 13  1  0  0  0  0
 12 14  1  0  0  0  0
 13  5  1  0  0  0  0
 14  6  1  0  0  0  0
 15  8  1  0  0  0  0
 16  2  1  0  0  0  0
 17 16  1  6  0  0  0
 17 24  1  0  0  0  0
 18 17  1  0  0  0  0
 20 19  1  6  0  0  0
 20 18  1  0  0  0  0
 20 23  1  0  0  0  0
 22 23  1  0  0  0  0
 23 21  1  0  0  0  0
 24 25  1  0  0  0  0
 25 26  1  0  0  0  0
 27 26  1  0  0  0  0
 27 29  1  0  0  0  0
 29 28  1  0  0  0  0
M  END
>  <MODEL>
8

>  <REMARK>
 VINA RESULT:      -7.0      3.827      7.982
  Name = 
  11 active torsions:
  status: ('A' for Active; 'I' for Inactive)
    1  A    between atoms: C_1  and  C_5
    2  A    between atoms: C_1  and  O_23
    3  A    between atoms: C_5  and  C_17
    4  A    between atoms: C_6  and  C_20
    5  A    between atoms: C_6  and  C_25
    6  A    between atoms: N_9  and  C_19
    7  A    between atoms: C_17  and  C_29
    8  A    between atoms: C_19  and  C_24
    9  A    between atoms: C_20  and  C_21
   10  A    between atoms: C_21  and  O_23
   11  A    between atoms: C_21  and  C_24
                            x       y       z     vdW  Elec       q    Type
                         _______ _______ _______ _____ _____    ______ ____

>  <TORSDO>
F 11

$$$$
=
 OpenBabel11042410053D

 29 30  0  0  1  0  0  0  0  0999 V2000
  188.1480  178.5030  140.9790 C   0  0  0  0  0  1  0  0  0  0  0  0
  189.1580  177.4680  140.5100 C   0  0  2  0  0  3  0  0  0  0  0  0
  192.0400  176.3120  146.2700 Cl  0  0  0  0  0  0  0  0  0  0  0  0
  189.2030  177.1850  147.1010 C   0  0  0  0  0  3  0  0  0  0  0  0
  188.6600  177.4450  143.4780 N   0  0  0  0  0  0  0  0  0  0  0  0
  190.0930  177.0410  141.5530 N   0  0  0  0  0  2  0  0  0  0  0  0
  189.4550  177.1410  145.7240 C   0  0  0  0  0  0  0  0  0  0  0  0
  187.9460  177.5700  147.5720 C   0  0  0  0  0  0  0  0  0  0  0  0
  186.9340  177.9170  146.6710 C   0  0  0  0  0  3  0  0  0  0  0  0
  190.7050  176.7530  145.2140 C   0  0  0  0  0  0  0  0  0  0  0  0
  187.1750  177.8760  145.2950 C   0  0  0  0  0  3  0  0  0  0  0  0
  190.9060  176.7190  143.8320 C   0  0  0  0  0  3  0  0  0  0  0  0
  188.4290  177.4910  144.8170 C   0  0  0  0  0  0  0  0  0  0  0  0
  189.8660  177.0700  142.9690 C   0  0  0  0  0  0  0  0  0  0  0  0
  187.7010  177.6110  148.9360 O   0  0  0  0  0  1  0  0  0  0  0  0
  189.8290  177.8070  139.1690 C   0  0  0  0  0  2  0  0  0  0  0  0
  189.1850  177.2430  137.8930 C   0  0  1  0  0  3  0  0  0  0  0  0
  190.1460  176.4220  137.0430 C   0  0  0  0  0  2  0  0  0  0  0  0
  190.2630  174.1030  137.6620 O   0  0  0  0  0  1  0  0  0  0  0  0
  190.8530  175.3510  137.8730 C   0  0  1  0  0  3  0  0  0  0  0  0
  192.6330  175.1000  136.0840 C   0  0  0  0  0  1  0  0  0  0  0  0
  193.0760  176.4990  138.0970 C   0  0  0  0  0  1  0  0  0  0  0  0
  192.3480  175.2770  137.5670 C   0  0  0  0  0  3  0  0  0  0  0  0
  188.0450  176.4980  138.1980 O   0  0  0  0  0  0  0  0  0  0  0  0
  187.2860  176.4960  137.0250 C   0  0  0  0  0  2  0  0  0  0  0  0
  185.8770  176.9890  137.3160 C   0  0  0  0  0  2  0  0  0  0  0  0
  185.8990  178.3870  137.9180 C   0  0  0  0  0  2  0  0  0  0  0  0
  184.7580  179.8350  139.4190 O   0  0  0  0  0  1  0  0  0  0  0  0
  184.8660  178.5040  139.0220 C   0  0  0  0  0  2  0  0  0  0  0  0
  2  1  1  1  0  0  0
  2  6  1  0  0  0  0
  4  8  1  0  0  0  0
  5 13  1  0  0  0  0
  6 14  1  0  0  0  0
  7  4  2  0  0  0  0
  8 15  1  0  0  0  0
  9  8  2  0  0  0  0
 10  7  1  0  0  0  0
 10  3  1  0  0  0  0
 11  9  1  0  0  0  0
 12 10  2  0  0  0  0
 13 11  2  0  0  0  0
 13  7  1  0  0  0  0
 14  5  2  0  0  0  0
 14 12  1  0  0  0  0
 16  2  1  0  0  0  0
 17 18  1  1  0  0  0
 17 24  1  0  0  0  0
 17 16  1  0  0  0  0
 18 20  1  0  0  0  0
 20 19  1  6  0  0  0
 21 23  1  0  0  0  0
 23 20  1  0  0  0  0
 23 22  1  0  0  0  0
 25 26  1  0  0  0  0
 25 24  1  0  0  0  0
 26 27  1  0  0  0  0
 27 29  1  0  0  0  0
 29 28  1  0  0  0  0
M  END
>  <MODEL>
9

>  <REMARK>
 VINA RESULT:      -6.9      2.884      5.953
  Name = 
  11 active torsions:
  status: ('A' for Active; 'I' for Inactive)
    1  A    between atoms: C_1  and  C_5
    2  A    between atoms: C_1  and  O_23
    3  A    between atoms: C_5  and  C_17
    4  A    between atoms: C_6  and  C_20
    5  A    between atoms: C_6  and  C_25
    6  A    between atoms: N_9  and  C_19
    7  A    between atoms: C_17  and  C_29
    8  A    between atoms: C_19  and  C_24
    9  A    between atoms: C_20  and  C_21
   10  A    between atoms: C_21  and  O_23
   11  A    between atoms: C_21  and  C_24
                            x       y       z     vdW  Elec       q    Type
                         _______ _______ _______ _____ _____    ______ ____

>  <TORSDO>
F 11

$$$$
