=
 OpenBabel11042411253D

 57 64  0  0  1  0  0  0  0  0999 V2000
  180.1840  179.0220  139.7430 C   0  0  0  0  0  2  0  0  0  0  0  0
  181.1250  179.0950  138.5440 C   0  0  2  0  0  3  0  0  0  0  0  0
  180.1990  177.6380  140.3960 C   0  0  0  0  0  2  0  0  0  0  0  0
  181.5180  176.8710  140.2110 C   0  0  0  0  0  2  0  0  0  0  0  0
  182.7440  177.7860  140.0920 C   0  0  1  0  0  3  0  0  0  0  0  0
  182.5800  178.8160  138.9660 C   0  0  1  0  0  3  0  0  0  0  0  0
  181.0920  182.8370  137.8310 C   0  0  0  0  0  3  0  0  0  0  0  0
  180.6590  180.4250  136.4830 C   0  0  0  0  0  3  0  0  0  0  0  0
  180.7590  182.8470  136.4740 C   0  0  0  0  0  3  0  0  0  0  0  0
  181.2090  181.6220  138.5150 C   0  0  0  0  0  3  0  0  0  0  0  0
  180.5430  181.6410  135.8000 C   0  0  0  0  0  3  0  0  0  0  0  0
  180.9950  180.4100  137.8410 C   0  0  0  0  0  0  0  0  0  0  0  0
  184.3520  178.2060  142.2350 S   0  0  0  0  0  0  0  0  0  0  0  0
  183.0130  178.4950  141.3830 C   0  0  0  0  0  2  0  0  0  0  0  0
  184.0250  179.0590  143.7810 C   0  0  0  0  0  2  0  0  0  0  0  0
  186.0330  177.9870  144.6470 C   0  0  0  0  0  3  0  0  0  0  0  0
  185.2470  179.0590  144.6300 C   0  0  0  0  0  3  0  0  0  0  0  0
  187.2960  177.8950  145.4730 C   0  0  2  0  0  3  0  0  0  0  0  0
  190.6060  177.9000  141.0740 F   0  0  0  0  0  0  0  0  0  0  0  0
  188.1390  177.4360  143.3180 C   0  0  0  0  0  2  0  0  0  0  0  0
  191.2180  176.5490  144.4850 C   0  0  0  0  0  2  0  0  0  0  0  0
  190.5370  177.4600  145.5080 C   0  0  0  0  0  2  0  0  0  0  0  0
  190.3950  177.2600  142.2510 C   0  0  0  0  0  0  0  0  0  0  0  0
  189.0750  176.5750  142.4780 C   0  0  0  0  0  2  0  0  0  0  0  0
  189.4900  178.2150  144.9440 O   0  0  0  0  0  0  0  0  0  0  0  0
  188.4560  177.3530  144.7450 N   0  0  0  0  0  0  0  0  0  0  0  0
  191.3800  177.2270  143.1590 C   0  0  0  0  0  3  0  0  0  0  0  0
  187.0910  177.3060  146.7440 O   0  0  0  0  0  0  0  0  0  0  0  0
  188.4660  177.9830  148.5700 C   0  0  0  0  0  1  0  0  0  0  0  0
  187.2320  178.2830  147.7430 C   0  0  0  0  0  2  0  0  0  0  0  0
  183.5700  178.6370  137.8020 C   0  0  0  0  0  2  0  0  0  0  0  0
  184.0570  177.2040  137.4630 C   0  0  2  0  0  3  0  0  0  0  0  0
  188.3390  176.7310  137.3720 C   0  0  2  0  0  3  0  0  0  0  0  0
  187.5580  175.8860  136.3500 C   0  0  0  0  0  2  0  0  0  0  0  0
  188.3700  179.1570  137.4210 O   0  0  0  0  0  0  0  0  0  0  0  0
  187.6940  178.0940  137.4220 C   0  0  0  0  0  0  0  0  0  0  0  0
  186.3030  178.1560  137.4400 O   0  0  0  0  0  0  0  0  0  0  0  0
  185.5570  176.9500  137.5670 C   0  0  2  0  0  3  0  0  0  0  0  0
  186.0270  175.9090  136.5430 C   0  0  0  0  0  2  0  0  0  0  0  0
  193.2750  174.3100  137.0650 C   0  0  0  0  0  2  0  0  0  0  0  0
  194.0080  175.6380  136.9290 C   0  0  0  0  0  2  0  0  0  0  0  0
  191.7340  175.8220  135.7090 C   0  0  0  0  0  2  0  0  0  0  0  0
  190.6430  176.5190  138.3370 C   0  0  0  0  0  3  0  0  0  0  0  0
  189.8470  176.7680  137.0710 C   0  0  1  0  0  3  0  0  0  0  0  0
  191.8850  176.0140  138.3110 C   0  0  0  0  0  3  0  0  0  0  0  0
  192.5010  175.6050  137.0060 C   0  0  0  0  0  0  0  0  0  0  0  0
  190.2340  175.7490  135.9850 C   0  0  0  0  0  2  0  0  0  0  0  0
  182.6700  177.4450  135.5480 N   0  0  0  0  0  2  0  0  0  0  0  0
  182.2310  175.8310  136.7520 C   0  0  1  0  0  3  0  0  0  0  0  0
  183.4310  176.5290  136.3070 N   0  0  0  0  0  0  0  0  0  0  0  0
  181.4250  176.7910  135.9230 C   0  0  0  0  0  2  0  0  0  0  0  0
  182.1700  174.4340  136.1450 C   0  0  1  0  0  3  0  0  0  0  0  0
  183.2860  173.5450  136.7250 C   0  0  0  0  0  2  0  0  0  0  0  0
  181.2760  172.4930  137.1080 C   0  0  0  0  0  0  0  0  0  0  0  0
  180.8400  173.7620  136.5020 C   0  0  0  0  0  2  0  0  0  0  0  0
  182.6380  172.3880  137.2130 O   0  0  0  0  0  0  0  0  0  0  0  0
  180.4840  171.5940  137.4960 O   0  0  0  0  0  0  0  0  0  0  0  0
  1  3  1  0  0  0  0
  2 12  1  1  0  0  0
  2  6  1  0  0  0  0
  2  1  1  0  0  0  0
  4  3  1  0  0  0  0
  5  4  1  0  0  0  0
  5 14  1  1  0  0  0
  6 31  1  6  0  0  0
  6  5  1  0  0  0  0
  7 10  1  0  0  0  0
  8 12  1  0  0  0  0
  9  7  2  0  0  0  0
 11  9  1  0  0  0  0
 11  8  2  0  0  0  0
 12 10  2  0  0  0  0
 13 15  1  0  0  0  0
 14 13  1  0  0  0  0
 15 17  1  0  0  0  0
 17 16  2  0  0  0  0
 18 16  1  6  0  0  0
 18 28  1  0  0  0  0
 19 23  1  0  0  0  0
 20 26  1  0  0  0  0
 21 22  1  0  0  0  0
 23 24  1  0  0  0  0
 23 27  2  0  0  0  0
 24 20  1  0  0  0  0
 25 22  1  0  0  0  0
 26 25  1  0  0  0  0
 26 18  1  0  0  0  0
 27 21  1  0  0  0  0
 28 30  1  0  0  0  0
 30 29  1  0  0  0  0
 32 31  1  6  0  0  0
 33 34  1  6  0  0  0
 33 36  1  0  0  0  0
 34 39  1  0  0  0  0
 35 36  2  0  0  0  0
 36 37  1  0  0  0  0
 37 38  1  0  0  0  0
 38 32  1  6  0  0  0
 39 38  1  0  0  0  0
 41 46  1  0  0  0  0
 41 40  1  0  0  0  0
 42 47  1  0  0  0  0
 42 46  1  0  0  0  0
 44 47  1  6  0  0  0
 44 33  1  0  0  0  0
 44 43  1  0  0  0  0
 45 43  2  0  0  0  0
 46 40  1  0  0  0  0
 46 45  1  0  0  0  0
 48 51  1  0  0  0  0
 48 50  1  0  0  0  0
 49 51  1  6  0  0  0
 50 49  1  0  0  0  0
 50 32  1  0  0  0  0
 52 55  1  1  0  0  0
 52 53  1  0  0  0  0
 52 49  1  0  0  0  0
 53 56  1  0  0  0  0
 54 56  1  0  0  0  0
 54 57  2  0  0  0  0
 55 54  1  0  0  0  0
M  END
>  <MODEL>
1

>  <REMARK>
 VINA RESULT:      -9.0      0.000      0.000
  Name = 
  14 active torsions:
  status: ('A' for Active; 'I' for Inactive)
    1  A    between atoms: C_5  and  C_34
    2  A    between atoms: C_10  and  C_14
    3  A    between atoms: C_11  and  C_26
    4  A    between atoms: C_11  and  C_38
    5  A    between atoms: C_16  and  C_56
    6  A    between atoms: S_22  and  C_36
    7  A    between atoms: C_26  and  N_37
    8  A    between atoms: C_26  and  C_51
    9  A    between atoms: C_28  and  O_40
   10  A    between atoms: C_28  and  C_41
   11  A    between atoms: C_28  and  N_47
   12  A    between atoms: C_29  and  C_43
   13  A    between atoms: C_36  and  C_44
   14  A    between atoms: O_40  and  C_48
                            x       y       z     vdW  Elec       q    Type
                         _______ _______ _______ _____ _____    ______ ____

>  <TORSDO>
F 14

$$$$
=
 OpenBabel11042411253D

 57 64  0  0  1  0  0  0  0  0999 V2000
  180.2660  179.2280  139.8490 C   0  0  0  0  0  2  0  0  0  0  0  0
  180.8680  179.0610  138.4570 C   0  0  2  0  0  3  0  0  0  0  0  0
  180.2060  177.9000  140.6080 C   0  0  0  0  0  2  0  0  0  0  0  0
  181.2790  176.8850  140.1830 C   0  0  0  0  0  2  0  0  0  0  0  0
  182.5740  177.5400  139.6850 C   0  0  1  0  0  3  0  0  0  0  0  0
  182.3100  178.5270  138.5390 C   0  0  1  0  0  3  0  0  0  0  0  0
  180.2710  181.5810  135.6630 C   0  0  0  0  0  3  0  0  0  0  0  0
  181.1770  181.5330  138.3090 C   0  0  0  0  0  3  0  0  0  0  0  0
  180.6520  182.7690  136.2910 C   0  0  0  0  0  3  0  0  0  0  0  0
  180.3420  180.3670  136.3570 C   0  0  0  0  0  3  0  0  0  0  0  0
  181.1050  182.7460  137.6140 C   0  0  0  0  0  3  0  0  0  0  0  0
  180.7940  180.3410  137.6860 C   0  0  0  0  0  0  0  0  0  0  0  0
  184.7370  178.9090  140.5780 S   0  0  0  0  0  0  0  0  0  0  0  0
  183.2830  178.2450  140.7980 C   0  0  0  0  0  2  0  0  0  0  0  0
  185.2350  179.3270  142.2520 C   0  0  0  0  0  2  0  0  0  0  0  0
  187.0740  178.0560  143.2180 C   0  0  0  0  0  3  0  0  0  0  0  0
  185.7760  178.1210  142.9370 C   0  0  0  0  0  3  0  0  0  0  0  0
  187.7160  176.8770  143.9150 C   0  0  2  0  0  3  0  0  0  0  0  0
  190.3410  178.5480  148.4570 F   0  0  0  0  0  0  0  0  0  0  0  0
  189.1930  176.9000  145.7540 C   0  0  0  0  0  2  0  0  0  0  0  0
  186.7430  177.7320  147.9760 C   0  0  0  0  0  2  0  0  0  0  0  0
  186.3190  178.1720  146.5730 C   0  0  0  0  0  2  0  0  0  0  0  0
  189.2210  177.9000  148.0470 C   0  0  0  0  0  0  0  0  0  0  0  0
  189.3670  176.6360  147.2450 C   0  0  0  0  0  2  0  0  0  0  0  0
  187.4100  178.2760  145.6880 O   0  0  0  0  0  0  0  0  0  0  0  0
  187.7810  177.0030  145.3810 N   0  0  0  0  0  0  0  0  0  0  0  0
  188.0230  178.3860  148.3990 C   0  0  0  0  0  3  0  0  0  0  0  0
  188.9360  176.4720  143.3200 O   0  0  0  0  0  0  0  0  0  0  0  0
  190.5920  177.5490  141.9850 C   0  0  0  0  0  1  0  0  0  0  0  0
  189.1290  177.1760  142.1200 C   0  0  0  0  0  2  0  0  0  0  0  0
  182.9230  178.1050  137.1920 C   0  0  0  0  0  2  0  0  0  0  0  0
  183.4370  176.6500  137.0410 C   0  0  2  0  0  3  0  0  0  0  0  0
  187.7360  176.4110  137.2080 C   0  0  2  0  0  3  0  0  0  0  0  0
  187.0990  175.9390  135.8890 C   0  0  0  0  0  2  0  0  0  0  0  0
  187.5910  178.6710  138.0800 O   0  0  0  0  0  0  0  0  0  0  0  0
  186.9950  177.6470  137.6550 C   0  0  0  0  0  0  0  0  0  0  0  0
  185.6060  177.6420  137.5590 O   0  0  0  0  0  0  0  0  0  0  0  0
  184.9400  176.4370  137.1960 C   0  0  2  0  0  3  0  0  0  0  0  0
  185.5590  175.8320  135.9300 C   0  0  0  0  0  2  0  0  0  0  0  0
  192.9040  174.5280  137.4720 C   0  0  0  0  0  2  0  0  0  0  0  0
  193.5030  175.9270  137.4240 C   0  0  0  0  0  2  0  0  0  0  0  0
  191.3780  175.8880  135.9480 C   0  0  0  0  0  2  0  0  0  0  0  0
  189.9230  176.4300  138.4330 C   0  0  0  0  0  3  0  0  0  0  0  0
  189.2570  176.6110  137.0840 C   0  0  1  0  0  3  0  0  0  0  0  0
  191.2070  176.0580  138.5510 C   0  0  0  0  0  3  0  0  0  0  0  0
  192.0090  175.7350  137.3250 C   0  0  0  0  0  0  0  0  0  0  0  0
  189.8730  175.6540  136.0490 C   0  0  0  0  0  2  0  0  0  0  0  0
  181.7180  176.4740  135.4100 N   0  0  0  0  0  2  0  0  0  0  0  0
  182.0030  174.7930  136.5680 C   0  0  1  0  0  3  0  0  0  0  0  0
  182.8400  175.8260  135.9700 N   0  0  0  0  0  0  0  0  0  0  0  0
  180.8120  175.4710  135.9510 C   0  0  0  0  0  2  0  0  0  0  0  0
  182.2500  173.4480  135.8950 C   0  0  1  0  0  3  0  0  0  0  0  0
  183.0400  172.5140  136.8300 C   0  0  0  0  0  2  0  0  0  0  0  0
  181.0920  171.4400  136.2420 C   0  0  0  0  0  0  0  0  0  0  0  0
  180.9160  172.7540  135.6000 C   0  0  0  0  0  2  0  0  0  0  0  0
  182.2820  171.3250  136.9100 O   0  0  0  0  0  0  0  0  0  0  0  0
  180.2380  170.5160  136.1890 O   0  0  0  0  0  0  0  0  0  0  0  0
  1  3  1  0  0  0  0
  2 12  1  1  0  0  0
  2  6  1  0  0  0  0
  2  1  1  0  0  0  0
  4  3  1  0  0  0  0
  5  4  1  0  0  0  0
  5 14  1  1  0  0  0
  6 31  1  6  0  0  0
  6  5  1  0  0  0  0
  7  9  2  0  0  0  0
  7 10  1  0  0  0  0
  9 11  1  0  0  0  0
 10 12  2  0  0  0  0
 11  8  2  0  0  0  0
 12  8  1  0  0  0  0
 13 14  1  0  0  0  0
 13 15  1  0  0  0  0
 15 17  1  0  0  0  0
 17 16  2  0  0  0  0
 18 16  1  6  0  0  0
 18 26  1  0  0  0  0
 20 24  1  0  0  0  0
 21 27  1  0  0  0  0
 22 21  1  0  0  0  0
 23 27  2  0  0  0  0
 23 19  1  0  0  0  0
 24 23  1  0  0  0  0
 25 22  1  0  0  0  0
 26 25  1  0  0  0  0
 26 20  1  0  0  0  0
 28 18  1  0  0  0  0
 29 30  1  0  0  0  0
 30 28  1  0  0  0  0
 32 31  1  6  0  0  0
 33 34  1  6  0  0  0
 33 36  1  0  0  0  0
 34 39  1  0  0  0  0
 36 35  2  0  0  0  0
 37 36  1  0  0  0  0
 38 32  1  6  0  0  0
 38 37  1  0  0  0  0
 39 38  1  0  0  0  0
 41 40  1  0  0  0  0
 42 47  1  0  0  0  0
 42 46  1  0  0  0  0
 43 45  2  0  0  0  0
 44 47  1  6  0  0  0
 44 33  1  0  0  0  0
 44 43  1  0  0  0  0
 46 41  1  0  0  0  0
 46 40  1  0  0  0  0
 46 45  1  0  0  0  0
 48 51  1  0  0  0  0
 48 50  1  0  0  0  0
 49 51  1  6  0  0  0
 50 49  1  0  0  0  0
 50 32  1  0  0  0  0
 52 55  1  1  0  0  0
 52 49  1  0  0  0  0
 52 53  1  0  0  0  0
 53 56  1  0  0  0  0
 54 56  1  0  0  0  0
 55 54  1  0  0  0  0
 57 54  2  0  0  0  0
M  END
>  <MODEL>
2

>  <REMARK>
 VINA RESULT:      -8.0      1.449      2.614
  Name = 
  14 active torsions:
  status: ('A' for Active; 'I' for Inactive)
    1  A    between atoms: C_5  and  C_34
    2  A    between atoms: C_10  and  C_14
    3  A    between atoms: C_11  and  C_26
    4  A    between atoms: C_11  and  C_38
    5  A    between atoms: C_16  and  C_56
    6  A    between atoms: S_22  and  C_36
    7  A    between atoms: C_26  and  N_37
    8  A    between atoms: C_26  and  C_51
    9  A    between atoms: C_28  and  O_40
   10  A    between atoms: C_28  and  C_41
   11  A    between atoms: C_28  and  N_47
   12  A    between atoms: C_29  and  C_43
   13  A    between atoms: C_36  and  C_44
   14  A    between atoms: O_40  and  C_48
                            x       y       z     vdW  Elec       q    Type
                         _______ _______ _______ _____ _____    ______ ____

>  <TORSDO>
F 14

$$$$
=
 OpenBabel11042411253D

 57 64  0  0  1  0  0  0  0  0999 V2000
  183.4520  177.2420  136.3710 C   0  0  0  0  0  2  0  0  0  0  0  0
  184.2560  178.1630  137.2860 C   0  0  2  0  0  3  0  0  0  0  0  0
  184.1230  177.0680  135.0060 C   0  0  0  0  0  2  0  0  0  0  0  0
  185.6500  177.2400  135.0300 C   0  0  0  0  0  2  0  0  0  0  0  0
  186.2880  176.8370  136.3660 C   0  0  1  0  0  3  0  0  0  0  0  0
  185.6620  177.5900  137.5480 C   0  0  1  0  0  3  0  0  0  0  0  0
  182.0530  179.7990  139.9290 C   0  0  0  0  0  3  0  0  0  0  0  0
  183.5990  177.4910  139.5980 C   0  0  0  0  0  3  0  0  0  0  0  0
  182.1360  178.8610  140.9620 C   0  0  0  0  0  3  0  0  0  0  0  0
  182.7440  179.5840  138.7300 C   0  0  0  0  0  3  0  0  0  0  0  0
  182.9090  177.7070  140.7960 C   0  0  0  0  0  3  0  0  0  0  0  0
  183.5180  178.4260  138.5610 C   0  0  0  0  0  0  0  0  0  0  0  0
  186.7630  174.2990  135.5360 S   0  0  0  0  0  0  0  0  0  0  0  0
  186.1700  175.3620  136.5950 C   0  0  0  0  0  2  0  0  0  0  0  0
  186.0950  172.7410  136.1280 C   0  0  0  0  0  2  0  0  0  0  0  0
  183.6630  172.8180  136.0060 C   0  0  0  0  0  3  0  0  0  0  0  0
  184.8080  172.4460  135.4410 C   0  0  0  0  0  3  0  0  0  0  0  0
  182.3080  172.5670  135.3840 C   0  0  2  0  0  3  0  0  0  0  0  0
  180.6750  176.8180  138.4780 F   0  0  0  0  0  0  0  0  0  0  0  0
  181.6160  173.8240  137.2560 C   0  0  0  0  0  2  0  0  0  0  0  0
  178.9490  175.1800  135.6180 C   0  0  0  0  0  2  0  0  0  0  0  0
  179.9970  174.7410  134.5940 C   0  0  0  0  0  2  0  0  0  0  0  0
  180.1980  175.8460  137.6600 C   0  0  0  0  0  0  0  0  0  0  0  0
  180.4370  174.4070  138.0280 C   0  0  0  0  0  2  0  0  0  0  0  0
  181.2760  174.5870  135.1630 O   0  0  0  0  0  0  0  0  0  0  0  0
  181.2380  173.4400  135.8950 N   0  0  0  0  0  0  0  0  0  0  0  0
  179.4990  176.1960  136.5730 C   0  0  0  0  0  3  0  0  0  0  0  0
  181.9580  171.1950  135.3420 O   0  0  0  0  0  0  0  0  0  0  0  0
  180.1370  169.6820  135.6220 C   0  0  0  0  0  1  0  0  0  0  0  0
  180.7620  170.9940  136.0510 C   0  0  0  0  0  2  0  0  0  0  0  0
  186.6280  178.5480  138.2650 C   0  0  0  0  0  2  0  0  0  0  0  0
  187.9350  177.9660  138.8620 C   0  0  2  0  0  3  0  0  0  0  0  0
  188.1250  177.7000  143.1590 C   0  0  2  0  0  3  0  0  0  0  0  0
  186.7350  178.0080  142.5760 C   0  0  0  0  0  2  0  0  0  0  0  0
  189.3780  175.6650  142.7400 O   0  0  0  0  0  0  0  0  0  0  0  0
  188.7710  176.6630  142.2720 C   0  0  0  0  0  0  0  0  0  0  0  0
  188.6540  176.8220  140.8940 O   0  0  0  0  0  0  0  0  0  0  0  0
  188.0750  178.0170  140.3800 C   0  0  2  0  0  3  0  0  0  0  0  0
  186.7320  178.3090  141.0620 C   0  0  0  0  0  2  0  0  0  0  0  0
  187.6420  178.9500  148.4990 C   0  0  0  0  0  2  0  0  0  0  0  0
  188.0870  177.5640  148.9480 C   0  0  0  0  0  2  0  0  0  0  0  0
  186.7190  177.3260  146.7640 C   0  0  0  0  0  2  0  0  0  0  0  0
  189.2520  177.8620  145.3920 C   0  0  0  0  0  3  0  0  0  0  0  0
  188.0630  177.2970  144.6420 C   0  0  1  0  0  3  0  0  0  0  0  0
  189.2150  178.1020  146.7110 C   0  0  0  0  0  3  0  0  0  0  0  0
  187.9440  177.8800  147.4780 C   0  0  0  0  0  0  0  0  0  0  0  0
  186.7480  177.7520  145.2990 C   0  0  0  0  0  2  0  0  0  0  0  0
  189.0160  179.3100  137.2290 N   0  0  0  0  0  2  0  0  0  0  0  0
  189.3790  177.2880  137.0780 C   0  0  1  0  0  3  0  0  0  0  0  0
  189.1970  178.2570  138.1510 N   0  0  0  0  0  0  0  0  0  0  0  0
  189.2110  178.4140  136.0980 C   0  0  0  0  0  2  0  0  0  0  0  0
  190.8160  176.7800  137.0540 C   0  0  1  0  0  3  0  0  0  0  0  0
  191.2660  176.3680  138.4680 C   0  0  0  0  0  2  0  0  0  0  0  0
  191.5490  174.5540  137.0820 C   0  0  0  0  0  0  0  0  0  0  0  0
  190.9190  175.5290  136.1760 C   0  0  0  0  0  2  0  0  0  0  0  0
  191.7420  175.0440  138.3460 O   0  0  0  0  0  0  0  0  0  0  0  0
  191.8740  173.3870  136.7360 O   0  0  0  0  0  0  0  0  0  0  0  0
  1  2  1  0  0  0  0
  2  6  1  0  0  0  0
  2 12  1  1  0  0  0
  3  4  1  0  0  0  0
  3  1  1  0  0  0  0
  4  5  1  0  0  0  0
  5 14  1  1  0  0  0
  5  6  1  0  0  0  0
  6 31  1  6  0  0  0
  7  9  1  0  0  0  0
  8 11  1  0  0  0  0
 10  7  2  0  0  0  0
 11  9  2  0  0  0  0
 12 10  1  0  0  0  0
 12  8  2  0  0  0  0
 13 15  1  0  0  0  0
 13 14  1  0  0  0  0
 17 16  2  0  0  0  0
 17 15  1  0  0  0  0
 18 26  1  0  0  0  0
 18 16  1  1  0  0  0
 20 24  1  0  0  0  0
 21 27  1  0  0  0  0
 22 25  1  0  0  0  0
 22 21  1  0  0  0  0
 23 24  1  0  0  0  0
 23 19  1  0  0  0  0
 25 26  1  0  0  0  0
 26 20  1  0  0  0  0
 27 23  2  0  0  0  0
 28 18  1  0  0  0  0
 28 30  1  0  0  0  0
 29 30  1  0  0  0  0
 32 31  1  6  0  0  0
 33 34  1  6  0  0  0
 33 44  1  0  0  0  0
 36 35  2  0  0  0  0
 36 33  1  0  0  0  0
 37 36  1  0  0  0  0
 38 32  1  6  0  0  0
 38 37  1  0  0  0  0
 38 39  1  0  0  0  0
 39 34  1  0  0  0  0
 40 41  1  0  0  0  0
 42 46  1  0  0  0  0
 43 45  2  0  0  0  0
 44 47  1  1  0  0  0
 44 43  1  0  0  0  0
 45 46  1  0  0  0  0
 46 40  1  0  0  0  0
 46 41  1  0  0  0  0
 47 42  1  0  0  0  0
 48 50  1  0  0  0  0
 49 51  1  6  0  0  0
 49 50  1  0  0  0  0
 50 32  1  0  0  0  0
 51 48  1  0  0  0  0
 52 55  1  6  0  0  0
 52 49  1  0  0  0  0
 52 53  1  0  0  0  0
 54 56  1  0  0  0  0
 55 54  1  0  0  0  0
 56 53  1  0  0  0  0
 57 54  2  0  0  0  0
M  END
>  <MODEL>
3

>  <REMARK>
 VINA RESULT:      -7.5      2.990      9.393
  Name = 
  14 active torsions:
  status: ('A' for Active; 'I' for Inactive)
    1  A    between atoms: C_5  and  C_34
    2  A    between atoms: C_10  and  C_14
    3  A    between atoms: C_11  and  C_26
    4  A    between atoms: C_11  and  C_38
    5  A    between atoms: C_16  and  C_56
    6  A    between atoms: S_22  and  C_36
    7  A    between atoms: C_26  and  N_37
    8  A    between atoms: C_26  and  C_51
    9  A    between atoms: C_28  and  O_40
   10  A    between atoms: C_28  and  C_41
   11  A    between atoms: C_28  and  N_47
   12  A    between atoms: C_29  and  C_43
   13  A    between atoms: C_36  and  C_44
   14  A    between atoms: O_40  and  C_48
                            x       y       z     vdW  Elec       q    Type
                         _______ _______ _______ _____ _____    ______ ____

>  <TORSDO>
F 14

$$$$
=
 OpenBabel11042411253D

 57 64  0  0  1  0  0  0  0  0999 V2000
  180.3480  181.0880  139.4930 C   0  0  0  0  0  2  0  0  0  0  0  0
  179.8940  180.2090  138.3310 C   0  0  2  0  0  3  0  0  0  0  0  0
  180.0870  180.4220  140.8460 C   0  0  0  0  0  2  0  0  0  0  0  0
  180.0800  178.8860  140.8000 C   0  0  0  0  0  2  0  0  0  0  0  0
  180.9910  178.3050  139.7110 C   0  0  1  0  0  3  0  0  0  0  0  0
  180.6530  178.8680  138.3240 C   0  0  1  0  0  3  0  0  0  0  0  0
  179.6760  181.0870  134.6300 C   0  0  0  0  0  3  0  0  0  0  0  0
  180.6630  182.1810  137.0080 C   0  0  0  0  0  3  0  0  0  0  0  0
  180.3030  182.3360  134.6160 C   0  0  0  0  0  3  0  0  0  0  0  0
  179.5420  180.3840  135.8330 C   0  0  0  0  0  3  0  0  0  0  0  0
  180.7960  182.8830  135.8040 C   0  0  0  0  0  3  0  0  0  0  0  0
  180.0350  180.9310  137.0280 C   0  0  0  0  0  0  0  0  0  0  0  0
  183.0550  178.2300  141.4680 S   0  0  0  0  0  0  0  0  0  0  0  0
  182.4320  178.5680  140.0190 C   0  0  0  0  0  2  0  0  0  0  0  0
  184.6740  179.0040  141.3890 C   0  0  0  0  0  2  0  0  0  0  0  0
  185.9870  177.9350  143.1400 C   0  0  0  0  0  3  0  0  0  0  0  0
  185.3050  179.0020  142.7370 C   0  0  0  0  0  3  0  0  0  0  0  0
  186.6660  177.8410  144.4870 C   0  0  2  0  0  3  0  0  0  0  0  0
  191.3870  176.9100  141.8110 F   0  0  0  0  0  0  0  0  0  0  0  0
  188.2600  176.8480  143.0580 C   0  0  0  0  0  2  0  0  0  0  0  0
  190.6800  176.7860  145.4610 C   0  0  0  0  0  2  0  0  0  0  0  0
  189.6590  177.8720  145.8050 C   0  0  0  0  0  2  0  0  0  0  0  0
  190.7530  176.6480  142.9820 C   0  0  0  0  0  0  0  0  0  0  0  0
  189.4480  175.9000  142.9470 C   0  0  0  0  0  2  0  0  0  0  0  0
  188.8970  178.2680  144.6890 O   0  0  0  0  0  0  0  0  0  0  0  0
  188.0180  177.2570  144.4440 N   0  0  0  0  0  0  0  0  0  0  0  0
  191.3240  177.0310  144.1310 C   0  0  0  0  0  3  0  0  0  0  0  0
  185.8370  177.2900  145.4940 O   0  0  0  0  0  0  0  0  0  0  0  0
  186.2190  178.9500  147.1630 C   0  0  0  0  0  1  0  0  0  0  0  0
  185.2170  178.3270  146.2100 C   0  0  0  0  0  2  0  0  0  0  0  0
  180.1090  177.8200  137.3360 C   0  0  0  0  0  2  0  0  0  0  0  0
  181.0450  176.6630  136.9000 C   0  0  2  0  0  3  0  0  0  0  0  0
  185.3370  177.0380  136.9640 C   0  0  2  0  0  3  0  0  0  0  0  0
  184.7740  175.7750  137.6390 C   0  0  0  0  0  2  0  0  0  0  0  0
  185.0870  177.5730  134.6100 O   0  0  0  0  0  0  0  0  0  0  0  0
  184.5410  177.2750  135.7040 C   0  0  0  0  0  0  0  0  0  0  0  0
  183.1580  177.1230  135.7710 O   0  0  0  0  0  0  0  0  0  0  0  0
  182.5440  176.9090  137.0370 C   0  0  2  0  0  3  0  0  0  0  0  0
  183.2370  175.7680  137.7930 C   0  0  0  0  0  2  0  0  0  0  0  0
  190.4690  176.1740  138.7630 C   0  0  0  0  0  2  0  0  0  0  0  0
  191.0960  176.7440  137.4980 C   0  0  0  0  0  2  0  0  0  0  0  0
  188.9120  175.5130  136.8560 C   0  0  0  0  0  2  0  0  0  0  0  0
  187.5720  178.0350  137.5100 C   0  0  0  0  0  3  0  0  0  0  0  0
  186.8550  176.9490  136.7310 C   0  0  1  0  0  3  0  0  0  0  0  0
  188.8500  177.9100  137.8950 C   0  0  0  0  0  3  0  0  0  0  0  0
  189.5950  176.6370  137.6230 C   0  0  0  0  0  0  0  0  0  0  0  0
  187.4080  175.5640  137.1090 C   0  0  0  0  0  2  0  0  0  0  0  0
  179.3440  176.1760  135.3150 N   0  0  0  0  0  2  0  0  0  0  0  0
  180.3820  174.5400  136.0170 C   0  0  1  0  0  3  0  0  0  0  0  0
  180.6860  175.9240  135.6730 N   0  0  0  0  0  0  0  0  0  0  0  0
  178.9590  174.8030  135.6130 C   0  0  0  0  0  2  0  0  0  0  0  0
  181.0420  173.5860  135.0290 C   0  0  1  0  0  3  0  0  0  0  0  0
  182.5740  173.6220  135.1850 C   0  0  0  0  0  2  0  0  0  0  0  0
  181.8890  171.4430  135.4550 C   0  0  0  0  0  0  0  0  0  0  0  0
  180.6030  172.1460  135.3130 C   0  0  0  0  0  2  0  0  0  0  0  0
  182.9700  172.2790  135.3710 O   0  0  0  0  0  0  0  0  0  0  0  0
  181.9900  170.2010  135.6400 O   0  0  0  0  0  0  0  0  0  0  0  0
  1  3  1  0  0  0  0
  2 12  1  6  0  0  0
  2  1  1  0  0  0  0
  4  3  1  0  0  0  0
  5 14  1  1  0  0  0
  5  4  1  0  0  0  0
  6 31  1  1  0  0  0
  6  2  1  0  0  0  0
  6  5  1  0  0  0  0
  7 10  1  0  0  0  0
  8 12  1  0  0  0  0
  9  7  2  0  0  0  0
  9 11  1  0  0  0  0
 10 12  2  0  0  0  0
 11  8  2  0  0  0  0
 14 13  1  0  0  0  0
 15 13  1  0  0  0  0
 15 17  1  0  0  0  0
 17 16  2  0  0  0  0
 18 16  1  6  0  0  0
 18 28  1  0  0  0  0
 19 23  1  0  0  0  0
 20 26  1  0  0  0  0
 21 22  1  0  0  0  0
 23 27  2  0  0  0  0
 24 23  1  0  0  0  0
 24 20  1  0  0  0  0
 25 22  1  0  0  0  0
 26 18  1  0  0  0  0
 26 25  1  0  0  0  0
 27 21  1  0  0  0  0
 28 30  1  0  0  0  0
 30 29  1  0  0  0  0
 32 31  1  6  0  0  0
 33 34  1  6  0  0  0
 34 39  1  0  0  0  0
 35 36  2  0  0  0  0
 36 37  1  0  0  0  0
 36 33  1  0  0  0  0
 37 38  1  0  0  0  0
 38 32  1  6  0  0  0
 38 39  1  0  0  0  0
 41 46  1  0  0  0  0
 41 40  1  0  0  0  0
 42 47  1  0  0  0  0
 42 46  1  0  0  0  0
 43 45  2  0  0  0  0
 44 33  1  0  0  0  0
 44 47  1  1  0  0  0
 44 43  1  0  0  0  0
 46 45  1  0  0  0  0
 46 40  1  0  0  0  0
 48 51  1  0  0  0  0
 48 50  1  0  0  0  0
 49 51  1  6  0  0  0
 50 49  1  0  0  0  0
 50 32  1  0  0  0  0
 52 53  1  1  0  0  0
 52 55  1  0  0  0  0
 52 49  1  0  0  0  0
 53 56  1  0  0  0  0
 54 57  2  0  0  0  0
 55 54  1  0  0  0  0
 56 54  1  0  0  0  0
M  END
>  <MODEL>
4

>  <REMARK>
 VINA RESULT:      -7.1      1.679      2.543
  Name = 
  14 active torsions:
  status: ('A' for Active; 'I' for Inactive)
    1  A    between atoms: C_5  and  C_34
    2  A    between atoms: C_10  and  C_14
    3  A    between atoms: C_11  and  C_26
    4  A    between atoms: C_11  and  C_38
    5  A    between atoms: C_16  and  C_56
    6  A    between atoms: S_22  and  C_36
    7  A    between atoms: C_26  and  N_37
    8  A    between atoms: C_26  and  C_51
    9  A    between atoms: C_28  and  O_40
   10  A    between atoms: C_28  and  C_41
   11  A    between atoms: C_28  and  N_47
   12  A    between atoms: C_29  and  C_43
   13  A    between atoms: C_36  and  C_44
   14  A    between atoms: O_40  and  C_48
                            x       y       z     vdW  Elec       q    Type
                         _______ _______ _______ _____ _____    ______ ____

>  <TORSDO>
F 14

$$$$
=
 OpenBabel11042411253D

 57 64  0  0  1  0  0  0  0  0999 V2000
  182.6390  178.6090  143.0430 C   0  0  0  0  0  2  0  0  0  0  0  0
  184.0750  179.0870  142.8400 C   0  0  2  0  0  3  0  0  0  0  0  0
  181.6980  179.1560  141.9670 C   0  0  0  0  0  2  0  0  0  0  0  0
  182.3870  179.4620  140.6280 C   0  0  0  0  0  2  0  0  0  0  0  0
  183.5960  178.5610  140.3440 C   0  0  1  0  0  3  0  0  0  0  0  0
  184.6260  178.6140  141.4810 C   0  0  1  0  0  3  0  0  0  0  0  0
  185.7320  178.8730  146.2630 C   0  0  0  0  0  3  0  0  0  0  0  0
  185.8100  177.5660  143.7910 C   0  0  0  0  0  3  0  0  0  0  0  0
  186.5900  177.7850  146.0750 C   0  0  0  0  0  3  0  0  0  0  0  0
  184.9130  179.3070  145.2140 C   0  0  0  0  0  3  0  0  0  0  0  0
  186.6290  177.1320  144.8400 C   0  0  0  0  0  3  0  0  0  0  0  0
  184.9480  178.6520  143.9740 C   0  0  0  0  0  0  0  0  0  0  0  0
  181.8490  176.7890  139.2670 S   0  0  0  0  0  0  0  0  0  0  0  0
  183.1710  177.1430  140.1210 C   0  0  0  0  0  2  0  0  0  0  0  0
  181.6450  175.0310  139.5700 C   0  0  0  0  0  2  0  0  0  0  0  0
  182.3600  174.6550  137.2720 C   0  0  0  0  0  3  0  0  0  0  0  0
  181.5670  174.2970  138.2770 C   0  0  0  0  0  3  0  0  0  0  0  0
  182.3570  173.9690  135.9250 C   0  0  2  0  0  3  0  0  0  0  0  0
  187.6490  172.9320  137.0350 F   0  0  0  0  0  0  0  0  0  0  0  0
  184.6940  174.2430  136.0930 C   0  0  0  0  0  2  0  0  0  0  0  0
  185.3600  171.2250  134.6500 C   0  0  0  0  0  2  0  0  0  0  0  0
  183.9530  171.1950  135.2500 C   0  0  0  0  0  2  0  0  0  0  0  0
  186.7020  172.7500  136.0800 C   0  0  0  0  0  0  0  0  0  0  0  0
  186.0540  173.9600  135.4640 C   0  0  0  0  0  2  0  0  0  0  0  0
  183.7600  172.1960  136.2220 O   0  0  0  0  0  0  0  0  0  0  0  0
  183.6500  173.3730  135.5470 N   0  0  0  0  0  0  0  0  0  0  0  0
  186.4010  171.5050  135.6910 C   0  0  0  0  0  3  0  0  0  0  0  0
  181.7640  174.7470  134.9020 O   0  0  0  0  0  0  0  0  0  0  0  0
  180.3740  172.8170  135.0620 C   0  0  0  0  0  1  0  0  0  0  0  0
  180.4700  174.2700  134.6390 C   0  0  0  0  0  2  0  0  0  0  0  0
  185.9750  179.2330  141.0780 C   0  0  0  0  0  2  0  0  0  0  0  0
  187.0260  178.3250  140.3890 C   0  0  2  0  0  3  0  0  0  0  0  0
  190.3800  177.4590  142.9510 C   0  0  2  0  0  3  0  0  0  0  0  0
  189.6860  178.8080  143.2040 C   0  0  0  0  0  2  0  0  0  0  0  0
  189.3210  175.2910  143.2070 O   0  0  0  0  0  0  0  0  0  0  0  0
  189.3040  176.4360  142.6840 C   0  0  0  0  0  0  0  0  0  0  0  0
  188.2510  176.8030  141.8500 O   0  0  0  0  0  0  0  0  0  0  0  0
  188.3090  178.0510  141.1680 C   0  0  2  0  0  3  0  0  0  0  0  0
  188.6320  179.1900  142.1430 C   0  0  0  0  0  2  0  0  0  0  0  0
  191.4650  174.8910  147.7000 C   0  0  0  0  0  2  0  0  0  0  0  0
  192.7870  175.6230  147.8870 C   0  0  0  0  0  2  0  0  0  0  0  0
  192.4300  175.1970  145.3600 C   0  0  0  0  0  2  0  0  0  0  0  0
  190.8760  177.6810  145.3980 C   0  0  0  0  0  3  0  0  0  0  0  0
  191.3380  177.0700  144.0910 C   0  0  1  0  0  3  0  0  0  0  0  0
  191.1890  177.1440  146.5870 C   0  0  0  0  0  3  0  0  0  0  0  0
  191.9570  175.8570  146.6490 C   0  0  0  0  0  0  0  0  0  0  0  0
  191.4670  175.5430  144.2280 C   0  0  0  0  0  2  0  0  0  0  0  0
  186.0270  178.6250  138.2540 N   0  0  0  0  0  2  0  0  0  0  0  0
  187.5530  177.2420  138.3210 C   0  0  1  0  0  3  0  0  0  0  0  0
  187.2550  178.5260  138.9430 N   0  0  0  0  0  0  0  0  0  0  0  0
  186.2570  177.3610  137.5690 C   0  0  0  0  0  2  0  0  0  0  0  0
  188.7310  177.3730  137.3620 C   0  0  1  0  0  3  0  0  0  0  0  0
  190.0230  177.6930  138.1350 C   0  0  0  0  0  2  0  0  0  0  0  0
  190.3910  175.7820  136.9090 C   0  0  0  0  0  0  0  0  0  0  0  0
  188.9680  176.0450  136.6350 C   0  0  0  0  0  2  0  0  0  0  0  0
  190.9600  176.7150  137.7350 O   0  0  0  0  0  0  0  0  0  0  0  0
  191.0240  174.8000  136.4380 O   0  0  0  0  0  0  0  0  0  0  0  0
  2  1  1  0  0  0  0
  2 12  1  1  0  0  0
  3  1  1  0  0  0  0
  4  3  1  0  0  0  0
  5 14  1  1  0  0  0
  5  4  1  0  0  0  0
  5  6  1  0  0  0  0
  6 31  1  6  0  0  0
  6  2  1  0  0  0  0
  8 12  2  0  0  0  0
  8 11  1  0  0  0  0
  9  7  1  0  0  0  0
 10  7  2  0  0  0  0
 11  9  2  0  0  0  0
 12 10  1  0  0  0  0
 13 15  1  0  0  0  0
 13 14  1  0  0  0  0
 16 17  2  0  0  0  0
 17 15  1  0  0  0  0
 18 16  1  1  0  0  0
 21 22  1  0  0  0  0
 21 27  1  0  0  0  0
 22 25  1  0  0  0  0
 23 19  1  0  0  0  0
 24 23  1  0  0  0  0
 24 20  1  0  0  0  0
 26 18  1  0  0  0  0
 26 20  1  0  0  0  0
 26 25  1  0  0  0  0
 27 23  2  0  0  0  0
 28 18  1  0  0  0  0
 30 28  1  0  0  0  0
 30 29  1  0  0  0  0
 32 31  1  1  0  0  0
 33 34  1  1  0  0  0
 33 44  1  0  0  0  0
 36 33  1  0  0  0  0
 36 35  2  0  0  0  0
 37 36  1  0  0  0  0
 38 32  1  1  0  0  0
 38 37  1  0  0  0  0
 38 39  1  0  0  0  0
 39 34  1  0  0  0  0
 40 41  1  0  0  0  0
 42 46  1  0  0  0  0
 43 45  2  0  0  0  0
 44 47  1  1  0  0  0
 44 43  1  0  0  0  0
 45 46  1  0  0  0  0
 46 40  1  0  0  0  0
 46 41  1  0  0  0  0
 47 42  1  0  0  0  0
 48 50  1  0  0  0  0
 49 51  1  6  0  0  0
 49 50  1  0  0  0  0
 50 32  1  0  0  0  0
 51 48  1  0  0  0  0
 52 55  1  1  0  0  0
 52 53  1  0  0  0  0
 52 49  1  0  0  0  0
 54 56  1  0  0  0  0
 55 54  1  0  0  0  0
 56 53  1  0  0  0  0
 57 54  2  0  0  0  0
M  END
>  <MODEL>
5

>  <REMARK>
 VINA RESULT:      -6.9      2.864      8.660
  Name = 
  14 active torsions:
  status: ('A' for Active; 'I' for Inactive)
    1  A    between atoms: C_5  and  C_34
    2  A    between atoms: C_10  and  C_14
    3  A    between atoms: C_11  and  C_26
    4  A    between atoms: C_11  and  C_38
    5  A    between atoms: C_16  and  C_56
    6  A    between atoms: S_22  and  C_36
    7  A    between atoms: C_26  and  N_37
    8  A    between atoms: C_26  and  C_51
    9  A    between atoms: C_28  and  O_40
   10  A    between atoms: C_28  and  C_41
   11  A    between atoms: C_28  and  N_47
   12  A    between atoms: C_29  and  C_43
   13  A    between atoms: C_36  and  C_44
   14  A    between atoms: O_40  and  C_48
                            x       y       z     vdW  Elec       q    Type
                         _______ _______ _______ _____ _____    ______ ____

>  <TORSDO>
F 14

$$$$
=
 OpenBabel11042411253D

 57 64  0  0  1  0  0  0  0  0999 V2000
  183.3620  177.1150  137.2890 C   0  0  0  0  0  2  0  0  0  0  0  0
  184.5850  177.8370  137.8480 C   0  0  2  0  0  3  0  0  0  0  0  0
  183.4740  176.8890  135.7790 C   0  0  0  0  0  2  0  0  0  0  0  0
  184.9190  176.7900  135.2650 C   0  0  0  0  0  2  0  0  0  0  0  0
  185.8970  176.2200  136.3000 C   0  0  1  0  0  3  0  0  0  0  0  0
  185.8660  177.0150  137.6130 C   0  0  1  0  0  3  0  0  0  0  0  0
  185.0780  179.3120  141.3260 C   0  0  0  0  0  3  0  0  0  0  0  0
  183.3030  177.6210  139.9790 C   0  0  0  0  0  3  0  0  0  0  0  0
  183.9840  178.7670  142.0040 C   0  0  0  0  0  3  0  0  0  0  0  0
  185.2860  179.0110  139.9750 C   0  0  0  0  0  3  0  0  0  0  0  0
  183.0960  177.9220  141.3300 C   0  0  0  0  0  3  0  0  0  0  0  0
  184.3950  178.1650  139.2960 C   0  0  0  0  0  0  0  0  0  0  0  0
  185.5490  173.6870  135.3970 S   0  0  0  0  0  0  0  0  0  0  0  0
  185.6020  174.7800  136.5820 C   0  0  0  0  0  2  0  0  0  0  0  0
  184.8740  172.2430  136.2240 C   0  0  0  0  0  2  0  0  0  0  0  0
  182.5140  172.5150  136.7580 C   0  0  0  0  0  3  0  0  0  0  0  0
  183.4310  172.0950  135.8920 C   0  0  0  0  0  3  0  0  0  0  0  0
  181.0260  172.4130  136.5100 C   0  0  2  0  0  3  0  0  0  0  0  0
  180.2520  176.4380  140.1840 F   0  0  0  0  0  0  0  0  0  0  0  0
  180.3410  173.5470  138.4620 C   0  0  0  0  0  2  0  0  0  0  0  0
  178.9310  176.1190  136.7210 C   0  0  0  0  0  2  0  0  0  0  0  0
  179.9900  175.4430  135.8480 C   0  0  0  0  0  2  0  0  0  0  0  0
  179.7050  175.8890  139.0710 C   0  0  0  0  0  0  0  0  0  0  0  0
  179.2900  174.4440  139.1060 C   0  0  0  0  0  2  0  0  0  0  0  0
  180.9090  174.6880  136.6020 O   0  0  0  0  0  0  0  0  0  0  0  0
  180.2500  173.5650  137.0000 N   0  0  0  0  0  0  0  0  0  0  0  0
  179.5200  176.6580  137.9900 C   0  0  0  0  0  3  0  0  0  0  0  0
  180.4830  171.1580  136.8770 O   0  0  0  0  0  0  0  0  0  0  0  0
  180.7220  169.7320  134.9810 C   0  0  0  0  0  1  0  0  0  0  0  0
  179.7860  170.6110  135.7880 C   0  0  0  0  0  2  0  0  0  0  0  0
  187.1780  177.7550  137.9290 C   0  0  0  0  0  2  0  0  0  0  0  0
  188.4000  176.9220  138.3930 C   0  0  2  0  0  3  0  0  0  0  0  0
  190.0440  177.9320  142.2460 C   0  0  2  0  0  3  0  0  0  0  0  0
  188.6900  178.5830  141.9140 C   0  0  0  0  0  2  0  0  0  0  0  0
  190.4140  175.5420  142.4500 O   0  0  0  0  0  0  0  0  0  0  0  0
  189.9960  176.5060  141.7550 C   0  0  0  0  0  0  0  0  0  0  0  0
  189.4400  176.2680  140.5010 O   0  0  0  0  0  0  0  0  0  0  0  0
  189.0870  177.3740  139.6780 C   0  0  2  0  0  3  0  0  0  0  0  0
  188.2280  178.3790  140.4550 C   0  0  0  0  0  2  0  0  0  0  0  0
  190.1280  175.9990  147.4010 C   0  0  0  0  0  2  0  0  0  0  0  0
  190.5210  177.3480  147.9870 C   0  0  0  0  0  2  0  0  0  0  0  0
  191.6610  177.0860  145.6800 C   0  0  0  0  0  2  0  0  0  0  0  0
  189.1510  178.1240  144.5810 C   0  0  0  0  0  3  0  0  0  0  0  0
  190.4080  178.0650  143.7350 C   0  0  1  0  0  3  0  0  0  0  0  0
  189.1400  177.7480  145.8680 C   0  0  0  0  0  3  0  0  0  0  0  0
  190.3790  177.1790  146.4940 C   0  0  0  0  0  0  0  0  0  0  0  0
  191.3150  176.9140  144.2030 C   0  0  0  0  0  2  0  0  0  0  0  0
  188.8490  175.3270  136.6900 N   0  0  0  0  0  2  0  0  0  0  0  0
  190.4120  175.6940  137.9810 C   0  0  1  0  0  3  0  0  0  0  0  0
  189.3480  176.4680  137.3550 N   0  0  0  0  0  0  0  0  0  0  0  0
  189.8950  174.4860  137.2530 C   0  0  0  0  0  2  0  0  0  0  0  0
  191.7700  176.1020  137.4220 C   0  0  1  0  0  3  0  0  0  0  0  0
  192.6770  176.6370  138.5450 C   0  0  0  0  0  2  0  0  0  0  0  0
  193.7790  174.8980  137.5180 C   0  0  0  0  0  0  0  0  0  0  0  0
  192.4810  174.8850  136.8220 C   0  0  0  0  0  2  0  0  0  0  0  0
  193.8710  175.8860  138.4630 O   0  0  0  0  0  0  0  0  0  0  0  0
  194.7110  174.0860  137.2770 O   0  0  0  0  0  0  0  0  0  0  0  0
  1  2  1  0  0  0  0
  2 12  1  1  0  0  0
  3  1  1  0  0  0  0
  4  3  1  0  0  0  0
  4  5  1  0  0  0  0
  5 14  1  1  0  0  0
  5  6  1  0  0  0  0
  6  2  1  0  0  0  0
  6 31  1  6  0  0  0
  7  9  1  0  0  0  0
  8 11  1  0  0  0  0
 10  7  2  0  0  0  0
 11  9  2  0  0  0  0
 12 10  1  0  0  0  0
 12  8  2  0  0  0  0
 13 15  1  0  0  0  0
 13 14  1  0  0  0  0
 17 15  1  0  0  0  0
 17 16  2  0  0  0  0
 18 16  1  1  0  0  0
 18 28  1  0  0  0  0
 18 26  1  0  0  0  0
 20 24  1  0  0  0  0
 21 27  1  0  0  0  0
 22 25  1  0  0  0  0
 22 21  1  0  0  0  0
 23 24  1  0  0  0  0
 23 19  1  0  0  0  0
 25 26  1  0  0  0  0
 26 20  1  0  0  0  0
 27 23  2  0  0  0  0
 29 30  1  0  0  0  0
 30 28  1  0  0  0  0
 32 31  1  6  0  0  0
 33 34  1  1  0  0  0
 33 44  1  0  0  0  0
 36 33  1  0  0  0  0
 36 35  2  0  0  0  0
 37 36  1  0  0  0  0
 38 32  1  6  0  0  0
 38 39  1  0  0  0  0
 38 37  1  0  0  0  0
 39 34  1  0  0  0  0
 40 41  1  0  0  0  0
 42 46  1  0  0  0  0
 43 45  2  0  0  0  0
 44 47  1  1  0  0  0
 44 43  1  0  0  0  0
 45 46  1  0  0  0  0
 46 40  1  0  0  0  0
 46 41  1  0  0  0  0
 47 42  1  0  0  0  0
 48 51  1  0  0  0  0
 48 50  1  0  0  0  0
 49 51  1  6  0  0  0
 50 49  1  0  0  0  0
 50 32  1  0  0  0  0
 52 55  1  1  0  0  0
 52 49  1  0  0  0  0
 52 53  1  0  0  0  0
 54 56  1  0  0  0  0
 55 54  1  0  0  0  0
 56 53  1  0  0  0  0
 57 54  2  0  0  0  0
M  END
>  <MODEL>
6

>  <REMARK>
 VINA RESULT:      -6.4      3.365      9.401
  Name = 
  14 active torsions:
  status: ('A' for Active; 'I' for Inactive)
    1  A    between atoms: C_5  and  C_34
    2  A    between atoms: C_10  and  C_14
    3  A    between atoms: C_11  and  C_26
    4  A    between atoms: C_11  and  C_38
    5  A    between atoms: C_16  and  C_56
    6  A    between atoms: S_22  and  C_36
    7  A    between atoms: C_26  and  N_37
    8  A    between atoms: C_26  and  C_51
    9  A    between atoms: C_28  and  O_40
   10  A    between atoms: C_28  and  C_41
   11  A    between atoms: C_28  and  N_47
   12  A    between atoms: C_29  and  C_43
   13  A    between atoms: C_36  and  C_44
   14  A    between atoms: O_40  and  C_48
                            x       y       z     vdW  Elec       q    Type
                         _______ _______ _______ _____ _____    ______ ____

>  <TORSDO>
F 14

$$$$
=
 OpenBabel11042411253D

 57 64  0  0  1  0  0  0  0  0999 V2000
  189.0870  178.9830  139.2670 C   0  0  0  0  0  2  0  0  0  0  0  0
  189.9770  177.7570  139.0850 C   0  0  2  0  0  3  0  0  0  0  0  0
  188.6080  179.5440  137.9260 C   0  0  0  0  0  2  0  0  0  0  0  0
  188.5190  178.4970  136.8040 C   0  0  0  0  0  2  0  0  0  0  0  0
  188.2060  177.0840  137.3120 C   0  0  1  0  0  3  0  0  0  0  0  0
  189.2160  176.6230  138.3720 C   0  0  1  0  0  3  0  0  0  0  0  0
  192.3860  177.1090  141.9650 C   0  0  0  0  0  3  0  0  0  0  0  0
  189.7040  176.6600  141.3100 C   0  0  0  0  0  3  0  0  0  0  0  0
  191.5440  176.4640  142.8760 C   0  0  0  0  0  3  0  0  0  0  0  0
  191.8870  177.5290  140.7260 C   0  0  0  0  0  3  0  0  0  0  0  0
  190.2030  176.2400  142.5490 C   0  0  0  0  0  3  0  0  0  0  0  0
  190.5410  177.3070  140.3960 C   0  0  0  0  0  0  0  0  0  0  0  0
  185.7140  178.1290  137.5290 S   0  0  0  0  0  0  0  0  0  0  0  0
  186.8220  177.0080  137.8750 C   0  0  0  0  0  2  0  0  0  0  0  0
  184.3860  177.7330  138.6730 C   0  0  0  0  0  2  0  0  0  0  0  0
  183.7880  178.3710  140.9460 C   0  0  0  0  0  3  0  0  0  0  0  0
  184.3850  178.7000  139.8040 C   0  0  0  0  0  3  0  0  0  0  0  0
  183.7380  179.2830  142.1510 C   0  0  2  0  0  3  0  0  0  0  0  0
  185.4510  177.6390  147.1180 F   0  0  0  0  0  0  0  0  0  0  0  0
  184.2650  179.3160  144.4500 C   0  0  0  0  0  2  0  0  0  0  0  0
  187.3860  178.0290  143.9650 C   0  0  0  0  0  2  0  0  0  0  0  0
  186.4930  177.6400  142.7850 C   0  0  0  0  0  2  0  0  0  0  0  0
  185.9030  178.1680  145.9530 C   0  0  0  0  0  0  0  0  0  0  0  0
  185.3560  179.4940  145.5000 C   0  0  0  0  0  2  0  0  0  0  0  0
  185.1220  177.7350  143.0920 O   0  0  0  0  0  0  0  0  0  0  0  0
  184.8240  179.0630  143.1210 N   0  0  0  0  0  0  0  0  0  0  0  0
  186.8450  177.5130  145.2640 C   0  0  0  0  0  3  0  0  0  0  0  0
  182.4520  179.3620  142.7390 O   0  0  0  0  0  0  0  0  0  0  0  0
  180.1430  178.8130  142.5130 C   0  0  0  0  0  1  0  0  0  0  0  0
  181.5510  178.5730  142.0050 C   0  0  0  0  0  2  0  0  0  0  0  0
  190.0880  175.4330  137.9350 C   0  0  0  0  0  2  0  0  0  0  0  0
  190.0640  175.0120  136.4430 C   0  0  2  0  0  3  0  0  0  0  0  0
  186.4290  172.9400  135.4120 C   0  0  2  0  0  3  0  0  0  0  0  0
  186.9650  172.6700  136.8290 C   0  0  0  0  0  2  0  0  0  0  0  0
  185.7040  175.1090  134.6000 O   0  0  0  0  0  0  0  0  0  0  0  0
  186.6080  174.4110  135.1300 C   0  0  0  0  0  0  0  0  0  0  0  0
  187.8120  175.0030  135.5040 O   0  0  0  0  0  0  0  0  0  0  0  0
  188.8690  174.1810  135.9860 C   0  0  2  0  0  3  0  0  0  0  0  0
  188.3710  173.2490  137.0980 C   0  0  0  0  0  2  0  0  0  0  0  0
  181.4440  171.7050  137.3970 C   0  0  0  0  0  2  0  0  0  0  0  0
  181.0290  170.9760  136.1260 C   0  0  0  0  0  2  0  0  0  0  0  0
  182.5420  172.9720  135.4760 C   0  0  0  0  0  2  0  0  0  0  0  0
  184.7750  171.1430  135.9780 C   0  0  0  0  0  3  0  0  0  0  0  0
  184.9850  172.4430  135.2280 C   0  0  1  0  0  3  0  0  0  0  0  0
  183.5650  170.7530  136.4050 C   0  0  0  0  0  3  0  0  0  0  0  0
  182.3770  171.6490  136.2110 C   0  0  0  0  0  0  0  0  0  0  0  0
  183.9600  173.4970  135.6830 C   0  0  0  0  0  2  0  0  0  0  0  0
  191.1540  173.4120  135.0650 N   0  0  0  0  0  2  0  0  0  0  0  0
  192.1190  173.8490  136.8320 C   0  0  1  0  0  3  0  0  0  0  0  0
  191.3400  174.5780  135.8380 N   0  0  0  0  0  0  0  0  0  0  0  0
  191.9400  172.6140  135.9950 C   0  0  0  0  0  2  0  0  0  0  0  0
  193.5760  174.2970  136.8040 C   0  0  1  0  0  3  0  0  0  0  0  0
  193.7200  175.7030  137.4150 C   0  0  0  0  0  2  0  0  0  0  0  0
  195.1120  174.2840  138.5740 C   0  0  0  0  0  0  0  0  0  0  0  0
  194.4340  173.3550  137.6540 C   0  0  0  0  0  2  0  0  0  0  0  0
  194.7090  175.5840  138.4160 O   0  0  0  0  0  0  0  0  0  0  0  0
  195.9720  173.9260  139.4210 O   0  0  0  0  0  0  0  0  0  0  0  0
  2  1  1  0  0  0  0
  2 12  1  1  0  0  0
  3  1  1  0  0  0  0
  4  5  1  0  0  0  0
  4  3  1  0  0  0  0
  5 14  1  1  0  0  0
  5  6  1  0  0  0  0
  6 31  1  6  0  0  0
  6  2  1  0  0  0  0
  7  9  1  0  0  0  0
  8 11  1  0  0  0  0
 10  7  2  0  0  0  0
 11  9  2  0  0  0  0
 12 10  1  0  0  0  0
 12  8  2  0  0  0  0
 13 14  1  0  0  0  0
 13 15  1  0  0  0  0
 15 17  1  0  0  0  0
 17 16  2  0  0  0  0
 18 16  1  6  0  0  0
 18 28  1  0  0  0  0
 18 26  1  0  0  0  0
 20 24  1  0  0  0  0
 21 27  1  0  0  0  0
 22 25  1  0  0  0  0
 22 21  1  0  0  0  0
 23 19  1  0  0  0  0
 24 23  1  0  0  0  0
 25 26  1  0  0  0  0
 26 20  1  0  0  0  0
 27 23  2  0  0  0  0
 30 29  1  0  0  0  0
 30 28  1  0  0  0  0
 32 31  1  1  0  0  0
 33 34  1  1  0  0  0
 34 39  1  0  0  0  0
 35 36  2  0  0  0  0
 36 33  1  0  0  0  0
 36 37  1  0  0  0  0
 37 38  1  0  0  0  0
 38 32  1  1  0  0  0
 38 39  1  0  0  0  0
 41 46  1  0  0  0  0
 41 40  1  0  0  0  0
 42 47  1  0  0  0  0
 42 46  1  0  0  0  0
 43 45  2  0  0  0  0
 44 33  1  0  0  0  0
 44 47  1  1  0  0  0
 44 43  1  0  0  0  0
 46 45  1  0  0  0  0
 46 40  1  0  0  0  0
 48 50  1  0  0  0  0
 48 51  1  0  0  0  0
 49 51  1  6  0  0  0
 50 32  1  0  0  0  0
 50 49  1  0  0  0  0
 52 49  1  0  0  0  0
 52 53  1  1  0  0  0
 52 55  1  0  0  0  0
 53 56  1  0  0  0  0
 54 57  2  0  0  0  0
 55 54  1  0  0  0  0
 56 54  1  0  0  0  0
M  END
>  <MODEL>
7

>  <REMARK>
 VINA RESULT:      -6.2      3.477      8.759
  Name = 
  14 active torsions:
  status: ('A' for Active; 'I' for Inactive)
    1  A    between atoms: C_5  and  C_34
    2  A    between atoms: C_10  and  C_14
    3  A    between atoms: C_11  and  C_26
    4  A    between atoms: C_11  and  C_38
    5  A    between atoms: C_16  and  C_56
    6  A    between atoms: S_22  and  C_36
    7  A    between atoms: C_26  and  N_37
    8  A    between atoms: C_26  and  C_51
    9  A    between atoms: C_28  and  O_40
   10  A    between atoms: C_28  and  C_41
   11  A    between atoms: C_28  and  N_47
   12  A    between atoms: C_29  and  C_43
   13  A    between atoms: C_36  and  C_44
   14  A    between atoms: O_40  and  C_48
                            x       y       z     vdW  Elec       q    Type
                         _______ _______ _______ _____ _____    ______ ____

>  <TORSDO>
F 14

$$$$
=
 OpenBabel11042411253D

 57 64  0  0  1  0  0  0  0  0999 V2000
  185.1010  176.9810  134.5940 C   0  0  0  0  0  2  0  0  0  0  0  0
  184.0510  176.9500  135.7010 C   0  0  2  0  0  3  0  0  0  0  0  0
  186.2210  177.9790  134.8970 C   0  0  0  0  0  2  0  0  0  0  0  0
  186.4550  178.2220  136.3970 C   0  0  0  0  0  2  0  0  0  0  0  0
  186.1160  177.0090  137.2720 C   0  0  1  0  0  3  0  0  0  0  0  0
  184.6770  176.5240  137.0430 C   0  0  1  0  0  3  0  0  0  0  0  0
  180.5690  175.7570  134.7190 C   0  0  0  0  0  3  0  0  0  0  0  0
  183.1110  174.6930  135.2000 C   0  0  0  0  0  3  0  0  0  0  0  0
  180.7840  174.3820  134.5950 C   0  0  0  0  0  3  0  0  0  0  0  0
  181.6250  176.6010  135.0840 C   0  0  0  0  0  3  0  0  0  0  0  0
  182.0550  173.8490  134.8350 C   0  0  0  0  0  3  0  0  0  0  0  0
  182.9010  176.0700  135.3230 C   0  0  0  0  0  0  0  0  0  0  0  0
  186.5740  174.3460  137.0410 S   0  0  0  0  0  0  0  0  0  0  0  0
  187.0680  175.8820  137.0200 C   0  0  0  0  0  2  0  0  0  0  0  0
  188.1210  173.4350  136.9940 C   0  0  0  0  0  2  0  0  0  0  0  0
  190.5060  173.9080  136.8540 C   0  0  0  0  0  3  0  0  0  0  0  0
  189.2680  174.3830  136.9480 C   0  0  0  0  0  3  0  0  0  0  0  0
  191.7330  174.7900  136.7960 C   0  0  2  0  0  3  0  0  0  0  0  0
  196.4840  172.3370  135.4890 F   0  0  0  0  0  0  0  0  0  0  0  0
  193.2830  173.1260  136.1700 C   0  0  0  0  0  2  0  0  0  0  0  0
  195.4340  173.8840  138.7050 C   0  0  0  0  0  2  0  0  0  0  0  0
  194.5620  175.1050  138.4050 C   0  0  0  0  0  2  0  0  0  0  0  0
  195.7130  172.6730  136.5540 C   0  0  0  0  0  0  0  0  0  0  0  0
  194.3200  172.1140  136.6440 C   0  0  0  0  0  2  0  0  0  0  0  0
  193.9740  175.0460  137.1270 O   0  0  0  0  0  0  0  0  0  0  0  0
  192.9790  174.1190  137.2020 N   0  0  0  0  0  0  0  0  0  0  0  0
  196.2280  173.4620  137.5060 C   0  0  0  0  0  3  0  0  0  0  0  0
  191.5400  176.0560  137.4010 O   0  0  0  0  0  0  0  0  0  0  0  0
  191.3370  176.9800  139.5900 C   0  0  0  0  0  1  0  0  0  0  0  0
  190.8870  175.8930  138.6330 C   0  0  0  0  0  2  0  0  0  0  0  0
  183.7590  176.6840  138.2670 C   0  0  0  0  0  2  0  0  0  0  0  0
  183.3820  178.1180  138.7230 C   0  0  2  0  0  3  0  0  0  0  0  0
  185.2410  179.0470  142.4980 C   0  0  2  0  0  3  0  0  0  0  0  0
  184.2440  177.8750  142.5230 C   0  0  0  0  0  2  0  0  0  0  0  0
  187.2960  179.0850  141.2070 O   0  0  0  0  0  0  0  0  0  0  0  0
  186.0460  178.9330  141.2260 C   0  0  0  0  0  0  0  0  0  0  0  0
  185.3660  178.6210  140.0520 O   0  0  0  0  0  0  0  0  0  0  0  0
  183.9430  178.5760  140.0660 C   0  0  2  0  0  3  0  0  0  0  0  0
  183.4370  177.7000  141.2190 C   0  0  0  0  0  2  0  0  0  0  0  0
  186.9600  176.9490  147.2900 C   0  0  0  0  0  2  0  0  0  0  0  0
  187.6160  178.2550  147.7200 C   0  0  0  0  0  2  0  0  0  0  0  0
  187.8780  178.0020  145.1580 C   0  0  0  0  0  2  0  0  0  0  0  0
  185.2160  179.2150  144.9990 C   0  0  0  0  0  3  0  0  0  0  0  0
  186.1000  179.1110  143.7730 C   0  0  1  0  0  3  0  0  0  0  0  0
  185.6210  178.8000  146.2080 C   0  0  0  0  0  3  0  0  0  0  0  0
  186.9600  178.1420  146.3650 C   0  0  0  0  0  0  0  0  0  0  0  0
  187.0380  177.8970  143.8880 C   0  0  0  0  0  2  0  0  0  0  0  0
  181.9290  179.4270  137.3750 N   0  0  0  0  0  2  0  0  0  0  0  0
  181.6760  179.6490  139.4080 C   0  0  1  0  0  3  0  0  0  0  0  0
  181.9930  178.5630  138.4890 N   0  0  0  0  0  0  0  0  0  0  0  0
  181.5840  180.5630  138.2180 C   0  0  0  0  0  2  0  0  0  0  0  0
  180.2970  179.4450  140.0220 C   0  0  1  0  0  3  0  0  0  0  0  0
  179.7590  178.0420  139.6860 C   0  0  0  0  0  2  0  0  0  0  0  0
  179.7590  178.2660  141.9750 C   0  0  0  0  0  0  0  0  0  0  0  0
  180.3810  179.5310  141.5490 C   0  0  0  0  0  2  0  0  0  0  0  0
  179.4120  177.4590  140.9240 O   0  0  0  0  0  0  0  0  0  0  0  0
  179.5680  177.9510  143.1790 O   0  0  0  0  0  0  0  0  0  0  0  0
  1  3  1  0  0  0  0
  1  2  1  0  0  0  0
  2 12  1  6  0  0  0
  2  6  1  0  0  0  0
  3  4  1  0  0  0  0
  4  5  1  0  0  0  0
  5 14  1  6  0  0  0
  6  5  1  0  0  0  0
  6 31  1  1  0  0  0
  7 10  1  0  0  0  0
  8 12  1  0  0  0  0
  9  7  2  0  0  0  0
  9 11  1  0  0  0  0
 10 12  2  0  0  0  0
 11  8  2  0  0  0  0
 14 13  1  0  0  0  0
 15 13  1  0  0  0  0
 16 17  2  0  0  0  0
 17 15  1  0  0  0  0
 18 16  1  1  0  0  0
 18 26  1  0  0  0  0
 18 28  1  0  0  0  0
 19 23  1  0  0  0  0
 20 24  1  0  0  0  0
 20 26  1  0  0  0  0
 22 21  1  0  0  0  0
 23 24  1  0  0  0  0
 23 27  2  0  0  0  0
 25 26  1  0  0  0  0
 25 22  1  0  0  0  0
 27 21  1  0  0  0  0
 28 30  1  0  0  0  0
 30 29  1  0  0  0  0
 32 31  1  1  0  0  0
 33 34  1  1  0  0  0
 33 44  1  0  0  0  0
 35 36  2  0  0  0  0
 36 33  1  0  0  0  0
 37 38  1  0  0  0  0
 37 36  1  0  0  0  0
 38 32  1  6  0  0  0
 38 39  1  0  0  0  0
 39 34  1  0  0  0  0
 40 41  1  0  0  0  0
 42 46  1  0  0  0  0
 43 45  2  0  0  0  0
 44 47  1  1  0  0  0
 44 43  1  0  0  0  0
 45 46  1  0  0  0  0
 46 40  1  0  0  0  0
 46 41  1  0  0  0  0
 47 42  1  0  0  0  0
 48 51  1  0  0  0  0
 48 50  1  0  0  0  0
 49 51  1  6  0  0  0
 49 52  1  0  0  0  0
 50 32  1  0  0  0  0
 50 49  1  0  0  0  0
 52 53  1  1  0  0  0
 52 55  1  0  0  0  0
 53 56  1  0  0  0  0
 54 57  2  0  0  0  0
 55 54  1  0  0  0  0
 56 54  1  0  0  0  0
M  END
>  <MODEL>
8

>  <REMARK>
 VINA RESULT:      -6.0      3.214      7.830
  Name = 
  14 active torsions:
  status: ('A' for Active; 'I' for Inactive)
    1  A    between atoms: C_5  and  C_34
    2  A    between atoms: C_10  and  C_14
    3  A    between atoms: C_11  and  C_26
    4  A    between atoms: C_11  and  C_38
    5  A    between atoms: C_16  and  C_56
    6  A    between atoms: S_22  and  C_36
    7  A    between atoms: C_26  and  N_37
    8  A    between atoms: C_26  and  C_51
    9  A    between atoms: C_28  and  O_40
   10  A    between atoms: C_28  and  C_41
   11  A    between atoms: C_28  and  N_47
   12  A    between atoms: C_29  and  C_43
   13  A    between atoms: C_36  and  C_44
   14  A    between atoms: O_40  and  C_48
                            x       y       z     vdW  Elec       q    Type
                         _______ _______ _______ _____ _____    ______ ____

>  <TORSDO>
F 14

$$$$
