=
 OpenBabel11042412433D

 57 62  0  0  1  0  0  0  0  0999 V2000
  187.6750  176.0790  136.1470 C   0  0  1  0  0  3  0  0  0  0  0  0
  186.6490  176.9560  136.7970 C   0  0  0  0  0  3  0  0  0  0  0  0
  189.3520  176.9350  138.1210 C   0  0  2  0  0  3  0  0  0  0  0  0
  188.3500  178.0720  138.3570 C   0  0  1  0  0  3  0  0  0  0  0  0
  186.9580  177.8290  137.7790 C   0  0  0  0  0  3  0  0  0  0  0  0
  188.8390  175.5030  138.3520 C   0  0  0  0  0  2  0  0  0  0  0  0
  188.1660  174.9580  137.0800 C   0  0  0  0  0  2  0  0  0  0  0  0
  190.6980  177.1740  138.6420 N   0  0  0  0  0  0  0  0  0  0  0  0
  194.6830  170.3620  137.0500 C   0  0  0  0  0  1  0  0  0  0  0  0
  191.6770  176.1470  136.6750 C   0  0  0  0  0  3  0  0  0  0  0  0
  194.5520  173.9090  136.7910 N   0  0  0  0  0  0  0  0  0  0  0  0
  193.8570  173.0660  134.5940 C   0  0  0  0  0  1  0  0  0  0  0  0
  191.7600  176.7950  138.0010 C   0  0  0  0  0  0  0  0  0  0  0  0
  193.9220  175.6660  138.2540 N   0  0  0  0  0  0  0  0  0  0  0  0
  194.9690  173.7300  135.4040 C   0  0  2  0  0  3  0  0  0  0  0  0
  193.1060  176.8250  138.6600 C   0  0  0  0  0  2  0  0  0  0  0  0
  192.6390  175.3730  136.2730 N   0  0  0  0  0  0  0  0  0  0  0  0
  193.7610  175.0630  137.1120 C   0  0  0  0  0  0  0  0  0  0  0  0
  196.2150  172.8970  135.3540 C   0  0  0  0  0  3  0  0  0  0  0  0
  194.4450  172.7560  137.6870 C   0  0  0  0  0  2  0  0  0  0  0  0
  196.4320  171.9470  136.2740 C   0  0  0  0  0  3  0  0  0  0  0  0
  195.4540  171.6350  137.3800 C   0  0  2  0  0  3  0  0  0  0  0  0
  187.1350  178.9200  140.2710 N   0  0  0  0  0  0  0  0  0  0  0  0
  188.2520  178.4520  139.8040 C   0  0  0  0  0  3  0  0  0  0  0  0
  186.9770  179.1680  141.6500 N   0  0  0  0  0  2  0  0  0  0  0  0
  185.8240  178.7370  142.3860 C   0  0  0  0  0  0  0  0  0  0  0  0
  184.8460  178.1870  141.8080 O   0  0  0  0  0  0  0  0  0  0  0  0
  185.7580  179.0150  143.8630 C   0  0  0  0  0  2  0  0  0  0  0  0
  186.8830  178.1570  147.1740 C   0  0  2  0  0  3  0  0  0  0  0  0
  187.8430  178.9510  148.0580 C   0  0  0  0  0  2  0  0  0  0  0  0
  187.3460  176.6980  143.7380 O   0  0  0  0  0  1  0  0  0  0  0  0
  184.7600  178.1910  145.8890 C   0  0  0  0  0  2  0  0  0  0  0  0
  185.4400  177.8010  144.6340 N   0  0  0  0  0  0  0  0  0  0  0  0
  188.7880  176.8350  146.2730 C   0  0  0  0  0  2  0  0  0  0  0  0
  189.7610  177.5580  147.1960 C   0  0  0  0  0  2  0  0  0  0  0  0
  187.6240  177.7620  145.8900 C   0  0  1  0  0  3  0  0  0  0  0  0
  185.6630  178.9890  146.8330 C   0  0  0  0  0  2  0  0  0  0  0  0
  189.0320  178.0670  148.4440 C   0  0  0  0  0  2  0  0  0  0  0  0
  186.6760  177.0310  144.9250 C   0  0  2  0  0  3  0  0  0  0  0  0
  187.1710  175.5270  134.8410 C   0  0  0  0  0  2  0  0  0  0  0  0
  187.0190  174.0190  135.0040 C   0  0  0  0  0  2  0  0  0  0  0  0
  185.5940  173.6490  135.3870 C   0  0  2  0  0  3  0  0  0  0  0  0
  186.7100  171.4680  134.8640 C   0  0  0  0  0  1  0  0  0  0  0  0
  185.3790  172.1720  135.1000 C   0  0  0  0  0  2  0  0  0  0  0  0
  184.6500  174.4680  134.6140 N   0  0  0  0  0  2  0  0  0  0  0  0
  183.2530  174.3620  135.0750 C   0  0  0  0  0  0  0  0  0  0  0  0
  182.6310  173.1850  134.5990 O   0  0  0  0  0  1  0  0  0  0  0  0
  182.5690  175.4780  134.5940 O   0  0  0  0  0  1  0  0  0  0  0  0
  181.2050  173.2500  137.2190 C   0  0  0  0  0  0  0  0  0  0  0  0
  180.4560  174.4520  136.7210 C   0  0  0  0  0  2  0  0  0  0  0  0
  183.0770  175.6620  138.7720 C   0  0  0  0  0  1  0  0  0  0  0  0
  181.1020  175.7310  137.2920 C   0  0  0  0  0  2  0  0  0  0  0  0
  182.6580  175.6950  137.3040 C   0  0  0  0  0  0  0  0  0  0  0  0
  180.4790  172.1850  137.9700 C   0  0  0  0  0  1  0  0  0  0  0  0
  183.2270  176.9720  136.6900 C   0  0  0  0  0  1  0  0  0  0  0  0
  182.5000  173.2640  137.2190 N   0  0  0  0  0  0  0  0  0  0  0  0
  183.2160  174.3960  136.6390 C   0  0  1  0  0  3  0  0  0  0  0  0
  1 40  1  6  0  0  0
  1  2  1  0  0  0  0
  1  7  1  0  0  0  0
  2  5  2  0  0  0  0
  3  6  1  0  0  0  0
  3  4  1  0  0  0  0
  3  8  1  1  0  0  0
  4 24  1  1  0  0  0
  5  4  1  0  0  0  0
  7  6  1  0  0  0  0
 10 13  1  0  0  0  0
 11 18  1  0  0  0  0
 11 20  1  0  0  0  0
 13  8  2  0  0  0  0
 13 16  1  0  0  0  0
 14 16  1  0  0  0  0
 15 12  1  6  0  0  0
 15 11  1  0  0  0  0
 17 10  2  0  0  0  0
 17 18  1  0  0  0  0
 18 14  2  0  0  0  0
 19 15  1  0  0  0  0
 19 21  2  0  0  0  0
 21 22  1  0  0  0  0
 22  9  1  6  0  0  0
 22 20  1  0  0  0  0
 23 25  1  0  0  0  0
 24 23  2  0  0  0  0
 25 26  1  0  0  0  0
 26 28  1  0  0  0  0
 27 26  2  0  0  0  0
 28 33  1  0  0  0  0
 29 37  1  6  0  0  0
 29 30  1  0  0  0  0
 30 38  1  0  0  0  0
 32 37  1  0  0  0  0
 33 39  1  0  0  0  0
 33 32  1  0  0  0  0
 34 35  1  0  0  0  0
 35 38  1  0  0  0  0
 36 34  1  1  0  0  0
 36 29  1  0  0  0  0
 39 31  1  6  0  0  0
 39 36  1  0  0  0  0
 40 41  1  0  0  0  0
 42 41  1  6  0  0  0
 43 44  1  0  0  0  0
 44 42  1  0  0  0  0
 45 46  1  0  0  0  0
 45 42  1  0  0  0  0
 47 46  1  0  0  0  0
 48 46  1  0  0  0  0
 49 54  1  0  0  0  0
 50 49  1  0  0  0  0
 50 52  1  0  0  0  0
 52 53  1  0  0  0  0
 53 51  1  0  0  0  0
 55 53  1  0  0  0  0
 56 49  2  0  0  0  0
 57 46  1  6  0  0  0
 57 56  1  0  0  0  0
 57 53  1  0  0  0  0
M  END
>  <MODEL>
1

>  <REMARK>
 VINA RESULT:      -7.3      0.000      0.000
  Name = 
  12 active torsions:
  status: ('A' for Active; 'I' for Inactive)
    1  A    between atoms: N_1  and  C_9
    2  A    between atoms: C_2  and  C_3
    3  A    between atoms: C_2  and  C_22
    4  A    between atoms: N_18  and  C_52
    5  A    between atoms: N_20  and  N_21
    6  A    between atoms: C_22  and  C_28
    7  A    between atoms: C_23  and  N_29
    8  A    between atoms: C_23  and  C_56
    9  A    between atoms: C_26  and  C_52
   10  A    between atoms: C_27  and  C_39
   11  A    between atoms: C_28  and  N_29
   12  A    between atoms: C_28  and  C_40
                            x       y       z     vdW  Elec       q    Type
                         _______ _______ _______ _____ _____    ______ ____

>  <TORSDO>
F 12

$$$$
=
 OpenBabel11042412433D

 57 62  0  0  1  0  0  0  0  0999 V2000
  187.2190  175.6830  135.5100 C   0  0  1  0  0  3  0  0  0  0  0  0
  186.6980  176.4490  136.6870 C   0  0  0  0  0  3  0  0  0  0  0  0
  189.6940  176.4090  136.3990 C   0  0  2  0  0  3  0  0  0  0  0  0
  188.9820  177.4760  137.2390 C   0  0  1  0  0  3  0  0  0  0  0  0
  187.4890  177.2340  137.4490 C   0  0  0  0  0  3  0  0  0  0  0  0
  189.3530  174.9420  136.7120 C   0  0  0  0  0  2  0  0  0  0  0  0
  188.1070  174.4970  135.9280 C   0  0  0  0  0  2  0  0  0  0  0  0
  191.1170  176.6500  136.1630 N   0  0  0  0  0  0  0  0  0  0  0  0
  194.6470  169.6400  137.9530 C   0  0  0  0  0  1  0  0  0  0  0  0
  191.3400  174.4880  135.0890 C   0  0  0  0  0  3  0  0  0  0  0  0
  194.1870  172.2700  135.6000 N   0  0  0  0  0  0  0  0  0  0  0  0
  192.7670  170.4300  134.8110 C   0  0  0  0  0  1  0  0  0  0  0  0
  191.8790  175.7700  135.5910 C   0  0  0  0  0  0  0  0  0  0  0  0
  194.0450  174.6320  135.7460 N   0  0  0  0  0  0  0  0  0  0  0  0
  194.0570  171.2210  134.5930 C   0  0  2  0  0  3  0  0  0  0  0  0
  193.3690  175.9320  135.5830 C   0  0  0  0  0  2  0  0  0  0  0  0
  192.1280  173.4630  134.9640 N   0  0  0  0  0  0  0  0  0  0  0  0
  193.5020  173.5100  135.3710 C   0  0  0  0  0  0  0  0  0  0  0  0
  195.2420  170.3050  134.6590 C   0  0  0  0  0  3  0  0  0  0  0  0
  194.5080  171.9290  136.9870 C   0  0  0  0  0  2  0  0  0  0  0  0
  195.8570  170.0750  135.8280 C   0  0  0  0  0  3  0  0  0  0  0  0
  195.3970  170.6810  137.1310 C   0  0  2  0  0  3  0  0  0  0  0  0
  189.0850  177.3190  139.6530 N   0  0  0  0  0  0  0  0  0  0  0  0
  189.6600  177.7090  138.5560 C   0  0  0  0  0  3  0  0  0  0  0  0
  189.7540  177.4120  140.8900 N   0  0  0  0  0  2  0  0  0  0  0  0
  189.2300  178.1550  141.9980 C   0  0  0  0  0  0  0  0  0  0  0  0
  188.1760  178.8420  141.8870 O   0  0  0  0  0  0  0  0  0  0  0  0
  189.9960  178.1690  143.2930 C   0  0  0  0  0  2  0  0  0  0  0  0
  188.1270  177.1260  146.1890 C   0  0  2  0  0  3  0  0  0  0  0  0
  187.1990  177.9830  147.0470 C   0  0  0  0  0  2  0  0  0  0  0  0
  191.7770  177.5210  145.3700 O   0  0  0  0  0  1  0  0  0  0  0  0
  188.6330  176.2860  143.9090 C   0  0  0  0  0  2  0  0  0  0  0  0
  190.0030  176.8450  143.9380 N   0  0  0  0  0  0  0  0  0  0  0  0
  190.0290  177.6460  147.7040 C   0  0  0  0  0  2  0  0  0  0  0  0
  189.1140  178.4470  148.6220 C   0  0  0  0  0  2  0  0  0  0  0  0
  189.5360  177.7280  146.2520 C   0  0  1  0  0  3  0  0  0  0  0  0
  187.6420  177.0910  144.7530 C   0  0  0  0  0  2  0  0  0  0  0  0
  187.6700  177.9460  148.5030 C   0  0  0  0  0  2  0  0  0  0  0  0
  190.4950  176.9500  145.3350 C   0  0  2  0  0  3  0  0  0  0  0  0
  186.0980  175.2400  134.6090 C   0  0  0  0  0  2  0  0  0  0  0  0
  186.0280  173.7190  134.6690 C   0  0  0  0  0  2  0  0  0  0  0  0
  184.8740  173.2560  135.5440 C   0  0  2  0  0  3  0  0  0  0  0  0
  184.3550  170.8890  136.1810 C   0  0  0  0  0  1  0  0  0  0  0  0
  184.3950  171.9030  135.0440 C   0  0  0  0  0  2  0  0  0  0  0  0
  183.7880  174.2430  135.4860 N   0  0  0  0  0  2  0  0  0  0  0  0
  183.2350  174.6000  136.8060 C   0  0  0  0  0  0  0  0  0  0  0  0
  184.2080  174.5010  137.8270 O   0  0  0  0  0  1  0  0  0  0  0  0
  182.1890  173.7160  137.0730 O   0  0  0  0  0  1  0  0  0  0  0  0
  183.4160  177.0780  138.7690 C   0  0  0  0  0  0  0  0  0  0  0  0
  182.4260  176.2190  139.5010 C   0  0  0  0  0  2  0  0  0  0  0  0
  180.7180  177.6070  136.7260 C   0  0  0  0  0  1  0  0  0  0  0  0
  181.0640  176.2770  138.7780 C   0  0  0  0  0  2  0  0  0  0  0  0
  181.1770  176.2390  137.2250 C   0  0  0  0  0  0  0  0  0  0  0  0
  184.1100  178.1840  139.4900 C   0  0  0  0  0  1  0  0  0  0  0  0
  180.2280  175.1930  136.6450 C   0  0  0  0  0  1  0  0  0  0  0  0
  183.4720  177.0210  137.4770 N   0  0  0  0  0  0  0  0  0  0  0  0
  182.6550  176.0520  136.7540 C   0  0  1  0  0  3  0  0  0  0  0  0
  1 40  1  1  0  0  0
  1  7  1  0  0  0  0
  1  2  1  0  0  0  0
  2  5  2  0  0  0  0
  3  8  1  1  0  0  0
  3  6  1  0  0  0  0
  3  4  1  0  0  0  0
  4  5  1  0  0  0  0
  4 24  1  1  0  0  0
  7  6  1  0  0  0  0
 10 13  1  0  0  0  0
 11 20  1  0  0  0  0
 13  8  2  0  0  0  0
 15 19  1  0  0  0  0
 15 12  1  1  0  0  0
 15 11  1  0  0  0  0
 16 13  1  0  0  0  0
 16 14  1  0  0  0  0
 17 10  2  0  0  0  0
 17 18  1  0  0  0  0
 18 11  1  0  0  0  0
 18 14  2  0  0  0  0
 19 21  2  0  0  0  0
 20 22  1  0  0  0  0
 21 22  1  0  0  0  0
 22  9  1  6  0  0  0
 23 25  1  0  0  0  0
 24 23  2  0  0  0  0
 25 26  1  0  0  0  0
 26 28  1  0  0  0  0
 27 26  2  0  0  0  0
 28 33  1  0  0  0  0
 29 37  1  6  0  0  0
 29 36  1  0  0  0  0
 29 30  1  0  0  0  0
 30 38  1  0  0  0  0
 32 33  1  0  0  0  0
 32 37  1  0  0  0  0
 33 39  1  0  0  0  0
 34 35  1  0  0  0  0
 36 34  1  1  0  0  0
 38 35  1  0  0  0  0
 39 31  1  6  0  0  0
 39 36  1  0  0  0  0
 40 41  1  0  0  0  0
 42 41  1  6  0  0  0
 44 42  1  0  0  0  0
 44 43  1  0  0  0  0
 45 42  1  0  0  0  0
 45 46  1  0  0  0  0
 46 48  1  0  0  0  0
 46 47  1  0  0  0  0
 49 54  1  0  0  0  0
 49 50  1  0  0  0  0
 51 53  1  0  0  0  0
 52 50  1  0  0  0  0
 53 52  1  0  0  0  0
 55 53  1  0  0  0  0
 56 49  2  0  0  0  0
 57 46  1  1  0  0  0
 57 53  1  0  0  0  0
 57 56  1  0  0  0  0
M  END
>  <MODEL>
2

>  <REMARK>
 VINA RESULT:      -7.0      1.952      2.814
  Name = 
  12 active torsions:
  status: ('A' for Active; 'I' for Inactive)
    1  A    between atoms: N_1  and  C_9
    2  A    between atoms: C_2  and  C_3
    3  A    between atoms: C_2  and  C_22
    4  A    between atoms: N_18  and  C_52
    5  A    between atoms: N_20  and  N_21
    6  A    between atoms: C_22  and  C_28
    7  A    between atoms: C_23  and  N_29
    8  A    between atoms: C_23  and  C_56
    9  A    between atoms: C_26  and  C_52
   10  A    between atoms: C_27  and  C_39
   11  A    between atoms: C_28  and  N_29
   12  A    between atoms: C_28  and  C_40
                            x       y       z     vdW  Elec       q    Type
                         _______ _______ _______ _____ _____    ______ ____

>  <TORSDO>
F 12

$$$$
=
 OpenBabel11042412433D

 57 62  0  0  1  0  0  0  0  0999 V2000
  189.1340  174.4970  136.3160 C   0  0  1  0  0  3  0  0  0  0  0  0
  188.8450  175.0240  134.9450 C   0  0  0  0  0  3  0  0  0  0  0  0
  187.3380  176.3590  137.1820 C   0  0  2  0  0  3  0  0  0  0  0  0
  187.5160  177.0360  135.8170 C   0  0  1  0  0  3  0  0  0  0  0  0
  188.1220  176.1450  134.7350 C   0  0  0  0  0  3  0  0  0  0  0  0
  186.7640  174.9320  137.1760 C   0  0  0  0  0  2  0  0  0  0  0  0
  187.8870  173.8970  136.9900 C   0  0  0  0  0  2  0  0  0  0  0  0
  186.7900  177.2150  138.2330 N   0  0  0  0  0  0  0  0  0  0  0  0
  191.1640  175.4130  144.7470 C   0  0  0  0  0  1  0  0  0  0  0  0
  189.0230  177.7260  139.0280 C   0  0  0  0  0  3  0  0  0  0  0  0
  189.9090  177.9230  142.5590 N   0  0  0  0  0  0  0  0  0  0  0  0
  192.2440  177.5780  141.8880 C   0  0  0  0  0  1  0  0  0  0  0  0
  187.5490  177.8200  139.0930 C   0  0  0  0  0  0  0  0  0  0  0  0
  187.8320  178.3080  141.4790 N   0  0  0  0  0  0  0  0  0  0  0  0
  191.2490  178.4970  142.5980 C   0  0  2  0  0  3  0  0  0  0  0  0
  186.9630  178.4840  140.3020 C   0  0  0  0  0  2  0  0  0  0  0  0
  189.7300  177.9130  140.1020 N   0  0  0  0  0  0  0  0  0  0  0  0
  189.1190  178.1390  141.3790 C   0  0  0  0  0  0  0  0  0  0  0  0
  191.6680  178.7100  144.0220 C   0  0  0  0  0  3  0  0  0  0  0  0
  189.5780  176.7570  143.3810 C   0  0  0  0  0  2  0  0  0  0  0  0
  191.2360  177.8850  144.9860 C   0  0  0  0  0  3  0  0  0  0  0  0
  190.3440  176.6980  144.7130 C   0  0  2  0  0  3  0  0  0  0  0  0
  185.2620  176.9040  134.9460 N   0  0  0  0  0  0  0  0  0  0  0  0
  186.2470  177.6610  135.3220 C   0  0  0  0  0  3  0  0  0  0  0  0
  184.0160  177.4620  134.5960 N   0  0  0  0  0  2  0  0  0  0  0  0
  182.7990  177.1260  135.2750 C   0  0  0  0  0  0  0  0  0  0  0  0
  182.7740  176.2360  136.1710 O   0  0  0  0  0  0  0  0  0  0  0  0
  181.5210  177.7990  134.8560 C   0  0  0  0  0  2  0  0  0  0  0  0
  179.1840  180.4760  135.4370 C   0  0  2  0  0  3  0  0  0  0  0  0
  178.9940  181.7360  134.5940 C   0  0  0  0  0  2  0  0  0  0  0  0
  182.2190  179.1500  137.2200 O   0  0  0  0  0  1  0  0  0  0  0  0
  179.2020  177.9940  135.4590 C   0  0  0  0  0  2  0  0  0  0  0  0
  180.5850  177.9460  135.9820 N   0  0  0  0  0  0  0  0  0  0  0  0
  180.8020  181.6810  136.8930 C   0  0  0  0  0  2  0  0  0  0  0  0
  180.5780  182.9730  136.1170 C   0  0  0  0  0  2  0  0  0  0  0  0
  180.6220  180.4660  135.9710 C   0  0  1  0  0  3  0  0  0  0  0  0
  178.9310  179.2360  134.6040 C   0  0  0  0  0  2  0  0  0  0  0  0
  179.1880  182.9740  135.4730 C   0  0  0  0  0  2  0  0  0  0  0  0
  180.8940  179.1730  136.7590 C   0  0  2  0  0  3  0  0  0  0  0  0
  190.2740  173.5130  136.2940 C   0  0  0  0  0  2  0  0  0  0  0  0
  191.3790  174.1050  135.4280 C   0  0  0  0  0  2  0  0  0  0  0  0
  192.5420  174.5930  136.2780 C   0  0  2  0  0  3  0  0  0  0  0  0
  192.1170  176.0170  138.2960 C   0  0  0  0  0  1  0  0  0  0  0  0
  192.2290  175.9940  136.7760 C   0  0  0  0  0  2  0  0  0  0  0  0
  193.7710  174.5920  135.4730 N   0  0  0  0  0  2  0  0  0  0  0  0
  195.0020  174.4220  136.2670 C   0  0  0  0  0  0  0  0  0  0  0  0
  194.7200  174.0730  137.6070 O   0  0  0  0  0  1  0  0  0  0  0  0
  195.6900  175.6360  136.2370 O   0  0  0  0  0  1  0  0  0  0  0  0
  194.4880  171.4160  135.4140 C   0  0  0  0  0  0  0  0  0  0  0  0
  194.6080  171.2630  136.9020 C   0  0  0  0  0  2  0  0  0  0  0  0
  197.8790  171.8250  135.6670 C   0  0  0  0  0  1  0  0  0  0  0  0
  196.0890  171.3990  137.3140 C   0  0  0  0  0  2  0  0  0  0  0  0
  196.8500  172.5230  136.5510 C   0  0  0  0  0  0  0  0  0  0  0  0
  193.8650  170.3270  134.6070 C   0  0  0  0  0  1  0  0  0  0  0  0
  197.6100  173.4130  137.5310 C   0  0  0  0  0  1  0  0  0  0  0  0
  195.1440  172.3610  134.8180 N   0  0  0  0  0  0  0  0  0  0  0  0
  195.9030  173.3280  135.6040 C   0  0  1  0  0  3  0  0  0  0  0  0
  1 40  1  6  0  0  0
  1  7  1  0  0  0  0
  2  1  1  0  0  0  0
  3  8  1  1  0  0  0
  4 24  1  6  0  0  0
  4  3  1  0  0  0  0
  5  2  2  0  0  0  0
  5  4  1  0  0  0  0
  6  3  1  0  0  0  0
  7  6  1  0  0  0  0
  8 13  2  0  0  0  0
 10 13  1  0  0  0  0
 10 17  2  0  0  0  0
 11 15  1  0  0  0  0
 11 20  1  0  0  0  0
 13 16  1  0  0  0  0
 15 12  1  1  0  0  0
 15 19  1  0  0  0  0
 16 14  1  0  0  0  0
 17 18  1  0  0  0  0
 18 14  2  0  0  0  0
 18 11  1  0  0  0  0
 19 21  2  0  0  0  0
 20 22  1  0  0  0  0
 22  9  1  6  0  0  0
 22 21  1  0  0  0  0
 23 24  2  0  0  0  0
 25 23  1  0  0  0  0
 25 26  1  0  0  0  0
 26 27  2  0  0  0  0
 28 26  1  0  0  0  0
 28 33  1  0  0  0  0
 29 30  1  6  0  0  0
 29 36  1  0  0  0  0
 30 38  1  0  0  0  0
 32 33  1  0  0  0  0
 33 39  1  0  0  0  0
 35 34  1  0  0  0  0
 36 39  1  0  0  0  0
 36 34  1  1  0  0  0
 37 29  1  0  0  0  0
 37 32  1  0  0  0  0
 38 35  1  0  0  0  0
 39 31  1  6  0  0  0
 41 40  1  0  0  0  0
 42 41  1  6  0  0  0
 42 44  1  0  0  0  0
 44 43  1  0  0  0  0
 45 46  1  0  0  0  0
 45 42  1  0  0  0  0
 46 47  1  0  0  0  0
 48 46  1  0  0  0  0
 49 50  1  0  0  0  0
 50 52  1  0  0  0  0
 51 53  1  0  0  0  0
 53 52  1  0  0  0  0
 53 55  1  0  0  0  0
 54 49  1  0  0  0  0
 56 49  2  0  0  0  0
 56 57  1  0  0  0  0
 57 46  1  1  0  0  0
 57 53  1  0  0  0  0
M  END
>  <MODEL>
3

>  <REMARK>
 VINA RESULT:      -6.1      3.589     10.191
  Name = 
  12 active torsions:
  status: ('A' for Active; 'I' for Inactive)
    1  A    between atoms: N_1  and  C_9
    2  A    between atoms: C_2  and  C_3
    3  A    between atoms: C_2  and  C_22
    4  A    between atoms: N_18  and  C_52
    5  A    between atoms: N_20  and  N_21
    6  A    between atoms: C_22  and  C_28
    7  A    between atoms: C_23  and  N_29
    8  A    between atoms: C_23  and  C_56
    9  A    between atoms: C_26  and  C_52
   10  A    between atoms: C_27  and  C_39
   11  A    between atoms: C_28  and  N_29
   12  A    between atoms: C_28  and  C_40
                            x       y       z     vdW  Elec       q    Type
                         _______ _______ _______ _____ _____    ______ ____

>  <TORSDO>
F 12

$$$$
=
 OpenBabel11042412433D

 57 62  0  0  1  0  0  0  0  0999 V2000
  186.9640  178.1410  138.3140 C   0  0  1  0  0  3  0  0  0  0  0  0
  187.8570  178.9860  137.4580 C   0  0  0  0  0  3  0  0  0  0  0  0
  188.3100  176.0170  137.2560 C   0  0  2  0  0  3  0  0  0  0  0  0
  188.7900  176.9790  136.1620 C   0  0  1  0  0  3  0  0  0  0  0  0
  188.6650  178.4600  136.5130 C   0  0  0  0  0  3  0  0  0  0  0  0
  188.7400  176.3390  138.6970 C   0  0  0  0  0  2  0  0  0  0  0  0
  187.7510  177.3200  139.3510 C   0  0  0  0  0  2  0  0  0  0  0  0
  188.3930  174.5970  136.9150 N   0  0  0  0  0  0  0  0  0  0  0  0
  180.8770  171.8770  137.8790 C   0  0  0  0  0  1  0  0  0  0  0  0
  186.3160  174.7390  135.6720 C   0  0  0  0  0  3  0  0  0  0  0  0
  183.7290  172.1730  135.7710 N   0  0  0  0  0  0  0  0  0  0  0  0
  182.1500  173.8760  134.9790 C   0  0  0  0  0  1  0  0  0  0  0  0
  187.4760  174.0030  136.2170 C   0  0  0  0  0  0  0  0  0  0  0  0
  186.0710  171.9960  136.0990 N   0  0  0  0  0  0  0  0  0  0  0  0
  182.7920  172.5150  134.7070 C   0  0  2  0  0  3  0  0  0  0  0  0
  187.4540  172.5090  136.0910 C   0  0  0  0  0  2  0  0  0  0  0  0
  185.2150  174.1030  135.4060 N   0  0  0  0  0  0  0  0  0  0  0  0
  185.0590  172.7070  135.6940 C   0  0  0  0  0  0  0  0  0  0  0  0
  181.7350  171.4570  134.6030 C   0  0  0  0  0  3  0  0  0  0  0  0
  183.2380  171.7920  137.0970 C   0  0  0  0  0  2  0  0  0  0  0  0
  181.3350  170.7890  135.6940 C   0  0  0  0  0  3  0  0  0  0  0  0
  181.8830  171.0640  137.0720 C   0  0  2  0  0  3  0  0  0  0  0  0
  191.1610  176.6980  136.5580 N   0  0  0  0  0  0  0  0  0  0  0  0
  190.1830  176.6690  135.7040 C   0  0  0  0  0  3  0  0  0  0  0  0
  192.4570  176.2900  136.1830 N   0  0  0  0  0  2  0  0  0  0  0  0
  193.3910  175.7280  137.1150 C   0  0  0  0  0  0  0  0  0  0  0  0
  193.1230  175.6530  138.3460 O   0  0  0  0  0  0  0  0  0  0  0  0
  194.7410  175.2890  136.6170 C   0  0  0  0  0  2  0  0  0  0  0  0
  196.0160  171.9210  136.5490 C   0  0  2  0  0  3  0  0  0  0  0  0
  196.8420  171.2250  137.6280 C   0  0  0  0  0  2  0  0  0  0  0  0
  196.6800  175.0650  134.5940 O   0  0  0  0  0  1  0  0  0  0  0  0
  193.9050  173.1150  136.0200 C   0  0  0  0  0  2  0  0  0  0  0  0
  194.6280  174.3070  135.5250 N   0  0  0  0  0  0  0  0  0  0  0  0
  198.1010  172.6480  135.4030 C   0  0  0  0  0  2  0  0  0  0  0  0
  198.9520  171.9000  136.4220 C   0  0  0  0  0  2  0  0  0  0  0  0
  196.8000  173.1430  136.0530 C   0  0  1  0  0  3  0  0  0  0  0  0
  194.6750  172.3570  137.1040 C   0  0  0  0  0  2  0  0  0  0  0  0
  198.1610  170.7340  137.0240 C   0  0  0  0  0  2  0  0  0  0  0  0
  195.9740  173.9310  135.0220 C   0  0  2  0  0  3  0  0  0  0  0  0
  185.8920  178.9710  138.9680 C   0  0  0  0  0  2  0  0  0  0  0  0
  185.9940  178.7560  140.4730 C   0  0  0  0  0  2  0  0  0  0  0  0
  184.6620  179.0200  141.1580 C   0  0  2  0  0  3  0  0  0  0  0  0
  184.5120  178.2120  143.5250 C   0  0  0  0  0  1  0  0  0  0  0  0
  184.9210  179.3640  142.6150 C   0  0  0  0  0  2  0  0  0  0  0  0
  183.8110  177.8260  141.0520 N   0  0  0  0  0  2  0  0  0  0  0  0
  182.5290  178.0670  140.3650 C   0  0  0  0  0  0  0  0  0  0  0  0
  181.8230  179.1520  140.9350 O   0  0  0  0  0  1  0  0  0  0  0  0
  181.7680  176.9040  140.4810 O   0  0  0  0  0  1  0  0  0  0  0  0
  180.8440  179.4850  138.0890 C   0  0  0  0  0  0  0  0  0  0  0  0
  180.1140  178.1780  138.1990 C   0  0  0  0  0  2  0  0  0  0  0  0
  183.1660  177.5020  136.5360 C   0  0  0  0  0  1  0  0  0  0  0  0
  180.9570  177.0620  137.5480 C   0  0  0  0  0  2  0  0  0  0  0  0
  182.4790  177.1670  137.8570 C   0  0  0  0  0  0  0  0  0  0  0  0
  180.1910  180.6420  137.4120 C   0  0  0  0  0  1  0  0  0  0  0  0
  183.0220  175.8220  138.3320 C   0  0  0  0  0  1  0  0  0  0  0  0
  182.1120  179.5260  138.3490 N   0  0  0  0  0  0  0  0  0  0  0  0
  182.7930  178.3350  138.8460 C   0  0  1  0  0  3  0  0  0  0  0  0
  1 40  1  1  0  0  0
  1  7  1  0  0  0  0
  2  1  1  0  0  0  0
  3  8  1  6  0  0  0
  3  6  1  0  0  0  0
  4 24  1  1  0  0  0
  4  5  1  0  0  0  0
  4  3  1  0  0  0  0
  5  2  2  0  0  0  0
  6  7  1  0  0  0  0
 10 13  1  0  0  0  0
 11 20  1  0  0  0  0
 13  8  2  0  0  0  0
 15 12  1  1  0  0  0
 15 11  1  0  0  0  0
 16 14  1  0  0  0  0
 16 13  1  0  0  0  0
 17 10  2  0  0  0  0
 17 18  1  0  0  0  0
 18 11  1  0  0  0  0
 18 14  2  0  0  0  0
 19 15  1  0  0  0  0
 19 21  2  0  0  0  0
 21 22  1  0  0  0  0
 22 20  1  0  0  0  0
 22  9  1  1  0  0  0
 24 23  2  0  0  0  0
 25 23  1  0  0  0  0
 25 26  1  0  0  0  0
 26 27  2  0  0  0  0
 28 26  1  0  0  0  0
 29 37  1  1  0  0  0
 29 30  1  0  0  0  0
 32 37  1  0  0  0  0
 33 32  1  0  0  0  0
 33 28  1  0  0  0  0
 34 35  1  0  0  0  0
 35 38  1  0  0  0  0
 36 34  1  6  0  0  0
 36 29  1  0  0  0  0
 38 30  1  0  0  0  0
 39 31  1  1  0  0  0
 39 33  1  0  0  0  0
 39 36  1  0  0  0  0
 40 41  1  0  0  0  0
 42 41  1  6  0  0  0
 42 44  1  0  0  0  0
 44 43  1  0  0  0  0
 45 42  1  0  0  0  0
 46 48  1  0  0  0  0
 46 47  1  0  0  0  0
 46 45  1  0  0  0  0
 49 50  1  0  0  0  0
 49 56  2  0  0  0  0
 51 53  1  0  0  0  0
 52 53  1  0  0  0  0
 52 50  1  0  0  0  0
 53 55  1  0  0  0  0
 53 57  1  0  0  0  0
 54 49  1  0  0  0  0
 56 57  1  0  0  0  0
 57 46  1  1  0  0  0
M  END
>  <MODEL>
4

>  <REMARK>
 VINA RESULT:      -5.7      2.958      9.720
  Name = 
  12 active torsions:
  status: ('A' for Active; 'I' for Inactive)
    1  A    between atoms: N_1  and  C_9
    2  A    between atoms: C_2  and  C_3
    3  A    between atoms: C_2  and  C_22
    4  A    between atoms: N_18  and  C_52
    5  A    between atoms: N_20  and  N_21
    6  A    between atoms: C_22  and  C_28
    7  A    between atoms: C_23  and  N_29
    8  A    between atoms: C_23  and  C_56
    9  A    between atoms: C_26  and  C_52
   10  A    between atoms: C_27  and  C_39
   11  A    between atoms: C_28  and  N_29
   12  A    between atoms: C_28  and  C_40
                            x       y       z     vdW  Elec       q    Type
                         _______ _______ _______ _____ _____    ______ ____

>  <TORSDO>
F 12

$$$$
=
 OpenBabel11042412433D

 57 62  0  0  1  0  0  0  0  0999 V2000
  187.0100  177.8910  137.6310 C   0  0  1  0  0  3  0  0  0  0  0  0
  187.9720  178.5530  136.6930 C   0  0  0  0  0  3  0  0  0  0  0  0
  188.1600  175.5520  136.8260 C   0  0  2  0  0  3  0  0  0  0  0  0
  188.7210  176.3400  135.6360 C   0  0  1  0  0  3  0  0  0  0  0  0
  188.7290  177.8560  135.8200 C   0  0  0  0  0  3  0  0  0  0  0  0
  188.6200  175.9930  138.2260 C   0  0  0  0  0  2  0  0  0  0  0  0
  187.7230  177.1240  138.7590 C   0  0  0  0  0  2  0  0  0  0  0  0
  188.1160  174.1010  136.6460 N   0  0  0  0  0  0  0  0  0  0  0  0
  180.3810  172.1860  137.7920 C   0  0  0  0  0  1  0  0  0  0  0  0
  186.0660  174.2890  135.3640 C   0  0  0  0  0  3  0  0  0  0  0  0
  183.2580  171.9900  135.7070 N   0  0  0  0  0  0  0  0  0  0  0  0
  181.8440  173.7280  134.7080 C   0  0  0  0  0  1  0  0  0  0  0  0
  187.1530  173.5170  136.0040 C   0  0  0  0  0  0  0  0  0  0  0  0
  185.5730  171.6430  136.0880 N   0  0  0  0  0  0  0  0  0  0  0  0
  182.3610  172.2940  134.5980 C   0  0  2  0  0  3  0  0  0  0  0  0
  186.9960  172.0270  136.0440 C   0  0  0  0  0  2  0  0  0  0  0  0
  184.9140  173.7270  135.1530 N   0  0  0  0  0  0  0  0  0  0  0  0
  184.6320  172.3920  135.5910 C   0  0  0  0  0  0  0  0  0  0  0  0
  181.2130  171.3290  134.5960 C   0  0  0  0  0  3  0  0  0  0  0  0
  182.7280  171.8050  137.0600 C   0  0  0  0  0  2  0  0  0  0  0  0
  180.7490  170.8250  135.7470 C   0  0  0  0  0  3  0  0  0  0  0  0
  181.3130  171.2020  137.0950 C   0  0  2  0  0  3  0  0  0  0  0  0
  191.1380  176.3890  135.7630 N   0  0  0  0  0  0  0  0  0  0  0  0
  190.0810  175.8600  135.2270 C   0  0  0  0  0  3  0  0  0  0  0  0
  192.4210  175.8730  135.4900 N   0  0  0  0  0  2  0  0  0  0  0  0
  193.5540  176.1350  136.3280 C   0  0  0  0  0  0  0  0  0  0  0  0
  193.4730  176.9230  137.3110 O   0  0  0  0  0  0  0  0  0  0  0  0
  194.8780  175.5130  135.9780 C   0  0  0  0  0  2  0  0  0  0  0  0
  196.2680  174.4920  139.1390 C   0  0  2  0  0  3  0  0  0  0  0  0
  196.9160  175.3850  140.1950 C   0  0  0  0  0  2  0  0  0  0  0  0
  197.1500  173.9200  135.5270 O   0  0  0  0  0  1  0  0  0  0  0  0
  194.2410  174.0510  137.7770 C   0  0  0  0  0  2  0  0  0  0  0  0
  194.9960  174.1440  136.5080 N   0  0  0  0  0  0  0  0  0  0  0  0
  198.4940  174.0650  138.1150 C   0  0  0  0  0  2  0  0  0  0  0  0
  199.1800  174.8900  139.1970 C   0  0  0  0  0  2  0  0  0  0  0  0
  197.0820  174.6060  137.8440 C   0  0  1  0  0  3  0  0  0  0  0  0
  194.8350  174.9170  138.8900 C   0  0  0  0  0  2  0  0  0  0  0  0
  198.3380  174.8930  140.4780 C   0  0  0  0  0  2  0  0  0  0  0  0
  196.4220  173.7890  136.7200 C   0  0  2  0  0  3  0  0  0  0  0  0
  186.0170  178.8800  138.1800 C   0  0  0  0  0  2  0  0  0  0  0  0
  185.7810  178.5340  139.6460 C   0  0  0  0  0  2  0  0  0  0  0  0
  184.3470  178.8300  140.0560 C   0  0  2  0  0  3  0  0  0  0  0  0
  185.3960  178.2950  142.2680 C   0  0  0  0  0  1  0  0  0  0  0  0
  184.1110  178.2660  141.4480 C   0  0  0  0  0  2  0  0  0  0  0  0
  183.4240  178.2200  139.0880 N   0  0  0  0  0  2  0  0  0  0  0  0
  182.1770  178.9810  138.8930 C   0  0  0  0  0  0  0  0  0  0  0  0
  182.3820  180.1300  138.0950 O   0  0  0  0  0  1  0  0  0  0  0  0
  181.7210  179.3660  140.1540 O   0  0  0  0  0  1  0  0  0  0  0  0
  180.8060  176.2740  139.7970 C   0  0  0  0  0  0  0  0  0  0  0  0
  182.1530  175.7700  139.3700 C   0  0  0  0  0  2  0  0  0  0  0  0
  180.3700  176.5410  136.4100 C   0  0  0  0  0  1  0  0  0  0  0  0
  182.2390  175.7740  137.8300 C   0  0  0  0  0  2  0  0  0  0  0  0
  181.5990  177.0310  137.1710 C   0  0  0  0  0  0  0  0  0  0  0  0
  179.9350  175.4200  140.6560 C   0  0  0  0  0  1  0  0  0  0  0  0
  182.5570  177.6480  136.1550 C   0  0  0  0  0  1  0  0  0  0  0  0
  180.3070  177.3190  139.2170 N   0  0  0  0  0  0  0  0  0  0  0  0
  181.0980  178.0570  138.2380 C   0  0  1  0  0  3  0  0  0  0  0  0
  1 40  1  1  0  0  0
  1  7  1  0  0  0  0
  2  1  1  0  0  0  0
  3  8  1  6  0  0  0
  3  6  1  0  0  0  0
  4 24  1  1  0  0  0
  4  5  1  0  0  0  0
  4  3  1  0  0  0  0
  5  2  2  0  0  0  0
  6  7  1  0  0  0  0
 10 13  1  0  0  0  0
 11 20  1  0  0  0  0
 13 16  1  0  0  0  0
 13  8  2  0  0  0  0
 15 12  1  1  0  0  0
 15 11  1  0  0  0  0
 16 14  1  0  0  0  0
 17 10  2  0  0  0  0
 17 18  1  0  0  0  0
 18 11  1  0  0  0  0
 18 14  2  0  0  0  0
 19 15  1  0  0  0  0
 19 21  2  0  0  0  0
 20 22  1  0  0  0  0
 21 22  1  0  0  0  0
 22  9  1  6  0  0  0
 24 23  2  0  0  0  0
 25 23  1  0  0  0  0
 25 26  1  0  0  0  0
 26 27  2  0  0  0  0
 28 26  1  0  0  0  0
 28 33  1  0  0  0  0
 29 37  1  6  0  0  0
 29 30  1  0  0  0  0
 30 38  1  0  0  0  0
 32 37  1  0  0  0  0
 33 39  1  0  0  0  0
 33 32  1  0  0  0  0
 34 35  1  0  0  0  0
 35 38  1  0  0  0  0
 36 34  1  1  0  0  0
 36 29  1  0  0  0  0
 39 31  1  6  0  0  0
 39 36  1  0  0  0  0
 40 41  1  0  0  0  0
 42 41  1  6  0  0  0
 42 44  1  0  0  0  0
 44 43  1  0  0  0  0
 45 42  1  0  0  0  0
 46 45  1  0  0  0  0
 46 48  1  0  0  0  0
 47 46  1  0  0  0  0
 49 54  1  0  0  0  0
 50 49  1  0  0  0  0
 51 53  1  0  0  0  0
 52 50  1  0  0  0  0
 53 52  1  0  0  0  0
 53 57  1  0  0  0  0
 55 53  1  0  0  0  0
 56 49  2  0  0  0  0
 57 46  1  1  0  0  0
 57 56  1  0  0  0  0
M  END
>  <MODEL>
5

>  <REMARK>
 VINA RESULT:      -5.6      3.257      9.211
  Name = 
  12 active torsions:
  status: ('A' for Active; 'I' for Inactive)
    1  A    between atoms: N_1  and  C_9
    2  A    between atoms: C_2  and  C_3
    3  A    between atoms: C_2  and  C_22
    4  A    between atoms: N_18  and  C_52
    5  A    between atoms: N_20  and  N_21
    6  A    between atoms: C_22  and  C_28
    7  A    between atoms: C_23  and  N_29
    8  A    between atoms: C_23  and  C_56
    9  A    between atoms: C_26  and  C_52
   10  A    between atoms: C_27  and  C_39
   11  A    between atoms: C_28  and  N_29
   12  A    between atoms: C_28  and  C_40
                            x       y       z     vdW  Elec       q    Type
                         _______ _______ _______ _____ _____    ______ ____

>  <TORSDO>
F 12

$$$$
=
 OpenBabel11042412433D

 57 62  0  0  1  0  0  0  0  0999 V2000
  181.2630  178.7610  141.4280 C   0  0  1  0  0  3  0  0  0  0  0  0
  181.3120  178.9440  142.9140 C   0  0  0  0  0  3  0  0  0  0  0  0
  183.9780  178.9990  141.5190 C   0  0  2  0  0  3  0  0  0  0  0  0
  183.7900  179.6020  142.9170 C   0  0  1  0  0  3  0  0  0  0  0  0
  182.4380  179.3100  143.5630 C   0  0  0  0  0  3  0  0  0  0  0  0
  183.5130  177.5470  141.3250 C   0  0  0  0  0  2  0  0  0  0  0  0
  182.0170  177.5010  140.9670 C   0  0  0  0  0  2  0  0  0  0  0  0
  185.2580  179.3030  140.8790 N   0  0  0  0  0  0  0  0  0  0  0  0
  187.1220  172.5730  136.8720 C   0  0  0  0  0  1  0  0  0  0  0  0
  184.5230  178.2350  138.8290 C   0  0  0  0  0  3  0  0  0  0  0  0
  186.6620  176.1010  136.7900 N   0  0  0  0  0  0  0  0  0  0  0  0
  184.6190  175.1530  135.8180 C   0  0  0  0  0  1  0  0  0  0  0  0
  185.5220  178.9360  139.6630 C   0  0  0  0  0  0  0  0  0  0  0  0
  187.2250  177.8910  138.2410 N   0  0  0  0  0  0  0  0  0  0  0  0
  185.9330  175.8840  135.5460 C   0  0  2  0  0  3  0  0  0  0  0  0
  186.9140  179.0360  139.1170 C   0  0  0  0  0  2  0  0  0  0  0  0
  184.9160  177.4800  137.8490 N   0  0  0  0  0  0  0  0  0  0  0  0
  186.3060  177.2400  137.5890 C   0  0  0  0  0  0  0  0  0  0  0  0
  186.7780  175.0910  134.5940 C   0  0  0  0  0  3  0  0  0  0  0  0
  187.3090  174.9800  137.4750 C   0  0  0  0  0  2  0  0  0  0  0  0
  187.6500  174.1850  135.0570 C   0  0  0  0  0  3  0  0  0  0  0  0
  187.8200  173.8830  136.5250 C   0  0  2  0  0  3  0  0  0  0  0  0
  185.1050  177.9820  144.1450 N   0  0  0  0  0  0  0  0  0  0  0  0
  184.9020  179.2300  143.8510 C   0  0  0  0  0  3  0  0  0  0  0  0
  186.2170  177.5930  144.9180 N   0  0  0  0  0  2  0  0  0  0  0  0
  186.4530  178.0960  146.2400 C   0  0  0  0  0  0  0  0  0  0  0  0
  185.7150  178.9880  146.7430 O   0  0  0  0  0  0  0  0  0  0  0  0
  187.6490  177.5970  147.0050 C   0  0  0  0  0  2  0  0  0  0  0  0
  191.0010  176.9200  145.8760 C   0  0  2  0  0  3  0  0  0  0  0  0
  191.5710  175.5750  145.4290 C   0  0  0  0  0  2  0  0  0  0  0  0
  189.4440  177.9650  149.1370 O   0  0  0  0  0  1  0  0  0  0  0  0
  189.2360  178.6300  145.5240 C   0  0  0  0  0  2  0  0  0  0  0  0
  188.7790  178.5380  146.9280 N   0  0  0  0  0  0  0  0  0  0  0  0
  191.7830  176.4930  148.1980 C   0  0  0  0  0  2  0  0  0  0  0  0
  192.4270  175.1800  147.7680 C   0  0  0  0  0  2  0  0  0  0  0  0
  190.5470  176.7900  147.3360 C   0  0  1  0  0  3  0  0  0  0  0  0
  189.8280  177.3180  145.0030 C   0  0  0  0  0  2  0  0  0  0  0  0
  192.7940  175.2300  146.2810 C   0  0  0  0  0  2  0  0  0  0  0  0
  189.8870  178.0950  147.8120 C   0  0  2  0  0  3  0  0  0  0  0  0
  179.8440  178.7680  140.9250 C   0  0  0  0  0  2  0  0  0  0  0  0
  179.7370  179.8510  139.8590 C   0  0  0  0  0  2  0  0  0  0  0  0
  180.2970  179.3700  138.5280 C   0  0  2  0  0  3  0  0  0  0  0  0
  180.2520  181.8640  138.2970 C   0  0  0  0  0  1  0  0  0  0  0  0
  180.3070  180.5350  137.5530 C   0  0  0  0  0  2  0  0  0  0  0  0
  179.4660  178.2720  138.0150 N   0  0  0  0  0  2  0  0  0  0  0  0
  180.1440  177.4300  137.0130 C   0  0  0  0  0  0  0  0  0  0  0  0
  181.5190  177.2730  137.3020 O   0  0  0  0  0  1  0  0  0  0  0  0
  179.9970  178.0550  135.7740 O   0  0  0  0  0  1  0  0  0  0  0  0
  179.7450  175.1040  139.1240 C   0  0  0  0  0  0  0  0  0  0  0  0
  181.1890  174.9060  138.7670 C   0  0  0  0  0  2  0  0  0  0  0  0
  179.2890  173.7340  136.0180 C   0  0  0  0  0  1  0  0  0  0  0  0
  181.2880  174.2700  137.3650 C   0  0  0  0  0  2  0  0  0  0  0  0
  180.2730  174.8550  136.3390 C   0  0  0  0  0  0  0  0  0  0  0  0
  179.1990  174.4840  140.3670 C   0  0  0  0  0  1  0  0  0  0  0  0
  180.9830  175.2330  135.0410 C   0  0  0  0  0  1  0  0  0  0  0  0
  178.9320  175.5870  138.2390 N   0  0  0  0  0  0  0  0  0  0  0  0
  179.4450  176.0320  136.9470 C   0  0  1  0  0  3  0  0  0  0  0  0
  1 40  1  1  0  0  0
  1  2  1  0  0  0  0
  2  5  2  0  0  0  0
  3  8  1  1  0  0  0
  3  4  1  0  0  0  0
  4  5  1  0  0  0  0
  4 24  1  1  0  0  0
  6  3  1  0  0  0  0
  7  6  1  0  0  0  0
  7  1  1  0  0  0  0
 10 13  1  0  0  0  0
 11 20  1  0  0  0  0
 11 18  1  0  0  0  0
 13  8  2  0  0  0  0
 14 16  1  0  0  0  0
 15 12  1  1  0  0  0
 15 11  1  0  0  0  0
 16 13  1  0  0  0  0
 17 10  2  0  0  0  0
 18 17  1  0  0  0  0
 18 14  2  0  0  0  0
 19 21  2  0  0  0  0
 19 15  1  0  0  0  0
 21 22  1  0  0  0  0
 22  9  1  1  0  0  0
 22 20  1  0  0  0  0
 23 25  1  0  0  0  0
 24 23  2  0  0  0  0
 25 26  1  0  0  0  0
 26 27  2  0  0  0  0
 26 28  1  0  0  0  0
 29 37  1  6  0  0  0
 29 36  1  0  0  0  0
 30 29  1  0  0  0  0
 30 38  1  0  0  0  0
 32 33  1  0  0  0  0
 33 28  1  0  0  0  0
 33 39  1  0  0  0  0
 35 34  1  0  0  0  0
 36 39  1  0  0  0  0
 36 34  1  1  0  0  0
 37 32  1  0  0  0  0
 38 35  1  0  0  0  0
 39 31  1  1  0  0  0
 41 40  1  0  0  0  0
 42 44  1  6  0  0  0
 42 41  1  0  0  0  0
 44 43  1  0  0  0  0
 45 42  1  0  0  0  0
 46 47  1  0  0  0  0
 46 45  1  0  0  0  0
 48 46  1  0  0  0  0
 49 54  1  0  0  0  0
 50 49  1  0  0  0  0
 51 53  1  0  0  0  0
 52 50  1  0  0  0  0
 53 57  1  0  0  0  0
 53 52  1  0  0  0  0
 55 53  1  0  0  0  0
 56 49  2  0  0  0  0
 57 46  1  1  0  0  0
 57 56  1  0  0  0  0
M  END
>  <MODEL>
6

>  <REMARK>
 VINA RESULT:      -5.5      3.988      6.601
  Name = 
  12 active torsions:
  status: ('A' for Active; 'I' for Inactive)
    1  A    between atoms: N_1  and  C_9
    2  A    between atoms: C_2  and  C_3
    3  A    between atoms: C_2  and  C_22
    4  A    between atoms: N_18  and  C_52
    5  A    between atoms: N_20  and  N_21
    6  A    between atoms: C_22  and  C_28
    7  A    between atoms: C_23  and  N_29
    8  A    between atoms: C_23  and  C_56
    9  A    between atoms: C_26  and  C_52
   10  A    between atoms: C_27  and  C_39
   11  A    between atoms: C_28  and  N_29
   12  A    between atoms: C_28  and  C_40
                            x       y       z     vdW  Elec       q    Type
                         _______ _______ _______ _____ _____    ______ ____

>  <TORSDO>
F 12

$$$$
=
 OpenBabel11042412433D

 57 62  0  0  1  0  0  0  0  0999 V2000
  190.4140  177.0380  140.4980 C   0  0  1  0  0  3  0  0  0  0  0  0
  189.0120  177.4820  140.7800 C   0  0  0  0  0  3  0  0  0  0  0  0
  189.5080  176.4820  137.9850 C   0  0  2  0  0  3  0  0  0  0  0  0
  188.0940  176.5460  138.5770 C   0  0  1  0  0  3  0  0  0  0  0  0
  187.9950  177.2650  139.9200 C   0  0  0  0  0  3  0  0  0  0  0  0
  190.3420  177.7730  138.0480 C   0  0  0  0  0  2  0  0  0  0  0  0
  191.0830  177.8740  139.3930 C   0  0  0  0  0  2  0  0  0  0  0  0
  189.6200  175.7650  136.7150 N   0  0  0  0  0  0  0  0  0  0  0  0
  197.5420  175.3610  135.3460 C   0  0  0  0  0  1  0  0  0  0  0  0
  191.4720  174.4590  137.5770 C   0  0  0  0  0  3  0  0  0  0  0  0
  194.4400  173.6410  135.6250 N   0  0  0  0  0  0  0  0  0  0  0  0
  195.6030  173.2400  137.7480 C   0  0  0  0  0  1  0  0  0  0  0  0
  190.5270  174.8610  136.5130 C   0  0  0  0  0  0  0  0  0  0  0  0
  192.2190  174.0820  134.9190 N   0  0  0  0  0  0  0  0  0  0  0  0
  195.1670  172.6480  136.4080 C   0  0  2  0  0  3  0  0  0  0  0  0
  190.7810  174.3210  135.1380 C   0  0  0  0  0  2  0  0  0  0  0  0
  192.6200  173.9430  137.2580 N   0  0  0  0  0  0  0  0  0  0  0  0
  193.0400  173.8160  135.8930 C   0  0  0  0  0  0  0  0  0  0  0  0
  196.3630  172.1720  135.6390 C   0  0  0  0  0  3  0  0  0  0  0  0
  195.1490  174.7660  135.0130 C   0  0  0  0  0  2  0  0  0  0  0  0
  197.0010  172.9990  134.8000 C   0  0  0  0  0  3  0  0  0  0  0  0
  196.5920  174.4370  134.5940 C   0  0  2  0  0  3  0  0  0  0  0  0
  185.8450  177.1730  137.9400 N   0  0  0  0  0  0  0  0  0  0  0  0
  187.0990  177.1120  137.6090 C   0  0  0  0  0  3  0  0  0  0  0  0
  184.9080  177.8130  137.1030 N   0  0  0  0  0  2  0  0  0  0  0  0
  183.7070  177.1720  136.6550 C   0  0  0  0  0  0  0  0  0  0  0  0
  183.4730  175.9600  136.9200 O   0  0  0  0  0  0  0  0  0  0  0  0
  182.7480  177.9450  135.7920 C   0  0  0  0  0  2  0  0  0  0  0  0
  180.2360  180.5250  135.7160 C   0  0  2  0  0  3  0  0  0  0  0  0
  180.3930  181.9520  135.1950 C   0  0  0  0  0  2  0  0  0  0  0  0
  182.0860  178.6820  138.4230 O   0  0  0  0  0  1  0  0  0  0  0  0
  180.4260  178.1070  135.1910 C   0  0  0  0  0  2  0  0  0  0  0  0
  181.3700  177.8730  136.3050 N   0  0  0  0  0  0  0  0  0  0  0  0
  180.8310  181.2840  138.0090 C   0  0  0  0  0  2  0  0  0  0  0  0
  180.9230  182.7300  137.5350 C   0  0  0  0  0  2  0  0  0  0  0  0
  181.2200  180.3240  136.8760 C   0  0  1  0  0  3  0  0  0  0  0  0
  180.5200  179.5230  134.6160 C   0  0  0  0  0  2  0  0  0  0  0  0
  180.0350  182.9440  136.3050 C   0  0  0  0  0  2  0  0  0  0  0  0
  181.1630  178.8730  137.3840 C   0  0  2  0  0  3  0  0  0  0  0  0
  191.2430  177.0210  141.7540 C   0  0  0  0  0  2  0  0  0  0  0  0
  190.4630  176.2530  142.8140 C   0  0  0  0  0  2  0  0  0  0  0  0
  190.3590  177.0510  144.1050 C   0  0  2  0  0  3  0  0  0  0  0  0
  191.0500  176.1360  146.3330 C   0  0  0  0  0  1  0  0  0  0  0  0
  191.5340  176.6890  144.9980 C   0  0  0  0  0  2  0  0  0  0  0  0
  189.0870  176.7390  144.7720 N   0  0  0  0  0  2  0  0  0  0  0  0
  188.2260  177.9150  144.9920 C   0  0  0  0  0  0  0  0  0  0  0  0
  188.3570  178.8640  143.9530 O   0  0  0  0  0  1  0  0  0  0  0  0
  188.6100  178.4930  146.2020 O   0  0  0  0  0  1  0  0  0  0  0  0
  185.6740  178.3150  143.1600 C   0  0  0  0  0  0  0  0  0  0  0  0
  185.7810  179.6760  143.7830 C   0  0  0  0  0  2  0  0  0  0  0  0
  184.5480  177.5030  146.2920 C   0  0  0  0  0  1  0  0  0  0  0  0
  185.3130  179.6080  145.2510 C   0  0  0  0  0  2  0  0  0  0  0  0
  185.7960  178.3330  146.0030 C   0  0  0  0  0  0  0  0  0  0  0  0
  184.8480  178.1270  141.9330 C   0  0  0  0  0  1  0  0  0  0  0  0
  186.4210  178.7080  147.3450 C   0  0  0  0  0  1  0  0  0  0  0  0
  186.0810  177.2800  143.8240 N   0  0  0  0  0  0  0  0  0  0  0  0
  186.7360  177.4550  145.1160 C   0  0  1  0  0  3  0  0  0  0  0  0
  1  2  1  0  0  0  0
  1 40  1  1  0  0  0
  3  8  1  6  0  0  0
  3  6  1  0  0  0  0
  3  4  1  0  0  0  0
  4 24  1  6  0  0  0
  4  5  1  0  0  0  0
  5  2  2  0  0  0  0
  6  7  1  0  0  0  0
  7  1  1  0  0  0  0
 11 18  1  0  0  0  0
 11 15  1  0  0  0  0
 13  8  2  0  0  0  0
 13 10  1  0  0  0  0
 14 16  1  0  0  0  0
 14 18  2  0  0  0  0
 15 12  1  1  0  0  0
 16 13  1  0  0  0  0
 17 10  2  0  0  0  0
 18 17  1  0  0  0  0
 19 15  1  0  0  0  0
 20 11  1  0  0  0  0
 21 19  2  0  0  0  0
 22 21  1  0  0  0  0
 22 20  1  0  0  0  0
 22  9  1  1  0  0  0
 24 23  2  0  0  0  0
 25 23  1  0  0  0  0
 26 27  2  0  0  0  0
 26 25  1  0  0  0  0
 28 33  1  0  0  0  0
 28 26  1  0  0  0  0
 29 37  1  6  0  0  0
 29 36  1  0  0  0  0
 30 29  1  0  0  0  0
 30 38  1  0  0  0  0
 32 33  1  0  0  0  0
 33 39  1  0  0  0  0
 35 34  1  0  0  0  0
 36 39  1  0  0  0  0
 36 34  1  1  0  0  0
 37 32  1  0  0  0  0
 38 35  1  0  0  0  0
 39 31  1  1  0  0  0
 40 41  1  0  0  0  0
 42 41  1  6  0  0  0
 42 45  1  0  0  0  0
 42 44  1  0  0  0  0
 44 43  1  0  0  0  0
 45 46  1  0  0  0  0
 46 48  1  0  0  0  0
 47 46  1  0  0  0  0
 49 50  1  0  0  0  0
 49 56  2  0  0  0  0
 50 52  1  0  0  0  0
 52 53  1  0  0  0  0
 53 51  1  0  0  0  0
 53 55  1  0  0  0  0
 54 49  1  0  0  0  0
 56 57  1  0  0  0  0
 57 46  1  6  0  0  0
 57 53  1  0  0  0  0
M  END
>  <MODEL>
7

>  <REMARK>
 VINA RESULT:      -5.4      2.828      8.477
  Name = 
  12 active torsions:
  status: ('A' for Active; 'I' for Inactive)
    1  A    between atoms: N_1  and  C_9
    2  A    between atoms: C_2  and  C_3
    3  A    between atoms: C_2  and  C_22
    4  A    between atoms: N_18  and  C_52
    5  A    between atoms: N_20  and  N_21
    6  A    between atoms: C_22  and  C_28
    7  A    between atoms: C_23  and  N_29
    8  A    between atoms: C_23  and  C_56
    9  A    between atoms: C_26  and  C_52
   10  A    between atoms: C_27  and  C_39
   11  A    between atoms: C_28  and  N_29
   12  A    between atoms: C_28  and  C_40
                            x       y       z     vdW  Elec       q    Type
                         _______ _______ _______ _____ _____    ______ ____

>  <TORSDO>
F 12

$$$$
=
 OpenBabel11042412433D

 57 62  0  0  1  0  0  0  0  0999 V2000
  190.2110  175.7800  135.9870 C   0  0  1  0  0  3  0  0  0  0  0  0
  189.5820  176.1700  134.6840 C   0  0  0  0  0  3  0  0  0  0  0  0
  187.9480  176.7780  137.1380 C   0  0  2  0  0  3  0  0  0  0  0  0
  187.6880  177.4880  135.8030 C   0  0  1  0  0  3  0  0  0  0  0  0
  188.4620  176.9200  134.6160 C   0  0  0  0  0  3  0  0  0  0  0  0
  187.9750  175.2400  137.1080 C   0  0  0  0  0  2  0  0  0  0  0  0
  189.3820  174.7310  136.7480 C   0  0  0  0  0  2  0  0  0  0  0  0
  187.2370  177.3360  138.2880 N   0  0  0  0  0  0  0  0  0  0  0  0
  191.6790  175.1340  144.6310 C   0  0  0  0  0  1  0  0  0  0  0  0
  189.3330  178.0480  139.2790 C   0  0  0  0  0  3  0  0  0  0  0  0
  190.0810  177.7580  142.8340 N   0  0  0  0  0  0  0  0  0  0  0  0
  192.4580  177.9140  142.2440 C   0  0  0  0  0  1  0  0  0  0  0  0
  187.8630  177.8930  139.2780 C   0  0  0  0  0  0  0  0  0  0  0  0
  187.9980  177.9920  141.7240 N   0  0  0  0  0  0  0  0  0  0  0  0
  191.3060  178.5220  143.0440 C   0  0  2  0  0  3  0  0  0  0  0  0
  187.1420  178.2320  140.5480 C   0  0  0  0  0  2  0  0  0  0  0  0
  189.9700  178.1540  140.4050 N   0  0  0  0  0  0  0  0  0  0  0  0
  189.2970  178.0500  141.6670 C   0  0  0  0  0  0  0  0  0  0  0  0
  191.6460  178.5440  144.5050 C   0  0  0  0  0  3  0  0  0  0  0  0
  189.9270  176.4280  143.4270 C   0  0  0  0  0  2  0  0  0  0  0  0
  191.3320  177.5040  145.2890 C   0  0  0  0  0  3  0  0  0  0  0  0
  190.6580  176.2580  144.7700 C   0  0  2  0  0  3  0  0  0  0  0  0
  185.5010  176.4960  135.5010 N   0  0  0  0  0  0  0  0  0  0  0  0
  186.2270  177.5720  135.4790 C   0  0  0  0  0  3  0  0  0  0  0  0
  184.1040  176.5640  135.3230 N   0  0  0  0  0  2  0  0  0  0  0  0
  183.1830  175.8510  136.1580 C   0  0  0  0  0  0  0  0  0  0  0  0
  183.5880  175.0500  137.0460 O   0  0  0  0  0  0  0  0  0  0  0  0
  181.7070  176.0120  135.9160 C   0  0  0  0  0  2  0  0  0  0  0  0
  179.3800  178.7390  136.2600 C   0  0  2  0  0  3  0  0  0  0  0  0
  178.9630  179.7390  135.1830 C   0  0  0  0  0  2  0  0  0  0  0  0
  182.7680  177.9280  137.6790 O   0  0  0  0  0  1  0  0  0  0  0  0
  179.5380  176.3460  136.8990 C   0  0  0  0  0  2  0  0  0  0  0  0
  180.9960  176.4400  137.1330 N   0  0  0  0  0  0  0  0  0  0  0  0
  181.1770  180.2840  137.0160 C   0  0  0  0  0  2  0  0  0  0  0  0
  180.7380  181.3330  136.0020 C   0  0  0  0  0  2  0  0  0  0  0  0
  180.8920  178.8720  136.4830 C   0  0  1  0  0  3  0  0  0  0  0  0
  179.0410  177.3260  135.8320 C   0  0  0  0  0  2  0  0  0  0  0  0
  179.2530  181.1630  135.6680 C   0  0  0  0  0  2  0  0  0  0  0  0
  181.3800  177.8270  137.5000 C   0  0  2  0  0  3  0  0  0  0  0  0
  191.6310  175.3220  135.7900 C   0  0  0  0  0  2  0  0  0  0  0  0
  191.5900  173.9820  135.0660 C   0  0  0  0  0  2  0  0  0  0  0  0
  192.8980  173.2250  135.2370 C   0  0  2  0  0  3  0  0  0  0  0  0
  193.3040  170.9030  136.0880 C   0  0  0  0  0  1  0  0  0  0  0  0
  192.6390  171.7450  135.0050 C   0  0  0  0  0  2  0  0  0  0  0  0
  193.4230  173.4530  136.5910 N   0  0  0  0  0  2  0  0  0  0  0  0
  194.7690  174.0540  136.6140 C   0  0  0  0  0  0  0  0  0  0  0  0
  194.7720  175.3100  137.2640 O   0  0  0  0  0  1  0  0  0  0  0  0
  195.1770  174.2150  135.2890 O   0  0  0  0  0  1  0  0  0  0  0  0
  197.2430  174.5030  138.5390 C   0  0  0  0  0  0  0  0  0  0  0  0
  197.8470  174.8890  137.2200 C   0  0  0  0  0  2  0  0  0  0  0  0
  197.5550  171.3600  137.2140 C   0  0  0  0  0  1  0  0  0  0  0  0
  198.1120  173.6190  136.3860 C   0  0  0  0  0  2  0  0  0  0  0  0
  196.9720  172.5620  136.4760 C   0  0  0  0  0  0  0  0  0  0  0  0
  197.9120  174.9140  139.8070 C   0  0  0  0  0  1  0  0  0  0  0  0
  196.5650  172.0940  135.0810 C   0  0  0  0  0  1  0  0  0  0  0  0
  196.3010  173.6140  138.5700 N   0  0  0  0  0  0  0  0  0  0  0  0
  195.7650  173.0780  137.3230 C   0  0  1  0  0  3  0  0  0  0  0  0
  1 40  1  6  0  0  0
  1  7  1  0  0  0  0
  2  1  1  0  0  0  0
  3  8  1  1  0  0  0
  4 24  1  6  0  0  0
  4  3  1  0  0  0  0
  5  2  2  0  0  0  0
  5  4  1  0  0  0  0
  6  3  1  0  0  0  0
  7  6  1  0  0  0  0
  8 13  2  0  0  0  0
 10 17  2  0  0  0  0
 11 15  1  0  0  0  0
 11 20  1  0  0  0  0
 13 10  1  0  0  0  0
 13 16  1  0  0  0  0
 15 12  1  6  0  0  0
 15 19  1  0  0  0  0
 16 14  1  0  0  0  0
 17 18  1  0  0  0  0
 18 14  2  0  0  0  0
 18 11  1  0  0  0  0
 19 21  2  0  0  0  0
 20 22  1  0  0  0  0
 22  9  1  6  0  0  0
 22 21  1  0  0  0  0
 24 23  2  0  0  0  0
 25 23  1  0  0  0  0
 25 26  1  0  0  0  0
 26 27  2  0  0  0  0
 28 26  1  0  0  0  0
 28 33  1  0  0  0  0
 29 30  1  6  0  0  0
 29 36  1  0  0  0  0
 30 38  1  0  0  0  0
 32 33  1  0  0  0  0
 33 39  1  0  0  0  0
 35 34  1  0  0  0  0
 36 34  1  1  0  0  0
 36 39  1  0  0  0  0
 37 29  1  0  0  0  0
 37 32  1  0  0  0  0
 38 35  1  0  0  0  0
 39 31  1  6  0  0  0
 41 42  1  0  0  0  0
 41 40  1  0  0  0  0
 42 44  1  1  0  0  0
 42 45  1  0  0  0  0
 44 43  1  0  0  0  0
 45 46  1  0  0  0  0
 46 47  1  0  0  0  0
 48 46  1  0  0  0  0
 49 56  2  0  0  0  0
 49 54  1  0  0  0  0
 50 49  1  0  0  0  0
 52 53  1  0  0  0  0
 52 50  1  0  0  0  0
 53 51  1  0  0  0  0
 53 57  1  0  0  0  0
 55 53  1  0  0  0  0
 57 46  1  6  0  0  0
 57 56  1  0  0  0  0
M  END
>  <MODEL>
8

>  <REMARK>
 VINA RESULT:      -5.3      3.358     10.210
  Name = 
  12 active torsions:
  status: ('A' for Active; 'I' for Inactive)
    1  A    between atoms: N_1  and  C_9
    2  A    between atoms: C_2  and  C_3
    3  A    between atoms: C_2  and  C_22
    4  A    between atoms: N_18  and  C_52
    5  A    between atoms: N_20  and  N_21
    6  A    between atoms: C_22  and  C_28
    7  A    between atoms: C_23  and  N_29
    8  A    between atoms: C_23  and  C_56
    9  A    between atoms: C_26  and  C_52
   10  A    between atoms: C_27  and  C_39
   11  A    between atoms: C_28  and  N_29
   12  A    between atoms: C_28  and  C_40
                            x       y       z     vdW  Elec       q    Type
                         _______ _______ _______ _____ _____    ______ ____

>  <TORSDO>
F 12

$$$$
=
 OpenBabel11042412433D

 57 62  0  0  1  0  0  0  0  0999 V2000
  192.1670  175.7150  137.5700 C   0  0  1  0  0  3  0  0  0  0  0  0
  191.8730  174.2490  137.4800 C   0  0  0  0  0  3  0  0  0  0  0  0
  189.7030  176.0630  136.4540 C   0  0  2  0  0  3  0  0  0  0  0  0
  189.7780  174.5880  136.0410 C   0  0  1  0  0  3  0  0  0  0  0  0
  190.8100  173.7620  136.8060 C   0  0  0  0  0  3  0  0  0  0  0  0
  189.7220  176.3610  137.9630 C   0  0  0  0  0  2  0  0  0  0  0  0
  191.1700  176.4580  138.4760 C   0  0  0  0  0  2  0  0  0  0  0  0
  188.7410  176.8710  135.7030 N   0  0  0  0  0  0  0  0  0  0  0  0
  181.8490  176.0650  139.7850 C   0  0  0  0  0  1  0  0  0  0  0  0
  187.8240  177.7570  137.7650 C   0  0  0  0  0  3  0  0  0  0  0  0
  184.2570  178.2480  138.3360 N   0  0  0  0  0  0  0  0  0  0  0  0
  184.7440  178.2410  140.7410 C   0  0  0  0  0  1  0  0  0  0  0  0
  187.8660  177.6240  136.2930 C   0  0  0  0  0  0  0  0  0  0  0  0
  185.4980  178.2570  136.3150 N   0  0  0  0  0  0  0  0  0  0  0  0
  184.1580  179.0250  139.5670 C   0  0  2  0  0  3  0  0  0  0  0  0
  186.7410  178.2430  135.5210 C   0  0  0  0  0  2  0  0  0  0  0  0
  186.7160  178.1000  138.3500 N   0  0  0  0  0  0  0  0  0  0  0  0
  185.4990  178.2860  137.6160 C   0  0  0  0  0  0  0  0  0  0  0  0
  182.7220  179.3640  139.8370 C   0  0  0  0  0  3  0  0  0  0  0  0
  183.3960  177.0830  138.1230 C   0  0  0  0  0  2  0  0  0  0  0  0
  181.7460  178.5260  139.4620 C   0  0  0  0  0  3  0  0  0  0  0  0
  182.0130  177.2040  138.7850 C   0  0  2  0  0  3  0  0  0  0  0  0
  187.7620  173.9040  137.1930 N   0  0  0  0  0  0  0  0  0  0  0  0
  188.4390  173.9160  136.0850 C   0  0  0  0  0  3  0  0  0  0  0  0
  186.4500  173.3910  137.2320 N   0  0  0  0  0  2  0  0  0  0  0  0
  186.0110  172.3260  136.3790 C   0  0  0  0  0  0  0  0  0  0  0  0
  186.7620  171.8540  135.4810 O   0  0  0  0  0  0  0  0  0  0  0  0
  184.6010  171.8180  136.5150 C   0  0  0  0  0  2  0  0  0  0  0  0
  181.4110  173.3830  135.9300 C   0  0  2  0  0  3  0  0  0  0  0  0
  180.5050  174.0490  136.9640 C   0  0  0  0  0  2  0  0  0  0  0  0
  182.7360  169.8690  135.7260 O   0  0  0  0  0  1  0  0  0  0  0  0
  183.6670  173.3300  134.8970 C   0  0  0  0  0  2  0  0  0  0  0  0
  183.8630  171.9060  135.2440 N   0  0  0  0  0  0  0  0  0  0  0  0
  180.2060  171.2300  136.2430 C   0  0  0  0  0  2  0  0  0  0  0  0
  179.2390  171.8820  137.2230 C   0  0  0  0  0  2  0  0  0  0  0  0
  181.5820  171.9080  136.3160 C   0  0  1  0  0  3  0  0  0  0  0  0
  182.7630  174.0670  135.8870 C   0  0  0  0  0  2  0  0  0  0  0  0
  179.1260  173.3840  136.9390 C   0  0  0  0  0  2  0  0  0  0  0  0
  182.5560  171.2090  135.3530 C   0  0  2  0  0  3  0  0  0  0  0  0
  193.5890  175.9610  137.9990 C   0  0  0  0  0  2  0  0  0  0  0  0
  194.4340  174.7990  137.4890 C   0  0  0  0  0  2  0  0  0  0  0  0
  195.3550  175.2430  136.3630 C   0  0  2  0  0  3  0  0  0  0  0  0
  195.6680  177.4290  135.1800 C   0  0  0  0  0  1  0  0  0  0  0  0
  194.6690  176.3490  135.5770 C   0  0  0  0  0  2  0  0  0  0  0  0
  195.6520  174.0970  135.4920 N   0  0  0  0  0  2  0  0  0  0  0  0
  196.9780  173.4980  135.7270 C   0  0  0  0  0  0  0  0  0  0  0  0
  197.3970  173.6580  137.0680 O   0  0  0  0  0  1  0  0  0  0  0  0
  197.8820  174.1370  134.8770 O   0  0  0  0  0  1  0  0  0  0  0  0
  194.8670  171.1940  136.2410 C   0  0  0  0  0  0  0  0  0  0  0  0
  195.4840  171.3100  137.6030 C   0  0  0  0  0  2  0  0  0  0  0  0
  197.8600  169.6800  135.5440 C   0  0  0  0  0  1  0  0  0  0  0  0
  196.8910  170.6770  137.5850 C   0  0  0  0  0  2  0  0  0  0  0  0
  197.7050  170.9990  136.2980 C   0  0  0  0  0  0  0  0  0  0  0  0
  193.5560  170.5000  136.0790 C   0  0  0  0  0  1  0  0  0  0  0  0
  199.1040  171.4910  136.6590 C   0  0  0  0  0  1  0  0  0  0  0  0
  195.5820  171.4640  135.1950 N   0  0  0  0  0  0  0  0  0  0  0  0
  196.9380  171.9790  135.3540 C   0  0  1  0  0  3  0  0  0  0  0  0
  1 40  1  1  0  0  0
  1  7  1  0  0  0  0
  2  1  1  0  0  0  0
  3  8  1  1  0  0  0
  3  6  1  0  0  0  0
  4 24  1  1  0  0  0
  4  3  1  0  0  0  0
  4  5  1  0  0  0  0
  5  2  2  0  0  0  0
  6  7  1  0  0  0  0
  8 13  2  0  0  0  0
 10 17  2  0  0  0  0
 11 15  1  0  0  0  0
 13 10  1  0  0  0  0
 14 18  2  0  0  0  0
 15 19  1  0  0  0  0
 15 12  1  1  0  0  0
 16 13  1  0  0  0  0
 16 14  1  0  0  0  0
 18 11  1  0  0  0  0
 18 17  1  0  0  0  0
 20 11  1  0  0  0  0
 20 22  1  0  0  0  0
 21 19  2  0  0  0  0
 22 21  1  0  0  0  0
 22  9  1  1  0  0  0
 23 25  1  0  0  0  0
 24 23  2  0  0  0  0
 26 28  1  0  0  0  0
 26 25  1  0  0  0  0
 27 26  2  0  0  0  0
 29 37  1  1  0  0  0
 29 36  1  0  0  0  0
 29 30  1  0  0  0  0
 32 33  1  0  0  0  0
 32 37  1  0  0  0  0
 33 39  1  0  0  0  0
 33 28  1  0  0  0  0
 34 35  1  0  0  0  0
 36 34  1  6  0  0  0
 38 30  1  0  0  0  0
 38 35  1  0  0  0  0
 39 31  1  1  0  0  0
 39 36  1  0  0  0  0
 41 40  1  0  0  0  0
 42 44  1  6  0  0  0
 42 41  1  0  0  0  0
 43 44  1  0  0  0  0
 45 46  1  0  0  0  0
 45 42  1  0  0  0  0
 46 47  1  0  0  0  0
 48 46  1  0  0  0  0
 49 50  1  0  0  0  0
 51 53  1  0  0  0  0
 52 50  1  0  0  0  0
 53 55  1  0  0  0  0
 53 52  1  0  0  0  0
 54 49  1  0  0  0  0
 56 57  1  0  0  0  0
 56 49  2  0  0  0  0
 57 46  1  1  0  0  0
 57 53  1  0  0  0  0
M  END
>  <MODEL>
9

>  <REMARK>
 VINA RESULT:      -5.0      3.850     11.497
  Name = 
  12 active torsions:
  status: ('A' for Active; 'I' for Inactive)
    1  A    between atoms: N_1  and  C_9
    2  A    between atoms: C_2  and  C_3
    3  A    between atoms: C_2  and  C_22
    4  A    between atoms: N_18  and  C_52
    5  A    between atoms: N_20  and  N_21
    6  A    between atoms: C_22  and  C_28
    7  A    between atoms: C_23  and  N_29
    8  A    between atoms: C_23  and  C_56
    9  A    between atoms: C_26  and  C_52
   10  A    between atoms: C_27  and  C_39
   11  A    between atoms: C_28  and  N_29
   12  A    between atoms: C_28  and  C_40
                            x       y       z     vdW  Elec       q    Type
                         _______ _______ _______ _____ _____    ______ ____

>  <TORSDO>
F 12

$$$$
