=
 OpenBabel11032420563D

 47 53  0  0  1  0  0  0  0  0999 V2000
  186.1770  177.7370  144.3810 S   0  0  0  0  0  0  0  0  0  0  0  0
  186.4840  178.5630  146.7220 C   0  0  0  0  0  0  0  0  0  0  0  0
  191.3880  175.9550  144.0800 C   0  0  0  0  0  2  0  0  0  0  0  0
  187.1730  177.8690  145.7300 C   0  0  0  0  0  0  0  0  0  0  0  0
  190.5400  176.1390  145.3080 C   0  0  1  0  0  3  0  0  0  0  0  0
  187.0790  178.8480  148.0770 C   0  0  0  0  0  2  0  0  0  0  0  0
  188.2980  177.9620  148.3810 C   0  0  0  0  0  2  0  0  0  0  0  0
  189.1870  177.8680  147.1470 C   0  0  1  0  0  3  0  0  0  0  0  0
  191.2010  176.6020  146.5770 C   0  0  0  0  0  0  0  0  0  0  0  0
  185.2180  179.0140  146.3290 C   0  0  0  0  0  3  0  0  0  0  0  0
  190.3640  175.9860  142.9380 C   0  0  1  0  0  3  0  0  0  0  0  0
  189.0440  176.4740  143.5460 C   0  0  0  0  0  2  0  0  0  0  0  0
  184.9120  178.6400  145.0240 C   0  0  0  0  0  0  0  0  0  0  0  0
  190.5160  177.3080  147.4390 N   0  0  0  0  0  0  0  0  0  0  0  0
  188.4550  177.1360  146.0060 C   0  0  2  0  0  3  0  0  0  0  0  0
  189.4590  177.0780  144.8660 C   0  0  1  0  0  3  0  0  0  0  0  0
  190.8020  176.9210  141.9120 N   0  0  0  0  0  2  0  0  0  0  0  0
  189.4110  176.0580  140.2440 O   0  0  0  0  0  0  0  0  0  0  0  0
  190.3060  176.8820  140.5730 C   0  0  0  0  0  0  0  0  0  0  0  0
  190.8840  177.7900  139.5490 C   0  0  0  0  0  2  0  0  0  0  0  0
  190.6610  177.2050  138.1660 C   0  0  0  0  0  2  0  0  0  0  0  0
  191.2730  174.8430  137.2710 C   0  0  0  0  0  0  0  0  0  0  0  0
  193.6510  174.5150  136.6510 C   0  0  0  0  0  2  0  0  0  0  0  0
  194.0050  175.3360  137.8950 C   0  0  0  0  0  2  0  0  0  0  0  0
  191.6720  176.1450  137.8770 C   0  0  0  0  0  0  0  0  0  0  0  0
  192.9650  176.3950  138.1300 C   0  0  0  0  0  3  0  0  0  0  0  0
  192.2150  174.0700  136.7070 C   0  0  0  0  0  3  0  0  0  0  0  0
  189.2250  174.7420  135.8430 C   0  0  0  0  0  2  0  0  0  0  0  0
  189.8290  174.4260  137.2050 C   0  0  0  0  0  3  0  0  0  0  0  0
  189.6480  173.3300  136.1700 C   0  0  0  0  0  2  0  0  0  0  0  0
  192.8600  175.7220  148.1750 C   0  0  0  0  0  1  0  0  0  0  0  0
  192.4940  176.1680  146.8790 O   0  0  0  0  0  0  0  0  0  0  0  0
  183.6150  178.8900  144.3270 C   0  0  0  0  0  2  0  0  0  0  0  0
  183.8140  179.1440  142.8370 C   0  0  0  0  0  2  0  0  0  0  0  0
  183.2000  178.0340  142.0000 C   0  0  0  0  0  2  0  0  0  0  0  0
  182.7310  178.5750  140.6590 C   0  0  0  0  0  2  0  0  0  0  0  0
  183.5160  177.9480  139.5470 C   0  0  0  0  0  0  0  0  0  0  0  0
  184.6680  178.6150  139.0850 C   0  0  0  0  0  0  0  0  0  0  0  0
  185.0520  179.8050  139.6980 O   0  0  0  0  0  1  0  0  0  0  0  0
  185.4190  178.0790  138.0130 C   0  0  0  0  0  0  0  0  0  0  0  0
  183.8600  176.2290  137.8700 C   0  0  0  0  0  3  0  0  0  0  0  0
  184.9980  176.8900  137.4180 C   0  0  0  0  0  3  0  0  0  0  0  0
  183.1100  176.7330  138.9330 C   0  0  0  0  0  0  0  0  0  0  0  0
  181.9360  175.9280  139.3270 C   0  0  0  0  0  3  0  0  0  0  0  0
  180.6900  176.1400  138.9240 C   0  0  0  0  0  2  0  0  0  0  0  0
  187.2120  178.3070  136.2820 C   0  0  0  0  0  1  0  0  0  0  0  0
  186.5790  178.6760  137.4960 O   0  0  0  0  0  0  0  0  0  0  0  0
  1 13  1  0  0  0  0
  1  4  1  0  0  0  0
  2  6  1  0  0  0  0
  4  2  2  0  0  0  0
  5  3  1  6  0  0  0
  5  9  1  0  0  0  0
  6  7  1  0  0  0  0
  8 14  1  0  0  0  0
  8  7  1  1  0  0  0
  9 32  1  0  0  0  0
  9 14  2  0  0  0  0
 10  2  1  0  0  0  0
 11 17  1  6  0  0  0
 11 12  1  0  0  0  0
 11  3  1  0  0  0  0
 13 10  2  0  0  0  0
 15  4  1  6  0  0  0
 15  8  1  0  0  0  0
 16 12  1  6  0  0  0
 16  5  1  0  0  0  0
 16 15  1  0  0  0  0
 18 19  2  0  0  0  0
 19 17  1  0  0  0  0
 20 19  1  0  0  0  0
 21 20  1  0  0  0  0
 22 25  1  0  0  0  0
 23 27  1  0  0  0  0
 23 24  1  0  0  0  0
 24 26  1  0  0  0  0
 25 26  2  0  0  0  0
 25 21  1  0  0  0  0
 27 22  2  0  0  0  0
 28 30  1  0  0  0  0
 28 29  1  0  0  0  0
 29 22  1  0  0  0  0
 30 29  1  0  0  0  0
 32 31  1  0  0  0  0
 33 13  1  0  0  0  0
 34 33  1  0  0  0  0
 35 34  1  0  0  0  0
 36 35  1  0  0  0  0
 37 36  1  0  0  0  0
 38 37  1  0  0  0  0
 38 39  1  0  0  0  0
 40 38  2  0  0  0  0
 41 43  1  0  0  0  0
 42 41  2  0  0  0  0
 42 40  1  0  0  0  0
 43 44  1  0  0  0  0
 43 37  2  0  0  0  0
 45 44  2  0  0  0  0
 46 47  1  0  0  0  0
 47 40  1  0  0  0  0
M  END
>  <MODEL>
1

>  <REMARK>
 VINA RESULT:      -9.2      0.000      0.000
  Name = 
  13 active torsions:
  status: ('A' for Active; 'I' for Inactive)
    1  A    between atoms: C_2  and  C_46
    2  A    between atoms: N_4  and  C_34
    3  A    between atoms: C_5  and  C_24
    4  A    between atoms: C_6  and  C_20
    5  A    between atoms: C_7  and  C_39
    6  A    between atoms: C_7  and  C_43
    7  A    between atoms: C_11  and  C_14
    8  A    between atoms: C_11  and  C_32
    9  A    between atoms: C_14  and  C_29
   10  A    between atoms: C_24  and  C_41
   11  A    between atoms: C_25  and  O_44
   12  A    between atoms: O_27  and  C_30
   13  A    between atoms: C_41  and  C_43
                            x       y       z     vdW  Elec       q    Type
                         _______ _______ _______ _____ _____    ______ ____

>  <TORSDO>
F 13

$$$$
=
 OpenBabel11032420563D

 47 53  0  0  1  0  0  0  0  0999 V2000
  187.1140  176.1490  137.2280 S   0  0  0  0  0  0  0  0  0  0  0  0
  188.1930  174.6670  135.5260 C   0  0  0  0  0  0  0  0  0  0  0  0
  191.8900  177.0100  139.8480 C   0  0  0  0  0  2  0  0  0  0  0  0
  188.5270  175.4780  136.6090 C   0  0  0  0  0  0  0  0  0  0  0  0
  191.6770  176.6440  138.4040 C   0  0  1  0  0  3  0  0  0  0  0  0
  189.2260  173.9190  134.7220 C   0  0  0  0  0  2  0  0  0  0  0  0
  190.6480  174.4610  134.9450 C   0  0  0  0  0  2  0  0  0  0  0  0
  190.8680  174.7370  136.4280 C   0  0  1  0  0  3  0  0  0  0  0  0
  192.6750  175.7400  137.7350 C   0  0  0  0  0  0  0  0  0  0  0  0
  186.8180  174.5700  135.2880 C   0  0  0  0  0  3  0  0  0  0  0  0
  190.5010  177.4750  140.3020 C   0  0  1  0  0  3  0  0  0  0  0  0
  189.5210  177.0750  139.1930 C   0  0  0  0  0  2  0  0  0  0  0  0
  186.0770  175.3380  136.1810 C   0  0  0  0  0  0  0  0  0  0  0  0
  192.2840  174.9540  136.7660 N   0  0  0  0  0  0  0  0  0  0  0  0
  189.9450  175.8720  136.9110 C   0  0  2  0  0  3  0  0  0  0  0  0
  190.2940  176.0670  138.3780 C   0  0  1  0  0  3  0  0  0  0  0  0
  190.1380  176.8000  141.5390 N   0  0  0  0  0  2  0  0  0  0  0  0
  190.8330  178.5420  142.9330 O   0  0  0  0  0  0  0  0  0  0  0  0
  190.3600  177.3790  142.8250 C   0  0  0  0  0  0  0  0  0  0  0  0
  190.0730  176.5840  144.0480 C   0  0  0  0  0  2  0  0  0  0  0  0
  188.6020  176.7100  144.4030 C   0  0  0  0  0  2  0  0  0  0  0  0
  187.1310  177.9140  146.1750 C   0  0  0  0  0  0  0  0  0  0  0  0
  187.9740  177.8270  148.5050 C   0  0  0  0  0  2  0  0  0  0  0  0
  189.3730  178.0430  147.9210 C   0  0  0  0  0  2  0  0  0  0  0  0
  188.4410  177.3470  145.7430 C   0  0  0  0  0  0  0  0  0  0  0  0
  189.4860  177.3690  146.5820 C   0  0  0  0  0  3  0  0  0  0  0  0
  186.9220  178.1530  147.4800 C   0  0  0  0  0  3  0  0  0  0  0  0
  184.6770  178.2960  145.8950 C   0  0  0  0  0  2  0  0  0  0  0  0
  186.0170  178.1360  145.1880 C   0  0  0  0  0  3  0  0  0  0  0  0
  185.4100  179.5140  145.3870 C   0  0  0  0  0  2  0  0  0  0  0  0
  194.8380  174.7030  138.3070 C   0  0  0  0  0  1  0  0  0  0  0  0
  194.0280  175.8430  138.0670 O   0  0  0  0  0  0  0  0  0  0  0  0
  184.5940  175.5200  136.1550 C   0  0  0  0  0  2  0  0  0  0  0  0
  184.1970  176.9640  136.4360 C   0  0  0  0  0  2  0  0  0  0  0  0
  183.0260  177.0370  137.4020 C   0  0  0  0  0  2  0  0  0  0  0  0
  182.8110  178.4670  137.8710 C   0  0  0  0  0  2  0  0  0  0  0  0
  183.0920  178.5760  139.3390 C   0  0  0  0  0  0  0  0  0  0  0  0
  184.3750  178.9970  139.7430 C   0  0  0  0  0  0  0  0  0  0  0  0
  185.3160  179.3280  138.7710 O   0  0  0  0  0  1  0  0  0  0  0  0
  184.6960  179.0780  141.1180 C   0  0  0  0  0  0  0  0  0  0  0  0
  182.4640  178.3120  141.6670 C   0  0  0  0  0  3  0  0  0  0  0  0
  183.7310  178.7290  142.0620 C   0  0  0  0  0  3  0  0  0  0  0  0
  182.1210  178.2340  140.3170 C   0  0  0  0  0  0  0  0  0  0  0  0
  180.7390  177.7950  140.0320 C   0  0  0  0  0  3  0  0  0  0  0  0
  179.6470  178.5230  140.2280 C   0  0  0  0  0  2  0  0  0  0  0  0
  187.1080  178.6800  141.6550 C   0  0  0  0  0  1  0  0  0  0  0  0
  185.9460  179.4910  141.6050 O   0  0  0  0  0  0  0  0  0  0  0  0
  2  4  2  0  0  0  0
  3 11  1  0  0  0  0
  4  1  1  0  0  0  0
  5  3  1  1  0  0  0
  6  7  1  0  0  0  0
  6  2  1  0  0  0  0
  8  7  1  6  0  0  0
  8 14  1  0  0  0  0
  8 15  1  0  0  0  0
  9 32  1  0  0  0  0
  9  5  1  0  0  0  0
 10  2  1  0  0  0  0
 10 13  2  0  0  0  0
 11 17  1  1  0  0  0
 12 11  1  0  0  0  0
 13  1  1  0  0  0  0
 14  9  2  0  0  0  0
 15  4  1  1  0  0  0
 15 16  1  0  0  0  0
 16  5  1  0  0  0  0
 16 12  1  6  0  0  0
 17 19  1  0  0  0  0
 19 18  2  0  0  0  0
 19 20  1  0  0  0  0
 20 21  1  0  0  0  0
 21 25  1  0  0  0  0
 22 27  2  0  0  0  0
 24 23  1  0  0  0  0
 25 22  1  0  0  0  0
 25 26  2  0  0  0  0
 26 24  1  0  0  0  0
 27 23  1  0  0  0  0
 29 30  1  0  0  0  0
 29 28  1  0  0  0  0
 29 22  1  0  0  0  0
 30 28  1  0  0  0  0
 32 31  1  0  0  0  0
 33 13  1  0  0  0  0
 33 34  1  0  0  0  0
 34 35  1  0  0  0  0
 35 36  1  0  0  0  0
 36 37  1  0  0  0  0
 37 38  2  0  0  0  0
 37 43  1  0  0  0  0
 38 40  1  0  0  0  0
 39 38  1  0  0  0  0
 40 47  1  0  0  0  0
 40 42  2  0  0  0  0
 41 42  1  0  0  0  0
 43 41  2  0  0  0  0
 44 45  2  0  0  0  0
 44 43  1  0  0  0  0
 47 46  1  0  0  0  0
M  END
>  <MODEL>
2

>  <REMARK>
 VINA RESULT:      -9.1      2.174      8.179
  Name = 
  13 active torsions:
  status: ('A' for Active; 'I' for Inactive)
    1  A    between atoms: C_2  and  C_46
    2  A    between atoms: N_4  and  C_34
    3  A    between atoms: C_5  and  C_24
    4  A    between atoms: C_6  and  C_20
    5  A    between atoms: C_7  and  C_39
    6  A    between atoms: C_7  and  C_43
    7  A    between atoms: C_11  and  C_14
    8  A    between atoms: C_11  and  C_32
    9  A    between atoms: C_14  and  C_29
   10  A    between atoms: C_24  and  C_41
   11  A    between atoms: C_25  and  O_44
   12  A    between atoms: O_27  and  C_30
   13  A    between atoms: C_41  and  C_43
                            x       y       z     vdW  Elec       q    Type
                         _______ _______ _______ _____ _____    ______ ____

>  <TORSDO>
F 13

$$$$
=
 OpenBabel11032420563D

 47 53  0  0  1  0  0  0  0  0999 V2000
  184.5720  179.3650  142.8430 S   0  0  0  0  0  0  0  0  0  0  0  0
  182.2900  178.7010  143.6200 C   0  0  0  0  0  0  0  0  0  0  0  0
  183.3960  178.1420  137.5950 C   0  0  0  0  0  2  0  0  0  0  0  0
  183.0220  178.8480  142.4440 C   0  0  0  0  0  0  0  0  0  0  0  0
  182.4440  178.5310  138.6930 C   0  0  1  0  0  3  0  0  0  0  0  0
  180.8470  178.2640  143.6290 C   0  0  0  0  0  2  0  0  0  0  0  0
  180.1810  178.4080  142.2510 C   0  0  0  0  0  2  0  0  0  0  0  0
  181.1340  177.9210  141.1650 C   0  0  1  0  0  3  0  0  0  0  0  0
  181.0790  177.9010  138.7200 C   0  0  0  0  0  0  0  0  0  0  0  0
  183.0260  178.9430  144.7860 C   0  0  0  0  0  3  0  0  0  0  0  0
  184.7640  178.5520  138.1550 C   0  0  1  0  0  3  0  0  0  0  0  0
  184.5520  178.8760  139.6380 C   0  0  0  0  0  2  0  0  0  0  0  0
  184.3390  179.3100  144.5080 C   0  0  0  0  0  0  0  0  0  0  0  0
  180.4710  177.7300  139.8650 N   0  0  0  0  0  0  0  0  0  0  0  0
  182.3770  178.8280  141.0880 C   0  0  2  0  0  3  0  0  0  0  0  0
  183.2110  178.2580  139.9510 C   0  0  1  0  0  3  0  0  0  0  0  0
  185.6980  177.4440  138.0270 N   0  0  0  0  0  2  0  0  0  0  0  0
  187.5600  178.7930  137.6110 O   0  0  0  0  0  0  0  0  0  0  0  0
  187.0810  177.6340  137.7230 C   0  0  0  0  0  0  0  0  0  0  0  0
  187.9500  176.4510  137.4910 C   0  0  0  0  0  2  0  0  0  0  0  0
  189.2560  176.8960  136.8570 C   0  0  0  0  0  2  0  0  0  0  0  0
  191.5840  175.9080  137.4560 C   0  0  0  0  0  0  0  0  0  0  0  0
  192.7920  177.0500  139.2940 C   0  0  0  0  0  2  0  0  0  0  0  0
  191.4390  177.1630  140.0050 C   0  0  0  0  0  2  0  0  0  0  0  0
  190.3880  176.7240  137.8140 C   0  0  0  0  0  0  0  0  0  0  0  0
  190.3400  177.3510  138.9980 C   0  0  0  0  0  3  0  0  0  0  0  0
  192.7120  176.0550  138.1690 C   0  0  0  0  0  3  0  0  0  0  0  0
  192.1090  173.6140  136.6150 C   0  0  0  0  0  2  0  0  0  0  0  0
  191.5710  174.9940  136.2600 C   0  0  0  0  0  3  0  0  0  0  0  0
  190.6190  173.8350  136.4980 C   0  0  0  0  0  2  0  0  0  0  0  0
  180.3400  176.3100  136.9860 C   0  0  0  0  0  1  0  0  0  0  0  0
  180.4240  177.6230  137.5170 O   0  0  0  0  0  0  0  0  0  0  0  0
  185.3640  179.7130  145.5170 C   0  0  0  0  0  2  0  0  0  0  0  0
  185.3640  178.7840  146.7250 C   0  0  0  0  0  2  0  0  0  0  0  0
  186.7350  178.1660  146.9470 C   0  0  0  0  0  2  0  0  0  0  0  0
  187.0190  177.1100  145.8900 C   0  0  0  0  0  2  0  0  0  0  0  0
  188.4450  177.2040  145.4390 C   0  0  0  0  0  0  0  0  0  0  0  0
  189.4620  176.9740  146.3880 C   0  0  0  0  0  0  0  0  0  0  0  0
  189.1060  176.6360  147.6910 O   0  0  0  0  0  1  0  0  0  0  0  0
  190.8210  177.0890  146.0160 C   0  0  0  0  0  0  0  0  0  0  0  0
  190.1380  177.6690  143.7650 C   0  0  0  0  0  3  0  0  0  0  0  0
  191.1380  177.4400  144.7040 C   0  0  0  0  0  3  0  0  0  0  0  0
  188.7910  177.5510  144.1060 C   0  0  0  0  0  0  0  0  0  0  0  0
  187.8290  177.8030  143.0130 C   0  0  0  0  0  3  0  0  0  0  0  0
  188.1420  177.9270  141.7290 C   0  0  0  0  0  2  0  0  0  0  0  0
  192.4560  175.6050  147.1960 C   0  0  0  0  0  1  0  0  0  0  0  0
  191.8920  176.8720  146.8960 O   0  0  0  0  0  0  0  0  0  0  0  0
  1 13  1  0  0  0  0
  2  6  1  0  0  0  0
  2 10  1  0  0  0  0
  3 11  1  0  0  0  0
  4  1  1  0  0  0  0
  4  2  2  0  0  0  0
  5  3  1  6  0  0  0
  5  9  1  0  0  0  0
  5 16  1  0  0  0  0
  7  6  1  0  0  0  0
  8  7  1  1  0  0  0
  9 14  2  0  0  0  0
 11 17  1  1  0  0  0
 11 12  1  0  0  0  0
 13 10  2  0  0  0  0
 13 33  1  0  0  0  0
 14  8  1  0  0  0  0
 15  8  1  0  0  0  0
 15  4  1  1  0  0  0
 16 12  1  6  0  0  0
 16 15  1  0  0  0  0
 18 19  2  0  0  0  0
 19 17  1  0  0  0  0
 20 19  1  0  0  0  0
 21 20  1  0  0  0  0
 21 25  1  0  0  0  0
 22 25  1  0  0  0  0
 22 27  2  0  0  0  0
 23 24  1  0  0  0  0
 25 26  2  0  0  0  0
 26 24  1  0  0  0  0
 27 23  1  0  0  0  0
 29 30  1  0  0  0  0
 29 28  1  0  0  0  0
 29 22  1  0  0  0  0
 30 28  1  0  0  0  0
 31 32  1  0  0  0  0
 32  9  1  0  0  0  0
 33 34  1  0  0  0  0
 34 35  1  0  0  0  0
 36 35  1  0  0  0  0
 37 36  1  0  0  0  0
 37 38  1  0  0  0  0
 38 39  1  0  0  0  0
 40 38  2  0  0  0  0
 40 47  1  0  0  0  0
 41 43  1  0  0  0  0
 41 42  2  0  0  0  0
 42 40  1  0  0  0  0
 43 37  2  0  0  0  0
 44 43  1  0  0  0  0
 45 44  2  0  0  0  0
 47 46  1  0  0  0  0
M  END
>  <MODEL>
3

>  <REMARK>
 VINA RESULT:      -8.9      2.465      7.777
  Name = 
  13 active torsions:
  status: ('A' for Active; 'I' for Inactive)
    1  A    between atoms: C_2  and  C_46
    2  A    between atoms: N_4  and  C_34
    3  A    between atoms: C_5  and  C_24
    4  A    between atoms: C_6  and  C_20
    5  A    between atoms: C_7  and  C_39
    6  A    between atoms: C_7  and  C_43
    7  A    between atoms: C_11  and  C_14
    8  A    between atoms: C_11  and  C_32
    9  A    between atoms: C_14  and  C_29
   10  A    between atoms: C_24  and  C_41
   11  A    between atoms: C_25  and  O_44
   12  A    between atoms: O_27  and  C_30
   13  A    between atoms: C_41  and  C_43
                            x       y       z     vdW  Elec       q    Type
                         _______ _______ _______ _____ _____    ______ ____

>  <TORSDO>
F 13

$$$$
=
 OpenBabel11032420563D

 47 53  0  0  1  0  0  0  0  0999 V2000
  184.6070  179.2060  143.2370 S   0  0  0  0  0  0  0  0  0  0  0  0
  182.2820  178.6520  143.9740 C   0  0  0  0  0  0  0  0  0  0  0  0
  183.3100  178.6140  137.9090 C   0  0  0  0  0  2  0  0  0  0  0  0
  183.0180  178.8570  142.8090 C   0  0  0  0  0  0  0  0  0  0  0  0
  182.3980  178.9660  139.0520 C   0  0  1  0  0  3  0  0  0  0  0  0
  180.8090  178.3330  143.9580 C   0  0  0  0  0  2  0  0  0  0  0  0
  180.1500  178.6680  142.6090 C   0  0  0  0  0  2  0  0  0  0  0  0
  181.0550  178.2180  141.4680 C   0  0  1  0  0  3  0  0  0  0  0  0
  180.9860  178.4470  139.0340 C   0  0  0  0  0  0  0  0  0  0  0  0
  183.0410  178.7170  145.1470 C   0  0  0  0  0  3  0  0  0  0  0  0
  184.7090  178.8550  138.4890 C   0  0  1  0  0  3  0  0  0  0  0  0
  184.5310  179.0440  139.9990 C   0  0  0  0  0  2  0  0  0  0  0  0
  184.3780  179.0030  144.8910 C   0  0  0  0  0  0  0  0  0  0  0  0
  180.3720  178.2120  140.1640 N   0  0  0  0  0  0  0  0  0  0  0  0
  182.3670  179.0250  141.4660 C   0  0  2  0  0  3  0  0  0  0  0  0
  183.1460  178.5070  140.2670 C   0  0  1  0  0  3  0  0  0  0  0  0
  185.5490  177.6930  138.2390 N   0  0  0  0  0  2  0  0  0  0  0  0
  187.4090  178.9310  137.5530 O   0  0  0  0  0  0  0  0  0  0  0  0
  186.8840  177.8020  137.7410 C   0  0  0  0  0  0  0  0  0  0  0  0
  187.6420  176.5700  137.3980 C   0  0  0  0  0  2  0  0  0  0  0  0
  187.0390  175.9300  136.1600 C   0  0  0  0  0  2  0  0  0  0  0  0
  185.4870  173.9320  136.7540 C   0  0  0  0  0  0  0  0  0  0  0  0
  186.2840  171.7020  136.0240 C   0  0  0  0  0  2  0  0  0  0  0  0
  187.6860  172.1550  136.4420 C   0  0  0  0  0  2  0  0  0  0  0  0
  186.8250  174.4690  136.3780 C   0  0  0  0  0  0  0  0  0  0  0  0
  187.8510  173.6270  136.1880 C   0  0  0  0  0  3  0  0  0  0  0  0
  185.2420  172.6210  136.5990 C   0  0  0  0  0  3  0  0  0  0  0  0
  183.4130  175.1580  136.0870 C   0  0  0  0  0  2  0  0  0  0  0  0
  184.3850  174.8470  137.2180 C   0  0  0  0  0  3  0  0  0  0  0  0
  183.0460  174.1350  137.1360 C   0  0  0  0  0  2  0  0  0  0  0  0
  179.9360  177.0940  137.2600 C   0  0  0  0  0  1  0  0  0  0  0  0
  180.3060  178.3450  137.8180 O   0  0  0  0  0  0  0  0  0  0  0  0
  185.4370  179.2190  145.9210 C   0  0  0  0  0  2  0  0  0  0  0  0
  185.8510  177.9140  146.5900 C   0  0  0  0  0  2  0  0  0  0  0  0
  186.8300  177.1360  145.7260 C   0  0  0  0  0  2  0  0  0  0  0  0
  187.7850  178.0840  145.0180 C   0  0  0  0  0  2  0  0  0  0  0  0
  189.1180  177.4250  144.8290 C   0  0  0  0  0  0  0  0  0  0  0  0
  189.9990  177.3750  145.9280 C   0  0  0  0  0  0  0  0  0  0  0  0
  189.5880  177.9030  147.1490 O   0  0  0  0  0  1  0  0  0  0  0  0
  191.2820  176.7970  145.7850 C   0  0  0  0  0  0  0  0  0  0  0  0
  190.7960  176.3360  143.4560 C   0  0  0  0  0  3  0  0  0  0  0  0
  191.6620  176.2880  144.5440 C   0  0  0  0  0  3  0  0  0  0  0  0
  189.5220  176.8920  143.5760 C   0  0  0  0  0  0  0  0  0  0  0  0
  188.6940  176.8670  142.3520 C   0  0  0  0  0  3  0  0  0  0  0  0
  189.0290  177.4110  141.1890 C   0  0  0  0  0  2  0  0  0  0  0  0
  192.3170  175.6160  147.7340 C   0  0  0  0  0  1  0  0  0  0  0  0
  192.2160  176.7030  146.8280 O   0  0  0  0  0  0  0  0  0  0  0  0
  1 13  1  0  0  0  0
  2 10  1  0  0  0  0
  3 11  1  0  0  0  0
  4  1  1  0  0  0  0
  4  2  2  0  0  0  0
  5  3  1  6  0  0  0
  5 16  1  0  0  0  0
  6  2  1  0  0  0  0
  7  6  1  0  0  0  0
  8  7  1  1  0  0  0
  9  5  1  0  0  0  0
  9 14  2  0  0  0  0
 11 17  1  1  0  0  0
 11 12  1  0  0  0  0
 13 10  2  0  0  0  0
 13 33  1  0  0  0  0
 14  8  1  0  0  0  0
 15  8  1  0  0  0  0
 15  4  1  1  0  0  0
 16 12  1  6  0  0  0
 16 15  1  0  0  0  0
 18 19  2  0  0  0  0
 19 17  1  0  0  0  0
 20 19  1  0  0  0  0
 21 25  1  0  0  0  0
 21 20  1  0  0  0  0
 22 29  1  0  0  0  0
 23 24  1  0  0  0  0
 23 27  1  0  0  0  0
 25 22  1  0  0  0  0
 26 25  2  0  0  0  0
 26 24  1  0  0  0  0
 27 22  2  0  0  0  0
 28 30  1  0  0  0  0
 28 29  1  0  0  0  0
 30 29  1  0  0  0  0
 31 32  1  0  0  0  0
 32  9  1  0  0  0  0
 33 34  1  0  0  0  0
 35 34  1  0  0  0  0
 36 35  1  0  0  0  0
 37 36  1  0  0  0  0
 37 38  1  0  0  0  0
 38 39  1  0  0  0  0
 40 38  2  0  0  0  0
 40 47  1  0  0  0  0
 41 43  1  0  0  0  0
 41 42  2  0  0  0  0
 42 40  1  0  0  0  0
 43 37  2  0  0  0  0
 44 43  1  0  0  0  0
 45 44  2  0  0  0  0
 47 46  1  0  0  0  0
M  END
>  <MODEL>
4

>  <REMARK>
 VINA RESULT:      -8.8      3.012      8.215
  Name = 
  13 active torsions:
  status: ('A' for Active; 'I' for Inactive)
    1  A    between atoms: C_2  and  C_46
    2  A    between atoms: N_4  and  C_34
    3  A    between atoms: C_5  and  C_24
    4  A    between atoms: C_6  and  C_20
    5  A    between atoms: C_7  and  C_39
    6  A    between atoms: C_7  and  C_43
    7  A    between atoms: C_11  and  C_14
    8  A    between atoms: C_11  and  C_32
    9  A    between atoms: C_14  and  C_29
   10  A    between atoms: C_24  and  C_41
   11  A    between atoms: C_25  and  O_44
   12  A    between atoms: O_27  and  C_30
   13  A    between atoms: C_41  and  C_43
                            x       y       z     vdW  Elec       q    Type
                         _______ _______ _______ _____ _____    ______ ____

>  <TORSDO>
F 13

$$$$
=
 OpenBabel11032420563D

 47 53  0  0  1  0  0  0  0  0999 V2000
  183.7970  179.0380  141.5520 S   0  0  0  0  0  0  0  0  0  0  0  0
  181.5040  178.5080  142.3990 C   0  0  0  0  0  0  0  0  0  0  0  0
  182.5800  177.2800  136.4690 C   0  0  0  0  0  2  0  0  0  0  0  0
  182.2360  178.5130  141.2130 C   0  0  0  0  0  0  0  0  0  0  0  0
  181.6390  177.8040  137.5190 C   0  0  1  0  0  3  0  0  0  0  0  0
  180.0530  178.1030  142.4570 C   0  0  0  0  0  2  0  0  0  0  0  0
  179.3860  178.1110  141.0710 C   0  0  0  0  0  2  0  0  0  0  0  0
  180.3250  177.4910  140.0440 C   0  0  1  0  0  3  0  0  0  0  0  0
  180.2620  177.2080  137.6150 C   0  0  0  0  0  0  0  0  0  0  0  0
  182.2490  178.8600  143.5300 C   0  0  0  0  0  3  0  0  0  0  0  0
  183.9570  177.7200  136.9790 C   0  0  1  0  0  3  0  0  0  0  0  0
  183.7570  178.2060  138.4190 C   0  0  0  0  0  2  0  0  0  0  0  0
  183.5680  179.1680  143.2130 C   0  0  0  0  0  0  0  0  0  0  0  0
  179.6540  177.1740  138.7720 N   0  0  0  0  0  0  0  0  0  0  0  0
  181.5860  178.3590  139.8680 C   0  0  2  0  0  3  0  0  0  0  0  0
  182.4050  177.6540  138.7980 C   0  0  1  0  0  3  0  0  0  0  0  0
  184.8690  176.5860  136.9710 N   0  0  0  0  0  2  0  0  0  0  0  0
  185.7070  177.0140  134.8320 O   0  0  0  0  0  0  0  0  0  0  0  0
  185.6960  176.2720  135.8490 C   0  0  0  0  0  0  0  0  0  0  0  0
  186.5150  175.0310  135.8660 C   0  0  0  0  0  2  0  0  0  0  0  0
  187.1390  174.8520  137.2390 C   0  0  0  0  0  2  0  0  0  0  0  0
  189.2680  176.3280  137.4440 C   0  0  0  0  0  0  0  0  0  0  0  0
  191.3960  175.0990  137.7700 C   0  0  0  0  0  2  0  0  0  0  0  0
  190.8690  174.0800  136.7560 C   0  0  0  0  0  2  0  0  0  0  0  0
  188.6210  175.0150  137.1650 C   0  0  0  0  0  0  0  0  0  0  0  0
  189.3780  173.9450  136.8840 C   0  0  0  0  0  3  0  0  0  0  0  0
  190.5830  176.3630  137.7140 C   0  0  0  0  0  3  0  0  0  0  0  0
  188.0000  177.8780  138.9390 C   0  0  0  0  0  2  0  0  0  0  0  0
  188.4580  177.5950  137.5140 C   0  0  0  0  0  3  0  0  0  0  0  0
  189.1770  178.6280  138.3630 C   0  0  0  0  0  2  0  0  0  0  0  0
  179.1320  177.7510  135.4910 C   0  0  0  0  0  1  0  0  0  0  0  0
  179.5990  176.8150  136.4500 O   0  0  0  0  0  0  0  0  0  0  0  0
  184.6040  179.6570  144.1720 C   0  0  0  0  0  2  0  0  0  0  0  0
  184.5460  178.9080  145.4980 C   0  0  0  0  0  2  0  0  0  0  0  0
  185.9390  178.6570  146.0520 C   0  0  0  0  0  2  0  0  0  0  0  0
  186.4600  177.3060  145.5880 C   0  0  0  0  0  2  0  0  0  0  0  0
  187.8950  177.4230  145.1710 C   0  0  0  0  0  0  0  0  0  0  0  0
  188.1780  177.6030  143.8010 C   0  0  0  0  0  0  0  0  0  0  0  0
  187.1220  177.7000  142.8990 O   0  0  0  0  0  1  0  0  0  0  0  0
  189.5180  177.6810  143.3570 C   0  0  0  0  0  0  0  0  0  0  0  0
  190.2750  177.3910  145.6410 C   0  0  0  0  0  3  0  0  0  0  0  0
  190.5500  177.5690  144.2890 C   0  0  0  0  0  3  0  0  0  0  0  0
  188.9600  177.3220  146.1040 C   0  0  0  0  0  0  0  0  0  0  0  0
  188.8040  177.1480  147.5630 C   0  0  0  0  0  3  0  0  0  0  0  0
  188.7200  178.1330  148.4470 C   0  0  0  0  0  2  0  0  0  0  0  0
  190.9190  177.1530  141.3510 C   0  0  0  0  0  1  0  0  0  0  0  0
  189.8870  177.8640  142.0150 O   0  0  0  0  0  0  0  0  0  0  0  0
  1 13  1  0  0  0  0
  2  6  1  0  0  0  0
  2 10  1  0  0  0  0
  3 11  1  0  0  0  0
  4  1  1  0  0  0  0
  4  2  2  0  0  0  0
  5  3  1  6  0  0  0
  5  9  1  0  0  0  0
  5 16  1  0  0  0  0
  7  6  1  0  0  0  0
  8  7  1  1  0  0  0
  9 14  2  0  0  0  0
 11 17  1  1  0  0  0
 11 12  1  0  0  0  0
 13 10  2  0  0  0  0
 13 33  1  0  0  0  0
 14  8  1  0  0  0  0
 15  8  1  0  0  0  0
 15  4  1  1  0  0  0
 16 12  1  6  0  0  0
 16 15  1  0  0  0  0
 18 19  2  0  0  0  0
 19 20  1  0  0  0  0
 19 17  1  0  0  0  0
 20 21  1  0  0  0  0
 22 29  1  0  0  0  0
 22 27  2  0  0  0  0
 24 26  1  0  0  0  0
 24 23  1  0  0  0  0
 25 21  1  0  0  0  0
 25 22  1  0  0  0  0
 26 25  2  0  0  0  0
 27 23  1  0  0  0  0
 29 30  1  0  0  0  0
 29 28  1  0  0  0  0
 30 28  1  0  0  0  0
 31 32  1  0  0  0  0
 32  9  1  0  0  0  0
 33 34  1  0  0  0  0
 34 35  1  0  0  0  0
 36 35  1  0  0  0  0
 37 36  1  0  0  0  0
 37 43  1  0  0  0  0
 38 37  2  0  0  0  0
 39 38  1  0  0  0  0
 40 38  1  0  0  0  0
 40 42  2  0  0  0  0
 41 43  2  0  0  0  0
 42 41  1  0  0  0  0
 43 44  1  0  0  0  0
 44 45  2  0  0  0  0
 46 47  1  0  0  0  0
 47 40  1  0  0  0  0
M  END
>  <MODEL>
5

>  <REMARK>
 VINA RESULT:      -8.7      2.959      8.330
  Name = 
  13 active torsions:
  status: ('A' for Active; 'I' for Inactive)
    1  A    between atoms: C_2  and  C_46
    2  A    between atoms: N_4  and  C_34
    3  A    between atoms: C_5  and  C_24
    4  A    between atoms: C_6  and  C_20
    5  A    between atoms: C_7  and  C_39
    6  A    between atoms: C_7  and  C_43
    7  A    between atoms: C_11  and  C_14
    8  A    between atoms: C_11  and  C_32
    9  A    between atoms: C_14  and  C_29
   10  A    between atoms: C_24  and  C_41
   11  A    between atoms: C_25  and  O_44
   12  A    between atoms: O_27  and  C_30
   13  A    between atoms: C_41  and  C_43
                            x       y       z     vdW  Elec       q    Type
                         _______ _______ _______ _____ _____    ______ ____

>  <TORSDO>
F 13

$$$$
=
 OpenBabel11032420563D

 47 53  0  0  1  0  0  0  0  0999 V2000
  187.6340  177.6650  142.8400 S   0  0  0  0  0  0  0  0  0  0  0  0
  187.0160  177.8210  145.2590 C   0  0  0  0  0  0  0  0  0  0  0  0
  182.4550  178.6400  141.2140 C   0  0  0  0  0  2  0  0  0  0  0  0
  186.4540  177.9850  143.9950 C   0  0  0  0  0  0  0  0  0  0  0  0
  183.1160  179.0520  142.5010 C   0  0  1  0  0  3  0  0  0  0  0  0
  186.2380  178.0460  146.5300 C   0  0  0  0  0  2  0  0  0  0  0  0
  184.9500  178.8520  146.2950 C   0  0  0  0  0  2  0  0  0  0  0  0
  184.2530  178.3520  145.0350 C   0  0  1  0  0  3  0  0  0  0  0  0
  182.2930  179.0730  143.7590 C   0  0  0  0  0  0  0  0  0  0  0  0
  188.3450  177.3810  145.2400 C   0  0  0  0  0  3  0  0  0  0  0  0
  183.6390  178.2570  140.3170 C   0  0  1  0  0  3  0  0  0  0  0  0
  184.8720  178.1900  141.2240 C   0  0  0  0  0  2  0  0  0  0  0  0
  188.8270  177.2280  143.9430 C   0  0  0  0  0  0  0  0  0  0  0  0
  182.8710  178.8460  144.9100 N   0  0  0  0  0  0  0  0  0  0  0  0
  185.1150  178.6340  143.7900 C   0  0  2  0  0  3  0  0  0  0  0  0
  184.2910  178.1280  142.6160 C   0  0  1  0  0  3  0  0  0  0  0  0
  183.4000  176.9500  139.7230 N   0  0  0  0  0  2  0  0  0  0  0  0
  182.8700  177.7840  137.6050 O   0  0  0  0  0  0  0  0  0  0  0  0
  182.9880  176.7860  138.3650 C   0  0  0  0  0  0  0  0  0  0  0  0
  182.6490  175.4300  137.8600 C   0  0  0  0  0  2  0  0  0  0  0  0
  183.9260  174.6620  137.5690 C   0  0  0  0  0  2  0  0  0  0  0  0
  184.6980  172.5200  136.3160 C   0  0  0  0  0  0  0  0  0  0  0  0
  183.0920  170.6310  136.3330 C   0  0  0  0  0  2  0  0  0  0  0  0
  181.9880  171.6740  136.1330 C   0  0  0  0  0  2  0  0  0  0  0  0
  183.6160  173.3670  136.8930 C   0  0  0  0  0  0  0  0  0  0  0  0
  182.3440  172.9480  136.8460 C   0  0  0  0  0  3  0  0  0  0  0  0
  184.4400  171.2310  136.0400 C   0  0  0  0  0  3  0  0  0  0  0  0
  187.0270  172.5720  137.2220 C   0  0  0  0  0  2  0  0  0  0  0  0
  186.0900  173.0600  136.1240 C   0  0  0  0  0  3  0  0  0  0  0  0
  187.0600  171.9220  135.8600 C   0  0  0  0  0  2  0  0  0  0  0  0
  179.8920  178.5670  144.0050 C   0  0  0  0  0  1  0  0  0  0  0  0
  180.9530  179.4590  143.6990 O   0  0  0  0  0  0  0  0  0  0  0  0
  190.2230  176.8510  143.5700 C   0  0  0  0  0  2  0  0  0  0  0  0
  190.6920  177.5850  142.3190 C   0  0  0  0  0  2  0  0  0  0  0  0
  190.5850  176.7010  141.0870 C   0  0  0  0  0  2  0  0  0  0  0  0
  190.8060  177.5190  139.8250 C   0  0  0  0  0  2  0  0  0  0  0  0
  189.9600  176.9850  138.7100 C   0  0  0  0  0  0  0  0  0  0  0  0
  188.6800  177.5450  138.5170 C   0  0  0  0  0  0  0  0  0  0  0  0
  188.2670  178.5890  139.3420 O   0  0  0  0  0  1  0  0  0  0  0  0
  187.8320  177.0470  137.5010 C   0  0  0  0  0  0  0  0  0  0  0  0
  189.5380  175.4380  136.8900 C   0  0  0  0  0  3  0  0  0  0  0  0
  188.2760  175.9940  136.7030 C   0  0  0  0  0  3  0  0  0  0  0  0
  190.3960  175.9190  137.8790 C   0  0  0  0  0  0  0  0  0  0  0  0
  191.7130  175.2550  137.9630 C   0  0  0  0  0  3  0  0  0  0  0  0
  192.8670  175.7910  137.5860 C   0  0  0  0  0  2  0  0  0  0  0  0
  185.8630  177.4290  136.0040 C   0  0  0  0  0  1  0  0  0  0  0  0
  186.5480  177.5490  137.2400 O   0  0  0  0  0  0  0  0  0  0  0  0
  1 13  1  0  0  0  0
  1  4  1  0  0  0  0
  2  6  1  0  0  0  0
  4  2  2  0  0  0  0
  5  3  1  6  0  0  0
  5 16  1  0  0  0  0
  5  9  1  0  0  0  0
  7  6  1  0  0  0  0
  8  7  1  1  0  0  0
  9 14  2  0  0  0  0
 10  2  1  0  0  0  0
 11 17  1  1  0  0  0
 11  3  1  0  0  0  0
 11 12  1  0  0  0  0
 13 10  2  0  0  0  0
 14  8  1  0  0  0  0
 15  4  1  1  0  0  0
 15  8  1  0  0  0  0
 16 12  1  6  0  0  0
 16 15  1  0  0  0  0
 18 19  2  0  0  0  0
 19 17  1  0  0  0  0
 20 19  1  0  0  0  0
 21 20  1  0  0  0  0
 22 25  1  0  0  0  0
 24 23  1  0  0  0  0
 24 26  1  0  0  0  0
 25 21  1  0  0  0  0
 26 25  2  0  0  0  0
 27 22  2  0  0  0  0
 27 23  1  0  0  0  0
 29 22  1  0  0  0  0
 29 28  1  0  0  0  0
 30 29  1  0  0  0  0
 30 28  1  0  0  0  0
 32  9  1  0  0  0  0
 32 31  1  0  0  0  0
 33 13  1  0  0  0  0
 34 33  1  0  0  0  0
 35 34  1  0  0  0  0
 36 35  1  0  0  0  0
 37 36  1  0  0  0  0
 38 37  1  0  0  0  0
 38 39  1  0  0  0  0
 40 38  2  0  0  0  0
 41 43  1  0  0  0  0
 42 41  2  0  0  0  0
 42 40  1  0  0  0  0
 43 44  1  0  0  0  0
 43 37  2  0  0  0  0
 45 44  2  0  0  0  0
 46 47  1  0  0  0  0
 47 40  1  0  0  0  0
M  END
>  <MODEL>
6

>  <REMARK>
 VINA RESULT:      -8.7      2.933      7.292
  Name = 
  13 active torsions:
  status: ('A' for Active; 'I' for Inactive)
    1  A    between atoms: C_2  and  C_46
    2  A    between atoms: N_4  and  C_34
    3  A    between atoms: C_5  and  C_24
    4  A    between atoms: C_6  and  C_20
    5  A    between atoms: C_7  and  C_39
    6  A    between atoms: C_7  and  C_43
    7  A    between atoms: C_11  and  C_14
    8  A    between atoms: C_11  and  C_32
    9  A    between atoms: C_14  and  C_29
   10  A    between atoms: C_24  and  C_41
   11  A    between atoms: C_25  and  O_44
   12  A    between atoms: O_27  and  C_30
   13  A    between atoms: C_41  and  C_43
                            x       y       z     vdW  Elec       q    Type
                         _______ _______ _______ _____ _____    ______ ____

>  <TORSDO>
F 13

$$$$
=
 OpenBabel11032420563D

 47 53  0  0  1  0  0  0  0  0999 V2000
  186.2510  176.6640  137.2030 S   0  0  0  0  0  0  0  0  0  0  0  0
  186.9020  174.9170  135.5350 C   0  0  0  0  0  0  0  0  0  0  0  0
  191.2980  176.7530  139.4270 C   0  0  0  0  0  2  0  0  0  0  0  0
  187.4640  175.7070  136.5360 C   0  0  0  0  0  0  0  0  0  0  0  0
  190.9070  176.3570  138.0290 C   0  0  1  0  0  3  0  0  0  0  0  0
  187.7140  173.9470  134.7150 C   0  0  0  0  0  2  0  0  0  0  0  0
  189.2240  174.2240  134.8030 C   0  0  0  0  0  2  0  0  0  0  0  0
  189.6080  174.5330  136.2450 C   0  0  1  0  0  3  0  0  0  0  0  0
  191.6660  175.2480  137.3560 C   0  0  0  0  0  0  0  0  0  0  0  0
  185.5180  175.0670  135.3990 C   0  0  0  0  0  3  0  0  0  0  0  0
  190.0570  177.4940  139.9420 C   0  0  1  0  0  3  0  0  0  0  0  0
  188.9360  177.2260  138.9330 C   0  0  0  0  0  2  0  0  0  0  0  0
  185.0030  176.0070  136.2870 C   0  0  0  0  0  0  0  0  0  0  0  0
  191.0620  174.4990  136.4710 N   0  0  0  0  0  0  0  0  0  0  0  0
  188.9490  175.8440  136.7130 C   0  0  2  0  0  3  0  0  0  0  0  0
  189.4440  176.0490  138.1360 C   0  0  1  0  0  3  0  0  0  0  0  0
  189.6770  176.9650  141.2440 N   0  0  0  0  0  2  0  0  0  0  0  0
  191.5530  177.8010  142.3590 O   0  0  0  0  0  0  0  0  0  0  0  0
  190.4880  177.1300  142.4080 C   0  0  0  0  0  0  0  0  0  0  0  0
  190.0950  176.4620  143.6770 C   0  0  0  0  0  2  0  0  0  0  0  0
  189.8110  177.5120  144.7360 C   0  0  0  0  0  2  0  0  0  0  0  0
  187.7960  177.5760  146.3760 C   0  0  0  0  0  0  0  0  0  0  0  0
  185.7140  178.5760  145.4760 C   0  0  0  0  0  2  0  0  0  0  0  0
  186.0290  177.8530  144.1630 C   0  0  0  0  0  2  0  0  0  0  0  0
  188.3440  177.6160  144.9900 C   0  0  0  0  0  0  0  0  0  0  0  0
  187.5160  177.7900  143.9510 C   0  0  0  0  0  3  0  0  0  0  0  0
  186.5470  178.0170  146.5970 C   0  0  0  0  0  3  0  0  0  0  0  0
  189.1640  178.3300  148.3260 C   0  0  0  0  0  2  0  0  0  0  0  0
  188.6470  177.1350  147.5360 C   0  0  0  0  0  3  0  0  0  0  0  0
  187.9910  177.5340  148.8470 C   0  0  0  0  0  2  0  0  0  0  0  0
  194.0050  175.3930  136.5870 C   0  0  0  0  0  1  0  0  0  0  0  0
  193.0370  175.1130  137.5860 O   0  0  0  0  0  0  0  0  0  0  0  0
  183.5820  176.4610  136.3490 C   0  0  0  0  0  2  0  0  0  0  0  0
  183.2590  177.1260  137.6820 C   0  0  0  0  0  2  0  0  0  0  0  0
  182.1410  178.1460  137.5350 C   0  0  0  0  0  2  0  0  0  0  0  0
  182.4550  179.3990  138.3370 C   0  0  0  0  0  2  0  0  0  0  0  0
  182.4220  179.0930  139.8040 C   0  0  0  0  0  0  0  0  0  0  0  0
  181.1660  178.9990  140.4370 C   0  0  0  0  0  0  0  0  0  0  0  0
  180.0110  179.1570  139.6750 O   0  0  0  0  0  1  0  0  0  0  0  0
  181.0860  178.7480  141.8260 C   0  0  0  0  0  0  0  0  0  0  0  0
  183.5060  178.6990  141.9380 C   0  0  0  0  0  3  0  0  0  0  0  0
  182.2640  178.6060  142.5580 C   0  0  0  0  0  3  0  0  0  0  0  0
  183.6090  178.9340  140.5670 C   0  0  0  0  0  0  0  0  0  0  0  0
  184.9840  178.9940  140.0290 C   0  0  0  0  0  3  0  0  0  0  0  0
  186.0810  178.6480  140.6890 C   0  0  0  0  0  2  0  0  0  0  0  0
  179.2470  179.6910  143.2390 C   0  0  0  0  0  1  0  0  0  0  0  0
  179.8780  178.6360  142.5320 O   0  0  0  0  0  0  0  0  0  0  0  0
  2  4  2  0  0  0  0
  3 11  1  0  0  0  0
  4  1  1  0  0  0  0
  5 16  1  0  0  0  0
  5  3  1  1  0  0  0
  6  7  1  0  0  0  0
  6  2  1  0  0  0  0
  8  7  1  6  0  0  0
  8 14  1  0  0  0  0
  8 15  1  0  0  0  0
  9 32  1  0  0  0  0
  9  5  1  0  0  0  0
 10  2  1  0  0  0  0
 10 13  2  0  0  0  0
 11 17  1  1  0  0  0
 12 11  1  0  0  0  0
 13 33  1  0  0  0  0
 13  1  1  0  0  0  0
 14  9  2  0  0  0  0
 15  4  1  1  0  0  0
 15 16  1  0  0  0  0
 16 12  1  6  0  0  0
 17 19  1  0  0  0  0
 18 19  2  0  0  0  0
 19 20  1  0  0  0  0
 20 21  1  0  0  0  0
 21 25  1  0  0  0  0
 22 27  2  0  0  0  0
 22 29  1  0  0  0  0
 23 27  1  0  0  0  0
 24 23  1  0  0  0  0
 25 22  1  0  0  0  0
 26 24  1  0  0  0  0
 26 25  2  0  0  0  0
 28 30  1  0  0  0  0
 29 28  1  0  0  0  0
 29 30  1  0  0  0  0
 31 32  1  0  0  0  0
 33 34  1  0  0  0  0
 35 34  1  0  0  0  0
 35 36  1  0  0  0  0
 36 37  1  0  0  0  0
 37 38  2  0  0  0  0
 37 43  1  0  0  0  0
 38 40  1  0  0  0  0
 39 38  1  0  0  0  0
 40 47  1  0  0  0  0
 40 42  2  0  0  0  0
 41 42  1  0  0  0  0
 43 41  2  0  0  0  0
 44 43  1  0  0  0  0
 44 45  2  0  0  0  0
 47 46  1  0  0  0  0
M  END
>  <MODEL>
7

>  <REMARK>
 VINA RESULT:      -8.7      2.535      8.526
  Name = 
  13 active torsions:
  status: ('A' for Active; 'I' for Inactive)
    1  A    between atoms: C_2  and  C_46
    2  A    between atoms: N_4  and  C_34
    3  A    between atoms: C_5  and  C_24
    4  A    between atoms: C_6  and  C_20
    5  A    between atoms: C_7  and  C_39
    6  A    between atoms: C_7  and  C_43
    7  A    between atoms: C_11  and  C_14
    8  A    between atoms: C_11  and  C_32
    9  A    between atoms: C_14  and  C_29
   10  A    between atoms: C_24  and  C_41
   11  A    between atoms: C_25  and  O_44
   12  A    between atoms: O_27  and  C_30
   13  A    between atoms: C_41  and  C_43
                            x       y       z     vdW  Elec       q    Type
                         _______ _______ _______ _____ _____    ______ ____

>  <TORSDO>
F 13

$$$$
=
 OpenBabel11032420563D

 47 53  0  0  1  0  0  0  0  0999 V2000
  188.2800  177.3820  137.2310 S   0  0  0  0  0  0  0  0  0  0  0  0
  189.1410  175.8710  135.4340 C   0  0  0  0  0  0  0  0  0  0  0  0
  192.8770  176.8220  140.2270 C   0  0  0  0  0  2  0  0  0  0  0  0
  189.5530  176.4640  136.6250 C   0  0  0  0  0  0  0  0  0  0  0  0
  192.7150  176.6670  138.7400 C   0  0  1  0  0  3  0  0  0  0  0  0
  190.0450  174.9880  134.6120 C   0  0  0  0  0  2  0  0  0  0  0  0
  191.5270  175.1540  134.9850 C   0  0  0  0  0  2  0  0  0  0  0  0
  191.6720  175.2170  136.5010 C   0  0  1  0  0  3  0  0  0  0  0  0
  193.5370  175.6270  138.0300 C   0  0  0  0  0  0  0  0  0  0  0  0
  187.8060  176.1250  135.1010 C   0  0  0  0  0  3  0  0  0  0  0  0
  191.5950  177.5510  140.6470 C   0  0  1  0  0  3  0  0  0  0  0  0
  190.6520  177.5090  139.4390 C   0  0  0  0  0  2  0  0  0  0  0  0
  187.1830  176.9500  136.0330 C   0  0  0  0  0  0  0  0  0  0  0  0
  193.0640  175.0590  136.9510 N   0  0  0  0  0  0  0  0  0  0  0  0
  190.9910  176.4810  137.0590 C   0  0  2  0  0  3  0  0  0  0  0  0
  191.2450  176.4370  138.5580 C   0  0  1  0  0  3  0  0  0  0  0  0
  190.9810  176.8570  141.7680 N   0  0  0  0  0  2  0  0  0  0  0  0
  191.6930  178.3970  143.3750 O   0  0  0  0  0  0  0  0  0  0  0  0
  191.0950  177.3190  143.1150 C   0  0  0  0  0  0  0  0  0  0  0  0
  190.5420  176.4960  144.2230 C   0  0  0  0  0  2  0  0  0  0  0  0
  189.0810  176.8480  144.4380 C   0  0  0  0  0  2  0  0  0  0  0  0
  187.5720  178.0130  146.2040 C   0  0  0  0  0  0  0  0  0  0  0  0
  188.2600  177.7120  148.5660 C   0  0  0  0  0  2  0  0  0  0  0  0
  189.7030  177.8820  148.0830 C   0  0  0  0  0  2  0  0  0  0  0  0
  188.8710  177.3990  145.8090 C   0  0  0  0  0  0  0  0  0  0  0  0
  189.8610  177.2980  146.7080 C   0  0  0  0  0  3  0  0  0  0  0  0
  187.2950  178.1720  147.5080 C   0  0  0  0  0  3  0  0  0  0  0  0
  185.2600  177.5630  145.3670 C   0  0  0  0  0  2  0  0  0  0  0  0
  186.5360  178.3720  145.1720 C   0  0  0  0  0  3  0  0  0  0  0  0
  185.3240  178.9940  145.8430 C   0  0  0  0  0  2  0  0  0  0  0  0
  195.4040  174.0700  138.4450 C   0  0  0  0  0  1  0  0  0  0  0  0
  194.8430  175.3740  138.4540 O   0  0  0  0  0  0  0  0  0  0  0  0
  185.7880  177.4770  135.9360 C   0  0  0  0  0  2  0  0  0  0  0  0
  184.9550  177.0990  137.1550 C   0  0  0  0  0  2  0  0  0  0  0  0
  185.5320  177.6970  138.4270 C   0  0  0  0  0  2  0  0  0  0  0  0
  184.8320  179.0040  138.7660 C   0  0  0  0  0  2  0  0  0  0  0  0
  184.0370  178.8500  140.0270 C   0  0  0  0  0  0  0  0  0  0  0  0
  182.6540  178.6030  139.9170 C   0  0  0  0  0  0  0  0  0  0  0  0
  182.0880  178.4750  138.6510 O   0  0  0  0  0  1  0  0  0  0  0  0
  181.8580  178.4880  141.0800 C   0  0  0  0  0  0  0  0  0  0  0  0
  183.8230  178.8770  142.4430 C   0  0  0  0  0  3  0  0  0  0  0  0
  182.4580  178.6310  142.3310 C   0  0  0  0  0  3  0  0  0  0  0  0
  184.6300  178.9830  141.3100 C   0  0  0  0  0  0  0  0  0  0  0  0
  186.0650  179.2280  141.5670 C   0  0  0  0  0  3  0  0  0  0  0  0
  187.0130  178.3000  141.5620 C   0  0  0  0  0  2  0  0  0  0  0  0
  179.8820  176.9760  140.8030 C   0  0  0  0  0  1  0  0  0  0  0  0
  180.4770  178.2380  141.0600 O   0  0  0  0  0  0  0  0  0  0  0  0
  2  4  2  0  0  0  0
  3 11  1  0  0  0  0
  4  1  1  0  0  0  0
  5  3  1  1  0  0  0
  6  7  1  0  0  0  0
  6  2  1  0  0  0  0
  8  7  1  6  0  0  0
  8 14  1  0  0  0  0
  8 15  1  0  0  0  0
  9 32  1  0  0  0  0
  9  5  1  0  0  0  0
 10  2  1  0  0  0  0
 10 13  2  0  0  0  0
 11 17  1  1  0  0  0
 12 11  1  0  0  0  0
 13  1  1  0  0  0  0
 14  9  2  0  0  0  0
 15  4  1  1  0  0  0
 15 16  1  0  0  0  0
 16  5  1  0  0  0  0
 16 12  1  1  0  0  0
 17 19  1  0  0  0  0
 19 18  2  0  0  0  0
 19 20  1  0  0  0  0
 20 21  1  0  0  0  0
 21 25  1  0  0  0  0
 22 27  2  0  0  0  0
 24 23  1  0  0  0  0
 25 22  1  0  0  0  0
 25 26  2  0  0  0  0
 26 24  1  0  0  0  0
 27 23  1  0  0  0  0
 28 30  1  0  0  0  0
 29 28  1  0  0  0  0
 29 30  1  0  0  0  0
 29 22  1  0  0  0  0
 31 32  1  0  0  0  0
 33 13  1  0  0  0  0
 33 34  1  0  0  0  0
 34 35  1  0  0  0  0
 35 36  1  0  0  0  0
 36 37  1  0  0  0  0
 37 43  1  0  0  0  0
 38 37  2  0  0  0  0
 38 40  1  0  0  0  0
 39 38  1  0  0  0  0
 40 42  2  0  0  0  0
 42 41  1  0  0  0  0
 43 44  1  0  0  0  0
 43 41  2  0  0  0  0
 45 44  2  0  0  0  0
 46 47  1  0  0  0  0
 47 40  1  0  0  0  0
M  END
>  <MODEL>
8

>  <REMARK>
 VINA RESULT:      -8.7      2.320      8.368
  Name = 
  13 active torsions:
  status: ('A' for Active; 'I' for Inactive)
    1  A    between atoms: C_2  and  C_46
    2  A    between atoms: N_4  and  C_34
    3  A    between atoms: C_5  and  C_24
    4  A    between atoms: C_6  and  C_20
    5  A    between atoms: C_7  and  C_39
    6  A    between atoms: C_7  and  C_43
    7  A    between atoms: C_11  and  C_14
    8  A    between atoms: C_11  and  C_32
    9  A    between atoms: C_14  and  C_29
   10  A    between atoms: C_24  and  C_41
   11  A    between atoms: C_25  and  O_44
   12  A    between atoms: O_27  and  C_30
   13  A    between atoms: C_41  and  C_43
                            x       y       z     vdW  Elec       q    Type
                         _______ _______ _______ _____ _____    ______ ____

>  <TORSDO>
F 13

$$$$
=
 OpenBabel11032420563D

 47 53  0  0  1  0  0  0  0  0999 V2000
  185.2020  177.8690  143.5310 S   0  0  0  0  0  0  0  0  0  0  0  0
  185.4990  178.7090  145.8680 C   0  0  0  0  0  0  0  0  0  0  0  0
  190.5350  176.5350  143.0840 C   0  0  0  0  0  2  0  0  0  0  0  0
  186.2190  178.0800  144.8550 C   0  0  0  0  0  0  0  0  0  0  0  0
  189.7070  176.6410  144.3350 C   0  0  1  0  0  3  0  0  0  0  0  0
  186.1030  179.0380  147.2090 C   0  0  0  0  0  2  0  0  0  0  0  0
  187.4000  178.2560  147.4760 C   0  0  0  0  0  2  0  0  0  0  0  0
  188.2610  178.2420  146.2190 C   0  0  1  0  0  3  0  0  0  0  0  0
  190.3590  177.1540  145.5890 C   0  0  0  0  0  0  0  0  0  0  0  0
  184.1900  179.0530  145.5110 C   0  0  0  0  0  3  0  0  0  0  0  0
  189.4820  176.4840  141.9700 C   0  0  1  0  0  3  0  0  0  0  0  0
  188.1430  176.8560  142.6140 C   0  0  0  0  0  2  0  0  0  0  0  0
  183.8830  178.6600  144.2120 C   0  0  0  0  0  0  0  0  0  0  0  0
  189.6400  177.7950  146.4740 N   0  0  0  0  0  0  0  0  0  0  0  0
  187.5640  177.4560  145.0930 C   0  0  2  0  0  3  0  0  0  0  0  0
  188.5390  177.4870  143.9270 C   0  0  1  0  0  3  0  0  0  0  0  0
  189.8130  177.4560  140.9390 N   0  0  0  0  0  2  0  0  0  0  0  0
  189.3670  176.0180  139.1520 O   0  0  0  0  0  0  0  0  0  0  0  0
  189.7630  177.1470  139.5450 C   0  0  0  0  0  0  0  0  0  0  0  0
  190.2280  178.1520  138.5530 C   0  0  0  0  0  2  0  0  0  0  0  0
  189.0590  179.0210  138.1240 C   0  0  0  0  0  2  0  0  0  0  0  0
  186.7370  178.0350  137.4990 C   0  0  0  0  0  0  0  0  0  0  0  0
  186.3820  177.5750  135.0890 C   0  0  0  0  0  2  0  0  0  0  0  0
  187.8260  177.0680  135.0550 C   0  0  0  0  0  2  0  0  0  0  0  0
  188.1730  178.2770  137.1800 C   0  0  0  0  0  0  0  0  0  0  0  0
  188.6750  177.8600  136.0100 C   0  0  0  0  0  3  0  0  0  0  0  0
  185.8980  177.6890  136.5090 C   0  0  0  0  0  3  0  0  0  0  0  0
  185.0160  179.2170  138.8730 C   0  0  0  0  0  2  0  0  0  0  0  0
  186.2000  178.2590  138.8870 C   0  0  0  0  0  3  0  0  0  0  0  0
  184.7800  177.7310  138.9890 C   0  0  0  0  0  2  0  0  0  0  0  0
  192.0590  175.9030  146.8670 C   0  0  0  0  0  1  0  0  0  0  0  0
  191.6920  176.8280  145.8550 O   0  0  0  0  0  0  0  0  0  0  0  0
  182.5510  178.8030  143.5490 C   0  0  0  0  0  2  0  0  0  0  0  0
  182.6190  178.4650  142.0650 C   0  0  0  0  0  2  0  0  0  0  0  0
  181.5390  179.1940  141.2820 C   0  0  0  0  0  2  0  0  0  0  0  0
  180.6020  178.1990  140.6170 C   0  0  0  0  0  2  0  0  0  0  0  0
  181.0570  177.9190  139.2160 C   0  0  0  0  0  0  0  0  0  0  0  0
  181.4220  176.5990  138.8850 C   0  0  0  0  0  0  0  0  0  0  0  0
  181.3140  175.6040  139.8540 O   0  0  0  0  0  1  0  0  0  0  0  0
  181.8930  176.2950  137.5860 C   0  0  0  0  0  0  0  0  0  0  0  0
  181.6380  178.6250  136.9690 C   0  0  0  0  0  3  0  0  0  0  0  0
  181.9970  177.3200  136.6460 C   0  0  0  0  0  3  0  0  0  0  0  0
  181.1620  178.9460  138.2410 C   0  0  0  0  0  0  0  0  0  0  0  0
  180.7990  180.3630  138.4500 C   0  0  0  0  0  3  0  0  0  0  0  0
  181.6330  181.3900  138.3460 C   0  0  0  0  0  2  0  0  0  0  0  0
  183.4780  174.3590  137.5410 C   0  0  0  0  0  1  0  0  0  0  0  0
  182.2720  175.0090  137.1740 O   0  0  0  0  0  0  0  0  0  0  0  0
  1 13  1  0  0  0  0
  1  4  1  0  0  0  0
  2  6  1  0  0  0  0
  4  2  2  0  0  0  0
  5  3  1  6  0  0  0
  5  9  1  0  0  0  0
  6  7  1  0  0  0  0
  8 14  1  0  0  0  0
  8  7  1  1  0  0  0
  9 32  1  0  0  0  0
  9 14  2  0  0  0  0
 10  2  1  0  0  0  0
 11 17  1  6  0  0  0
 11 12  1  0  0  0  0
 11  3  1  0  0  0  0
 13 10  2  0  0  0  0
 15  4  1  6  0  0  0
 15  8  1  0  0  0  0
 16 12  1  6  0  0  0
 16  5  1  0  0  0  0
 16 15  1  0  0  0  0
 18 19  2  0  0  0  0
 19 17  1  0  0  0  0
 20 19  1  0  0  0  0
 21 20  1  0  0  0  0
 22 29  1  0  0  0  0
 23 27  1  0  0  0  0
 24 23  1  0  0  0  0
 24 26  1  0  0  0  0
 25 22  1  0  0  0  0
 25 21  1  0  0  0  0
 26 25  2  0  0  0  0
 27 22  2  0  0  0  0
 28 29  1  0  0  0  0
 28 30  1  0  0  0  0
 29 30  1  0  0  0  0
 32 31  1  0  0  0  0
 33 13  1  0  0  0  0
 34 33  1  0  0  0  0
 35 34  1  0  0  0  0
 36 35  1  0  0  0  0
 37 36  1  0  0  0  0
 38 37  1  0  0  0  0
 38 39  1  0  0  0  0
 40 38  2  0  0  0  0
 41 43  1  0  0  0  0
 42 41  2  0  0  0  0
 42 40  1  0  0  0  0
 43 44  1  0  0  0  0
 43 37  2  0  0  0  0
 45 44  2  0  0  0  0
 47 46  1  0  0  0  0
 47 40  1  0  0  0  0
M  END
>  <MODEL>
9

>  <REMARK>
 VINA RESULT:      -8.7      2.283      3.692
  Name = 
  13 active torsions:
  status: ('A' for Active; 'I' for Inactive)
    1  A    between atoms: C_2  and  C_46
    2  A    between atoms: N_4  and  C_34
    3  A    between atoms: C_5  and  C_24
    4  A    between atoms: C_6  and  C_20
    5  A    between atoms: C_7  and  C_39
    6  A    between atoms: C_7  and  C_43
    7  A    between atoms: C_11  and  C_14
    8  A    between atoms: C_11  and  C_32
    9  A    between atoms: C_14  and  C_29
   10  A    between atoms: C_24  and  C_41
   11  A    between atoms: C_25  and  O_44
   12  A    between atoms: O_27  and  C_30
   13  A    between atoms: C_41  and  C_43
                            x       y       z     vdW  Elec       q    Type
                         _______ _______ _______ _____ _____    ______ ____

>  <TORSDO>
F 13

$$$$
