=
 OpenBabel11042413323D

 41 46  0  0  1  0  0  0  0  0999 V2000
  186.8110  175.8860  136.1640 C   0  0  0  0  0  3  0  0  0  0  0  0
  188.5660  177.8210  140.6970 C   0  0  0  0  0  0  0  0  0  0  0  0
  189.2400  176.4960  138.7730 C   0  0  0  0  0  0  0  0  0  0  0  0
  188.1410  176.9970  138.0290 C   0  0  0  0  0  0  0  0  0  0  0  0
  187.9940  176.4990  136.6810 N   0  0  0  0  0  2  0  0  0  0  0  0
  185.1040  178.2730  137.4980 N   0  0  0  0  0  0  0  0  0  0  0  0
  185.6960  176.2280  136.7020 C   0  0  0  0  0  0  0  0  0  0  0  0
  188.7940  178.3590  142.0670 C   0  0  0  0  0  1  0  0  0  0  0  0
  187.2390  177.9260  138.6540 C   0  0  0  0  0  0  0  0  0  0  0  0
  189.4540  176.9120  140.1040 C   0  0  0  0  0  0  0  0  0  0  0  0
  186.2070  178.6970  137.9940 N   0  0  0  0  0  0  0  0  0  0  0  0
  184.7770  176.8980  137.3050 C   0  0  0  0  0  0  0  0  0  0  0  0
  187.4960  178.3210  139.9660 C   0  0  0  0  0  3  0  0  0  0  0  0
  182.4980  177.3090  138.1270 C   0  0  0  0  0  2  0  0  0  0  0  0
  183.3460  176.4910  137.1710 C   0  0  0  0  0  3  0  0  0  0  0  0
  182.8480  175.8780  138.4680 C   0  0  0  0  0  2  0  0  0  0  0  0
  191.4410  176.2510  137.6890 C   0  0  1  0  0  3  0  0  0  0  0  0
  190.4370  175.8890  136.7780 O   0  0  0  0  0  0  0  0  0  0  0  0
  190.2150  175.5390  138.1270 C   0  0  2  0  0  3  0  0  0  0  0  0
  192.5690  175.2850  137.5830 C   0  0  0  0  0  3  0  0  0  0  0  0
  193.8250  175.7240  137.5830 C   0  0  0  0  0  3  0  0  0  0  0  0
  195.8150  173.0400  139.1070 O   0  0  0  0  0  0  0  0  0  0  0  0
  195.3180  171.9990  138.3390 N   0  0  0  0  0  2  0  0  0  0  0  0
  194.5290  173.5560  136.6630 C   0  0  0  0  0  2  0  0  0  0  0  0
  195.5080  174.3770  138.8330 C   0  0  0  0  0  0  0  0  0  0  0  0
  194.9730  174.7710  137.4760 C   0  0  2  0  0  3  0  0  0  0  0  0
  195.4300  172.3580  136.9290 C   0  0  0  0  0  2  0  0  0  0  0  0
  195.7950  175.2630  139.6810 O   0  0  0  0  0  0  0  0  0  0  0  0
  190.5770  176.4420  140.8000 O   0  0  0  0  0  0  0  0  0  0  0  0
  191.6150  177.2660  141.2470 C   0  0  0  0  0  0  0  0  0  0  0  0
  192.4380  177.7720  140.4360 O   0  0  0  0  0  0  0  0  0  0  0  0
  191.7450  177.5530  142.6990 C   0  0  0  0  0  2  0  0  0  0  0  0
  191.5160  176.2810  143.4930 C   0  0  0  0  0  2  0  0  0  0  0  0
  191.0690  176.6050  144.8780 C   0  0  0  0  0  0  0  0  0  0  0  0
  191.7870  176.4030  145.9690 C   0  0  0  0  0  2  0  0  0  0  0  0
  189.7290  177.1420  145.2330 C   0  0  0  0  0  3  0  0  0  0  0  0
  191.0440  176.7860  147.1180 N   0  0  0  0  0  0  0  0  0  0  0  0
  189.8880  177.2020  146.7140 C   0  0  0  0  0  0  0  0  0  0  0  0
  189.1710  178.2700  148.7010 O   0  0  0  0  0  1  0  0  0  0  0  0
  188.8530  177.6800  147.6340 C   0  0  0  0  0  0  0  0  0  0  0  0
  187.5110  177.4860  147.3330 O   0  0  0  0  0  0  0  0  0  0  0  0
  1  5  1  0  0  0  0
  1  7  2  0  0  0  0
  2  8  1  0  0  0  0
  3 10  2  0  0  0  0
  4  9  2  0  0  0  0
  4  3  1  0  0  0  0
  5  4  1  0  0  0  0
  6 11  2  0  0  0  0
  7 12  2  0  0  0  0
  9 13  1  0  0  0  0
 10  2  1  0  0  0  0
 10 29  1  0  0  0  0
 11  9  1  0  0  0  0
 12  6  1  0  0  0  0
 13  2  2  0  0  0  0
 14 16  1  0  0  0  0
 15 12  1  0  0  0  0
 15 14  1  0  0  0  0
 15 16  1  0  0  0  0
 17 20  1  6  0  0  0
 17 19  1  0  0  0  0
 18 17  1  0  0  0  0
 18 19  1  0  0  0  0
 19  3  1  1  0  0  0
 21 20  2  0  0  0  0
 23 22  1  0  0  0  0
 24 27  1  0  0  0  0
 24 26  1  0  0  0  0
 25 22  1  0  0  0  0
 25 28  2  0  0  0  0
 26 21  1  1  0  0  0
 26 25  1  0  0  0  0
 27 23  1  0  0  0  0
 29 30  1  0  0  0  0
 30 32  1  0  0  0  0
 31 30  2  0  0  0  0
 32 33  1  0  0  0  0
 33 34  1  0  0  0  0
 34 36  2  0  0  0  0
 34 35  1  0  0  0  0
 35 37  1  0  0  0  0
 36 38  1  0  0  0  0
 38 37  2  0  0  0  0
 38 40  1  0  0  0  0
 40 39  1  0  0  0  0
 41 40  2  0  0  0  0
M  END
>  <MODEL>
1

>  <REMARK>
 VINA RESULT:      -8.6      0.000      0.000
  Name = 
  10 active torsions:
  status: ('A' for Active; 'I' for Inactive)
    1  A    between atoms: C_3  and  C_4
    2  A    between atoms: C_3  and  C_28
    3  A    between atoms: C_7  and  C_28
    4  A    between atoms: C_7  and  O_40
    5  A    between atoms: C_10  and  C_39
    6  A    between atoms: C_20  and  C_33
    7  A    between atoms: CA_21  and  C_36
    8  A    between atoms: C_22  and  C_30
    9  A    between atoms: C_25  and  C_35
   10  A    between atoms: C_27  and  O_40
                            x       y       z     vdW  Elec       q    Type
                         _______ _______ _______ _____ _____    ______ ____

>  <TORSDO>
F 10

$$$$
=
 OpenBabel11042413323D

 41 46  0  0  1  0  0  0  0  0999 V2000
  181.6330  179.2820  139.7220 C   0  0  0  0  0  3  0  0  0  0  0  0
  186.1210  177.8110  137.4710 C   0  0  0  0  0  0  0  0  0  0  0  0
  185.1730  178.5550  139.5820 C   0  0  0  0  0  0  0  0  0  0  0  0
  183.8710  178.2240  139.1270 C   0  0  0  0  0  0  0  0  0  0  0  0
  182.7810  178.4930  140.0370 N   0  0  0  0  0  2  0  0  0  0  0  0
  181.4180  177.6860  136.9290 N   0  0  0  0  0  0  0  0  0  0  0  0
  181.2860  179.3370  138.4850 C   0  0  0  0  0  0  0  0  0  0  0  0
  187.2790  177.4880  136.5910 C   0  0  0  0  0  1  0  0  0  0  0  0
  183.7090  177.6820  137.8060 C   0  0  0  0  0  0  0  0  0  0  0  0
  186.2960  178.3440  138.7560 C   0  0  0  0  0  0  0  0  0  0  0  0
  182.5050  177.0920  137.2600 N   0  0  0  0  0  0  0  0  0  0  0  0
  181.1050  179.0410  137.2460 C   0  0  0  0  0  0  0  0  0  0  0  0
  184.8480  177.4760  137.0270 C   0  0  0  0  0  3  0  0  0  0  0  0
  180.2900  179.4880  134.9720 C   0  0  0  0  0  2  0  0  0  0  0  0
  180.0720  179.7660  136.4470 C   0  0  0  0  0  3  0  0  0  0  0  0
  180.7280  180.8100  135.5600 C   0  0  0  0  0  2  0  0  0  0  0  0
  185.5710  178.0010  141.9520 C   0  0  1  0  0  3  0  0  0  0  0  0
  184.3380  178.6590  141.8340 O   0  0  0  0  0  0  0  0  0  0  0  0
  185.3680  179.1020  140.9780 C   0  0  2  0  0  3  0  0  0  0  0  0
  186.2900  178.5180  143.1480 C   0  0  0  0  0  3  0  0  0  0  0  0
  186.1210  177.9340  144.3320 C   0  0  0  0  0  3  0  0  0  0  0  0
  186.5700  177.8040  147.9750 O   0  0  0  0  0  0  0  0  0  0  0  0
  187.7700  177.1090  147.9760 N   0  0  0  0  0  2  0  0  0  0  0  0
  188.1730  177.7160  145.6680 C   0  0  0  0  0  2  0  0  0  0  0  0
  185.9950  178.2890  146.7950 C   0  0  0  0  0  0  0  0  0  0  0  0
  186.8320  178.4400  145.5470 C   0  0  2  0  0  3  0  0  0  0  0  0
  188.7100  177.7890  147.0900 C   0  0  0  0  0  2  0  0  0  0  0  0
  184.8090  178.7120  146.8160 O   0  0  0  0  0  0  0  0  0  0  0  0
  187.5770  178.6300  139.2490 O   0  0  0  0  0  0  0  0  0  0  0  0
  188.4530  177.6610  139.7490 C   0  0  0  0  0  0  0  0  0  0  0  0
  188.8410  176.7030  139.0270 O   0  0  0  0  0  0  0  0  0  0  0  0
  188.9340  177.7650  141.1510 C   0  0  0  0  0  2  0  0  0  0  0  0
  190.2530  177.0290  141.2940 C   0  0  0  0  0  2  0  0  0  0  0  0
  190.7780  177.1650  142.6820 C   0  0  0  0  0  0  0  0  0  0  0  0
  191.1830  178.2990  143.2280 C   0  0  0  0  0  3  0  0  0  0  0  0
  190.9790  176.0360  143.6280 C   0  0  0  0  0  2  0  0  0  0  0  0
  191.6580  178.0610  144.5460 N   0  0  0  0  0  0  0  0  0  0  0  0
  191.5460  176.7940  144.7780 C   0  0  0  0  0  0  0  0  0  0  0  0
  192.3010  174.9770  146.0950 O   0  0  0  0  0  0  0  0  0  0  0  0
  191.9430  176.1850  146.0510 C   0  0  0  0  0  0  0  0  0  0  0  0
  191.9270  176.9380  147.2170 O   0  0  0  0  0  1  0  0  0  0  0  0
  1  5  1  0  0  0  0
  2 10  1  0  0  0  0
  4  3  1  0  0  0  0
  4  5  1  0  0  0  0
  6 12  1  0  0  0  0
  6 11  2  0  0  0  0
  7  1  2  0  0  0  0
  8  2  1  0  0  0  0
  9  4  2  0  0  0  0
 10 29  1  0  0  0  0
 10  3  2  0  0  0  0
 11  9  1  0  0  0  0
 12  7  2  0  0  0  0
 13  2  2  0  0  0  0
 13  9  1  0  0  0  0
 14 16  1  0  0  0  0
 14 15  1  0  0  0  0
 15 12  1  0  0  0  0
 16 15  1  0  0  0  0
 17 20  1  1  0  0  0
 18 17  1  0  0  0  0
 19  3  1  6  0  0  0
 19 18  1  0  0  0  0
 19 17  1  0  0  0  0
 20 21  2  0  0  0  0
 22 23  1  0  0  0  0
 24 27  1  0  0  0  0
 25 28  2  0  0  0  0
 25 22  1  0  0  0  0
 26 21  1  6  0  0  0
 26 24  1  0  0  0  0
 26 25  1  0  0  0  0
 27 23  1  0  0  0  0
 29 30  1  0  0  0  0
 30 32  1  0  0  0  0
 31 30  2  0  0  0  0
 32 33  1  0  0  0  0
 33 34  1  0  0  0  0
 34 35  2  0  0  0  0
 34 36  1  0  0  0  0
 35 37  1  0  0  0  0
 36 38  1  0  0  0  0
 37 38  2  0  0  0  0
 38 40  1  0  0  0  0
 40 39  2  0  0  0  0
 40 41  1  0  0  0  0
M  END
>  <MODEL>
2

>  <REMARK>
 VINA RESULT:      -8.5      3.879      7.136
  Name = 
  10 active torsions:
  status: ('A' for Active; 'I' for Inactive)
    1  A    between atoms: C_3  and  C_4
    2  A    between atoms: C_3  and  C_28
    3  A    between atoms: C_7  and  C_28
    4  A    between atoms: C_7  and  O_40
    5  A    between atoms: C_10  and  C_39
    6  A    between atoms: C_20  and  C_33
    7  A    between atoms: CA_21  and  C_36
    8  A    between atoms: C_22  and  C_30
    9  A    between atoms: C_25  and  C_35
   10  A    between atoms: C_27  and  O_40
                            x       y       z     vdW  Elec       q    Type
                         _______ _______ _______ _____ _____    ______ ____

>  <TORSDO>
F 10

$$$$
=
 OpenBabel11042413323D

 41 46  0  0  1  0  0  0  0  0999 V2000
  191.0880  176.7820  138.7840 C   0  0  0  0  0  3  0  0  0  0  0  0
  186.0510  177.6180  137.6420 C   0  0  0  0  0  0  0  0  0  0  0  0
  187.7600  178.1000  139.3030 C   0  0  0  0  0  0  0  0  0  0  0  0
  188.7760  177.7640  138.3710 C   0  0  0  0  0  0  0  0  0  0  0  0
  190.1390  177.8480  138.8440 N   0  0  0  0  0  2  0  0  0  0  0  0
  190.1690  176.2580  135.7390 N   0  0  0  0  0  0  0  0  0  0  0  0
  190.9270  175.9110  137.8530 C   0  0  0  0  0  0  0  0  0  0  0  0
  184.6360  177.6100  137.1770 C   0  0  0  0  0  1  0  0  0  0  0  0
  188.4000  177.3400  137.0500 C   0  0  0  0  0  0  0  0  0  0  0  0
  186.4000  178.0310  138.9370 C   0  0  0  0  0  0  0  0  0  0  0  0
  189.2850  177.1700  135.9170 N   0  0  0  0  0  0  0  0  0  0  0  0
  190.6050  175.3440  136.7430 C   0  0  0  0  0  0  0  0  0  0  0  0
  187.0440  177.3000  136.7250 C   0  0  0  0  0  3  0  0  0  0  0  0
  190.8670  173.7240  134.9160 C   0  0  0  0  0  2  0  0  0  0  0  0
  191.2600  174.0630  136.3410 C   0  0  0  0  0  3  0  0  0  0  0  0
  190.2110  172.9990  136.0690 C   0  0  0  0  0  2  0  0  0  0  0  0
  188.1610  177.4370  141.6440 C   0  0  1  0  0  3  0  0  0  0  0  0
  187.0820  178.3330  141.5980 O   0  0  0  0  0  0  0  0  0  0  0  0
  188.1340  178.5730  140.6890 C   0  0  2  0  0  3  0  0  0  0  0  0
  189.0320  177.7780  142.8020 C   0  0  0  0  0  3  0  0  0  0  0  0
  188.6680  177.4320  144.0350 C   0  0  0  0  0  3  0  0  0  0  0  0
  189.6880  176.6710  147.4790 O   0  0  0  0  0  0  0  0  0  0  0  0
  190.9150  176.1000  147.1740 N   0  0  0  0  0  2  0  0  0  0  0  0
  190.9140  177.1590  144.9980 C   0  0  0  0  0  2  0  0  0  0  0  0
  188.9060  177.3110  146.5110 C   0  0  0  0  0  0  0  0  0  0  0  0
  189.5280  177.7670  145.2120 C   0  0  2  0  0  3  0  0  0  0  0  0
  191.6600  177.0170  146.3160 C   0  0  0  0  0  2  0  0  0  0  0  0
  187.7140  177.6120  146.7830 O   0  0  0  0  0  0  0  0  0  0  0  0
  185.4180  178.4170  139.8590 O   0  0  0  0  0  0  0  0  0  0  0  0
  184.4210  179.3590  139.5840 C   0  0  0  0  0  0  0  0  0  0  0  0
  184.6880  180.4240  138.9640 O   0  0  0  0  0  0  0  0  0  0  0  0
  183.0270  179.0970  140.0270 C   0  0  0  0  0  2  0  0  0  0  0  0
  183.0050  177.9030  140.9630 C   0  0  0  0  0  2  0  0  0  0  0  0
  183.1140  178.3500  142.3810 C   0  0  0  0  0  0  0  0  0  0  0  0
  182.1680  178.9910  143.0450 C   0  0  0  0  0  3  0  0  0  0  0  0
  184.3250  178.1940  143.2290 C   0  0  0  0  0  2  0  0  0  0  0  0
  182.6190  179.3010  144.3560 N   0  0  0  0  0  0  0  0  0  0  0  0
  183.8280  178.8570  144.4680 C   0  0  0  0  0  0  0  0  0  0  0  0
  185.5290  179.8620  145.7720 O   0  0  0  0  0  0  0  0  0  0  0  0
  184.6140  178.9990  145.6970 C   0  0  0  0  0  0  0  0  0  0  0  0
  184.3520  178.1810  146.7880 O   0  0  0  0  0  1  0  0  0  0  0  0
  1  5  1  0  0  0  0
  2 10  1  0  0  0  0
  4  5  1  0  0  0  0
  4  3  1  0  0  0  0
  6 11  2  0  0  0  0
  6 12  1  0  0  0  0
  7  1  2  0  0  0  0
  8  2  1  0  0  0  0
  9  4  2  0  0  0  0
 10  3  2  0  0  0  0
 10 29  1  0  0  0  0
 11  9  1  0  0  0  0
 12  7  2  0  0  0  0
 13  9  1  0  0  0  0
 13  2  2  0  0  0  0
 14 16  1  0  0  0  0
 14 15  1  0  0  0  0
 15 12  1  0  0  0  0
 16 15  1  0  0  0  0
 17 20  1  1  0  0  0
 18 17  1  0  0  0  0
 19  3  1  6  0  0  0
 19 18  1  0  0  0  0
 19 17  1  0  0  0  0
 20 21  2  0  0  0  0
 23 22  1  0  0  0  0
 24 26  1  0  0  0  0
 24 27  1  0  0  0  0
 25 28  2  0  0  0  0
 25 22  1  0  0  0  0
 26 21  1  6  0  0  0
 26 25  1  0  0  0  0
 27 23  1  0  0  0  0
 30 29  1  0  0  0  0
 30 32  1  0  0  0  0
 31 30  2  0  0  0  0
 32 33  1  0  0  0  0
 33 34  1  0  0  0  0
 34 35  2  0  0  0  0
 34 36  1  0  0  0  0
 35 37  1  0  0  0  0
 36 38  1  0  0  0  0
 37 38  2  0  0  0  0
 38 40  1  0  0  0  0
 40 39  2  0  0  0  0
 40 41  1  0  0  0  0
M  END
>  <MODEL>
3

>  <REMARK>
 VINA RESULT:      -8.4      3.561      7.315
  Name = 
  10 active torsions:
  status: ('A' for Active; 'I' for Inactive)
    1  A    between atoms: C_3  and  C_4
    2  A    between atoms: C_3  and  C_28
    3  A    between atoms: C_7  and  C_28
    4  A    between atoms: C_7  and  O_40
    5  A    between atoms: C_10  and  C_39
    6  A    between atoms: C_20  and  C_33
    7  A    between atoms: CA_21  and  C_36
    8  A    between atoms: C_22  and  C_30
    9  A    between atoms: C_25  and  C_35
   10  A    between atoms: C_27  and  O_40
                            x       y       z     vdW  Elec       q    Type
                         _______ _______ _______ _____ _____    ______ ____

>  <TORSDO>
F 10

$$$$
=
 OpenBabel11042413323D

 41 46  0  0  1  0  0  0  0  0999 V2000
  186.7040  178.0730  137.2350 C   0  0  0  0  0  3  0  0  0  0  0  0
  187.1740  177.8970  142.4420 C   0  0  0  0  0  0  0  0  0  0  0  0
  188.4700  177.8920  140.3860 C   0  0  0  0  0  0  0  0  0  0  0  0
  187.3590  178.4110  139.6710 C   0  0  0  0  0  0  0  0  0  0  0  0
  187.5430  178.6190  138.2530 N   0  0  0  0  0  2  0  0  0  0  0  0
  184.1510  179.0050  138.9690 N   0  0  0  0  0  0  0  0  0  0  0  0
  185.4840  177.8260  137.5560 C   0  0  0  0  0  0  0  0  0  0  0  0
  187.0490  177.7300  143.9170 C   0  0  0  0  0  1  0  0  0  0  0  0
  186.1320  178.6640  140.3760 C   0  0  0  0  0  0  0  0  0  0  0  0
  188.3780  177.6400  141.7700 C   0  0  0  0  0  0  0  0  0  0  0  0
  184.9820  179.3840  139.8690 N   0  0  0  0  0  0  0  0  0  0  0  0
  184.3310  177.8690  138.1250 C   0  0  0  0  0  0  0  0  0  0  0  0
  186.0890  178.4150  141.7470 C   0  0  0  0  0  3  0  0  0  0  0  0
  181.9270  178.1230  137.6870 C   0  0  0  0  0  2  0  0  0  0  0  0
  183.1460  177.2490  137.4610 C   0  0  0  0  0  3  0  0  0  0  0  0
  182.1050  176.8590  138.4970 C   0  0  0  0  0  2  0  0  0  0  0  0
  189.7510  176.3370  138.9640 C   0  0  1  0  0  3  0  0  0  0  0  0
  190.4180  176.4970  140.1870 O   0  0  0  0  0  0  0  0  0  0  0  0
  189.7770  177.6430  139.6690 C   0  0  2  0  0  3  0  0  0  0  0  0
  190.7470  176.3460  137.8570 C   0  0  0  0  0  3  0  0  0  0  0  0
  191.4960  175.2710  137.6260 C   0  0  0  0  0  3  0  0  0  0  0  0
  194.7240  174.0740  136.3470 O   0  0  0  0  0  0  0  0  0  0  0  0
  194.2200  173.1530  135.4410 N   0  0  0  0  0  2  0  0  0  0  0  0
  192.0620  174.2490  135.4630 C   0  0  0  0  0  2  0  0  0  0  0  0
  193.8960  174.9730  137.0300 C   0  0  0  0  0  0  0  0  0  0  0  0
  192.5040  175.2600  136.5200 C   0  0  2  0  0  3  0  0  0  0  0  0
  193.2350  173.8180  134.5940 C   0  0  0  0  0  2  0  0  0  0  0  0
  194.3650  175.6290  137.9970 O   0  0  0  0  0  0  0  0  0  0  0  0
  189.5060  177.1770  142.4620 O   0  0  0  0  0  0  0  0  0  0  0  0
  190.4410  178.0180  143.0740 C   0  0  0  0  0  0  0  0  0  0  0  0
  190.2180  179.2520  143.2040 O   0  0  0  0  0  0  0  0  0  0  0  0
  191.7140  177.4450  143.5830 C   0  0  0  0  0  2  0  0  0  0  0  0
  191.4170  176.2720  144.4990 C   0  0  0  0  0  2  0  0  0  0  0  0
  190.7960  176.7470  145.7680 C   0  0  0  0  0  0  0  0  0  0  0  0
  191.4020  176.7680  146.9420 C   0  0  0  0  0  2  0  0  0  0  0  0
  189.3880  177.2040  145.9040 C   0  0  0  0  0  3  0  0  0  0  0  0
  190.5080  177.2400  147.9410 N   0  0  0  0  0  0  0  0  0  0  0  0
  189.3770  177.4870  147.3680 C   0  0  0  0  0  0  0  0  0  0  0  0
  188.2590  178.1420  149.3490 O   0  0  0  0  0  1  0  0  0  0  0  0
  188.2120  177.9950  148.0990 C   0  0  0  0  0  0  0  0  0  0  0  0
  187.0480  178.3170  147.4140 O   0  0  0  0  0  0  0  0  0  0  0  0
  1  7  2  0  0  0  0
  1  5  1  0  0  0  0
  2  8  1  0  0  0  0
  3 10  2  0  0  0  0
  4  9  2  0  0  0  0
  4  3  1  0  0  0  0
  5  4  1  0  0  0  0
  6 11  2  0  0  0  0
  7 12  2  0  0  0  0
  9 13  1  0  0  0  0
 10  2  1  0  0  0  0
 10 29  1  0  0  0  0
 11  9  1  0  0  0  0
 12  6  1  0  0  0  0
 13  2  2  0  0  0  0
 14 16  1  0  0  0  0
 15 14  1  0  0  0  0
 15 12  1  0  0  0  0
 15 16  1  0  0  0  0
 17 20  1  6  0  0  0
 17 19  1  0  0  0  0
 17 18  1  0  0  0  0
 19 18  1  0  0  0  0
 19  3  1  1  0  0  0
 21 20  2  0  0  0  0
 22 25  1  0  0  0  0
 23 22  1  0  0  0  0
 24 26  1  0  0  0  0
 25 28  2  0  0  0  0
 26 25  1  0  0  0  0
 26 21  1  1  0  0  0
 27 23  1  0  0  0  0
 27 24  1  0  0  0  0
 29 30  1  0  0  0  0
 30 31  2  0  0  0  0
 30 32  1  0  0  0  0
 32 33  1  0  0  0  0
 33 34  1  0  0  0  0
 34 36  2  0  0  0  0
 34 35  1  0  0  0  0
 35 37  1  0  0  0  0
 36 38  1  0  0  0  0
 38 37  2  0  0  0  0
 38 40  1  0  0  0  0
 40 39  1  0  0  0  0
 41 40  2  0  0  0  0
M  END
>  <MODEL>
4

>  <REMARK>
 VINA RESULT:      -8.3      1.667      2.179
  Name = 
  10 active torsions:
  status: ('A' for Active; 'I' for Inactive)
    1  A    between atoms: C_3  and  C_4
    2  A    between atoms: C_3  and  C_28
    3  A    between atoms: C_7  and  C_28
    4  A    between atoms: C_7  and  O_40
    5  A    between atoms: C_10  and  C_39
    6  A    between atoms: C_20  and  C_33
    7  A    between atoms: CA_21  and  C_36
    8  A    between atoms: C_22  and  C_30
    9  A    between atoms: C_25  and  C_35
   10  A    between atoms: C_27  and  O_40
                            x       y       z     vdW  Elec       q    Type
                         _______ _______ _______ _____ _____    ______ ____

>  <TORSDO>
F 10

$$$$
=
 OpenBabel11042413323D

 41 46  0  0  1  0  0  0  0  0999 V2000
  180.9990  181.2000  138.2460 C   0  0  0  0  0  3  0  0  0  0  0  0
  183.9910  177.2430  136.5840 C   0  0  0  0  0  0  0  0  0  0  0  0
  183.5820  178.6810  138.5010 C   0  0  0  0  0  0  0  0  0  0  0  0
  182.3110  179.0350  137.9790 C   0  0  0  0  0  0  0  0  0  0  0  0
  181.5340  179.9760  138.7520 N   0  0  0  0  0  2  0  0  0  0  0  0
  179.9740  179.5730  135.6580 N   0  0  0  0  0  0  0  0  0  0  0  0
  180.7450  181.2480  136.9870 C   0  0  0  0  0  0  0  0  0  0  0  0
  184.7970  176.2250  135.8530 C   0  0  0  0  0  1  0  0  0  0  0  0
  181.8920  178.4750  136.7230 C   0  0  0  0  0  0  0  0  0  0  0  0
  184.4180  177.7830  137.8060 C   0  0  0  0  0  0  0  0  0  0  0  0
  180.5640  178.5470  136.1500 N   0  0  0  0  0  0  0  0  0  0  0  0
  180.4430  180.9150  135.7810 C   0  0  0  0  0  0  0  0  0  0  0  0
  182.7430  177.5790  136.0760 C   0  0  0  0  0  3  0  0  0  0  0  0
  180.4100  183.3230  135.2960 C   0  0  0  0  0  2  0  0  0  0  0  0
  179.9720  181.9520  134.8150 C   0  0  0  0  0  3  0  0  0  0  0  0
  178.9760  182.8830  135.4840 C   0  0  0  0  0  2  0  0  0  0  0  0
  184.1250  178.1630  140.8500 C   0  0  1  0  0  3  0  0  0  0  0  0
  183.0370  179.0470  140.8140 O   0  0  0  0  0  0  0  0  0  0  0  0
  184.0320  179.2390  139.8320 C   0  0  2  0  0  3  0  0  0  0  0  0
  185.0580  178.5790  141.9320 C   0  0  0  0  0  3  0  0  0  0  0  0
  184.7920  178.2680  143.1980 C   0  0  0  0  0  3  0  0  0  0  0  0
  185.8000  177.9470  146.7150 O   0  0  0  0  0  0  0  0  0  0  0  0
  186.9390  177.1880  146.5000 N   0  0  0  0  0  2  0  0  0  0  0  0
  187.0110  177.8760  144.1810 C   0  0  0  0  0  2  0  0  0  0  0  0
  185.0770  178.5160  145.6610 C   0  0  0  0  0  0  0  0  0  0  0  0
  185.7160  178.6770  144.3020 C   0  0  2  0  0  3  0  0  0  0  0  0
  187.7680  177.8550  145.5010 C   0  0  0  0  0  2  0  0  0  0  0  0
  183.9380  179.0020  145.8870 O   0  0  0  0  0  0  0  0  0  0  0  0
  185.6470  177.4100  138.3690 O   0  0  0  0  0  0  0  0  0  0  0  0
  186.8060  178.1880  138.2910 C   0  0  0  0  0  0  0  0  0  0  0  0
  187.0420  178.9020  137.2780 O   0  0  0  0  0  0  0  0  0  0  0  0
  187.7720  178.1740  139.4200 C   0  0  0  0  0  2  0  0  0  0  0  0
  188.9240  177.2410  139.0960 C   0  0  0  0  0  2  0  0  0  0  0  0
  189.9760  177.3270  140.1480 C   0  0  0  0  0  0  0  0  0  0  0  0
  191.2670  177.1330  139.9420 C   0  0  0  0  0  3  0  0  0  0  0  0
  189.7160  177.5810  141.5890 C   0  0  0  0  0  2  0  0  0  0  0  0
  191.9780  177.2520  141.1660 N   0  0  0  0  0  0  0  0  0  0  0  0
  191.1150  177.5030  142.0950 C   0  0  0  0  0  0  0  0  0  0  0  0
  191.6560  178.8480  143.9670 O   0  0  0  0  0  0  0  0  0  0  0  0
  191.4950  177.6900  143.4990 C   0  0  0  0  0  0  0  0  0  0  0  0
  191.6800  176.5860  144.3210 O   0  0  0  0  0  1  0  0  0  0  0  0
  1  5  1  0  0  0  0
  2 10  1  0  0  0  0
  4  3  1  0  0  0  0
  4  5  1  0  0  0  0
  6 12  1  0  0  0  0
  6 11  2  0  0  0  0
  7  1  2  0  0  0  0
  8  2  1  0  0  0  0
  9  4  2  0  0  0  0
 10 29  1  0  0  0  0
 10  3  2  0  0  0  0
 11  9  1  0  0  0  0
 12  7  2  0  0  0  0
 13  2  2  0  0  0  0
 13  9  1  0  0  0  0
 14 16  1  0  0  0  0
 15 14  1  0  0  0  0
 15 16  1  0  0  0  0
 15 12  1  0  0  0  0
 17 20  1  1  0  0  0
 18 17  1  0  0  0  0
 19  3  1  6  0  0  0
 19 18  1  0  0  0  0
 19 17  1  0  0  0  0
 20 21  2  0  0  0  0
 23 22  1  0  0  0  0
 24 26  1  0  0  0  0
 24 27  1  0  0  0  0
 25 28  2  0  0  0  0
 25 22  1  0  0  0  0
 26 21  1  6  0  0  0
 26 25  1  0  0  0  0
 27 23  1  0  0  0  0
 30 29  1  0  0  0  0
 30 32  1  0  0  0  0
 31 30  2  0  0  0  0
 33 32  1  0  0  0  0
 33 34  1  0  0  0  0
 34 36  1  0  0  0  0
 35 34  2  0  0  0  0
 35 37  1  0  0  0  0
 36 38  1  0  0  0  0
 37 38  2  0  0  0  0
 38 40  1  0  0  0  0
 40 39  2  0  0  0  0
 40 41  1  0  0  0  0
M  END
>  <MODEL>
5

>  <REMARK>
 VINA RESULT:      -8.2      3.826      8.048
  Name = 
  10 active torsions:
  status: ('A' for Active; 'I' for Inactive)
    1  A    between atoms: C_3  and  C_4
    2  A    between atoms: C_3  and  C_28
    3  A    between atoms: C_7  and  C_28
    4  A    between atoms: C_7  and  O_40
    5  A    between atoms: C_10  and  C_39
    6  A    between atoms: C_20  and  C_33
    7  A    between atoms: CA_21  and  C_36
    8  A    between atoms: C_22  and  C_30
    9  A    between atoms: C_25  and  C_35
   10  A    between atoms: C_27  and  O_40
                            x       y       z     vdW  Elec       q    Type
                         _______ _______ _______ _____ _____    ______ ____

>  <TORSDO>
F 10

$$$$
=
 OpenBabel11042413323D

 41 46  0  0  1  0  0  0  0  0999 V2000
  189.6610  176.4890  143.3170 C   0  0  0  0  0  3  0  0  0  0  0  0
  185.1550  179.1280  143.6300 C   0  0  0  0  0  0  0  0  0  0  0  0
  186.6480  178.0380  142.0510 C   0  0  0  0  0  0  0  0  0  0  0  0
  187.2660  177.3240  143.1110 C   0  0  0  0  0  0  0  0  0  0  0  0
  188.3510  176.4430  142.7490 N   0  0  0  0  0  2  0  0  0  0  0  0
  188.2910  176.7100  146.2260 N   0  0  0  0  0  0  0  0  0  0  0  0
  189.7620  176.9520  144.5110 C   0  0  0  0  0  0  0  0  0  0  0  0
  183.9880  179.9970  143.9510 C   0  0  0  0  0  1  0  0  0  0  0  0
  186.8080  177.5370  144.4570 C   0  0  0  0  0  0  0  0  0  0  0  0
  185.5920  178.9350  142.3110 C   0  0  0  0  0  0  0  0  0  0  0  0
  187.1630  176.7520  145.6200 N   0  0  0  0  0  0  0  0  0  0  0  0
  189.5020  177.2770  145.7290 C   0  0  0  0  0  0  0  0  0  0  0  0
  185.7510  178.4230  144.6680 C   0  0  0  0  0  3  0  0  0  0  0  0
  191.8230  176.7370  146.3250 C   0  0  0  0  0  2  0  0  0  0  0  0
  190.6150  177.5870  146.6750 C   0  0  0  0  0  3  0  0  0  0  0  0
  190.9560  176.3620  147.5060 C   0  0  0  0  0  2  0  0  0  0  0  0
  188.5130  178.2170  140.4480 C   0  0  1  0  0  3  0  0  0  0  0  0
  187.4550  179.0300  140.0150 O   0  0  0  0  0  0  0  0  0  0  0  0
  187.0970  177.8090  140.6260 C   0  0  2  0  0  3  0  0  0  0  0  0
  189.0940  177.5050  139.2770 C   0  0  0  0  0  3  0  0  0  0  0  0
  190.4140  177.4640  139.1100 C   0  0  0  0  0  3  0  0  0  0  0  0
  192.7200  174.8940  137.8590 O   0  0  0  0  0  0  0  0  0  0  0  0
  191.7600  173.9620  137.4970 N   0  0  0  0  0  2  0  0  0  0  0  0
  190.0500  175.6730  137.4650 C   0  0  0  0  0  2  0  0  0  0  0  0
  192.3810  176.1900  138.2650 C   0  0  0  0  0  0  0  0  0  0  0  0
  191.0190  176.7550  137.9390 C   0  0  2  0  0  3  0  0  0  0  0  0
  190.7700  174.6130  136.6450 C   0  0  0  0  0  2  0  0  0  0  0  0
  193.2600  176.9200  138.7930 O   0  0  0  0  0  0  0  0  0  0  0  0
  184.9640  179.5880  141.2410 O   0  0  0  0  0  0  0  0  0  0  0  0
  183.9970  178.9910  140.4250 C   0  0  0  0  0  0  0  0  0  0  0  0
  183.2120  178.1160  140.8830 O   0  0  0  0  0  0  0  0  0  0  0  0
  183.8920  179.3980  139.0000 C   0  0  0  0  0  2  0  0  0  0  0  0
  183.3670  178.2380  138.1750 C   0  0  0  0  0  2  0  0  0  0  0  0
  184.4910  177.3720  137.7180 C   0  0  0  0  0  0  0  0  0  0  0  0
  185.6560  177.8180  137.2790 C   0  0  0  0  0  3  0  0  0  0  0  0
  184.4390  175.8900  137.6310 C   0  0  0  0  0  2  0  0  0  0  0  0
  186.4770  176.7260  136.8880 N   0  0  0  0  0  0  0  0  0  0  0  0
  185.8030  175.6410  137.0830 C   0  0  0  0  0  0  0  0  0  0  0  0
  187.1170  174.1380  135.8110 O   0  0  0  0  0  0  0  0  0  0  0  0
  186.3420  174.3100  136.7880 C   0  0  0  0  0  0  0  0  0  0  0  0
  185.9990  173.2290  137.5890 O   0  0  0  0  0  1  0  0  0  0  0  0
  1  7  2  0  0  0  0
  2  8  1  0  0  0  0
  2 13  1  0  0  0  0
  3 10  1  0  0  0  0
  3  4  2  0  0  0  0
  4  9  1  0  0  0  0
  5  4  1  0  0  0  0
  5  1  1  0  0  0  0
  7 12  2  0  0  0  0
  9 13  2  0  0  0  0
  9 11  1  0  0  0  0
 10  2  2  0  0  0  0
 11  6  2  0  0  0  0
 12  6  1  0  0  0  0
 12 15  1  0  0  0  0
 14 15  1  0  0  0  0
 14 16  1  0  0  0  0
 15 16  1  0  0  0  0
 17 20  1  6  0  0  0
 17 19  1  0  0  0  0
 18 17  1  0  0  0  0
 18 19  1  0  0  0  0
 19  3  1  1  0  0  0
 21 20  2  0  0  0  0
 22 25  1  0  0  0  0
 23 22  1  0  0  0  0
 24 26  1  0  0  0  0
 25 28  2  0  0  0  0
 26 25  1  0  0  0  0
 26 21  1  1  0  0  0
 27 24  1  0  0  0  0
 27 23  1  0  0  0  0
 29 10  1  0  0  0  0
 30 31  2  0  0  0  0
 30 29  1  0  0  0  0
 32 30  1  0  0  0  0
 33 32  1  0  0  0  0
 34 33  1  0  0  0  0
 35 34  2  0  0  0  0
 36 34  1  0  0  0  0
 37 38  2  0  0  0  0
 37 35  1  0  0  0  0
 38 36  1  0  0  0  0
 39 40  2  0  0  0  0
 40 38  1  0  0  0  0
 40 41  1  0  0  0  0
M  END
>  <MODEL>
6

>  <REMARK>
 VINA RESULT:      -8.0      3.023      7.995
  Name = 
  10 active torsions:
  status: ('A' for Active; 'I' for Inactive)
    1  A    between atoms: C_3  and  C_4
    2  A    between atoms: C_3  and  C_28
    3  A    between atoms: C_7  and  C_28
    4  A    between atoms: C_7  and  O_40
    5  A    between atoms: C_10  and  C_39
    6  A    between atoms: C_20  and  C_33
    7  A    between atoms: CA_21  and  C_36
    8  A    between atoms: C_22  and  C_30
    9  A    between atoms: C_25  and  C_35
   10  A    between atoms: C_27  and  O_40
                            x       y       z     vdW  Elec       q    Type
                         _______ _______ _______ _____ _____    ______ ____

>  <TORSDO>
F 10

$$$$
=
 OpenBabel11042413323D

 41 46  0  0  1  0  0  0  0  0999 V2000
  188.1670  177.5760  145.7440 C   0  0  0  0  0  3  0  0  0  0  0  0
  190.4770  177.2430  141.0610 C   0  0  0  0  0  0  0  0  0  0  0  0
  188.3370  177.6720  142.1320 C   0  0  0  0  0  0  0  0  0  0  0  0
  188.9930  177.9360  143.3620 C   0  0  0  0  0  0  0  0  0  0  0  0
  188.1470  178.2580  144.4890 N   0  0  0  0  0  2  0  0  0  0  0  0
  191.3850  177.7500  145.6810 N   0  0  0  0  0  0  0  0  0  0  0  0
  189.2730  177.0170  146.0840 C   0  0  0  0  0  0  0  0  0  0  0  0
  191.3140  176.9720  139.8590 C   0  0  0  0  0  1  0  0  0  0  0  0
  190.4250  177.8370  143.4250 C   0  0  0  0  0  0  0  0  0  0  0  0
  189.0790  177.3310  140.9830 C   0  0  0  0  0  0  0  0  0  0  0  0
  191.2700  178.2740  144.5170 N   0  0  0  0  0  0  0  0  0  0  0  0
  190.5240  176.7410  146.2050 C   0  0  0  0  0  0  0  0  0  0  0  0
  191.1220  177.5120  142.2610 C   0  0  0  0  0  3  0  0  0  0  0  0
  192.1350  176.5760  148.0520 C   0  0  0  0  0  2  0  0  0  0  0  0
  190.9940  175.8820  147.3330 C   0  0  0  0  0  3  0  0  0  0  0  0
  192.4280  175.4410  147.0970 C   0  0  0  0  0  2  0  0  0  0  0  0
  186.4480  179.0650  141.3740 C   0  0  1  0  0  3  0  0  0  0  0  0
  186.3780  178.9140  142.7670 O   0  0  0  0  0  0  0  0  0  0  0  0
  186.8330  177.7950  142.0380 C   0  0  2  0  0  3  0  0  0  0  0  0
  185.0820  178.9340  140.7980 C   0  0  0  0  0  3  0  0  0  0  0  0
  184.9210  178.8340  139.4810 C   0  0  0  0  0  3  0  0  0  0  0  0
  181.4610  177.6480  139.8070 O   0  0  0  0  0  0  0  0  0  0  0  0
  180.8750  178.8850  140.0300 N   0  0  0  0  0  2  0  0  0  0  0  0
  182.7990  180.0130  139.0920 C   0  0  0  0  0  2  0  0  0  0  0  0
  182.8060  177.5190  139.4410 C   0  0  0  0  0  0  0  0  0  0  0  0
  183.5570  178.7030  138.8800 C   0  0  2  0  0  3  0  0  0  0  0  0
  181.2970  179.8020  138.9760 C   0  0  0  0  0  2  0  0  0  0  0  0
  183.3450  176.3820  139.4690 O   0  0  0  0  0  0  0  0  0  0  0  0
  188.4110  177.1270  139.7670 O   0  0  0  0  0  0  0  0  0  0  0  0
  188.5460  177.9650  138.6550 C   0  0  0  0  0  0  0  0  0  0  0  0
  188.7480  179.2020  138.7960 O   0  0  0  0  0  0  0  0  0  0  0  0
  188.4550  177.3870  137.2900 C   0  0  0  0  0  2  0  0  0  0  0  0
  187.2240  177.9300  136.5870 C   0  0  0  0  0  2  0  0  0  0  0  0
  186.1610  176.8870  136.5190 C   0  0  0  0  0  0  0  0  0  0  0  0
  184.9370  177.0860  136.0600 C   0  0  0  0  0  3  0  0  0  0  0  0
  186.3060  175.4940  137.0150 C   0  0  0  0  0  2  0  0  0  0  0  0
  184.1750  175.8940  136.1770 N   0  0  0  0  0  0  0  0  0  0  0  0
  184.9350  174.9950  136.7120 C   0  0  0  0  0  0  0  0  0  0  0  0
  184.9330  172.9870  137.9660 O   0  0  0  0  0  1  0  0  0  0  0  0
  184.4770  173.6300  136.9830 C   0  0  0  0  0  0  0  0  0  0  0  0
  183.5330  173.0350  136.1550 O   0  0  0  0  0  0  0  0  0  0  0  0
  1  7  2  0  0  0  0
  2 13  1  0  0  0  0
  3  4  2  0  0  0  0
  4  9  1  0  0  0  0
  4  5  1  0  0  0  0
  5  1  1  0  0  0  0
  6 12  1  0  0  0  0
  7 12  2  0  0  0  0
  8  2  1  0  0  0  0
  9 11  1  0  0  0  0
 10  2  2  0  0  0  0
 10  3  1  0  0  0  0
 11  6  2  0  0  0  0
 12 15  1  0  0  0  0
 13  9  2  0  0  0  0
 15 14  1  0  0  0  0
 16 15  1  0  0  0  0
 16 14  1  0  0  0  0
 17 20  1  6  0  0  0
 17 19  1  0  0  0  0
 17 18  1  0  0  0  0
 19  3  1  1  0  0  0
 19 18  1  0  0  0  0
 21 20  2  0  0  0  0
 22 23  1  0  0  0  0
 25 28  2  0  0  0  0
 25 22  1  0  0  0  0
 26 24  1  0  0  0  0
 26 25  1  0  0  0  0
 26 21  1  1  0  0  0
 27 24  1  0  0  0  0
 27 23  1  0  0  0  0
 29 10  1  0  0  0  0
 30 31  2  0  0  0  0
 30 29  1  0  0  0  0
 32 30  1  0  0  0  0
 33 32  1  0  0  0  0
 34 33  1  0  0  0  0
 34 36  1  0  0  0  0
 35 37  1  0  0  0  0
 35 34  2  0  0  0  0
 37 38  2  0  0  0  0
 38 40  1  0  0  0  0
 38 36  1  0  0  0  0
 40 39  1  0  0  0  0
 41 40  2  0  0  0  0
M  END
>  <MODEL>
7

>  <REMARK>
 VINA RESULT:      -8.0      3.732     10.051
  Name = 
  10 active torsions:
  status: ('A' for Active; 'I' for Inactive)
    1  A    between atoms: C_3  and  C_4
    2  A    between atoms: C_3  and  C_28
    3  A    between atoms: C_7  and  C_28
    4  A    between atoms: C_7  and  O_40
    5  A    between atoms: C_10  and  C_39
    6  A    between atoms: C_20  and  C_33
    7  A    between atoms: CA_21  and  C_36
    8  A    between atoms: C_22  and  C_30
    9  A    between atoms: C_25  and  C_35
   10  A    between atoms: C_27  and  O_40
                            x       y       z     vdW  Elec       q    Type
                         _______ _______ _______ _____ _____    ______ ____

>  <TORSDO>
F 10

$$$$
=
 OpenBabel11042413323D

 41 46  0  0  1  0  0  0  0  0999 V2000
  189.6250  176.5080  143.3730 C   0  0  0  0  0  3  0  0  0  0  0  0
  185.0970  179.1140  143.6670 C   0  0  0  0  0  0  0  0  0  0  0  0
  186.5970  178.0200  142.0970 C   0  0  0  0  0  0  0  0  0  0  0  0
  187.2220  177.3220  143.1620 C   0  0  0  0  0  0  0  0  0  0  0  0
  188.3140  176.4460  142.8070 N   0  0  0  0  0  2  0  0  0  0  0  0
  188.2560  176.7460  146.2820 N   0  0  0  0  0  0  0  0  0  0  0  0
  189.7230  176.9840  144.5630 C   0  0  0  0  0  0  0  0  0  0  0  0
  183.9240  179.9760  143.9800 C   0  0  0  0  0  1  0  0  0  0  0  0
  186.7640  177.5450  144.5070 C   0  0  0  0  0  0  0  0  0  0  0  0
  185.5340  178.9110  142.3490 C   0  0  0  0  0  0  0  0  0  0  0  0
  187.1270  176.7730  145.6770 N   0  0  0  0  0  0  0  0  0  0  0  0
  189.4610  177.3190  145.7780 C   0  0  0  0  0  0  0  0  0  0  0  0
  185.7000  178.4230  144.7100 C   0  0  0  0  0  3  0  0  0  0  0  0
  191.7340  176.7010  146.4750 C   0  0  0  0  0  2  0  0  0  0  0  0
  190.5730  177.6470  146.7190 C   0  0  0  0  0  3  0  0  0  0  0  0
  190.8250  176.4830  147.6630 C   0  0  0  0  0  2  0  0  0  0  0  0
  188.4440  178.2410  140.4780 C   0  0  1  0  0  3  0  0  0  0  0  0
  187.3530  179.0030  140.0370 O   0  0  0  0  0  0  0  0  0  0  0  0
  187.0460  177.7820  140.6730 C   0  0  2  0  0  3  0  0  0  0  0  0
  189.0460  177.5290  139.3170 C   0  0  0  0  0  3  0  0  0  0  0  0
  190.3670  177.5200  139.1530 C   0  0  0  0  0  3  0  0  0  0  0  0
  192.7900  175.0440  137.9360 O   0  0  0  0  0  0  0  0  0  0  0  0
  191.8760  174.0520  137.6130 N   0  0  0  0  0  2  0  0  0  0  0  0
  190.0760  175.6680  137.5620 C   0  0  0  0  0  2  0  0  0  0  0  0
  192.3870  176.3300  138.3110 C   0  0  0  0  0  0  0  0  0  0  0  0
  190.9920  176.8130  137.9920 C   0  0  2  0  0  3  0  0  0  0  0  0
  190.8400  174.6250  136.7600 C   0  0  0  0  0  2  0  0  0  0  0  0
  193.2330  177.1210  138.8060 O   0  0  0  0  0  0  0  0  0  0  0  0
  184.8990  179.5490  141.2730 O   0  0  0  0  0  0  0  0  0  0  0  0
  183.8860  178.9610  140.5100 C   0  0  0  0  0  0  0  0  0  0  0  0
  183.2720  177.9400  140.9220 O   0  0  0  0  0  0  0  0  0  0  0  0
  183.5250  179.5540  139.1960 C   0  0  0  0  0  2  0  0  0  0  0  0
  182.0410  179.3670  138.9410 C   0  0  0  0  0  2  0  0  0  0  0  0
  181.5070  180.4920  138.1230 C   0  0  0  0  0  0  0  0  0  0  0  0
  180.7330  180.3520  137.0610 C   0  0  0  0  0  3  0  0  0  0  0  0
  181.8200  181.9280  138.3480 C   0  0  0  0  0  2  0  0  0  0  0  0
  180.4430  181.6250  136.5000 N   0  0  0  0  0  0  0  0  0  0  0  0
  181.0490  182.5140  137.2160 C   0  0  0  0  0  0  0  0  0  0  0  0
  181.9320  184.7110  137.2220 O   0  0  0  0  0  1  0  0  0  0  0  0
  180.9730  183.9490  136.9270 C   0  0  0  0  0  0  0  0  0  0  0  0
  179.8380  184.4780  136.3260 O   0  0  0  0  0  0  0  0  0  0  0  0
  1  7  2  0  0  0  0
  2  8  1  0  0  0  0
  2 13  1  0  0  0  0
  3 10  1  0  0  0  0
  3  4  2  0  0  0  0
  4  9  1  0  0  0  0
  5  4  1  0  0  0  0
  5  1  1  0  0  0  0
  7 12  2  0  0  0  0
  9 13  2  0  0  0  0
  9 11  1  0  0  0  0
 10  2  2  0  0  0  0
 11  6  2  0  0  0  0
 12  6  1  0  0  0  0
 12 15  1  0  0  0  0
 14 15  1  0  0  0  0
 14 16  1  0  0  0  0
 15 16  1  0  0  0  0
 17 20  1  6  0  0  0
 17 19  1  0  0  0  0
 18 17  1  0  0  0  0
 18 19  1  0  0  0  0
 19  3  1  1  0  0  0
 21 20  2  0  0  0  0
 22 25  1  0  0  0  0
 23 22  1  0  0  0  0
 24 26  1  0  0  0  0
 25 28  2  0  0  0  0
 26 25  1  0  0  0  0
 26 21  1  1  0  0  0
 27 24  1  0  0  0  0
 27 23  1  0  0  0  0
 29 10  1  0  0  0  0
 30 31  2  0  0  0  0
 30 29  1  0  0  0  0
 32 30  1  0  0  0  0
 33 32  1  0  0  0  0
 34 36  1  0  0  0  0
 34 33  1  0  0  0  0
 35 34  2  0  0  0  0
 37 35  1  0  0  0  0
 37 38  2  0  0  0  0
 38 36  1  0  0  0  0
 40 38  1  0  0  0  0
 40 39  1  0  0  0  0
 41 40  2  0  0  0  0
M  END
>  <MODEL>
8

>  <REMARK>
 VINA RESULT:      -8.0      4.480      8.980
  Name = 
  10 active torsions:
  status: ('A' for Active; 'I' for Inactive)
    1  A    between atoms: C_3  and  C_4
    2  A    between atoms: C_3  and  C_28
    3  A    between atoms: C_7  and  C_28
    4  A    between atoms: C_7  and  O_40
    5  A    between atoms: C_10  and  C_39
    6  A    between atoms: C_20  and  C_33
    7  A    between atoms: CA_21  and  C_36
    8  A    between atoms: C_22  and  C_30
    9  A    between atoms: C_25  and  C_35
   10  A    between atoms: C_27  and  O_40
                            x       y       z     vdW  Elec       q    Type
                         _______ _______ _______ _____ _____    ______ ____

>  <TORSDO>
F 10

$$$$
=
 OpenBabel11042413323D

 41 46  0  0  1  0  0  0  0  0999 V2000
  193.4590  176.2460  138.7750 C   0  0  0  0  0  3  0  0  0  0  0  0
  188.8620  176.0270  136.2860 C   0  0  0  0  0  0  0  0  0  0  0  0
  189.9490  176.9470  138.2570 C   0  0  0  0  0  0  0  0  0  0  0  0
  191.2220  176.7400  137.6650 C   0  0  0  0  0  0  0  0  0  0  0  0
  192.3700  177.1150  138.4580 N   0  0  0  0  0  2  0  0  0  0  0  0
  193.5080  175.3310  135.6840 N   0  0  0  0  0  0  0  0  0  0  0  0
  193.7030  175.2930  137.9480 C   0  0  0  0  0  0  0  0  0  0  0  0
  187.6500  175.7170  135.4770 C   0  0  0  0  0  1  0  0  0  0  0  0
  191.2960  176.1540  136.3540 C   0  0  0  0  0  0  0  0  0  0  0  0
  188.7710  176.5940  137.5650 C   0  0  0  0  0  0  0  0  0  0  0  0
  192.4740  176.0700  135.5160 N   0  0  0  0  0  0  0  0  0  0  0  0
  193.7940  174.5940  136.8710 C   0  0  0  0  0  0  0  0  0  0  0  0
  190.1070  175.8340  135.7000 C   0  0  0  0  0  3  0  0  0  0  0  0
  194.7600  172.8820  135.3980 C   0  0  0  0  0  2  0  0  0  0  0  0
  194.7320  173.4330  136.8110 C   0  0  0  0  0  3  0  0  0  0  0  0
  193.9750  172.1610  136.4700 C   0  0  0  0  0  2  0  0  0  0  0  0
  189.9770  176.5640  140.6920 C   0  0  1  0  0  3  0  0  0  0  0  0
  188.7280  177.0850  140.3240 O   0  0  0  0  0  0  0  0  0  0  0  0
  189.8470  177.5850  139.6230 C   0  0  2  0  0  3  0  0  0  0  0  0
  190.4270  177.2150  141.9530 C   0  0  0  0  0  3  0  0  0  0  0  0
  190.1270  176.6700  143.1290 C   0  0  0  0  0  3  0  0  0  0  0  0
  189.5080  177.2790  146.6970 O   0  0  0  0  0  0  0  0  0  0  0  0
  190.4740  176.4160  147.1900 N   0  0  0  0  0  2  0  0  0  0  0  0
  191.6260  176.4210  145.0620 C   0  0  0  0  0  2  0  0  0  0  0  0
  189.4060  177.5780  145.3340 C   0  0  0  0  0  0  0  0  0  0  0  0
  190.5680  177.3090  144.4080 C   0  0  2  0  0  3  0  0  0  0  0  0
  191.7500  176.7200  146.5490 C   0  0  0  0  0  2  0  0  0  0  0  0
  188.3860  178.1830  144.9110 O   0  0  0  0  0  0  0  0  0  0  0  0
  187.5240  176.8570  138.1500 O   0  0  0  0  0  0  0  0  0  0  0  0
  186.7250  177.9550  137.8170 C   0  0  0  0  0  0  0  0  0  0  0  0
  187.2190  178.9710  137.2550 O   0  0  0  0  0  0  0  0  0  0  0  0
  185.2730  177.9220  138.1260 C   0  0  0  0  0  2  0  0  0  0  0  0
  184.8610  179.2240  138.7890 C   0  0  0  0  0  2  0  0  0  0  0  0
  184.2800  178.9610  140.1360 C   0  0  0  0  0  0  0  0  0  0  0  0
  183.0000  178.7260  140.3730 C   0  0  0  0  0  3  0  0  0  0  0  0
  185.0440  178.9890  141.4100 C   0  0  0  0  0  2  0  0  0  0  0  0
  182.7870  178.5590  141.7670 N   0  0  0  0  0  0  0  0  0  0  0  0
  183.9280  178.7040  142.3570 C   0  0  0  0  0  0  0  0  0  0  0  0
  185.1660  178.1680  144.3030 O   0  0  0  0  0  0  0  0  0  0  0  0
  184.0890  178.5960  143.8100 C   0  0  0  0  0  0  0  0  0  0  0  0
  183.0490  178.9680  144.6530 O   0  0  0  0  0  1  0  0  0  0  0  0
  2 10  1  0  0  0  0
  4  3  1  0  0  0  0
  4  5  1  0  0  0  0
  5  1  1  0  0  0  0
  6 12  1  0  0  0  0
  7  1  2  0  0  0  0
  8  2  1  0  0  0  0
  9  4  2  0  0  0  0
 10 29  1  0  0  0  0
 10  3  2  0  0  0  0
 11  6  2  0  0  0  0
 11  9  1  0  0  0  0
 12  7  2  0  0  0  0
 13  2  2  0  0  0  0
 13  9  1  0  0  0  0
 14 16  1  0  0  0  0
 14 15  1  0  0  0  0
 15 12  1  0  0  0  0
 16 15  1  0  0  0  0
 17 20  1  1  0  0  0
 18 17  1  0  0  0  0
 19  3  1  6  0  0  0
 19 18  1  0  0  0  0
 19 17  1  0  0  0  0
 20 21  2  0  0  0  0
 22 23  1  0  0  0  0
 24 27  1  0  0  0  0
 25 22  1  0  0  0  0
 26 21  1  6  0  0  0
 26 24  1  0  0  0  0
 26 25  1  0  0  0  0
 27 23  1  0  0  0  0
 28 25  2  0  0  0  0
 30 32  1  0  0  0  0
 30 29  1  0  0  0  0
 31 30  2  0  0  0  0
 32 33  1  0  0  0  0
 33 34  1  0  0  0  0
 34 35  2  0  0  0  0
 34 36  1  0  0  0  0
 35 37  1  0  0  0  0
 36 38  1  0  0  0  0
 37 38  2  0  0  0  0
 38 40  1  0  0  0  0
 40 39  2  0  0  0  0
 40 41  1  0  0  0  0
M  END
>  <MODEL>
9

>  <REMARK>
 VINA RESULT:      -7.9      2.837      7.803
  Name = 
  10 active torsions:
  status: ('A' for Active; 'I' for Inactive)
    1  A    between atoms: C_3  and  C_4
    2  A    between atoms: C_3  and  C_28
    3  A    between atoms: C_7  and  C_28
    4  A    between atoms: C_7  and  O_40
    5  A    between atoms: C_10  and  C_39
    6  A    between atoms: C_20  and  C_33
    7  A    between atoms: CA_21  and  C_36
    8  A    between atoms: C_22  and  C_30
    9  A    between atoms: C_25  and  C_35
   10  A    between atoms: C_27  and  O_40
                            x       y       z     vdW  Elec       q    Type
                         _______ _______ _______ _____ _____    ______ ____

>  <TORSDO>
F 10

$$$$
