=
 OpenBabel11042409543D

 66 73  0  0  1  0  0  0  0  0999 V2000
  191.2180  175.8020  138.4890 C   0  0  2  0  0  3  0  0  0  0  0  0
  190.1600  175.1870  137.5890 C   0  0  0  0  0  0  0  0  0  0  0  0
  189.3470  177.2070  139.3990 C   0  0  0  0  0  3  0  0  0  0  0  0
  190.6290  176.8150  139.4700 C   0  0  0  0  0  0  0  0  0  0  0  0
  188.7820  175.7280  137.5490 C   0  0  0  0  0  0  0  0  0  0  0  0
  190.4480  174.1690  136.9010 O   0  0  0  0  0  0  0  0  0  0  0  0
  188.4210  176.6740  138.4050 C   0  0  0  0  0  3  0  0  0  0  0  0
  190.9800  177.2430  141.8410 C   0  0  0  0  0  3  0  0  0  0  0  0
  192.6920  177.8590  140.3340 O   0  0  0  0  0  1  0  0  0  0  0  0
  191.4230  177.3400  140.5860 C   0  0  0  0  0  0  0  0  0  0  0  0
  191.7820  177.7190  143.0030 C   0  0  0  0  0  2  0  0  0  0  0  0
  191.0660  176.3900  146.4850 C   0  0  0  0  0  3  0  0  0  0  0  0
  189.7860  176.9060  146.7200 C   0  0  0  0  0  3  0  0  0  0  0  0
  189.1510  177.6970  145.7430 C   0  0  0  0  0  0  0  0  0  0  0  0
  191.0780  177.4270  144.2860 C   0  0  0  0  0  0  0  0  0  0  0  0
  189.7980  177.9540  144.5230 C   0  0  0  0  0  3  0  0  0  0  0  0
  191.7150  176.6520  145.2710 C   0  0  0  0  0  3  0  0  0  0  0  0
  187.8080  178.3210  146.0200 C   0  0  0  0  0  2  0  0  0  0  0  0
  185.0950  178.1480  142.7610 C   0  0  0  0  0  0  0  0  0  0  0  0
  182.4660  179.0890  142.9990 C   0  0  0  0  0  0  0  0  0  0  0  0
  187.0030  178.5010  144.8020 N   0  0  0  0  0  0  0  0  0  0  0  0
  185.5910  178.8170  145.1560 C   0  0  1  0  0  3  0  0  0  0  0  0
  187.0420  177.2760  143.9900 C   0  0  0  0  0  2  0  0  0  0  0  0
  184.6870  178.7980  143.9460 C   0  0  0  0  0  0  0  0  0  0  0  0
  184.2080  178.0330  141.6900 C   0  0  0  0  0  3  0  0  0  0  0  0
  181.0560  179.5200  143.1540 C   0  0  0  0  0  1  0  0  0  0  0  0
  186.4740  177.6020  142.6210 C   0  0  0  0  0  2  0  0  0  0  0  0
  183.3640  179.2460  144.0650 C   0  0  0  0  0  3  0  0  0  0  0  0
  182.8900  178.4910  141.8110 C   0  0  0  0  0  3  0  0  0  0  0  0
  185.2080  178.2040  147.5050 C   0  0  0  0  0  2  0  0  0  0  0  0
  185.0230  177.9010  146.2200 C   0  0  0  0  0  3  0  0  0  0  0  0
  193.6520  175.7790  137.5050 C   0  0  1  0  0  3  0  0  0  0  0  0
  192.3330  176.4760  137.6570 C   0  0  2  0  0  3  0  0  0  0  0  0
  193.4270  176.7280  138.5170 O   0  0  0  0  0  0  0  0  0  0  0  0
  193.7340  174.3600  138.0750 C   0  0  1  0  0  3  0  0  0  0  0  0
  193.6610  173.4050  136.8890 C   0  0  0  0  0  2  0  0  0  0  0  0
  195.9540  175.0900  138.8300 O   0  0  0  0  0  1  0  0  0  0  0  0
  195.6710  172.8490  138.0980 C   0  0  0  0  0  2  0  0  0  0  0  0
  194.9020  172.6590  136.8940 N   0  0  0  0  0  0  0  0  0  0  0  0
  195.5510  172.2710  135.6910 C   0  0  0  0  0  3  0  0  0  0  0  0
  194.9320  172.2700  134.5940 O   0  0  0  0  0  0  0  0  0  0  0  0
  195.0420  174.0300  138.8230 C   0  0  2  0  0  3  0  0  0  0  0  0
  187.7300  175.0950  136.6970 C   0  0  0  0  0  2  0  0  0  0  0  0
  186.3650  175.5370  137.1960 C   0  0  0  0  0  2  0  0  0  0  0  0
  185.2940  174.5870  136.7030 C   0  0  0  0  0  2  0  0  0  0  0  0
  185.5490  173.2170  137.3110 C   0  0  0  0  0  2  0  0  0  0  0  0
  184.2950  172.3620  137.2110 C   0  0  0  0  0  2  0  0  0  0  0  0
  184.6450  171.4090  134.9010 C   0  0  0  0  0  1  0  0  0  0  0  0
  182.5820  172.6890  135.4270 C   0  0  0  0  0  0  0  0  0  0  0  0
  182.4580  173.8170  134.8900 O   0  0  0  0  0  0  0  0  0  0  0  0
  183.8740  172.2330  135.8210 N   0  0  0  0  0  0  0  0  0  0  0  0
  181.4090  171.7620  135.5280 C   0  0  1  0  0  3  0  0  0  0  0  0
  181.8350  170.4330  135.4490 O   0  0  0  0  0  1  0  0  0  0  0  0
  181.1900  171.5320  137.9450 O   0  0  0  0  0  1  0  0  0  0  0  0
  180.5350  171.9640  136.7790 C   0  0  1  0  0  3  0  0  0  0  0  0
  180.1050  173.4270  136.8890 C   0  0  0  0  0  2  0  0  0  0  0  0
  181.2450  175.3100  138.0880 C   0  0  0  0  0  0  0  0  0  0  0  0
  182.0080  175.6480  139.0400 O   0  0  0  0  0  0  0  0  0  0  0  0
  181.0610  176.1830  136.9660 N   0  0  0  0  0  2  0  0  0  0  0  0
  180.6190  174.0270  138.1130 N   0  0  0  0  0  2  0  0  0  0  0  0
  183.0860  177.3740  137.5510 C   0  0  1  0  0  3  0  0  0  0  0  0
  181.7760  177.4420  136.8410 C   0  0  1  0  0  0  0  0  0  0  0  0
  183.0620  177.4780  136.0370 C   0  0  0  0  0  2  0  0  0  0  0  0
  183.1810  178.7430  138.1860 C   0  0  0  0  0  2  0  0  0  0  0  0
  181.1000  178.7000  137.3280 C   0  0  0  0  0  2  0  0  0  0  0  0
  181.8880  179.2690  138.3500 O   0  0  0  0  0  0  0  0  0  0  0  0
  1  2  1  6  0  0  0
  1  4  1  0  0  0  0
  3  4  2  0  0  0  0
  4 10  1  0  0  0  0
  5  2  1  0  0  0  0
  5  7  2  0  0  0  0
  6  2  2  0  0  0  0
  7  3  1  0  0  0  0
  8 11  1  0  0  0  0
  9 10  1  0  0  0  0
 10  8  2  0  0  0  0
 11 15  1  0  0  0  0
 12 13  1  0  0  0  0
 14 18  1  0  0  0  0
 14 13  2  0  0  0  0
 15 16  2  0  0  0  0
 15 17  1  0  0  0  0
 16 14  1  0  0  0  0
 17 12  2  0  0  0  0
 19 24  1  0  0  0  0
 20 26  1  0  0  0  0
 20 28  1  0  0  0  0
 21 22  1  0  0  0  0
 21 18  1  0  0  0  0
 22 31  1  1  0  0  0
 23 21  1  0  0  0  0
 24 28  2  0  0  0  0
 24 22  1  0  0  0  0
 25 29  1  0  0  0  0
 25 19  2  0  0  0  0
 27 19  1  0  0  0  0
 27 23  1  0  0  0  0
 29 20  2  0  0  0  0
 31 30  2  0  0  0  0
 32 33  1  0  0  0  0
 32 35  1  0  0  0  0
 32 34  1  1  0  0  0
 33  1  1  0  0  0  0
 33 34  1  1  0  0  0
 35 36  1  6  0  0  0
 35 42  1  0  0  0  0
 36 39  1  0  0  0  0
 38 42  1  0  0  0  0
 39 38  1  0  0  0  0
 40 39  1  0  0  0  0
 41 40  2  0  0  0  0
 42 37  1  6  0  0  0
 43 44  1  0  0  0  0
 43  5  1  0  0  0  0
 45 44  1  0  0  0  0
 45 46  1  0  0  0  0
 47 46  1  0  0  0  0
 48 51  1  0  0  0  0
 49 52  1  0  0  0  0
 49 51  1  0  0  0  0
 50 49  2  0  0  0  0
 51 47  1  0  0  0  0
 52 53  1  1  0  0  0
 52 55  1  0  0  0  0
 55 56  1  0  0  0  0
 55 54  1  1  0  0  0
 56 60  1  0  0  0  0
 57 60  1  0  0  0  0
 57 58  2  0  0  0  0
 59 57  1  0  0  0  0
 61 63  1  6  0  0  0
 61 64  1  0  0  0  0
 62 59  1  6  0  0  0
 62 65  1  0  0  0  0
 62 61  1  0  0  0  0
 63 62  1  0  0  0  0
 64 66  1  0  0  0  0
 65 66  1  0  0  0  0
M  END
>  <MODEL>
1

>  <REMARK>
 VINA RESULT:      -8.5      0.000      0.000
  Name = 
  19 active torsions:
  status: ('A' for Active; 'I' for Inactive)
    1  A    between atoms: C_4  and  C_36
    2  A    between atoms: N_7  and  C_29
    3  A    between atoms: C_8  and  C_33
    4  A    between atoms: C_10  and  N_57
    5  A    between atoms: C_13  and  C_16
    6  A    between atoms: C_13  and  C_52
    7  A    between atoms: C_15  and  C_52
    8  A    between atoms: C_15  and  N_64
    9  A    between atoms: C_17  and  C_25
   10  A    between atoms: C_18  and  C_27
   11  A    between atoms: C_21  and  C_38
   12  A    between atoms: C_21  and  N_58
   13  A    between atoms: C_22  and  C_23
   14  A    between atoms: C_29  and  C_32
   15  A    between atoms: C_33  and  C_42
   16  A    between atoms: C_34  and  C_46
   17  A    between atoms: C_34  and  C_51
   18  A    between atoms: C_38  and  C_51
   19  A    between atoms: C_46  and  C_53
                            x       y       z     vdW  Elec       q    Type
                         _______ _______ _______ _____ _____    ______ ____

>  <TORSDO>
F 19

$$$$
=
 OpenBabel11042409543D

 66 73  0  0  1  0  0  0  0  0999 V2000
  189.1970  177.5130  143.2870 C   0  0  2  0  0  3  0  0  0  0  0  0
  190.1240  177.2860  142.1050 C   0  0  0  0  0  0  0  0  0  0  0  0
  187.5130  178.2480  141.5770 C   0  0  0  0  0  3  0  0  0  0  0  0
  187.7990  177.9510  142.8540 C   0  0  0  0  0  0  0  0  0  0  0  0
  189.7320  177.6970  140.7370 C   0  0  0  0  0  0  0  0  0  0  0  0
  191.2230  176.6940  142.2850 O   0  0  0  0  0  0  0  0  0  0  0  0
  188.5050  178.1460  140.5110 C   0  0  0  0  0  3  0  0  0  0  0  0
  185.6920  178.8640  143.6620 C   0  0  0  0  0  3  0  0  0  0  0  0
  186.6240  177.0280  144.8190 O   0  0  0  0  0  1  0  0  0  0  0  0
  186.6850  177.9860  143.8080 C   0  0  0  0  0  0  0  0  0  0  0  0
  184.5200  178.8960  144.5810 C   0  0  0  0  0  2  0  0  0  0  0  0
  180.8130  178.7490  143.7780 C   0  0  0  0  0  3  0  0  0  0  0  0
  180.8360  178.6280  142.3840 C   0  0  0  0  0  3  0  0  0  0  0  0
  182.0660  178.5990  141.6960 C   0  0  0  0  0  0  0  0  0  0  0  0
  183.2440  178.7870  143.8140 C   0  0  0  0  0  0  0  0  0  0  0  0
  183.2710  178.6750  142.4150 C   0  0  0  0  0  3  0  0  0  0  0  0
  182.0140  178.8320  144.4950 C   0  0  0  0  0  3  0  0  0  0  0  0
  182.0970  178.5480  140.1910 C   0  0  0  0  0  2  0  0  0  0  0  0
  181.4910  175.0130  137.9230 C   0  0  0  0  0  0  0  0  0  0  0  0
  183.6500  173.4850  136.9970 C   0  0  0  0  0  0  0  0  0  0  0  0
  181.8410  177.1990  139.6620 N   0  0  0  0  0  0  0  0  0  0  0  0
  183.0770  176.6400  139.0490 C   0  0  1  0  0  3  0  0  0  0  0  0
  180.7730  177.2510  138.6530 C   0  0  0  0  0  2  0  0  0  0  0  0
  182.8070  175.3520  138.3070 C   0  0  0  0  0  0  0  0  0  0  0  0
  181.2660  173.8820  137.1360 C   0  0  0  0  0  3  0  0  0  0  0  0
  184.7960  172.7230  136.4460 C   0  0  0  0  0  1  0  0  0  0  0  0
  180.3270  175.8290  138.3680 C   0  0  0  0  0  2  0  0  0  0  0  0
  183.8820  174.5950  137.8210 C   0  0  0  0  0  3  0  0  0  0  0  0
  182.3440  173.1240  136.6610 C   0  0  0  0  0  3  0  0  0  0  0  0
  185.0210  178.0000  138.4110 C   0  0  0  0  0  2  0  0  0  0  0  0
  183.7780  177.6120  138.1240 C   0  0  0  0  0  3  0  0  0  0  0  0
  190.2700  178.1040  145.6090 C   0  0  1  0  0  3  0  0  0  0  0  0
  189.7870  178.5560  144.2640 C   0  0  2  0  0  3  0  0  0  0  0  0
  188.9660  178.5890  145.4150 O   0  0  0  0  0  0  0  0  0  0  0  0
  190.2760  176.5920  145.8500 C   0  0  1  0  0  3  0  0  0  0  0  0
  191.7130  176.2030  146.1760 C   0  0  0  0  0  2  0  0  0  0  0  0
  188.7870  177.1630  147.7170 O   0  0  0  0  0  1  0  0  0  0  0  0
  190.3550  175.4020  147.9990 C   0  0  0  0  0  2  0  0  0  0  0  0
  191.6890  175.6470  147.5130 N   0  0  0  0  0  0  0  0  0  0  0  0
  192.7530  175.8520  148.4320 C   0  0  0  0  0  3  0  0  0  0  0  0
  193.8850  176.2390  148.0350 O   0  0  0  0  0  0  0  0  0  0  0  0
  189.4140  176.1150  147.0370 C   0  0  2  0  0  3  0  0  0  0  0  0
  190.6240  177.4330  139.5680 C   0  0  0  0  0  2  0  0  0  0  0  0
  189.7840  176.8950  138.4220 C   0  0  0  0  0  2  0  0  0  0  0  0
  189.7790  177.8780  137.2710 C   0  0  0  0  0  2  0  0  0  0  0  0
  188.3340  178.1790  136.9020 C   0  0  0  0  0  2  0  0  0  0  0  0
  188.0260  177.6310  135.5170 C   0  0  0  0  0  2  0  0  0  0  0  0
  185.8740  176.4950  134.8470 C   0  0  0  0  0  1  0  0  0  0  0  0
  187.5530  175.2840  136.2190 C   0  0  0  0  0  0  0  0  0  0  0  0
  187.2500  175.0470  137.4140 O   0  0  0  0  0  0  0  0  0  0  0  0
  187.1170  176.4950  135.6070 N   0  0  0  0  0  0  0  0  0  0  0  0
  188.2470  174.2460  135.3910 C   0  0  1  0  0  3  0  0  0  0  0  0
  189.2290  174.8400  134.5940 O   0  0  0  0  0  1  0  0  0  0  0  0
  188.3280  171.8410  135.7830 O   0  0  0  0  0  1  0  0  0  0  0  0
  188.8520  173.0800  136.1940 C   0  0  1  0  0  3  0  0  0  0  0  0
  190.3770  173.1040  136.0910 C   0  0  0  0  0  2  0  0  0  0  0  0
  192.3250  174.2670  137.1560 C   0  0  0  0  0  0  0  0  0  0  0  0
  192.7290  174.9930  138.1110 O   0  0  0  0  0  0  0  0  0  0  0  0
  193.2540  173.4600  136.4200 N   0  0  0  0  0  2  0  0  0  0  0  0
  190.9300  174.2120  136.8570 N   0  0  0  0  0  2  0  0  0  0  0  0
  194.8300  172.9690  138.1910 C   0  0  1  0  0  3  0  0  0  0  0  0
  194.6630  173.3900  136.7700 C   0  0  1  0  0  0  0  0  0  0  0  0
  195.2750  172.0370  137.0790 C   0  0  0  0  0  2  0  0  0  0  0  0
  195.9740  173.8420  138.6540 C   0  0  0  0  0  2  0  0  0  0  0  0
  195.5060  174.6290  136.5980 C   0  0  0  0  0  2  0  0  0  0  0  0
  196.0300  174.9970  137.8540 O   0  0  0  0  0  0  0  0  0  0  0  0
  1  2  1  6  0  0  0
  1 33  1  0  0  0  0
  2  6  2  0  0  0  0
  3  4  2  0  0  0  0
  4  1  1  0  0  0  0
  4 10  1  0  0  0  0
  5  2  1  0  0  0  0
  7  5  2  0  0  0  0
  7  3  1  0  0  0  0
  8 10  2  0  0  0  0
  8 11  1  0  0  0  0
 10  9  1  0  0  0  0
 12 17  1  0  0  0  0
 13 12  2  0  0  0  0
 14 13  1  0  0  0  0
 14 16  2  0  0  0  0
 15 17  2  0  0  0  0
 15 11  1  0  0  0  0
 16 15  1  0  0  0  0
 18 14  1  0  0  0  0
 19 24  1  0  0  0  0
 19 27  1  0  0  0  0
 20 28  1  0  0  0  0
 21 18  1  0  0  0  0
 22 31  1  6  0  0  0
 22 21  1  0  0  0  0
 23 21  1  0  0  0  0
 24 22  1  0  0  0  0
 25 19  2  0  0  0  0
 26 20  1  0  0  0  0
 27 23  1  0  0  0  0
 28 24  2  0  0  0  0
 29 20  2  0  0  0  0
 29 25  1  0  0  0  0
 31 30  2  0  0  0  0
 32 34  1  1  0  0  0
 32 35  1  0  0  0  0
 33 34  1  1  0  0  0
 33 32  1  0  0  0  0
 35 36  1  1  0  0  0
 35 42  1  0  0  0  0
 36 39  1  0  0  0  0
 39 38  1  0  0  0  0
 39 40  1  0  0  0  0
 41 40  2  0  0  0  0
 42 37  1  1  0  0  0
 42 38  1  0  0  0  0
 43  5  1  0  0  0  0
 44 43  1  0  0  0  0
 45 44  1  0  0  0  0
 46 45  1  0  0  0  0
 47 51  1  0  0  0  0
 47 46  1  0  0  0  0
 48 51  1  0  0  0  0
 49 50  2  0  0  0  0
 51 49  1  0  0  0  0
 52 53  1  1  0  0  0
 52 55  1  0  0  0  0
 52 49  1  0  0  0  0
 55 54  1  6  0  0  0
 56 55  1  0  0  0  0
 56 60  1  0  0  0  0
 57 58  2  0  0  0  0
 59 57  1  0  0  0  0
 60 57  1  0  0  0  0
 61 63  1  6  0  0  0
 61 64  1  0  0  0  0
 62 59  1  6  0  0  0
 62 63  1  0  0  0  0
 62 61  1  0  0  0  0
 65 62  1  0  0  0  0
 65 66  1  0  0  0  0
 66 64  1  0  0  0  0
M  END
>  <MODEL>
2

>  <REMARK>
 VINA RESULT:      -8.5      2.712      8.916
  Name = 
  19 active torsions:
  status: ('A' for Active; 'I' for Inactive)
    1  A    between atoms: C_4  and  C_36
    2  A    between atoms: N_7  and  C_29
    3  A    between atoms: C_8  and  C_33
    4  A    between atoms: C_10  and  N_57
    5  A    between atoms: C_13  and  C_16
    6  A    between atoms: C_13  and  C_52
    7  A    between atoms: C_15  and  C_52
    8  A    between atoms: C_15  and  N_64
    9  A    between atoms: C_17  and  C_25
   10  A    between atoms: C_18  and  C_27
   11  A    between atoms: C_21  and  C_38
   12  A    between atoms: C_21  and  N_58
   13  A    between atoms: C_22  and  C_23
   14  A    between atoms: C_29  and  C_32
   15  A    between atoms: C_33  and  C_42
   16  A    between atoms: C_34  and  C_46
   17  A    between atoms: C_34  and  C_51
   18  A    between atoms: C_38  and  C_51
   19  A    between atoms: C_46  and  C_53
                            x       y       z     vdW  Elec       q    Type
                         _______ _______ _______ _____ _____    ______ ____

>  <TORSDO>
F 19

$$$$
=
 OpenBabel11042409543D

 66 73  0  0  1  0  0  0  0  0999 V2000
  184.8010  178.6290  139.8220 C   0  0  2  0  0  3  0  0  0  0  0  0
  185.7750  178.2410  140.9210 C   0  0  0  0  0  0  0  0  0  0  0  0
  183.2020  179.1430  141.6870 C   0  0  0  0  0  3  0  0  0  0  0  0
  183.4860  179.1750  140.3760 C   0  0  0  0  0  0  0  0  0  0  0  0
  185.3460  178.1900  142.3380 C   0  0  0  0  0  0  0  0  0  0  0  0
  186.9790  178.0070  140.6270 O   0  0  0  0  0  0  0  0  0  0  0  0
  184.1370  178.6160  142.6760 C   0  0  0  0  0  3  0  0  0  0  0  0
  181.2370  179.4320  139.4800 C   0  0  0  0  0  3  0  0  0  0  0  0
  182.9010  180.9470  138.7610 O   0  0  0  0  0  1  0  0  0  0  0  0
  182.5100  179.8330  139.5010 C   0  0  0  0  0  0  0  0  0  0  0  0
  180.2070  180.1090  138.6440 C   0  0  0  0  0  2  0  0  0  0  0  0
  180.7280  180.0140  134.8860 C   0  0  0  0  0  3  0  0  0  0  0  0
  180.4010  178.6850  134.5940 C   0  0  0  0  0  3  0  0  0  0  0  0
  180.0110  177.8090  135.6270 C   0  0  0  0  0  0  0  0  0  0  0  0
  180.2570  179.6140  137.2370 C   0  0  0  0  0  0  0  0  0  0  0  0
  179.9370  178.2770  136.9490 C   0  0  0  0  0  3  0  0  0  0  0  0
  180.6620  180.4800  136.2060 C   0  0  0  0  0  3  0  0  0  0  0  0
  179.7340  176.3580  135.3320 C   0  0  0  0  0  2  0  0  0  0  0  0
  183.3710  174.1710  135.3080 C   0  0  0  0  0  0  0  0  0  0  0  0
  183.4290  171.4290  135.8800 C   0  0  0  0  0  0  0  0  0  0  0  0
  180.9560  175.5940  135.0370 N   0  0  0  0  0  0  0  0  0  0  0  0
  180.8510  174.2150  135.5900 C   0  0  1  0  0  3  0  0  0  0  0  0
  182.1230  176.2700  135.6230 C   0  0  0  0  0  2  0  0  0  0  0  0
  182.1610  173.4680  135.4980 C   0  0  0  0  0  0  0  0  0  0  0  0
  184.5860  173.4860  135.3420 C   0  0  0  0  0  3  0  0  0  0  0  0
  183.4620  169.9960  136.2570 C   0  0  0  0  0  1  0  0  0  0  0  0
  183.3730  175.6370  135.0410 C   0  0  0  0  0  2  0  0  0  0  0  0
  182.2010  172.1010  135.8050 C   0  0  0  0  0  3  0  0  0  0  0  0
  184.6190  172.1180  135.6410 C   0  0  0  0  0  3  0  0  0  0  0  0
  179.1970  173.5790  137.2920 C   0  0  0  0  0  2  0  0  0  0  0  0
  180.3550  174.1810  137.0210 C   0  0  0  0  0  3  0  0  0  0  0  0
  185.4040  177.1970  137.7050 C   0  0  1  0  0  3  0  0  0  0  0  0
  184.5120  177.4330  138.8860 C   0  0  2  0  0  3  0  0  0  0  0  0
  184.2180  177.9440  137.6020 O   0  0  0  0  0  0  0  0  0  0  0  0
  186.6410  178.0950  137.6050 C   0  0  1  0  0  3  0  0  0  0  0  0
  187.8300  177.2570  138.0630 C   0  0  0  0  0  2  0  0  0  0  0  0
  186.0970  178.1090  135.2110 O   0  0  0  0  0  1  0  0  0  0  0  0
  188.3790  178.0900  135.8680 C   0  0  0  0  0  2  0  0  0  0  0  0
  188.7320  177.1850  136.9320 N   0  0  0  0  0  0  0  0  0  0  0  0
  189.4900  176.0160  136.6490 C   0  0  0  0  0  3  0  0  0  0  0  0
  189.6590  175.1270  137.5260 O   0  0  0  0  0  0  0  0  0  0  0  0
  186.9770  178.5920  136.1850 C   0  0  2  0  0  3  0  0  0  0  0  0
  186.3160  177.8510  143.4240 C   0  0  0  0  0  2  0  0  0  0  0  0
  185.7450  178.3180  144.7520 C   0  0  0  0  0  2  0  0  0  0  0  0
  186.3190  177.4970  145.8870 C   0  0  0  0  0  2  0  0  0  0  0  0
  187.7820  177.8730  146.0600 C   0  0  0  0  0  2  0  0  0  0  0  0
  188.6620  176.9140  145.2710 C   0  0  0  0  0  2  0  0  0  0  0  0
  190.9160  177.1200  146.3850 C   0  0  0  0  0  1  0  0  0  0  0  0
  190.6100  177.8640  144.0360 C   0  0  0  0  0  0  0  0  0  0  0  0
  190.6590  179.1000  143.8170 O   0  0  0  0  0  0  0  0  0  0  0  0
  190.0420  177.3840  145.2510 N   0  0  0  0  0  0  0  0  0  0  0  0
  191.2680  176.8990  143.0970 C   0  0  1  0  0  3  0  0  0  0  0  0
  191.8240  175.8340  143.8100 O   0  0  0  0  0  1  0  0  0  0  0  0
  188.9960  176.5510  142.2830 O   0  0  0  0  0  1  0  0  0  0  0  0
  190.3570  176.3680  141.9760 C   0  0  1  0  0  3  0  0  0  0  0  0
  190.7220  177.0250  140.6450 C   0  0  0  0  0  2  0  0  0  0  0  0
  193.0500  177.0550  139.7150 C   0  0  0  0  0  0  0  0  0  0  0  0
  194.2850  177.1780  139.9630 O   0  0  0  0  0  0  0  0  0  0  0  0
  192.6160  176.4020  138.5140 N   0  0  0  0  0  2  0  0  0  0  0  0
  192.0930  177.5160  140.6690 N   0  0  0  0  0  2  0  0  0  0  0  0
  192.9500  175.7230  136.2150 C   0  0  1  0  0  3  0  0  0  0  0  0
  193.5540  175.8080  137.5760 C   0  0  1  0  0  0  0  0  0  0  0  0
  194.1140  176.6660  136.4580 C   0  0  0  0  0  2  0  0  0  0  0  0
  193.4370  174.3770  135.7280 C   0  0  0  0  0  2  0  0  0  0  0  0
  194.0970  174.4330  137.8800 C   0  0  0  0  0  2  0  0  0  0  0  0
  193.7270  173.5610  136.8360 O   0  0  0  0  0  0  0  0  0  0  0  0
  1  4  1  1  0  0  0
  1  2  1  0  0  0  0
  2  5  1  0  0  0  0
  3  7  1  0  0  0  0
  4  3  2  0  0  0  0
  5  7  2  0  0  0  0
  5 43  1  0  0  0  0
  6  2  2  0  0  0  0
  8 10  2  0  0  0  0
  9 10  1  0  0  0  0
 10  4  1  0  0  0  0
 11  8  1  0  0  0  0
 12 17  1  0  0  0  0
 13 12  2  0  0  0  0
 13 14  1  0  0  0  0
 14 16  2  0  0  0  0
 15 11  1  0  0  0  0
 16 15  1  0  0  0  0
 17 15  2  0  0  0  0
 18 14  1  0  0  0  0
 19 25  2  0  0  0  0
 19 24  1  0  0  0  0
 20 26  1  0  0  0  0
 21 18  1  0  0  0  0
 21 22  1  0  0  0  0
 21 23  1  0  0  0  0
 22 31  1  1  0  0  0
 24 22  1  0  0  0  0
 24 28  2  0  0  0  0
 25 29  1  0  0  0  0
 27 19  1  0  0  0  0
 27 23  1  0  0  0  0
 28 20  1  0  0  0  0
 29 20  2  0  0  0  0
 31 30  2  0  0  0  0
 32 34  1  6  0  0  0
 32 33  1  0  0  0  0
 33 34  1  6  0  0  0
 33  1  1  0  0  0  0
 35 32  1  0  0  0  0
 35 36  1  6  0  0  0
 38 42  1  0  0  0  0
 38 39  1  0  0  0  0
 39 36  1  0  0  0  0
 40 39  1  0  0  0  0
 40 41  2  0  0  0  0
 42 37  1  6  0  0  0
 42 35  1  0  0  0  0
 43 44  1  0  0  0  0
 44 45  1  0  0  0  0
 45 46  1  0  0  0  0
 47 46  1  0  0  0  0
 49 51  1  0  0  0  0
 50 49  2  0  0  0  0
 51 47  1  0  0  0  0
 51 48  1  0  0  0  0
 52 53  1  1  0  0  0
 52 49  1  0  0  0  0
 55 54  1  1  0  0  0
 55 52  1  0  0  0  0
 56 60  1  0  0  0  0
 56 55  1  0  0  0  0
 57 58  2  0  0  0  0
 57 60  1  0  0  0  0
 59 57  1  0  0  0  0
 61 64  1  6  0  0  0
 61 63  1  0  0  0  0
 61 62  1  0  0  0  0
 62 65  1  0  0  0  0
 62 59  1  1  0  0  0
 63 62  1  0  0  0  0
 64 66  1  0  0  0  0
 66 65  1  0  0  0  0
M  END
>  <MODEL>
3

>  <REMARK>
 VINA RESULT:      -8.0      2.501     10.818
  Name = 
  19 active torsions:
  status: ('A' for Active; 'I' for Inactive)
    1  A    between atoms: C_4  and  C_36
    2  A    between atoms: N_7  and  C_29
    3  A    between atoms: C_8  and  C_33
    4  A    between atoms: C_10  and  N_57
    5  A    between atoms: C_13  and  C_16
    6  A    between atoms: C_13  and  C_52
    7  A    between atoms: C_15  and  C_52
    8  A    between atoms: C_15  and  N_64
    9  A    between atoms: C_17  and  C_25
   10  A    between atoms: C_18  and  C_27
   11  A    between atoms: C_21  and  C_38
   12  A    between atoms: C_21  and  N_58
   13  A    between atoms: C_22  and  C_23
   14  A    between atoms: C_29  and  C_32
   15  A    between atoms: C_33  and  C_42
   16  A    between atoms: C_34  and  C_46
   17  A    between atoms: C_34  and  C_51
   18  A    between atoms: C_38  and  C_51
   19  A    between atoms: C_46  and  C_53
                            x       y       z     vdW  Elec       q    Type
                         _______ _______ _______ _____ _____    ______ ____

>  <TORSDO>
F 19

$$$$
=
 OpenBabel11042409543D

 66 73  0  0  1  0  0  0  0  0999 V2000
  186.6790  178.2200  142.8240 C   0  0  2  0  0  3  0  0  0  0  0  0
  185.4660  178.5480  143.6770 C   0  0  0  0  0  0  0  0  0  0  0  0
  185.2410  178.8740  140.8730 C   0  0  0  0  0  3  0  0  0  0  0  0
  186.4470  178.5190  141.3440 C   0  0  0  0  0  0  0  0  0  0  0  0
  184.1640  178.8800  143.0570 C   0  0  0  0  0  0  0  0  0  0  0  0
  185.5850  178.5860  144.9330 O   0  0  0  0  0  0  0  0  0  0  0  0
  184.0790  179.0270  141.7420 C   0  0  0  0  0  3  0  0  0  0  0  0
  187.3440  178.2160  139.1010 C   0  0  0  0  0  3  0  0  0  0  0  0
  188.8250  178.9060  140.8070 O   0  0  0  0  0  1  0  0  0  0  0  0
  187.5570  178.5100  140.3850 C   0  0  0  0  0  0  0  0  0  0  0  0
  188.4360  178.2470  138.0880 C   0  0  0  0  0  2  0  0  0  0  0  0
  187.6780  174.7250  136.8960 C   0  0  0  0  0  3  0  0  0  0  0  0
  188.8300  174.4280  136.1580 C   0  0  0  0  0  3  0  0  0  0  0  0
  189.8620  175.3820  136.0420 C   0  0  0  0  0  0  0  0  0  0  0  0
  188.5850  176.9170  137.4290 C   0  0  0  0  0  0  0  0  0  0  0  0
  189.7380  176.6260  136.6830 C   0  0  0  0  0  3  0  0  0  0  0  0
  187.5510  175.9690  137.5280 C   0  0  0  0  0  3  0  0  0  0  0  0
  191.0680  175.1000  135.1870 C   0  0  0  0  0  2  0  0  0  0  0  0
  194.3910  174.5600  137.7710 C   0  0  0  0  0  0  0  0  0  0  0  0
  196.3830  172.6690  137.2130 C   0  0  0  0  0  0  0  0  0  0  0  0
  192.3270  175.1440  135.9470 N   0  0  0  0  0  0  0  0  0  0  0  0
  193.1620  173.9500  135.6390 C   0  0  1  0  0  3  0  0  0  0  0  0
  192.0410  175.1840  137.3890 C   0  0  0  0  0  2  0  0  0  0  0  0
  194.3600  173.8460  136.5540 C   0  0  0  0  0  0  0  0  0  0  0  0
  195.4470  174.3670  138.6640 C   0  0  0  0  0  3  0  0  0  0  0  0
  197.3920  171.6160  136.9510 C   0  0  0  0  0  1  0  0  0  0  0  0
  193.3250  175.5430  138.1130 C   0  0  0  0  0  2  0  0  0  0  0  0
  195.3480  172.8870  136.2920 C   0  0  0  0  0  3  0  0  0  0  0  0
  196.4370  173.4130  138.3930 C   0  0  0  0  0  3  0  0  0  0  0  0
  192.6150  171.7240  134.7540 C   0  0  0  0  0  2  0  0  0  0  0  0
  192.3850  172.6510  135.6840 C   0  0  0  0  0  3  0  0  0  0  0  0
  188.4530  176.4240  143.5460 C   0  0  1  0  0  3  0  0  0  0  0  0
  187.0970  176.7410  142.9940 C   0  0  2  0  0  3  0  0  0  0  0  0
  188.2150  176.5050  142.1630 O   0  0  0  0  0  0  0  0  0  0  0  0
  189.2740  177.6170  144.0440 C   0  0  1  0  0  3  0  0  0  0  0  0
  189.3290  177.5100  145.5630 C   0  0  0  0  0  2  0  0  0  0  0  0
  191.0760  176.5640  142.7500 O   0  0  0  0  0  1  0  0  0  0  0  0
  191.6120  177.6370  144.8000 C   0  0  0  0  0  2  0  0  0  0  0  0
  190.7290  177.3780  145.9090 N   0  0  0  0  0  0  0  0  0  0  0  0
  191.1630  176.5600  146.9870 C   0  0  0  0  0  3  0  0  0  0  0  0
  190.3550  176.1800  147.8760 O   0  0  0  0  0  0  0  0  0  0  0  0
  190.7360  177.6560  143.5550 C   0  0  2  0  0  3  0  0  0  0  0  0
  182.9820  179.2470  143.8960 C   0  0  0  0  0  2  0  0  0  0  0  0
  181.7430  178.5960  143.3060 C   0  0  0  0  0  2  0  0  0  0  0  0
  180.6390  179.6200  143.1460 C   0  0  0  0  0  2  0  0  0  0  0  0
  179.9890  179.4190  141.7860 C   0  0  0  0  0  2  0  0  0  0  0  0
  180.8860  179.9810  140.6930 C   0  0  0  0  0  2  0  0  0  0  0  0
  181.7190  179.4060  138.3820 C   0  0  0  0  0  1  0  0  0  0  0  0
  180.0980  177.9180  139.5330 C   0  0  0  0  0  0  0  0  0  0  0  0
  178.9320  177.8770  139.0700 O   0  0  0  0  0  0  0  0  0  0  0  0
  180.8280  179.1410  139.5020 N   0  0  0  0  0  0  0  0  0  0  0  0
  180.7800  176.6630  139.9870 C   0  0  1  0  0  3  0  0  0  0  0  0
  179.9510  175.9510  140.8580 O   0  0  0  0  0  1  0  0  0  0  0  0
  180.7680  176.1630  137.6000 O   0  0  0  0  0  1  0  0  0  0  0  0
  181.2640  175.7460  138.8480 C   0  0  1  0  0  3  0  0  0  0  0  0
  182.7910  175.6720  138.8460 C   0  0  0  0  0  2  0  0  0  0  0  0
  183.6570  175.1380  136.5550 C   0  0  0  0  0  0  0  0  0  0  0  0
  184.4530  175.4600  135.6250 O   0  0  0  0  0  0  0  0  0  0  0  0
  183.1400  173.8020  136.6330 N   0  0  0  0  0  2  0  0  0  0  0  0
  183.3280  176.0970  137.5600 N   0  0  0  0  0  2  0  0  0  0  0  0
  182.7040  171.5420  135.8830 C   0  0  1  0  0  3  0  0  0  0  0  0
  183.5460  172.7610  135.7030 C   0  0  1  0  0  0  0  0  0  0  0  0
  182.5870  172.3480  134.6020 C   0  0  0  0  0  2  0  0  0  0  0  0
  183.7140  170.4270  135.7290 C   0  0  0  0  0  2  0  0  0  0  0  0
  184.9780  172.2900  135.7370 C   0  0  0  0  0  2  0  0  0  0  0  0
  184.9940  170.9150  136.0460 O   0  0  0  0  0  0  0  0  0  0  0  0
  1  4  1  6  0  0  0
  1 33  1  0  0  0  0
  1  2  1  0  0  0  0
  2  6  2  0  0  0  0
  3  4  2  0  0  0  0
  3  7  1  0  0  0  0
  5  2  1  0  0  0  0
  5 43  1  0  0  0  0
  7  5  2  0  0  0  0
  8 10  2  0  0  0  0
 10  9  1  0  0  0  0
 10  4  1  0  0  0  0
 11  8  1  0  0  0  0
 12 17  1  0  0  0  0
 13 12  2  0  0  0  0
 14 13  1  0  0  0  0
 14 16  2  0  0  0  0
 15 17  2  0  0  0  0
 15 11  1  0  0  0  0
 16 15  1  0  0  0  0
 18 21  1  0  0  0  0
 18 14  1  0  0  0  0
 19 27  1  0  0  0  0
 19 25  1  0  0  0  0
 20 29  1  0  0  0  0
 21 23  1  0  0  0  0
 22 31  1  1  0  0  0
 22 21  1  0  0  0  0
 22 24  1  0  0  0  0
 23 27  1  0  0  0  0
 24 19  2  0  0  0  0
 26 20  1  0  0  0  0
 28 24  1  0  0  0  0
 28 20  2  0  0  0  0
 29 25  2  0  0  0  0
 30 31  2  0  0  0  0
 32 34  1  6  0  0  0
 32 35  1  0  0  0  0
 33 34  1  6  0  0  0
 33 32  1  0  0  0  0
 35 36  1  1  0  0  0
 36 39  1  0  0  0  0
 38 39  1  0  0  0  0
 39 40  1  0  0  0  0
 40 41  2  0  0  0  0
 42 37  1  6  0  0  0
 42 35  1  0  0  0  0
 42 38  1  0  0  0  0
 44 43  1  0  0  0  0
 45 44  1  0  0  0  0
 46 45  1  0  0  0  0
 47 46  1  0  0  0  0
 48 51  1  0  0  0  0
 49 52  1  0  0  0  0
 50 49  2  0  0  0  0
 51 49  1  0  0  0  0
 51 47  1  0  0  0  0
 52 53  1  1  0  0  0
 55 54  1  6  0  0  0
 55 52  1  0  0  0  0
 56 55  1  0  0  0  0
 57 59  1  0  0  0  0
 57 60  1  0  0  0  0
 58 57  2  0  0  0  0
 60 56  1  0  0  0  0
 61 63  1  6  0  0  0
 62 65  1  0  0  0  0
 62 61  1  0  0  0  0
 62 59  1  1  0  0  0
 63 62  1  0  0  0  0
 64 61  1  0  0  0  0
 64 66  1  0  0  0  0
 65 66  1  0  0  0  0
M  END
>  <MODEL>
4

>  <REMARK>
 VINA RESULT:      -8.0      2.596      9.340
  Name = 
  19 active torsions:
  status: ('A' for Active; 'I' for Inactive)
    1  A    between atoms: C_4  and  C_36
    2  A    between atoms: N_7  and  C_29
    3  A    between atoms: C_8  and  C_33
    4  A    between atoms: C_10  and  N_57
    5  A    between atoms: C_13  and  C_16
    6  A    between atoms: C_13  and  C_52
    7  A    between atoms: C_15  and  C_52
    8  A    between atoms: C_15  and  N_64
    9  A    between atoms: C_17  and  C_25
   10  A    between atoms: C_18  and  C_27
   11  A    between atoms: C_21  and  C_38
   12  A    between atoms: C_21  and  N_58
   13  A    between atoms: C_22  and  C_23
   14  A    between atoms: C_29  and  C_32
   15  A    between atoms: C_33  and  C_42
   16  A    between atoms: C_34  and  C_46
   17  A    between atoms: C_34  and  C_51
   18  A    between atoms: C_38  and  C_51
   19  A    between atoms: C_46  and  C_53
                            x       y       z     vdW  Elec       q    Type
                         _______ _______ _______ _____ _____    ______ ____

>  <TORSDO>
F 19

$$$$
=
 OpenBabel11042409543D

 66 73  0  0  1  0  0  0  0  0999 V2000
  187.3780  178.1020  142.3010 C   0  0  2  0  0  3  0  0  0  0  0  0
  186.1080  178.5100  143.0270 C   0  0  0  0  0  0  0  0  0  0  0  0
  186.1570  178.7510  140.2060 C   0  0  0  0  0  3  0  0  0  0  0  0
  187.2970  178.3610  140.7970 C   0  0  0  0  0  0  0  0  0  0  0  0
  184.8840  178.8750  142.2780 C   0  0  0  0  0  0  0  0  0  0  0  0
  186.1110  178.5840  144.2860 O   0  0  0  0  0  0  0  0  0  0  0  0
  184.9280  178.9820  140.9570 C   0  0  0  0  0  3  0  0  0  0  0  0
  188.3920  177.8710  138.6790 C   0  0  0  0  0  3  0  0  0  0  0  0
  189.7160  178.7070  140.4470 O   0  0  0  0  0  1  0  0  0  0  0  0
  188.4900  178.2740  139.9470 C   0  0  0  0  0  0  0  0  0  0  0  0
  189.5720  177.8190  137.7710 C   0  0  0  0  0  2  0  0  0  0  0  0
  189.0330  174.1270  137.0750 C   0  0  0  0  0  3  0  0  0  0  0  0
  190.0740  173.8600  136.1770 C   0  0  0  0  0  3  0  0  0  0  0  0
  190.9560  174.8880  135.7900 C   0  0  0  0  0  0  0  0  0  0  0  0
  189.7600  176.4430  137.2270 C   0  0  0  0  0  0  0  0  0  0  0  0
  190.8000  176.1800  136.3190 C   0  0  0  0  0  3  0  0  0  0  0  0
  188.8720  175.4180  137.5970 C   0  0  0  0  0  3  0  0  0  0  0  0
  192.0290  174.6270  134.7650 C   0  0  0  0  0  2  0  0  0  0  0  0
  195.4930  173.3230  136.8410 C   0  0  0  0  0  0  0  0  0  0  0  0
  197.1520  171.3200  135.7980 C   0  0  0  0  0  0  0  0  0  0  0  0
  193.3520  174.4110  135.3710 N   0  0  0  0  0  0  0  0  0  0  0  0
  193.9870  173.1880  134.8050 C   0  0  1  0  0  3  0  0  0  0  0  0
  193.2190  174.2660  136.8280 C   0  0  0  0  0  2  0  0  0  0  0  0
  195.2460  172.8090  135.5490 C   0  0  0  0  0  0  0  0  0  0  0  0
  196.5990  172.8770  137.5670 C   0  0  0  0  0  3  0  0  0  0  0  0
  197.9830  170.2080  135.2760 C   0  0  0  0  0  1  0  0  0  0  0  0
  194.6060  174.3600  137.4380 C   0  0  0  0  0  2  0  0  0  0  0  0
  196.0680  171.7920  135.0440 C   0  0  0  0  0  3  0  0  0  0  0  0
  197.4210  171.8660  137.0540 C   0  0  0  0  0  3  0  0  0  0  0  0
  193.0630  171.1280  135.7760 C   0  0  0  0  0  2  0  0  0  0  0  0
  193.0540  171.9960  134.7640 C   0  0  0  0  0  3  0  0  0  0  0  0
  188.9310  176.2620  143.3490 C   0  0  1  0  0  3  0  0  0  0  0  0
  187.7110  176.6140  142.5520 C   0  0  2  0  0  3  0  0  0  0  0  0
  188.9570  176.3360  141.9460 O   0  0  0  0  0  0  0  0  0  0  0  0
  189.6810  177.4360  143.9850 C   0  0  1  0  0  3  0  0  0  0  0  0
  189.1790  177.5520  145.4210 C   0  0  0  0  0  2  0  0  0  0  0  0
  191.6570  176.0410  143.5660 O   0  0  0  0  0  1  0  0  0  0  0  0
  191.5780  177.3530  145.5440 C   0  0  0  0  0  2  0  0  0  0  0  0
  190.3330  177.3450  146.2700 N   0  0  0  0  0  0  0  0  0  0  0  0
  190.2400  176.6610  147.5120 C   0  0  0  0  0  3  0  0  0  0  0  0
  189.1250  176.4930  148.0750 O   0  0  0  0  0  0  0  0  0  0  0  0
  191.2110  177.2670  144.0700 C   0  0  2  0  0  3  0  0  0  0  0  0
  183.6480  179.3190  142.9910 C   0  0  0  0  0  2  0  0  0  0  0  0
  182.4680  178.5150  142.4720 C   0  0  0  0  0  2  0  0  0  0  0  0
  181.1680  179.1150  142.9640 C   0  0  0  0  0  2  0  0  0  0  0  0
  180.1410  179.0200  141.8460 C   0  0  0  0  0  2  0  0  0  0  0  0
  180.6500  179.7490  140.6110 C   0  0  0  0  0  2  0  0  0  0  0  0
  182.0550  178.8280  138.7270 C   0  0  0  0  0  1  0  0  0  0  0  0
  179.9130  177.7310  139.3430 C   0  0  0  0  0  0  0  0  0  0  0  0
  178.9660  177.8280  138.5240 O   0  0  0  0  0  0  0  0  0  0  0  0
  180.8220  178.8170  139.5030 N   0  0  0  0  0  0  0  0  0  0  0  0
  180.1800  176.4350  140.0460 C   0  0  1  0  0  3  0  0  0  0  0  0
  179.0040  175.9490  140.6250 O   0  0  0  0  0  1  0  0  0  0  0  0
  180.4750  174.0560  139.6000 O   0  0  0  0  0  1  0  0  0  0  0  0
  180.8280  175.3480  139.1700 C   0  0  1  0  0  3  0  0  0  0  0  0
  180.4610  175.5680  137.7020 C   0  0  0  0  0  2  0  0  0  0  0  0
  182.1470  174.4610  136.2140 C   0  0  0  0  0  0  0  0  0  0  0  0
  182.3420  173.6830  135.2340 O   0  0  0  0  0  0  0  0  0  0  0  0
  183.1590  175.3990  136.6030 N   0  0  0  0  0  2  0  0  0  0  0  0
  180.8880  174.4380  136.8870 N   0  0  0  0  0  2  0  0  0  0  0  0
  185.4670  176.1140  136.7450 C   0  0  1  0  0  3  0  0  0  0  0  0
  184.4050  175.5420  135.8680 C   0  0  1  0  0  0  0  0  0  0  0  0
  185.5900  174.6800  136.2620 C   0  0  0  0  0  2  0  0  0  0  0  0
  186.1820  177.0620  135.8100 C   0  0  0  0  0  2  0  0  0  0  0  0
  184.4040  176.3760  134.6120 C   0  0  0  0  0  2  0  0  0  0  0  0
  185.3050  177.4470  134.7810 O   0  0  0  0  0  0  0  0  0  0  0  0
  1  4  1  6  0  0  0
  1 33  1  0  0  0  0
  1  2  1  0  0  0  0
  2  6  2  0  0  0  0
  3  4  2  0  0  0  0
  3  7  1  0  0  0  0
  5 43  1  0  0  0  0
  5  2  1  0  0  0  0
  7  5  2  0  0  0  0
  8 10  2  0  0  0  0
 10  9  1  0  0  0  0
 10  4  1  0  0  0  0
 11  8  1  0  0  0  0
 12 17  1  0  0  0  0
 13 12  2  0  0  0  0
 14 13  1  0  0  0  0
 14 16  2  0  0  0  0
 15 17  2  0  0  0  0
 15 11  1  0  0  0  0
 16 15  1  0  0  0  0
 18 21  1  0  0  0  0
 18 14  1  0  0  0  0
 19 27  1  0  0  0  0
 19 25  1  0  0  0  0
 20 29  1  0  0  0  0
 21 23  1  0  0  0  0
 22 31  1  1  0  0  0
 22 21  1  0  0  0  0
 22 24  1  0  0  0  0
 23 27  1  0  0  0  0
 24 19  2  0  0  0  0
 26 20  1  0  0  0  0
 28 24  1  0  0  0  0
 28 20  2  0  0  0  0
 29 25  2  0  0  0  0
 31 30  2  0  0  0  0
 32 34  1  6  0  0  0
 32 35  1  0  0  0  0
 33 34  1  6  0  0  0
 33 32  1  0  0  0  0
 35 42  1  0  0  0  0
 35 36  1  1  0  0  0
 36 39  1  0  0  0  0
 38 39  1  0  0  0  0
 39 40  1  0  0  0  0
 40 41  2  0  0  0  0
 42 37  1  1  0  0  0
 42 38  1  0  0  0  0
 44 45  1  0  0  0  0
 44 43  1  0  0  0  0
 46 45  1  0  0  0  0
 47 46  1  0  0  0  0
 48 51  1  0  0  0  0
 49 51  1  0  0  0  0
 49 52  1  0  0  0  0
 50 49  2  0  0  0  0
 51 47  1  0  0  0  0
 52 53  1  6  0  0  0
 55 54  1  1  0  0  0
 55 52  1  0  0  0  0
 56 55  1  0  0  0  0
 57 59  1  0  0  0  0
 57 60  1  0  0  0  0
 58 57  2  0  0  0  0
 60 56  1  0  0  0  0
 61 64  1  6  0  0  0
 62 63  1  0  0  0  0
 62 59  1  1  0  0  0
 62 61  1  0  0  0  0
 63 61  1  0  0  0  0
 65 66  1  0  0  0  0
 65 62  1  0  0  0  0
 66 64  1  0  0  0  0
M  END
>  <MODEL>
5

>  <REMARK>
 VINA RESULT:      -7.1      2.634      9.459
  Name = 
  19 active torsions:
  status: ('A' for Active; 'I' for Inactive)
    1  A    between atoms: C_4  and  C_36
    2  A    between atoms: N_7  and  C_29
    3  A    between atoms: C_8  and  C_33
    4  A    between atoms: C_10  and  N_57
    5  A    between atoms: C_13  and  C_16
    6  A    between atoms: C_13  and  C_52
    7  A    between atoms: C_15  and  C_52
    8  A    between atoms: C_15  and  N_64
    9  A    between atoms: C_17  and  C_25
   10  A    between atoms: C_18  and  C_27
   11  A    between atoms: C_21  and  C_38
   12  A    between atoms: C_21  and  N_58
   13  A    between atoms: C_22  and  C_23
   14  A    between atoms: C_29  and  C_32
   15  A    between atoms: C_33  and  C_42
   16  A    between atoms: C_34  and  C_46
   17  A    between atoms: C_34  and  C_51
   18  A    between atoms: C_38  and  C_51
   19  A    between atoms: C_46  and  C_53
                            x       y       z     vdW  Elec       q    Type
                         _______ _______ _______ _____ _____    ______ ____

>  <TORSDO>
F 19

$$$$
=
 OpenBabel11042409543D

 66 73  0  0  1  0  0  0  0  0999 V2000
  189.3340  177.1490  142.8390 C   0  0  2  0  0  3  0  0  0  0  0  0
  190.1450  176.6460  141.6580 C   0  0  0  0  0  0  0  0  0  0  0  0
  187.5990  177.7690  141.1340 C   0  0  0  0  0  3  0  0  0  0  0  0
  187.9520  177.6510  142.4230 C   0  0  0  0  0  0  0  0  0  0  0  0
  189.6900  176.8710  140.2670 C   0  0  0  0  0  0  0  0  0  0  0  0
  191.1980  175.9820  141.8680 O   0  0  0  0  0  0  0  0  0  0  0  0
  188.4950  177.3990  140.0420 C   0  0  0  0  0  3  0  0  0  0  0  0
  185.9240  178.7900  143.1420 C   0  0  0  0  0  3  0  0  0  0  0  0
  186.9360  177.2700  144.6400 O   0  0  0  0  0  1  0  0  0  0  0  0
  186.9200  177.9480  143.4230 C   0  0  0  0  0  0  0  0  0  0  0  0
  184.8310  179.0760  144.1130 C   0  0  0  0  0  2  0  0  0  0  0  0
  181.0690  179.0050  143.6130 C   0  0  0  0  0  3  0  0  0  0  0  0
  180.9770  178.6810  142.2540 C   0  0  0  0  0  3  0  0  0  0  0  0
  182.1460  178.4880  141.4910 C   0  0  0  0  0  0  0  0  0  0  0  0
  183.4950  178.9220  143.4660 C   0  0  0  0  0  0  0  0  0  0  0  0
  183.4060  178.6060  142.1010 C   0  0  0  0  0  3  0  0  0  0  0  0
  182.3260  179.1300  144.2200 C   0  0  0  0  0  3  0  0  0  0  0  0
  182.0560  178.2170  140.0120 C   0  0  0  0  0  2  0  0  0  0  0  0
  180.6050  174.5240  138.5050 C   0  0  0  0  0  0  0  0  0  0  0  0
  181.8440  173.2420  136.3430 C   0  0  0  0  0  0  0  0  0  0  0  0
  181.6990  176.8210  139.7110 N   0  0  0  0  0  0  0  0  0  0  0  0
  182.3140  176.3960  138.4240 C   0  0  1  0  0  3  0  0  0  0  0  0
  180.2370  176.6850  139.6250 C   0  0  0  0  0  2  0  0  0  0  0  0
  181.8020  175.0480  137.9710 C   0  0  0  0  0  0  0  0  0  0  0  0
  180.0780  173.3360  137.9970 C   0  0  0  0  0  3  0  0  0  0  0  0
  182.4580  172.6080  135.1520 C   0  0  0  0  0  1  0  0  0  0  0  0
  179.9030  175.2050  139.6290 C   0  0  0  0  0  2  0  0  0  0  0  0
  182.4030  174.4130  136.8760 C   0  0  0  0  0  3  0  0  0  0  0  0
  180.6880  172.7010  136.9080 C   0  0  0  0  0  3  0  0  0  0  0  0
  181.4120  177.0570  136.2360 C   0  0  0  0  0  2  0  0  0  0  0  0
  182.1240  177.4030  137.3090 C   0  0  0  0  0  3  0  0  0  0  0  0
  190.3890  178.0910  145.0510 C   0  0  1  0  0  3  0  0  0  0  0  0
  190.0860  178.2690  143.5940 C   0  0  2  0  0  3  0  0  0  0  0  0
  189.2340  178.7580  144.6110 O   0  0  0  0  0  0  0  0  0  0  0  0
  190.0520  176.7200  145.6460 C   0  0  1  0  0  3  0  0  0  0  0  0
  191.3770  176.0600  146.0090 C   0  0  0  0  0  2  0  0  0  0  0  0
  188.9220  178.0560  147.3690 O   0  0  0  0  0  1  0  0  0  0  0  0
  190.0380  176.0610  148.0140 C   0  0  0  0  0  2  0  0  0  0  0  0
  191.3420  175.8420  147.4400 N   0  0  0  0  0  0  0  0  0  0  0  0
  192.5040  175.9680  148.2490 C   0  0  0  0  0  3  0  0  0  0  0  0
  193.6540  175.9540  147.7350 O   0  0  0  0  0  0  0  0  0  0  0  0
  189.2130  176.7570  146.9400 C   0  0  2  0  0  3  0  0  0  0  0  0
  190.4660  176.3370  139.1060 C   0  0  0  0  0  2  0  0  0  0  0  0
  191.3780  177.4320  138.5820 C   0  0  0  0  0  2  0  0  0  0  0  0
  192.8160  177.1380  138.9520 C   0  0  0  0  0  2  0  0  0  0  0  0
  193.4770  176.4200  137.7860 C   0  0  0  0  0  2  0  0  0  0  0  0
  193.2690  174.9190  137.9150 C   0  0  0  0  0  2  0  0  0  0  0  0
  195.1710  173.3910  137.2700 C   0  0  0  0  0  1  0  0  0  0  0  0
  193.5030  174.0970  135.5710 C   0  0  0  0  0  0  0  0  0  0  0  0
  193.8970  174.8850  134.6770 O   0  0  0  0  0  0  0  0  0  0  0  0
  194.0270  174.2080  136.8910 N   0  0  0  0  0  0  0  0  0  0  0  0
  192.5960  172.9530  135.2300 C   0  0  1  0  0  3  0  0  0  0  0  0
  193.0630  171.7750  135.8180 O   0  0  0  0  0  1  0  0  0  0  0  0
  190.9690  173.6340  136.9140 O   0  0  0  0  0  1  0  0  0  0  0  0
  191.1160  173.1760  135.5930 C   0  0  1  0  0  3  0  0  0  0  0  0
  190.4680  174.1350  134.5940 C   0  0  0  0  0  2  0  0  0  0  0  0
  189.0830  175.9700  135.5930 C   0  0  0  0  0  0  0  0  0  0  0  0
  188.9170  177.2180  135.7200 O   0  0  0  0  0  0  0  0  0  0  0  0
  187.9910  175.0690  135.8210 N   0  0  0  0  0  2  0  0  0  0  0  0
  190.3500  175.4710  135.1610 N   0  0  0  0  0  2  0  0  0  0  0  0
  185.9040  175.8720  134.8950 C   0  0  1  0  0  3  0  0  0  0  0  0
  186.6540  175.5400  136.1410 C   0  0  1  0  0  0  0  0  0  0  0  0
  185.4630  174.6910  135.7400 C   0  0  0  0  0  2  0  0  0  0  0  0
  185.1600  177.1280  135.2900 C   0  0  0  0  0  2  0  0  0  0  0  0
  186.5150  176.7390  137.0460 C   0  0  0  0  0  2  0  0  0  0  0  0
  185.8460  177.7610  136.3410 O   0  0  0  0  0  0  0  0  0  0  0  0
  1  2  1  6  0  0  0
  1 33  1  0  0  0  0
  2  6  2  0  0  0  0
  3  4  2  0  0  0  0
  4  1  1  0  0  0  0
  4 10  1  0  0  0  0
  5  2  1  0  0  0  0
  7  5  2  0  0  0  0
  7  3  1  0  0  0  0
  8 10  2  0  0  0  0
  8 11  1  0  0  0  0
 10  9  1  0  0  0  0
 12 17  1  0  0  0  0
 13 12  2  0  0  0  0
 14 16  2  0  0  0  0
 14 13  1  0  0  0  0
 15 11  1  0  0  0  0
 15 17  2  0  0  0  0
 16 15  1  0  0  0  0
 18 14  1  0  0  0  0
 19 27  1  0  0  0  0
 20 28  2  0  0  0  0
 20 29  1  0  0  0  0
 21 18  1  0  0  0  0
 22 31  1  6  0  0  0
 22 21  1  0  0  0  0
 23 27  1  0  0  0  0
 23 21  1  0  0  0  0
 24 22  1  0  0  0  0
 24 19  2  0  0  0  0
 25 19  1  0  0  0  0
 26 20  1  0  0  0  0
 28 24  1  0  0  0  0
 29 25  2  0  0  0  0
 30 31  2  0  0  0  0
 32 34  1  1  0  0  0
 32 35  1  0  0  0  0
 33 34  1  1  0  0  0
 33 32  1  0  0  0  0
 35 36  1  1  0  0  0
 35 42  1  0  0  0  0
 36 39  1  0  0  0  0
 39 38  1  0  0  0  0
 39 40  1  0  0  0  0
 41 40  2  0  0  0  0
 42 37  1  1  0  0  0
 42 38  1  0  0  0  0
 43  5  1  0  0  0  0
 44 45  1  0  0  0  0
 44 43  1  0  0  0  0
 46 47  1  0  0  0  0
 46 45  1  0  0  0  0
 49 51  1  0  0  0  0
 50 49  2  0  0  0  0
 51 48  1  0  0  0  0
 51 47  1  0  0  0  0
 52 49  1  0  0  0  0
 52 55  1  0  0  0  0
 52 53  1  1  0  0  0
 55 54  1  1  0  0  0
 56 60  1  0  0  0  0
 56 55  1  0  0  0  0
 57 58  2  0  0  0  0
 57 59  1  0  0  0  0
 60 57  1  0  0  0  0
 61 64  1  1  0  0  0
 61 63  1  0  0  0  0
 61 62  1  0  0  0  0
 62 59  1  6  0  0  0
 62 65  1  0  0  0  0
 63 62  1  0  0  0  0
 64 66  1  0  0  0  0
 66 65  1  0  0  0  0
M  END
>  <MODEL>
6

>  <REMARK>
 VINA RESULT:      -6.8      2.668      8.505
  Name = 
  19 active torsions:
  status: ('A' for Active; 'I' for Inactive)
    1  A    between atoms: C_4  and  C_36
    2  A    between atoms: N_7  and  C_29
    3  A    between atoms: C_8  and  C_33
    4  A    between atoms: C_10  and  N_57
    5  A    between atoms: C_13  and  C_16
    6  A    between atoms: C_13  and  C_52
    7  A    between atoms: C_15  and  C_52
    8  A    between atoms: C_15  and  N_64
    9  A    between atoms: C_17  and  C_25
   10  A    between atoms: C_18  and  C_27
   11  A    between atoms: C_21  and  C_38
   12  A    between atoms: C_21  and  N_58
   13  A    between atoms: C_22  and  C_23
   14  A    between atoms: C_29  and  C_32
   15  A    between atoms: C_33  and  C_42
   16  A    between atoms: C_34  and  C_46
   17  A    between atoms: C_34  and  C_51
   18  A    between atoms: C_38  and  C_51
   19  A    between atoms: C_46  and  C_53
                            x       y       z     vdW  Elec       q    Type
                         _______ _______ _______ _____ _____    ______ ____

>  <TORSDO>
F 19

$$$$
=
 OpenBabel11042409543D

 66 73  0  0  1  0  0  0  0  0999 V2000
  189.2060  177.4550  142.2640 C   0  0  2  0  0  3  0  0  0  0  0  0
  187.7910  178.0060  142.3070 C   0  0  0  0  0  0  0  0  0  0  0  0
  189.0660  177.8210  139.7850 C   0  0  0  0  0  3  0  0  0  0  0  0
  189.8010  177.4890  140.8570 C   0  0  0  0  0  0  0  0  0  0  0  0
  187.0460  178.2940  141.0600 C   0  0  0  0  0  0  0  0  0  0  0  0
  187.2630  178.2670  143.4220 O   0  0  0  0  0  0  0  0  0  0  0  0
  187.6610  178.2010  139.8890 C   0  0  0  0  0  3  0  0  0  0  0  0
  191.7110  177.1240  139.3920 C   0  0  0  0  0  3  0  0  0  0  0  0
  192.0970  177.2130  141.7200 O   0  0  0  0  0  1  0  0  0  0  0  0
  191.2290  177.2380  140.6310 C   0  0  0  0  0  0  0  0  0  0  0  0
  193.1620  176.9200  139.1220 C   0  0  0  0  0  2  0  0  0  0  0  0
  194.5460  174.0220  137.1000 C   0  0  0  0  0  3  0  0  0  0  0  0
  193.7200  174.0530  135.9700 C   0  0  0  0  0  3  0  0  0  0  0  0
  192.7010  175.0210  135.8640 C   0  0  0  0  0  0  0  0  0  0  0  0
  193.3610  175.9370  138.0180 C   0  0  0  0  0  0  0  0  0  0  0  0
  192.5260  175.9660  136.8890 C   0  0  0  0  0  3  0  0  0  0  0  0
  194.3660  174.9590  138.1270 C   0  0  0  0  0  3  0  0  0  0  0  0
  191.7600  175.0120  134.6890 C   0  0  0  0  0  2  0  0  0  0  0  0
  187.8780  174.3290  136.2630 C   0  0  0  0  0  0  0  0  0  0  0  0
  185.6670  175.8130  135.3900 C   0  0  0  0  0  0  0  0  0  0  0  0
  190.4080  174.5550  135.0470 N   0  0  0  0  0  0  0  0  0  0  0  0
  189.3960  175.5760  134.6590 C   0  0  1  0  0  3  0  0  0  0  0  0
  190.3280  174.3120  136.4950 C   0  0  0  0  0  2  0  0  0  0  0  0
  188.0240  175.2460  135.1990 C   0  0  0  0  0  0  0  0  0  0  0  0
  186.6210  174.1190  136.8320 C   0  0  0  0  0  3  0  0  0  0  0  0
  184.5160  176.6520  134.9790 C   0  0  0  0  0  1  0  0  0  0  0  0
  189.0430  173.5540  136.7740 C   0  0  0  0  0  2  0  0  0  0  0  0
  186.9170  176.0000  134.7830 C   0  0  0  0  0  3  0  0  0  0  0  0
  185.5170  174.8690  136.4070 C   0  0  0  0  0  3  0  0  0  0  0  0
  189.2400  177.4920  136.1900 C   0  0  0  0  0  2  0  0  0  0  0  0
  189.7730  176.9820  135.0790 C   0  0  0  0  0  3  0  0  0  0  0  0
  190.0280  175.7340  144.0700 C   0  0  1  0  0  3  0  0  0  0  0  0
  189.2590  176.0110  142.8130 C   0  0  2  0  0  3  0  0  0  0  0  0
  190.6060  175.5860  142.7980 O   0  0  0  0  0  0  0  0  0  0  0  0
  190.5870  176.9590  144.7990 C   0  0  1  0  0  3  0  0  0  0  0  0
  189.4690  177.4880  145.6910 C   0  0  0  0  0  2  0  0  0  0  0  0
  192.1500  175.3270  145.7610 O   0  0  0  0  0  1  0  0  0  0  0  0
  191.3700  177.1080  147.1240 C   0  0  0  0  0  2  0  0  0  0  0  0
  189.9610  177.4030  147.0500 N   0  0  0  0  0  0  0  0  0  0  0  0
  189.1090  177.0750  148.1390 C   0  0  0  0  0  3  0  0  0  0  0  0
  187.8570  177.1620  148.0290 O   0  0  0  0  0  0  0  0  0  0  0  0
  191.7880  176.6770  145.7250 C   0  0  2  0  0  3  0  0  0  0  0  0
  185.6710  178.8780  141.1020 C   0  0  0  0  0  2  0  0  0  0  0  0
  185.0380  178.7380  139.7290 C   0  0  0  0  0  2  0  0  0  0  0  0
  183.5280  178.7370  139.8450 C   0  0  0  0  0  2  0  0  0  0  0  0
  182.9660  179.7080  138.8190 C   0  0  0  0  0  2  0  0  0  0  0  0
  181.8510  180.5350  139.4420 C   0  0  0  0  0  2  0  0  0  0  0  0
  181.8710  182.5920  137.9800 C   0  0  0  0  0  1  0  0  0  0  0  0
  180.0920  180.8800  137.7070 C   0  0  0  0  0  0  0  0  0  0  0  0
  178.9310  181.2020  138.0610 O   0  0  0  0  0  0  0  0  0  0  0  0
  181.2130  181.3740  138.4340 N   0  0  0  0  0  0  0  0  0  0  0  0
  180.3130  180.1000  136.4470 C   0  0  1  0  0  3  0  0  0  0  0  0
  181.5280  180.4650  135.8610 O   0  0  0  0  0  1  0  0  0  0  0  0
  178.9800  178.1570  137.0720 O   0  0  0  0  0  1  0  0  0  0  0  0
  180.2440  178.5720  136.6160 C   0  0  1  0  0  3  0  0  0  0  0  0
  180.6200  177.8800  135.3050 C   0  0  0  0  0  2  0  0  0  0  0  0
  179.8420  175.5000  135.4240 C   0  0  0  0  0  0  0  0  0  0  0  0
  179.2380  174.5550  134.8370 O   0  0  0  0  0  0  0  0  0  0  0  0
  180.7560  175.2170  136.4920 N   0  0  0  0  0  2  0  0  0  0  0  0
  179.6540  176.8410  134.9730 N   0  0  0  0  0  2  0  0  0  0  0  0
  181.9720  173.2080  135.9040 C   0  0  1  0  0  3  0  0  0  0  0  0
  181.0720  173.8590  136.9010 C   0  0  1  0  0  0  0  0  0  0  0  0
  182.5000  173.5250  137.2920 C   0  0  0  0  0  2  0  0  0  0  0  0
  181.4220  171.8010  135.8430 C   0  0  0  0  0  2  0  0  0  0  0  0
  179.9330  172.8960  137.1290 C   0  0  0  0  0  2  0  0  0  0  0  0
  180.0730  171.8130  136.2370 O   0  0  0  0  0  0  0  0  0  0  0  0
  1  4  1  6  0  0  0
  1  2  1  0  0  0  0
  1 33  1  0  0  0  0
  2  6  2  0  0  0  0
  3  7  1  0  0  0  0
  3  4  2  0  0  0  0
  5 43  1  0  0  0  0
  5  2  1  0  0  0  0
  7  5  2  0  0  0  0
  8 10  2  0  0  0  0
 10  4  1  0  0  0  0
 10  9  1  0  0  0  0
 11  8  1  0  0  0  0
 12 17  1  0  0  0  0
 13 12  2  0  0  0  0
 14 13  1  0  0  0  0
 14 16  2  0  0  0  0
 15 17  2  0  0  0  0
 15 11  1  0  0  0  0
 16 15  1  0  0  0  0
 18 21  1  0  0  0  0
 18 14  1  0  0  0  0
 19 27  1  0  0  0  0
 19 25  1  0  0  0  0
 20 29  1  0  0  0  0
 21 23  1  0  0  0  0
 22 21  1  0  0  0  0
 22 31  1  1  0  0  0
 22 24  1  0  0  0  0
 23 27  1  0  0  0  0
 24 19  2  0  0  0  0
 26 20  1  0  0  0  0
 28 24  1  0  0  0  0
 28 20  2  0  0  0  0
 29 25  2  0  0  0  0
 31 30  2  0  0  0  0
 32 34  1  6  0  0  0
 32 35  1  0  0  0  0
 33 34  1  6  0  0  0
 33 32  1  0  0  0  0
 35 36  1  1  0  0  0
 35 42  1  0  0  0  0
 36 39  1  0  0  0  0
 39 38  1  0  0  0  0
 39 40  1  0  0  0  0
 41 40  2  0  0  0  0
 42 37  1  1  0  0  0
 42 38  1  0  0  0  0
 44 45  1  0  0  0  0
 44 43  1  0  0  0  0
 46 47  1  0  0  0  0
 46 45  1  0  0  0  0
 48 51  1  0  0  0  0
 49 50  2  0  0  0  0
 49 51  1  0  0  0  0
 51 47  1  0  0  0  0
 52 53  1  1  0  0  0
 52 55  1  0  0  0  0
 52 49  1  0  0  0  0
 55 54  1  6  0  0  0
 56 55  1  0  0  0  0
 57 59  1  0  0  0  0
 58 57  2  0  0  0  0
 60 56  1  0  0  0  0
 60 57  1  0  0  0  0
 61 64  1  1  0  0  0
 61 62  1  0  0  0  0
 61 63  1  0  0  0  0
 62 59  1  6  0  0  0
 62 65  1  0  0  0  0
 62 63  1  0  0  0  0
 64 66  1  0  0  0  0
 66 65  1  0  0  0  0
M  END
>  <MODEL>
7

>  <REMARK>
 VINA RESULT:      -6.4      2.705      8.184
  Name = 
  19 active torsions:
  status: ('A' for Active; 'I' for Inactive)
    1  A    between atoms: C_4  and  C_36
    2  A    between atoms: N_7  and  C_29
    3  A    between atoms: C_8  and  C_33
    4  A    between atoms: C_10  and  N_57
    5  A    between atoms: C_13  and  C_16
    6  A    between atoms: C_13  and  C_52
    7  A    between atoms: C_15  and  C_52
    8  A    between atoms: C_15  and  N_64
    9  A    between atoms: C_17  and  C_25
   10  A    between atoms: C_18  and  C_27
   11  A    between atoms: C_21  and  C_38
   12  A    between atoms: C_21  and  N_58
   13  A    between atoms: C_22  and  C_23
   14  A    between atoms: C_29  and  C_32
   15  A    between atoms: C_33  and  C_42
   16  A    between atoms: C_34  and  C_46
   17  A    between atoms: C_34  and  C_51
   18  A    between atoms: C_38  and  C_51
   19  A    between atoms: C_46  and  C_53
                            x       y       z     vdW  Elec       q    Type
                         _______ _______ _______ _____ _____    ______ ____

>  <TORSDO>
F 19

$$$$
=
 OpenBabel11042409543D

 66 73  0  0  1  0  0  0  0  0999 V2000
  189.1980  177.5000  141.7020 C   0  0  2  0  0  3  0  0  0  0  0  0
  187.7950  178.0830  141.6940 C   0  0  0  0  0  0  0  0  0  0  0  0
  189.1400  177.8350  139.2150 C   0  0  0  0  0  3  0  0  0  0  0  0
  189.8350  177.5010  140.3140 C   0  0  0  0  0  0  0  0  0  0  0  0
  187.0940  178.3710  140.4220 C   0  0  0  0  0  0  0  0  0  0  0  0
  187.2390  178.3720  142.7900 O   0  0  0  0  0  0  0  0  0  0  0  0
  187.7420  178.2470  139.2710 C   0  0  0  0  0  3  0  0  0  0  0  0
  191.7240  176.7620  138.9660 C   0  0  0  0  0  3  0  0  0  0  0  0
  192.1520  177.5100  141.1660 O   0  0  0  0  0  1  0  0  0  0  0  0
  191.2630  177.2150  140.1340 C   0  0  0  0  0  0  0  0  0  0  0  0
  193.1730  176.5090  138.7310 C   0  0  0  0  0  2  0  0  0  0  0  0
  194.5730  173.4370  136.9970 C   0  0  0  0  0  3  0  0  0  0  0  0
  193.7080  173.3190  135.9030 C   0  0  0  0  0  3  0  0  0  0  0  0
  192.6580  174.2420  135.7270 C   0  0  0  0  0  0  0  0  0  0  0  0
  193.3640  175.4130  137.7370 C   0  0  0  0  0  0  0  0  0  0  0  0
  192.4890  175.2920  136.6450 C   0  0  0  0  0  3  0  0  0  0  0  0
  194.4000  174.4800  137.9180 C   0  0  0  0  0  3  0  0  0  0  0  0
  191.6770  174.0760  134.5960 C   0  0  0  0  0  2  0  0  0  0  0  0
  187.8870  174.0250  136.5040 C   0  0  0  0  0  0  0  0  0  0  0  0
  185.9130  175.9140  135.8790 C   0  0  0  0  0  0  0  0  0  0  0  0
  190.3010  173.8510  135.0660 N   0  0  0  0  0  0  0  0  0  0  0  0
  189.4600  175.0510  134.8000 C   0  0  1  0  0  3  0  0  0  0  0  0
  190.3040  173.5630  136.5080 C   0  0  0  0  0  2  0  0  0  0  0  0
  188.1030  174.9460  135.4560 C   0  0  0  0  0  0  0  0  0  0  0  0
  186.6660  174.0170  137.1820 C   0  0  0  0  0  3  0  0  0  0  0  0
  184.9010  176.9600  135.5990 C   0  0  0  0  0  1  0  0  0  0  0  0
  188.9330  173.0350  136.8840 C   0  0  0  0  0  2  0  0  0  0  0  0
  187.1190  175.9010  135.1650 C   0  0  0  0  0  3  0  0  0  0  0  0
  185.6840  174.9680  136.8810 C   0  0  0  0  0  3  0  0  0  0  0  0
  189.5450  177.5040  134.8930 C   0  0  0  0  0  2  0  0  0  0  0  0
  190.1200  176.3470  135.2210 C   0  0  0  0  0  3  0  0  0  0  0  0
  189.8730  175.7990  143.5850 C   0  0  1  0  0  3  0  0  0  0  0  0
  189.2000  176.0630  142.2720 C   0  0  2  0  0  3  0  0  0  0  0  0
  190.5430  175.6310  142.3610 O   0  0  0  0  0  0  0  0  0  0  0  0
  190.3840  177.0300  144.3390 C   0  0  1  0  0  3  0  0  0  0  0  0
  189.2850  177.4360  145.3150 C   0  0  0  0  0  2  0  0  0  0  0  0
  192.1150  175.4800  145.1340 O   0  0  0  0  0  1  0  0  0  0  0  0
  191.2900  177.1390  146.6210 C   0  0  0  0  0  2  0  0  0  0  0  0
  189.8620  177.3300  146.6390 N   0  0  0  0  0  0  0  0  0  0  0  0
  189.1010  176.8930  147.7570 C   0  0  0  0  0  3  0  0  0  0  0  0
  187.8420  176.8900  147.7210 O   0  0  0  0  0  0  0  0  0  0  0  0
  191.6550  176.8000  145.1820 C   0  0  2  0  0  3  0  0  0  0  0  0
  185.7320  178.9860  140.4150 C   0  0  0  0  0  2  0  0  0  0  0  0
  185.0400  178.6270  139.1120 C   0  0  0  0  0  2  0  0  0  0  0  0
  183.5570  178.9130  139.2100 C   0  0  0  0  0  2  0  0  0  0  0  0
  183.0300  179.2040  137.8130 C   0  0  0  0  0  2  0  0  0  0  0  0
  182.0010  180.3240  137.8690 C   0  0  0  0  0  2  0  0  0  0  0  0
  180.2300  178.8150  136.8910 C   0  0  0  0  0  1  0  0  0  0  0  0
  179.8360  179.9660  139.0560 C   0  0  0  0  0  0  0  0  0  0  0  0
  178.9790  180.8840  139.0670 O   0  0  0  0  0  0  0  0  0  0  0  0
  180.6500  179.7750  137.9020 N   0  0  0  0  0  0  0  0  0  0  0  0
  179.9130  178.9840  140.1850 C   0  0  1  0  0  3  0  0  0  0  0  0
  180.2820  177.7250  139.7070 O   0  0  0  0  0  1  0  0  0  0  0  0
  180.4060  180.5980  141.9450 O   0  0  0  0  0  1  0  0  0  0  0  0
  180.8390  179.4040  141.3410 C   0  0  1  0  0  3  0  0  0  0  0  0
  180.9540  178.2720  142.3620 C   0  0  0  0  0  2  0  0  0  0  0  0
  182.2040  178.9200  144.4360 C   0  0  0  0  0  0  0  0  0  0  0  0
  182.1820  179.0080  145.6980 O   0  0  0  0  0  0  0  0  0  0  0  0
  183.4550  178.8810  143.7360 N   0  0  0  0  0  2  0  0  0  0  0  0
  180.9740  178.7990  143.7200 N   0  0  0  0  0  2  0  0  0  0  0  0
  184.6740  177.9780  145.6220 C   0  0  1  0  0  3  0  0  0  0  0  0
  184.7300  178.8770  144.4330 C   0  0  1  0  0  0  0  0  0  0  0  0
  185.5540  177.6030  144.4430 C   0  0  0  0  0  2  0  0  0  0  0  0
  185.4560  178.7580  146.6540 C   0  0  0  0  0  2  0  0  0  0  0  0
  185.2810  180.1910  144.9260 C   0  0  0  0  0  2  0  0  0  0  0  0
  185.4180  180.1250  146.3280 O   0  0  0  0  0  0  0  0  0  0  0  0
  1  4  1  6  0  0  0
  1 33  1  0  0  0  0
  2  1  1  0  0  0  0
  2  6  2  0  0  0  0
  3  7  1  0  0  0  0
  3  4  2  0  0  0  0
  5  2  1  0  0  0  0
  7  5  2  0  0  0  0
  8 10  2  0  0  0  0
 10  4  1  0  0  0  0
 10  9  1  0  0  0  0
 11  8  1  0  0  0  0
 12 17  1  0  0  0  0
 13 12  2  0  0  0  0
 14 13  1  0  0  0  0
 14 16  2  0  0  0  0
 15 17  2  0  0  0  0
 15 11  1  0  0  0  0
 16 15  1  0  0  0  0
 18 21  1  0  0  0  0
 18 14  1  0  0  0  0
 19 27  1  0  0  0  0
 19 25  1  0  0  0  0
 20 29  1  0  0  0  0
 21 23  1  0  0  0  0
 22 21  1  0  0  0  0
 22 31  1  1  0  0  0
 22 24  1  0  0  0  0
 23 27  1  0  0  0  0
 24 19  2  0  0  0  0
 26 20  1  0  0  0  0
 28 24  1  0  0  0  0
 28 20  2  0  0  0  0
 29 25  2  0  0  0  0
 30 31  2  0  0  0  0
 32 34  1  6  0  0  0
 32 35  1  0  0  0  0
 33 34  1  6  0  0  0
 33 32  1  0  0  0  0
 35 42  1  0  0  0  0
 35 36  1  1  0  0  0
 36 39  1  0  0  0  0
 38 39  1  0  0  0  0
 39 40  1  0  0  0  0
 41 40  2  0  0  0  0
 42 37  1  1  0  0  0
 42 38  1  0  0  0  0
 43  5  1  0  0  0  0
 44 45  1  0  0  0  0
 44 43  1  0  0  0  0
 46 47  1  0  0  0  0
 46 45  1  0  0  0  0
 47 51  1  0  0  0  0
 48 51  1  0  0  0  0
 49 50  2  0  0  0  0
 49 52  1  0  0  0  0
 51 49  1  0  0  0  0
 52 53  1  6  0  0  0
 52 55  1  0  0  0  0
 55 54  1  1  0  0  0
 55 56  1  0  0  0  0
 56 60  1  0  0  0  0
 57 58  2  0  0  0  0
 59 57  1  0  0  0  0
 60 57  1  0  0  0  0
 61 63  1  6  0  0  0
 61 64  1  0  0  0  0
 62 59  1  6  0  0  0
 62 63  1  0  0  0  0
 62 65  1  0  0  0  0
 62 61  1  0  0  0  0
 65 66  1  0  0  0  0
 66 64  1  0  0  0  0
M  END
>  <MODEL>
8

>  <REMARK>
 VINA RESULT:      -6.3      3.225      8.501
  Name = 
  19 active torsions:
  status: ('A' for Active; 'I' for Inactive)
    1  A    between atoms: C_4  and  C_36
    2  A    between atoms: N_7  and  C_29
    3  A    between atoms: C_8  and  C_33
    4  A    between atoms: C_10  and  N_57
    5  A    between atoms: C_13  and  C_16
    6  A    between atoms: C_13  and  C_52
    7  A    between atoms: C_15  and  C_52
    8  A    between atoms: C_15  and  N_64
    9  A    between atoms: C_17  and  C_25
   10  A    between atoms: C_18  and  C_27
   11  A    between atoms: C_21  and  C_38
   12  A    between atoms: C_21  and  N_58
   13  A    between atoms: C_22  and  C_23
   14  A    between atoms: C_29  and  C_32
   15  A    between atoms: C_33  and  C_42
   16  A    between atoms: C_34  and  C_46
   17  A    between atoms: C_34  and  C_51
   18  A    between atoms: C_38  and  C_51
   19  A    between atoms: C_46  and  C_53
                            x       y       z     vdW  Elec       q    Type
                         _______ _______ _______ _____ _____    ______ ____

>  <TORSDO>
F 19

$$$$
=
 OpenBabel11042409543D

 66 73  0  0  1  0  0  0  0  0999 V2000
  183.4090  176.9280  137.8880 C   0  0  2  0  0  3  0  0  0  0  0  0
  183.2240  177.4730  139.2930 C   0  0  0  0  0  0  0  0  0  0  0  0
  185.5610  178.2210  137.8810 C   0  0  0  0  0  3  0  0  0  0  0  0
  184.7470  177.3420  137.2760 C   0  0  0  0  0  0  0  0  0  0  0  0
  184.1540  178.4810  139.8510 C   0  0  0  0  0  0  0  0  0  0  0  0
  182.2900  177.0220  140.0130 O   0  0  0  0  0  0  0  0  0  0  0  0
  185.2430  178.8180  139.1730 C   0  0  0  0  0  3  0  0  0  0  0  0
  185.1850  175.4070  135.8650 C   0  0  0  0  0  3  0  0  0  0  0  0
  185.6670  177.5500  134.9950 O   0  0  0  0  0  1  0  0  0  0  0  0
  185.2360  176.7290  136.0350 C   0  0  0  0  0  0  0  0  0  0  0  0
  185.6240  174.7540  134.6000 C   0  0  0  0  0  2  0  0  0  0  0  0
  186.2080  171.1120  135.4940 C   0  0  0  0  0  3  0  0  0  0  0  0
  187.5990  171.0180  135.3760 C   0  0  0  0  0  3  0  0  0  0  0  0
  188.3560  172.1450  134.9970 C   0  0  0  0  0  0  0  0  0  0  0  0
  186.3170  173.4630  134.8830 C   0  0  0  0  0  0  0  0  0  0  0  0
  187.7120  173.3700  134.7540 C   0  0  0  0  0  3  0  0  0  0  0  0
  185.5640  172.3320  135.2440 C   0  0  0  0  0  3  0  0  0  0  0  0
  189.8440  172.0310  134.7920 C   0  0  0  0  0  2  0  0  0  0  0  0
  192.2280  175.1700  136.3650 C   0  0  0  0  0  0  0  0  0  0  0  0
  194.9640  175.3530  135.7900 C   0  0  0  0  0  0  0  0  0  0  0  0
  190.5590  173.2740  135.1190 N   0  0  0  0  0  0  0  0  0  0  0  0
  192.0240  173.0970  134.9190 C   0  0  1  0  0  3  0  0  0  0  0  0
  190.2980  173.6500  136.5170 C   0  0  0  0  0  2  0  0  0  0  0  0
  192.8130  174.2730  135.4450 C   0  0  0  0  0  0  0  0  0  0  0  0
  192.9990  176.1840  136.9350 C   0  0  0  0  0  3  0  0  0  0  0  0
  196.4250  175.4010  135.5440 C   0  0  0  0  0  1  0  0  0  0  0  0
  190.7840  175.0730  136.7190 C   0  0  0  0  0  2  0  0  0  0  0  0
  194.1870  174.3580  135.1800 C   0  0  0  0  0  3  0  0  0  0  0  0
  194.3700  176.2690  136.6600 C   0  0  0  0  0  3  0  0  0  0  0  0
  193.3420  171.0270  134.7980 C   0  0  0  0  0  2  0  0  0  0  0  0
  192.5610  171.8200  135.5320 C   0  0  0  0  0  3  0  0  0  0  0  0
  181.4820  176.3370  136.2050 C   0  0  1  0  0  3  0  0  0  0  0  0
  182.2560  177.3750  136.9600 C   0  0  2  0  0  3  0  0  0  0  0  0
  182.5860  176.9960  135.6390 O   0  0  0  0  0  0  0  0  0  0  0  0
  181.8100  174.8780  136.5380 C   0  0  1  0  0  3  0  0  0  0  0  0
  181.2400  174.6040  137.9250 C   0  0  0  0  0  2  0  0  0  0  0  0
  180.3870  174.4050  134.5940 O   0  0  0  0  0  1  0  0  0  0  0  0
  180.3110  172.9330  136.4560 C   0  0  0  0  0  2  0  0  0  0  0  0
  180.2620  173.5480  137.7580 N   0  0  0  0  0  0  0  0  0  0  0  0
  179.0620  173.5090  138.5180 C   0  0  0  0  0  3  0  0  0  0  0  0
  178.9430  174.1850  139.5750 O   0  0  0  0  0  0  0  0  0  0  0  0
  181.1820  173.8340  135.5920 C   0  0  2  0  0  3  0  0  0  0  0  0
  183.9970  178.9830  141.2500 C   0  0  0  0  0  2  0  0  0  0  0  0
  185.3610  179.3950  141.7770 C   0  0  0  0  0  2  0  0  0  0  0  0
  185.2770  179.7100  143.2560 C   0  0  0  0  0  2  0  0  0  0  0  0
  184.0830  178.9710  143.8380 C   0  0  0  0  0  2  0  0  0  0  0  0
  184.1540  178.9850  145.3580 C   0  0  0  0  0  2  0  0  0  0  0  0
  186.0360  177.3770  144.8700 C   0  0  0  0  0  1  0  0  0  0  0  0
  185.7020  178.2510  147.1710 C   0  0  0  0  0  0  0  0  0  0  0  0
  185.2970  177.4380  148.0380 O   0  0  0  0  0  0  0  0  0  0  0  0
  185.2440  178.1370  145.8270 N   0  0  0  0  0  0  0  0  0  0  0  0
  186.7690  179.2490  147.5050 C   0  0  1  0  0  3  0  0  0  0  0  0
  186.2870  180.1840  148.4240 O   0  0  0  0  0  1  0  0  0  0  0  0
  188.1390  178.6150  149.4200 O   0  0  0  0  0  1  0  0  0  0  0  0
  188.0870  178.6360  148.0150 C   0  0  1  0  0  3  0  0  0  0  0  0
  188.2780  177.2380  147.4270 C   0  0  0  0  0  2  0  0  0  0  0  0
  190.4910  176.7620  146.3500 C   0  0  0  0  0  0  0  0  0  0  0  0
  191.5450  176.0620  146.3660 O   0  0  0  0  0  0  0  0  0  0  0  0
  190.0920  177.4370  145.1500 N   0  0  0  0  0  2  0  0  0  0  0  0
  189.6720  176.8250  147.5180 N   0  0  0  0  0  2  0  0  0  0  0  0
  190.2860  178.2300  142.8700 C   0  0  1  0  0  3  0  0  0  0  0  0
  190.8280  177.3000  143.9040 C   0  0  1  0  0  0  0  0  0  0  0  0
  191.6800  178.4610  143.4260 C   0  0  0  0  0  2  0  0  0  0  0  0
  190.3370  177.3840  141.6180 C   0  0  0  0  0  2  0  0  0  0  0  0
  190.8890  175.9400  143.2540 C   0  0  0  0  0  2  0  0  0  0  0  0
  190.3040  176.0250  141.9750 O   0  0  0  0  0  0  0  0  0  0  0  0
  1  4  1  6  0  0  0
  1  2  1  0  0  0  0
  2  5  1  0  0  0  0
  2  6  2  0  0  0  0
  3  7  1  0  0  0  0
  4  3  2  0  0  0  0
  5 43  1  0  0  0  0
  7  5  2  0  0  0  0
  8 10  2  0  0  0  0
  9 10  1  0  0  0  0
 10  4  1  0  0  0  0
 11 15  1  0  0  0  0
 11  8  1  0  0  0  0
 13 12  1  0  0  0  0
 14 13  2  0  0  0  0
 15 17  1  0  0  0  0
 16 15  2  0  0  0  0
 16 14  1  0  0  0  0
 17 12  2  0  0  0  0
 18 14  1  0  0  0  0
 18 21  1  0  0  0  0
 19 27  1  0  0  0  0
 19 25  1  0  0  0  0
 20 29  1  0  0  0  0
 21 23  1  0  0  0  0
 22 21  1  0  0  0  0
 22 24  1  0  0  0  0
 22 31  1  1  0  0  0
 23 27  1  0  0  0  0
 24 19  2  0  0  0  0
 26 20  1  0  0  0  0
 28 24  1  0  0  0  0
 28 20  2  0  0  0  0
 29 25  2  0  0  0  0
 30 31  2  0  0  0  0
 32 34  1  6  0  0  0
 32 35  1  0  0  0  0
 32 33  1  0  0  0  0
 33 34  1  6  0  0  0
 33  1  1  0  0  0  0
 35 36  1  1  0  0  0
 38 39  1  0  0  0  0
 39 36  1  0  0  0  0
 39 40  1  0  0  0  0
 40 41  2  0  0  0  0
 42 37  1  6  0  0  0
 42 38  1  0  0  0  0
 42 35  1  0  0  0  0
 43 44  1  0  0  0  0
 44 45  1  0  0  0  0
 45 46  1  0  0  0  0
 46 47  1  0  0  0  0
 47 51  1  0  0  0  0
 48 51  1  0  0  0  0
 49 52  1  0  0  0  0
 49 50  2  0  0  0  0
 51 49  1  0  0  0  0
 52 55  1  0  0  0  0
 52 53  1  1  0  0  0
 55 54  1  1  0  0  0
 56 60  1  0  0  0  0
 56 55  1  0  0  0  0
 57 58  2  0  0  0  0
 57 60  1  0  0  0  0
 59 57  1  0  0  0  0
 61 64  1  6  0  0  0
 61 63  1  0  0  0  0
 61 62  1  0  0  0  0
 62 59  1  1  0  0  0
 63 62  1  0  0  0  0
 64 66  1  0  0  0  0
 65 62  1  0  0  0  0
 66 65  1  0  0  0  0
M  END
>  <MODEL>
9

>  <REMARK>
 VINA RESULT:      -5.9      3.147     11.999
  Name = 
  19 active torsions:
  status: ('A' for Active; 'I' for Inactive)
    1  A    between atoms: C_4  and  C_36
    2  A    between atoms: N_7  and  C_29
    3  A    between atoms: C_8  and  C_33
    4  A    between atoms: C_10  and  N_57
    5  A    between atoms: C_13  and  C_16
    6  A    between atoms: C_13  and  C_52
    7  A    between atoms: C_15  and  C_52
    8  A    between atoms: C_15  and  N_64
    9  A    between atoms: C_17  and  C_25
   10  A    between atoms: C_18  and  C_27
   11  A    between atoms: C_21  and  C_38
   12  A    between atoms: C_21  and  N_58
   13  A    between atoms: C_22  and  C_23
   14  A    between atoms: C_29  and  C_32
   15  A    between atoms: C_33  and  C_42
   16  A    between atoms: C_34  and  C_46
   17  A    between atoms: C_34  and  C_51
   18  A    between atoms: C_38  and  C_51
   19  A    between atoms: C_46  and  C_53
                            x       y       z     vdW  Elec       q    Type
                         _______ _______ _______ _____ _____    ______ ____

>  <TORSDO>
F 19

$$$$
