=
 OpenBabel11042410053D

 29 31  0  0  1  0  0  0  0  0999 V2000
  189.1340  177.0300  144.3610 C   0  0  1  0  0  3  0  0  0  0  0  0
  187.8960  177.8570  144.7660 C   0  0  1  0  0  3  0  0  0  0  0  0
  184.4840  178.6370  143.5640 C   0  0  0  0  0  1  0  0  0  0  0  0
  185.4730  178.1550  144.5130 N   0  0  0  0  0  0  0  0  0  0  0  0
  186.6280  177.4030  144.0300 C   0  0  0  0  0  2  0  0  0  0  0  0
  187.6710  177.8190  146.2610 C   0  0  0  0  0  3  0  0  0  0  0  0
  184.2710  178.8570  146.4020 O   0  0  0  0  0  0  0  0  0  0  0  0
  185.3440  178.4040  145.9190 C   0  0  0  0  0  0  0  0  0  0  0  0
  186.4860  178.1170  146.7980 C   0  0  0  0  0  3  0  0  0  0  0  0
  189.1630  176.5960  142.8880 C   0  0  2  0  0  3  0  0  0  0  0  0
  189.8160  175.3690  142.7320 O   0  0  0  0  0  1  0  0  0  0  0  0
  189.8100  177.6640  142.0170 C   0  0  0  0  0  2  0  0  0  0  0  0
  188.9760  177.9500  140.8110 C   0  0  0  0  0  0  0  0  0  0  0  0
  187.8850  178.4880  140.9300 O   0  0  0  0  0  0  0  0  0  0  0  0
  189.5010  177.6090  139.4560 C   0  0  0  0  0  2  0  0  0  0  0  0
  189.0090  178.6190  138.4350 C   0  0  0  0  0  2  0  0  0  0  0  0
  186.7200  175.4830  137.1760 O   0  0  0  0  0  0  0  0  0  0  0  0
  188.8750  176.5160  137.0940 C   0  0  0  0  0  2  0  0  0  0  0  0
  186.7910  177.8450  137.5690 C   0  0  0  0  0  0  0  0  0  0  0  0
  187.8800  175.5950  136.3900 C   0  0  0  0  0  2  0  0  0  0  0  0
  186.2060  178.7710  138.1090 O   0  0  0  0  0  0  0  0  0  0  0  0
  186.0060  176.6850  137.0210 C   0  0  0  0  0  2  0  0  0  0  0  0
  188.2760  177.9160  137.3010 C   0  0  1  0  0  3  0  0  0  0  0  0
  190.4510  177.7170  144.7340 C   0  0  0  0  0  2  0  0  0  0  0  0
  191.5120  176.7270  145.1910 C   0  0  0  0  0  2  0  0  0  0  0  0
  192.8830  175.8120  148.5610 C   0  0  0  0  0  1  0  0  0  0  0  0
  192.1800  175.5750  147.2410 C   0  0  2  0  0  3  0  0  0  0  0  0
  191.7200  176.8630  146.6840 C   0  0  2  0  0  3  0  0  0  0  0  0
  190.8420  175.9910  147.3520 O   0  0  0  0  0  0  0  0  0  0  0  0
  1 24  1  6  0  0  0
  2  1  1  1  0  0  0
  2  6  1  0  0  0  0
  3  4  1  0  0  0  0
  4  8  1  0  0  0  0
  5  4  1  0  0  0  0
  5  2  1  0  0  0  0
  6  9  2  0  0  0  0
  8  7  2  0  0  0  0
  8  9  1  0  0  0  0
 10 11  1  1  0  0  0
 10  1  1  0  0  0  0
 12 10  1  0  0  0  0
 13 14  2  0  0  0  0
 13 12  1  0  0  0  0
 15 13  1  0  0  0  0
 16 15  1  0  0  0  0
 18 23  1  0  0  0  0
 19 21  2  0  0  0  0
 20 18  1  0  0  0  0
 20 17  1  0  0  0  0
 22 17  1  0  0  0  0
 22 19  1  0  0  0  0
 23 19  1  0  0  0  0
 23 16  1  1  0  0  0
 24 25  1  0  0  0  0
 27 29  1  0  0  0  0
 27 26  1  1  0  0  0
 28 25  1  6  0  0  0
 28 27  1  0  0  0  0
 28 29  1  0  0  0  0
M  END
>  <MODEL>
1

>  <REMARK>
 VINA RESULT:      -7.9      0.000      0.000
  Name = 
  10 active torsions:
  status: ('A' for Active; 'I' for Inactive)
    1  A    between atoms: C_2  and  C_9
    2  A    between atoms: C_8  and  C_14
    3  A    between atoms: C_8  and  C_16
    4  A    between atoms: C_9  and  C_11
    5  A    between atoms: C_9  and  C_28
    6  A    between atoms: C_11  and  C_25
    7  A    between atoms: C_14  and  C_29
    8  A    between atoms: C_16  and  C_25
    9  A    between atoms: C_20  and  C_27
   10  A    between atoms: C_27  and  C_28
                            x       y       z     vdW  Elec       q    Type
                         _______ _______ _______ _____ _____    ______ ____

>  <TORSDO>
F 10

$$$$
=
 OpenBabel11042410053D

 29 31  0  0  1  0  0  0  0  0999 V2000
  189.2360  176.9660  144.4140 C   0  0  1  0  0  3  0  0  0  0  0  0
  188.0090  177.7930  144.8540 C   0  0  1  0  0  3  0  0  0  0  0  0
  184.5560  178.5510  143.7630 C   0  0  0  0  0  1  0  0  0  0  0  0
  185.5780  178.0810  144.6820 N   0  0  0  0  0  0  0  0  0  0  0  0
  186.7180  177.3280  144.1660 C   0  0  0  0  0  2  0  0  0  0  0  0
  187.8360  177.7670  146.3560 C   0  0  0  0  0  3  0  0  0  0  0  0
  184.4390  178.7950  146.6050 O   0  0  0  0  0  0  0  0  0  0  0  0
  185.4960  178.3420  146.0890 C   0  0  0  0  0  0  0  0  0  0  0  0
  186.6690  178.0660  146.9310 C   0  0  0  0  0  3  0  0  0  0  0  0
  189.2410  176.5650  142.9320 C   0  0  2  0  0  3  0  0  0  0  0  0
  190.0040  175.4120  142.7190 O   0  0  0  0  0  1  0  0  0  0  0  0
  189.7400  177.7080  142.0580 C   0  0  0  0  0  2  0  0  0  0  0  0
  188.8310  177.9280  140.8930 C   0  0  0  0  0  0  0  0  0  0  0  0
  187.7470  178.4700  141.0520 O   0  0  0  0  0  0  0  0  0  0  0  0
  189.2730  177.5190  139.5280 C   0  0  0  0  0  2  0  0  0  0  0  0
  190.7790  177.3280  139.5020 C   0  0  0  0  0  2  0  0  0  0  0  0
  191.6990  175.9490  135.7720 O   0  0  0  0  0  0  0  0  0  0  0  0
  190.0730  175.9730  137.5250 C   0  0  0  0  0  2  0  0  0  0  0  0
  192.5170  176.3530  137.9880 C   0  0  0  0  0  0  0  0  0  0  0  0
  190.6280  175.2190  136.3190 C   0  0  0  0  0  2  0  0  0  0  0  0
  193.4250  176.8670  138.6230 O   0  0  0  0  0  0  0  0  0  0  0  0
  192.7970  175.7640  136.6320 C   0  0  0  0  0  2  0  0  0  0  0  0
  191.1520  176.1570  138.6040 C   0  0  1  0  0  3  0  0  0  0  0  0
  190.5630  177.6360  144.7830 C   0  0  0  0  0  2  0  0  0  0  0  0
  191.5830  176.6430  145.3200 C   0  0  0  0  0  2  0  0  0  0  0  0
  192.9790  175.9770  148.7380 C   0  0  0  0  0  1  0  0  0  0  0  0
  192.3490  175.6260  147.4070 C   0  0  2  0  0  3  0  0  0  0  0  0
  191.7330  176.8300  146.8150 C   0  0  2  0  0  3  0  0  0  0  0  0
  190.9640  175.8580  147.4790 O   0  0  0  0  0  0  0  0  0  0  0  0
  1 24  1  6  0  0  0
  2  1  1  1  0  0  0
  2  6  1  0  0  0  0
  3  4  1  0  0  0  0
  4  8  1  0  0  0  0
  5  4  1  0  0  0  0
  5  2  1  0  0  0  0
  6  9  2  0  0  0  0
  8  7  2  0  0  0  0
  8  9  1  0  0  0  0
 10 11  1  1  0  0  0
 10  1  1  0  0  0  0
 12 10  1  0  0  0  0
 13 14  2  0  0  0  0
 13 12  1  0  0  0  0
 15 13  1  0  0  0  0
 16 15  1  0  0  0  0
 17 20  1  0  0  0  0
 17 22  1  0  0  0  0
 18 23  1  0  0  0  0
 19 23  1  0  0  0  0
 19 21  2  0  0  0  0
 20 18  1  0  0  0  0
 22 19  1  0  0  0  0
 23 16  1  6  0  0  0
 24 25  1  0  0  0  0
 27 29  1  0  0  0  0
 27 26  1  1  0  0  0
 28 25  1  6  0  0  0
 28 27  1  0  0  0  0
 28 29  1  0  0  0  0
M  END
>  <MODEL>
2

>  <REMARK>
 VINA RESULT:      -7.8      1.889      2.591
  Name = 
  10 active torsions:
  status: ('A' for Active; 'I' for Inactive)
    1  A    between atoms: C_2  and  C_9
    2  A    between atoms: C_8  and  C_14
    3  A    between atoms: C_8  and  C_16
    4  A    between atoms: C_9  and  C_11
    5  A    between atoms: C_9  and  C_28
    6  A    between atoms: C_11  and  C_25
    7  A    between atoms: C_14  and  C_29
    8  A    between atoms: C_16  and  C_25
    9  A    between atoms: C_20  and  C_27
   10  A    between atoms: C_27  and  C_28
                            x       y       z     vdW  Elec       q    Type
                         _______ _______ _______ _____ _____    ______ ____

>  <TORSDO>
F 10

$$$$
=
 OpenBabel11042410053D

 29 31  0  0  1  0  0  0  0  0999 V2000
  187.8890  177.7960  143.3250 C   0  0  1  0  0  3  0  0  0  0  0  0
  187.9650  177.4110  144.8180 C   0  0  1  0  0  3  0  0  0  0  0  0
  190.4560  177.0250  147.5260 C   0  0  0  0  0  1  0  0  0  0  0  0
  189.2630  177.5600  146.8960 N   0  0  0  0  0  0  0  0  0  0  0  0
  189.2780  177.8690  145.4690 C   0  0  0  0  0  2  0  0  0  0  0  0
  186.7850  177.9570  145.5900 C   0  0  0  0  0  3  0  0  0  0  0  0
  188.0620  177.7460  148.9030 O   0  0  0  0  0  0  0  0  0  0  0  0
  188.0610  177.7930  147.6440 C   0  0  0  0  0  0  0  0  0  0  0  0
  186.8210  178.0940  146.9170 C   0  0  0  0  0  3  0  0  0  0  0  0
  188.6660  176.8660  142.3820 C   0  0  2  0  0  3  0  0  0  0  0  0
  188.7000  175.5570  142.8720 O   0  0  0  0  0  1  0  0  0  0  0  0
  190.0760  177.3870  142.1410 C   0  0  0  0  0  2  0  0  0  0  0  0
  190.4150  177.3630  140.6860 C   0  0  0  0  0  0  0  0  0  0  0  0
  191.5830  177.3970  140.3260 O   0  0  0  0  0  0  0  0  0  0  0  0
  189.3210  177.2580  139.6770 C   0  0  0  0  0  2  0  0  0  0  0  0
  189.1140  178.5950  138.9890 C   0  0  0  0  0  2  0  0  0  0  0  0
  188.2290  176.3530  135.6950 O   0  0  0  0  0  0  0  0  0  0  0  0
  189.9640  177.1660  137.1250 C   0  0  0  0  0  2  0  0  0  0  0  0
  187.7750  178.3830  136.8850 C   0  0  0  0  0  0  0  0  0  0  0  0
  189.6010  176.6590  135.7310 C   0  0  0  0  0  2  0  0  0  0  0  0
  186.8790  179.0830  137.3300 O   0  0  0  0  0  0  0  0  0  0  0  0
  187.5410  177.5790  135.6350 C   0  0  0  0  0  2  0  0  0  0  0  0
  189.1640  178.4300  137.4770 C   0  0  1  0  0  3  0  0  0  0  0  0
  186.4480  177.9640  142.8320 C   0  0  0  0  0  2  0  0  0  0  0  0
  186.3730  178.7090  141.5070 C   0  0  0  0  0  2  0  0  0  0  0  0
  183.0120  178.3240  139.8860 C   0  0  0  0  0  1  0  0  0  0  0  0
  184.5210  178.4360  139.9350 C   0  0  2  0  0  3  0  0  0  0  0  0
  184.9320  179.0630  141.2080 C   0  0  2  0  0  3  0  0  0  0  0  0
  184.8780  179.7950  140.0080 O   0  0  0  0  0  0  0  0  0  0  0  0
  1 24  1  6  0  0  0
  2  1  1  6  0  0  0
  2  5  1  0  0  0  0
  2  6  1  0  0  0  0
  4  3  1  0  0  0  0
  4  8  1  0  0  0  0
  5  4  1  0  0  0  0
  6  9  2  0  0  0  0
  8  7  2  0  0  0  0
  9  8  1  0  0  0  0
 10 11  1  1  0  0  0
 10  1  1  0  0  0  0
 12 10  1  0  0  0  0
 13 12  1  0  0  0  0
 14 13  2  0  0  0  0
 15 13  1  0  0  0  0
 16 15  1  0  0  0  0
 17 20  1  0  0  0  0
 18 23  1  0  0  0  0
 19 21  2  0  0  0  0
 19 23  1  0  0  0  0
 20 18  1  0  0  0  0
 22 17  1  0  0  0  0
 22 19  1  0  0  0  0
 23 16  1  1  0  0  0
 25 24  1  0  0  0  0
 27 26  1  1  0  0  0
 27 29  1  0  0  0  0
 27 28  1  0  0  0  0
 28 25  1  6  0  0  0
 29 28  1  0  0  0  0
M  END
>  <MODEL>
3

>  <REMARK>
 VINA RESULT:      -7.8      2.101      4.946
  Name = 
  10 active torsions:
  status: ('A' for Active; 'I' for Inactive)
    1  A    between atoms: C_2  and  C_9
    2  A    between atoms: C_8  and  C_14
    3  A    between atoms: C_8  and  C_16
    4  A    between atoms: C_9  and  C_11
    5  A    between atoms: C_9  and  C_28
    6  A    between atoms: C_11  and  C_25
    7  A    between atoms: C_14  and  C_29
    8  A    between atoms: C_16  and  C_25
    9  A    between atoms: C_20  and  C_27
   10  A    between atoms: C_27  and  C_28
                            x       y       z     vdW  Elec       q    Type
                         _______ _______ _______ _____ _____    ______ ____

>  <TORSDO>
F 10

$$$$
=
 OpenBabel11042410053D

 29 31  0  0  1  0  0  0  0  0999 V2000
  188.0950  177.3460  144.4150 C   0  0  1  0  0  3  0  0  0  0  0  0
  186.8030  178.1780  144.2740 C   0  0  1  0  0  3  0  0  0  0  0  0
  184.0370  178.7430  141.8820 C   0  0  0  0  0  1  0  0  0  0  0  0
  184.6250  178.3860  143.1610 N   0  0  0  0  0  0  0  0  0  0  0  0
  185.8680  177.6190  143.1930 C   0  0  0  0  0  2  0  0  0  0  0  0
  186.0680  178.2850  145.5920 C   0  0  0  0  0  3  0  0  0  0  0  0
  182.8460  179.2420  144.4280 O   0  0  0  0  0  0  0  0  0  0  0  0
  184.0150  178.7720  144.3990 C   0  0  0  0  0  0  0  0  0  0  0  0
  184.7730  178.6040  145.6470 C   0  0  0  0  0  3  0  0  0  0  0  0
  188.7230  176.9040  143.0860 C   0  0  2  0  0  3  0  0  0  0  0  0
  189.2660  175.6190  143.1820 O   0  0  0  0  0  1  0  0  0  0  0  0
  189.7770  177.9010  142.6210 C   0  0  0  0  0  2  0  0  0  0  0  0
  190.3560  177.4950  141.3050 C   0  0  0  0  0  0  0  0  0  0  0  0
  191.5660  177.3880  141.1720 O   0  0  0  0  0  0  0  0  0  0  0  0
  189.4450  177.1810  140.1660 C   0  0  0  0  0  2  0  0  0  0  0  0
  188.8260  178.4580  139.6250 C   0  0  0  0  0  2  0  0  0  0  0  0
  188.3440  176.4790  136.0890 O   0  0  0  0  0  0  0  0  0  0  0  0
  189.9100  177.4370  137.6200 C   0  0  0  0  0  2  0  0  0  0  0  0
  187.5280  178.2380  137.4970 C   0  0  0  0  0  0  0  0  0  0  0  0
  189.6340  177.0310  136.1730 C   0  0  0  0  0  2  0  0  0  0  0  0
  186.5210  178.7020  138.0090 O   0  0  0  0  0  0  0  0  0  0  0  0
  187.4360  177.5520  136.1610 C   0  0  0  0  0  2  0  0  0  0  0  0
  188.8900  178.4780  138.1040 C   0  0  1  0  0  3  0  0  0  0  0  0
  189.1470  178.0340  145.2920 C   0  0  0  0  0  2  0  0  0  0  0  0
  189.4060  177.2780  146.5870 C   0  0  0  0  0  2  0  0  0  0  0  0
  192.5520  175.5590  147.6910 C   0  0  0  0  0  1  0  0  0  0  0  0
  191.6010  176.7220  147.5090 C   0  0  2  0  0  3  0  0  0  0  0  0
  190.6400  176.4150  146.4300 C   0  0  2  0  0  3  0  0  0  0  0  0
  191.7550  177.2440  146.2120 O   0  0  0  0  0  0  0  0  0  0  0  0
  1 24  1  6  0  0  0
  2  1  1  1  0  0  0
  2  6  1  0  0  0  0
  3  4  1  0  0  0  0
  4  5  1  0  0  0  0
  4  8  1  0  0  0  0
  5  2  1  0  0  0  0
  6  9  2  0  0  0  0
  8  7  2  0  0  0  0
  8  9  1  0  0  0  0
 10 11  1  1  0  0  0
 10  1  1  0  0  0  0
 12 10  1  0  0  0  0
 13 12  1  0  0  0  0
 14 13  2  0  0  0  0
 15 13  1  0  0  0  0
 16 15  1  0  0  0  0
 17 22  1  0  0  0  0
 17 20  1  0  0  0  0
 18 23  1  0  0  0  0
 19 21  2  0  0  0  0
 19 23  1  0  0  0  0
 20 18  1  0  0  0  0
 22 19  1  0  0  0  0
 23 16  1  1  0  0  0
 24 25  1  0  0  0  0
 27 26  1  6  0  0  0
 28 25  1  1  0  0  0
 28 27  1  0  0  0  0
 29 28  1  0  0  0  0
 29 27  1  0  0  0  0
M  END
>  <MODEL>
4

>  <REMARK>
 VINA RESULT:      -7.7      1.400      1.690
  Name = 
  10 active torsions:
  status: ('A' for Active; 'I' for Inactive)
    1  A    between atoms: C_2  and  C_9
    2  A    between atoms: C_8  and  C_14
    3  A    between atoms: C_8  and  C_16
    4  A    between atoms: C_9  and  C_11
    5  A    between atoms: C_9  and  C_28
    6  A    between atoms: C_11  and  C_25
    7  A    between atoms: C_14  and  C_29
    8  A    between atoms: C_16  and  C_25
    9  A    between atoms: C_20  and  C_27
   10  A    between atoms: C_27  and  C_28
                            x       y       z     vdW  Elec       q    Type
                         _______ _______ _______ _____ _____    ______ ____

>  <TORSDO>
F 10

$$$$
=
 OpenBabel11042410053D

 29 31  0  0  1  0  0  0  0  0999 V2000
  187.9680  177.4070  144.2310 C   0  0  1  0  0  3  0  0  0  0  0  0
  186.6610  178.2270  144.2150 C   0  0  1  0  0  3  0  0  0  0  0  0
  183.6660  178.7570  142.1060 C   0  0  0  0  0  1  0  0  0  0  0  0
  184.3820  178.4110  143.3220 N   0  0  0  0  0  0  0  0  0  0  0  0
  185.6280  177.6550  143.2340 C   0  0  0  0  0  2  0  0  0  0  0  0
  186.0590  178.3350  145.5990 C   0  0  0  0  0  3  0  0  0  0  0  0
  182.7290  179.2590  144.7550 O   0  0  0  0  0  0  0  0  0  0  0  0
  183.8930  178.7980  144.6130 C   0  0  0  0  0  0  0  0  0  0  0  0
  184.7730  178.6430  145.7800 C   0  0  0  0  0  3  0  0  0  0  0  0
  188.4510  176.9410  142.8500 C   0  0  2  0  0  3  0  0  0  0  0  0
  189.3270  175.8560  142.9560 O   0  0  0  0  0  1  0  0  0  0  0  0
  189.1020  178.0860  142.0850 C   0  0  0  0  0  2  0  0  0  0  0  0
  188.5510  178.1870  140.7000 C   0  0  0  0  0  0  0  0  0  0  0  0
  187.4070  178.5790  140.5200 O   0  0  0  0  0  0  0  0  0  0  0  0
  189.4190  177.8440  139.5360 C   0  0  0  0  0  2  0  0  0  0  0  0
  190.8190  177.4990  140.0120 C   0  0  0  0  0  2  0  0  0  0  0  0
  192.1830  176.1070  136.4260 O   0  0  0  0  0  0  0  0  0  0  0  0
  190.4290  176.0070  138.0480 C   0  0  0  0  0  2  0  0  0  0  0  0
  192.7710  176.6770  138.6780 C   0  0  0  0  0  0  0  0  0  0  0  0
  191.1590  175.2800  136.9200 C   0  0  0  0  0  2  0  0  0  0  0  0
  193.5620  177.3130  139.3570 O   0  0  0  0  0  0  0  0  0  0  0  0
  193.2220  176.0780  137.3740 C   0  0  0  0  0  2  0  0  0  0  0  0
  191.3900  176.3480  139.1960 C   0  0  1  0  0  3  0  0  0  0  0  0
  189.1020  178.1200  144.9730 C   0  0  0  0  0  2  0  0  0  0  0  0
  189.3870  177.4970  146.3320 C   0  0  0  0  0  2  0  0  0  0  0  0
  192.3620  175.6000  147.6060 C   0  0  0  0  0  1  0  0  0  0  0  0
  191.4670  176.8060  147.4150 C   0  0  2  0  0  3  0  0  0  0  0  0
  190.6050  176.6030  146.2330 C   0  0  2  0  0  3  0  0  0  0  0  0
  191.7590  177.4040  146.1770 O   0  0  0  0  0  0  0  0  0  0  0  0
  1 24  1  6  0  0  0
  2  1  1  1  0  0  0
  2  6  1  0  0  0  0
  3  4  1  0  0  0  0
  4  8  1  0  0  0  0
  5  4  1  0  0  0  0
  5  2  1  0  0  0  0
  6  9  2  0  0  0  0
  8  7  2  0  0  0  0
  8  9  1  0  0  0  0
 10 11  1  1  0  0  0
 10  1  1  0  0  0  0
 12 10  1  0  0  0  0
 13 12  1  0  0  0  0
 14 13  2  0  0  0  0
 15 16  1  0  0  0  0
 15 13  1  0  0  0  0
 17 20  1  0  0  0  0
 17 22  1  0  0  0  0
 18 23  1  0  0  0  0
 19 23  1  0  0  0  0
 19 21  2  0  0  0  0
 20 18  1  0  0  0  0
 22 19  1  0  0  0  0
 23 16  1  6  0  0  0
 24 25  1  0  0  0  0
 27 26  1  6  0  0  0
 28 25  1  1  0  0  0
 28 27  1  0  0  0  0
 29 28  1  0  0  0  0
 29 27  1  0  0  0  0
M  END
>  <MODEL>
5

>  <REMARK>
 VINA RESULT:      -7.6      2.188      3.020
  Name = 
  10 active torsions:
  status: ('A' for Active; 'I' for Inactive)
    1  A    between atoms: C_2  and  C_9
    2  A    between atoms: C_8  and  C_14
    3  A    between atoms: C_8  and  C_16
    4  A    between atoms: C_9  and  C_11
    5  A    between atoms: C_9  and  C_28
    6  A    between atoms: C_11  and  C_25
    7  A    between atoms: C_14  and  C_29
    8  A    between atoms: C_16  and  C_25
    9  A    between atoms: C_20  and  C_27
   10  A    between atoms: C_27  and  C_28
                            x       y       z     vdW  Elec       q    Type
                         _______ _______ _______ _____ _____    ______ ____

>  <TORSDO>
F 10

$$$$
=
 OpenBabel11042410053D

 29 31  0  0  1  0  0  0  0  0999 V2000
  189.8530  177.8250  143.4750 C   0  0  1  0  0  3  0  0  0  0  0  0
  189.7620  177.3890  141.9980 C   0  0  1  0  0  3  0  0  0  0  0  0
  187.6850  177.9670  138.9900 C   0  0  0  0  0  1  0  0  0  0  0  0
  188.9160  177.9400  139.7600 N   0  0  0  0  0  0  0  0  0  0  0  0
  188.8970  178.3450  141.1630 C   0  0  0  0  0  2  0  0  0  0  0  0
  191.1340  177.2530  141.3760 C   0  0  0  0  0  3  0  0  0  0  0  0
  190.2660  177.3670  137.9280 O   0  0  0  0  0  0  0  0  0  0  0  0
  190.1560  177.5200  139.1740 C   0  0  0  0  0  0  0  0  0  0  0  0
  191.3080  177.2730  140.0530 C   0  0  0  0  0  3  0  0  0  0  0  0
  188.7740  177.2260  144.3890 C   0  0  2  0  0  3  0  0  0  0  0  0
  188.0090  176.2690  143.7140 O   0  0  0  0  0  1  0  0  0  0  0  0
  187.8830  178.3150  144.9690 C   0  0  0  0  0  2  0  0  0  0  0  0
  187.0910  177.8010  146.1270 C   0  0  0  0  0  0  0  0  0  0  0  0
  187.6390  177.1550  147.0080 O   0  0  0  0  0  0  0  0  0  0  0  0
  185.6360  178.1150  146.2210 C   0  0  0  0  0  2  0  0  0  0  0  0
  185.2200  179.0130  145.0700 C   0  0  0  0  0  2  0  0  0  0  0  0
  182.4100  179.2990  142.1240 O   0  0  0  0  0  0  0  0  0  0  0  0
  182.7960  179.0430  144.4690 C   0  0  0  0  0  2  0  0  0  0  0  0
  184.5090  178.3390  142.7670 C   0  0  0  0  0  0  0  0  0  0  0  0
  181.8370  178.7970  143.3060 C   0  0  0  0  0  2  0  0  0  0  0  0
  185.6650  178.1710  142.4090 O   0  0  0  0  0  0  0  0  0  0  0  0
  183.4110  178.3890  141.7390 C   0  0  0  0  0  2  0  0  0  0  0  0
  184.1410  178.3420  144.2320 C   0  0  1  0  0  3  0  0  0  0  0  0
  191.2420  177.5900  144.0750 C   0  0  0  0  0  2  0  0  0  0  0  0
  191.2880  176.3550  144.9640 C   0  0  0  0  0  2  0  0  0  0  0  0
  192.8610  175.8700  148.3340 C   0  0  0  0  0  1  0  0  0  0  0  0
  191.9510  175.5400  147.1710 C   0  0  2  0  0  3  0  0  0  0  0  0
  191.7220  176.7520  146.3590 C   0  0  2  0  0  3  0  0  0  0  0  0
  190.7690  176.2910  147.2840 O   0  0  0  0  0  0  0  0  0  0  0  0
  1 24  1  1  0  0  0
  1 10  1  0  0  0  0
  2  1  1  1  0  0  0
  3  4  1  0  0  0  0
  4  5  1  0  0  0  0
  5  2  1  0  0  0  0
  6  2  1  0  0  0  0
  7  8  2  0  0  0  0
  8  4  1  0  0  0  0
  8  9  1  0  0  0  0
  9  6  2  0  0  0  0
 10 11  1  6  0  0  0
 10 12  1  0  0  0  0
 12 13  1  0  0  0  0
 13 15  1  0  0  0  0
 13 14  2  0  0  0  0
 16 15  1  0  0  0  0
 17 20  1  0  0  0  0
 19 23  1  0  0  0  0
 20 18  1  0  0  0  0
 21 19  2  0  0  0  0
 22 17  1  0  0  0  0
 22 19  1  0  0  0  0
 23 18  1  0  0  0  0
 23 16  1  1  0  0  0
 24 25  1  0  0  0  0
 27 29  1  0  0  0  0
 27 26  1  1  0  0  0
 28 25  1  6  0  0  0
 28 27  1  0  0  0  0
 28 29  1  0  0  0  0
M  END
>  <MODEL>
6

>  <REMARK>
 VINA RESULT:      -7.6      2.221      5.843
  Name = 
  10 active torsions:
  status: ('A' for Active; 'I' for Inactive)
    1  A    between atoms: C_2  and  C_9
    2  A    between atoms: C_8  and  C_14
    3  A    between atoms: C_8  and  C_16
    4  A    between atoms: C_9  and  C_11
    5  A    between atoms: C_9  and  C_28
    6  A    between atoms: C_11  and  C_25
    7  A    between atoms: C_14  and  C_29
    8  A    between atoms: C_16  and  C_25
    9  A    between atoms: C_20  and  C_27
   10  A    between atoms: C_27  and  C_28
                            x       y       z     vdW  Elec       q    Type
                         _______ _______ _______ _____ _____    ______ ____

>  <TORSDO>
F 10

$$$$
=
 OpenBabel11042410053D

 29 31  0  0  1  0  0  0  0  0999 V2000
  185.8520  178.1180  143.9030 C   0  0  1  0  0  3  0  0  0  0  0  0
  184.6010  178.7640  143.2720 C   0  0  1  0  0  3  0  0  0  0  0  0
  182.7200  178.7890  140.0850 C   0  0  0  0  0  1  0  0  0  0  0  0
  182.8930  178.6060  141.5160 N   0  0  0  0  0  0  0  0  0  0  0  0
  184.1260  178.0100  142.0220 C   0  0  0  0  0  2  0  0  0  0  0  0
  183.4710  178.8740  144.2720 C   0  0  0  0  0  3  0  0  0  0  0  0
  180.7240  179.3200  142.0560 O   0  0  0  0  0  0  0  0  0  0  0  0
  181.8790  179.0030  142.4490 C   0  0  0  0  0  0  0  0  0  0  0  0
  182.2040  179.0280  143.8810 C   0  0  0  0  0  3  0  0  0  0  0  0
  187.1350  178.2550  143.0720 C   0  0  2  0  0  3  0  0  0  0  0  0
  186.8640  178.7620  141.7970 O   0  0  0  0  0  1  0  0  0  0  0  0
  187.8690  176.9240  142.9760 C   0  0  0  0  0  2  0  0  0  0  0  0
  189.3490  177.1280  142.9620 C   0  0  0  0  0  0  0  0  0  0  0  0
  189.8750  177.8760  143.7730 O   0  0  0  0  0  0  0  0  0  0  0  0
  190.1850  176.3820  141.9760 C   0  0  0  0  0  2  0  0  0  0  0  0
  190.5520  177.2850  140.8120 C   0  0  0  0  0  2  0  0  0  0  0  0
  189.5310  178.0370  136.9330 O   0  0  0  0  0  0  0  0  0  0  0  0
  189.0510  178.5010  139.2280 C   0  0  0  0  0  2  0  0  0  0  0  0
  190.1610  176.3570  138.5210 C   0  0  0  0  0  0  0  0  0  0  0  0
  188.5060  178.4510  137.8020 C   0  0  0  0  0  2  0  0  0  0  0  0
  190.9270  175.4260  138.7170 O   0  0  0  0  0  0  0  0  0  0  0  0
  189.6900  176.6520  137.1230 C   0  0  0  0  0  2  0  0  0  0  0  0
  189.5540  177.1200  139.6750 C   0  0  1  0  0  3  0  0  0  0  0  0
  186.1010  178.5920  145.3380 C   0  0  0  0  0  2  0  0  0  0  0  0
  186.6730  177.4930  146.2220 C   0  0  0  0  0  2  0  0  0  0  0  0
  190.2250  177.0430  147.3400 C   0  0  0  0  0  1  0  0  0  0  0  0
  188.7400  176.7540  147.2970 C   0  0  2  0  0  3  0  0  0  0  0  0
  188.0200  177.9260  146.7590 C   0  0  2  0  0  3  0  0  0  0  0  0
  188.0710  177.6600  148.1390 O   0  0  0  0  0  0  0  0  0  0  0  0
  1 24  1  1  0  0  0
  2  1  1  1  0  0  0
  2  6  1  0  0  0  0
  3  4  1  0  0  0  0
  4  5  1  0  0  0  0
  4  8  1  0  0  0  0
  5  2  1  0  0  0  0
  7  8  2  0  0  0  0
  8  9  1  0  0  0  0
  9  6  2  0  0  0  0
 10 11  1  6  0  0  0
 10  1  1  0  0  0  0
 12 10  1  0  0  0  0
 13 12  1  0  0  0  0
 13 14  2  0  0  0  0
 15 13  1  0  0  0  0
 16 15  1  0  0  0  0
 17 22  1  0  0  0  0
 17 20  1  0  0  0  0
 18 23  1  0  0  0  0
 19 21  2  0  0  0  0
 19 23  1  0  0  0  0
 20 18  1  0  0  0  0
 22 19  1  0  0  0  0
 23 16  1  1  0  0  0
 24 25  1  0  0  0  0
 27 26  1  1  0  0  0
 27 29  1  0  0  0  0
 28 25  1  6  0  0  0
 28 27  1  0  0  0  0
 28 29  1  0  0  0  0
M  END
>  <MODEL>
7

>  <REMARK>
 VINA RESULT:      -7.2      2.304      3.901
  Name = 
  10 active torsions:
  status: ('A' for Active; 'I' for Inactive)
    1  A    between atoms: C_2  and  C_9
    2  A    between atoms: C_8  and  C_14
    3  A    between atoms: C_8  and  C_16
    4  A    between atoms: C_9  and  C_11
    5  A    between atoms: C_9  and  C_28
    6  A    between atoms: C_11  and  C_25
    7  A    between atoms: C_14  and  C_29
    8  A    between atoms: C_16  and  C_25
    9  A    between atoms: C_20  and  C_27
   10  A    between atoms: C_27  and  C_28
                            x       y       z     vdW  Elec       q    Type
                         _______ _______ _______ _____ _____    ______ ____

>  <TORSDO>
F 10

$$$$
=
 OpenBabel11042410053D

 29 31  0  0  1  0  0  0  0  0999 V2000
  187.8680  178.5990  141.1330 C   0  0  1  0  0  3  0  0  0  0  0  0
  188.3330  178.3130  139.6900 C   0  0  1  0  0  3  0  0  0  0  0  0
  191.0290  176.5460  137.8730 C   0  0  0  0  0  1  0  0  0  0  0  0
  189.6540  176.8500  138.2270 N   0  0  0  0  0  0  0  0  0  0  0  0
  189.3150  177.1350  139.6190 C   0  0  0  0  0  2  0  0  0  0  0  0
  187.1580  178.0660  138.7690 C   0  0  0  0  0  3  0  0  0  0  0  0
  188.8140  176.4350  136.0760 O   0  0  0  0  0  0  0  0  0  0  0  0
  188.6150  176.8790  137.2390 C   0  0  0  0  0  0  0  0  0  0  0  0
  187.3040  177.4310  137.6040 C   0  0  0  0  0  3  0  0  0  0  0  0
  186.3440  178.6420  141.3210 C   0  0  2  0  0  3  0  0  0  0  0  0
  185.8890  179.9520  141.4960 O   0  0  0  0  0  1  0  0  0  0  0  0
  185.9140  177.7620  142.4870 C   0  0  0  0  0  2  0  0  0  0  0  0
  184.6240  178.2400  143.0720 C   0  0  0  0  0  0  0  0  0  0  0  0
  183.6150  178.2810  142.3840 O   0  0  0  0  0  0  0  0  0  0  0  0
  184.5690  178.6300  144.5110 C   0  0  0  0  0  2  0  0  0  0  0  0
  185.9530  179.0150  145.0020 C   0  0  0  0  0  2  0  0  0  0  0  0
  188.7090  178.0830  147.8640 O   0  0  0  0  0  0  0  0  0  0  0  0
  187.7190  177.4330  145.7870 C   0  0  0  0  0  2  0  0  0  0  0  0
  186.4860  178.8710  147.4430 C   0  0  0  0  0  0  0  0  0  0  0  0
  188.4520  176.9700  147.0440 C   0  0  0  0  0  2  0  0  0  0  0  0
  185.6860  179.7520  147.7170 O   0  0  0  0  0  0  0  0  0  0  0  0
  187.4890  178.4290  148.4730 C   0  0  0  0  0  2  0  0  0  0  0  0
  186.3850  178.1070  146.1440 C   0  0  1  0  0  3  0  0  0  0  0  0
  188.4990  177.6490  142.1550 C   0  0  0  0  0  2  0  0  0  0  0  0
  189.6680  178.2840  142.8930 C   0  0  0  0  0  2  0  0  0  0  0  0
  191.6810  176.4290  145.4570 C   0  0  0  0  0  1  0  0  0  0  0  0
  191.2080  177.6370  144.6780 C   0  0  2  0  0  3  0  0  0  0  0  0
  190.5890  177.2000  143.4100 C   0  0  2  0  0  3  0  0  0  0  0  0
  191.9030  177.6980  143.4580 O   0  0  0  0  0  0  0  0  0  0  0  0
  1 10  1  0  0  0  0
  1 24  1  1  0  0  0
  2  1  1  1  0  0  0
  3  4  1  0  0  0  0
  4  5  1  0  0  0  0
  5  2  1  0  0  0  0
  6  2  1  0  0  0  0
  7  8  2  0  0  0  0
  8  9  1  0  0  0  0
  8  4  1  0  0  0  0
  9  6  2  0  0  0  0
 10 11  1  1  0  0  0
 10 12  1  0  0  0  0
 12 13  1  0  0  0  0
 13 15  1  0  0  0  0
 14 13  2  0  0  0  0
 15 16  1  0  0  0  0
 17 22  1  0  0  0  0
 18 23  1  0  0  0  0
 18 20  1  0  0  0  0
 19 21  2  0  0  0  0
 19 22  1  0  0  0  0
 20 17  1  0  0  0  0
 23 16  1  6  0  0  0
 23 19  1  0  0  0  0
 24 25  1  0  0  0  0
 27 26  1  1  0  0  0
 28 25  1  6  0  0  0
 28 29  1  0  0  0  0
 28 27  1  0  0  0  0
 29 27  1  0  0  0  0
M  END
>  <MODEL>
8

>  <REMARK>
 VINA RESULT:      -7.1      2.284      7.405
  Name = 
  10 active torsions:
  status: ('A' for Active; 'I' for Inactive)
    1  A    between atoms: C_2  and  C_9
    2  A    between atoms: C_8  and  C_14
    3  A    between atoms: C_8  and  C_16
    4  A    between atoms: C_9  and  C_11
    5  A    between atoms: C_9  and  C_28
    6  A    between atoms: C_11  and  C_25
    7  A    between atoms: C_14  and  C_29
    8  A    between atoms: C_16  and  C_25
    9  A    between atoms: C_20  and  C_27
   10  A    between atoms: C_27  and  C_28
                            x       y       z     vdW  Elec       q    Type
                         _______ _______ _______ _____ _____    ______ ____

>  <TORSDO>
F 10

$$$$
=
 OpenBabel11042410053D

 29 31  0  0  1  0  0  0  0  0999 V2000
  184.5110  178.8160  142.1530 C   0  0  1  0  0  3  0  0  0  0  0  0
  183.4050  178.6000  141.0980 C   0  0  1  0  0  3  0  0  0  0  0  0
  181.8850  180.3080  138.1890 C   0  0  0  0  0  1  0  0  0  0  0  0
  182.5560  179.2220  138.8800 N   0  0  0  0  0  0  0  0  0  0  0  0
  183.5720  179.5260  139.8850 C   0  0  0  0  0  2  0  0  0  0  0  0
  183.3460  177.1580  140.6470 C   0  0  0  0  0  3  0  0  0  0  0  0
  181.5390  177.5350  137.6060 O   0  0  0  0  0  0  0  0  0  0  0  0
  182.2430  177.8500  138.6020 C   0  0  0  0  0  0  0  0  0  0  0  0
  182.7630  176.8080  139.4970 C   0  0  0  0  0  3  0  0  0  0  0  0
  184.0500  178.6540  143.6090 C   0  0  2  0  0  3  0  0  0  0  0  0
  182.7110  179.0260  143.7630 O   0  0  0  0  0  1  0  0  0  0  0  0
  184.9410  179.4480  144.5550 C   0  0  0  0  0  2  0  0  0  0  0  0
  185.3700  178.6110  145.7160 C   0  0  0  0  0  0  0  0  0  0  0  0
  184.8990  178.8120  146.8260 O   0  0  0  0  0  0  0  0  0  0  0  0
  186.3470  177.5030  145.5040 C   0  0  0  0  0  2  0  0  0  0  0  0
  187.6930  177.8730  146.1000 C   0  0  0  0  0  2  0  0  0  0  0  0
  191.4100  178.0250  144.4210 O   0  0  0  0  0  0  0  0  0  0  0  0
  189.0610  177.8480  144.0110 C   0  0  0  0  0  2  0  0  0  0  0  0
  190.0770  177.1170  146.1930 C   0  0  0  0  0  0  0  0  0  0  0  0
  190.4670  177.5520  143.4920 C   0  0  0  0  0  2  0  0  0  0  0  0
  190.0270  176.9540  147.4030 O   0  0  0  0  0  0  0  0  0  0  0  0
  191.4110  177.1180  145.4960 C   0  0  0  0  0  2  0  0  0  0  0  0
  188.8170  177.1590  145.3620 C   0  0  1  0  0  3  0  0  0  0  0  0
  185.7500  177.9530  141.8940 C   0  0  0  0  0  2  0  0  0  0  0  0
  186.9120  178.7610  141.3360 C   0  0  0  0  0  2  0  0  0  0  0  0
  189.9140  177.6380  139.3860 C   0  0  0  0  0  1  0  0  0  0  0  0
  188.9100  178.6310  139.9330 C   0  0  2  0  0  3  0  0  0  0  0  0
  187.6790  177.9220  140.3370 C   0  0  2  0  0  3  0  0  0  0  0  0
  187.7630  178.6200  139.1190 O   0  0  0  0  0  0  0  0  0  0  0  0
  1 24  1  6  0  0  0
  1 10  1  0  0  0  0
  2  1  1  1  0  0  0
  3  4  1  0  0  0  0
  4  5  1  0  0  0  0
  5  2  1  0  0  0  0
  6  2  1  0  0  0  0
  7  8  2  0  0  0  0
  8  4  1  0  0  0  0
  8  9  1  0  0  0  0
  9  6  2  0  0  0  0
 10 11  1  6  0  0  0
 10 12  1  0  0  0  0
 12 13  1  0  0  0  0
 13 14  2  0  0  0  0
 15 13  1  0  0  0  0
 15 16  1  0  0  0  0
 17 22  1  0  0  0  0
 18 23  1  0  0  0  0
 19 21  2  0  0  0  0
 20 18  1  0  0  0  0
 20 17  1  0  0  0  0
 22 19  1  0  0  0  0
 23 16  1  1  0  0  0
 23 19  1  0  0  0  0
 25 24  1  0  0  0  0
 27 26  1  6  0  0  0
 27 28  1  0  0  0  0
 28 25  1  1  0  0  0
 29 27  1  0  0  0  0
 29 28  1  0  0  0  0
M  END
>  <MODEL>
9

>  <REMARK>
 VINA RESULT:      -7.1      2.741      7.640
  Name = 
  10 active torsions:
  status: ('A' for Active; 'I' for Inactive)
    1  A    between atoms: C_2  and  C_9
    2  A    between atoms: C_8  and  C_14
    3  A    between atoms: C_8  and  C_16
    4  A    between atoms: C_9  and  C_11
    5  A    between atoms: C_9  and  C_28
    6  A    between atoms: C_11  and  C_25
    7  A    between atoms: C_14  and  C_29
    8  A    between atoms: C_16  and  C_25
    9  A    between atoms: C_20  and  C_27
   10  A    between atoms: C_27  and  C_28
                            x       y       z     vdW  Elec       q    Type
                         _______ _______ _______ _____ _____    ______ ____

>  <TORSDO>
F 10

$$$$
