=
 OpenBabel11042410323D

 35 38  0  0  1  0  0  0  0  0999 V2000
  188.7750  177.2860  142.4380 C   0  0  2  0  0  0  0  0  0  0  0  0
  190.4900  177.2300  140.0720 C   0  0  0  0  0  3  0  0  0  0  0  0
  190.8830  176.4850  141.3180 C   0  0  0  0  0  2  0  0  0  0  0  0
  189.6570  176.0710  142.1310 C   0  0  0  0  0  2  0  0  0  0  0  0
  187.5350  176.8020  143.1710 C   0  0  0  0  0  1  0  0  0  0  0  0
  189.3670  177.9600  139.9910 C   0  0  0  0  0  0  0  0  0  0  0  0
  188.3260  177.9200  141.1000 C   0  0  2  0  0  3  0  0  0  0  0  0
  187.5490  179.1570  141.2490 N   0  0  0  0  0  2  0  0  0  0  0  0
  185.1200  178.7460  141.2240 C   0  0  0  0  0  0  0  0  0  0  0  0
  183.8260  178.6180  140.5230 C   0  0  0  0  0  3  0  0  0  0  0  0
  182.8530  178.3550  141.6630 C   0  0  0  0  0  3  0  0  0  0  0  0
  185.0620  178.5880  142.4990 N   0  0  0  0  0  0  0  0  0  0  0  0
  186.3400  179.0350  140.5450 N   0  0  0  0  0  2  0  0  0  0  0  0
  183.7060  178.3060  142.9310 C   0  0  1  0  0  3  0  0  0  0  0  0
  183.2530  179.3770  143.9110 C   0  0  0  0  0  2  0  0  0  0  0  0
  183.5520  178.9740  145.3480 C   0  0  0  0  0  2  0  0  0  0  0  0
  185.2730  179.1640  146.9930 O   0  0  0  0  0  1  0  0  0  0  0  0
  185.0450  178.9770  145.6300 C   0  0  0  0  0  2  0  0  0  0  0  0
  189.6820  178.4910  143.4970 S   0  0  0  0  0  0  0  0  0  0  0  0
  190.1690  176.9260  147.2080 N   0  0  0  0  0  2  0  0  0  0  0  0
  191.6700  177.1350  144.8070 C   0  0  0  0  0  2  0  0  0  0  0  0
  191.4090  176.2180  147.0890 C   0  0  0  0  0  0  0  0  0  0  0  0
  190.1530  177.3040  144.7950 C   0  0  1  0  0  3  0  0  0  0  0  0
  192.1060  176.2620  145.9500 C   0  0  0  0  0  3  0  0  0  0  0  0
  189.6980  177.8230  146.1550 C   0  0  0  0  0  2  0  0  0  0  0  0
  191.9530  175.1910  148.3970 Cl  0  0  0  0  0  0  0  0  0  0  0  0
  189.0410  178.6190  138.6860 C   0  0  0  0  0  2  0  0  0  0  0  0
  186.4470  176.1280  136.4280 C   0  0  0  0  0  0  0  0  0  0  0  0
  187.0320  178.3270  137.2250 C   0  0  0  0  0  3  0  0  0  0  0  0
  188.3420  176.4240  137.7900 N   0  0  0  0  0  0  0  0  0  0  0  0
  188.1290  177.7630  137.8740 C   0  0  0  0  0  0  0  0  0  0  0  0
  186.1830  177.5020  136.4920 C   0  0  0  0  0  3  0  0  0  0  0  0
  187.5280  175.6330  137.0870 N   0  0  0  0  0  0  0  0  0  0  0  0
  185.6270  175.2560  135.7070 O   0  0  0  0  0  0  0  0  0  0  0  0
  185.7960  173.8450  135.7320 C   0  0  0  0  0  1  0  0  0  0  0  0
  1  5  1  1  0  0  0
  1 19  1  0  0  0  0
  2  3  1  0  0  0  0
  3  4  1  0  0  0  0
  4  1  1  0  0  0  0
  6  2  2  0  0  0  0
  6  7  1  0  0  0  0
  7  8  1  1  0  0  0
  7  1  1  0  0  0  0
  9 12  2  0  0  0  0
 10  9  1  0  0  0  0
 10 11  2  0  0  0  0
 11 14  1  0  0  0  0
 12 14  1  0  0  0  0
 13  9  1  0  0  0  0
 13  8  1  0  0  0  0
 14 15  1  1  0  0  0
 15 16  1  0  0  0  0
 16 18  1  0  0  0  0
 18 17  1  0  0  0  0
 21 24  1  0  0  0  0
 22 20  1  0  0  0  0
 22 26  1  0  0  0  0
 23 19  1  6  0  0  0
 23 21  1  0  0  0  0
 23 25  1  0  0  0  0
 24 22  2  0  0  0  0
 25 20  1  0  0  0  0
 27  6  1  0  0  0  0
 28 32  1  0  0  0  0
 28 33  2  0  0  0  0
 29 31  1  0  0  0  0
 30 31  2  0  0  0  0
 31 27  1  0  0  0  0
 32 29  2  0  0  0  0
 33 30  1  0  0  0  0
 34 35  1  0  0  0  0
 34 28  1  0  0  0  0
M  END
>  <MODEL>
1

>  <REMARK>
 VINA RESULT:      -7.5      0.000      0.000
  Name = 
  10 active torsions:
  status: ('A' for Active; 'I' for Inactive)
    1  A    between atoms: C_1  and  O_15
    2  A    between atoms: C_3  and  S_24
    3  A    between atoms: N_6  and  N_27
    4  A    between atoms: N_6  and  C_34
    5  A    between atoms: C_8  and  C_14
    6  A    between atoms: C_8  and  C_30
    7  A    between atoms: C_13  and  S_24
    8  A    between atoms: C_14  and  C_26
    9  A    between atoms: C_22  and  C_28
   10  A    between atoms: C_28  and  C_31
                            x       y       z     vdW  Elec       q    Type
                         _______ _______ _______ _____ _____    ______ ____

>  <TORSDO>
F 10

$$$$
=
 OpenBabel11042410323D

 35 38  0  0  1  0  0  0  0  0999 V2000
  188.4650  177.2060  142.9060 C   0  0  2  0  0  0  0  0  0  0  0  0
  190.0980  177.1370  140.4830 C   0  0  0  0  0  3  0  0  0  0  0  0
  190.5400  176.4090  141.7230 C   0  0  0  0  0  2  0  0  0  0  0  0
  189.3460  175.9950  142.5820 C   0  0  0  0  0  2  0  0  0  0  0  0
  187.2540  176.7200  143.6850 C   0  0  0  0  0  1  0  0  0  0  0  0
  188.9670  177.8570  140.4330 C   0  0  0  0  0  0  0  0  0  0  0  0
  187.9650  177.8210  141.5770 C   0  0  2  0  0  3  0  0  0  0  0  0
  187.1830  179.0540  141.7380 N   0  0  0  0  0  2  0  0  0  0  0  0
  184.7660  178.8760  141.2930 C   0  0  0  0  0  0  0  0  0  0  0  0
  183.3870  178.5380  141.6980 C   0  0  0  0  0  3  0  0  0  0  0  0
  182.5880  178.8240  140.4350 C   0  0  0  0  0  3  0  0  0  0  0  0
  184.8850  179.3050  140.0860 N   0  0  0  0  0  0  0  0  0  0  0  0
  185.8850  178.7290  142.1640 N   0  0  0  0  0  2  0  0  0  0  0  0
  183.5980  179.3580  139.4200 C   0  0  1  0  0  3  0  0  0  0  0  0
  183.6270  178.4660  138.1880 C   0  0  0  0  0  2  0  0  0  0  0  0
  185.0350  177.9640  137.9010 C   0  0  0  0  0  2  0  0  0  0  0  0
  186.0150  177.6710  135.7430 O   0  0  0  0  0  1  0  0  0  0  0  0
  185.0830  177.1330  136.6300 C   0  0  0  0  0  2  0  0  0  0  0  0
  189.3960  178.4300  143.9200 S   0  0  0  0  0  0  0  0  0  0  0  0
  190.2870  176.8170  147.5340 N   0  0  0  0  0  2  0  0  0  0  0  0
  191.5470  177.1270  145.0080 C   0  0  0  0  0  2  0  0  0  0  0  0
  191.5360  176.1590  147.2830 C   0  0  0  0  0  0  0  0  0  0  0  0
  190.0300  177.2380  145.1410 C   0  0  1  0  0  3  0  0  0  0  0  0
  192.1200  176.2510  146.0860 C   0  0  0  0  0  3  0  0  0  0  0  0
  189.6870  177.7150  146.5490 C   0  0  0  0  0  2  0  0  0  0  0  0
  192.2370  175.1300  148.5120 Cl  0  0  0  0  0  0  0  0  0  0  0  0
  188.5920  178.4990  139.1320 C   0  0  0  0  0  2  0  0  0  0  0  0
  189.0090  175.7530  135.9200 C   0  0  0  0  0  0  0  0  0  0  0  0
  189.4480  177.9330  136.8520 C   0  0  0  0  0  3  0  0  0  0  0  0
  188.2250  176.2970  138.0700 N   0  0  0  0  0  0  0  0  0  0  0  0
  188.7640  177.5430  138.0010 C   0  0  0  0  0  0  0  0  0  0  0  0
  189.5750  177.0290  135.8000 C   0  0  0  0  0  3  0  0  0  0  0  0
  188.3460  175.4300  137.0620 N   0  0  0  0  0  0  0  0  0  0  0  0
  189.1070  174.8080  134.8950 O   0  0  0  0  0  0  0  0  0  0  0  0
  188.7710  173.4390  135.0780 C   0  0  0  0  0  1  0  0  0  0  0  0
  1  5  1  1  0  0  0
  1 19  1  0  0  0  0
  2  3  1  0  0  0  0
  3  4  1  0  0  0  0
  4  1  1  0  0  0  0
  6  2  2  0  0  0  0
  6  7  1  0  0  0  0
  7  8  1  1  0  0  0
  7  1  1  0  0  0  0
  8 13  1  0  0  0  0
  9 10  1  0  0  0  0
  9 13  1  0  0  0  0
 11 10  2  0  0  0  0
 12  9  2  0  0  0  0
 14 15  1  6  0  0  0
 14 12  1  0  0  0  0
 14 11  1  0  0  0  0
 16 15  1  0  0  0  0
 17 18  1  0  0  0  0
 18 16  1  0  0  0  0
 21 23  1  0  0  0  0
 21 24  1  0  0  0  0
 22 20  1  0  0  0  0
 22 26  1  0  0  0  0
 23 19  1  6  0  0  0
 23 25  1  0  0  0  0
 24 22  2  0  0  0  0
 25 20  1  0  0  0  0
 27  6  1  0  0  0  0
 28 33  2  0  0  0  0
 29 31  1  0  0  0  0
 31 30  2  0  0  0  0
 31 27  1  0  0  0  0
 32 28  1  0  0  0  0
 32 29  2  0  0  0  0
 33 30  1  0  0  0  0
 34 35  1  0  0  0  0
 34 28  1  0  0  0  0
M  END
>  <MODEL>
2

>  <REMARK>
 VINA RESULT:      -7.1      2.379      3.319
  Name = 
  10 active torsions:
  status: ('A' for Active; 'I' for Inactive)
    1  A    between atoms: C_1  and  O_15
    2  A    between atoms: C_3  and  S_24
    3  A    between atoms: N_6  and  N_27
    4  A    between atoms: N_6  and  C_34
    5  A    between atoms: C_8  and  C_14
    6  A    between atoms: C_8  and  C_30
    7  A    between atoms: C_13  and  S_24
    8  A    between atoms: C_14  and  C_26
    9  A    between atoms: C_22  and  C_28
   10  A    between atoms: C_28  and  C_31
                            x       y       z     vdW  Elec       q    Type
                         _______ _______ _______ _____ _____    ______ ____

>  <TORSDO>
F 10

$$$$
=
 OpenBabel11042410323D

 35 38  0  0  1  0  0  0  0  0999 V2000
  188.4490  177.2230  142.7620 C   0  0  2  0  0  0  0  0  0  0  0  0
  190.2020  177.2480  140.4240 C   0  0  0  0  0  3  0  0  0  0  0  0
  190.6060  176.5150  141.6730 C   0  0  0  0  0  2  0  0  0  0  0  0
  189.3850  176.0470  142.4650 C   0  0  0  0  0  2  0  0  0  0  0  0
  187.2180  176.6850  143.4730 C   0  0  0  0  0  1  0  0  0  0  0  0
  189.0500  177.9310  140.3280 C   0  0  0  0  0  0  0  0  0  0  0  0
  187.9950  177.8430  141.4200 C   0  0  2  0  0  3  0  0  0  0  0  0
  187.1650  179.0460  141.5600 N   0  0  0  0  0  2  0  0  0  0  0  0
  184.7740  178.6850  141.0830 C   0  0  0  0  0  0  0  0  0  0  0  0
  183.6240  178.6180  140.1590 C   0  0  0  0  0  3  0  0  0  0  0  0
  182.4620  178.3150  141.0930 C   0  0  0  0  0  3  0  0  0  0  0  0
  184.4890  178.4600  142.3180 N   0  0  0  0  0  0  0  0  0  0  0  0
  186.0980  178.9850  140.6480 N   0  0  0  0  0  2  0  0  0  0  0  0
  183.0760  178.1830  142.4870 C   0  0  1  0  0  3  0  0  0  0  0  0
  182.4660  179.2090  143.4290 C   0  0  0  0  0  2  0  0  0  0  0  0
  181.0100  179.4830  143.0810 C   0  0  0  0  0  2  0  0  0  0  0  0
  179.6360  177.5700  143.4770 O   0  0  0  0  0  1  0  0  0  0  0  0
  180.0640  178.7740  144.0360 C   0  0  0  0  0  2  0  0  0  0  0  0
  189.2870  178.4600  143.8400 S   0  0  0  0  0  0  0  0  0  0  0  0
  190.1440  176.7420  147.4130 N   0  0  0  0  0  2  0  0  0  0  0  0
  191.4870  177.2820  144.9710 C   0  0  0  0  0  2  0  0  0  0  0  0
  191.4530  176.2010  147.1950 C   0  0  0  0  0  0  0  0  0  0  0  0
  189.9620  177.2630  145.0340 C   0  0  1  0  0  3  0  0  0  0  0  0
  192.0810  176.4010  146.0340 C   0  0  0  0  0  3  0  0  0  0  0  0
  189.5160  177.6370  146.4440 C   0  0  0  0  0  2  0  0  0  0  0  0
  192.1810  175.1700  148.4070 Cl  0  0  0  0  0  0  0  0  0  0  0  0
  188.7190  178.5810  139.0200 C   0  0  0  0  0  2  0  0  0  0  0  0
  188.8230  175.7280  135.8760 C   0  0  0  0  0  0  0  0  0  0  0  0
  187.7670  176.5730  137.8720 C   0  0  0  0  0  3  0  0  0  0  0  0
  189.6940  177.6260  136.9590 N   0  0  0  0  0  0  0  0  0  0  0  0
  188.7280  177.5810  137.9140 C   0  0  0  0  0  0  0  0  0  0  0  0
  187.8120  175.6380  136.8420 C   0  0  0  0  0  3  0  0  0  0  0  0
  189.7380  176.7290  135.9720 N   0  0  0  0  0  0  0  0  0  0  0  0
  188.9140  174.8160  134.8220 O   0  0  0  0  0  0  0  0  0  0  0  0
  188.2570  173.5560  134.8370 C   0  0  0  0  0  1  0  0  0  0  0  0
  1  5  1  1  0  0  0
  1 19  1  0  0  0  0
  2  3  1  0  0  0  0
  3  4  1  0  0  0  0
  4  1  1  0  0  0  0
  6  2  2  0  0  0  0
  6  7  1  0  0  0  0
  7  8  1  1  0  0  0
  7  1  1  0  0  0  0
  9 12  2  0  0  0  0
 10  9  1  0  0  0  0
 10 11  2  0  0  0  0
 11 14  1  0  0  0  0
 12 14  1  0  0  0  0
 13  9  1  0  0  0  0
 13  8  1  0  0  0  0
 14 15  1  1  0  0  0
 16 15  1  0  0  0  0
 16 18  1  0  0  0  0
 17 18  1  0  0  0  0
 21 23  1  0  0  0  0
 21 24  1  0  0  0  0
 22 20  1  0  0  0  0
 22 26  1  0  0  0  0
 23 19  1  6  0  0  0
 23 25  1  0  0  0  0
 24 22  2  0  0  0  0
 25 20  1  0  0  0  0
 27  6  1  0  0  0  0
 28 33  2  0  0  0  0
 28 32  1  0  0  0  0
 29 31  1  0  0  0  0
 30 31  2  0  0  0  0
 31 27  1  0  0  0  0
 32 29  2  0  0  0  0
 33 30  1  0  0  0  0
 34 35  1  0  0  0  0
 34 28  1  0  0  0  0
M  END
>  <MODEL>
3

>  <REMARK>
 VINA RESULT:      -7.1      1.776      1.987
  Name = 
  10 active torsions:
  status: ('A' for Active; 'I' for Inactive)
    1  A    between atoms: C_1  and  O_15
    2  A    between atoms: C_3  and  S_24
    3  A    between atoms: N_6  and  N_27
    4  A    between atoms: N_6  and  C_34
    5  A    between atoms: C_8  and  C_14
    6  A    between atoms: C_8  and  C_30
    7  A    between atoms: C_13  and  S_24
    8  A    between atoms: C_14  and  C_26
    9  A    between atoms: C_22  and  C_28
   10  A    between atoms: C_28  and  C_31
                            x       y       z     vdW  Elec       q    Type
                         _______ _______ _______ _____ _____    ______ ____

>  <TORSDO>
F 10

$$$$
=
 OpenBabel11042410323D

 35 38  0  0  1  0  0  0  0  0999 V2000
  189.6740  177.7420  141.6040 C   0  0  2  0  0  0  0  0  0  0  0  0
  187.4850  178.1680  139.7150 C   0  0  0  0  0  3  0  0  0  0  0  0
  187.3630  178.6280  141.1420 C   0  0  0  0  0  2  0  0  0  0  0  0
  188.7310  178.9420  141.7450 C   0  0  0  0  0  2  0  0  0  0  0  0
  191.0380  178.1410  142.1420 C   0  0  0  0  0  1  0  0  0  0  0  0
  188.5720  177.5330  139.2510 C   0  0  0  0  0  0  0  0  0  0  0  0
  189.8290  177.4120  140.1000 C   0  0  2  0  0  3  0  0  0  0  0  0
  190.6350  176.2160  139.8240 N   0  0  0  0  0  2  0  0  0  0  0  0
  192.1790  175.6620  137.9850 C   0  0  0  0  0  0  0  0  0  0  0  0
  193.2990  175.9890  137.0800 C   0  0  0  0  0  3  0  0  0  0  0  0
  193.3830  174.7550  136.1930 C   0  0  0  0  0  3  0  0  0  0  0  0
  191.6500  174.5040  137.7950 N   0  0  0  0  0  0  0  0  0  0  0  0
  191.7090  176.5610  138.9870 N   0  0  0  0  0  2  0  0  0  0  0  0
  192.3150  173.7960  136.7190 C   0  0  1  0  0  3  0  0  0  0  0  0
  191.3090  173.4780  135.6230 C   0  0  0  0  0  2  0  0  0  0  0  0
  189.9800  174.1770  135.8730 C   0  0  0  0  0  2  0  0  0  0  0  0
  190.4460  176.3100  134.9040 O   0  0  0  0  0  1  0  0  0  0  0  0
  189.6550  175.1690  134.7690 C   0  0  0  0  0  2  0  0  0  0  0  0
  189.0360  176.3020  142.5590 S   0  0  0  0  0  0  0  0  0  0  0  0
  189.4920  177.2850  146.4680 N   0  0  0  0  0  2  0  0  0  0  0  0
  187.3610  176.9970  144.6140 C   0  0  0  0  0  2  0  0  0  0  0  0
  188.1700  177.6900  146.8460 C   0  0  0  0  0  0  0  0  0  0  0  0
  188.7960  177.1930  144.1290 C   0  0  1  0  0  3  0  0  0  0  0  0
  187.1630  177.6100  145.9720 C   0  0  0  0  0  3  0  0  0  0  0  0
  189.7560  176.6470  145.1810 C   0  0  0  0  0  2  0  0  0  0  0  0
  187.8960  178.4080  148.4180 Cl  0  0  0  0  0  0  0  0  0  0  0  0
  188.6140  177.1650  137.8000 C   0  0  0  0  0  2  0  0  0  0  0  0
  184.8220  175.7150  136.5530 C   0  0  0  0  0  0  0  0  0  0  0  0
  186.3350  177.5680  136.8500 C   0  0  0  0  0  3  0  0  0  0  0  0
  186.9750  175.3520  137.4290 N   0  0  0  0  0  0  0  0  0  0  0  0
  187.2830  176.6720  137.3410 C   0  0  0  0  0  0  0  0  0  0  0  0
  185.0920  177.0850  136.4500 C   0  0  0  0  0  3  0  0  0  0  0  0
  185.7840  174.8890  137.0460 N   0  0  0  0  0  0  0  0  0  0  0  0
  183.5920  175.1780  136.1650 O   0  0  0  0  0  0  0  0  0  0  0  0
  182.9220  174.1730  136.9150 C   0  0  0  0  0  1  0  0  0  0  0  0
  1  4  1  0  0  0  0
  1  5  1  1  0  0  0
  1 19  1  0  0  0  0
  2  3  1  0  0  0  0
  3  4  1  0  0  0  0
  6  2  2  0  0  0  0
  6  7  1  0  0  0  0
  7  8  1  1  0  0  0
  7  1  1  0  0  0  0
  9 13  1  0  0  0  0
 10  9  1  0  0  0  0
 11 14  1  0  0  0  0
 11 10  2  0  0  0  0
 12  9  2  0  0  0  0
 13  8  1  0  0  0  0
 14 15  1  6  0  0  0
 14 12  1  0  0  0  0
 15 16  1  0  0  0  0
 18 17  1  0  0  0  0
 18 16  1  0  0  0  0
 20 22  1  0  0  0  0
 21 24  1  0  0  0  0
 22 26  1  0  0  0  0
 23 19  1  6  0  0  0
 23 21  1  0  0  0  0
 23 25  1  0  0  0  0
 24 22  2  0  0  0  0
 25 20  1  0  0  0  0
 27  6  1  0  0  0  0
 28 33  2  0  0  0  0
 29 31  1  0  0  0  0
 31 30  2  0  0  0  0
 31 27  1  0  0  0  0
 32 28  1  0  0  0  0
 32 29  2  0  0  0  0
 33 30  1  0  0  0  0
 34 28  1  0  0  0  0
 34 35  1  0  0  0  0
M  END
>  <MODEL>
4

>  <REMARK>
 VINA RESULT:      -6.9      3.388      6.432
  Name = 
  10 active torsions:
  status: ('A' for Active; 'I' for Inactive)
    1  A    between atoms: C_1  and  O_15
    2  A    between atoms: C_3  and  S_24
    3  A    between atoms: N_6  and  N_27
    4  A    between atoms: N_6  and  C_34
    5  A    between atoms: C_8  and  C_14
    6  A    between atoms: C_8  and  C_30
    7  A    between atoms: C_13  and  S_24
    8  A    between atoms: C_14  and  C_26
    9  A    between atoms: C_22  and  C_28
   10  A    between atoms: C_28  and  C_31
                            x       y       z     vdW  Elec       q    Type
                         _______ _______ _______ _____ _____    ______ ____

>  <TORSDO>
F 10

$$$$
=
 OpenBabel11042410323D

 35 38  0  0  1  0  0  0  0  0999 V2000
  185.1510  178.9630  143.0670 C   0  0  2  0  0  0  0  0  0  0  0  0
  187.4440  178.0090  141.5270 C   0  0  0  0  0  3  0  0  0  0  0  0
  186.3650  178.8230  140.8660 C   0  0  0  0  0  2  0  0  0  0  0  0
  185.6770  179.7530  141.8650 C   0  0  0  0  0  2  0  0  0  0  0  0
  184.5560  179.9460  144.0610 C   0  0  0  0  0  1  0  0  0  0  0  0
  187.3990  177.6680  142.8240 C   0  0  0  0  0  0  0  0  0  0  0  0
  186.3430  178.2510  143.7500 C   0  0  2  0  0  3  0  0  0  0  0  0
  185.9650  177.3760  144.8670 N   0  0  0  0  0  2  0  0  0  0  0  0
  187.3880  177.8650  146.8190 C   0  0  0  0  0  0  0  0  0  0  0  0
  187.6600  178.5590  148.0930 C   0  0  0  0  0  3  0  0  0  0  0  0
  189.0550  178.0690  148.4500 C   0  0  0  0  0  3  0  0  0  0  0  0
  188.3290  177.0840  146.4180 N   0  0  0  0  0  0  0  0  0  0  0  0
  186.1820  178.0500  146.0810 N   0  0  0  0  0  2  0  0  0  0  0  0
  189.4390  177.0800  147.3500 C   0  0  1  0  0  3  0  0  0  0  0  0
  190.7000  177.5470  146.6410 C   0  0  0  0  0  2  0  0  0  0  0  0
  191.6220  176.3780  146.3230 C   0  0  0  0  0  2  0  0  0  0  0  0
  193.2190  175.6640  147.9490 O   0  0  0  0  0  1  0  0  0  0  0  0
  191.8880  175.5260  147.5520 C   0  0  0  0  0  2  0  0  0  0  0  0
  183.8530  177.7680  142.5370 S   0  0  0  0  0  0  0  0  0  0  0  0
  180.4520  179.9180  142.0200 N   0  0  0  0  0  2  0  0  0  0  0  0
  182.4070  178.6620  140.3890 C   0  0  0  0  0  2  0  0  0  0  0  0
  180.4260  180.1280  140.6030 C   0  0  0  0  0  0  0  0  0  0  0  0
  182.7100  179.0050  141.8450 C   0  0  1  0  0  3  0  0  0  0  0  0
  181.3660  179.5880  139.8230 C   0  0  0  0  0  3  0  0  0  0  0  0
  181.4080  179.0030  142.6390 C   0  0  0  0  0  2  0  0  0  0  0  0
  179.2310  181.1980  139.9040 Cl  0  0  0  0  0  0  0  0  0  0  0  0
  188.5520  176.9020  143.3960 C   0  0  0  0  0  2  0  0  0  0  0  0
  191.9080  177.1970  140.8100 C   0  0  0  0  0  0  0  0  0  0  0  0
  190.8460  177.7650  142.8990 C   0  0  0  0  0  3  0  0  0  0  0  0
  189.7570  176.3800  141.3020 N   0  0  0  0  0  0  0  0  0  0  0  0
  189.7470  177.0020  142.5100 C   0  0  0  0  0  0  0  0  0  0  0  0
  191.9400  177.8620  142.0420 C   0  0  0  0  0  3  0  0  0  0  0  0
  190.8050  176.4720  140.4810 N   0  0  0  0  0  0  0  0  0  0  0  0
  192.9780  177.2600  139.9140 O   0  0  0  0  0  0  0  0  0  0  0  0
  192.9010  176.7530  138.5890 C   0  0  0  0  0  1  0  0  0  0  0  0
  1  7  1  0  0  0  0
  1  5  1  1  0  0  0
  2  6  2  0  0  0  0
  3  2  1  0  0  0  0
  3  4  1  0  0  0  0
  4  1  1  0  0  0  0
  6 27  1  0  0  0  0
  6  7  1  0  0  0  0
  7  8  1  6  0  0  0
  8 13  1  0  0  0  0
  9 10  1  0  0  0  0
 10 11  2  0  0  0  0
 12  9  2  0  0  0  0
 12 14  1  0  0  0  0
 13  9  1  0  0  0  0
 14 15  1  6  0  0  0
 14 11  1  0  0  0  0
 16 15  1  0  0  0  0
 16 18  1  0  0  0  0
 18 17  1  0  0  0  0
 19  1  1  0  0  0  0
 20 25  1  0  0  0  0
 21 23  1  0  0  0  0
 22 20  1  0  0  0  0
 23 19  1  1  0  0  0
 23 25  1  0  0  0  0
 24 21  1  0  0  0  0
 24 22  2  0  0  0  0
 26 22  1  0  0  0  0
 28 32  1  0  0  0  0
 30 31  2  0  0  0  0
 31 29  1  0  0  0  0
 31 27  1  0  0  0  0
 32 29  2  0  0  0  0
 33 28  2  0  0  0  0
 33 30  1  0  0  0  0
 34 28  1  0  0  0  0
 35 34  1  0  0  0  0
M  END
>  <MODEL>
5

>  <REMARK>
 VINA RESULT:      -6.8      4.518      7.850
  Name = 
  10 active torsions:
  status: ('A' for Active; 'I' for Inactive)
    1  A    between atoms: C_1  and  O_15
    2  A    between atoms: C_3  and  S_24
    3  A    between atoms: N_6  and  N_27
    4  A    between atoms: N_6  and  C_34
    5  A    between atoms: C_8  and  C_14
    6  A    between atoms: C_8  and  C_30
    7  A    between atoms: C_13  and  S_24
    8  A    between atoms: C_14  and  C_26
    9  A    between atoms: C_22  and  C_28
   10  A    between atoms: C_28  and  C_31
                            x       y       z     vdW  Elec       q    Type
                         _______ _______ _______ _____ _____    ______ ____

>  <TORSDO>
F 10

$$$$
=
 OpenBabel11042410323D

 35 38  0  0  1  0  0  0  0  0999 V2000
  189.4290  176.2750  137.8760 C   0  0  2  0  0  0  0  0  0  0  0  0
  187.3830  178.2330  138.5990 C   0  0  0  0  0  3  0  0  0  0  0  0
  187.3400  177.5420  137.2640 C   0  0  0  0  0  2  0  0  0  0  0  0
  188.0020  176.1660  137.3270 C   0  0  0  0  0  2  0  0  0  0  0  0
  190.0020  174.8730  137.9950 C   0  0  0  0  0  1  0  0  0  0  0  0
  188.3530  178.0070  139.4990 C   0  0  0  0  0  0  0  0  0  0  0  0
  189.3650  176.8900  139.2940 C   0  0  2  0  0  3  0  0  0  0  0  0
  190.6770  177.1410  139.9030 N   0  0  0  0  0  2  0  0  0  0  0  0
  191.0290  176.5930  142.2800 C   0  0  0  0  0  0  0  0  0  0  0  0
  191.2630  175.6310  143.3760 C   0  0  0  0  0  3  0  0  0  0  0  0
  191.2720  176.5240  144.6080 C   0  0  0  0  0  3  0  0  0  0  0  0
  190.9290  177.8210  142.6510 N   0  0  0  0  0  0  0  0  0  0  0  0
  190.9090  176.1950  140.9160 N   0  0  0  0  0  2  0  0  0  0  0  0
  191.0880  177.9490  144.0870 C   0  0  1  0  0  3  0  0  0  0  0  0
  189.8350  178.5690  144.6830 C   0  0  0  0  0  2  0  0  0  0  0  0
  188.8730  177.5010  145.1840 C   0  0  0  0  0  2  0  0  0  0  0  0
  186.9190  177.5610  146.5570 O   0  0  0  0  0  1  0  0  0  0  0  0
  188.2790  177.8710  146.5330 C   0  0  0  0  0  2  0  0  0  0  0  0
  190.4830  177.2740  136.7430 S   0  0  0  0  0  0  0  0  0  0  0  0
  194.2280  175.8600  137.3970 N   0  0  0  0  0  2  0  0  0  0  0  0
  192.3390  175.8900  135.2780 C   0  0  0  0  0  2  0  0  0  0  0  0
  194.4830  175.0910  136.2150 C   0  0  0  0  0  0  0  0  0  0  0  0
  191.8970  176.1280  136.7200 C   0  0  1  0  0  3  0  0  0  0  0  0
  193.5850  175.0510  135.2280 C   0  0  0  0  0  3  0  0  0  0  0  0
  193.0580  176.7290  137.5040 C   0  0  0  0  0  2  0  0  0  0  0  0
  195.9220  174.1010  136.1160 Cl  0  0  0  0  0  0  0  0  0  0  0  0
  188.2710  178.7070  140.8210 C   0  0  0  0  0  2  0  0  0  0  0  0
  184.2760  178.6200  142.2570 C   0  0  0  0  0  0  0  0  0  0  0  0
  186.5690  177.9060  142.4680 C   0  0  0  0  0  3  0  0  0  0  0  0
  185.8940  179.3780  140.7260 N   0  0  0  0  0  0  0  0  0  0  0  0
  186.8780  178.6780  141.3500 C   0  0  0  0  0  0  0  0  0  0  0  0
  185.2540  177.8780  142.9280 C   0  0  0  0  0  3  0  0  0  0  0  0
  184.6350  179.3510  141.1670 N   0  0  0  0  0  0  0  0  0  0  0  0
  182.9430  178.6280  142.6760 O   0  0  0  0  0  0  0  0  0  0  0  0
  182.5460  179.0790  143.9640 C   0  0  0  0  0  1  0  0  0  0  0  0
  1  5  1  1  0  0  0
  1  7  1  0  0  0  0
  2  6  2  0  0  0  0
  3  4  1  0  0  0  0
  3  2  1  0  0  0  0
  4  1  1  0  0  0  0
  6 27  1  0  0  0  0
  7  6  1  0  0  0  0
  7  8  1  6  0  0  0
  8 13  1  0  0  0  0
  9 12  2  0  0  0  0
  9 10  1  0  0  0  0
 10 11  2  0  0  0  0
 12 14  1  0  0  0  0
 13  9  1  0  0  0  0
 14 11  1  0  0  0  0
 14 15  1  1  0  0  0
 15 16  1  0  0  0  0
 16 18  1  0  0  0  0
 18 17  1  0  0  0  0
 19  1  1  0  0  0  0
 20 25  1  0  0  0  0
 21 23  1  0  0  0  0
 22 20  1  0  0  0  0
 23 19  1  6  0  0  0
 23 25  1  0  0  0  0
 24 21  1  0  0  0  0
 24 22  2  0  0  0  0
 26 22  1  0  0  0  0
 27 31  1  0  0  0  0
 28 34  1  0  0  0  0
 28 32  1  0  0  0  0
 29 32  2  0  0  0  0
 30 33  1  0  0  0  0
 30 31  2  0  0  0  0
 31 29  1  0  0  0  0
 33 28  2  0  0  0  0
 34 35  1  0  0  0  0
M  END
>  <MODEL>
6

>  <REMARK>
 VINA RESULT:      -6.8      3.777      7.082
  Name = 
  10 active torsions:
  status: ('A' for Active; 'I' for Inactive)
    1  A    between atoms: C_1  and  O_15
    2  A    between atoms: C_3  and  S_24
    3  A    between atoms: N_6  and  N_27
    4  A    between atoms: N_6  and  C_34
    5  A    between atoms: C_8  and  C_14
    6  A    between atoms: C_8  and  C_30
    7  A    between atoms: C_13  and  S_24
    8  A    between atoms: C_14  and  C_26
    9  A    between atoms: C_22  and  C_28
   10  A    between atoms: C_28  and  C_31
                            x       y       z     vdW  Elec       q    Type
                         _______ _______ _______ _____ _____    ______ ____

>  <TORSDO>
F 10

$$$$
=
 OpenBabel11042410323D

 35 38  0  0  1  0  0  0  0  0999 V2000
  188.7940  177.1690  142.5010 C   0  0  2  0  0  0  0  0  0  0  0  0
  190.4990  177.3790  140.1370 C   0  0  0  0  0  3  0  0  0  0  0  0
  190.9790  176.6510  141.3610 C   0  0  0  0  0  2  0  0  0  0  0  0
  189.8110  176.0740  142.1610 C   0  0  0  0  0  2  0  0  0  0  0  0
  187.6210  176.5240  143.2180 C   0  0  0  0  0  1  0  0  0  0  0  0
  189.2980  177.9750  140.0750 C   0  0  0  0  0  0  0  0  0  0  0  0
  188.2710  177.7840  141.1810 C   0  0  2  0  0  3  0  0  0  0  0  0
  187.3560  178.9170  141.3630 N   0  0  0  0  0  2  0  0  0  0  0  0
  184.9060  178.6990  141.5140 C   0  0  0  0  0  0  0  0  0  0  0  0
  183.6770  178.2530  142.1990 C   0  0  0  0  0  3  0  0  0  0  0  0
  182.5820  178.6700  141.2280 C   0  0  0  0  0  3  0  0  0  0  0  0
  184.7130  179.2900  140.3880 N   0  0  0  0  0  0  0  0  0  0  0  0
  186.2100  178.4840  142.0500 N   0  0  0  0  0  2  0  0  0  0  0  0
  183.2990  179.3780  140.0780 C   0  0  1  0  0  3  0  0  0  0  0  0
  183.0220  178.6600  138.7660 C   0  0  0  0  0  2  0  0  0  0  0  0
  181.9640  179.3890  137.9500 C   0  0  0  0  0  2  0  0  0  0  0  0
  181.1790  181.6120  137.5660 O   0  0  0  0  0  1  0  0  0  0  0  0
  181.6170  180.7370  138.5590 C   0  0  0  0  0  2  0  0  0  0  0  0
  189.5560  178.4420  143.5940 S   0  0  0  0  0  0  0  0  0  0  0  0
  190.2420  177.0060  147.3260 N   0  0  0  0  0  2  0  0  0  0  0  0
  191.5900  177.0840  144.8290 C   0  0  0  0  0  2  0  0  0  0  0  0
  191.4540  176.2610  147.1570 C   0  0  0  0  0  0  0  0  0  0  0  0
  190.0800  177.2930  144.9060 C   0  0  1  0  0  3  0  0  0  0  0  0
  192.0770  176.2430  145.9760 C   0  0  0  0  0  3  0  0  0  0  0  0
  189.7270  177.8750  146.2700 C   0  0  0  0  0  2  0  0  0  0  0  0
  192.0550  175.2710  148.4680 Cl  0  0  0  0  0  0  0  0  0  0  0  0
  188.8950  178.6280  138.7880 C   0  0  0  0  0  2  0  0  0  0  0  0
  186.2550  176.0800  136.6500 C   0  0  0  0  0  0  0  0  0  0  0  0
  186.7210  178.2400  137.6140 C   0  0  0  0  0  3  0  0  0  0  0  0
  188.3020  176.4680  137.7430 N   0  0  0  0  0  0  0  0  0  0  0  0
  187.9620  177.7540  138.0210 C   0  0  0  0  0  0  0  0  0  0  0  0
  185.8590  177.3960  136.9190 C   0  0  0  0  0  3  0  0  0  0  0  0
  187.4760  175.6590  137.0770 N   0  0  0  0  0  0  0  0  0  0  0  0
  185.4290  175.1920  135.9560 O   0  0  0  0  0  0  0  0  0  0  0  0
  185.4230  173.7930  136.2060 C   0  0  0  0  0  1  0  0  0  0  0  0
  1  5  1  1  0  0  0
  1 19  1  0  0  0  0
  2  3  1  0  0  0  0
  3  4  1  0  0  0  0
  4  1  1  0  0  0  0
  6  2  2  0  0  0  0
  6  7  1  0  0  0  0
  7  8  1  1  0  0  0
  7  1  1  0  0  0  0
  8 13  1  0  0  0  0
  9 13  1  0  0  0  0
  9 10  1  0  0  0  0
 11 10  2  0  0  0  0
 12  9  2  0  0  0  0
 14 15  1  6  0  0  0
 14 12  1  0  0  0  0
 14 11  1  0  0  0  0
 16 18  1  0  0  0  0
 16 15  1  0  0  0  0
 17 18  1  0  0  0  0
 21 23  1  0  0  0  0
 21 24  1  0  0  0  0
 22 20  1  0  0  0  0
 22 26  1  0  0  0  0
 23 19  1  6  0  0  0
 23 25  1  0  0  0  0
 24 22  2  0  0  0  0
 25 20  1  0  0  0  0
 27  6  1  0  0  0  0
 28 32  1  0  0  0  0
 28 33  2  0  0  0  0
 29 31  1  0  0  0  0
 30 31  2  0  0  0  0
 31 27  1  0  0  0  0
 32 29  2  0  0  0  0
 33 30  1  0  0  0  0
 34 35  1  0  0  0  0
 34 28  1  0  0  0  0
M  END
>  <MODEL>
7

>  <REMARK>
 VINA RESULT:      -6.7      2.054      2.844
  Name = 
  10 active torsions:
  status: ('A' for Active; 'I' for Inactive)
    1  A    between atoms: C_1  and  O_15
    2  A    between atoms: C_3  and  S_24
    3  A    between atoms: N_6  and  N_27
    4  A    between atoms: N_6  and  C_34
    5  A    between atoms: C_8  and  C_14
    6  A    between atoms: C_8  and  C_30
    7  A    between atoms: C_13  and  S_24
    8  A    between atoms: C_14  and  C_26
    9  A    between atoms: C_22  and  C_28
   10  A    between atoms: C_28  and  C_31
                            x       y       z     vdW  Elec       q    Type
                         _______ _______ _______ _____ _____    ______ ____

>  <TORSDO>
F 10

$$$$
=
 OpenBabel11042410323D

 35 38  0  0  1  0  0  0  0  0999 V2000
  188.6790  177.5100  137.0290 C   0  0  2  0  0  0  0  0  0  0  0  0
  190.8160  175.5370  136.7450 C   0  0  0  0  0  3  0  0  0  0  0  0
  189.6210  175.5050  135.8330 C   0  0  0  0  0  2  0  0  0  0  0  0
  189.0100  176.8960  135.6650 C   0  0  0  0  0  2  0  0  0  0  0  0
  188.1570  178.9190  136.8040 C   0  0  0  0  0  1  0  0  0  0  0  0
  190.9500  176.4400  137.7290 C   0  0  0  0  0  0  0  0  0  0  0  0
  189.9840  177.6080  137.8550 C   0  0  2  0  0  3  0  0  0  0  0  0
  189.7950  178.0940  139.2280 N   0  0  0  0  0  2  0  0  0  0  0  0
  189.6140  177.0580  141.4560 C   0  0  0  0  0  0  0  0  0  0  0  0
  189.9490  176.0050  142.4360 C   0  0  0  0  0  3  0  0  0  0  0  0
  189.1190  176.4000  143.6480 C   0  0  0  0  0  3  0  0  0  0  0  0
  188.7950  177.9530  141.8850 N   0  0  0  0  0  0  0  0  0  0  0  0
  190.1450  177.0790  140.1330 N   0  0  0  0  0  2  0  0  0  0  0  0
  188.4110  177.6970  143.2590 C   0  0  1  0  0  3  0  0  0  0  0  0
  186.9030  177.5160  143.3390 C   0  0  0  0  0  2  0  0  0  0  0  0
  186.4070  177.6290  144.7730 C   0  0  0  0  0  2  0  0  0  0  0  0
  185.3980  179.3130  146.1340 O   0  0  0  0  0  1  0  0  0  0  0  0
  185.3020  178.6630  144.9030 C   0  0  0  0  0  2  0  0  0  0  0  0
  187.3950  176.5110  137.8940 S   0  0  0  0  0  0  0  0  0  0  0  0
  184.9930  179.3680  139.4840 N   0  0  0  0  0  2  0  0  0  0  0  0
  184.7730  177.2510  137.6040 C   0  0  0  0  0  2  0  0  0  0  0  0
  183.7940  179.2340  138.7100 C   0  0  0  0  0  0  0  0  0  0  0  0
  186.1380  177.8260  137.9740 C   0  0  1  0  0  3  0  0  0  0  0  0
  183.6890  178.2770  137.7860 C   0  0  0  0  0  3  0  0  0  0  0  0
  186.0740  178.3890  139.3910 C   0  0  0  0  0  2  0  0  0  0  0  0
  182.5090  180.4070  138.8910 Cl  0  0  0  0  0  0  0  0  0  0  0  0
  192.2050  176.4180  138.5460 C   0  0  0  0  0  2  0  0  0  0  0  0
  195.5280  175.1410  136.2310 C   0  0  0  0  0  0  0  0  0  0  0  0
  193.8770  174.6660  137.9230 C   0  0  0  0  0  3  0  0  0  0  0  0
  193.9370  176.7720  136.8180 N   0  0  0  0  0  0  0  0  0  0  0  0
  193.3600  175.9460  137.7300 C   0  0  0  0  0  0  0  0  0  0  0  0
  194.9710  174.2580  137.1640 C   0  0  0  0  0  3  0  0  0  0  0  0
  194.9860  176.3800  136.0910 N   0  0  0  0  0  0  0  0  0  0  0  0
  196.6260  174.7820  135.4440 O   0  0  0  0  0  0  0  0  0  0  0  0
  197.5030  175.7390  134.8670 C   0  0  0  0  0  1  0  0  0  0  0  0
  1  5  1  6  0  0  0
  1  7  1  0  0  0  0
  1 19  1  0  0  0  0
  2  6  2  0  0  0  0
  3  2  1  0  0  0  0
  4  3  1  0  0  0  0
  4  1  1  0  0  0  0
  6  7  1  0  0  0  0
  6 27  1  0  0  0  0
  7  8  1  1  0  0  0
  8 13  1  0  0  0  0
  9 12  2  0  0  0  0
  9 10  1  0  0  0  0
 10 11  2  0  0  0  0
 12 14  1  0  0  0  0
 13  9  1  0  0  0  0
 14 15  1  6  0  0  0
 14 11  1  0  0  0  0
 15 16  1  0  0  0  0
 16 18  1  0  0  0  0
 18 17  1  0  0  0  0
 21 24  1  0  0  0  0
 21 23  1  0  0  0  0
 22 26  1  0  0  0  0
 22 20  1  0  0  0  0
 23 19  1  1  0  0  0
 23 25  1  0  0  0  0
 24 22  2  0  0  0  0
 25 20  1  0  0  0  0
 28 32  1  0  0  0  0
 30 31  2  0  0  0  0
 31 29  1  0  0  0  0
 31 27  1  0  0  0  0
 32 29  2  0  0  0  0
 33 28  2  0  0  0  0
 33 30  1  0  0  0  0
 34 28  1  0  0  0  0
 35 34  1  0  0  0  0
M  END
>  <MODEL>
8

>  <REMARK>
 VINA RESULT:      -6.7      4.628      7.311
  Name = 
  10 active torsions:
  status: ('A' for Active; 'I' for Inactive)
    1  A    between atoms: C_1  and  O_15
    2  A    between atoms: C_3  and  S_24
    3  A    between atoms: N_6  and  N_27
    4  A    between atoms: N_6  and  C_34
    5  A    between atoms: C_8  and  C_14
    6  A    between atoms: C_8  and  C_30
    7  A    between atoms: C_13  and  S_24
    8  A    between atoms: C_14  and  C_26
    9  A    between atoms: C_22  and  C_28
   10  A    between atoms: C_28  and  C_31
                            x       y       z     vdW  Elec       q    Type
                         _______ _______ _______ _____ _____    ______ ____

>  <TORSDO>
F 10

$$$$
=
 OpenBabel11042410323D

 35 38  0  0  1  0  0  0  0  0999 V2000
  189.0670  177.0730  142.4700 C   0  0  2  0  0  0  0  0  0  0  0  0
  190.7500  177.3920  140.1030 C   0  0  0  0  0  3  0  0  0  0  0  0
  191.2480  176.6240  141.2950 C   0  0  0  0  0  2  0  0  0  0  0  0
  190.0930  176.0040  142.0810 C   0  0  0  0  0  2  0  0  0  0  0  0
  187.9060  176.3870  143.1710 C   0  0  0  0  0  1  0  0  0  0  0  0
  189.5420  177.9760  140.0720 C   0  0  0  0  0  0  0  0  0  0  0  0
  188.5260  177.7300  141.1780 C   0  0  2  0  0  3  0  0  0  0  0  0
  187.5990  178.8450  141.4100 N   0  0  0  0  0  2  0  0  0  0  0  0
  185.2740  178.6090  140.6300 C   0  0  0  0  0  0  0  0  0  0  0  0
  184.2420  178.6460  139.5730 C   0  0  0  0  0  3  0  0  0  0  0  0
  182.9670  178.3310  140.3410 C   0  0  0  0  0  3  0  0  0  0  0  0
  184.8340  178.3190  141.8040 N   0  0  0  0  0  0  0  0  0  0  0  0
  186.6490  178.8830  140.3760 N   0  0  0  0  0  2  0  0  0  0  0  0
  183.4030  178.0870  141.7850 C   0  0  1  0  0  3  0  0  0  0  0  0
  182.7170  179.0750  142.7150 C   0  0  0  0  0  2  0  0  0  0  0  0
  182.8510  178.6510  144.1700 C   0  0  0  0  0  2  0  0  0  0  0  0
  184.1010  179.0120  146.1740 O   0  0  0  0  0  1  0  0  0  0  0  0
  184.1350  179.1770  144.7890 C   0  0  0  0  0  2  0  0  0  0  0  0
  189.8220  178.3120  143.6050 S   0  0  0  0  0  0  0  0  0  0  0  0
  187.2990  177.8570  146.7490 N   0  0  0  0  0  2  0  0  0  0  0  0
  190.1020  177.8560  146.2920 C   0  0  0  0  0  2  0  0  0  0  0  0
  188.1860  177.4770  147.8100 C   0  0  0  0  0  0  0  0  0  0  0  0
  189.1240  177.6290  145.1420 C   0  0  1  0  0  3  0  0  0  0  0  0
  189.5030  177.4210  147.6010 C   0  0  0  0  0  3  0  0  0  0  0  0
  187.8070  178.3270  145.4620 C   0  0  0  0  0  2  0  0  0  0  0  0
  187.5300  176.9650  149.3490 Cl  0  0  0  0  0  0  0  0  0  0  0  0
  189.1210  178.6720  138.8140 C   0  0  0  0  0  2  0  0  0  0  0  0
  188.4080  175.8660  135.7080 C   0  0  0  0  0  0  0  0  0  0  0  0
  189.4140  177.9290  136.4440 C   0  0  0  0  0  3  0  0  0  0  0  0
  188.1570  176.5720  137.9380 N   0  0  0  0  0  0  0  0  0  0  0  0
  188.8970  177.6890  137.7160 C   0  0  0  0  0  0  0  0  0  0  0  0
  189.1700  177.0070  135.4300 C   0  0  0  0  0  3  0  0  0  0  0  0
  187.9220  175.6880  136.9660 N   0  0  0  0  0  0  0  0  0  0  0  0
  188.1330  174.9090  134.7270 O   0  0  0  0  0  0  0  0  0  0  0  0
  187.8820  173.5450  135.0340 C   0  0  0  0  0  1  0  0  0  0  0  0
  1  5  1  1  0  0  0
  1 19  1  0  0  0  0
  2  3  1  0  0  0  0
  3  4  1  0  0  0  0
  4  1  1  0  0  0  0
  6  2  2  0  0  0  0
  6  7  1  0  0  0  0
  7  8  1  1  0  0  0
  7  1  1  0  0  0  0
  9 12  2  0  0  0  0
 10 11  2  0  0  0  0
 10  9  1  0  0  0  0
 11 14  1  0  0  0  0
 13  9  1  0  0  0  0
 13  8  1  0  0  0  0
 14 12  1  0  0  0  0
 14 15  1  1  0  0  0
 15 16  1  0  0  0  0
 16 18  1  0  0  0  0
 18 17  1  0  0  0  0
 20 22  1  0  0  0  0
 21 24  1  0  0  0  0
 22 26  1  0  0  0  0
 23 19  1  6  0  0  0
 23 25  1  0  0  0  0
 23 21  1  0  0  0  0
 24 22  2  0  0  0  0
 25 20  1  0  0  0  0
 27  6  1  0  0  0  0
 28 33  2  0  0  0  0
 29 31  1  0  0  0  0
 31 30  2  0  0  0  0
 31 27  1  0  0  0  0
 32 28  1  0  0  0  0
 32 29  2  0  0  0  0
 33 30  1  0  0  0  0
 34 35  1  0  0  0  0
 34 28  1  0  0  0  0
M  END
>  <MODEL>
9

>  <REMARK>
 VINA RESULT:      -6.6      1.616      1.816
  Name = 
  10 active torsions:
  status: ('A' for Active; 'I' for Inactive)
    1  A    between atoms: C_1  and  O_15
    2  A    between atoms: C_3  and  S_24
    3  A    between atoms: N_6  and  N_27
    4  A    between atoms: N_6  and  C_34
    5  A    between atoms: C_8  and  C_14
    6  A    between atoms: C_8  and  C_30
    7  A    between atoms: C_13  and  S_24
    8  A    between atoms: C_14  and  C_26
    9  A    between atoms: C_22  and  C_28
   10  A    between atoms: C_28  and  C_31
                            x       y       z     vdW  Elec       q    Type
                         _______ _______ _______ _____ _____    ______ ____

>  <TORSDO>
F 10

$$$$
