=
 OpenBabel11042412513D

 43 47  0  0  1  0  0  0  0  0999 V2000
  189.7980  177.3910  140.9200 C   0  0  0  0  0  0  0  0  0  0  0  0
  191.0550  177.0510  140.3200 N   0  0  0  0  0  0  0  0  0  0  0  0
  189.6220  177.2550  142.3040 C   0  0  0  0  0  0  0  0  0  0  0  0
  188.0240  178.4220  137.9330 O   0  0  0  0  0  0  0  0  0  0  0  0
  191.3080  178.1040  144.8800 O   0  0  0  0  0  1  0  0  0  0  0  0
  188.9730  176.7680  146.4610 N   0  0  0  0  0  2  0  0  0  0  0  0
  190.6160  176.9380  144.5440 C   0  0  1  0  0  3  0  0  0  0  0  0
  187.5190  178.2130  140.7210 C   0  0  0  0  0  3  0  0  0  0  0  0
  189.2040  177.0240  145.0750 C   0  0  0  0  0  0  0  0  0  0  0  0
  190.2490  177.5830  138.0510 C   0  0  0  0  0  2  0  0  0  0  0  0
  190.6470  176.7640  143.1220 O   0  0  0  0  0  0  0  0  0  0  0  0
  188.2170  177.3690  144.2960 N   0  0  0  0  0  0  0  0  0  0  0  0
  188.3980  177.5910  142.8920 C   0  0  0  0  0  0  0  0  0  0  0  0
  188.7430  177.8700  140.1260 C   0  0  0  0  0  0  0  0  0  0  0  0
  187.3450  178.0700  142.1040 C   0  0  0  0  0  3  0  0  0  0  0  0
  188.9460  177.9910  138.6750 C   0  0  0  0  0  0  0  0  0  0  0  0
  191.2930  177.1300  139.0390 C   0  0  0  0  0  0  0  0  0  0  0  0
  192.8510  175.6160  137.8930 C   0  0  0  0  0  3  0  0  0  0  0  0
  192.6160  176.7710  138.5090 C   0  0  0  0  0  3  0  0  0  0  0  0
  195.5020  173.8530  136.3080 C   0  0  0  0  0  2  0  0  0  0  0  0
  195.3310  174.9390  138.7460 S   0  0  0  0  0  0  0  0  0  0  0  0
  196.2020  172.4790  138.1860 N   0  0  0  0  0  1  0  0  0  0  0  0
  194.1650  174.2080  136.5160 O   0  0  0  0  0  0  0  0  0  0  0  0
  194.2120  175.3100  137.3740 C   0  0  1  0  0  3  0  0  0  0  0  0
  196.2210  173.8210  137.6380 C   0  0  1  0  0  0  0  0  0  0  0  0
  198.9660  173.0270  137.3600 O   0  0  0  0  0  1  0  0  0  0  0  0
  198.0620  175.1550  136.1390 O   0  0  0  0  0  0  0  0  0  0  0  0
  197.9380  174.3740  137.4290 P   0  0  0  0  0  0  0  0  0  0  0  0
  198.3780  175.3640  138.7320 O   0  0  0  0  0  1  0  0  0  0  0  0
  187.6660  176.9050  147.0930 C   0  0  0  0  0  2  0  0  0  0  0  0
  187.2770  178.3720  147.1970 C   0  0  2  0  0  3  0  0  0  0  0  0
  187.7970  178.9040  148.3810 O   0  0  0  0  0  1  0  0  0  0  0  0
  185.0970  178.9400  146.0440 C   0  0  0  0  0  0  0  0  0  0  0  0
  184.6390  179.6220  143.9610 C   0  0  0  0  0  2  0  0  0  0  0  0
  185.6670  179.2570  144.9280 N   0  0  0  0  0  0  0  0  0  0  0  0
  183.3210  179.4870  144.7450 C   0  0  2  0  0  3  0  0  0  0  0  0
  183.7230  179.0360  146.0280 O   0  0  0  0  0  0  0  0  0  0  0  0
  185.8260  178.5080  147.1980 N   0  0  0  0  0  2  0  0  0  0  0  0
  182.3600  178.4850  144.0970 C   0  0  0  0  0  2  0  0  0  0  0  0
  181.7030  179.0430  142.8310 C   0  0  0  0  0  2  0  0  0  0  0  0
  180.0790  180.8120  142.7100 O   0  0  0  0  0  1  0  0  0  0  0  0
  179.2670  178.6030  142.3430 C   0  0  0  0  0  1  0  0  0  0  0  0
  180.2590  179.4800  143.0860 C   0  0  1  0  0  3  0  0  0  0  0  0
  1  3  1  0  0  0  0
  2  1  1  0  0  0  0
  3 13  2  0  0  0  0
  3 11  1  0  0  0  0
  4 16  2  0  0  0  0
  6 30  1  0  0  0  0
  7  5  1  6  0  0  0
  7  9  1  0  0  0  0
  8 15  2  0  0  0  0
  9  6  1  0  0  0  0
 10 16  1  0  0  0  0
 10 17  1  0  0  0  0
 11  7  1  0  0  0  0
 12  9  2  0  0  0  0
 13 12  1  0  0  0  0
 14  8  1  0  0  0  0
 14  1  2  0  0  0  0
 15 13  1  0  0  0  0
 16 14  1  0  0  0  0
 17  2  2  0  0  0  0
 18 19  2  0  0  0  0
 19 17  1  0  0  0  0
 20 23  1  0  0  0  0
 20 25  1  0  0  0  0
 23 24  1  0  0  0  0
 24 18  1  1  0  0  0
 24 21  1  0  0  0  0
 25 22  1  1  0  0  0
 25 21  1  0  0  0  0
 26 28  1  0  0  0  0
 27 28  2  0  0  0  0
 28 25  1  0  0  0  0
 28 29  1  0  0  0  0
 30 31  1  0  0  0  0
 31 38  1  0  0  0  0
 31 32  1  1  0  0  0
 33 38  1  0  0  0  0
 34 36  1  0  0  0  0
 34 35  1  0  0  0  0
 35 33  2  0  0  0  0
 36 39  1  6  0  0  0
 36 37  1  0  0  0  0
 37 33  1  0  0  0  0
 40 43  1  0  0  0  0
 40 39  1  0  0  0  0
 41 43  1  0  0  0  0
 43 42  1  6  0  0  0
M  END
>  <MODEL>
1

>  <REMARK>
 VINA RESULT:      -9.0      0.000      0.000
  Name = 
  9 active torsions:
  status: ('A' for Active; 'I' for Inactive)
    1  A    between atoms: C_1  and  C_34
    2  A    between atoms: C_2  and  C_8
    3  A    between atoms: C_2  and  N_36
    4  A    between atoms: C_8  and  N_18
    5  A    between atoms: C_21  and  C_23
    6  A    between atoms: C_23  and  C_24
    7  A    between atoms: C_24  and  C_31
    8  A    between atoms: P_25  and  C_43
    9  A    between atoms: C_41  and  C_42
                            x       y       z     vdW  Elec       q    Type
                         _______ _______ _______ _____ _____    ______ ____

>  <TORSDO>
F 9

$$$$
=
 OpenBabel11042412513D

 43 47  0  0  1  0  0  0  0  0999 V2000
  189.7690  177.3690  141.2440 C   0  0  0  0  0  0  0  0  0  0  0  0
  190.9820  177.0290  140.5590 N   0  0  0  0  0  0  0  0  0  0  0  0
  189.6870  177.2270  142.6370 C   0  0  0  0  0  0  0  0  0  0  0  0
  187.7990  178.4180  138.3900 O   0  0  0  0  0  0  0  0  0  0  0  0
  191.5460  178.0600  145.0960 O   0  0  0  0  0  1  0  0  0  0  0  0
  189.3220  176.7220  146.8250 N   0  0  0  0  0  2  0  0  0  0  0  0
  190.8310  176.8980  144.8030 C   0  0  1  0  0  3  0  0  0  0  0  0
  187.4840  178.1960  141.2040 C   0  0  0  0  0  3  0  0  0  0  0  0
  189.4580  176.9840  145.4290 C   0  0  0  0  0  0  0  0  0  0  0  0
  190.0240  177.5740  138.3520 C   0  0  0  0  0  2  0  0  0  0  0  0
  190.7650  176.7300  143.3810 O   0  0  0  0  0  0  0  0  0  0  0  0
  188.4220  177.3350  144.7200 N   0  0  0  0  0  0  0  0  0  0  0  0
  188.5070  177.5630  143.3080 C   0  0  0  0  0  0  0  0  0  0  0  0
  188.6640  177.8540  140.5270 C   0  0  0  0  0  0  0  0  0  0  0  0
  187.4040  178.0470  142.5950 C   0  0  0  0  0  3  0  0  0  0  0  0
  188.7680  177.9810  139.0660 C   0  0  0  0  0  0  0  0  0  0  0  0
  191.1320  177.1130  139.2650 C   0  0  0  0  0  0  0  0  0  0  0  0
  192.5040  176.2950  137.3990 C   0  0  0  0  0  3  0  0  0  0  0  0
  192.4150  176.7550  138.6440 C   0  0  0  0  0  3  0  0  0  0  0  0
  194.9340  175.0270  135.1340 C   0  0  0  0  0  2  0  0  0  0  0  0
  194.5740  174.5840  137.7460 S   0  0  0  0  0  0  0  0  0  0  0  0
  194.9580  172.7150  135.8800 N   0  0  0  0  0  1  0  0  0  0  0  0
  193.6960  175.5740  135.4850 O   0  0  0  0  0  0  0  0  0  0  0  0
  193.8320  175.9520  136.8230 C   0  0  1  0  0  3  0  0  0  0  0  0
  195.3760  174.0630  136.2110 C   0  0  1  0  0  0  0  0  0  0  0  0
  197.6720  172.9930  137.5620 O   0  0  0  0  0  1  0  0  0  0  0  0
  197.8310  173.7700  135.0700 O   0  0  0  0  0  0  0  0  0  0  0  0
  197.1820  174.1190  136.3920 P   0  0  0  0  0  0  0  0  0  0  0  0
  197.6560  175.6760  136.8600 O   0  0  0  0  0  1  0  0  0  0  0  0
  188.0600  176.8590  147.5460 C   0  0  0  0  0  2  0  0  0  0  0  0
  187.4100  178.1970  147.2280 C   0  0  2  0  0  3  0  0  0  0  0  0
  187.6150  179.0750  148.2960 O   0  0  0  0  0  1  0  0  0  0  0  0
  185.2640  178.7400  146.0010 C   0  0  0  0  0  0  0  0  0  0  0  0
  184.8220  180.1280  144.3010 C   0  0  0  0  0  2  0  0  0  0  0  0
  185.8240  179.6080  145.2230 N   0  0  0  0  0  0  0  0  0  0  0  0
  183.5240  179.4090  144.7090 C   0  0  2  0  0  3  0  0  0  0  0  0
  183.9200  178.5510  145.7670 O   0  0  0  0  0  0  0  0  0  0  0  0
  185.9790  178.0200  147.0110 N   0  0  0  0  0  2  0  0  0  0  0  0
  182.9200  178.6020  143.5570 C   0  0  0  0  0  2  0  0  0  0  0  0
  183.9470  178.2790  142.4680 C   0  0  0  0  0  2  0  0  0  0  0  0
  184.3820  179.4820  140.4310 O   0  0  0  0  0  1  0  0  0  0  0  0
  183.1460  177.4560  140.2220 C   0  0  0  0  0  1  0  0  0  0  0  0
  183.4450  178.6740  141.0770 C   0  0  1  0  0  3  0  0  0  0  0  0
  1  3  1  0  0  0  0
  2  1  1  0  0  0  0
  3 13  2  0  0  0  0
  3 11  1  0  0  0  0
  4 16  2  0  0  0  0
  6 30  1  0  0  0  0
  7  5  1  6  0  0  0
  7  9  1  0  0  0  0
  8 15  2  0  0  0  0
  9  6  1  0  0  0  0
 10 16  1  0  0  0  0
 10 17  1  0  0  0  0
 11  7  1  0  0  0  0
 12  9  2  0  0  0  0
 13 12  1  0  0  0  0
 14  8  1  0  0  0  0
 14  1  2  0  0  0  0
 15 13  1  0  0  0  0
 16 14  1  0  0  0  0
 17  2  2  0  0  0  0
 18 19  2  0  0  0  0
 19 17  1  0  0  0  0
 20 23  1  0  0  0  0
 20 25  1  0  0  0  0
 23 24  1  0  0  0  0
 24 18  1  1  0  0  0
 24 21  1  0  0  0  0
 25 22  1  6  0  0  0
 25 28  1  0  0  0  0
 25 21  1  0  0  0  0
 27 28  2  0  0  0  0
 28 29  1  0  0  0  0
 28 26  1  0  0  0  0
 31 30  1  0  0  0  0
 31 32  1  1  0  0  0
 33 38  1  0  0  0  0
 34 36  1  0  0  0  0
 34 35  1  0  0  0  0
 35 33  2  0  0  0  0
 36 39  1  6  0  0  0
 36 37  1  0  0  0  0
 37 33  1  0  0  0  0
 38 31  1  0  0  0  0
 40 39  1  0  0  0  0
 41 43  1  0  0  0  0
 43 42  1  6  0  0  0
 43 40  1  0  0  0  0
M  END
>  <MODEL>
2

>  <REMARK>
 VINA RESULT:      -9.0      1.370      1.542
  Name = 
  9 active torsions:
  status: ('A' for Active; 'I' for Inactive)
    1  A    between atoms: C_1  and  C_34
    2  A    between atoms: C_2  and  C_8
    3  A    between atoms: C_2  and  N_36
    4  A    between atoms: C_8  and  N_18
    5  A    between atoms: C_21  and  C_23
    6  A    between atoms: C_23  and  C_24
    7  A    between atoms: C_24  and  C_31
    8  A    between atoms: P_25  and  C_43
    9  A    between atoms: C_41  and  C_42
                            x       y       z     vdW  Elec       q    Type
                         _______ _______ _______ _____ _____    ______ ____

>  <TORSDO>
F 9

$$$$
=
 OpenBabel11042412513D

 43 47  0  0  1  0  0  0  0  0999 V2000
  188.5080  174.8000  136.5630 C   0  0  0  0  0  0  0  0  0  0  0  0
  189.9330  174.7900  136.7220 N   0  0  0  0  0  0  0  0  0  0  0  0
  187.7510  175.8530  137.0940 C   0  0  0  0  0  0  0  0  0  0  0  0
  188.1390  171.7130  134.7010 O   0  0  0  0  0  0  0  0  0  0  0  0
  187.9790  179.0380  137.0380 O   0  0  0  0  0  1  0  0  0  0  0  0
  185.3820  178.9420  138.7630 N   0  0  0  0  0  2  0  0  0  0  0  0
  187.6700  178.1300  138.0520 C   0  0  1  0  0  3  0  0  0  0  0  0
  186.4730  173.7820  135.7080 C   0  0  0  0  0  3  0  0  0  0  0  0
  186.1720  177.9440  138.1170 C   0  0  0  0  0  0  0  0  0  0  0  0
  190.1640  172.6320  135.5490 C   0  0  0  0  0  2  0  0  0  0  0  0
  188.3560  176.8970  137.8070 O   0  0  0  0  0  0  0  0  0  0  0  0
  185.6020  176.9140  137.5560 N   0  0  0  0  0  0  0  0  0  0  0  0
  186.3600  175.8680  136.9370 C   0  0  0  0  0  0  0  0  0  0  0  0
  187.8660  173.7610  135.8700 C   0  0  0  0  0  0  0  0  0  0  0  0
  185.7190  174.8340  136.2450 C   0  0  0  0  0  3  0  0  0  0  0  0
  188.6790  172.6590  135.3340 C   0  0  0  0  0  0  0  0  0  0  0  0
  190.7060  173.8380  136.2750 C   0  0  0  0  0  0  0  0  0  0  0  0
  192.9630  172.8690  136.2810 C   0  0  0  0  0  3  0  0  0  0  0  0
  192.1610  173.9130  136.4710 C   0  0  0  0  0  3  0  0  0  0  0  0
  196.1350  172.7140  137.8810 C   0  0  0  0  0  2  0  0  0  0  0  0
  194.8650  174.7500  136.7000 S   0  0  0  0  0  0  0  0  0  0  0  0
  196.0320  174.8140  139.1000 N   0  0  0  0  0  1  0  0  0  0  0  0
  194.8220  172.3020  137.6330 O   0  0  0  0  0  0  0  0  0  0  0  0
  194.4290  173.0070  136.4910 C   0  0  1  0  0  3  0  0  0  0  0  0
  196.2090  174.2220  137.7880 C   0  0  1  0  0  0  0  0  0  0  0  0
  198.3590  173.5440  136.0120 O   0  0  0  0  0  0  0  0  0  0  0  0
  197.6580  176.0370  136.3660 O   0  0  0  0  0  1  0  0  0  0  0  0
  197.8130  174.7230  137.1000 P   0  0  0  0  0  0  0  0  0  0  0  0
  198.9360  174.9080  138.3560 O   0  0  0  0  0  1  0  0  0  0  0  0
  183.9240  178.9030  138.8090 C   0  0  0  0  0  2  0  0  0  0  0  0
  183.4400  178.7540  140.2430 C   0  0  2  0  0  3  0  0  0  0  0  0
  182.4370  179.6940  140.4920 O   0  0  0  0  0  1  0  0  0  0  0  0
  184.3670  178.9490  142.5910 C   0  0  0  0  0  0  0  0  0  0  0  0
  183.3970  178.7830  144.6010 C   0  0  0  0  0  2  0  0  0  0  0  0
  183.2180  178.7680  143.1550 N   0  0  0  0  0  0  0  0  0  0  0  0
  184.9020  179.0440  144.7920 C   0  0  2  0  0  3  0  0  0  0  0  0
  185.4130  179.1120  143.4710 O   0  0  0  0  0  0  0  0  0  0  0  0
  184.5460  178.9640  141.1700 N   0  0  0  0  0  2  0  0  0  0  0  0
  185.5900  177.9270  145.5820 C   0  0  0  0  0  2  0  0  0  0  0  0
  187.0210  178.2940  145.9850 C   0  0  0  0  0  2  0  0  0  0  0  0
  187.5040  176.6550  144.2920 O   0  0  0  0  0  1  0  0  0  0  0  0
  189.3200  178.0370  144.9760 C   0  0  0  0  0  1  0  0  0  0  0  0
  188.0450  177.3240  145.3900 C   0  0  1  0  0  3  0  0  0  0  0  0
  1  2  1  0  0  0  0
  1  3  1  0  0  0  0
  3 11  1  0  0  0  0
  4 16  2  0  0  0  0
  6 30  1  0  0  0  0
  7  5  1  6  0  0  0
  7  9  1  0  0  0  0
  8 14  1  0  0  0  0
  8 15  2  0  0  0  0
  9  6  1  0  0  0  0
 10 17  1  0  0  0  0
 11  7  1  0  0  0  0
 12  9  2  0  0  0  0
 13  3  2  0  0  0  0
 13 12  1  0  0  0  0
 14  1  2  0  0  0  0
 15 13  1  0  0  0  0
 16 10  1  0  0  0  0
 16 14  1  0  0  0  0
 17 19  1  0  0  0  0
 17  2  2  0  0  0  0
 18 19  2  0  0  0  0
 21 25  1  0  0  0  0
 23 20  1  0  0  0  0
 24 18  1  1  0  0  0
 24 21  1  0  0  0  0
 24 23  1  0  0  0  0
 25 20  1  0  0  0  0
 25 22  1  1  0  0  0
 26 28  2  0  0  0  0
 27 28  1  0  0  0  0
 28 25  1  0  0  0  0
 28 29  1  0  0  0  0
 30 31  1  0  0  0  0
 31 32  1  1  0  0  0
 31 38  1  0  0  0  0
 33 35  2  0  0  0  0
 33 37  1  0  0  0  0
 34 36  1  0  0  0  0
 35 34  1  0  0  0  0
 36 39  1  1  0  0  0
 37 36  1  0  0  0  0
 38 33  1  0  0  0  0
 39 40  1  0  0  0  0
 41 43  1  0  0  0  0
 43 42  1  6  0  0  0
 43 40  1  0  0  0  0
M  END
>  <MODEL>
3

>  <REMARK>
 VINA RESULT:      -7.9      3.303      5.743
  Name = 
  9 active torsions:
  status: ('A' for Active; 'I' for Inactive)
    1  A    between atoms: C_1  and  C_34
    2  A    between atoms: C_2  and  C_8
    3  A    between atoms: C_2  and  N_36
    4  A    between atoms: C_8  and  N_18
    5  A    between atoms: C_21  and  C_23
    6  A    between atoms: C_23  and  C_24
    7  A    between atoms: C_24  and  C_31
    8  A    between atoms: P_25  and  C_43
    9  A    between atoms: C_41  and  C_42
                            x       y       z     vdW  Elec       q    Type
                         _______ _______ _______ _____ _____    ______ ____

>  <TORSDO>
F 9

$$$$
=
 OpenBabel11042412513D

 43 47  0  0  1  0  0  0  0  0999 V2000
  190.3130  176.7790  138.7300 C   0  0  0  0  0  0  0  0  0  0  0  0
  191.5800  176.2600  138.3050 N   0  0  0  0  0  0  0  0  0  0  0  0
  189.9790  176.7870  140.0910 C   0  0  0  0  0  0  0  0  0  0  0  0
  188.9850  177.7140  135.4900 O   0  0  0  0  0  0  0  0  0  0  0  0
  191.4710  177.6860  142.7680 O   0  0  0  0  0  1  0  0  0  0  0  0
  188.8500  176.7420  144.1730 N   0  0  0  0  0  2  0  0  0  0  0  0
  190.6920  176.5720  142.4480 C   0  0  1  0  0  3  0  0  0  0  0  0
  188.1730  177.8080  138.2100 C   0  0  0  0  0  3  0  0  0  0  0  0
  189.2510  176.8480  142.8070 C   0  0  0  0  0  0  0  0  0  0  0  0
  191.0790  176.6670  135.9240 C   0  0  0  0  0  2  0  0  0  0  0  0
  190.8520  176.2690  141.0570 O   0  0  0  0  0  0  0  0  0  0  0  0
  188.3950  177.2210  141.8960 N   0  0  0  0  0  0  0  0  0  0  0  0
  188.7450  177.2970  140.5090 C   0  0  0  0  0  0  0  0  0  0  0  0
  189.4060  177.2900  137.7870 C   0  0  0  0  0  0  0  0  0  0  0  0
  187.8410  177.8080  139.5720 C   0  0  0  0  0  3  0  0  0  0  0  0
  189.7710  177.2600  136.3630 C   0  0  0  0  0  0  0  0  0  0  0  0
  191.9580  176.1990  137.0570 C   0  0  0  0  0  0  0  0  0  0  0  0
  194.0180  174.9650  137.5690 C   0  0  0  0  0  3  0  0  0  0  0  0
  193.2810  175.6620  136.7090 C   0  0  0  0  0  3  0  0  0  0  0  0
  196.6430  173.7900  135.4770 C   0  0  0  0  0  2  0  0  0  0  0  0
  195.5160  172.7100  137.6480 S   0  0  0  0  0  0  0  0  0  0  0  0
  195.9820  171.4550  135.3390 N   0  0  0  0  0  1  0  0  0  0  0  0
  195.4980  174.5380  135.7710 O   0  0  0  0  0  0  0  0  0  0  0  0
  195.3500  174.4430  137.1580 C   0  0  1  0  0  3  0  0  0  0  0  0
  196.5690  172.4630  136.2000 C   0  0  1  0  0  0  0  0  0  0  0  0
  198.1340  170.4890  137.5760 O   0  0  0  0  0  1  0  0  0  0  0  0
  199.0920  171.7290  135.4830 O   0  0  0  0  0  0  0  0  0  0  0  0
  198.2330  171.9430  136.7100 P   0  0  0  0  0  0  0  0  0  0  0  0
  198.9290  173.1430  137.6830 O   0  0  0  0  0  1  0  0  0  0  0  0
  187.5070  177.0680  144.6400 C   0  0  0  0  0  2  0  0  0  0  0  0
  187.5710  178.0540  145.7960 C   0  0  2  0  0  3  0  0  0  0  0  0
  188.1570  177.4330  146.9020 O   0  0  0  0  0  1  0  0  0  0  0  0
  185.2630  178.8710  145.1540 C   0  0  0  0  0  0  0  0  0  0  0  0
  184.3080  179.2470  143.1640 C   0  0  0  0  0  2  0  0  0  0  0  0
  185.5100  178.8460  143.8850 N   0  0  0  0  0  0  0  0  0  0  0  0
  183.2860  179.5510  144.2740 C   0  0  2  0  0  3  0  0  0  0  0  0
  183.9830  179.2640  145.4760 O   0  0  0  0  0  0  0  0  0  0  0  0
  186.2290  178.5060  146.1450 N   0  0  0  0  0  2  0  0  0  0  0  0
  182.0280  178.6870  144.1590 C   0  0  0  0  0  2  0  0  0  0  0  0
  181.4090  178.7420  142.7600 C   0  0  0  0  0  2  0  0  0  0  0  0
  179.3130  177.7090  142.1900 O   0  0  0  0  0  1  0  0  0  0  0  0
  179.3760  178.9100  144.2450 C   0  0  0  0  0  1  0  0  0  0  0  0
  179.8810  178.8180  142.8160 C   0  0  1  0  0  3  0  0  0  0  0  0
  1  3  1  0  0  0  0
  2  1  1  0  0  0  0
  3 13  2  0  0  0  0
  3 11  1  0  0  0  0
  4 16  2  0  0  0  0
  6 30  1  0  0  0  0
  7  5  1  6  0  0  0
  7  9  1  0  0  0  0
  8 15  2  0  0  0  0
  9  6  1  0  0  0  0
 10 16  1  0  0  0  0
 10 17  1  0  0  0  0
 11  7  1  0  0  0  0
 12  9  2  0  0  0  0
 13 12  1  0  0  0  0
 14  8  1  0  0  0  0
 14  1  2  0  0  0  0
 15 13  1  0  0  0  0
 16 14  1  0  0  0  0
 17  2  2  0  0  0  0
 19 17  1  0  0  0  0
 19 18  2  0  0  0  0
 20 23  1  0  0  0  0
 20 25  1  0  0  0  0
 23 24  1  0  0  0  0
 24 18  1  6  0  0  0
 24 21  1  0  0  0  0
 25 22  1  6  0  0  0
 25 28  1  0  0  0  0
 25 21  1  0  0  0  0
 27 28  2  0  0  0  0
 28 26  1  0  0  0  0
 28 29  1  0  0  0  0
 30 31  1  0  0  0  0
 31 38  1  0  0  0  0
 31 32  1  1  0  0  0
 33 37  1  0  0  0  0
 33 38  1  0  0  0  0
 34 35  1  0  0  0  0
 34 36  1  0  0  0  0
 35 33  2  0  0  0  0
 36 39  1  6  0  0  0
 36 37  1  0  0  0  0
 40 43  1  0  0  0  0
 40 39  1  0  0  0  0
 41 43  1  0  0  0  0
 43 42  1  1  0  0  0
M  END
>  <MODEL>
4

>  <REMARK>
 VINA RESULT:      -7.8      1.651      2.132
  Name = 
  9 active torsions:
  status: ('A' for Active; 'I' for Inactive)
    1  A    between atoms: C_1  and  C_34
    2  A    between atoms: C_2  and  C_8
    3  A    between atoms: C_2  and  N_36
    4  A    between atoms: C_8  and  N_18
    5  A    between atoms: C_21  and  C_23
    6  A    between atoms: C_23  and  C_24
    7  A    between atoms: C_24  and  C_31
    8  A    between atoms: P_25  and  C_43
    9  A    between atoms: C_41  and  C_42
                            x       y       z     vdW  Elec       q    Type
                         _______ _______ _______ _____ _____    ______ ____

>  <TORSDO>
F 9

$$$$
=
 OpenBabel11042412513D

 43 47  0  0  1  0  0  0  0  0999 V2000
  188.9350  177.5450  142.9630 C   0  0  0  0  0  0  0  0  0  0  0  0
  187.5350  177.8520  142.9470 N   0  0  0  0  0  0  0  0  0  0  0  0
  189.6270  177.3670  141.7570 C   0  0  0  0  0  0  0  0  0  0  0  0
  189.4540  177.5200  146.5490 O   0  0  0  0  0  0  0  0  0  0  0  0
  189.8070  178.9810  139.0070 O   0  0  0  0  0  1  0  0  0  0  0  0
  191.7660  176.7040  138.1620 N   0  0  0  0  0  2  0  0  0  0  0  0
  189.7000  177.6200  139.2990 C   0  0  1  0  0  3  0  0  0  0  0  0
  190.9930  177.1430  144.1920 C   0  0  0  0  0  3  0  0  0  0  0  0
  191.0820  177.0140  139.3760 C   0  0  0  0  0  0  0  0  0  0  0  0
  187.3950  177.8790  145.4100 C   0  0  0  0  0  2  0  0  0  0  0  0
  188.9720  177.4560  140.5220 O   0  0  0  0  0  0  0  0  0  0  0  0
  191.6620  176.8170  140.5280 N   0  0  0  0  0  0  0  0  0  0  0  0
  190.9950  177.0720  141.7690 C   0  0  0  0  0  0  0  0  0  0  0  0
  189.6210  177.4320  144.1840 C   0  0  0  0  0  0  0  0  0  0  0  0
  191.6800  176.9600  142.9840 C   0  0  0  0  0  3  0  0  0  0  0  0
  188.8710  177.6090  145.4360 C   0  0  0  0  0  0  0  0  0  0  0  0
  186.8150  178.0130  144.0240 C   0  0  0  0  0  0  0  0  0  0  0  0
  184.8570  178.8940  142.8310 C   0  0  0  0  0  3  0  0  0  0  0  0
  185.3850  178.3380  143.9180 C   0  0  0  0  0  3  0  0  0  0  0  0
  181.3510  178.5200  143.2970 C   0  0  0  0  0  2  0  0  0  0  0  0
  182.7840  179.0020  141.0910 S   0  0  0  0  0  0  0  0  0  0  0  0
  180.8650  177.1640  141.3400 N   0  0  0  0  0  1  0  0  0  0  0  0
  182.6980  178.3290  143.6220 O   0  0  0  0  0  0  0  0  0  0  0  0
  183.4010  179.1960  142.7800 C   0  0  1  0  0  3  0  0  0  0  0  0
  181.1950  178.5010  141.7930 C   0  0  1  0  0  0  0  0  0  0  0  0
  178.9310  180.0530  142.6310 O   0  0  0  0  0  1  0  0  0  0  0  0
  180.5200  180.9230  140.7460 O   0  0  0  0  0  1  0  0  0  0  0  0
  179.8900  179.6590  141.2900 P   0  0  0  0  0  0  0  0  0  0  0  0
  178.9310  178.9450  140.0890 O   0  0  0  0  0  0  0  0  0  0  0  0
  193.1330  176.1960  138.1210 C   0  0  0  0  0  2  0  0  0  0  0  0
  193.1600  174.7880  137.5460 C   0  0  2  0  0  3  0  0  0  0  0  0
  194.4840  174.4120  137.3060 O   0  0  0  0  0  1  0  0  0  0  0  0
  191.0710  174.2300  136.2300 C   0  0  0  0  0  0  0  0  0  0  0  0
  189.1050  173.3520  136.8440 C   0  0  0  0  0  2  0  0  0  0  0  0
  190.4420  173.7580  137.2560 N   0  0  0  0  0  0  0  0  0  0  0  0
  189.0690  173.6520  135.3340 C   0  0  2  0  0  3  0  0  0  0  0  0
  190.3420  174.2150  135.0610 O   0  0  0  0  0  0  0  0  0  0  0  0
  192.4070  174.7410  136.2980 N   0  0  0  0  0  2  0  0  0  0  0  0
  187.9530  174.6320  134.9630 C   0  0  0  0  0  2  0  0  0  0  0  0
  187.0620  174.9820  136.1580 C   0  0  0  0  0  2  0  0  0  0  0  0
  186.6410  176.8810  137.5710 O   0  0  0  0  0  1  0  0  0  0  0  0
  187.8930  177.2950  135.5880 C   0  0  0  0  0  1  0  0  0  0  0  0
  186.7880  176.4850  136.2420 C   0  0  1  0  0  3  0  0  0  0  0  0
  1 14  1  0  0  0  0
  2  1  1  0  0  0  0
  2 17  2  0  0  0  0
  3 13  1  0  0  0  0
  3  1  2  0  0  0  0
  6  9  1  0  0  0  0
  7  5  1  1  0  0  0
  7  9  1  0  0  0  0
  7 11  1  0  0  0  0
  9 12  2  0  0  0  0
 10 16  1  0  0  0  0
 11  3  1  0  0  0  0
 12 13  1  0  0  0  0
 13 15  2  0  0  0  0
 14  8  2  0  0  0  0
 14 16  1  0  0  0  0
 15  8  1  0  0  0  0
 16  4  2  0  0  0  0
 17 10  1  0  0  0  0
 18 19  2  0  0  0  0
 19 17  1  0  0  0  0
 20 23  1  0  0  0  0
 21 25  1  0  0  0  0
 21 24  1  0  0  0  0
 24 18  1  6  0  0  0
 24 23  1  0  0  0  0
 25 22  1  6  0  0  0
 25 20  1  0  0  0  0
 27 28  1  0  0  0  0
 28 25  1  0  0  0  0
 28 26  1  0  0  0  0
 29 28  2  0  0  0  0
 30  6  1  0  0  0  0
 31 32  1  6  0  0  0
 31 30  1  0  0  0  0
 33 38  1  0  0  0  0
 33 35  2  0  0  0  0
 34 35  1  0  0  0  0
 36 39  1  1  0  0  0
 36 34  1  0  0  0  0
 37 36  1  0  0  0  0
 37 33  1  0  0  0  0
 38 31  1  0  0  0  0
 39 40  1  0  0  0  0
 40 43  1  0  0  0  0
 43 42  1  1  0  0  0
 43 41  1  0  0  0  0
M  END
>  <MODEL>
5

>  <REMARK>
 VINA RESULT:      -7.5      4.455     11.340
  Name = 
  9 active torsions:
  status: ('A' for Active; 'I' for Inactive)
    1  A    between atoms: C_1  and  C_34
    2  A    between atoms: C_2  and  C_8
    3  A    between atoms: C_2  and  N_36
    4  A    between atoms: C_8  and  N_18
    5  A    between atoms: C_21  and  C_23
    6  A    between atoms: C_23  and  C_24
    7  A    between atoms: C_24  and  C_31
    8  A    between atoms: P_25  and  C_43
    9  A    between atoms: C_41  and  C_42
                            x       y       z     vdW  Elec       q    Type
                         _______ _______ _______ _____ _____    ______ ____

>  <TORSDO>
F 9

$$$$
=
 OpenBabel11042412513D

 43 47  0  0  1  0  0  0  0  0999 V2000
  188.8860  177.5170  142.1210 C   0  0  0  0  0  0  0  0  0  0  0  0
  187.4770  177.7790  142.0870 N   0  0  0  0  0  0  0  0  0  0  0  0
  189.5870  177.2980  140.9270 C   0  0  0  0  0  0  0  0  0  0  0  0
  189.3950  177.6920  145.7040 O   0  0  0  0  0  0  0  0  0  0  0  0
  189.7260  178.7730  138.0980 O   0  0  0  0  0  1  0  0  0  0  0  0
  191.7560  176.5170  137.3740 N   0  0  0  0  0  2  0  0  0  0  0  0
  189.6600  177.4260  138.4600 C   0  0  1  0  0  3  0  0  0  0  0  0
  190.9520  177.2420  143.3720 C   0  0  0  0  0  3  0  0  0  0  0  0
  191.0590  176.8680  138.5690 C   0  0  0  0  0  0  0  0  0  0  0  0
  187.3290  177.9290  144.5450 C   0  0  0  0  0  2  0  0  0  0  0  0
  188.9330  177.3040  139.6880 O   0  0  0  0  0  0  0  0  0  0  0  0
  191.6420  176.7490  139.7300 N   0  0  0  0  0  0  0  0  0  0  0  0
  190.9630  177.0470  140.9560 C   0  0  0  0  0  0  0  0  0  0  0  0
  189.5710  177.4880  143.3470 C   0  0  0  0  0  0  0  0  0  0  0  0
  191.6480  177.0180  142.1760 C   0  0  0  0  0  3  0  0  0  0  0  0
  188.8130  177.7060  144.5870 C   0  0  0  0  0  0  0  0  0  0  0  0
  186.7500  177.9740  143.1540 C   0  0  0  0  0  0  0  0  0  0  0  0
  184.8170  179.0680  142.1040 C   0  0  0  0  0  3  0  0  0  0  0  0
  185.3110  178.2480  143.0290 C   0  0  0  0  0  3  0  0  0  0  0  0
  181.3260  178.5700  142.5620 C   0  0  0  0  0  2  0  0  0  0  0  0
  182.7610  178.9880  140.3440 S   0  0  0  0  0  0  0  0  0  0  0  0
  180.9190  177.0860  140.6820 N   0  0  0  0  0  1  0  0  0  0  0  0
  182.6760  178.4560  142.9090 O   0  0  0  0  0  0  0  0  0  0  0  0
  183.3500  179.3040  142.0250 C   0  0  1  0  0  3  0  0  0  0  0  0
  181.1870  178.4590  141.0600 C   0  0  1  0  0  0  0  0  0  0  0  0
  178.9320  178.7160  139.3020 O   0  0  0  0  0  0  0  0  0  0  0  0
  178.9360  179.8760  141.6450 O   0  0  0  0  0  1  0  0  0  0  0  0
  179.8390  179.5290  140.4810 P   0  0  0  0  0  0  0  0  0  0  0  0
  180.4860  180.9520  139.8260 O   0  0  0  0  0  1  0  0  0  0  0  0
  193.1380  176.0500  137.3600 C   0  0  0  0  0  2  0  0  0  0  0  0
  193.3520  175.0550  136.2300 C   0  0  2  0  0  3  0  0  0  0  0  0
  192.1340  174.4470  135.9130 O   0  0  0  0  0  1  0  0  0  0  0  0
  195.7270  174.2810  136.6400 C   0  0  0  0  0  0  0  0  0  0  0  0
  197.6970  175.3210  136.4310 C   0  0  0  0  0  2  0  0  0  0  0  0
  196.2510  175.4050  136.2760 N   0  0  0  0  0  0  0  0  0  0  0  0
  197.9400  173.8890  136.9400 C   0  0  2  0  0  3  0  0  0  0  0  0
  196.6390  173.3350  137.0530 O   0  0  0  0  0  0  0  0  0  0  0  0
  194.3150  174.0380  136.6320 N   0  0  0  0  0  2  0  0  0  0  0  0
  198.6560  173.8660  138.2930 C   0  0  0  0  0  2  0  0  0  0  0  0
  198.4120  175.1420  139.1040 C   0  0  0  0  0  2  0  0  0  0  0  0
  198.1850  175.2860  141.4930 O   0  0  0  0  0  1  0  0  0  0  0  0
  196.1930  175.5820  140.2210 C   0  0  0  0  0  1  0  0  0  0  0  0
  197.5340  174.8780  140.3290 C   0  0  1  0  0  3  0  0  0  0  0  0
  1 14  1  0  0  0  0
  2  1  1  0  0  0  0
  2 17  2  0  0  0  0
  3 13  1  0  0  0  0
  3  1  2  0  0  0  0
  6  9  1  0  0  0  0
  7  5  1  1  0  0  0
  7  9  1  0  0  0  0
  7 11  1  0  0  0  0
  9 12  2  0  0  0  0
 10 16  1  0  0  0  0
 11  3  1  0  0  0  0
 12 13  1  0  0  0  0
 13 15  2  0  0  0  0
 14  8  2  0  0  0  0
 14 16  1  0  0  0  0
 15  8  1  0  0  0  0
 16  4  2  0  0  0  0
 17 10  1  0  0  0  0
 18 19  2  0  0  0  0
 19 17  1  0  0  0  0
 20 23  1  0  0  0  0
 21 25  1  0  0  0  0
 21 24  1  0  0  0  0
 24 18  1  6  0  0  0
 24 23  1  0  0  0  0
 25 22  1  6  0  0  0
 25 20  1  0  0  0  0
 26 28  2  0  0  0  0
 28 25  1  0  0  0  0
 28 27  1  0  0  0  0
 29 28  1  0  0  0  0
 30  6  1  0  0  0  0
 31 32  1  1  0  0  0
 31 38  1  0  0  0  0
 31 30  1  0  0  0  0
 33 37  1  0  0  0  0
 34 36  1  0  0  0  0
 35 34  1  0  0  0  0
 35 33  2  0  0  0  0
 36 37  1  0  0  0  0
 36 39  1  1  0  0  0
 38 33  1  0  0  0  0
 39 40  1  0  0  0  0
 40 43  1  0  0  0  0
 43 42  1  6  0  0  0
 43 41  1  0  0  0  0
M  END
>  <MODEL>
6

>  <REMARK>
 VINA RESULT:      -7.2      4.235     12.897
  Name = 
  9 active torsions:
  status: ('A' for Active; 'I' for Inactive)
    1  A    between atoms: C_1  and  C_34
    2  A    between atoms: C_2  and  C_8
    3  A    between atoms: C_2  and  N_36
    4  A    between atoms: C_8  and  N_18
    5  A    between atoms: C_21  and  C_23
    6  A    between atoms: C_23  and  C_24
    7  A    between atoms: C_24  and  C_31
    8  A    between atoms: P_25  and  C_43
    9  A    between atoms: C_41  and  C_42
                            x       y       z     vdW  Elec       q    Type
                         _______ _______ _______ _____ _____    ______ ____

>  <TORSDO>
F 9

$$$$
=
 OpenBabel11042412513D

 43 47  0  0  1  0  0  0  0  0999 V2000
  187.3230  177.4100  137.8180 C   0  0  0  0  0  0  0  0  0  0  0  0
  187.9160  177.5150  139.1190 N   0  0  0  0  0  0  0  0  0  0  0  0
  185.9350  177.5390  137.6670 C   0  0  0  0  0  0  0  0  0  0  0  0
  190.3350  176.8460  135.8840 O   0  0  0  0  0  0  0  0  0  0  0  0
  183.7420  179.6070  138.7200 O   0  0  0  0  0  1  0  0  0  0  0  0
  181.7410  177.8060  137.1420 N   0  0  0  0  0  2  0  0  0  0  0  0
  183.7560  178.2150  138.6170 C   0  0  1  0  0  3  0  0  0  0  0  0
  187.5440  177.0980  135.4180 C   0  0  0  0  0  3  0  0  0  0  0  0
  183.1610  177.8050  137.2890 C   0  0  0  0  0  0  0  0  0  0  0  0
  190.1850  177.1010  138.2460 C   0  0  0  0  0  2  0  0  0  0  0  0
  185.1000  177.7440  138.7730 O   0  0  0  0  0  0  0  0  0  0  0  0
  183.9280  177.4990  136.2800 N   0  0  0  0  0  0  0  0  0  0  0  0
  185.3550  177.4420  136.3980 C   0  0  0  0  0  0  0  0  0  0  0  0
  188.1290  177.1870  136.6890 C   0  0  0  0  0  0  0  0  0  0  0  0
  186.1560  177.2210  135.2720 C   0  0  0  0  0  3  0  0  0  0  0  0
  189.5800  177.0410  136.8730 C   0  0  0  0  0  0  0  0  0  0  0  0
  189.1950  177.3870  139.3460 C   0  0  0  0  0  0  0  0  0  0  0  0
  188.9670  177.9190  141.7330 C   0  0  0  0  0  3  0  0  0  0  0  0
  189.7210  177.5210  140.7120 C   0  0  0  0  0  3  0  0  0  0  0  0
  191.4110  178.0530  144.3140 C   0  0  0  0  0  2  0  0  0  0  0  0
  189.2370  176.5210  144.0380 S   0  0  0  0  0  0  0  0  0  0  0  0
  191.6820  175.6670  144.6850 N   0  0  0  0  0  1  0  0  0  0  0  0
  190.9380  178.2290  143.0090 O   0  0  0  0  0  0  0  0  0  0  0  0
  189.5560  178.0320  143.0950 C   0  0  1  0  0  3  0  0  0  0  0  0
  190.8020  176.7990  144.9000 C   0  0  1  0  0  0  0  0  0  0  0  0
  189.6730  178.4740  146.9390 O   0  0  0  0  0  0  0  0  0  0  0  0
  189.6820  175.8720  147.2020 O   0  0  0  0  0  1  0  0  0  0  0  0
  190.5120  177.0240  146.6780 P   0  0  0  0  0  0  0  0  0  0  0  0
  191.9970  177.0650  147.4940 O   0  0  0  0  0  1  0  0  0  0  0  0
  181.0680  177.5100  135.8830 C   0  0  0  0  0  2  0  0  0  0  0  0
  180.1550  176.3030  136.0390 C   0  0  2  0  0  3  0  0  0  0  0  0
  178.9480  176.7080  136.6140 O   0  0  0  0  0  1  0  0  0  0  0  0
  181.0590  173.9710  136.4310 C   0  0  0  0  0  0  0  0  0  0  0  0
  181.1860  172.1730  135.1050 C   0  0  0  0  0  2  0  0  0  0  0  0
  180.7480  173.5550  135.2480 N   0  0  0  0  0  0  0  0  0  0  0  0
  181.8040  171.8300  136.4730 C   0  0  2  0  0  3  0  0  0  0  0  0
  181.6890  173.0320  137.2170 O   0  0  0  0  0  0  0  0  0  0  0  0
  180.7890  175.3020  136.8880 N   0  0  0  0  0  2  0  0  0  0  0  0
  183.2700  171.4040  136.3580 C   0  0  0  0  0  2  0  0  0  0  0  0
  184.1980  172.2670  137.2180 C   0  0  0  0  0  2  0  0  0  0  0  0
  184.4610  174.0110  135.5840 O   0  0  0  0  0  1  0  0  0  0  0  0
  186.1850  173.8200  137.2150 C   0  0  0  0  0  1  0  0  0  0  0  0
  185.1630  173.0910  136.3630 C   0  0  1  0  0  3  0  0  0  0  0  0
  1  2  1  0  0  0  0
  2 17  2  0  0  0  0
  3  1  1  0  0  0  0
  3 11  1  0  0  0  0
  4 16  2  0  0  0  0
  6  9  1  0  0  0  0
  7  5  1  6  0  0  0
  7 11  1  0  0  0  0
  8 14  1  0  0  0  0
  9  7  1  0  0  0  0
 10 17  1  0  0  0  0
 12 13  1  0  0  0  0
 12  9  2  0  0  0  0
 13  3  2  0  0  0  0
 14 16  1  0  0  0  0
 14  1  2  0  0  0  0
 15  8  2  0  0  0  0
 15 13  1  0  0  0  0
 16 10  1  0  0  0  0
 17 19  1  0  0  0  0
 19 18  2  0  0  0  0
 20 25  1  0  0  0  0
 21 25  1  0  0  0  0
 23 24  1  0  0  0  0
 23 20  1  0  0  0  0
 24 18  1  6  0  0  0
 24 21  1  0  0  0  0
 25 22  1  6  0  0  0
 25 28  1  0  0  0  0
 28 26  2  0  0  0  0
 28 27  1  0  0  0  0
 28 29  1  0  0  0  0
 30 31  1  0  0  0  0
 30  6  1  0  0  0  0
 31 32  1  1  0  0  0
 31 38  1  0  0  0  0
 33 38  1  0  0  0  0
 33 37  1  0  0  0  0
 34 35  1  0  0  0  0
 34 36  1  0  0  0  0
 35 33  2  0  0  0  0
 36 39  1  6  0  0  0
 36 37  1  0  0  0  0
 39 40  1  0  0  0  0
 41 43  1  0  0  0  0
 43 42  1  1  0  0  0
 43 40  1  0  0  0  0
M  END
>  <MODEL>
7

>  <REMARK>
 VINA RESULT:      -6.9      5.984      9.480
  Name = 
  9 active torsions:
  status: ('A' for Active; 'I' for Inactive)
    1  A    between atoms: C_1  and  C_34
    2  A    between atoms: C_2  and  C_8
    3  A    between atoms: C_2  and  N_36
    4  A    between atoms: C_8  and  N_18
    5  A    between atoms: C_21  and  C_23
    6  A    between atoms: C_23  and  C_24
    7  A    between atoms: C_24  and  C_31
    8  A    between atoms: P_25  and  C_43
    9  A    between atoms: C_41  and  C_42
                            x       y       z     vdW  Elec       q    Type
                         _______ _______ _______ _____ _____    ______ ____

>  <TORSDO>
F 9

$$$$
=
 OpenBabel11042412513D

 43 47  0  0  1  0  0  0  0  0999 V2000
  187.6860  177.4980  138.2060 C   0  0  0  0  0  0  0  0  0  0  0  0
  188.2070  177.5350  139.5410 N   0  0  0  0  0  0  0  0  0  0  0  0
  186.3190  177.7140  137.9800 C   0  0  0  0  0  0  0  0  0  0  0  0
  190.7660  176.8000  136.4300 O   0  0  0  0  0  0  0  0  0  0  0  0
  184.1940  179.8850  138.9640 O   0  0  0  0  0  1  0  0  0  0  0  0
  182.1860  178.2470  137.2270 N   0  0  0  0  0  2  0  0  0  0  0  0
  184.1320  178.4980  138.8240 C   0  0  1  0  0  3  0  0  0  0  0  0
  188.0270  177.2310  135.8140 C   0  0  0  0  0  3  0  0  0  0  0  0
  183.5920  178.1570  137.4540 C   0  0  0  0  0  0  0  0  0  0  0  0
  190.4950  177.0060  138.7860 C   0  0  0  0  0  2  0  0  0  0  0  0
  185.4350  177.9430  139.0430 O   0  0  0  0  0  0  0  0  0  0  0  0
  184.3970  177.8290  136.4820 N   0  0  0  0  0  0  0  0  0  0  0  0
  185.8080  177.6830  136.6780 C   0  0  0  0  0  0  0  0  0  0  0  0
  188.5410  177.2540  137.1190 C   0  0  0  0  0  0  0  0  0  0  0  0
  186.6590  177.4420  135.5940 C   0  0  0  0  0  3  0  0  0  0  0  0
  189.9680  177.0160  137.3800 C   0  0  0  0  0  0  0  0  0  0  0  0
  189.4610  177.3250  139.8360 C   0  0  0  0  0  0  0  0  0  0  0  0
  189.3230  178.1670  142.1390 C   0  0  0  0  0  3  0  0  0  0  0  0
  189.9140  177.3930  141.2330 C   0  0  0  0  0  3  0  0  0  0  0  0
  191.6030  178.1830  144.8690 C   0  0  0  0  0  2  0  0  0  0  0  0
  189.5150  176.5990  144.3390 S   0  0  0  0  0  0  0  0  0  0  0  0
  191.9500  175.7870  145.0690 N   0  0  0  0  0  1  0  0  0  0  0  0
  191.2000  178.4450  143.5550 O   0  0  0  0  0  0  0  0  0  0  0  0
  189.8260  178.1910  143.5400 C   0  0  1  0  0  3  0  0  0  0  0  0
  191.0130  176.8640  145.3160 C   0  0  1  0  0  0  0  0  0  0  0  0
  189.5730  178.2420  147.3810 O   0  0  0  0  0  0  0  0  0  0  0  0
  189.9160  175.6530  147.4940 O   0  0  0  0  0  1  0  0  0  0  0  0
  190.6090  176.9340  147.0850 P   0  0  0  0  0  0  0  0  0  0  0  0
  192.0340  177.1160  147.9840 O   0  0  0  0  0  1  0  0  0  0  0  0
  181.5700  178.0230  135.9240 C   0  0  0  0  0  2  0  0  0  0  0  0
  181.0220  176.6070  135.8310 C   0  0  2  0  0  3  0  0  0  0  0  0
  180.8090  176.1090  137.1190 O   0  0  0  0  0  1  0  0  0  0  0  0
  182.8540  174.8610  135.8150 C   0  0  0  0  0  0  0  0  0  0  0  0
  183.8850  173.7580  137.4680 C   0  0  0  0  0  2  0  0  0  0  0  0
  182.8990  174.7670  137.1040 N   0  0  0  0  0  0  0  0  0  0  0  0
  184.4530  173.2820  136.1190 C   0  0  2  0  0  3  0  0  0  0  0  0
  183.7240  174.0220  135.1540 O   0  0  0  0  0  0  0  0  0  0  0  0
  181.9660  175.7490  135.1260 N   0  0  0  0  0  2  0  0  0  0  0  0
  184.2590  171.7780  135.9060 C   0  0  0  0  0  2  0  0  0  0  0  0
  183.0600  171.2280  136.6830 C   0  0  0  0  0  2  0  0  0  0  0  0
  181.6990  169.7520  135.3590 O   0  0  0  0  0  1  0  0  0  0  0  0
  180.5570  171.4990  136.5070 C   0  0  0  0  0  1  0  0  0  0  0  0
  181.8260  171.0730  135.7910 C   0  0  1  0  0  3  0  0  0  0  0  0
  1  2  1  0  0  0  0
  2 17  2  0  0  0  0
  3  1  1  0  0  0  0
  3 11  1  0  0  0  0
  4 16  2  0  0  0  0
  6  9  1  0  0  0  0
  7  5  1  6  0  0  0
  7 11  1  0  0  0  0
  8 14  1  0  0  0  0
  9  7  1  0  0  0  0
 10 17  1  0  0  0  0
 12 13  1  0  0  0  0
 12  9  2  0  0  0  0
 13  3  2  0  0  0  0
 14 16  1  0  0  0  0
 14  1  2  0  0  0  0
 15  8  2  0  0  0  0
 15 13  1  0  0  0  0
 16 10  1  0  0  0  0
 17 19  1  0  0  0  0
 19 18  2  0  0  0  0
 20 25  1  0  0  0  0
 21 25  1  0  0  0  0
 23 20  1  0  0  0  0
 24 18  1  6  0  0  0
 24 23  1  0  0  0  0
 24 21  1  0  0  0  0
 25 22  1  6  0  0  0
 25 28  1  0  0  0  0
 28 26  2  0  0  0  0
 28 27  1  0  0  0  0
 28 29  1  0  0  0  0
 30  6  1  0  0  0  0
 31 30  1  0  0  0  0
 31 32  1  1  0  0  0
 33 35  2  0  0  0  0
 35 34  1  0  0  0  0
 36 39  1  6  0  0  0
 36 34  1  0  0  0  0
 37 33  1  0  0  0  0
 37 36  1  0  0  0  0
 38 33  1  0  0  0  0
 38 31  1  0  0  0  0
 39 40  1  0  0  0  0
 41 43  1  0  0  0  0
 43 42  1  1  0  0  0
 43 40  1  0  0  0  0
M  END
>  <MODEL>
8

>  <REMARK>
 VINA RESULT:      -6.1      6.005      9.382
  Name = 
  9 active torsions:
  status: ('A' for Active; 'I' for Inactive)
    1  A    between atoms: C_1  and  C_34
    2  A    between atoms: C_2  and  C_8
    3  A    between atoms: C_2  and  N_36
    4  A    between atoms: C_8  and  N_18
    5  A    between atoms: C_21  and  C_23
    6  A    between atoms: C_23  and  C_24
    7  A    between atoms: C_24  and  C_31
    8  A    between atoms: P_25  and  C_43
    9  A    between atoms: C_41  and  C_42
                            x       y       z     vdW  Elec       q    Type
                         _______ _______ _______ _____ _____    ______ ____

>  <TORSDO>
F 9

$$$$
