=
 OpenBabel11032421023D

 46 48  0  0  1  0  0  0  0  0999 V2000
  184.2830  178.7910  139.2970 C   0  0  1  0  0  3  0  0  0  0  0  0
  183.7580  177.9580  140.3720 N   0  0  0  0  0  2  0  0  0  0  0  0
  183.9290  178.2660  141.7580 C   0  0  0  0  0  0  0  0  0  0  0  0
  184.3100  178.8660  144.4800 C   0  0  0  0  0  0  0  0  0  0  0  0
  185.4000  178.5160  143.6670 C   0  0  0  0  0  3  0  0  0  0  0  0
  182.8360  178.6100  142.5670 C   0  0  0  0  0  3  0  0  0  0  0  0
  183.0300  178.9080  143.9190 C   0  0  0  0  0  3  0  0  0  0  0  0
  185.2100  178.2180  142.3160 C   0  0  0  0  0  3  0  0  0  0  0  0
  184.4460  179.1650  145.8430 O   0  0  0  0  0  0  0  0  0  0  0  0
  185.9500  179.7000  147.5360 O   0  0  0  0  0  0  0  0  0  0  0  0
  185.5680  178.8980  146.6430 C   0  0  0  0  0  0  0  0  0  0  0  0
  186.3410  177.6460  146.4080 C   0  0  0  0  0  2  0  0  0  0  0  0
  190.6260  177.3520  146.1650 C   0  0  1  0  0  3  0  0  0  0  0  0
  188.5150  177.3120  147.6200 C   0  0  0  0  0  2  0  0  0  0  0  0
  188.4090  177.5190  145.1950 O   0  0  0  0  0  0  0  0  0  0  0  0
  189.8250  176.6060  147.2440 C   0  0  0  0  0  2  0  0  0  0  0  0
  187.8280  177.9500  146.4010 C   0  0  1  0  0  3  0  0  0  0  0  0
  191.4380  176.4330  145.4980 O   0  0  0  0  0  1  0  0  0  0  0  0
  189.6890  178.0950  145.1860 C   0  0  2  0  0  3  0  0  0  0  0  0
  190.2380  178.2030  143.7650 C   0  0  0  0  0  2  0  0  0  0  0  0
  189.1360  178.1060  142.7150 C   0  0  0  0  0  2  0  0  0  0  0  0
  189.0930  176.7290  142.0730 C   0  0  0  0  0  2  0  0  0  0  0  0
  190.3300  176.1000  142.2090 O   0  0  0  0  0  1  0  0  0  0  0  0
  185.2480  178.0520  138.5560 O   0  0  0  0  0  0  0  0  0  0  0  0
  186.6030  178.3890  138.5390 C   0  0  0  0  0  0  0  0  0  0  0  0
  187.2390  178.6430  137.2870 N   0  0  0  0  0  2  0  0  0  0  0  0
  187.2590  178.4680  139.6140 O   0  0  0  0  0  0  0  0  0  0  0  0
  188.6430  179.0130  137.1960 C   0  0  0  0  0  2  0  0  0  0  0  0
  190.0170  177.2370  138.1290 N   0  0  0  0  0  1  0  0  0  0  0  0
  189.4800  177.7840  136.8940 C   0  0  0  0  0  2  0  0  0  0  0  0
  183.1480  179.2180  138.3800 C   0  0  0  0  0  2  0  0  0  0  0  0
  182.3190  180.3150  139.0260 C   0  0  0  0  0  2  0  0  0  0  0  0
  180.8520  180.1640  138.6510 C   0  0  0  0  0  2  0  0  0  0  0  0
  178.9490  177.8040  140.7710 C   0  0  0  0  0  3  0  0  0  0  0  0
  180.0030  179.8810  140.9770 C   0  0  0  0  0  3  0  0  0  0  0  0
  180.0920  179.4600  139.7270 C   0  0  0  0  0  0  0  0  0  0  0  0
  179.2130  178.8870  141.7700 C   0  0  0  0  0  2  0  0  0  0  0  0
  179.4160  178.1870  139.5920 C   0  0  0  0  0  0  0  0  0  0  0  0
  180.0730  176.2180  138.2540 C   0  0  0  0  0  0  0  0  0  0  0  0
  179.4810  177.3680  138.4150 N   0  0  0  0  0  0  0  0  0  0  0  0
  179.9290  174.4830  140.0460 O   0  0  0  0  0  1  0  0  0  0  0  0
  181.8810  175.6090  139.6750 O   0  0  0  0  0  0  0  0  0  0  0  0
  180.6690  175.4480  139.3740 C   0  0  0  0  0  0  0  0  0  0  0  0
  180.8380  174.4670  136.8300 O   0  0  0  0  0  1  0  0  0  0  0  0
  180.1110  175.6570  136.8650 C   0  0  2  0  0  3  0  0  0  0  0  0
  180.7030  176.6590  135.8930 C   0  0  0  0  0  1  0  0  0  0  0  0
  1 31  1  6  0  0  0
  1  2  1  0  0  0  0
  2  3  1  0  0  0  0
  3  8  2  0  0  0  0
  3  6  1  0  0  0  0
  4  9  1  0  0  0  0
  5  4  2  0  0  0  0
  6  7  2  0  0  0  0
  7  4  1  0  0  0  0
  8  5  1  0  0  0  0
  9 11  1  0  0  0  0
 11 10  2  0  0  0  0
 12 11  1  0  0  0  0
 13 18  1  6  0  0  0
 13 16  1  0  0  0  0
 15 17  1  0  0  0  0
 16 14  1  0  0  0  0
 17 12  1  6  0  0  0
 17 14  1  0  0  0  0
 19 20  1  6  0  0  0
 19 15  1  0  0  0  0
 19 13  1  0  0  0  0
 21 20  1  0  0  0  0
 22 23  1  0  0  0  0
 22 21  1  0  0  0  0
 24  1  1  0  0  0  0
 25 24  1  0  0  0  0
 25 27  2  0  0  0  0
 26 25  1  0  0  0  0
 28 26  1  0  0  0  0
 30 28  1  0  0  0  0
 30 29  1  0  0  0  0
 31 32  1  0  0  0  0
 33 32  1  0  0  0  0
 33 36  1  0  0  0  0
 34 37  1  0  0  0  0
 35 37  1  0  0  0  0
 36 35  2  0  0  0  0
 38 36  1  0  0  0  0
 38 34  2  0  0  0  0
 39 40  2  0  0  0  0
 39 43  1  0  0  0  0
 40 38  1  0  0  0  0
 43 42  2  0  0  0  0
 43 41  1  0  0  0  0
 44 45  1  0  0  0  0
 45 46  1  6  0  0  0
 45 39  1  0  0  0  0
M  END
>  <MODEL>
1

>  <REMARK>
 VINA RESULT:      -7.3      0.000      0.000
  Name = 
  20 active torsions:
  status: ('A' for Active; 'I' for Inactive)
    1  A    between atoms: C_1  and  N_32
    2  A    between atoms: C_2  and  O_45
    3  A    between atoms: C_7  and  C_18
    4  A    between atoms: C_7  and  O_27
    5  A    between atoms: C_7  and  N_32
    6  A    between atoms: C_8  and  C_16
    7  A    between atoms: CA_10  and  C_28
    8  A    between atoms: CA_10  and  CB_43
    9  A    between atoms: N_11  and  C_35
   10  A    between atoms: C_15  and  C_18
   11  A    between atoms: C_15  and  C_41
   12  A    between atoms: C_16  and  C_17
   13  A    between atoms: C_17  and  C_39
   14  A    between atoms: C_21  and  C_41
   15  A    between atoms: C_22  and  O_27
   16  A    between atoms: C_23  and  C_36
   17  A    between atoms: C_23  and  C_42
   18  A    between atoms: N_25  and  C_29
   19  A    between atoms: C_29  and  C_38
   20  A    between atoms: C_42  and  O_45
                            x       y       z     vdW  Elec       q    Type
                         _______ _______ _______ _____ _____    ______ ____

>  <TORSDO>
F 20

$$$$
=
 OpenBabel11032421023D

 46 48  0  0  1  0  0  0  0  0999 V2000
  188.5990  177.5900  136.6920 C   0  0  1  0  0  3  0  0  0  0  0  0
  189.4130  178.3430  137.6370 N   0  0  0  0  0  2  0  0  0  0  0  0
  189.5090  178.0170  139.0260 C   0  0  0  0  0  0  0  0  0  0  0  0
  189.7370  177.3550  141.7510 C   0  0  0  0  0  0  0  0  0  0  0  0
  190.7180  176.9460  140.8330 C   0  0  0  0  0  3  0  0  0  0  0  0
  188.5240  178.4230  139.9380 C   0  0  0  0  0  3  0  0  0  0  0  0
  188.6410  178.0930  141.2920 C   0  0  0  0  0  3  0  0  0  0  0  0
  190.6040  177.2750  139.4800 C   0  0  0  0  0  3  0  0  0  0  0  0
  189.8000  177.0430  143.1160 O   0  0  0  0  0  0  0  0  0  0  0  0
  190.7110  179.0350  143.8990 O   0  0  0  0  0  0  0  0  0  0  0  0
  190.3000  177.8680  144.1340 C   0  0  0  0  0  0  0  0  0  0  0  0
  190.3710  177.3370  145.5250 C   0  0  0  0  0  2  0  0  0  0  0  0
  186.5800  178.1490  147.3900 C   0  0  1  0  0  3  0  0  0  0  0  0
  189.0100  177.3690  147.6350 C   0  0  0  0  0  2  0  0  0  0  0  0
  188.1160  178.1660  145.5140 O   0  0  0  0  0  0  0  0  0  0  0  0
  187.9040  178.2980  148.1540 C   0  0  0  0  0  2  0  0  0  0  0  0
  188.9730  177.2190  146.1050 C   0  0  1  0  0  3  0  0  0  0  0  0
  185.8610  179.3400  147.5070 O   0  0  0  0  0  1  0  0  0  0  0  0
  186.8260  177.7810  145.9090 C   0  0  2  0  0  3  0  0  0  0  0  0
  185.7680  178.3240  144.9520 C   0  0  0  0  0  2  0  0  0  0  0  0
  186.0990  178.0150  143.4950 C   0  0  0  0  0  2  0  0  0  0  0  0
  185.0000  178.4890  142.5580 C   0  0  0  0  0  2  0  0  0  0  0  0
  185.4140  179.6330  141.8760 O   0  0  0  0  0  1  0  0  0  0  0  0
  188.2250  176.3470  137.2770 O   0  0  0  0  0  0  0  0  0  0  0  0
  188.7320  175.1240  136.8330 C   0  0  0  0  0  0  0  0  0  0  0  0
  190.0160  175.0910  136.2110 N   0  0  0  0  0  2  0  0  0  0  0  0
  188.0660  174.0620  136.9740 O   0  0  0  0  0  0  0  0  0  0  0  0
  190.6120  173.8520  135.7360 C   0  0  0  0  0  2  0  0  0  0  0  0
  191.8970  174.4160  137.7210 N   0  0  0  0  0  1  0  0  0  0  0  0
  191.7780  173.4670  136.6270 C   0  0  0  0  0  2  0  0  0  0  0  0
  187.3530  178.3870  136.3420 C   0  0  0  0  0  2  0  0  0  0  0  0
  186.1940  177.9990  137.2450 C   0  0  0  0  0  2  0  0  0  0  0  0
  184.9750  177.6270  136.4160 C   0  0  0  0  0  2  0  0  0  0  0  0
  182.2100  175.8480  138.1110 C   0  0  0  0  0  3  0  0  0  0  0  0
  184.4070  175.4240  137.4330 C   0  0  0  0  0  3  0  0  0  0  0  0
  184.0910  176.6760  137.1550 C   0  0  0  0  0  0  0  0  0  0  0  0
  183.2510  174.7720  138.1270 C   0  0  0  0  0  2  0  0  0  0  0  0
  182.7400  176.9480  137.5990 C   0  0  0  0  0  0  0  0  0  0  0  0
  181.9740  179.2690  137.9560 C   0  0  0  0  0  0  0  0  0  0  0  0
  182.0220  178.1520  137.2860 N   0  0  0  0  0  0  0  0  0  0  0  0
  184.0100  180.2740  138.9970 O   0  0  0  0  0  0  0  0  0  0  0  0
  182.4630  179.1930  140.2830 O   0  0  0  0  0  1  0  0  0  0  0  0
  182.8340  179.5480  139.1320 C   0  0  0  0  0  0  0  0  0  0  0  0
  179.7640  180.1510  138.0650 O   0  0  0  0  0  1  0  0  0  0  0  0
  181.0160  180.3150  137.4730 C   0  0  2  0  0  3  0  0  0  0  0  0
  180.8870  180.2740  135.9620 C   0  0  0  0  0  1  0  0  0  0  0  0
  1 31  1  1  0  0  0
  1 24  1  0  0  0  0
  1  2  1  0  0  0  0
  2  3  1  0  0  0  0
  3  8  2  0  0  0  0
  3  6  1  0  0  0  0
  4  9  1  0  0  0  0
  5  4  2  0  0  0  0
  6  7  2  0  0  0  0
  7  4  1  0  0  0  0
  8  5  1  0  0  0  0
  9 11  1  0  0  0  0
 10 11  2  0  0  0  0
 11 12  1  0  0  0  0
 13 18  1  6  0  0  0
 13 16  1  0  0  0  0
 14 16  1  0  0  0  0
 15 19  1  0  0  0  0
 15 17  1  0  0  0  0
 17 12  1  6  0  0  0
 17 14  1  0  0  0  0
 19 20  1  6  0  0  0
 19 13  1  0  0  0  0
 21 20  1  0  0  0  0
 22 21  1  0  0  0  0
 23 22  1  0  0  0  0
 25 27  2  0  0  0  0
 25 24  1  0  0  0  0
 26 25  1  0  0  0  0
 28 26  1  0  0  0  0
 28 30  1  0  0  0  0
 30 29  1  0  0  0  0
 31 32  1  0  0  0  0
 33 36  1  0  0  0  0
 33 32  1  0  0  0  0
 34 37  1  0  0  0  0
 35 37  1  0  0  0  0
 36 35  2  0  0  0  0
 36 38  1  0  0  0  0
 38 34  2  0  0  0  0
 39 43  1  0  0  0  0
 40 38  1  0  0  0  0
 40 39  2  0  0  0  0
 41 43  2  0  0  0  0
 43 42  1  0  0  0  0
 45 46  1  6  0  0  0
 45 39  1  0  0  0  0
 45 44  1  0  0  0  0
M  END
>  <MODEL>
2

>  <REMARK>
 VINA RESULT:      -7.2      2.498      5.023
  Name = 
  20 active torsions:
  status: ('A' for Active; 'I' for Inactive)
    1  A    between atoms: C_1  and  N_32
    2  A    between atoms: C_2  and  O_45
    3  A    between atoms: C_7  and  C_18
    4  A    between atoms: C_7  and  O_27
    5  A    between atoms: C_7  and  N_32
    6  A    between atoms: C_8  and  C_16
    7  A    between atoms: CA_10  and  C_28
    8  A    between atoms: CA_10  and  CB_43
    9  A    between atoms: N_11  and  C_35
   10  A    between atoms: C_15  and  C_18
   11  A    between atoms: C_15  and  C_41
   12  A    between atoms: C_16  and  C_17
   13  A    between atoms: C_17  and  C_39
   14  A    between atoms: C_21  and  C_41
   15  A    between atoms: C_22  and  O_27
   16  A    between atoms: C_23  and  C_36
   17  A    between atoms: C_23  and  C_42
   18  A    between atoms: N_25  and  C_29
   19  A    between atoms: C_29  and  C_38
   20  A    between atoms: C_42  and  O_45
                            x       y       z     vdW  Elec       q    Type
                         _______ _______ _______ _____ _____    ______ ____

>  <TORSDO>
F 20

$$$$
=
 OpenBabel11032421023D

 46 48  0  0  1  0  0  0  0  0999 V2000
  183.9160  179.3610  144.1280 C   0  0  1  0  0  3  0  0  0  0  0  0
  184.1260  178.2880  143.1650 N   0  0  0  0  0  2  0  0  0  0  0  0
  185.0680  178.3690  142.0920 C   0  0  0  0  0  0  0  0  0  0  0  0
  186.8880  178.5360  139.9530 C   0  0  0  0  0  0  0  0  0  0  0  0
  185.5050  178.5850  139.7180 C   0  0  0  0  0  3  0  0  0  0  0  0
  186.4490  178.3160  142.3310 C   0  0  0  0  0  3  0  0  0  0  0  0
  187.3500  178.4000  141.2660 C   0  0  0  0  0  3  0  0  0  0  0  0
  184.6020  178.5010  140.7810 C   0  0  0  0  0  3  0  0  0  0  0  0
  187.8340  178.6060  138.9210 O   0  0  0  0  0  0  0  0  0  0  0  0
  187.3580  178.0970  136.7020 O   0  0  0  0  0  0  0  0  0  0  0  0
  187.8960  177.7740  137.7940 C   0  0  0  0  0  0  0  0  0  0  0  0
  188.5930  176.4610  137.9030 C   0  0  0  0  0  2  0  0  0  0  0  0
  186.8310  173.0340  135.9910 C   0  0  1  0  0  3  0  0  0  0  0  0
  188.9530  174.2740  136.7230 C   0  0  0  0  0  2  0  0  0  0  0  0
  186.7240  175.0960  137.2630 O   0  0  0  0  0  0  0  0  0  0  0  0
  188.1800  172.9470  136.7190 C   0  0  0  0  0  2  0  0  0  0  0  0
  188.0220  175.4870  136.8890 C   0  0  1  0  0  3  0  0  0  0  0  0
  185.9860  172.0440  136.4970 O   0  0  0  0  0  1  0  0  0  0  0  0
  186.2050  174.4400  136.1370 C   0  0  2  0  0  3  0  0  0  0  0  0
  184.6790  174.4400  136.1480 C   0  0  0  0  0  2  0  0  0  0  0  0
  184.1050  175.8540  136.1680 C   0  0  0  0  0  2  0  0  0  0  0  0
  183.6120  176.2380  137.5530 C   0  0  0  0  0  2  0  0  0  0  0  0
  183.2050  175.0990  138.2480 O   0  0  0  0  0  1  0  0  0  0  0  0
  182.6050  179.8920  143.9660 O   0  0  0  0  0  0  0  0  0  0  0  0
  181.5500  179.1420  143.4410 C   0  0  0  0  0  0  0  0  0  0  0  0
  181.3080  179.1770  142.0340 N   0  0  0  0  0  2  0  0  0  0  0  0
  180.8190  178.4440  144.1950 O   0  0  0  0  0  0  0  0  0  0  0  0
  180.2360  178.4110  141.4170 C   0  0  0  0  0  2  0  0  0  0  0  0
  181.4250  178.5940  139.3040 N   0  0  0  0  0  1  0  0  0  0  0  0
  180.7680  177.6650  140.2080 C   0  0  0  0  0  2  0  0  0  0  0  0
  184.0790  178.8200  145.5400 C   0  0  0  0  0  2  0  0  0  0  0  0
  185.4940  179.0510  146.0440 C   0  0  0  0  0  2  0  0  0  0  0  0
  186.3940  177.8890  145.6530 C   0  0  0  0  0  2  0  0  0  0  0  0
  189.6600  177.3260  147.2960 C   0  0  0  0  0  3  0  0  0  0  0  0
  187.5870  178.2800  147.8060 C   0  0  0  0  0  3  0  0  0  0  0  0
  187.5520  177.7670  146.5890 C   0  0  0  0  0  0  0  0  0  0  0  0
  188.9280  178.0040  148.4120 C   0  0  0  0  0  2  0  0  0  0  0  0
  188.8270  177.1520  146.2820 C   0  0  0  0  0  0  0  0  0  0  0  0
  190.0460  177.1640  144.1340 C   0  0  0  0  0  0  0  0  0  0  0  0
  189.1870  176.6670  144.9790 N   0  0  0  0  0  0  0  0  0  0  0  0
  190.6220  179.5940  144.1590 O   0  0  0  0  0  0  0  0  0  0  0  0
  192.0210  178.0600  145.1100 O   0  0  0  0  0  1  0  0  0  0  0  0
  190.9610  178.2830  144.4690 C   0  0  0  0  0  0  0  0  0  0  0  0
  190.3430  175.1620  142.8750 O   0  0  0  0  0  1  0  0  0  0  0  0
  190.1090  176.5340  142.7760 C   0  0  2  0  0  3  0  0  0  0  0  0
  191.1840  177.1860  141.9270 C   0  0  0  0  0  1  0  0  0  0  0  0
  1 31  1  1  0  0  0
  2  1  1  0  0  0  0
  3  6  1  0  0  0  0
  3  2  1  0  0  0  0
  4  7  1  0  0  0  0
  5  4  2  0  0  0  0
  5  8  1  0  0  0  0
  7  6  2  0  0  0  0
  8  3  2  0  0  0  0
  9  4  1  0  0  0  0
 10 11  2  0  0  0  0
 11 12  1  0  0  0  0
 11  9  1  0  0  0  0
 13 19  1  0  0  0  0
 13 18  1  1  0  0  0
 13 16  1  0  0  0  0
 14 17  1  0  0  0  0
 16 14  1  0  0  0  0
 17 15  1  0  0  0  0
 17 12  1  1  0  0  0
 19 20  1  1  0  0  0
 19 15  1  0  0  0  0
 20 21  1  0  0  0  0
 21 22  1  0  0  0  0
 22 23  1  0  0  0  0
 24  1  1  0  0  0  0
 25 24  1  0  0  0  0
 25 27  2  0  0  0  0
 26 25  1  0  0  0  0
 28 26  1  0  0  0  0
 29 30  1  0  0  0  0
 30 28  1  0  0  0  0
 31 32  1  0  0  0  0
 33 32  1  0  0  0  0
 33 36  1  0  0  0  0
 34 37  1  0  0  0  0
 35 37  1  0  0  0  0
 36 35  2  0  0  0  0
 38 36  1  0  0  0  0
 38 34  2  0  0  0  0
 39 43  1  0  0  0  0
 39 40  2  0  0  0  0
 40 38  1  0  0  0  0
 41 43  2  0  0  0  0
 43 42  1  0  0  0  0
 45 46  1  6  0  0  0
 45 44  1  0  0  0  0
 45 39  1  0  0  0  0
M  END
>  <MODEL>
3

>  <REMARK>
 VINA RESULT:      -7.1      2.758      9.299
  Name = 
  20 active torsions:
  status: ('A' for Active; 'I' for Inactive)
    1  A    between atoms: C_1  and  N_32
    2  A    between atoms: C_2  and  O_45
    3  A    between atoms: C_7  and  C_18
    4  A    between atoms: C_7  and  O_27
    5  A    between atoms: C_7  and  N_32
    6  A    between atoms: C_8  and  C_16
    7  A    between atoms: CA_10  and  C_28
    8  A    between atoms: CA_10  and  CB_43
    9  A    between atoms: N_11  and  C_35
   10  A    between atoms: C_15  and  C_18
   11  A    between atoms: C_15  and  C_41
   12  A    between atoms: C_16  and  C_17
   13  A    between atoms: C_17  and  C_39
   14  A    between atoms: C_21  and  C_41
   15  A    between atoms: C_22  and  O_27
   16  A    between atoms: C_23  and  C_36
   17  A    between atoms: C_23  and  C_42
   18  A    between atoms: N_25  and  C_29
   19  A    between atoms: C_29  and  C_38
   20  A    between atoms: C_42  and  O_45
                            x       y       z     vdW  Elec       q    Type
                         _______ _______ _______ _____ _____    ______ ____

>  <TORSDO>
F 20

$$$$
=
 OpenBabel11032421023D

 46 48  0  0  1  0  0  0  0  0999 V2000
  190.5500  177.5010  139.5190 C   0  0  1  0  0  3  0  0  0  0  0  0
  190.0090  176.7310  140.6320 N   0  0  0  0  0  2  0  0  0  0  0  0
  190.5250  176.8070  141.9630 C   0  0  0  0  0  0  0  0  0  0  0  0
  191.5500  177.0000  144.5760 C   0  0  0  0  0  0  0  0  0  0  0  0
  191.6310  178.0910  143.6960 C   0  0  0  0  0  3  0  0  0  0  0  0
  190.4460  175.7140  142.8370 C   0  0  0  0  0  3  0  0  0  0  0  0
  190.9560  175.8130  144.1350 C   0  0  0  0  0  3  0  0  0  0  0  0
  191.1210  177.9940  142.3980 C   0  0  0  0  0  3  0  0  0  0  0  0
  192.0540  177.0430  145.8830 O   0  0  0  0  0  0  0  0  0  0  0  0
  191.6660  175.3800  147.4630 O   0  0  0  0  0  0  0  0  0  0  0  0
  191.4260  176.5390  147.0320 C   0  0  0  0  0  0  0  0  0  0  0  0
  190.4300  177.3890  147.7430 C   0  0  0  0  0  2  0  0  0  0  0  0
  186.4760  178.0460  146.1800 C   0  0  1  0  0  3  0  0  0  0  0  0
  187.9550  177.3950  148.1700 C   0  0  0  0  0  2  0  0  0  0  0  0
  188.8960  178.1010  146.0370 O   0  0  0  0  0  0  0  0  0  0  0  0
  186.8070  178.2780  147.6610 C   0  0  0  0  0  2  0  0  0  0  0  0
  189.0590  177.2120  147.1150 C   0  0  1  0  0  3  0  0  0  0  0  0
  185.8800  179.2010  145.6700 O   0  0  0  0  0  1  0  0  0  0  0  0
  187.7390  177.6600  145.3770 C   0  0  2  0  0  3  0  0  0  0  0  0
  187.7160  178.1270  143.9240 C   0  0  0  0  0  2  0  0  0  0  0  0
  186.6720  177.3820  143.0980 C   0  0  0  0  0  2  0  0  0  0  0  0
  185.8110  178.3380  142.2900 C   0  0  0  0  0  2  0  0  0  0  0  0
  184.4610  178.0520  142.4930 O   0  0  0  0  0  1  0  0  0  0  0  0
  191.0580  176.6110  138.5310 O   0  0  0  0  0  0  0  0  0  0  0  0
  192.4060  176.2530  138.4650 C   0  0  0  0  0  0  0  0  0  0  0  0
  192.7690  175.0390  137.8070 N   0  0  0  0  0  2  0  0  0  0  0  0
  193.2930  176.9870  138.9800 O   0  0  0  0  0  0  0  0  0  0  0  0
  194.1540  174.6110  137.6880 C   0  0  0  0  0  2  0  0  0  0  0  0
  193.7920  174.9910  135.3140 N   0  0  0  0  0  1  0  0  0  0  0  0
  194.7490  175.1430  136.3980 C   0  0  0  0  0  2  0  0  0  0  0  0
  189.4550  178.3660  138.9150 C   0  0  0  0  0  2  0  0  0  0  0  0
  188.0810  177.8290  139.2830 C   0  0  0  0  0  2  0  0  0  0  0  0
  187.1160  177.9990  138.1200 C   0  0  0  0  0  2  0  0  0  0  0  0
  185.6390  175.1200  136.3260 C   0  0  0  0  0  3  0  0  0  0  0  0
  187.6790  175.7120  137.3030 C   0  0  0  0  0  3  0  0  0  0  0  0
  186.8010  176.6830  137.4850 C   0  0  0  0  0  0  0  0  0  0  0  0
  187.0110  174.5810  136.5850 C   0  0  0  0  0  3  0  0  0  0  0  0
  185.5300  176.3060  136.9050 C   0  0  1  0  0  3  0  0  0  0  0  0
  183.2390  177.1330  137.3180 C   0  0  0  0  0  0  0  0  0  0  0  0
  184.4170  177.2040  136.7650 N   0  0  0  0  0  0  0  0  0  0  0  0
  183.0750  176.4480  139.7150 O   0  0  0  0  0  1  0  0  0  0  0  0
  182.3590  175.0500  138.0570 O   0  0  0  0  0  0  0  0  0  0  0  0
  182.8940  176.1460  138.3710 C   0  0  0  0  0  0  0  0  0  0  0  0
  181.3290  178.4300  137.9060 O   0  0  0  0  0  1  0  0  0  0  0  0
  182.2130  178.1290  136.8700 C   0  0  2  0  0  3  0  0  0  0  0  0
  181.4490  177.6140  135.6660 C   0  0  0  0  0  1  0  0  0  0  0  0
  1 31  1  6  0  0  0
  1  2  1  0  0  0  0
  2  3  1  0  0  0  0
  3  8  2  0  0  0  0
  3  6  1  0  0  0  0
  4  9  1  0  0  0  0
  5  4  2  0  0  0  0
  6  7  2  0  0  0  0
  7  4  1  0  0  0  0
  8  5  1  0  0  0  0
  9 11  1  0  0  0  0
 11 10  2  0  0  0  0
 11 12  1  0  0  0  0
 13 18  1  6  0  0  0
 13 16  1  0  0  0  0
 15 17  1  0  0  0  0
 16 14  1  0  0  0  0
 17 12  1  1  0  0  0
 17 14  1  0  0  0  0
 19 20  1  6  0  0  0
 19 15  1  0  0  0  0
 19 13  1  0  0  0  0
 21 20  1  0  0  0  0
 22 23  1  0  0  0  0
 22 21  1  0  0  0  0
 24  1  1  0  0  0  0
 25 24  1  0  0  0  0
 25 27  2  0  0  0  0
 26 25  1  0  0  0  0
 28 26  1  0  0  0  0
 29 30  1  0  0  0  0
 30 28  1  0  0  0  0
 31 32  1  0  0  0  0
 33 32  1  0  0  0  0
 34 37  2  0  0  0  0
 34 38  1  0  0  0  0
 35 36  2  0  0  0  0
 36 33  1  0  0  0  0
 37 35  1  0  0  0  0
 38 40  1  6  0  0  0
 38 36  1  0  0  0  0
 39 43  1  0  0  0  0
 40 39  2  0  0  0  0
 42 43  2  0  0  0  0
 43 41  1  0  0  0  0
 45 46  1  6  0  0  0
 45 39  1  0  0  0  0
 45 44  1  0  0  0  0
M  END
>  <MODEL>
4

>  <REMARK>
 VINA RESULT:      -7.1      2.747      5.840
  Name = 
  20 active torsions:
  status: ('A' for Active; 'I' for Inactive)
    1  A    between atoms: C_1  and  N_32
    2  A    between atoms: C_2  and  O_45
    3  A    between atoms: C_7  and  C_18
    4  A    between atoms: C_7  and  O_27
    5  A    between atoms: C_7  and  N_32
    6  A    between atoms: C_8  and  C_16
    7  A    between atoms: CA_10  and  C_28
    8  A    between atoms: CA_10  and  CB_43
    9  A    between atoms: N_11  and  C_35
   10  A    between atoms: C_15  and  C_18
   11  A    between atoms: C_15  and  C_41
   12  A    between atoms: C_16  and  C_17
   13  A    between atoms: C_17  and  C_39
   14  A    between atoms: C_21  and  C_41
   15  A    between atoms: C_22  and  O_27
   16  A    between atoms: C_23  and  C_36
   17  A    between atoms: C_23  and  C_42
   18  A    between atoms: N_25  and  C_29
   19  A    between atoms: C_29  and  C_38
   20  A    between atoms: C_42  and  O_45
                            x       y       z     vdW  Elec       q    Type
                         _______ _______ _______ _____ _____    ______ ____

>  <TORSDO>
F 20

$$$$
=
 OpenBabel11032421023D

 46 48  0  0  1  0  0  0  0  0999 V2000
  183.3620  179.1820  143.6880 C   0  0  1  0  0  3  0  0  0  0  0  0
  184.0390  178.2430  142.8030 N   0  0  0  0  0  2  0  0  0  0  0  0
  183.8550  178.2290  141.3850 C   0  0  0  0  0  0  0  0  0  0  0  0
  183.4550  178.1770  138.6010 C   0  0  0  0  0  0  0  0  0  0  0  0
  182.6120  177.4490  139.4560 C   0  0  0  0  0  3  0  0  0  0  0  0
  184.7020  178.9530  140.5340 C   0  0  0  0  0  3  0  0  0  0  0  0
  184.5000  178.9250  139.1510 C   0  0  0  0  0  3  0  0  0  0  0  0
  182.8120  177.4750  140.8390 C   0  0  0  0  0  3  0  0  0  0  0  0
  183.3030  178.1750  137.2070 O   0  0  0  0  0  0  0  0  0  0  0  0
  182.5410  176.1370  136.3850 O   0  0  0  0  0  0  0  0  0  0  0  0
  183.3980  177.0590  136.3630 C   0  0  0  0  0  0  0  0  0  0  0  0
  184.5590  176.9520  135.4350 C   0  0  0  0  0  2  0  0  0  0  0  0
  188.5930  176.0870  136.6530 C   0  0  1  0  0  3  0  0  0  0  0  0
  186.4540  175.3050  135.4750 C   0  0  0  0  0  2  0  0  0  0  0  0
  186.6850  177.5570  136.3760 O   0  0  0  0  0  0  0  0  0  0  0  0
  187.9800  175.4610  135.3920 C   0  0  0  0  0  2  0  0  0  0  0  0
  185.7880  176.4880  136.1970 C   0  0  1  0  0  3  0  0  0  0  0  0
  189.7990  176.6980  136.3060 O   0  0  0  0  0  1  0  0  0  0  0  0
  187.6190  177.0900  137.3120 C   0  0  2  0  0  3  0  0  0  0  0  0
  188.3120  178.2470  138.0280 C   0  0  0  0  0  2  0  0  0  0  0  0
  188.5650  177.9410  139.5020 C   0  0  0  0  0  2  0  0  0  0  0  0
  190.0250  177.6110  139.7630 C   0  0  0  0  0  2  0  0  0  0  0  0
  190.2010  176.2280  139.8120 O   0  0  0  0  0  1  0  0  0  0  0  0
  182.1620  178.5910  144.1760 O   0  0  0  0  0  0  0  0  0  0  0  0
  180.9090  178.8700  143.6250 C   0  0  0  0  0  0  0  0  0  0  0  0
  180.7300  180.0780  142.8860 N   0  0  0  0  0  2  0  0  0  0  0  0
  179.9460  178.0700  143.7800 O   0  0  0  0  0  0  0  0  0  0  0  0
  179.4580  180.4260  142.2740 C   0  0  0  0  0  2  0  0  0  0  0  0
  178.9630  179.3080  140.1720 N   0  0  0  0  0  1  0  0  0  0  0  0
  179.6070  180.4680  140.7640 C   0  0  0  0  0  2  0  0  0  0  0  0
  184.2720  179.5320  144.8550 C   0  0  0  0  0  2  0  0  0  0  0  0
  185.1070  178.3300  145.2650 C   0  0  0  0  0  2  0  0  0  0  0  0
  186.5890  178.6400  145.1240 C   0  0  0  0  0  2  0  0  0  0  0  0
  189.2140  177.1020  147.2290 C   0  0  0  0  0  3  0  0  0  0  0  0
  186.9110  177.5020  147.3180 C   0  0  0  0  0  3  0  0  0  0  0  0
  187.3910  177.9200  146.1590 C   0  0  0  0  0  0  0  0  0  0  0  0
  188.0220  176.8820  148.1080 C   0  0  0  0  0  2  0  0  0  0  0  0
  188.8110  177.6480  146.0920 C   0  0  0  0  0  0  0  0  0  0  0  0
  189.9890  177.5700  143.9220 C   0  0  0  0  0  0  0  0  0  0  0  0
  189.6710  178.1380  145.0520 N   0  0  0  0  0  0  0  0  0  0  0  0
  187.9870  176.2930  143.1470 O   0  0  0  0  0  0  0  0  0  0  0  0
  190.0470  175.3080  143.1880 O   0  0  0  0  0  1  0  0  0  0  0  0
  189.3470  176.3270  143.4300 C   0  0  0  0  0  0  0  0  0  0  0  0
  191.9950  177.3270  142.6590 O   0  0  0  0  0  1  0  0  0  0  0  0
  191.0360  178.2450  143.0900 C   0  0  2  0  0  3  0  0  0  0  0  0
  191.7000  179.3690  143.8610 C   0  0  0  0  0  1  0  0  0  0  0  0
  1 24  1  0  0  0  0
  1 31  1  1  0  0  0
  2  1  1  0  0  0  0
  3  2  1  0  0  0  0
  4  7  2  0  0  0  0
  4  5  1  0  0  0  0
  5  8  2  0  0  0  0
  6  3  2  0  0  0  0
  7  6  1  0  0  0  0
  8  3  1  0  0  0  0
  9  4  1  0  0  0  0
 11 10  2  0  0  0  0
 11  9  1  0  0  0  0
 12 11  1  0  0  0  0
 13 18  1  6  0  0  0
 13 19  1  0  0  0  0
 14 17  1  0  0  0  0
 15 19  1  0  0  0  0
 16 14  1  0  0  0  0
 16 13  1  0  0  0  0
 17 12  1  6  0  0  0
 17 15  1  0  0  0  0
 19 20  1  6  0  0  0
 20 21  1  0  0  0  0
 21 22  1  0  0  0  0
 22 23  1  0  0  0  0
 25 27  2  0  0  0  0
 25 24  1  0  0  0  0
 26 25  1  0  0  0  0
 28 26  1  0  0  0  0
 29 30  1  0  0  0  0
 30 28  1  0  0  0  0
 31 32  1  0  0  0  0
 33 32  1  0  0  0  0
 33 36  1  0  0  0  0
 34 37  1  0  0  0  0
 35 37  1  0  0  0  0
 36 35  2  0  0  0  0
 38 36  1  0  0  0  0
 38 34  2  0  0  0  0
 39 40  2  0  0  0  0
 40 38  1  0  0  0  0
 41 43  2  0  0  0  0
 42 43  1  0  0  0  0
 43 39  1  0  0  0  0
 44 45  1  0  0  0  0
 45 46  1  1  0  0  0
 45 39  1  0  0  0  0
M  END
>  <MODEL>
5

>  <REMARK>
 VINA RESULT:      -7.0      2.611      9.114
  Name = 
  20 active torsions:
  status: ('A' for Active; 'I' for Inactive)
    1  A    between atoms: C_1  and  N_32
    2  A    between atoms: C_2  and  O_45
    3  A    between atoms: C_7  and  C_18
    4  A    between atoms: C_7  and  O_27
    5  A    between atoms: C_7  and  N_32
    6  A    between atoms: C_8  and  C_16
    7  A    between atoms: CA_10  and  C_28
    8  A    between atoms: CA_10  and  CB_43
    9  A    between atoms: N_11  and  C_35
   10  A    between atoms: C_15  and  C_18
   11  A    between atoms: C_15  and  C_41
   12  A    between atoms: C_16  and  C_17
   13  A    between atoms: C_17  and  C_39
   14  A    between atoms: C_21  and  C_41
   15  A    between atoms: C_22  and  O_27
   16  A    between atoms: C_23  and  C_36
   17  A    between atoms: C_23  and  C_42
   18  A    between atoms: N_25  and  C_29
   19  A    between atoms: C_29  and  C_38
   20  A    between atoms: C_42  and  O_45
                            x       y       z     vdW  Elec       q    Type
                         _______ _______ _______ _____ _____    ______ ____

>  <TORSDO>
F 20

$$$$
=
 OpenBabel11032421023D

 46 48  0  0  1  0  0  0  0  0999 V2000
  185.0870  178.9890  142.3270 C   0  0  1  0  0  3  0  0  0  0  0  0
  184.9520  179.4830  140.9630 N   0  0  0  0  0  2  0  0  0  0  0  0
  184.7290  178.6300  139.8380 C   0  0  0  0  0  0  0  0  0  0  0  0
  184.3320  176.9610  137.6070 C   0  0  0  0  0  0  0  0  0  0  0  0
  185.4910  177.7470  137.7130 C   0  0  0  0  0  3  0  0  0  0  0  0
  183.5680  177.8500  139.7340 C   0  0  0  0  0  3  0  0  0  0  0  0
  183.3750  177.0220  138.6240 C   0  0  0  0  0  3  0  0  0  0  0  0
  185.6880  178.5750  138.8210 C   0  0  0  0  0  3  0  0  0  0  0  0
  184.0850  176.1220  136.5120 O   0  0  0  0  0  0  0  0  0  0  0  0
  184.9750  174.5900  135.0040 O   0  0  0  0  0  0  0  0  0  0  0  0
  184.7760  174.9420  136.1970 C   0  0  0  0  0  0  0  0  0  0  0  0
  185.2610  174.0710  137.3050 C   0  0  0  0  0  2  0  0  0  0  0  0
  189.4520  174.2480  136.3520 C   0  0  1  0  0  3  0  0  0  0  0  0
  187.3930  172.8140  136.8800 C   0  0  0  0  0  2  0  0  0  0  0  0
  187.2600  175.2370  136.6630 O   0  0  0  0  0  0  0  0  0  0  0  0
  188.5800  173.0540  135.9360 C   0  0  0  0  0  2  0  0  0  0  0  0
  186.7760  174.1300  137.3830 C   0  0  1  0  0  3  0  0  0  0  0  0
  190.1080  174.7360  135.2200 O   0  0  0  0  0  1  0  0  0  0  0  0
  188.6080  175.3480  137.0350 C   0  0  2  0  0  3  0  0  0  0  0  0
  189.1330  176.7630  136.8060 C   0  0  0  0  0  2  0  0  0  0  0  0
  189.9760  177.2590  137.9770 C   0  0  0  0  0  2  0  0  0  0  0  0
  189.2980  178.4050  138.7090 C   0  0  0  0  0  2  0  0  0  0  0  0
  188.9980  179.4320  137.8150 O   0  0  0  0  0  1  0  0  0  0  0  0
  183.9080  178.2760  142.6900 O   0  0  0  0  0  0  0  0  0  0  0  0
  182.8090  178.8970  143.2870 C   0  0  0  0  0  0  0  0  0  0  0  0
  181.5610  178.9120  142.5940 N   0  0  0  0  0  2  0  0  0  0  0  0
  182.9140  179.4400  144.4210 O   0  0  0  0  0  0  0  0  0  0  0  0
  180.3710  179.5280  143.1610 C   0  0  0  0  0  2  0  0  0  0  0  0
  179.3180  177.6220  142.0810 N   0  0  0  0  0  1  0  0  0  0  0  0
  179.1360  179.0170  142.4440 C   0  0  0  0  0  2  0  0  0  0  0  0
  186.2920  178.0670  142.4200 C   0  0  0  0  0  2  0  0  0  0  0  0
  186.3220  177.3540  143.7620 C   0  0  0  0  0  2  0  0  0  0  0  0
  186.5390  178.3520  144.8890 C   0  0  0  0  0  2  0  0  0  0  0  0
  189.4020  176.8820  146.7130 C   0  0  0  0  0  3  0  0  0  0  0  0
  187.4260  178.0350  147.1970 C   0  0  0  0  0  3  0  0  0  0  0  0
  187.5100  177.8250  145.8950 C   0  0  0  0  0  0  0  0  0  0  0  0
  188.6060  177.4040  147.8690 C   0  0  0  0  0  2  0  0  0  0  0  0
  188.7200  177.0880  145.5970 C   0  0  0  0  0  0  0  0  0  0  0  0
  190.1380  177.4980  143.6170 C   0  0  0  0  0  0  0  0  0  0  0  0
  189.2090  176.8560  144.2670 N   0  0  0  0  0  0  0  0  0  0  0  0
  192.0850  178.1590  145.0350 O   0  0  0  0  0  1  0  0  0  0  0  0
  190.8120  179.7470  143.9990 O   0  0  0  0  0  0  0  0  0  0  0  0
  191.0040  178.5270  144.2440 C   0  0  0  0  0  0  0  0  0  0  0  0
  190.1340  175.7730  141.9730 O   0  0  0  0  0  1  0  0  0  0  0  0
  190.3380  177.1380  142.1760 C   0  0  2  0  0  3  0  0  0  0  0  0
  191.7240  177.5330  141.7060 C   0  0  0  0  0  1  0  0  0  0  0  0
  1 31  1  6  0  0  0
  1 24  1  0  0  0  0
  2  1  1  0  0  0  0
  3  2  1  0  0  0  0
  4  5  2  0  0  0  0
  4  7  1  0  0  0  0
  5  8  1  0  0  0  0
  6  3  1  0  0  0  0
  7  6  2  0  0  0  0
  8  3  2  0  0  0  0
  9  4  1  0  0  0  0
 10 11  2  0  0  0  0
 11  9  1  0  0  0  0
 11 12  1  0  0  0  0
 13 18  1  6  0  0  0
 13 19  1  0  0  0  0
 14 17  1  0  0  0  0
 15 19  1  0  0  0  0
 15 17  1  0  0  0  0
 16 13  1  0  0  0  0
 16 14  1  0  0  0  0
 17 12  1  6  0  0  0
 19 20  1  6  0  0  0
 20 21  1  0  0  0  0
 21 22  1  0  0  0  0
 23 22  1  0  0  0  0
 24 25  1  0  0  0  0
 25 27  2  0  0  0  0
 26 28  1  0  0  0  0
 26 25  1  0  0  0  0
 29 30  1  0  0  0  0
 30 28  1  0  0  0  0
 31 32  1  0  0  0  0
 32 33  1  0  0  0  0
 33 36  1  0  0  0  0
 34 37  1  0  0  0  0
 35 37  1  0  0  0  0
 36 35  2  0  0  0  0
 38 36  1  0  0  0  0
 38 34  2  0  0  0  0
 39 43  1  0  0  0  0
 39 40  2  0  0  0  0
 40 38  1  0  0  0  0
 42 43  2  0  0  0  0
 43 41  1  0  0  0  0
 44 45  1  0  0  0  0
 45 46  1  1  0  0  0
 45 39  1  0  0  0  0
M  END
>  <MODEL>
6

>  <REMARK>
 VINA RESULT:      -6.8      2.848      9.222
  Name = 
  20 active torsions:
  status: ('A' for Active; 'I' for Inactive)
    1  A    between atoms: C_1  and  N_32
    2  A    between atoms: C_2  and  O_45
    3  A    between atoms: C_7  and  C_18
    4  A    between atoms: C_7  and  O_27
    5  A    between atoms: C_7  and  N_32
    6  A    between atoms: C_8  and  C_16
    7  A    between atoms: CA_10  and  C_28
    8  A    between atoms: CA_10  and  CB_43
    9  A    between atoms: N_11  and  C_35
   10  A    between atoms: C_15  and  C_18
   11  A    between atoms: C_15  and  C_41
   12  A    between atoms: C_16  and  C_17
   13  A    between atoms: C_17  and  C_39
   14  A    between atoms: C_21  and  C_41
   15  A    between atoms: C_22  and  O_27
   16  A    between atoms: C_23  and  C_36
   17  A    between atoms: C_23  and  C_42
   18  A    between atoms: N_25  and  C_29
   19  A    between atoms: C_29  and  C_38
   20  A    between atoms: C_42  and  O_45
                            x       y       z     vdW  Elec       q    Type
                         _______ _______ _______ _____ _____    ______ ____

>  <TORSDO>
F 20

$$$$
=
 OpenBabel11032421023D

 46 48  0  0  1  0  0  0  0  0999 V2000
  188.4610  177.7140  139.9500 C   0  0  1  0  0  3  0  0  0  0  0  0
  187.6350  178.4900  139.0340 N   0  0  0  0  0  2  0  0  0  0  0  0
  186.5470  177.9320  138.2940 C   0  0  0  0  0  0  0  0  0  0  0  0
  184.3780  176.8590  136.8590 C   0  0  0  0  0  0  0  0  0  0  0  0
  184.1630  177.7920  137.8850 C   0  0  0  0  0  3  0  0  0  0  0  0
  186.7670  176.9960  137.2720 C   0  0  0  0  0  3  0  0  0  0  0  0
  185.6860  176.4650  136.5610 C   0  0  0  0  0  3  0  0  0  0  0  0
  185.2400  178.3240  138.5970 C   0  0  0  0  0  3  0  0  0  0  0  0
  183.3300  176.2890  136.1220 O   0  0  0  0  0  0  0  0  0  0  0  0
  182.1810  178.0230  135.0800 O   0  0  0  0  0  0  0  0  0  0  0  0
  182.1540  176.9350  135.7150 C   0  0  0  0  0  0  0  0  0  0  0  0
  180.8380  176.3310  136.0700 C   0  0  0  0  0  2  0  0  0  0  0  0
  180.9650  177.4820  140.2130 C   0  0  1  0  0  3  0  0  0  0  0  0
  180.9400  175.6020  138.4710 C   0  0  0  0  0  2  0  0  0  0  0  0
  181.0050  177.9520  137.8350 O   0  0  0  0  0  0  0  0  0  0  0  0
  181.6230  176.1870  139.7150 C   0  0  0  0  0  2  0  0  0  0  0  0
  180.4710  176.6950  137.4970 C   0  0  1  0  0  3  0  0  0  0  0  0
  181.9150  178.2200  140.9240 O   0  0  0  0  0  1  0  0  0  0  0  0
  180.3770  178.2990  139.0400 C   0  0  2  0  0  3  0  0  0  0  0  0
  180.4020  179.8090  139.2640 C   0  0  0  0  0  2  0  0  0  0  0  0
  180.8370  180.5680  138.0140 C   0  0  0  0  0  2  0  0  0  0  0  0
  181.8190  181.6790  138.3450 C   0  0  0  0  0  2  0  0  0  0  0  0
  183.0460  181.1340  138.7250 O   0  0  0  0  0  1  0  0  0  0  0  0
  189.8240  177.8010  139.5470 O   0  0  0  0  0  0  0  0  0  0  0  0
  190.3390  177.0660  138.4770 C   0  0  0  0  0  0  0  0  0  0  0  0
  190.9790  175.8180  138.7380 N   0  0  0  0  0  2  0  0  0  0  0  0
  190.2450  177.4980  137.2950 O   0  0  0  0  0  0  0  0  0  0  0  0
  191.5270  174.9930  137.6710 C   0  0  0  0  0  2  0  0  0  0  0  0
  193.5180  176.2910  137.1610 N   0  0  0  0  0  1  0  0  0  0  0  0
  193.0420  175.0350  137.7150 C   0  0  0  0  0  2  0  0  0  0  0  0
  188.3090  178.2580  141.3620 C   0  0  0  0  0  2  0  0  0  0  0  0
  189.2150  177.5120  142.3270 C   0  0  0  0  0  2  0  0  0  0  0  0
  189.6760  178.4350  143.4440 C   0  0  0  0  0  2  0  0  0  0  0  0
  187.8820  177.1340  146.4060 C   0  0  0  0  0  3  0  0  0  0  0  0
  190.0870  177.4920  145.7150 C   0  0  0  0  0  3  0  0  0  0  0  0
  189.2540  177.9150  144.7800 C   0  0  0  0  0  0  0  0  0  0  0  0
  189.2940  176.9930  146.8830 C   0  0  0  0  0  2  0  0  0  0  0  0
  187.8880  177.7200  145.2190 C   0  0  0  0  0  0  0  0  0  0  0  0
  185.5650  178.3650  144.6840 C   0  0  0  0  0  0  0  0  0  0  0  0
  186.7430  177.9010  144.3720 N   0  0  0  0  0  0  0  0  0  0  0  0
  184.5620  178.2460  146.9680 O   0  0  0  0  0  1  0  0  0  0  0  0
  185.6810  180.1170  146.2890 O   0  0  0  0  0  0  0  0  0  0  0  0
  185.2530  178.9670  146.0030 C   0  0  0  0  0  0  0  0  0  0  0  0
  184.9580  178.8570  142.4330 O   0  0  0  0  0  1  0  0  0  0  0  0
  184.5040  178.2990  143.6280 C   0  0  2  0  0  3  0  0  0  0  0  0
  183.2410  179.0030  144.0850 C   0  0  0  0  0  1  0  0  0  0  0  0
  1 31  1  1  0  0  0
  2  1  1  0  0  0  0
  3  8  1  0  0  0  0
  3  2  1  0  0  0  0
  4  5  1  0  0  0  0
  5  8  2  0  0  0  0
  6  3  2  0  0  0  0
  7  4  2  0  0  0  0
  7  6  1  0  0  0  0
  9  4  1  0  0  0  0
 10 11  2  0  0  0  0
 11 12  1  0  0  0  0
 11  9  1  0  0  0  0
 13 18  1  6  0  0  0
 14 16  1  0  0  0  0
 15 19  1  0  0  0  0
 16 13  1  0  0  0  0
 17 12  1  6  0  0  0
 17 15  1  0  0  0  0
 17 14  1  0  0  0  0
 19 20  1  1  0  0  0
 19 13  1  0  0  0  0
 21 22  1  0  0  0  0
 21 20  1  0  0  0  0
 22 23  1  0  0  0  0
 24  1  1  0  0  0  0
 25 26  1  0  0  0  0
 25 24  1  0  0  0  0
 27 25  2  0  0  0  0
 28 30  1  0  0  0  0
 28 26  1  0  0  0  0
 29 30  1  0  0  0  0
 31 32  1  0  0  0  0
 32 33  1  0  0  0  0
 33 36  1  0  0  0  0
 34 37  1  0  0  0  0
 35 37  1  0  0  0  0
 36 38  1  0  0  0  0
 36 35  2  0  0  0  0
 38 34  2  0  0  0  0
 39 43  1  0  0  0  0
 40 39  2  0  0  0  0
 40 38  1  0  0  0  0
 43 42  2  0  0  0  0
 43 41  1  0  0  0  0
 44 45  1  0  0  0  0
 45 46  1  1  0  0  0
 45 39  1  0  0  0  0
M  END
>  <MODEL>
7

>  <REMARK>
 VINA RESULT:      -6.6      2.448      8.924
  Name = 
  20 active torsions:
  status: ('A' for Active; 'I' for Inactive)
    1  A    between atoms: C_1  and  N_32
    2  A    between atoms: C_2  and  O_45
    3  A    between atoms: C_7  and  C_18
    4  A    between atoms: C_7  and  O_27
    5  A    between atoms: C_7  and  N_32
    6  A    between atoms: C_8  and  C_16
    7  A    between atoms: CA_10  and  C_28
    8  A    between atoms: CA_10  and  CB_43
    9  A    between atoms: N_11  and  C_35
   10  A    between atoms: C_15  and  C_18
   11  A    between atoms: C_15  and  C_41
   12  A    between atoms: C_16  and  C_17
   13  A    between atoms: C_17  and  C_39
   14  A    between atoms: C_21  and  C_41
   15  A    between atoms: C_22  and  O_27
   16  A    between atoms: C_23  and  C_36
   17  A    between atoms: C_23  and  C_42
   18  A    between atoms: N_25  and  C_29
   19  A    between atoms: C_29  and  C_38
   20  A    between atoms: C_42  and  O_45
                            x       y       z     vdW  Elec       q    Type
                         _______ _______ _______ _____ _____    ______ ____

>  <TORSDO>
F 20

$$$$
=
 OpenBabel11032421023D

 46 48  0  0  1  0  0  0  0  0999 V2000
  181.4620  177.8450  140.9900 C   0  0  1  0  0  3  0  0  0  0  0  0
  182.5340  178.8140  141.1770 N   0  0  0  0  0  2  0  0  0  0  0  0
  183.3810  178.8340  142.3290 C   0  0  0  0  0  0  0  0  0  0  0  0
  185.0120  178.8750  144.6220 C   0  0  0  0  0  0  0  0  0  0  0  0
  183.6210  179.0320  144.7330 C   0  0  0  0  0  3  0  0  0  0  0  0
  184.7710  178.6810  142.2140 C   0  0  0  0  0  3  0  0  0  0  0  0
  185.5770  178.7020  143.3550 C   0  0  0  0  0  3  0  0  0  0  0  0
  182.8120  179.0120  143.5940 C   0  0  0  0  0  3  0  0  0  0  0  0
  185.8670  178.8980  145.7320 O   0  0  0  0  0  0  0  0  0  0  0  0
  186.4350  176.6430  145.7990 O   0  0  0  0  0  0  0  0  0  0  0  0
  186.5820  177.8090  146.2520 C   0  0  0  0  0  0  0  0  0  0  0  0
  187.5190  178.0360  147.3880 C   0  0  0  0  0  2  0  0  0  0  0  0
  191.3300  177.1440  145.6020 C   0  0  1  0  0  3  0  0  0  0  0  0
  189.8680  177.2060  147.7070 C   0  0  0  0  0  2  0  0  0  0  0  0
  188.9920  177.7820  145.5080 O   0  0  0  0  0  0  0  0  0  0  0  0
  190.8140  176.3760  146.8270 C   0  0  0  0  0  2  0  0  0  0  0  0
  188.9460  178.1130  146.8750 C   0  0  1  0  0  3  0  0  0  0  0  0
  191.6770  176.2230  144.6120 O   0  0  0  0  0  1  0  0  0  0  0  0
  190.2780  178.1550  145.0900 C   0  0  2  0  0  3  0  0  0  0  0  0
  190.3250  178.3880  143.5820 C   0  0  0  0  0  2  0  0  0  0  0  0
  189.0940  177.8280  142.8760 C   0  0  0  0  0  2  0  0  0  0  0  0
  189.4580  177.1630  141.5580 C   0  0  0  0  0  2  0  0  0  0  0  0
  190.1040  175.9510  141.7970 O   0  0  0  0  0  1  0  0  0  0  0  0
  180.2060  178.4850  141.1920 O   0  0  0  0  0  0  0  0  0  0  0  0
  180.0210  179.8550  140.9950 C   0  0  0  0  0  0  0  0  0  0  0  0
  179.8370  180.3460  139.6670 N   0  0  0  0  0  2  0  0  0  0  0  0
  180.0170  180.6520  141.9730 O   0  0  0  0  0  0  0  0  0  0  0  0
  179.6250  181.7570  139.3880 C   0  0  0  0  0  2  0  0  0  0  0  0
  181.2140  182.8890  137.9370 N   0  0  0  0  0  1  0  0  0  0  0  0
  180.0180  182.0630  137.9550 C   0  0  0  0  0  2  0  0  0  0  0  0
  181.5260  177.2770  139.5810 C   0  0  0  0  0  2  0  0  0  0  0  0
  182.9690  177.1320  139.1260 C   0  0  0  0  0  2  0  0  0  0  0  0
  183.0750  177.3380  137.6220 C   0  0  0  0  0  2  0  0  0  0  0  0
  185.3670  174.7370  136.3290 C   0  0  0  0  0  3  0  0  0  0  0  0
  183.0660  175.1430  136.4400 C   0  0  0  0  0  3  0  0  0  0  0  0
  183.7230  176.1640  136.9630 C   0  0  0  0  0  0  0  0  0  0  0  0
  184.0530  174.1400  135.9290 C   0  0  0  0  0  3  0  0  0  0  0  0
  185.1480  175.9260  136.8690 C   0  0  1  0  0  3  0  0  0  0  0  0
  187.2170  177.2710  136.9900 C   0  0  0  0  0  0  0  0  0  0  0  0
  186.1400  176.7480  137.5050 N   0  0  0  0  0  0  0  0  0  0  0  0
  188.4570  176.3380  135.0320 O   0  0  0  0  0  1  0  0  0  0  0  0
  186.8790  177.9630  134.7390 O   0  0  0  0  0  0  0  0  0  0  0  0
  187.5230  177.2340  135.5390 C   0  0  0  0  0  0  0  0  0  0  0  0
  187.4700  178.4830  139.0260 O   0  0  0  0  0  1  0  0  0  0  0  0
  188.1570  177.9620  137.9290 C   0  0  2  0  0  3  0  0  0  0  0  0
  188.9190  179.0650  137.2200 C   0  0  0  0  0  1  0  0  0  0  0  0
  1 31  1  6  0  0  0
  1  2  1  0  0  0  0
  1 24  1  0  0  0  0
  2  3  1  0  0  0  0
  3  8  1  0  0  0  0
  4  5  1  0  0  0  0
  4  9  1  0  0  0  0
  6  3  2  0  0  0  0
  6  7  1  0  0  0  0
  7  4  2  0  0  0  0
  8  5  2  0  0  0  0
  9 11  1  0  0  0  0
 10 11  2  0  0  0  0
 11 12  1  0  0  0  0
 13 18  1  6  0  0  0
 13 16  1  0  0  0  0
 15 17  1  0  0  0  0
 16 14  1  0  0  0  0
 17 12  1  1  0  0  0
 17 14  1  0  0  0  0
 19 20  1  6  0  0  0
 19 15  1  0  0  0  0
 19 13  1  0  0  0  0
 21 20  1  0  0  0  0
 22 23  1  0  0  0  0
 22 21  1  0  0  0  0
 25 24  1  0  0  0  0
 25 27  2  0  0  0  0
 26 25  1  0  0  0  0
 28 26  1  0  0  0  0
 29 30  1  0  0  0  0
 30 28  1  0  0  0  0
 32 31  1  0  0  0  0
 33 32  1  0  0  0  0
 34 38  1  0  0  0  0
 35 36  2  0  0  0  0
 36 33  1  0  0  0  0
 37 34  2  0  0  0  0
 37 35  1  0  0  0  0
 38 36  1  0  0  0  0
 38 40  1  1  0  0  0
 39 40  2  0  0  0  0
 39 45  1  0  0  0  0
 41 43  1  0  0  0  0
 42 43  2  0  0  0  0
 43 39  1  0  0  0  0
 45 46  1  6  0  0  0
 45 44  1  0  0  0  0
M  END
>  <MODEL>
8

>  <REMARK>
 VINA RESULT:      -6.6      2.406      5.582
  Name = 
  20 active torsions:
  status: ('A' for Active; 'I' for Inactive)
    1  A    between atoms: C_1  and  N_32
    2  A    between atoms: C_2  and  O_45
    3  A    between atoms: C_7  and  C_18
    4  A    between atoms: C_7  and  O_27
    5  A    between atoms: C_7  and  N_32
    6  A    between atoms: C_8  and  C_16
    7  A    between atoms: CA_10  and  C_28
    8  A    between atoms: CA_10  and  CB_43
    9  A    between atoms: N_11  and  C_35
   10  A    between atoms: C_15  and  C_18
   11  A    between atoms: C_15  and  C_41
   12  A    between atoms: C_16  and  C_17
   13  A    between atoms: C_17  and  C_39
   14  A    between atoms: C_21  and  C_41
   15  A    between atoms: C_22  and  O_27
   16  A    between atoms: C_23  and  C_36
   17  A    between atoms: C_23  and  C_42
   18  A    between atoms: N_25  and  C_29
   19  A    between atoms: C_29  and  C_38
   20  A    between atoms: C_42  and  O_45
                            x       y       z     vdW  Elec       q    Type
                         _______ _______ _______ _____ _____    ______ ____

>  <TORSDO>
F 20

$$$$
=
 OpenBabel11032421023D

 46 48  0  0  1  0  0  0  0  0999 V2000
  188.2740  177.9460  143.3430 C   0  0  1  0  0  3  0  0  0  0  0  0
  187.1050  177.4800  144.0770 N   0  0  0  0  0  2  0  0  0  0  0  0
  185.7870  177.9920  143.8620 C   0  0  0  0  0  0  0  0  0  0  0  0
  183.1920  179.0100  143.4810 C   0  0  0  0  0  0  0  0  0  0  0  0
  183.7420  178.9230  144.7700 C   0  0  0  0  0  3  0  0  0  0  0  0
  185.2400  178.0730  142.5730 C   0  0  0  0  0  3  0  0  0  0  0  0
  183.9500  178.5790  142.3870 C   0  0  0  0  0  3  0  0  0  0  0  0
  185.0310  178.4170  144.9580 C   0  0  0  0  0  3  0  0  0  0  0  0
  181.9010  179.5000  143.2400 O   0  0  0  0  0  0  0  0  0  0  0  0
  179.9560  178.8690  144.3500 O   0  0  0  0  0  0  0  0  0  0  0  0
  180.7050  178.7740  143.3420 C   0  0  0  0  0  0  0  0  0  0  0  0
  180.3270  177.8460  142.2390 C   0  0  0  0  0  2  0  0  0  0  0  0
  180.1290  180.9070  139.2230 C   0  0  1  0  0  3  0  0  0  0  0  0
  179.0680  179.7930  141.2740 C   0  0  0  0  0  2  0  0  0  0  0  0
  181.2340  179.0980  140.4010 O   0  0  0  0  0  0  0  0  0  0  0  0
  179.5150  181.1060  140.6160 C   0  0  0  0  0  2  0  0  0  0  0  0
  180.0360  178.6350  140.9760 C   0  0  1  0  0  3  0  0  0  0  0  0
  180.9850  181.9770  138.9560 O   0  0  0  0  0  1  0  0  0  0  0  0
  180.8690  179.5530  139.1250 C   0  0  2  0  0  3  0  0  0  0  0  0
  182.0670  179.5700  138.1780 C   0  0  0  0  0  2  0  0  0  0  0  0
  183.3930  179.6170  138.9310 C   0  0  0  0  0  2  0  0  0  0  0  0
  184.3210  178.4930  138.5030 C   0  0  0  0  0  2  0  0  0  0  0  0
  183.7120  177.7220  137.5130 O   0  0  0  0  0  1  0  0  0  0  0  0
  189.2720  178.3710  144.2650 O   0  0  0  0  0  0  0  0  0  0  0  0
  189.4020  177.8170  145.5400 C   0  0  0  0  0  0  0  0  0  0  0  0
  190.5410  177.0060  145.8310 N   0  0  0  0  0  2  0  0  0  0  0  0
  188.5270  178.0240  146.4250 O   0  0  0  0  0  0  0  0  0  0  0  0
  190.7480  176.4080  147.1400 C   0  0  0  0  0  2  0  0  0  0  0  0
  192.9040  175.9470  148.1640 N   0  0  0  0  0  1  0  0  0  0  0  0
  191.9870  175.5330  147.1160 C   0  0  0  0  0  2  0  0  0  0  0  0
  188.8190  176.8190  142.4810 C   0  0  0  0  0  2  0  0  0  0  0  0
  190.1090  177.2420  141.7960 C   0  0  0  0  0  2  0  0  0  0  0  0
  190.3660  176.3800  140.5700 C   0  0  0  0  0  2  0  0  0  0  0  0
  189.7760  177.5070  137.0960 C   0  0  0  0  0  3  0  0  0  0  0  0
  189.2470  178.1880  139.2700 C   0  0  0  0  0  3  0  0  0  0  0  0
  190.0060  177.1070  139.3160 C   0  0  0  0  0  0  0  0  0  0  0  0
  189.0610  178.5920  137.8400 C   0  0  0  0  0  3  0  0  0  0  0  0
  190.3570  176.7000  137.9710 C   0  0  1  0  0  3  0  0  0  0  0  0
  192.2910  175.2390  137.4960 C   0  0  0  0  0  0  0  0  0  0  0  0
  191.0170  175.4640  137.6560 N   0  0  0  0  0  0  0  0  0  0  0  0
  194.0330  176.8720  136.7650 O   0  0  0  0  0  0  0  0  0  0  0  0
  193.5510  176.6040  138.9810 O   0  0  0  0  0  1  0  0  0  0  0  0
  193.3370  176.2470  137.7930 C   0  0  0  0  0  0  0  0  0  0  0  0
  193.6980  173.3430  137.8170 O   0  0  0  0  0  1  0  0  0  0  0  0
  192.6880  173.8760  137.0160 C   0  0  2  0  0  3  0  0  0  0  0  0
  193.1400  173.9220  135.5690 C   0  0  0  0  0  1  0  0  0  0  0  0
  1 31  1  1  0  0  0
  1  2  1  0  0  0  0
  1 24  1  0  0  0  0
  3  2  1  0  0  0  0
  3  8  1  0  0  0  0
  4  5  1  0  0  0  0
  5  8  2  0  0  0  0
  6  3  2  0  0  0  0
  7  6  1  0  0  0  0
  7  4  2  0  0  0  0
  9 11  1  0  0  0  0
  9  4  1  0  0  0  0
 11 10  2  0  0  0  0
 12 11  1  0  0  0  0
 13 18  1  1  0  0  0
 13 16  1  0  0  0  0
 15 17  1  0  0  0  0
 16 14  1  0  0  0  0
 17 14  1  0  0  0  0
 17 12  1  1  0  0  0
 19 20  1  6  0  0  0
 19 13  1  0  0  0  0
 19 15  1  0  0  0  0
 20 21  1  0  0  0  0
 22 21  1  0  0  0  0
 23 22  1  0  0  0  0
 24 25  1  0  0  0  0
 25 26  1  0  0  0  0
 25 27  2  0  0  0  0
 26 28  1  0  0  0  0
 30 28  1  0  0  0  0
 30 29  1  0  0  0  0
 32 31  1  0  0  0  0
 33 32  1  0  0  0  0
 34 37  2  0  0  0  0
 34 38  1  0  0  0  0
 35 36  2  0  0  0  0
 36 33  1  0  0  0  0
 37 35  1  0  0  0  0
 38 40  1  6  0  0  0
 38 36  1  0  0  0  0
 39 40  2  0  0  0  0
 39 43  1  0  0  0  0
 41 43  2  0  0  0  0
 43 42  1  0  0  0  0
 45 46  1  6  0  0  0
 45 39  1  0  0  0  0
 45 44  1  0  0  0  0
M  END
>  <MODEL>
9

>  <REMARK>
 VINA RESULT:      -6.6      3.396      9.459
  Name = 
  20 active torsions:
  status: ('A' for Active; 'I' for Inactive)
    1  A    between atoms: C_1  and  N_32
    2  A    between atoms: C_2  and  O_45
    3  A    between atoms: C_7  and  C_18
    4  A    between atoms: C_7  and  O_27
    5  A    between atoms: C_7  and  N_32
    6  A    between atoms: C_8  and  C_16
    7  A    between atoms: CA_10  and  C_28
    8  A    between atoms: CA_10  and  CB_43
    9  A    between atoms: N_11  and  C_35
   10  A    between atoms: C_15  and  C_18
   11  A    between atoms: C_15  and  C_41
   12  A    between atoms: C_16  and  C_17
   13  A    between atoms: C_17  and  C_39
   14  A    between atoms: C_21  and  C_41
   15  A    between atoms: C_22  and  O_27
   16  A    between atoms: C_23  and  C_36
   17  A    between atoms: C_23  and  C_42
   18  A    between atoms: N_25  and  C_29
   19  A    between atoms: C_29  and  C_38
   20  A    between atoms: C_42  and  O_45
                            x       y       z     vdW  Elec       q    Type
                         _______ _______ _______ _____ _____    ______ ____

>  <TORSDO>
F 20

$$$$
