=
 OpenBabel11032421293D

 26 28  0  0  1  0  0  0  0  0999 V2000
  184.9910  178.3320  146.6500 C   0  0  0  0  0  3  0  0  0  0  0  0
  188.3580  177.3510  145.9050 C   0  0  0  0  0  0  0  0  0  0  0  0
  184.8520  179.3060  144.4510 C   0  0  0  0  0  3  0  0  0  0  0  0
  186.2120  177.6620  146.2060 C   0  0  1  0  0  3  0  0  0  0  0  0
  186.4190  177.4210  144.7300 C   0  0  2  0  0  3  0  0  0  0  0  0
  190.0110  176.7580  144.5400 C   0  0  0  0  0  3  0  0  0  0  0  0
  188.8150  176.9360  143.8400 C   0  0  0  0  0  0  0  0  0  0  0  0
  189.6990  177.0290  145.8820 C   0  0  0  0  0  0  0  0  0  0  0  0
  187.3480  177.6100  146.9200 C   0  0  0  0  0  2  0  0  0  0  0  0
  187.8590  177.3370  144.6900 N   0  0  0  0  0  0  0  0  0  0  0  0
  184.3580  179.0810  145.7920 N   0  0  0  0  0  0  0  0  0  0  0  0
  185.8660  178.5810  143.9480 C   0  0  0  0  0  3  0  0  0  0  0  0
  191.7150  176.0210  146.9750 N   0  0  0  0  0  2  0  0  0  0  0  0
  190.4200  177.6360  148.0520 O   0  0  0  0  0  0  0  0  0  0  0  0
  192.6480  175.8800  148.0800 C   0  0  0  0  0  1  0  0  0  0  0  0
  190.6110  176.9250  147.0280 C   0  0  0  0  0  0  0  0  0  0  0  0
  188.6130  176.7120  142.3820 C   0  0  0  0  0  2  0  0  0  0  0  0
  189.3160  177.7390  141.6230 N   0  0  0  0  0  0  0  0  0  0  0  0
  190.4760  177.1280  140.9880 C   0  0  0  0  0  1  0  0  0  0  0  0
  188.4240  178.3120  140.6060 C   0  0  0  0  0  2  0  0  0  0  0  0
  188.8830  178.0710  139.1630 C   0  0  0  0  0  2  0  0  0  0  0  0
  187.6890  178.0330  138.2300 C   0  0  0  0  0  2  0  0  0  0  0  0
  186.5480  178.6570  138.8790 N   0  0  0  0  0  2  0  0  0  0  0  0
  184.0790  179.0670  139.1590 C   0  0  0  0  0  1  0  0  0  0  0  0
  185.2080  178.4010  138.4600 C   0  0  0  0  0  0  0  0  0  0  0  0
  184.9730  177.6160  137.5030 O   0  0  0  0  0  0  0  0  0  0  0  0
  2  9  1  0  0  0  0
  3 11  1  0  0  0  0
  4  1  1  6  0  0  0
  4  9  1  0  0  0  0
  5 12  1  6  0  0  0
  5  4  1  0  0  0  0
  6  8  1  0  0  0  0
  7  6  2  0  0  0  0
  7 10  1  0  0  0  0
  8  2  2  0  0  0  0
  8 16  1  0  0  0  0
 10  5  1  0  0  0  0
 10  2  1  0  0  0  0
 11  1  2  0  0  0  0
 12  3  2  0  0  0  0
 13 16  1  0  0  0  0
 13 15  1  0  0  0  0
 16 14  2  0  0  0  0
 17  7  1  0  0  0  0
 18 17  1  0  0  0  0
 19 18  1  0  0  0  0
 20 18  1  0  0  0  0
 21 20  1  0  0  0  0
 22 23  1  0  0  0  0
 22 21  1  0  0  0  0
 25 23  1  0  0  0  0
 25 24  1  0  0  0  0
 26 25  2  0  0  0  0
M  END
>  <MODEL>
1

>  <REMARK>
 VINA RESULT:      -8.1      0.000      0.000
  Name = 
  7 active torsions:
  status: ('A' for Active; 'I' for Inactive)
    1  A    between atoms: C_2  and  N_10
    2  A    between atoms: C_2  and  C_24
    3  A    between atoms: N_3  and  C_17
    4  A    between atoms: N_10  and  C_13
    5  A    between atoms: C_13  and  C_15
    6  A    between atoms: C_16  and  C_19
    7  A    between atoms: C_17  and  C_24
                            x       y       z     vdW  Elec       q    Type
                         _______ _______ _______ _____ _____    ______ ____

>  <TORSDO>
F 7

$$$$
=
 OpenBabel11032421293D

 26 28  0  0  1  0  0  0  0  0999 V2000
  190.6500  177.4500  141.4540 C   0  0  0  0  0  3  0  0  0  0  0  0
  187.2010  178.1280  142.1580 C   0  0  0  0  0  0  0  0  0  0  0  0
  191.1720  178.0580  143.7250 C   0  0  0  0  0  3  0  0  0  0  0  0
  189.2460  177.4060  141.8560 C   0  0  1  0  0  3  0  0  0  0  0  0
  188.9070  177.1730  143.3080 C   0  0  2  0  0  3  0  0  0  0  0  0
  185.4260  178.2830  143.4890 C   0  0  0  0  0  3  0  0  0  0  0  0
  186.5430  177.8140  144.1860 C   0  0  0  0  0  0  0  0  0  0  0  0
  185.8680  178.4810  142.1720 C   0  0  0  0  0  0  0  0  0  0  0  0
  188.2420  177.9580  141.1550 C   0  0  0  0  0  2  0  0  0  0  0  0
  187.5990  177.7800  143.3600 N   0  0  0  0  0  0  0  0  0  0  0  0
  191.5390  177.7350  142.3640 N   0  0  0  0  0  0  0  0  0  0  0  0
  189.9210  177.8630  144.1780 C   0  0  0  0  0  3  0  0  0  0  0  0
  183.6480  178.6420  141.0230 N   0  0  0  0  0  2  0  0  0  0  0  0
  185.5830  179.5340  140.0720 O   0  0  0  0  0  0  0  0  0  0  0  0
  182.7910  179.0520  139.9230 C   0  0  0  0  0  1  0  0  0  0  0  0
  185.0490  178.9170  141.0330 C   0  0  0  0  0  0  0  0  0  0  0  0
  186.5730  177.4030  145.6170 C   0  0  0  0  0  2  0  0  0  0  0  0
  186.2060  178.5320  146.4620 N   0  0  0  0  0  0  0  0  0  0  0  0
  184.8720  178.2910  146.9960 C   0  0  0  0  0  1  0  0  0  0  0  0
  187.1720  178.6750  147.5590 C   0  0  0  0  0  2  0  0  0  0  0  0
  187.9280  177.3870  147.9000 C   0  0  0  0  0  2  0  0  0  0  0  0
  189.4120  177.6650  148.0330 C   0  0  0  0  0  2  0  0  0  0  0  0
  190.1590  176.6680  147.2860 N   0  0  0  0  0  2  0  0  0  0  0  0
  192.2750  175.4390  146.6880 C   0  0  0  0  0  1  0  0  0  0  0  0
  191.5600  176.4740  147.4800 C   0  0  0  0  0  0  0  0  0  0  0  0
  192.1970  177.1700  148.3150 O   0  0  0  0  0  0  0  0  0  0  0  0
  1  4  1  0  0  0  0
  1 11  2  0  0  0  0
  2  8  2  0  0  0  0
  2 10  1  0  0  0  0
  3 12  2  0  0  0  0
  4  9  1  1  0  0  0
  4  5  1  0  0  0  0
  5 10  1  0  0  0  0
  5 12  1  1  0  0  0
  6  7  2  0  0  0  0
  7 17  1  0  0  0  0
  8  6  1  0  0  0  0
  9  2  1  0  0  0  0
 10  7  1  0  0  0  0
 11  3  1  0  0  0  0
 13 16  1  0  0  0  0
 14 16  2  0  0  0  0
 15 13  1  0  0  0  0
 16  8  1  0  0  0  0
 17 18  1  0  0  0  0
 18 19  1  0  0  0  0
 18 20  1  0  0  0  0
 20 21  1  0  0  0  0
 21 22  1  0  0  0  0
 23 25  1  0  0  0  0
 23 22  1  0  0  0  0
 24 25  1  0  0  0  0
 25 26  2  0  0  0  0
M  END
>  <MODEL>
2

>  <REMARK>
 VINA RESULT:      -7.9      1.789      7.943
  Name = 
  7 active torsions:
  status: ('A' for Active; 'I' for Inactive)
    1  A    between atoms: C_2  and  N_10
    2  A    between atoms: C_2  and  C_24
    3  A    between atoms: N_3  and  C_17
    4  A    between atoms: N_10  and  C_13
    5  A    between atoms: C_13  and  C_15
    6  A    between atoms: C_16  and  C_19
    7  A    between atoms: C_17  and  C_24
                            x       y       z     vdW  Elec       q    Type
                         _______ _______ _______ _____ _____    ______ ____

>  <TORSDO>
F 7

$$$$
=
 OpenBabel11032421293D

 26 28  0  0  1  0  0  0  0  0999 V2000
  191.2960  177.1520  147.7750 C   0  0  0  0  0  3  0  0  0  0  0  0
  188.7280  177.1670  145.2720 C   0  0  0  0  0  0  0  0  0  0  0  0
  192.3590  175.3460  146.5870 C   0  0  0  0  0  3  0  0  0  0  0  0
  190.4670  177.3590  146.5890 C   0  0  1  0  0  3  0  0  0  0  0  0
  190.9790  176.8920  145.2470 C   0  0  2  0  0  3  0  0  0  0  0  0
  187.9340  176.8340  143.2220 C   0  0  0  0  0  3  0  0  0  0  0  0
  189.3020  176.5560  143.2880 C   0  0  0  0  0  0  0  0  0  0  0  0
  187.5750  177.2330  144.5190 C   0  0  0  0  0  0  0  0  0  0  0  0
  189.1370  177.5410  146.6180 C   0  0  0  0  0  2  0  0  0  0  0  0
  189.7290  176.7240  144.5470 N   0  0  0  0  0  0  0  0  0  0  0  0
  192.1970  176.2110  147.7350 N   0  0  0  0  0  0  0  0  0  0  0  0
  191.7440  175.6080  145.4200 C   0  0  0  0  0  3  0  0  0  0  0  0
  185.3860  178.3500  144.0330 N   0  0  0  0  0  2  0  0  0  0  0  0
  185.8730  177.4830  146.1440 O   0  0  0  0  0  0  0  0  0  0  0  0
  184.0630  178.8160  144.4130 C   0  0  0  0  0  1  0  0  0  0  0  0
  186.2480  177.6850  144.9570 C   0  0  0  0  0  0  0  0  0  0  0  0
  190.1660  176.1450  142.1470 C   0  0  0  0  0  2  0  0  0  0  0  0
  190.4070  177.2870  141.2740 N   0  0  0  0  0  0  0  0  0  0  0  0
  191.8340  177.5780  141.2810 C   0  0  0  0  0  1  0  0  0  0  0  0
  189.9590  176.9800  139.9090 C   0  0  0  0  0  2  0  0  0  0  0  0
  189.1850  178.1160  139.2320 C   0  0  0  0  0  2  0  0  0  0  0  0
  187.9690  178.4900  140.0560 C   0  0  0  0  0  2  0  0  0  0  0  0
  186.7730  178.3470  139.2440 N   0  0  0  0  0  2  0  0  0  0  0  0
  184.3170  178.6840  138.7950 C   0  0  0  0  0  1  0  0  0  0  0  0
  185.5090  178.8590  139.6650 C   0  0  0  0  0  0  0  0  0  0  0  0
  185.3930  179.4590  140.7670 O   0  0  0  0  0  0  0  0  0  0  0  0
  2  9  1  0  0  0  0
  3 11  1  0  0  0  0
  4  9  1  1  0  0  0
  4  1  1  0  0  0  0
  5 12  1  1  0  0  0
  5  4  1  0  0  0  0
  6  7  2  0  0  0  0
  6  8  1  0  0  0  0
  7 10  1  0  0  0  0
  8 16  1  0  0  0  0
  8  2  2  0  0  0  0
 10  5  1  0  0  0  0
 10  2  1  0  0  0  0
 11  1  2  0  0  0  0
 12  3  2  0  0  0  0
 13 15  1  0  0  0  0
 13 16  1  0  0  0  0
 16 14  2  0  0  0  0
 17  7  1  0  0  0  0
 18 19  1  0  0  0  0
 18 17  1  0  0  0  0
 20 18  1  0  0  0  0
 21 20  1  0  0  0  0
 21 22  1  0  0  0  0
 23 25  1  0  0  0  0
 23 22  1  0  0  0  0
 24 25  1  0  0  0  0
 25 26  2  0  0  0  0
M  END
>  <MODEL>
3

>  <REMARK>
 VINA RESULT:      -7.8      1.723      4.507
  Name = 
  7 active torsions:
  status: ('A' for Active; 'I' for Inactive)
    1  A    between atoms: C_2  and  N_10
    2  A    between atoms: C_2  and  C_24
    3  A    between atoms: N_3  and  C_17
    4  A    between atoms: N_10  and  C_13
    5  A    between atoms: C_13  and  C_15
    6  A    between atoms: C_16  and  C_19
    7  A    between atoms: C_17  and  C_24
                            x       y       z     vdW  Elec       q    Type
                         _______ _______ _______ _____ _____    ______ ____

>  <TORSDO>
F 7

$$$$
=
 OpenBabel11032421293D

 26 28  0  0  1  0  0  0  0  0999 V2000
  185.0220  178.3140  146.6860 C   0  0  0  0  0  3  0  0  0  0  0  0
  188.3920  177.3500  145.9320 C   0  0  0  0  0  0  0  0  0  0  0  0
  184.8780  179.3030  144.4950 C   0  0  0  0  0  3  0  0  0  0  0  0
  186.2450  177.6520  146.2370 C   0  0  1  0  0  3  0  0  0  0  0  0
  186.4520  177.4210  144.7590 C   0  0  2  0  0  3  0  0  0  0  0  0
  190.0460  176.7720  144.5630 C   0  0  0  0  0  3  0  0  0  0  0  0
  188.8490  176.9510  143.8650 C   0  0  0  0  0  0  0  0  0  0  0  0
  189.7330  177.0320  145.9060 C   0  0  0  0  0  0  0  0  0  0  0  0
  187.3810  177.5980  146.9500 C   0  0  0  0  0  2  0  0  0  0  0  0
  187.8920  177.3430  144.7180 N   0  0  0  0  0  0  0  0  0  0  0  0
  184.3850  179.0670  145.8340 N   0  0  0  0  0  0  0  0  0  0  0  0
  185.8950  178.5850  143.9860 C   0  0  0  0  0  3  0  0  0  0  0  0
  191.7370  176.0040  147.0030 N   0  0  0  0  0  2  0  0  0  0  0  0
  190.4680  177.6440  148.0710 O   0  0  0  0  0  0  0  0  0  0  0  0
  192.6710  175.8580  148.1060 C   0  0  0  0  0  1  0  0  0  0  0  0
  190.6470  176.9240  147.0510 C   0  0  0  0  0  0  0  0  0  0  0  0
  188.6470  176.7360  142.4050 C   0  0  0  0  0  2  0  0  0  0  0  0
  189.3240  177.7870  141.6540 N   0  0  0  0  0  0  0  0  0  0  0  0
  190.4000  177.1780  140.8840 C   0  0  0  0  0  1  0  0  0  0  0  0
  188.3730  178.4550  140.7560 C   0  0  0  0  0  2  0  0  0  0  0  0
  188.7890  178.4430  139.2810 C   0  0  0  0  0  2  0  0  0  0  0  0
  187.6810  177.8620  138.4250 C   0  0  0  0  0  2  0  0  0  0  0  0
  188.1560  176.6520  137.7760 N   0  0  0  0  0  2  0  0  0  0  0  0
  188.9640  175.3540  135.7750 C   0  0  0  0  0  1  0  0  0  0  0  0
  188.4840  176.6190  136.3880 C   0  0  0  0  0  0  0  0  0  0  0  0
  188.3700  177.6530  135.6760 O   0  0  0  0  0  0  0  0  0  0  0  0
  2  9  1  0  0  0  0
  3 11  1  0  0  0  0
  4  1  1  6  0  0  0
  4  9  1  0  0  0  0
  5 12  1  6  0  0  0
  5  4  1  0  0  0  0
  6  8  1  0  0  0  0
  7  6  2  0  0  0  0
  7 10  1  0  0  0  0
  8  2  2  0  0  0  0
  8 16  1  0  0  0  0
 10  5  1  0  0  0  0
 10  2  1  0  0  0  0
 11  1  2  0  0  0  0
 12  3  2  0  0  0  0
 13 16  1  0  0  0  0
 13 15  1  0  0  0  0
 16 14  2  0  0  0  0
 17  7  1  0  0  0  0
 18 17  1  0  0  0  0
 19 18  1  0  0  0  0
 20 18  1  0  0  0  0
 21 20  1  0  0  0  0
 22 21  1  0  0  0  0
 23 22  1  0  0  0  0
 24 25  1  0  0  0  0
 25 23  1  0  0  0  0
 26 25  2  0  0  0  0
M  END
>  <MODEL>
4

>  <REMARK>
 VINA RESULT:      -7.8      1.307      1.864
  Name = 
  7 active torsions:
  status: ('A' for Active; 'I' for Inactive)
    1  A    between atoms: C_2  and  N_10
    2  A    between atoms: C_2  and  C_24
    3  A    between atoms: N_3  and  C_17
    4  A    between atoms: N_10  and  C_13
    5  A    between atoms: C_13  and  C_15
    6  A    between atoms: C_16  and  C_19
    7  A    between atoms: C_17  and  C_24
                            x       y       z     vdW  Elec       q    Type
                         _______ _______ _______ _____ _____    ______ ____

>  <TORSDO>
F 7

$$$$
=
 OpenBabel11032421293D

 26 28  0  0  1  0  0  0  0  0999 V2000
  185.7910  178.7030  139.8230 C   0  0  0  0  0  3  0  0  0  0  0  0
  189.1240  177.4570  140.2640 C   0  0  0  0  0  0  0  0  0  0  0  0
  185.3820  178.2640  142.1550 C   0  0  0  0  0  3  0  0  0  0  0  0
  187.2130  178.5130  140.1020 C   0  0  1  0  0  3  0  0  0  0  0  0
  187.7180  178.7280  141.5090 C   0  0  2  0  0  3  0  0  0  0  0  0
  190.9600  177.0370  141.4470 C   0  0  0  0  0  3  0  0  0  0  0  0
  190.0070  177.7140  142.2130 C   0  0  0  0  0  0  0  0  0  0  0  0
  190.3730  176.8790  140.1820 C   0  0  0  0  0  0  0  0  0  0  0  0
  188.0410  177.7750  139.3460 C   0  0  0  0  0  2  0  0  0  0  0  0
  188.9020  177.9050  141.4790 N   0  0  0  0  0  0  0  0  0  0  0  0
  184.9540  178.6030  140.8160 N   0  0  0  0  0  0  0  0  0  0  0  0
  186.6840  178.2520  142.4920 C   0  0  0  0  0  3  0  0  0  0  0  0
  192.2580  176.7610  138.5360 N   0  0  0  0  0  2  0  0  0  0  0  0
  190.4260  175.3220  138.4000 O   0  0  0  0  0  0  0  0  0  0  0  0
  192.9220  176.1960  137.3730 C   0  0  0  0  0  1  0  0  0  0  0  0
  190.9990  176.2720  139.0000 C   0  0  0  0  0  0  0  0  0  0  0  0
  190.1780  178.1670  143.6210 C   0  0  0  0  0  2  0  0  0  0  0  0
  190.0510  177.0300  144.5240 N   0  0  0  0  0  0  0  0  0  0  0  0
  191.2220  177.0000  145.3900 C   0  0  0  0  0  1  0  0  0  0  0  0
  188.8290  177.1610  145.3280 C   0  0  0  0  0  2  0  0  0  0  0  0
  189.0820  177.3560  146.8270 C   0  0  0  0  0  2  0  0  0  0  0  0
  187.8350  177.8810  147.5080 C   0  0  0  0  0  2  0  0  0  0  0  0
  186.7090  177.7890  146.5940 N   0  0  0  0  0  2  0  0  0  0  0  0
  184.5390  178.6200  145.6230 C   0  0  0  0  0  1  0  0  0  0  0  0
  185.6670  178.7640  146.5790 C   0  0  0  0  0  0  0  0  0  0  0  0
  185.6940  179.7460  147.3680 O   0  0  0  0  0  0  0  0  0  0  0  0
  1  4  1  0  0  0  0
  1 11  2  0  0  0  0
  2 10  1  0  0  0  0
  3 12  2  0  0  0  0
  4  9  1  1  0  0  0
  4  5  1  0  0  0  0
  5 12  1  1  0  0  0
  6  7  2  0  0  0  0
  7 17  1  0  0  0  0
  8  2  2  0  0  0  0
  8  6  1  0  0  0  0
  9  2  1  0  0  0  0
 10  5  1  0  0  0  0
 10  7  1  0  0  0  0
 11  3  1  0  0  0  0
 13 16  1  0  0  0  0
 14 16  2  0  0  0  0
 15 13  1  0  0  0  0
 16  8  1  0  0  0  0
 17 18  1  0  0  0  0
 18 20  1  0  0  0  0
 18 19  1  0  0  0  0
 20 21  1  0  0  0  0
 21 22  1  0  0  0  0
 23 22  1  0  0  0  0
 24 25  1  0  0  0  0
 25 23  1  0  0  0  0
 25 26  2  0  0  0  0
M  END
>  <MODEL>
5

>  <REMARK>
 VINA RESULT:      -7.6      2.408      6.538
  Name = 
  7 active torsions:
  status: ('A' for Active; 'I' for Inactive)
    1  A    between atoms: C_2  and  N_10
    2  A    between atoms: C_2  and  C_24
    3  A    between atoms: N_3  and  C_17
    4  A    between atoms: N_10  and  C_13
    5  A    between atoms: C_13  and  C_15
    6  A    between atoms: C_16  and  C_19
    7  A    between atoms: C_17  and  C_24
                            x       y       z     vdW  Elec       q    Type
                         _______ _______ _______ _____ _____    ______ ____

>  <TORSDO>
F 7

$$$$
=
 OpenBabel11032421293D

 26 28  0  0  1  0  0  0  0  0999 V2000
  191.3270  177.2460  147.9230 C   0  0  0  0  0  3  0  0  0  0  0  0
  188.6950  177.2700  145.4880 C   0  0  0  0  0  0  0  0  0  0  0  0
  192.3530  175.4370  146.7080 C   0  0  0  0  0  3  0  0  0  0  0  0
  190.4690  177.4550  146.7580 C   0  0  1  0  0  3  0  0  0  0  0  0
  190.9440  176.9870  145.4050 C   0  0  2  0  0  3  0  0  0  0  0  0
  187.8480  176.9400  143.4590 C   0  0  0  0  0  3  0  0  0  0  0  0
  189.2160  176.6570  143.4890 C   0  0  0  0  0  0  0  0  0  0  0  0
  187.5240  177.3390  144.7650 C   0  0  0  0  0  0  0  0  0  0  0  0
  189.1410  177.6430  146.8230 C   0  0  0  0  0  2  0  0  0  0  0  0
  189.6760  176.8230  144.7370 N   0  0  0  0  0  0  0  0  0  0  0  0
  192.2240  176.3020  147.8600 N   0  0  0  0  0  0  0  0  0  0  0  0
  191.7090  175.7010  145.5570 C   0  0  0  0  0  3  0  0  0  0  0  0
  185.2920  178.3870  144.3150 N   0  0  0  0  0  2  0  0  0  0  0  0
  185.8950  177.6630  146.4500 O   0  0  0  0  0  0  0  0  0  0  0  0
  183.9800  178.8540  144.7280 C   0  0  0  0  0  1  0  0  0  0  0  0
  186.2100  177.7960  145.2360 C   0  0  0  0  0  0  0  0  0  0  0  0
  190.0490  176.2430  142.3260 C   0  0  0  0  0  2  0  0  0  0  0  0
  190.1850  177.3570  141.3960 N   0  0  0  0  0  0  0  0  0  0  0  0
  191.5710  177.4190  140.9540 C   0  0  0  0  0  1  0  0  0  0  0  0
  189.2950  177.1610  140.2440 C   0  0  0  0  0  2  0  0  0  0  0  0
  189.6300  178.0410  139.0350 C   0  0  0  0  0  2  0  0  0  0  0  0
  189.5720  177.2280  137.7580 C   0  0  0  0  0  2  0  0  0  0  0  0
  190.9240  176.9420  137.3060 N   0  0  0  0  0  2  0  0  0  0  0  0
  192.9740  175.4870  137.1540 C   0  0  0  0  0  1  0  0  0  0  0  0
  191.5910  175.7260  137.6430 C   0  0  0  0  0  0  0  0  0  0  0  0
  191.0210  174.8550  138.3520 O   0  0  0  0  0  0  0  0  0  0  0  0
  2  9  1  0  0  0  0
  3 11  1  0  0  0  0
  4  9  1  1  0  0  0
  4  1  1  0  0  0  0
  5 12  1  1  0  0  0
  5  4  1  0  0  0  0
  6  7  2  0  0  0  0
  6  8  1  0  0  0  0
  7 10  1  0  0  0  0
  8 16  1  0  0  0  0
  8  2  2  0  0  0  0
 10  5  1  0  0  0  0
 10  2  1  0  0  0  0
 11  1  2  0  0  0  0
 12  3  2  0  0  0  0
 13 15  1  0  0  0  0
 13 16  1  0  0  0  0
 16 14  2  0  0  0  0
 17  7  1  0  0  0  0
 18 17  1  0  0  0  0
 19 18  1  0  0  0  0
 20 18  1  0  0  0  0
 21 20  1  0  0  0  0
 22 21  1  0  0  0  0
 23 25  1  0  0  0  0
 23 22  1  0  0  0  0
 24 25  1  0  0  0  0
 25 26  2  0  0  0  0
M  END
>  <MODEL>
6

>  <REMARK>
 VINA RESULT:      -7.5      2.612      5.257
  Name = 
  7 active torsions:
  status: ('A' for Active; 'I' for Inactive)
    1  A    between atoms: C_2  and  N_10
    2  A    between atoms: C_2  and  C_24
    3  A    between atoms: N_3  and  C_17
    4  A    between atoms: N_10  and  C_13
    5  A    between atoms: C_13  and  C_15
    6  A    between atoms: C_16  and  C_19
    7  A    between atoms: C_17  and  C_24
                            x       y       z     vdW  Elec       q    Type
                         _______ _______ _______ _____ _____    ______ ____

>  <TORSDO>
F 7

$$$$
=
 OpenBabel11032421293D

 26 28  0  0  1  0  0  0  0  0999 V2000
  191.0540  177.4400  147.8060 C   0  0  0  0  0  3  0  0  0  0  0  0
  188.3810  177.4710  145.4160 C   0  0  0  0  0  0  0  0  0  0  0  0
  192.0720  175.6520  146.5540 C   0  0  0  0  0  3  0  0  0  0  0  0
  190.1740  177.6560  146.6580 C   0  0  1  0  0  3  0  0  0  0  0  0
  190.6300  177.2060  145.2920 C   0  0  2  0  0  3  0  0  0  0  0  0
  187.5010  177.1570  143.3980 C   0  0  0  0  0  3  0  0  0  0  0  0
  188.8720  176.8840  143.4020 C   0  0  0  0  0  0  0  0  0  0  0  0
  187.1970  177.5390  144.7140 C   0  0  0  0  0  0  0  0  0  0  0  0
  188.8460  177.8320  146.7470 C   0  0  0  0  0  2  0  0  0  0  0  0
  189.3520  177.0400  144.6440 N   0  0  0  0  0  0  0  0  0  0  0  0
  191.9560  176.5030  147.7170 N   0  0  0  0  0  0  0  0  0  0  0  0
  191.4070  175.9240  145.4170 C   0  0  0  0  0  3  0  0  0  0  0  0
  184.9400  178.5500  144.3090 N   0  0  0  0  0  2  0  0  0  0  0  0
  185.6040  177.8550  146.4350 O   0  0  0  0  0  0  0  0  0  0  0  0
  183.6310  179.0010  144.7490 C   0  0  0  0  0  1  0  0  0  0  0  0
  185.8880  177.9810  145.2130 C   0  0  0  0  0  0  0  0  0  0  0  0
  189.6880  176.4890  142.2210 C   0  0  0  0  0  2  0  0  0  0  0  0
  190.2380  177.6780  141.5820 N   0  0  0  0  0  0  0  0  0  0  0  0
  191.6780  177.5020  141.4480 C   0  0  0  0  0  1  0  0  0  0  0  0
  189.6260  177.8680  140.2600 C   0  0  0  0  0  2  0  0  0  0  0  0
  190.3290  177.1100  139.1290 C   0  0  0  0  0  2  0  0  0  0  0  0
  189.6780  177.4270  137.7980 C   0  0  0  0  0  2  0  0  0  0  0  0
  188.2470  177.1920  137.8910 N   0  0  0  0  0  2  0  0  0  0  0  0
  185.8410  177.8760  137.5930 C   0  0  0  0  0  1  0  0  0  0  0  0
  187.2930  178.1690  137.4740 C   0  0  0  0  0  0  0  0  0  0  0  0
  187.6690  179.2760  137.0060 O   0  0  0  0  0  0  0  0  0  0  0  0
  2  9  1  0  0  0  0
  3 11  1  0  0  0  0
  4  9  1  1  0  0  0
  4  1  1  0  0  0  0
  5 12  1  1  0  0  0
  5  4  1  0  0  0  0
  6  7  2  0  0  0  0
  6  8  1  0  0  0  0
  7 10  1  0  0  0  0
  8 16  1  0  0  0  0
  8  2  2  0  0  0  0
 10  5  1  0  0  0  0
 10  2  1  0  0  0  0
 11  1  2  0  0  0  0
 12  3  2  0  0  0  0
 13 15  1  0  0  0  0
 13 16  1  0  0  0  0
 16 14  2  0  0  0  0
 17  7  1  0  0  0  0
 18 17  1  0  0  0  0
 19 18  1  0  0  0  0
 20 18  1  0  0  0  0
 21 20  1  0  0  0  0
 22 23  1  0  0  0  0
 22 21  1  0  0  0  0
 25 24  1  0  0  0  0
 25 23  1  0  0  0  0
 26 25  2  0  0  0  0
M  END
>  <MODEL>
7

>  <REMARK>
 VINA RESULT:      -7.4      1.773      4.504
  Name = 
  7 active torsions:
  status: ('A' for Active; 'I' for Inactive)
    1  A    between atoms: C_2  and  N_10
    2  A    between atoms: C_2  and  C_24
    3  A    between atoms: N_3  and  C_17
    4  A    between atoms: N_10  and  C_13
    5  A    between atoms: C_13  and  C_15
    6  A    between atoms: C_16  and  C_19
    7  A    between atoms: C_17  and  C_24
                            x       y       z     vdW  Elec       q    Type
                         _______ _______ _______ _____ _____    ______ ____

>  <TORSDO>
F 7

$$$$
=
 OpenBabel11032421293D

 26 28  0  0  1  0  0  0  0  0999 V2000
  184.3430  178.9670  145.6230 C   0  0  0  0  0  3  0  0  0  0  0  0
  185.2240  178.8810  142.1480 C   0  0  0  0  0  0  0  0  0  0  0  0
  186.1530  177.4380  146.0580 C   0  0  0  0  0  3  0  0  0  0  0  0
  184.9220  179.1750  144.2970 C   0  0  1  0  0  3  0  0  0  0  0  0
  186.3940  178.9090  144.0910 C   0  0  2  0  0  3  0  0  0  0  0  0
  186.6410  178.6430  140.4520 C   0  0  0  0  0  3  0  0  0  0  0  0
  187.2990  178.5420  141.6800 C   0  0  0  0  0  0  0  0  0  0  0  0
  185.2930  178.8660  140.7720 C   0  0  0  0  0  0  0  0  0  0  0  0
  184.2160  179.1780  143.1560 C   0  0  0  0  0  2  0  0  0  0  0  0
  186.4040  178.6450  142.6730 N   0  0  0  0  0  0  0  0  0  0  0  0
  184.9600  178.1610  146.4410 N   0  0  0  0  0  0  0  0  0  0  0  0
  186.8120  177.7270  144.9220 C   0  0  0  0  0  3  0  0  0  0  0  0
  183.1320  178.1500  139.7240 N   0  0  0  0  0  2  0  0  0  0  0  0
  184.1990  180.1280  139.0960 O   0  0  0  0  0  0  0  0  0  0  0  0
  182.0240  178.3300  138.8020 C   0  0  0  0  0  1  0  0  0  0  0  0
  184.1970  179.0960  139.8210 C   0  0  0  0  0  0  0  0  0  0  0  0
  188.7640  178.3590  141.8750 C   0  0  0  0  0  2  0  0  0  0  0  0
  189.1090  176.9500  141.7260 N   0  0  0  0  0  0  0  0  0  0  0  0
  189.9300  176.8040  140.5310 C   0  0  0  0  0  1  0  0  0  0  0  0
  189.8470  176.4850  142.9070 C   0  0  0  0  0  2  0  0  0  0  0  0
  191.2920  176.9910  142.9840 C   0  0  0  0  0  2  0  0  0  0  0  0
  191.4710  177.8910  144.1900 C   0  0  0  0  0  2  0  0  0  0  0  0
  190.4090  177.6340  145.1480 N   0  0  0  0  0  2  0  0  0  0  0  0
  189.5440  176.8060  147.3640 C   0  0  0  0  0  1  0  0  0  0  0  0
  190.6690  177.0480  146.4230 C   0  0  0  0  0  0  0  0  0  0  0  0
  191.8410  176.7330  146.7590 O   0  0  0  0  0  0  0  0  0  0  0  0
  1 11  2  0  0  0  0
  2 10  1  0  0  0  0
  2  9  1  0  0  0  0
  3 11  1  0  0  0  0
  4  9  1  6  0  0  0
  4  1  1  0  0  0  0
  5  4  1  0  0  0  0
  5 12  1  1  0  0  0
  6  8  1  0  0  0  0
  6  7  2  0  0  0  0
  7 17  1  0  0  0  0
  7 10  1  0  0  0  0
  8  2  2  0  0  0  0
 10  5  1  0  0  0  0
 12  3  2  0  0  0  0
 13 16  1  0  0  0  0
 14 16  2  0  0  0  0
 15 13  1  0  0  0  0
 16  8  1  0  0  0  0
 18 17  1  0  0  0  0
 18 20  1  0  0  0  0
 19 18  1  0  0  0  0
 20 21  1  0  0  0  0
 21 22  1  0  0  0  0
 22 23  1  0  0  0  0
 23 25  1  0  0  0  0
 25 26  2  0  0  0  0
 25 24  1  0  0  0  0
M  END
>  <MODEL>
8

>  <REMARK>
 VINA RESULT:      -7.3      1.811      6.811
  Name = 
  7 active torsions:
  status: ('A' for Active; 'I' for Inactive)
    1  A    between atoms: C_2  and  N_10
    2  A    between atoms: C_2  and  C_24
    3  A    between atoms: N_3  and  C_17
    4  A    between atoms: N_10  and  C_13
    5  A    between atoms: C_13  and  C_15
    6  A    between atoms: C_16  and  C_19
    7  A    between atoms: C_17  and  C_24
                            x       y       z     vdW  Elec       q    Type
                         _______ _______ _______ _____ _____    ______ ____

>  <TORSDO>
F 7

$$$$
=
 OpenBabel11032421293D

 26 28  0  0  1  0  0  0  0  0999 V2000
  191.6300  176.0760  143.4670 C   0  0  0  0  0  3  0  0  0  0  0  0
  189.1730  177.4650  141.2550 C   0  0  0  0  0  0  0  0  0  0  0  0
  190.5650  177.2420  145.2860 C   0  0  0  0  0  3  0  0  0  0  0  0
  190.4440  176.3750  142.6660 C   0  0  1  0  0  3  0  0  0  0  0  0
  189.1340  176.6400  143.3670 C   0  0  2  0  0  3  0  0  0  0  0  0
  187.1660  178.2840  140.7600 C   0  0  0  0  0  3  0  0  0  0  0  0
  187.2320  177.8750  142.0940 C   0  0  0  0  0  0  0  0  0  0  0  0
  188.4350  178.0100  140.2260 C   0  0  0  0  0  0  0  0  0  0  0  0
  190.4810  176.8430  141.4080 C   0  0  0  0  0  2  0  0  0  0  0  0
  188.4680  177.4320  142.3630 N   0  0  0  0  0  0  0  0  0  0  0  0
  191.6470  176.4760  144.7070 N   0  0  0  0  0  0  0  0  0  0  0  0
  189.3910  177.3900  144.6460 C   0  0  0  0  0  3  0  0  0  0  0  0
  189.0390  177.0810  137.9790 N   0  0  0  0  0  2  0  0  0  0  0  0
  189.0560  179.3770  138.3970 O   0  0  0  0  0  0  0  0  0  0  0  0
  189.4540  177.2230  136.5940 C   0  0  0  0  0  1  0  0  0  0  0  0
  188.8580  178.2110  138.8340 C   0  0  0  0  0  0  0  0  0  0  0  0
  186.1120  177.9090  143.0760 C   0  0  0  0  0  2  0  0  0  0  0  0
  185.2500  179.0520  142.8010 N   0  0  0  0  0  0  0  0  0  0  0  0
  184.1420  178.6020  141.9700 C   0  0  0  0  0  1  0  0  0  0  0  0
  184.7430  179.6130  144.0600 C   0  0  0  0  0  2  0  0  0  0  0  0
  184.7520  178.6280  145.2350 C   0  0  0  0  0  2  0  0  0  0  0  0
  185.7650  179.0590  146.2760 C   0  0  0  0  0  2  0  0  0  0  0  0
  186.5930  177.9230  146.6440 N   0  0  0  0  0  2  0  0  0  0  0  0
  188.3050  176.7750  148.0910 C   0  0  0  0  0  1  0  0  0  0  0  0
  187.4800  177.9660  147.7610 C   0  0  0  0  0  0  0  0  0  0  0  0
  187.5710  179.0030  148.4700 O   0  0  0  0  0  0  0  0  0  0  0  0
  1 11  2  0  0  0  0
  2  9  1  0  0  0  0
  2 10  1  0  0  0  0
  4  9  1  1  0  0  0
  4  5  1  0  0  0  0
  4  1  1  0  0  0  0
  5 12  1  1  0  0  0
  6  7  2  0  0  0  0
  7 10  1  0  0  0  0
  7 17  1  0  0  0  0
  8  6  1  0  0  0  0
  8  2  2  0  0  0  0
 10  5  1  0  0  0  0
 11  3  1  0  0  0  0
 12  3  2  0  0  0  0
 13 16  1  0  0  0  0
 14 16  2  0  0  0  0
 15 13  1  0  0  0  0
 16  8  1  0  0  0  0
 18 17  1  0  0  0  0
 18 20  1  0  0  0  0
 19 18  1  0  0  0  0
 20 21  1  0  0  0  0
 21 22  1  0  0  0  0
 22 23  1  0  0  0  0
 23 25  1  0  0  0  0
 25 24  1  0  0  0  0
 25 26  2  0  0  0  0
M  END
>  <MODEL>
9

>  <REMARK>
 VINA RESULT:      -7.3      2.073      7.228
  Name = 
  7 active torsions:
  status: ('A' for Active; 'I' for Inactive)
    1  A    between atoms: C_2  and  N_10
    2  A    between atoms: C_2  and  C_24
    3  A    between atoms: N_3  and  C_17
    4  A    between atoms: N_10  and  C_13
    5  A    between atoms: C_13  and  C_15
    6  A    between atoms: C_16  and  C_19
    7  A    between atoms: C_17  and  C_24
                            x       y       z     vdW  Elec       q    Type
                         _______ _______ _______ _____ _____    ______ ____

>  <TORSDO>
F 7

$$$$
