=
 OpenBabel11032419303D

 31 35  0  0  1  0  0  0  0  0999 V2000
  179.1800  179.3980  138.5630 C   0  0  0  0  0  2  0  0  0  0  0  0
  182.3870  176.4960  139.5980 C   0  0  0  0  0  3  0  0  0  0  0  0
  182.3060  175.6960  138.4570 C   0  0  0  0  0  0  0  0  0  0  0  0
  185.2550  176.9450  136.6340 N   0  0  0  0  0  0  0  0  0  0  0  0
  180.2470  174.3120  139.2690 C   0  0  1  0  0  3  0  0  0  0  0  0
  180.2370  178.8980  139.5310 C   0  0  2  0  0  0  0  0  0  0  0  0
  178.9430  174.7750  141.3150 N   0  0  0  0  0  1  0  0  0  0  0  0
  181.1790  174.8280  138.2570 N   0  0  0  0  0  2  0  0  0  0  0  0
  183.3670  177.4700  139.7450 C   0  0  0  0  0  0  0  0  0  0  0  0
  183.2690  175.8510  137.4430 C   0  0  0  0  0  0  0  0  0  0  0  0
  186.2450  177.8650  136.7610 C   0  0  0  0  0  0  0  0  0  0  0  0
  183.1880  175.0180  136.2040 C   0  0  0  0  0  1  0  0  0  0  0  0
  187.2230  178.0010  135.7370 N   0  0  0  0  0  1  0  0  0  0  0  0
  184.3070  176.7910  137.6000 C   0  0  0  0  0  0  0  0  0  0  0  0
  185.3790  178.5510  138.8510 C   0  0  0  0  0  3  0  0  0  0  0  0
  179.8380  175.3540  140.3260 C   0  0  2  0  0  3  0  0  0  0  0  0
  184.3540  177.6050  138.7540 C   0  0  0  0  0  0  0  0  0  0  0  0
  186.3020  178.6610  137.8620 N   0  0  0  0  0  0  0  0  0  0  0  0
  179.8560  177.7840  140.4290 N   0  0  0  0  0  0  0  0  0  0  0  0
  181.4270  179.5520  137.5160 C   0  0  0  0  0  2  0  0  0  0  0  0
  181.3490  179.8590  139.9440 C   0  0  2  0  0  3  0  0  0  0  0  0
  184.1210  178.2840  141.8240 O   0  0  0  0  0  0  0  0  0  0  0  0
  179.2430  176.6320  139.7530 C   0  0  0  0  0  2  0  0  0  0  0  0
  182.1520  180.1830  138.6960 C   0  0  0  0  0  2  0  0  0  0  0  0
  182.2150  179.3490  141.0150 N   0  0  0  0  0  2  0  0  0  0  0  0
  180.3720  178.5960  138.0500 C   0  0  2  0  0  3  0  0  0  0  0  0
  183.2680  178.3750  140.9030 C   0  0  0  0  0  0  0  0  0  0  0  0
  179.1240  173.8940  137.0810 C   0  0  0  0  0  1  0  0  0  0  0  0
  179.0300  173.7060  138.5820 C   0  0  0  0  0  2  0  0  0  0  0  0
  178.9800  178.2600  141.5050 C   0  0  0  0  0  2  0  0  0  0  0  0
  179.4480  177.8580  142.7600 O   0  0  0  0  0  1  0  0  0  0  0  0
  2  9  1  0  0  0  0
  3  2  2  0  0  0  0
  4 11  2  0  0  0  0
  4 14  1  0  0  0  0
  5 29  1  6  0  0  0
  5 16  1  0  0  0  0
  6  1  1  1  0  0  0
  6 21  1  0  0  0  0
  6 19  1  0  0  0  0
  8  3  1  0  0  0  0
  8  5  1  0  0  0  0
  9 27  1  0  0  0  0
 10 14  2  0  0  0  0
 10  3  1  0  0  0  0
 11 18  1  0  0  0  0
 12 10  1  0  0  0  0
 13 11  1  0  0  0  0
 14 17  1  0  0  0  0
 16  7  1  1  0  0  0
 17 15  1  0  0  0  0
 17  9  2  0  0  0  0
 18 15  2  0  0  0  0
 19 30  1  0  0  0  0
 20 24  1  0  0  0  0
 21 24  1  6  0  0  0
 21 25  1  0  0  0  0
 23 16  1  0  0  0  0
 23 19  1  0  0  0  0
 26 20  1  6  0  0  0
 26  1  1  0  0  0  0
 26  6  1  0  0  0  0
 27 25  1  0  0  0  0
 27 22  2  0  0  0  0
 28 29  1  0  0  0  0
 30 31  1  0  0  0  0
M  END
>  <MODEL>
1

>  <REMARK>
 VINA RESULT:      -5.8      0.000      0.000
  Name = 
  2 active torsions:
  status: ('A' for Active; 'I' for Inactive)
    1  A    between atoms: C_5  and  C_23
    2  A    between atoms: N_20  and  C_27
                            x       y       z     vdW  Elec       q    Type
                         _______ _______ _______ _____ _____    ______ ____

>  <TORSDO>
F 2

$$$$
=
 OpenBabel11032419303D

 31 35  0  0  1  0  0  0  0  0999 V2000
  186.9020  177.0760  134.5950 C   0  0  0  0  0  2  0  0  0  0  0  0
  189.1100  174.6310  137.5820 C   0  0  0  0  0  3  0  0  0  0  0  0
  189.5700  173.6330  136.7220 C   0  0  0  0  0  0  0  0  0  0  0  0
  193.0700  174.7230  136.3470 N   0  0  0  0  0  0  0  0  0  0  0  0
  187.3330  172.2860  136.6860 C   0  0  1  0  0  3  0  0  0  0  0  0
  187.3390  176.8320  136.0290 C   0  0  2  0  0  0  0  0  0  0  0  0
  185.2150  173.0250  137.7180 N   0  0  0  0  0  1  0  0  0  0  0  0
  188.6550  172.6700  136.1720 N   0  0  0  0  0  2  0  0  0  0  0  0
  189.9250  175.6780  137.9950 C   0  0  0  0  0  0  0  0  0  0  0  0
  190.9080  173.6650  136.2890 C   0  0  0  0  0  0  0  0  0  0  0  0
  193.9010  175.7150  136.7570 C   0  0  0  0  0  0  0  0  0  0  0  0
  191.4140  172.6170  135.3500 C   0  0  0  0  0  1  0  0  0  0  0  0
  195.2570  175.7270  136.3280 N   0  0  0  0  0  1  0  0  0  0  0  0
  191.7680  174.6840  136.7440 C   0  0  0  0  0  0  0  0  0  0  0  0
  192.1500  176.7100  137.9950 C   0  0  0  0  0  3  0  0  0  0  0  0
  186.4950  173.4730  137.1930 C   0  0  2  0  0  3  0  0  0  0  0  0
  191.2720  175.6960  137.5980 C   0  0  0  0  0  0  0  0  0  0  0  0
  193.4400  176.6990  137.5730 N   0  0  0  0  0  0  0  0  0  0  0  0
  186.5350  175.8770  136.8250 N   0  0  0  0  0  0  0  0  0  0  0  0
  189.3790  177.1870  134.7550 C   0  0  0  0  0  2  0  0  0  0  0  0
  188.1400  177.9240  136.7350 C   0  0  2  0  0  3  0  0  0  0  0  0
  189.5980  176.9050  139.9800 O   0  0  0  0  0  0  0  0  0  0  0  0
  186.2930  174.5830  136.1720 C   0  0  0  0  0  2  0  0  0  0  0  0
  189.4570  178.0690  135.9930 C   0  0  0  0  0  2  0  0  0  0  0  0
  188.3590  177.6760  138.1660 N   0  0  0  0  0  2  0  0  0  0  0  0
  188.1680  176.2760  134.8850 C   0  0  2  0  0  3  0  0  0  0  0  0
  189.3030  176.7700  138.7640 C   0  0  0  0  0  0  0  0  0  0  0  0
  187.5540  170.9430  134.5950 C   0  0  0  0  0  1  0  0  0  0  0  0
  186.5850  171.4850  135.6280 C   0  0  0  0  0  2  0  0  0  0  0  0
  185.2630  176.4810  137.2310 C   0  0  0  0  0  2  0  0  0  0  0  0
  184.2120  176.0670  136.4050 O   0  0  0  0  0  1  0  0  0  0  0  0
  2  9  1  0  0  0  0
  3  2  2  0  0  0  0
  4 14  1  0  0  0  0
  4 11  2  0  0  0  0
  5 29  1  6  0  0  0
  5 16  1  0  0  0  0
  6  1  1  6  0  0  0
  6 21  1  0  0  0  0
  6 19  1  0  0  0  0
  8  5  1  0  0  0  0
  8  3  1  0  0  0  0
  9 27  1  0  0  0  0
 10  3  1  0  0  0  0
 10 14  2  0  0  0  0
 11 18  1  0  0  0  0
 12 10  1  0  0  0  0
 13 11  1  0  0  0  0
 14 17  1  0  0  0  0
 16  7  1  6  0  0  0
 17 15  1  0  0  0  0
 17  9  2  0  0  0  0
 18 15  2  0  0  0  0
 19 30  1  0  0  0  0
 20 26  1  0  0  0  0
 20 24  1  0  0  0  0
 21 24  1  6  0  0  0
 21 25  1  0  0  0  0
 23 19  1  0  0  0  0
 23 16  1  0  0  0  0
 25 27  1  0  0  0  0
 26  1  1  6  0  0  0
 26  6  1  0  0  0  0
 27 22  2  0  0  0  0
 28 29  1  0  0  0  0
 31 30  1  0  0  0  0
M  END
>  <MODEL>
2

>  <REMARK>
 VINA RESULT:      -5.7      5.230      7.875
  Name = 
  2 active torsions:
  status: ('A' for Active; 'I' for Inactive)
    1  A    between atoms: C_5  and  C_23
    2  A    between atoms: N_20  and  C_27
                            x       y       z     vdW  Elec       q    Type
                         _______ _______ _______ _____ _____    ______ ____

>  <TORSDO>
F 2

$$$$
=
 OpenBabel11032419303D

 31 35  0  0  1  0  0  0  0  0999 V2000
  180.4160  176.7500  134.8570 C   0  0  0  0  0  2  0  0  0  0  0  0
  182.3520  175.9550  138.7800 C   0  0  0  0  0  3  0  0  0  0  0  0
  183.2520  177.0210  138.7780 C   0  0  0  0  0  0  0  0  0  0  0  0
  181.5100  179.2880  141.1030 N   0  0  0  0  0  0  0  0  0  0  0  0
  185.0070  175.8620  137.2300 C   0  0  1  0  0  3  0  0  0  0  0  0
  180.5540  175.8970  136.1050 C   0  0  2  0  0  0  0  0  0  0  0  0
  184.6800  173.6980  136.0860 N   0  0  0  0  0  1  0  0  0  0  0  0
  184.3810  177.0180  137.8870 N   0  0  0  0  0  2  0  0  0  0  0  0
  181.1630  175.9990  139.4960 C   0  0  0  0  0  0  0  0  0  0  0  0
  182.9670  178.1600  139.5530 C   0  0  0  0  0  0  0  0  0  0  0  0
  180.3710  179.3500  141.8390 C   0  0  0  0  0  0  0  0  0  0  0  0
  183.9080  179.3220  139.5480 C   0  0  0  0  0  1  0  0  0  0  0  0
  180.1010  180.4990  142.6340 N   0  0  0  0  0  1  0  0  0  0  0  0
  181.7950  178.2000  140.3350 C   0  0  0  0  0  0  0  0  0  0  0  0
  179.7190  177.2140  141.0640 C   0  0  0  0  0  3  0  0  0  0  0  0
  183.9990  174.8300  136.6930 C   0  0  2  0  0  3  0  0  0  0  0  0
  180.8880  177.1160  140.3030 C   0  0  0  0  0  0  0  0  0  0  0  0
  179.4850  178.3200  141.8150 N   0  0  0  0  0  0  0  0  0  0  0  0
  181.6370  174.8870  136.1150 N   0  0  0  0  0  0  0  0  0  0  0  0
  179.8260  178.0870  136.8660 C   0  0  0  0  0  2  0  0  0  0  0  0
  179.3200  175.6940  136.9810 C   0  0  2  0  0  3  0  0  0  0  0  0
  179.9990  174.0920  140.2470 O   0  0  0  0  0  0  0  0  0  0  0  0
  182.9610  175.4020  135.7390 C   0  0  0  0  0  2  0  0  0  0  0  0
  178.9310  177.0540  137.5350 C   0  0  0  0  0  2  0  0  0  0  0  0
  179.5030  174.7140  138.0580 N   0  0  0  0  0  2  0  0  0  0  0  0
  180.9530  177.3600  136.1470 C   0  0  2  0  0  3  0  0  0  0  0  0
  180.2030  174.8990  139.3020 C   0  0  0  0  0  0  0  0  0  0  0  0
  186.5030  177.7130  136.4830 C   0  0  0  0  0  1  0  0  0  0  0  0
  185.9500  176.3450  136.1360 C   0  0  0  0  0  2  0  0  0  0  0  0
  181.2860  173.7400  135.2720 C   0  0  0  0  0  2  0  0  0  0  0  0
  181.3050  172.5460  136.0000 O   0  0  0  0  0  1  0  0  0  0  0  0
  2  9  1  0  0  0  0
  3  2  2  0  0  0  0
  3 10  1  0  0  0  0
  4 11  2  0  0  0  0
  5 29  1  6  0  0  0
  5  8  1  0  0  0  0
  6  1  1  6  0  0  0
  6 19  1  0  0  0  0
  6 26  1  0  0  0  0
  6 21  1  0  0  0  0
  8  3  1  0  0  0  0
  9 17  2  0  0  0  0
 10 14  2  0  0  0  0
 11 13  1  0  0  0  0
 12 10  1  0  0  0  0
 14  4  1  0  0  0  0
 15 18  2  0  0  0  0
 16  7  1  6  0  0  0
 16  5  1  0  0  0  0
 17 14  1  0  0  0  0
 17 15  1  0  0  0  0
 18 11  1  0  0  0  0
 20 24  1  0  0  0  0
 21 24  1  1  0  0  0
 21 25  1  0  0  0  0
 23 19  1  0  0  0  0
 23 16  1  0  0  0  0
 25 27  1  0  0  0  0
 26  1  1  6  0  0  0
 26 20  1  0  0  0  0
 27  9  1  0  0  0  0
 27 22  2  0  0  0  0
 29 28  1  0  0  0  0
 30 31  1  0  0  0  0
 30 19  1  0  0  0  0
M  END
>  <MODEL>
3

>  <REMARK>
 VINA RESULT:      -4.8      2.494      5.857
  Name = 
  2 active torsions:
  status: ('A' for Active; 'I' for Inactive)
    1  A    between atoms: C_5  and  C_23
    2  A    between atoms: N_20  and  C_27
                            x       y       z     vdW  Elec       q    Type
                         _______ _______ _______ _____ _____    ______ ____

>  <TORSDO>
F 2

$$$$
=
 OpenBabel11032419303D

 31 35  0  0  1  0  0  0  0  0999 V2000
  180.4870  175.9380  134.5940 C   0  0  0  0  0  2  0  0  0  0  0  0
  183.3920  174.8900  137.7930 C   0  0  0  0  0  3  0  0  0  0  0  0
  184.3630  174.2900  136.9900 C   0  0  0  0  0  0  0  0  0  0  0  0
  186.8290  177.0260  136.8810 N   0  0  0  0  0  0  0  0  0  0  0  0
  183.1420  171.9900  136.7980 C   0  0  1  0  0  3  0  0  0  0  0  0
  180.8730  175.9150  136.0620 C   0  0  2  0  0  0  0  0  0  0  0  0
  180.8700  171.5150  137.6410 N   0  0  0  0  0  1  0  0  0  0  0  0
  184.1180  173.0100  136.3860 N   0  0  0  0  0  2  0  0  0  0  0  0
  183.5200  176.1950  138.2510 C   0  0  0  0  0  0  0  0  0  0  0  0
  185.5260  175.0130  136.6670 C   0  0  0  0  0  0  0  0  0  0  0  0
  187.0010  178.2930  137.3400 C   0  0  0  0  0  0  0  0  0  0  0  0
  186.5700  174.3960  135.7910 C   0  0  0  0  0  1  0  0  0  0  0  0
  188.1880  179.0080  137.0210 N   0  0  0  0  0  1  0  0  0  0  0  0
  185.7040  176.3170  137.1720 C   0  0  0  0  0  0  0  0  0  0  0  0
  184.8960  178.2190  138.4130 C   0  0  0  0  0  3  0  0  0  0  0  0
  181.7780  172.5680  137.2140 C   0  0  2  0  0  3  0  0  0  0  0  0
  184.6950  176.9100  137.9650 C   0  0  0  0  0  0  0  0  0  0  0  0
  186.0380  178.8810  138.0970 N   0  0  0  0  0  0  0  0  0  0  0  0
  180.6110  174.6630  136.8070 N   0  0  0  0  0  0  0  0  0  0  0  0
  182.5360  177.2960  134.9510 C   0  0  0  0  0  2  0  0  0  0  0  0
  180.9430  177.2440  136.8110 C   0  0  2  0  0  3  0  0  0  0  0  0
  182.4570  177.0300  140.1810 O   0  0  0  0  0  0  0  0  0  0  0  0
  181.1170  173.4450  136.1600 C   0  0  0  0  0  2  0  0  0  0  0  0
  182.0550  178.0620  136.1750 C   0  0  0  0  0  2  0  0  0  0  0  0
  181.1450  177.1060  138.2590 N   0  0  0  0  0  2  0  0  0  0  0  0
  181.9560  175.8910  134.9990 C   0  0  2  0  0  3  0  0  0  0  0  0
  182.3690  176.7950  138.9470 C   0  0  0  0  0  0  0  0  0  0  0  0
  183.7780  169.6970  136.0480 C   0  0  0  0  0  1  0  0  0  0  0  0
  182.9960  170.9480  135.6970 C   0  0  0  0  0  2  0  0  0  0  0  0
  179.1810  174.5210  137.0980 C   0  0  0  0  0  2  0  0  0  0  0  0
  178.9530  174.3450  138.4670 O   0  0  0  0  0  1  0  0  0  0  0  0
  2  9  1  0  0  0  0
  3  2  2  0  0  0  0
  4 14  1  0  0  0  0
  4 11  2  0  0  0  0
  5 29  1  6  0  0  0
  5 16  1  0  0  0  0
  6  1  1  6  0  0  0
  6 19  1  0  0  0  0
  6 21  1  0  0  0  0
  8  5  1  0  0  0  0
  8  3  1  0  0  0  0
  9 27  1  0  0  0  0
 10  3  1  0  0  0  0
 10 14  2  0  0  0  0
 11 18  1  0  0  0  0
 12 10  1  0  0  0  0
 13 11  1  0  0  0  0
 14 17  1  0  0  0  0
 16  7  1  6  0  0  0
 17  9  2  0  0  0  0
 17 15  1  0  0  0  0
 18 15  2  0  0  0  0
 19 30  1  0  0  0  0
 20 26  1  0  0  0  0
 20 24  1  0  0  0  0
 21 24  1  6  0  0  0
 21 25  1  0  0  0  0
 23 19  1  0  0  0  0
 23 16  1  0  0  0  0
 25 27  1  0  0  0  0
 26  1  1  6  0  0  0
 26  6  1  0  0  0  0
 27 22  2  0  0  0  0
 29 28  1  0  0  0  0
 30 31  1  0  0  0  0
M  END
>  <MODEL>
4

>  <REMARK>
 VINA RESULT:      -4.7      2.607      3.845
  Name = 
  2 active torsions:
  status: ('A' for Active; 'I' for Inactive)
    1  A    between atoms: C_5  and  C_23
    2  A    between atoms: N_20  and  C_27
                            x       y       z     vdW  Elec       q    Type
                         _______ _______ _______ _____ _____    ______ ____

>  <TORSDO>
F 2

$$$$
=
 OpenBabel11032419303D

 31 35  0  0  1  0  0  0  0  0999 V2000
  184.2320  176.7390  137.8730 C   0  0  0  0  0  2  0  0  0  0  0  0
  179.8660  177.3610  138.4400 C   0  0  0  0  0  3  0  0  0  0  0  0
  179.5840  176.1810  139.1300 C   0  0  0  0  0  0  0  0  0  0  0  0
  179.3170  177.5290  142.5490 N   0  0  0  0  0  0  0  0  0  0  0  0
  179.4940  174.6670  137.0050 C   0  0  1  0  0  3  0  0  0  0  0  0
  182.9860  177.5790  137.6580 C   0  0  2  0  0  0  0  0  0  0  0  0
  180.0800  175.3930  134.7180 N   0  0  0  0  0  1  0  0  0  0  0  0
  179.6150  174.9160  138.4480 N   0  0  0  0  0  2  0  0  0  0  0  0
  180.0160  178.5770  139.0950 C   0  0  0  0  0  0  0  0  0  0  0  0
  179.4090  176.2280  140.5250 C   0  0  0  0  0  0  0  0  0  0  0  0
  179.4260  178.7070  143.2150 C   0  0  0  0  0  0  0  0  0  0  0  0
  179.1280  174.9720  141.2850 C   0  0  0  0  0  1  0  0  0  0  0  0
  179.2290  178.7460  144.6240 N   0  0  0  0  0  1  0  0  0  0  0  0
  179.4980  177.4620  141.2010 C   0  0  0  0  0  0  0  0  0  0  0  0
  179.9210  179.8360  141.1980 C   0  0  0  0  0  3  0  0  0  0  0  0
  180.2660  175.6730  136.1330 C   0  0  2  0  0  3  0  0  0  0  0  0
  179.8050  178.6400  140.4830 C   0  0  0  0  0  0  0  0  0  0  0  0
  179.7270  179.8480  142.5420 N   0  0  0  0  0  0  0  0  0  0  0  0
  182.1120  177.2080  136.5210 N   0  0  0  0  0  0  0  0  0  0  0  0
  183.3220  177.4810  140.0630 C   0  0  0  0  0  2  0  0  0  0  0  0
  182.9820  179.0130  138.1820 C   0  0  2  0  0  3  0  0  0  0  0  0
  179.6780  180.6770  138.0800 O   0  0  0  0  0  0  0  0  0  0  0  0
  181.7470  175.7860  136.4630 C   0  0  0  0  0  2  0  0  0  0  0  0
  183.0900  178.9400  139.6960 C   0  0  0  0  0  2  0  0  0  0  0  0
  181.8120  179.7990  137.7700 N   0  0  0  0  0  2  0  0  0  0  0  0
  183.0540  176.6230  138.8350 C   0  0  2  0  0  3  0  0  0  0  0  0
  180.4780  179.7310  138.3040 C   0  0  0  0  0  0  0  0  0  0  0  0
  180.3970  172.5440  137.9560 C   0  0  0  0  0  1  0  0  0  0  0  0
  179.9030  173.2320  136.6980 C   0  0  0  0  0  2  0  0  0  0  0  0
  182.7110  177.6250  135.2480 C   0  0  0  0  0  2  0  0  0  0  0  0
  181.9140  178.5700  134.5940 O   0  0  0  0  0  1  0  0  0  0  0  0
  2  9  2  0  0  0  0
  2  3  1  0  0  0  0
  3 10  2  0  0  0  0
  4 11  2  0  0  0  0
  5 29  1  1  0  0  0
  5  8  1  0  0  0  0
  6  1  1  6  0  0  0
  6 21  1  0  0  0  0
  6 26  1  0  0  0  0
  8  3  1  0  0  0  0
  9 17  1  0  0  0  0
 10 14  1  0  0  0  0
 10 12  1  0  0  0  0
 11 13  1  0  0  0  0
 14  4  1  0  0  0  0
 15 18  2  0  0  0  0
 16  7  1  6  0  0  0
 16 23  1  0  0  0  0
 16  5  1  0  0  0  0
 17 15  1  0  0  0  0
 17 14  2  0  0  0  0
 18 11  1  0  0  0  0
 19  6  1  0  0  0  0
 21 24  1  1  0  0  0
 22 27  2  0  0  0  0
 23 19  1  0  0  0  0
 24 20  1  0  0  0  0
 25 21  1  0  0  0  0
 25 27  1  0  0  0  0
 26  1  1  6  0  0  0
 26 20  1  0  0  0  0
 27  9  1  0  0  0  0
 29 28  1  0  0  0  0
 30 19  1  0  0  0  0
 31 30  1  0  0  0  0
M  END
>  <MODEL>
5

>  <REMARK>
 VINA RESULT:      -4.7      2.550      5.559
  Name = 
  2 active torsions:
  status: ('A' for Active; 'I' for Inactive)
    1  A    between atoms: C_5  and  C_23
    2  A    between atoms: N_20  and  C_27
                            x       y       z     vdW  Elec       q    Type
                         _______ _______ _______ _____ _____    ______ ____

>  <TORSDO>
F 2

$$$$
=
 OpenBabel11032419303D

 31 35  0  0  1  0  0  0  0  0999 V2000
  183.9410  174.7460  137.4100 C   0  0  0  0  0  2  0  0  0  0  0  0
  186.6020  178.2850  137.8180 C   0  0  0  0  0  3  0  0  0  0  0  0
  187.0430  178.0530  139.1210 C   0  0  0  0  0  0  0  0  0  0  0  0
  190.4030  176.7260  138.3940 N   0  0  0  0  0  0  0  0  0  0  0  0
  184.9150  179.0240  140.2810 C   0  0  1  0  0  3  0  0  0  0  0  0
  184.5350  176.0180  136.8300 C   0  0  2  0  0  0  0  0  0  0  0  0
  182.8630  179.7410  139.1100 N   0  0  0  0  0  1  0  0  0  0  0  0
  186.1500  178.2280  140.2330 N   0  0  0  0  0  2  0  0  0  0  0  0
  187.3770  177.9640  136.7110 C   0  0  0  0  0  0  0  0  0  0  0  0
  188.3270  177.5130  139.3240 C   0  0  0  0  0  0  0  0  0  0  0  0
  191.1990  176.4300  137.3340 C   0  0  0  0  0  0  0  0  0  0  0  0
  188.8100  177.2370  140.7120 C   0  0  0  0  0  1  0  0  0  0  0  0
  192.5010  175.9010  137.5510 N   0  0  0  0  0  1  0  0  0  0  0  0
  189.1530  177.2360  138.2160 C   0  0  0  0  0  0  0  0  0  0  0  0
  189.5130  177.1350  135.8340 C   0  0  0  0  0  3  0  0  0  0  0  0
  184.0500  178.9070  139.0150 C   0  0  2  0  0  3  0  0  0  0  0  0
  188.6740  177.4590  136.9050 C   0  0  0  0  0  0  0  0  0  0  0  0
  190.7520  176.6320  136.0670 N   0  0  0  0  0  0  0  0  0  0  0  0
  183.8830  177.2950  137.2000 N   0  0  0  0  0  0  0  0  0  0  0  0
  186.4070  174.5180  137.2170 C   0  0  0  0  0  2  0  0  0  0  0  0
  185.3220  175.9180  135.5250 C   0  0  2  0  0  3  0  0  0  0  0  0
  187.1630  178.9920  134.6020 O   0  0  0  0  0  0  0  0  0  0  0  0
  183.6690  177.4810  138.6420 C   0  0  0  0  0  2  0  0  0  0  0  0
  186.5460  175.0620  135.8020 C   0  0  0  0  0  2  0  0  0  0  0  0
  185.6990  177.2160  134.9510 N   0  0  0  0  0  2  0  0  0  0  0  0
  185.2830  175.2660  137.9160 C   0  0  2  0  0  3  0  0  0  0  0  0
  186.7600  178.0890  135.3800 C   0  0  0  0  0  0  0  0  0  0  0  0
  185.0640  178.2490  142.6480 C   0  0  0  0  0  1  0  0  0  0  0  0
  184.1250  178.6680  141.5340 C   0  0  0  0  0  2  0  0  0  0  0  0
  182.6170  177.4610  136.4790 C   0  0  0  0  0  2  0  0  0  0  0  0
  181.5230  177.1220  137.2810 O   0  0  0  0  0  1  0  0  0  0  0  0
  1 26  1  0  0  0  0
  2  3  1  0  0  0  0
  3 10  2  0  0  0  0
  3  8  1  0  0  0  0
  5 29  1  1  0  0  0
  6 19  1  0  0  0  0
  6  1  1  6  0  0  0
  6 26  1  0  0  0  0
  8  5  1  0  0  0  0
  9 17  1  0  0  0  0
  9  2  2  0  0  0  0
 10 12  1  0  0  0  0
 11 13  1  0  0  0  0
 11  4  2  0  0  0  0
 14  4  1  0  0  0  0
 14 10  1  0  0  0  0
 15 18  2  0  0  0  0
 15 17  1  0  0  0  0
 16  7  1  1  0  0  0
 16  5  1  0  0  0  0
 17 14  2  0  0  0  0
 18 11  1  0  0  0  0
 19 23  1  0  0  0  0
 21 24  1  1  0  0  0
 21  6  1  0  0  0  0
 22 27  2  0  0  0  0
 23 16  1  0  0  0  0
 24 20  1  0  0  0  0
 25 27  1  0  0  0  0
 25 21  1  0  0  0  0
 26 20  1  6  0  0  0
 27  9  1  0  0  0  0
 29 28  1  0  0  0  0
 30 19  1  0  0  0  0
 30 31  1  0  0  0  0
M  END
>  <MODEL>
6

>  <REMARK>
 VINA RESULT:      -4.7      3.481      6.267
  Name = 
  2 active torsions:
  status: ('A' for Active; 'I' for Inactive)
    1  A    between atoms: C_5  and  C_23
    2  A    between atoms: N_20  and  C_27
                            x       y       z     vdW  Elec       q    Type
                         _______ _______ _______ _____ _____    ______ ____

>  <TORSDO>
F 2

$$$$
=
 OpenBabel11032419303D

 31 35  0  0  1  0  0  0  0  0999 V2000
  184.7220  177.5510  134.6620 C   0  0  0  0  0  2  0  0  0  0  0  0
  183.4660  175.4830  138.3920 C   0  0  0  0  0  3  0  0  0  0  0  0
  182.2130  176.0800  138.5390 C   0  0  0  0  0  0  0  0  0  0  0  0
  180.0840  173.3190  137.3480 N   0  0  0  0  0  0  0  0  0  0  0  0
  183.1140  178.2900  139.5980 C   0  0  1  0  0  3  0  0  0  0  0  0
  185.0180  176.5750  135.7860 C   0  0  2  0  0  0  0  0  0  0  0  0
  185.5000  178.8880  139.8210 N   0  0  0  0  0  1  0  0  0  0  0  0
  182.1070  177.4620  138.9190 N   0  0  0  0  0  2  0  0  0  0  0  0
  183.6150  174.2080  137.8620 C   0  0  0  0  0  0  0  0  0  0  0  0
  181.0630  175.3570  138.1750 C   0  0  0  0  0  0  0  0  0  0  0  0
  180.1920  172.0580  136.8560 C   0  0  0  0  0  0  0  0  0  0  0  0
  179.7130  175.9870  138.3040 C   0  0  0  0  0  1  0  0  0  0  0  0
  179.0210  171.3290  136.5080 N   0  0  0  0  0  1  0  0  0  0  0  0
  181.1870  174.0390  137.6910 C   0  0  0  0  0  0  0  0  0  0  0  0
  182.5480  172.1680  137.0130 C   0  0  0  0  0  3  0  0  0  0  0  0
  184.5490  178.0660  139.0890 C   0  0  2  0  0  3  0  0  0  0  0  0
  182.4690  173.4640  137.5320 C   0  0  0  0  0  0  0  0  0  0  0  0
  181.4170  171.4920  136.6900 N   0  0  0  0  0  0  0  0  0  0  0  0
  185.5190  177.1440  137.0580 N   0  0  0  0  0  0  0  0  0  0  0  0
  183.1050  175.6670  134.5940 C   0  0  0  0  0  2  0  0  0  0  0  0
  185.3480  175.1300  135.4190 C   0  0  2  0  0  3  0  0  0  0  0  0
  185.4550  172.8010  138.2940 O   0  0  0  0  0  0  0  0  0  0  0  0
  184.7230  178.2580  137.5890 C   0  0  0  0  0  2  0  0  0  0  0  0
  184.1110  174.5370  134.7660 C   0  0  0  0  0  2  0  0  0  0  0  0
  185.7940  174.3100  136.5530 N   0  0  0  0  0  2  0  0  0  0  0  0
  183.5790  176.8650  135.4020 C   0  0  2  0  0  3  0  0  0  0  0  0
  184.9810  173.7310  137.5900 C   0  0  0  0  0  0  0  0  0  0  0  0
  181.6900  179.9600  138.4100 C   0  0  0  0  0  1  0  0  0  0  0  0
  182.7130  179.7570  139.5110 C   0  0  0  0  0  2  0  0  0  0  0  0
  186.9240  177.5460  136.9300 C   0  0  0  0  0  2  0  0  0  0  0  0
  187.0550  178.9380  136.8760 O   0  0  0  0  0  1  0  0  0  0  0  0
  1 26  1  0  0  0  0
  2  3  1  0  0  0  0
  3  8  1  0  0  0  0
  4 14  1  0  0  0  0
  5 29  1  6  0  0  0
  6  1  1  6  0  0  0
  6 19  1  0  0  0  0
  8  5  1  0  0  0  0
  9  2  2  0  0  0  0
 10 12  1  0  0  0  0
 10  3  2  0  0  0  0
 11  4  2  0  0  0  0
 13 11  1  0  0  0  0
 14 10  1  0  0  0  0
 15 17  1  0  0  0  0
 16  5  1  0  0  0  0
 16  7  1  1  0  0  0
 17 14  2  0  0  0  0
 17  9  1  0  0  0  0
 18 11  1  0  0  0  0
 18 15  2  0  0  0  0
 19 23  1  0  0  0  0
 20 24  1  0  0  0  0
 21 24  1  1  0  0  0
 21  6  1  0  0  0  0
 21 25  1  0  0  0  0
 23 16  1  0  0  0  0
 25 27  1  0  0  0  0
 26 20  1  6  0  0  0
 26  6  1  0  0  0  0
 27  9  1  0  0  0  0
 27 22  2  0  0  0  0
 28 29  1  0  0  0  0
 30 19  1  0  0  0  0
 31 30  1  0  0  0  0
M  END
>  <MODEL>
7

>  <REMARK>
 VINA RESULT:      -4.6      2.725      6.476
  Name = 
  2 active torsions:
  status: ('A' for Active; 'I' for Inactive)
    1  A    between atoms: C_5  and  C_23
    2  A    between atoms: N_20  and  C_27
                            x       y       z     vdW  Elec       q    Type
                         _______ _______ _______ _____ _____    ______ ____

>  <TORSDO>
F 2

$$$$
=
 OpenBabel11032419303D

 31 35  0  0  1  0  0  0  0  0999 V2000
  185.2050  177.8150  134.7890 C   0  0  0  0  0  2  0  0  0  0  0  0
  187.4020  175.0450  137.4850 C   0  0  0  0  0  3  0  0  0  0  0  0
  187.5710  173.9880  136.5900 C   0  0  0  0  0  0  0  0  0  0  0  0
  191.1090  174.5060  135.7020 N   0  0  0  0  0  0  0  0  0  0  0  0
  185.1680  173.0150  136.9000 C   0  0  1  0  0  3  0  0  0  0  0  0
  185.7980  177.5030  136.1510 C   0  0  2  0  0  0  0  0  0  0  0  0
  183.3620  174.0810  138.2040 N   0  0  0  0  0  1  0  0  0  0  0  0
  186.4470  173.1840  136.1960 N   0  0  0  0  0  2  0  0  0  0  0  0
  188.4220  175.9480  137.7560 C   0  0  0  0  0  0  0  0  0  0  0  0
  188.8220  173.8060  135.9720 C   0  0  0  0  0  0  0  0  0  0  0  0
  192.1370  175.3530  135.9690 C   0  0  0  0  0  0  0  0  0  0  0  0
  189.0160  172.6920  134.9940 C   0  0  0  0  0  1  0  0  0  0  0  0
  193.4020  175.1490  135.3520 N   0  0  0  0  0  1  0  0  0  0  0  0
  189.8870  174.6750  136.2790 C   0  0  0  0  0  0  0  0  0  0  0  0
  190.7600  176.6120  137.4200 C   0  0  0  0  0  3  0  0  0  0  0  0
  184.6080  174.3190  137.4940 C   0  0  2  0  0  3  0  0  0  0  0  0
  189.6850  175.7520  137.1730 C   0  0  0  0  0  0  0  0  0  0  0  0
  191.9580  176.3970  136.8210 N   0  0  0  0  0  0  0  0  0  0  0  0
  184.9750  176.6860  137.0730 N   0  0  0  0  0  0  0  0  0  0  0  0
  187.6650  177.5290  134.5950 C   0  0  0  0  0  2  0  0  0  0  0  0
  186.8530  178.4520  136.7140 C   0  0  2  0  0  3  0  0  0  0  0  0
  188.5810  177.2090  139.7410 O   0  0  0  0  0  0  0  0  0  0  0  0
  184.4400  175.4490  136.4890 C   0  0  0  0  0  2  0  0  0  0  0  0
  188.0580  178.3860  135.7900 C   0  0  0  0  0  2  0  0  0  0  0  0
  187.2330  178.1700  138.1040 N   0  0  0  0  0  2  0  0  0  0  0  0
  186.3560  176.8230  134.9140 C   0  0  2  0  0  3  0  0  0  0  0  0
  188.0980  177.1240  138.5820 C   0  0  0  0  0  0  0  0  0  0  0  0
  183.8370  170.9490  136.4690 C   0  0  0  0  0  1  0  0  0  0  0  0
  184.1590  172.3450  135.9750 C   0  0  0  0  0  2  0  0  0  0  0  0
  183.8850  177.4860  137.6420 C   0  0  0  0  0  2  0  0  0  0  0  0
  182.6700  177.2250  136.9990 O   0  0  0  0  0  1  0  0  0  0  0  0
  1 26  1  0  0  0  0
  2  9  1  0  0  0  0
  3  2  2  0  0  0  0
  4 11  2  0  0  0  0
  4 14  1  0  0  0  0
  5 29  1  6  0  0  0
  5 16  1  0  0  0  0
  6  1  1  6  0  0  0
  6 21  1  0  0  0  0
  6 19  1  0  0  0  0
  8  3  1  0  0  0  0
  8  5  1  0  0  0  0
  9 27  1  0  0  0  0
 10 14  2  0  0  0  0
 10  3  1  0  0  0  0
 11 18  1  0  0  0  0
 12 10  1  0  0  0  0
 13 11  1  0  0  0  0
 14 17  1  0  0  0  0
 16  7  1  6  0  0  0
 17 15  1  0  0  0  0
 17  9  2  0  0  0  0
 18 15  2  0  0  0  0
 19 30  1  0  0  0  0
 20 24  1  0  0  0  0
 21 24  1  6  0  0  0
 21 25  1  0  0  0  0
 23 19  1  0  0  0  0
 23 16  1  0  0  0  0
 25 27  1  0  0  0  0
 26 20  1  6  0  0  0
 26  6  1  0  0  0  0
 27 22  2  0  0  0  0
 29 28  1  0  0  0  0
 31 30  1  0  0  0  0
M  END
>  <MODEL>
8

>  <REMARK>
 VINA RESULT:      -4.1      3.981      6.176
  Name = 
  2 active torsions:
  status: ('A' for Active; 'I' for Inactive)
    1  A    between atoms: C_5  and  C_23
    2  A    between atoms: N_20  and  C_27
                            x       y       z     vdW  Elec       q    Type
                         _______ _______ _______ _____ _____    ______ ____

>  <TORSDO>
F 2

$$$$
=
 OpenBabel11032419303D

 31 35  0  0  1  0  0  0  0  0999 V2000
  183.6640  174.3240  136.6940 C   0  0  0  0  0  2  0  0  0  0  0  0
  185.3310  178.3930  137.3540 C   0  0  0  0  0  3  0  0  0  0  0  0
  185.1630  178.4550  138.7380 C   0  0  0  0  0  0  0  0  0  0  0  0
  188.6380  177.8300  139.7940 N   0  0  0  0  0  0  0  0  0  0  0  0
  182.6290  179.0760  138.6560 C   0  0  1  0  0  3  0  0  0  0  0  0
  184.2710  175.6010  136.1400 C   0  0  2  0  0  0  0  0  0  0  0  0
  181.2480  179.1370  136.6090 N   0  0  0  0  0  1  0  0  0  0  0  0
  183.8490  178.5800  139.3070 N   0  0  0  0  0  2  0  0  0  0  0  0
  186.5580  178.1010  136.7740 C   0  0  0  0  0  0  0  0  0  0  0  0
  186.2780  178.2520  139.5720 C   0  0  0  0  0  0  0  0  0  0  0  0
  189.8590  177.5730  139.2580 C   0  0  0  0  0  0  0  0  0  0  0  0
  186.1160  178.2920  141.0580 C   0  0  0  0  0  1  0  0  0  0  0  0
  190.9830  177.3870  140.1100 N   0  0  0  0  0  1  0  0  0  0  0  0
  187.5450  178.0140  139.0030 C   0  0  0  0  0  0  0  0  0  0  0  0
  188.9520  177.6590  137.0770 C   0  0  0  0  0  3  0  0  0  0  0  0
  182.4540  178.5870  137.2070 C   0  0  2  0  0  3  0  0  0  0  0  0
  187.6840  177.9350  137.5980 C   0  0  0  0  0  0  0  0  0  0  0  0
  190.0100  177.4870  137.9110 N   0  0  0  0  0  0  0  0  0  0  0  0
  183.3510  176.7380  135.9060 N   0  0  0  0  0  0  0  0  0  0  0  0
  185.9560  174.6330  137.5990 C   0  0  0  0  0  2  0  0  0  0  0  0
  185.5680  175.4970  135.3410 C   0  0  2  0  0  3  0  0  0  0  0  0
  187.1780  178.7430  134.5940 O   0  0  0  0  0  0  0  0  0  0  0  0
  182.4860  177.0740  137.0450 C   0  0  0  0  0  2  0  0  0  0  0  0
  186.6410  174.9870  136.2870 C   0  0  0  0  0  2  0  0  0  0  0  0
  185.9780  176.7510  134.6970 N   0  0  0  0  0  2  0  0  0  0  0  0
  184.5450  175.2000  137.5780 C   0  0  2  0  0  3  0  0  0  0  0  0
  186.5980  177.8930  135.3170 C   0  0  0  0  0  0  0  0  0  0  0  0
  181.7990  177.7400  140.5930 C   0  0  0  0  0  1  0  0  0  0  0  0
  181.4170  178.7320  139.5120 C   0  0  0  0  0  2  0  0  0  0  0  0
  182.5380  176.5100  134.7070 C   0  0  0  0  0  2  0  0  0  0  0  0
  181.1930  176.3070  135.0320 O   0  0  0  0  0  1  0  0  0  0  0  0
  2  3  1  0  0  0  0
  3  8  1  0  0  0  0
  3 10  2  0  0  0  0
  5  8  1  0  0  0  0
  5 29  1  1  0  0  0
  6  1  1  6  0  0  0
  6 26  1  0  0  0  0
  9  2  2  0  0  0  0
  9 17  1  0  0  0  0
 10 12  1  0  0  0  0
 11  4  2  0  0  0  0
 11 13  1  0  0  0  0
 14 10  1  0  0  0  0
 14  4  1  0  0  0  0
 15 17  1  0  0  0  0
 15 18  2  0  0  0  0
 16  7  1  1  0  0  0
 16  5  1  0  0  0  0
 17 14  2  0  0  0  0
 18 11  1  0  0  0  0
 19  6  1  0  0  0  0
 19 23  1  0  0  0  0
 21  6  1  0  0  0  0
 21 24  1  1  0  0  0
 22 27  2  0  0  0  0
 23 16  1  0  0  0  0
 24 20  1  0  0  0  0
 25 27  1  0  0  0  0
 25 21  1  0  0  0  0
 26  1  1  6  0  0  0
 26 20  1  0  0  0  0
 27  9  1  0  0  0  0
 29 28  1  0  0  0  0
 30 31  1  0  0  0  0
 30 19  1  0  0  0  0
M  END
>  <MODEL>
9

>  <REMARK>
 VINA RESULT:      -3.9      3.341      5.836
  Name = 
  2 active torsions:
  status: ('A' for Active; 'I' for Inactive)
    1  A    between atoms: C_5  and  C_23
    2  A    between atoms: N_20  and  C_27
                            x       y       z     vdW  Elec       q    Type
                         _______ _______ _______ _____ _____    ______ ____

>  <TORSDO>
F 2

$$$$
