=
 OpenBabel11032419313D

 31 31  0  0  1  0  0  0  0  0999 V2000
  190.1310  176.4860  146.2530 C   0  0  1  0  0  3  0  0  0  0  0  0
  190.9160  175.9150  147.3960 C   0  0  0  0  0  3  0  0  0  0  0  0
  192.2440  176.0090  147.4250 C   0  0  0  0  0  2  0  0  0  0  0  0
  188.8680  177.2190  146.7300 C   0  0  2  0  0  3  0  0  0  0  0  0
  188.1700  177.9790  145.6040 C   0  0  2  0  0  3  0  0  0  0  0  0
  186.7940  177.4670  145.4210 C   0  0  2  0  0  3  0  0  0  0  0  0
  187.8460  177.0850  144.5670 O   0  0  0  0  0  0  0  0  0  0  0  0
  185.9420  178.5160  144.7340 C   0  0  2  0  0  3  0  0  0  0  0  0
  184.6890  178.7630  145.5530 C   0  0  0  0  0  1  0  0  0  0  0  0
  185.5640  178.0400  143.3410 C   0  0  0  0  0  2  0  0  0  0  0  0
  186.2700  178.7660  142.3820 O   0  0  0  0  0  0  0  0  0  0  0  0
  185.3510  178.9770  141.3540 C   0  0  0  0  0  2  0  0  0  0  0  0
  184.0320  178.3290  141.7150 C   0  0  0  0  0  2  0  0  0  0  0  0
  183.9970  178.5940  139.2580 C   0  0  0  0  0  1  0  0  0  0  0  0
  183.2390  178.0610  140.4540 C   0  0  0  0  0  2  0  0  0  0  0  0
  188.1110  178.0120  148.6550 C   0  0  0  0  0  1  0  0  0  0  0  0
  189.1870  178.0970  147.7700 O   0  0  0  0  0  0  0  0  0  0  0  0
  191.0100  177.3840  145.3850 C   0  0  0  0  0  2  0  0  0  0  0  0
  191.4200  176.6860  144.0940 C   0  0  0  0  0  2  0  0  0  0  0  0
  190.9090  177.4350  142.8690 C   0  0  0  0  0  2  0  0  0  0  0  0
  190.2100  176.5040  141.8920 C   0  0  0  0  0  2  0  0  0  0  0  0
  189.3470  177.2980  140.9240 C   0  0  0  0  0  2  0  0  0  0  0  0
  190.9990  176.5690  139.3730 O   0  0  0  0  0  1  0  0  0  0  0  0
  190.1240  177.6170  139.6570 C   0  0  1  0  0  3  0  0  0  0  0  0
  188.5400  176.7180  137.8950 N   0  0  0  0  0  2  0  0  0  0  0  0
  189.2040  177.8340  138.5000 C   0  0  0  0  0  0  0  0  0  0  0  0
  188.9590  179.0390  138.1020 N   0  0  0  0  0  2  0  0  0  0  0  0
  187.6360  176.8620  136.7630 C   0  0  0  0  0  2  0  0  0  0  0  0
  186.2090  176.5230  137.1680 C   0  0  0  0  0  2  0  0  0  0  0  0
  185.2020  175.7260  135.1530 O   0  0  0  0  0  1  0  0  0  0  0  0
  185.2270  176.8020  136.0410 C   0  0  0  0  0  2  0  0  0  0  0  0
  1 18  1  1  0  0  0
  1  4  1  0  0  0  0
  1  2  1  0  0  0  0
  2  3  2  0  0  0  0
  4 17  1  1  0  0  0
  5  4  1  1  0  0  0
  6  8  1  6  0  0  0
  6  5  1  0  0  0  0
  7  6  1  0  0  0  0
  7  5  1  0  0  0  0
  8  9  1  1  0  0  0
 10  8  1  0  0  0  0
 11 10  1  0  0  0  0
 12 13  1  0  0  0  0
 12 11  1  0  0  0  0
 14 15  1  0  0  0  0
 15 13  1  0  0  0  0
 17 16  1  0  0  0  0
 19 18  1  0  0  0  0
 20 19  1  0  0  0  0
 21 20  1  0  0  0  0
 22 21  1  0  0  0  0
 24 23  1  6  0  0  0
 24 22  1  0  0  0  0
 25 26  1  0  0  0  0
 26 24  1  0  0  0  0
 27 26  2  0  0  0  0
 28 29  1  0  0  0  0
 28 25  1  0  0  0  0
 30 31  1  0  0  0  0
 31 29  1  0  0  0  0
M  END
>  <MODEL>
1

>  <REMARK>
 VINA RESULT:      -5.7      0.000      0.000
  Name = 
  20 active torsions:
  status: ('A' for Active; 'I' for Inactive)
    1  A    between atoms: C_2  and  C_7
    2  A    between atoms: C_2  and  C_19
    3  A    between atoms: N_3  and  C_8
    4  A    between atoms: C_5  and  C_13
    5  A    between atoms: C_5  and  C_31
    6  A    between atoms: C_6  and  C_8
    7  A    between atoms: C_6  and  C_28
    8  A    between atoms: C_7  and  C_23
    9  A    between atoms: C_10  and  C_16
   10  A    between atoms: C_11  and  C_14
   11  A    between atoms: C_11  and  O_29
   12  A    between atoms: C_12  and  C_22
   13  A    between atoms: C_12  and  C_27
   14  A    between atoms: C_13  and  O_29
   15  A    between atoms: C_14  and  C_17
   16  A    between atoms: C_15  and  C_19
   17  A    between atoms: C_16  and  O_20
   18  A    between atoms: C_16  and  C_27
   19  A    between atoms: C_22  and  C_23
   20  A    between atoms: C_24  and  C_27
                            x       y       z     vdW  Elec       q    Type
                         _______ _______ _______ _____ _____    ______ ____

>  <TORSDO>
F 20

$$$$
=
 OpenBabel11032419313D

 31 31  0  0  1  0  0  0  0  0999 V2000
  188.9490  177.8810  143.5660 C   0  0  1  0  0  3  0  0  0  0  0  0
  189.9370  178.5090  144.5030 C   0  0  0  0  0  3  0  0  0  0  0  0
  190.9950  179.1690  144.0360 C   0  0  0  0  0  2  0  0  0  0  0  0
  189.6370  177.0290  142.4890 C   0  0  2  0  0  3  0  0  0  0  0  0
  188.9430  177.1250  141.1320 C   0  0  2  0  0  3  0  0  0  0  0  0
  189.8360  177.7750  140.1480 C   0  0  2  0  0  3  0  0  0  0  0  0
  188.7920  178.4780  140.7790 O   0  0  0  0  0  0  0  0  0  0  0  0
  189.4130  177.3980  138.7410 C   0  0  2  0  0  3  0  0  0  0  0  0
  190.5630  176.6990  138.0400 C   0  0  0  0  0  1  0  0  0  0  0  0
  189.0190  178.6470  137.9710 C   0  0  0  0  0  2  0  0  0  0  0  0
  187.6310  178.7220  137.8630 O   0  0  0  0  0  0  0  0  0  0  0  0
  187.2740  177.5960  137.1210 C   0  0  0  0  0  2  0  0  0  0  0  0
  185.8510  177.2020  137.4550 C   0  0  0  0  0  2  0  0  0  0  0  0
  185.7240  176.3610  135.1340 C   0  0  0  0  0  1  0  0  0  0  0  0
  185.0210  177.1870  136.1890 C   0  0  0  0  0  2  0  0  0  0  0  0
  191.0260  175.4920  143.2730 C   0  0  0  0  0  1  0  0  0  0  0  0
  189.6960  175.6940  142.8990 O   0  0  0  0  0  0  0  0  0  0  0  0
  187.9030  177.0780  144.3370 C   0  0  0  0  0  2  0  0  0  0  0  0
  187.6950  177.6340  145.7410 C   0  0  0  0  0  2  0  0  0  0  0  0
  186.2260  177.5980  146.1430 C   0  0  0  0  0  2  0  0  0  0  0  0
  185.6500  178.9960  146.2960 C   0  0  0  0  0  2  0  0  0  0  0  0
  185.1990  179.5370  144.9480 C   0  0  0  0  0  2  0  0  0  0  0  0
  182.9630  178.7940  144.6090 O   0  0  0  0  0  1  0  0  0  0  0  0
  184.2870  178.5410  144.2520 C   0  0  1  0  0  3  0  0  0  0  0  0
  183.2950  178.4100  141.9240 N   0  0  0  0  0  2  0  0  0  0  0  0
  184.4330  178.6210  142.7670 C   0  0  0  0  0  0  0  0  0  0  0  0
  185.5750  178.9530  142.2600 N   0  0  0  0  0  2  0  0  0  0  0  0
  183.3720  178.4700  140.4720 C   0  0  0  0  0  2  0  0  0  0  0  0
  182.9730  177.1370  139.8560 C   0  0  0  0  0  2  0  0  0  0  0  0
  181.9430  176.5270  137.7880 O   0  0  0  0  0  1  0  0  0  0  0  0
  181.7620  177.2800  138.9490 C   0  0  0  0  0  2  0  0  0  0  0  0
  1 18  1  1  0  0  0
  1  2  1  0  0  0  0
  3  2  2  0  0  0  0
  4 17  1  1  0  0  0
  4  1  1  0  0  0  0
  5  4  1  1  0  0  0
  6  8  1  6  0  0  0
  6  7  1  0  0  0  0
  6  5  1  0  0  0  0
  7  5  1  0  0  0  0
  8  9  1  6  0  0  0
 10  8  1  0  0  0  0
 11 10  1  0  0  0  0
 12 13  1  0  0  0  0
 12 11  1  0  0  0  0
 14 15  1  0  0  0  0
 15 13  1  0  0  0  0
 17 16  1  0  0  0  0
 18 19  1  0  0  0  0
 19 20  1  0  0  0  0
 20 21  1  0  0  0  0
 22 21  1  0  0  0  0
 24 23  1  6  0  0  0
 24 22  1  0  0  0  0
 25 26  1  0  0  0  0
 26 24  1  0  0  0  0
 27 26  2  0  0  0  0
 28 25  1  0  0  0  0
 29 28  1  0  0  0  0
 30 31  1  0  0  0  0
 31 29  1  0  0  0  0
M  END
>  <MODEL>
2

>  <REMARK>
 VINA RESULT:      -5.7      2.628      5.753
  Name = 
  20 active torsions:
  status: ('A' for Active; 'I' for Inactive)
    1  A    between atoms: C_2  and  C_7
    2  A    between atoms: C_2  and  C_19
    3  A    between atoms: N_3  and  C_8
    4  A    between atoms: C_5  and  C_13
    5  A    between atoms: C_5  and  C_31
    6  A    between atoms: C_6  and  C_8
    7  A    between atoms: C_6  and  C_28
    8  A    between atoms: C_7  and  C_23
    9  A    between atoms: C_10  and  C_16
   10  A    between atoms: C_11  and  C_14
   11  A    between atoms: C_11  and  O_29
   12  A    between atoms: C_12  and  C_22
   13  A    between atoms: C_12  and  C_27
   14  A    between atoms: C_13  and  O_29
   15  A    between atoms: C_14  and  C_17
   16  A    between atoms: C_15  and  C_19
   17  A    between atoms: C_16  and  O_20
   18  A    between atoms: C_16  and  C_27
   19  A    between atoms: C_22  and  C_23
   20  A    between atoms: C_24  and  C_27
                            x       y       z     vdW  Elec       q    Type
                         _______ _______ _______ _____ _____    ______ ____

>  <TORSDO>
F 20

$$$$
=
 OpenBabel11032419313D

 31 31  0  0  1  0  0  0  0  0999 V2000
  184.7590  178.5360  144.2670 C   0  0  1  0  0  3  0  0  0  0  0  0
  185.0120  179.4330  143.0920 C   0  0  0  0  0  3  0  0  0  0  0  0
  185.6350  178.9750  142.0080 C   0  0  0  0  0  2  0  0  0  0  0  0
  185.7390  178.8050  145.4190 C   0  0  2  0  0  3  0  0  0  0  0  0
  186.6690  177.6230  145.6870 C   0  0  2  0  0  3  0  0  0  0  0  0
  188.0440  177.9490  145.2510 C   0  0  2  0  0  3  0  0  0  0  0  0
  187.1890  177.1520  144.4680 O   0  0  0  0  0  0  0  0  0  0  0  0
  189.0380  177.0620  145.9760 C   0  0  2  0  0  3  0  0  0  0  0  0
  189.3470  177.6590  147.3360 C   0  0  0  0  0  1  0  0  0  0  0  0
  190.3140  176.9440  145.1590 C   0  0  0  0  0  2  0  0  0  0  0  0
  190.3310  177.9180  144.1610 O   0  0  0  0  0  0  0  0  0  0  0  0
  191.0340  177.3300  143.1090 C   0  0  0  0  0  2  0  0  0  0  0  0
  190.0570  176.7560  142.1060 C   0  0  0  0  0  2  0  0  0  0  0  0
  189.1020  177.8220  140.0910 C   0  0  0  0  0  1  0  0  0  0  0  0
  189.1460  177.8550  141.6030 C   0  0  0  0  0  2  0  0  0  0  0  0
  186.0170  179.3450  147.5490 C   0  0  0  0  0  1  0  0  0  0  0  0
  185.0340  179.1280  146.5820 O   0  0  0  0  0  0  0  0  0  0  0  0
  183.3060  178.6410  144.7270 C   0  0  0  0  0  2  0  0  0  0  0  0
  182.4070  179.1820  143.6210 C   0  0  0  0  0  2  0  0  0  0  0  0
  180.9700  178.7050  143.7880 C   0  0  0  0  0  2  0  0  0  0  0  0
  180.2820  178.5130  142.4450 C   0  0  0  0  0  2  0  0  0  0  0  0
  181.3070  178.4740  141.3220 C   0  0  0  0  0  2  0  0  0  0  0  0
  180.3780  180.4150  140.3050 O   0  0  0  0  0  1  0  0  0  0  0  0
  180.7330  179.0900  140.0570 C   0  0  1  0  0  3  0  0  0  0  0  0
  182.8350  178.1400  139.0070 N   0  0  0  0  0  2  0  0  0  0  0  0
  181.7180  179.0340  138.9350 C   0  0  0  0  0  0  0  0  0  0  0  0
  181.5100  179.7420  137.8730 N   0  0  0  0  0  2  0  0  0  0  0  0
  183.8310  178.0420  137.9500 C   0  0  0  0  0  2  0  0  0  0  0  0
  185.2070  178.4330  138.4690 C   0  0  0  0  0  2  0  0  0  0  0  0
  187.1220  178.9430  137.1340 O   0  0  0  0  0  1  0  0  0  0  0  0
  186.3150  177.8940  137.5780 C   0  0  0  0  0  2  0  0  0  0  0  0
  1  2  1  6  0  0  0
  1 18  1  0  0  0  0
  1  4  1  0  0  0  0
  3  2  2  0  0  0  0
  4 17  1  1  0  0  0
  5  4  1  6  0  0  0
  6  5  1  0  0  0  0
  6  8  1  1  0  0  0
  7  6  1  0  0  0  0
  7  5  1  0  0  0  0
  8  9  1  1  0  0  0
 10  8  1  0  0  0  0
 11 10  1  0  0  0  0
 12 11  1  0  0  0  0
 13 12  1  0  0  0  0
 14 15  1  0  0  0  0
 15 13  1  0  0  0  0
 17 16  1  0  0  0  0
 19 20  1  0  0  0  0
 19 18  1  0  0  0  0
 21 20  1  0  0  0  0
 22 21  1  0  0  0  0
 24 23  1  1  0  0  0
 24 22  1  0  0  0  0
 26 25  1  0  0  0  0
 26 24  1  0  0  0  0
 27 26  2  0  0  0  0
 28 29  1  0  0  0  0
 28 25  1  0  0  0  0
 30 31  1  0  0  0  0
 31 29  1  0  0  0  0
M  END
>  <MODEL>
3

>  <REMARK>
 VINA RESULT:      -5.7      2.845      6.456
  Name = 
  20 active torsions:
  status: ('A' for Active; 'I' for Inactive)
    1  A    between atoms: C_2  and  C_7
    2  A    between atoms: C_2  and  C_19
    3  A    between atoms: N_3  and  C_8
    4  A    between atoms: C_5  and  C_13
    5  A    between atoms: C_5  and  C_31
    6  A    between atoms: C_6  and  C_8
    7  A    between atoms: C_6  and  C_28
    8  A    between atoms: C_7  and  C_23
    9  A    between atoms: C_10  and  C_16
   10  A    between atoms: C_11  and  C_14
   11  A    between atoms: C_11  and  O_29
   12  A    between atoms: C_12  and  C_22
   13  A    between atoms: C_12  and  C_27
   14  A    between atoms: C_13  and  O_29
   15  A    between atoms: C_14  and  C_17
   16  A    between atoms: C_15  and  C_19
   17  A    between atoms: C_16  and  O_20
   18  A    between atoms: C_16  and  C_27
   19  A    between atoms: C_22  and  C_23
   20  A    between atoms: C_24  and  C_27
                            x       y       z     vdW  Elec       q    Type
                         _______ _______ _______ _____ _____    ______ ____

>  <TORSDO>
F 20

$$$$
=
 OpenBabel11032419313D

 31 31  0  0  1  0  0  0  0  0999 V2000
  189.2590  177.1660  142.4070 C   0  0  1  0  0  3  0  0  0  0  0  0
  188.2770  176.2600  143.0880 C   0  0  0  0  0  3  0  0  0  0  0  0
  187.2120  176.7570  143.7130 C   0  0  0  0  0  2  0  0  0  0  0  0
  188.8400  177.4920  140.9660 C   0  0  2  0  0  3  0  0  0  0  0  0
  190.0270  177.5430  140.0060 C   0  0  2  0  0  3  0  0  0  0  0  0
  190.0350  176.3400  139.1440 C   0  0  2  0  0  3  0  0  0  0  0  0
  190.8820  176.4550  140.2630 O   0  0  0  0  0  0  0  0  0  0  0  0
  190.8280  176.6190  137.8810 C   0  0  2  0  0  3  0  0  0  0  0  0
  190.0340  176.1500  136.6750 C   0  0  0  0  0  1  0  0  0  0  0  0
  192.1600  175.8910  137.9390 C   0  0  0  0  0  2  0  0  0  0  0  0
  192.0660  174.6700  137.2700 O   0  0  0  0  0  0  0  0  0  0  0  0
  193.3680  174.1730  137.2620 C   0  0  0  0  0  2  0  0  0  0  0  0
  194.2270  174.9880  138.2060 C   0  0  0  0  0  2  0  0  0  0  0  0
  195.1470  172.6950  138.2990 C   0  0  0  0  0  1  0  0  0  0  0  0
  195.3650  174.1320  138.7190 C   0  0  0  0  0  2  0  0  0  0  0  0
  186.9060  178.3960  140.3760 C   0  0  0  0  0  1  0  0  0  0  0  0
  188.1490  178.7070  140.9310 O   0  0  0  0  0  0  0  0  0  0  0  0
  189.4890  178.4330  143.2280 C   0  0  0  0  0  2  0  0  0  0  0  0
  190.9440  178.5600  143.6670 C   0  0  0  0  0  2  0  0  0  0  0  0
  191.5960  177.1930  143.8320 C   0  0  0  0  0  2  0  0  0  0  0  0
  191.6700  176.7780  145.2930 C   0  0  0  0  0  2  0  0  0  0  0  0
  190.2730  176.6310  145.8760 C   0  0  0  0  0  2  0  0  0  0  0  0
  191.5520  177.2470  147.7870 O   0  0  0  0  0  1  0  0  0  0  0  0
  190.3140  176.7410  147.3910 C   0  0  1  0  0  3  0  0  0  0  0  0
  187.9440  177.6240  147.2540 N   0  0  0  0  0  2  0  0  0  0  0  0
  189.2220  177.6260  147.8980 C   0  0  0  0  0  0  0  0  0  0  0  0
  189.4230  178.3330  148.9620 N   0  0  0  0  0  2  0  0  0  0  0  0
  186.8410  178.4650  147.6960 C   0  0  0  0  0  2  0  0  0  0  0  0
  186.0290  178.9580  146.5070 C   0  0  0  0  0  2  0  0  0  0  0  0
  183.7810  179.0850  145.7080 O   0  0  0  0  0  1  0  0  0  0  0  0
  184.6610  178.2980  146.4520 C   0  0  0  0  0  2  0  0  0  0  0  0
  1  2  1  1  0  0  0
  1 18  1  0  0  0  0
  2  3  2  0  0  0  0
  4 17  1  1  0  0  0
  4  1  1  0  0  0  0
  5  7  1  0  0  0  0
  5  4  1  1  0  0  0
  6  8  1  6  0  0  0
  6  5  1  0  0  0  0
  6  7  1  0  0  0  0
  8  9  1  6  0  0  0
  8 10  1  0  0  0  0
 11 10  1  0  0  0  0
 12 11  1  0  0  0  0
 12 13  1  0  0  0  0
 13 15  1  0  0  0  0
 14 15  1  0  0  0  0
 16 17  1  0  0  0  0
 18 19  1  0  0  0  0
 19 20  1  0  0  0  0
 20 21  1  0  0  0  0
 21 22  1  0  0  0  0
 22 24  1  0  0  0  0
 24 23  1  6  0  0  0
 24 26  1  0  0  0  0
 25 28  1  0  0  0  0
 25 26  1  0  0  0  0
 26 27  2  0  0  0  0
 29 28  1  0  0  0  0
 30 31  1  0  0  0  0
 31 29  1  0  0  0  0
M  END
>  <MODEL>
4

>  <REMARK>
 VINA RESULT:      -5.7      3.782      8.385
  Name = 
  20 active torsions:
  status: ('A' for Active; 'I' for Inactive)
    1  A    between atoms: C_2  and  C_7
    2  A    between atoms: C_2  and  C_19
    3  A    between atoms: N_3  and  C_8
    4  A    between atoms: C_5  and  C_13
    5  A    between atoms: C_5  and  C_31
    6  A    between atoms: C_6  and  C_8
    7  A    between atoms: C_6  and  C_28
    8  A    between atoms: C_7  and  C_23
    9  A    between atoms: C_10  and  C_16
   10  A    between atoms: C_11  and  C_14
   11  A    between atoms: C_11  and  O_29
   12  A    between atoms: C_12  and  C_22
   13  A    between atoms: C_12  and  C_27
   14  A    between atoms: C_13  and  O_29
   15  A    between atoms: C_14  and  C_17
   16  A    between atoms: C_15  and  C_19
   17  A    between atoms: C_16  and  O_20
   18  A    between atoms: C_16  and  C_27
   19  A    between atoms: C_22  and  C_23
   20  A    between atoms: C_24  and  C_27
                            x       y       z     vdW  Elec       q    Type
                         _______ _______ _______ _____ _____    ______ ____

>  <TORSDO>
F 20

$$$$
=
 OpenBabel11032419313D

 31 31  0  0  1  0  0  0  0  0999 V2000
  190.4630  176.8870  145.4340 C   0  0  1  0  0  3  0  0  0  0  0  0
  191.5520  176.8480  146.4650 C   0  0  0  0  0  3  0  0  0  0  0  0
  192.1930  175.7130  146.7360 C   0  0  0  0  0  2  0  0  0  0  0  0
  189.1010  177.2480  146.0460 C   0  0  2  0  0  3  0  0  0  0  0  0
  188.1660  177.9200  145.0420 C   0  0  2  0  0  3  0  0  0  0  0  0
  186.7730  177.4780  145.2710 C   0  0  2  0  0  3  0  0  0  0  0  0
  187.5610  176.9370  144.2380 O   0  0  0  0  0  0  0  0  0  0  0  0
  185.8090  178.4960  144.6910 C   0  0  2  0  0  3  0  0  0  0  0  0
  184.7510  178.8330  145.7250 C   0  0  0  0  0  1  0  0  0  0  0  0
  185.1520  177.9290  143.4440 C   0  0  0  0  0  2  0  0  0  0  0  0
  184.1630  178.8000  142.9880 O   0  0  0  0  0  0  0  0  0  0  0  0
  184.0020  178.4750  141.6420 C   0  0  0  0  0  2  0  0  0  0  0  0
  185.2410  178.8790  140.8720 C   0  0  0  0  0  2  0  0  0  0  0  0
  183.5640  179.4950  139.1640 C   0  0  0  0  0  1  0  0  0  0  0  0
  184.9330  178.8920  139.3900 C   0  0  0  0  0  2  0  0  0  0  0  0
  188.5000  177.5010  148.1630 C   0  0  0  0  0  1  0  0  0  0  0  0
  189.2800  178.0770  147.1580 O   0  0  0  0  0  0  0  0  0  0  0  0
  190.8340  177.8280  144.2890 C   0  0  0  0  0  2  0  0  0  0  0  0
  191.4460  177.0690  143.1180 C   0  0  0  0  0  2  0  0  0  0  0  0
  190.3730  176.5370  142.1770 C   0  0  0  0  0  2  0  0  0  0  0  0
  190.1350  177.4770  141.0060 C   0  0  0  0  0  2  0  0  0  0  0  0
  188.6700  177.4610  140.5980 C   0  0  0  0  0  2  0  0  0  0  0  0
  189.0940  179.1780  139.0050 O   0  0  0  0  0  1  0  0  0  0  0  0
  188.5120  177.9200  139.1580 C   0  0  1  0  0  3  0  0  0  0  0  0
  190.4860  177.1690  137.7590 N   0  0  0  0  0  2  0  0  0  0  0  0
  189.1450  176.9530  138.2110 C   0  0  0  0  0  0  0  0  0  0  0  0
  188.4970  175.8880  137.8660 N   0  0  0  0  0  2  0  0  0  0  0  0
  191.1570  176.2670  136.8340 C   0  0  0  0  0  2  0  0  0  0  0  0
  191.6980  175.0480  137.5660 C   0  0  0  0  0  2  0  0  0  0  0  0
  193.6340  173.8200  136.8940 O   0  0  0  0  0  1  0  0  0  0  0  0
  192.2850  174.0310  136.6020 C   0  0  0  0  0  2  0  0  0  0  0  0
  1 18  1  6  0  0  0
  1  4  1  0  0  0  0
  1  2  1  0  0  0  0
  2  3  2  0  0  0  0
  4 17  1  1  0  0  0
  5  6  1  0  0  0  0
  5  4  1  1  0  0  0
  6  8  1  6  0  0  0
  7  5  1  0  0  0  0
  7  6  1  0  0  0  0
  8  9  1  1  0  0  0
 10  8  1  0  0  0  0
 11 10  1  0  0  0  0
 12 11  1  0  0  0  0
 13 12  1  0  0  0  0
 14 15  1  0  0  0  0
 15 13  1  0  0  0  0
 17 16  1  0  0  0  0
 19 18  1  0  0  0  0
 20 19  1  0  0  0  0
 21 20  1  0  0  0  0
 22 21  1  0  0  0  0
 24 23  1  1  0  0  0
 24 22  1  0  0  0  0
 25 26  1  0  0  0  0
 26 24  1  0  0  0  0
 27 26  2  0  0  0  0
 28 29  1  0  0  0  0
 28 25  1  0  0  0  0
 31 30  1  0  0  0  0
 31 29  1  0  0  0  0
M  END
>  <MODEL>
5

>  <REMARK>
 VINA RESULT:      -5.6      1.874      2.765
  Name = 
  20 active torsions:
  status: ('A' for Active; 'I' for Inactive)
    1  A    between atoms: C_2  and  C_7
    2  A    between atoms: C_2  and  C_19
    3  A    between atoms: N_3  and  C_8
    4  A    between atoms: C_5  and  C_13
    5  A    between atoms: C_5  and  C_31
    6  A    between atoms: C_6  and  C_8
    7  A    between atoms: C_6  and  C_28
    8  A    between atoms: C_7  and  C_23
    9  A    between atoms: C_10  and  C_16
   10  A    between atoms: C_11  and  C_14
   11  A    between atoms: C_11  and  O_29
   12  A    between atoms: C_12  and  C_22
   13  A    between atoms: C_12  and  C_27
   14  A    between atoms: C_13  and  O_29
   15  A    between atoms: C_14  and  C_17
   16  A    between atoms: C_15  and  C_19
   17  A    between atoms: C_16  and  O_20
   18  A    between atoms: C_16  and  C_27
   19  A    between atoms: C_22  and  C_23
   20  A    between atoms: C_24  and  C_27
                            x       y       z     vdW  Elec       q    Type
                         _______ _______ _______ _____ _____    ______ ____

>  <TORSDO>
F 20

$$$$
=
 OpenBabel11032419313D

 31 31  0  0  1  0  0  0  0  0999 V2000
  188.3170  177.9700  146.3510 C   0  0  1  0  0  3  0  0  0  0  0  0
  188.5900  177.3050  147.6670 C   0  0  0  0  0  3  0  0  0  0  0  0
  188.4410  177.9710  148.8100 C   0  0  0  0  0  2  0  0  0  0  0  0
  189.3780  177.6210  145.2960 C   0  0  2  0  0  3  0  0  0  0  0  0
  188.7650  177.2270  143.9540 C   0  0  2  0  0  3  0  0  0  0  0  0
  189.4190  177.9750  142.8580 C   0  0  2  0  0  3  0  0  0  0  0  0
  188.1620  178.3540  143.3670 O   0  0  0  0  0  0  0  0  0  0  0  0
  189.2300  177.2350  141.5470 C   0  0  2  0  0  3  0  0  0  0  0  0
  190.5870  176.9310  140.9410 C   0  0  0  0  0  1  0  0  0  0  0  0
  188.4150  178.0870  140.5890 C   0  0  0  0  0  2  0  0  0  0  0  0
  189.1990  178.4630  139.4990 O   0  0  0  0  0  0  0  0  0  0  0  0
  188.4160  178.1680  138.3830 C   0  0  0  0  0  2  0  0  0  0  0  0
  189.1020  178.6800  137.1350 C   0  0  0  0  0  2  0  0  0  0  0  0
  190.3330  176.5670  136.7700 C   0  0  0  0  0  1  0  0  0  0  0  0
  189.3290  177.5310  136.1760 C   0  0  0  0  0  2  0  0  0  0  0  0
  191.5010  177.0730  145.6140 C   0  0  0  0  0  1  0  0  0  0  0  0
  190.1990  176.5910  145.7660 O   0  0  0  0  0  0  0  0  0  0  0  0
  186.9070  177.6450  145.8610 C   0  0  0  0  0  2  0  0  0  0  0  0
  185.9190  178.7460  146.2290 C   0  0  0  0  0  2  0  0  0  0  0  0
  184.5880  178.5630  145.5100 C   0  0  0  0  0  2  0  0  0  0  0  0
  184.7780  178.3670  144.0150 C   0  0  0  0  0  2  0  0  0  0  0  0
  183.9500  179.3770  143.2360 C   0  0  0  0  0  2  0  0  0  0  0  0
  181.5750  179.3840  143.0780 O   0  0  0  0  0  1  0  0  0  0  0  0
  182.7180  178.7130  142.6440 C   0  0  1  0  0  3  0  0  0  0  0  0
  183.8110  179.4210  140.4710 N   0  0  0  0  0  2  0  0  0  0  0  0
  182.7680  178.7150  141.1510 C   0  0  0  0  0  0  0  0  0  0  0  0
  181.9070  178.0140  140.4870 N   0  0  0  0  0  2  0  0  0  0  0  0
  183.9130  179.4660  139.0190 C   0  0  0  0  0  2  0  0  0  0  0  0
  184.9540  178.4740  138.5220 C   0  0  0  0  0  2  0  0  0  0  0  0
  183.0840  177.8010  137.1950 O   0  0  0  0  0  1  0  0  0  0  0  0
  184.3250  177.3800  137.6750 C   0  0  0  0  0  2  0  0  0  0  0  0
  1 18  1  6  0  0  0
  1  2  1  0  0  0  0
  2  3  2  0  0  0  0
  4 17  1  1  0  0  0
  4  1  1  0  0  0  0
  5  4  1  1  0  0  0
  6  8  1  6  0  0  0
  6  7  1  0  0  0  0
  6  5  1  0  0  0  0
  7  5  1  0  0  0  0
  8  9  1  6  0  0  0
 10  8  1  0  0  0  0
 11 10  1  0  0  0  0
 12 11  1  0  0  0  0
 13 12  1  0  0  0  0
 15 14  1  0  0  0  0
 15 13  1  0  0  0  0
 16 17  1  0  0  0  0
 18 19  1  0  0  0  0
 20 19  1  0  0  0  0
 21 20  1  0  0  0  0
 22 21  1  0  0  0  0
 24 23  1  6  0  0  0
 24 22  1  0  0  0  0
 25 26  1  0  0  0  0
 26 24  1  0  0  0  0
 27 26  2  0  0  0  0
 28 25  1  0  0  0  0
 29 28  1  0  0  0  0
 30 31  1  0  0  0  0
 31 29  1  0  0  0  0
M  END
>  <MODEL>
6

>  <REMARK>
 VINA RESULT:      -5.6      2.414      5.446
  Name = 
  20 active torsions:
  status: ('A' for Active; 'I' for Inactive)
    1  A    between atoms: C_2  and  C_7
    2  A    between atoms: C_2  and  C_19
    3  A    between atoms: N_3  and  C_8
    4  A    between atoms: C_5  and  C_13
    5  A    between atoms: C_5  and  C_31
    6  A    between atoms: C_6  and  C_8
    7  A    between atoms: C_6  and  C_28
    8  A    between atoms: C_7  and  C_23
    9  A    between atoms: C_10  and  C_16
   10  A    between atoms: C_11  and  C_14
   11  A    between atoms: C_11  and  O_29
   12  A    between atoms: C_12  and  C_22
   13  A    between atoms: C_12  and  C_27
   14  A    between atoms: C_13  and  O_29
   15  A    between atoms: C_14  and  C_17
   16  A    between atoms: C_15  and  C_19
   17  A    between atoms: C_16  and  O_20
   18  A    between atoms: C_16  and  C_27
   19  A    between atoms: C_22  and  C_23
   20  A    between atoms: C_24  and  C_27
                            x       y       z     vdW  Elec       q    Type
                         _______ _______ _______ _____ _____    ______ ____

>  <TORSDO>
F 20

$$$$
=
 OpenBabel11032419313D

 31 31  0  0  1  0  0  0  0  0999 V2000
  188.3410  177.8520  145.7960 C   0  0  1  0  0  3  0  0  0  0  0  0
  188.8400  177.3700  147.1260 C   0  0  0  0  0  3  0  0  0  0  0  0
  188.6620  178.1000  148.2250 C   0  0  0  0  0  2  0  0  0  0  0  0
  189.3880  177.6680  144.6860 C   0  0  2  0  0  3  0  0  0  0  0  0
  188.7580  177.3470  143.3330 C   0  0  2  0  0  3  0  0  0  0  0  0
  189.5110  178.0170  142.2500 C   0  0  2  0  0  3  0  0  0  0  0  0
  188.2970  178.5350  142.7370 O   0  0  0  0  0  0  0  0  0  0  0  0
  189.2630  177.3040  140.9340 C   0  0  2  0  0  3  0  0  0  0  0  0
  190.5880  176.8500  140.3500 C   0  0  0  0  0  1  0  0  0  0  0  0
  188.5640  178.2420  139.9650 C   0  0  0  0  0  2  0  0  0  0  0  0
  188.1060  177.5290  138.8570 O   0  0  0  0  0  0  0  0  0  0  0  0
  188.3800  178.3570  137.7680 C   0  0  0  0  0  2  0  0  0  0  0  0
  187.3200  178.1620  136.7060 C   0  0  0  0  0  2  0  0  0  0  0  0
  185.2770  176.7760  136.5800 C   0  0  0  0  0  1  0  0  0  0  0  0
  185.9940  177.8510  137.3670 C   0  0  0  0  0  2  0  0  0  0  0  0
  191.5360  177.2940  145.0740 C   0  0  0  0  0  1  0  0  0  0  0  0
  190.2910  176.6620  145.0420 O   0  0  0  0  0  0  0  0  0  0  0  0
  187.0160  177.1810  145.4380 C   0  0  0  0  0  2  0  0  0  0  0  0
  185.8260  178.0190  145.8900 C   0  0  0  0  0  2  0  0  0  0  0  0
  185.4460  179.0580  144.8430 C   0  0  0  0  0  2  0  0  0  0  0  0
  184.3790  178.5360  143.8940 C   0  0  0  0  0  2  0  0  0  0  0  0
  184.9760  178.2590  142.5230 C   0  0  0  0  0  2  0  0  0  0  0  0
  185.1970  179.4030  140.4460 O   0  0  0  0  0  1  0  0  0  0  0  0
  184.2890  179.1040  141.4620 C   0  0  1  0  0  3  0  0  0  0  0  0
  183.2990  177.2920  139.9940 N   0  0  0  0  0  2  0  0  0  0  0  0
  183.1070  178.3940  140.8880 C   0  0  0  0  0  0  0  0  0  0  0  0
  181.9180  178.7360  141.2650 N   0  0  0  0  0  2  0  0  0  0  0  0
  182.1890  176.5620  139.3990 C   0  0  0  0  0  2  0  0  0  0  0  0
  181.8640  177.1100  138.0170 C   0  0  0  0  0  2  0  0  0  0  0  0
  179.8550  175.9070  138.4920 O   0  0  0  0  0  1  0  0  0  0  0  0
  180.5820  176.5100  137.4640 C   0  0  0  0  0  2  0  0  0  0  0  0
  1 18  1  6  0  0  0
  1  2  1  0  0  0  0
  2  3  2  0  0  0  0
  4 17  1  1  0  0  0
  4  1  1  0  0  0  0
  5  4  1  1  0  0  0
  6  8  1  6  0  0  0
  6  7  1  0  0  0  0
  6  5  1  0  0  0  0
  7  5  1  0  0  0  0
  8  9  1  6  0  0  0
 10  8  1  0  0  0  0
 11 10  1  0  0  0  0
 12 11  1  0  0  0  0
 13 15  1  0  0  0  0
 13 12  1  0  0  0  0
 14 15  1  0  0  0  0
 17 16  1  0  0  0  0
 18 19  1  0  0  0  0
 20 19  1  0  0  0  0
 21 20  1  0  0  0  0
 22 21  1  0  0  0  0
 24 23  1  6  0  0  0
 24 22  1  0  0  0  0
 25 26  1  0  0  0  0
 26 27  2  0  0  0  0
 26 24  1  0  0  0  0
 28 25  1  0  0  0  0
 29 28  1  0  0  0  0
 31 29  1  0  0  0  0
 31 30  1  0  0  0  0
M  END
>  <MODEL>
7

>  <REMARK>
 VINA RESULT:      -5.6      2.628      5.106
  Name = 
  20 active torsions:
  status: ('A' for Active; 'I' for Inactive)
    1  A    between atoms: C_2  and  C_7
    2  A    between atoms: C_2  and  C_19
    3  A    between atoms: N_3  and  C_8
    4  A    between atoms: C_5  and  C_13
    5  A    between atoms: C_5  and  C_31
    6  A    between atoms: C_6  and  C_8
    7  A    between atoms: C_6  and  C_28
    8  A    between atoms: C_7  and  C_23
    9  A    between atoms: C_10  and  C_16
   10  A    between atoms: C_11  and  C_14
   11  A    between atoms: C_11  and  O_29
   12  A    between atoms: C_12  and  C_22
   13  A    between atoms: C_12  and  C_27
   14  A    between atoms: C_13  and  O_29
   15  A    between atoms: C_14  and  C_17
   16  A    between atoms: C_15  and  C_19
   17  A    between atoms: C_16  and  O_20
   18  A    between atoms: C_16  and  C_27
   19  A    between atoms: C_22  and  C_23
   20  A    between atoms: C_24  and  C_27
                            x       y       z     vdW  Elec       q    Type
                         _______ _______ _______ _____ _____    ______ ____

>  <TORSDO>
F 20

$$$$
=
 OpenBabel11032419313D

 31 31  0  0  1  0  0  0  0  0999 V2000
  185.8300  178.0680  142.6620 C   0  0  1  0  0  3  0  0  0  0  0  0
  186.8220  178.8150  141.8210 C   0  0  0  0  0  3  0  0  0  0  0  0
  187.9340  178.2230  141.3910 C   0  0  0  0  0  2  0  0  0  0  0  0
  185.8040  178.5750  144.1110 C   0  0  2  0  0  3  0  0  0  0  0  0
  186.4170  177.5780  145.0930 C   0  0  2  0  0  3  0  0  0  0  0  0
  187.8280  177.9340  145.3630 C   0  0  2  0  0  3  0  0  0  0  0  0
  187.4830  176.9040  144.4690 O   0  0  0  0  0  0  0  0  0  0  0  0
  188.2660  177.3310  146.6840 C   0  0  2  0  0  3  0  0  0  0  0  0
  187.5980  178.0760  147.8240 C   0  0  0  0  0  1  0  0  0  0  0  0
  189.7760  177.4280  146.8170 C   0  0  0  0  0  2  0  0  0  0  0  0
  190.3880  176.4500  146.0320 O   0  0  0  0  0  0  0  0  0  0  0  0
  191.6050  177.0150  145.6520 C   0  0  0  0  0  2  0  0  0  0  0  0
  191.3690  178.0330  144.5560 C   0  0  0  0  0  2  0  0  0  0  0  0
  191.9560  177.2420  142.2890 C   0  0  0  0  0  1  0  0  0  0  0  0
  190.8510  177.3320  143.3190 C   0  0  0  0  0  2  0  0  0  0  0  0
  184.4580  178.6450  145.8690 C   0  0  0  0  0  1  0  0  0  0  0  0
  184.4910  178.8700  144.4920 O   0  0  0  0  0  0  0  0  0  0  0  0
  184.4420  178.1050  142.0260 C   0  0  0  0  0  2  0  0  0  0  0  0
  184.4110  179.0130  140.8020 C   0  0  0  0  0  2  0  0  0  0  0  0
  184.1710  178.2190  139.5240 C   0  0  0  0  0  2  0  0  0  0  0  0
  185.1120  178.6470  138.4100 C   0  0  0  0  0  2  0  0  0  0  0  0
  186.1290  177.5540  138.1210 C   0  0  0  0  0  2  0  0  0  0  0  0
  186.8770  179.3530  136.7530 O   0  0  0  0  0  1  0  0  0  0  0  0
  187.1940  178.0570  137.1610 C   0  0  1  0  0  3  0  0  0  0  0  0
  189.2300  176.8050  137.9980 N   0  0  0  0  0  2  0  0  0  0  0  0
  188.5450  178.0450  137.7980 C   0  0  0  0  0  0  0  0  0  0  0  0
  189.1140  179.1670  138.0970 N   0  0  0  0  0  2  0  0  0  0  0  0
  190.5460  176.7250  138.6170 C   0  0  0  0  0  2  0  0  0  0  0  0
  191.6340  176.6320  137.5580 C   0  0  0  0  0  2  0  0  0  0  0  0
  194.0090  176.4450  137.3780 O   0  0  0  0  0  1  0  0  0  0  0  0
  192.9060  176.0150  138.1160 C   0  0  0  0  0  2  0  0  0  0  0  0
  1  2  1  6  0  0  0
  1  4  1  0  0  0  0
  3  2  2  0  0  0  0
  4 17  1  1  0  0  0
  5  4  1  6  0  0  0
  5  6  1  0  0  0  0
  6  8  1  1  0  0  0
  7  5  1  0  0  0  0
  7  6  1  0  0  0  0
  8 10  1  0  0  0  0
  8  9  1  1  0  0  0
 11 10  1  0  0  0  0
 12 11  1  0  0  0  0
 13 12  1  0  0  0  0
 14 15  1  0  0  0  0
 15 13  1  0  0  0  0
 17 16  1  0  0  0  0
 18  1  1  0  0  0  0
 19 18  1  0  0  0  0
 20 19  1  0  0  0  0
 21 20  1  0  0  0  0
 22 21  1  0  0  0  0
 24 23  1  1  0  0  0
 24 26  1  0  0  0  0
 24 22  1  0  0  0  0
 25 28  1  0  0  0  0
 26 25  1  0  0  0  0
 26 27  2  0  0  0  0
 29 31  1  0  0  0  0
 29 28  1  0  0  0  0
 30 31  1  0  0  0  0
M  END
>  <MODEL>
8

>  <REMARK>
 VINA RESULT:      -5.5      1.710      5.842
  Name = 
  20 active torsions:
  status: ('A' for Active; 'I' for Inactive)
    1  A    between atoms: C_2  and  C_7
    2  A    between atoms: C_2  and  C_19
    3  A    between atoms: N_3  and  C_8
    4  A    between atoms: C_5  and  C_13
    5  A    between atoms: C_5  and  C_31
    6  A    between atoms: C_6  and  C_8
    7  A    between atoms: C_6  and  C_28
    8  A    between atoms: C_7  and  C_23
    9  A    between atoms: C_10  and  C_16
   10  A    between atoms: C_11  and  C_14
   11  A    between atoms: C_11  and  O_29
   12  A    between atoms: C_12  and  C_22
   13  A    between atoms: C_12  and  C_27
   14  A    between atoms: C_13  and  O_29
   15  A    between atoms: C_14  and  C_17
   16  A    between atoms: C_15  and  C_19
   17  A    between atoms: C_16  and  O_20
   18  A    between atoms: C_16  and  C_27
   19  A    between atoms: C_22  and  C_23
   20  A    between atoms: C_24  and  C_27
                            x       y       z     vdW  Elec       q    Type
                         _______ _______ _______ _____ _____    ______ ____

>  <TORSDO>
F 20

$$$$
=
 OpenBabel11032419313D

 31 31  0  0  1  0  0  0  0  0999 V2000
  185.3310  178.2590  144.3710 C   0  0  1  0  0  3  0  0  0  0  0  0
  185.2410  179.1130  145.6010 C   0  0  0  0  0  3  0  0  0  0  0  0
  185.2500  178.5640  146.8140 C   0  0  0  0  0  2  0  0  0  0  0  0
  184.2760  178.6440  143.3230 C   0  0  2  0  0  3  0  0  0  0  0  0
  184.8970  179.1810  142.0350 C   0  0  2  0  0  3  0  0  0  0  0  0
  184.3090  178.4960  140.8630 C   0  0  2  0  0  3  0  0  0  0  0  0
  185.5720  178.1400  141.3720 O   0  0  0  0  0  0  0  0  0  0  0  0
  184.4870  179.3540  139.6240 C   0  0  2  0  0  3  0  0  0  0  0  0
  183.1250  179.7450  139.0820 C   0  0  0  0  0  1  0  0  0  0  0  0
  185.2610  178.5790  138.5710 C   0  0  0  0  0  2  0  0  0  0  0  0
  184.6740  177.3300  138.3700 O   0  0  0  0  0  0  0  0  0  0  0  0
  185.0800  176.9520  137.0910 C   0  0  0  0  0  2  0  0  0  0  0  0
  186.5640  176.6540  137.0990 C   0  0  0  0  0  2  0  0  0  0  0  0
  188.3570  175.4860  135.8610 C   0  0  0  0  0  1  0  0  0  0  0  0
  186.8640  175.5570  136.1000 C   0  0  0  0  0  2  0  0  0  0  0  0
  182.1210  179.0880  143.5740 C   0  0  0  0  0  1  0  0  0  0  0  0
  183.3940  179.5880  143.8560 O   0  0  0  0  0  0  0  0  0  0  0  0
  186.7430  178.2920  143.7890 C   0  0  0  0  0  2  0  0  0  0  0  0
  187.5220  177.0290  144.1400 C   0  0  0  0  0  2  0  0  0  0  0  0
  188.2100  177.1560  145.4930 C   0  0  0  0  0  2  0  0  0  0  0  0
  189.7200  177.2560  145.3490 C   0  0  0  0  0  2  0  0  0  0  0  0
  190.0860  178.0210  144.0860 C   0  0  0  0  0  2  0  0  0  0  0  0
  191.4360  176.0700  143.8890 O   0  0  0  0  0  1  0  0  0  0  0  0
  191.2580  177.3570  143.3820 C   0  0  1  0  0  3  0  0  0  0  0  0
  189.7140  177.0900  141.3920 N   0  0  0  0  0  2  0  0  0  0  0  0
  191.0340  177.2920  141.9060 C   0  0  0  0  0  0  0  0  0  0  0  0
  192.0290  177.4930  141.1060 N   0  0  0  0  0  2  0  0  0  0  0  0
  189.4300  177.0120  139.9660 C   0  0  0  0  0  2  0  0  0  0  0  0
  188.9570  178.3580  139.4370 C   0  0  0  0  0  2  0  0  0  0  0  0
  188.7870  179.7170  137.4790 O   0  0  0  0  0  1  0  0  0  0  0  0
  189.4200  178.5920  138.0080 C   0  0  0  0  0  2  0  0  0  0  0  0
  1 18  1  6  0  0  0
  1  2  1  0  0  0  0
  2  3  2  0  0  0  0
  4 17  1  1  0  0  0
  4  1  1  0  0  0  0
  5  4  1  1  0  0  0
  6  8  1  6  0  0  0
  6  7  1  0  0  0  0
  6  5  1  0  0  0  0
  7  5  1  0  0  0  0
  8  9  1  6  0  0  0
 10  8  1  0  0  0  0
 11 10  1  0  0  0  0
 12 13  1  0  0  0  0
 12 11  1  0  0  0  0
 14 15  1  0  0  0  0
 15 13  1  0  0  0  0
 16 17  1  0  0  0  0
 18 19  1  0  0  0  0
 19 20  1  0  0  0  0
 21 20  1  0  0  0  0
 22 21  1  0  0  0  0
 24 23  1  1  0  0  0
 24 22  1  0  0  0  0
 25 26  1  0  0  0  0
 26 24  1  0  0  0  0
 27 26  2  0  0  0  0
 28 25  1  0  0  0  0
 29 28  1  0  0  0  0
 30 31  1  0  0  0  0
 31 29  1  0  0  0  0
M  END
>  <MODEL>
9

>  <REMARK>
 VINA RESULT:      -5.4      2.227      5.230
  Name = 
  20 active torsions:
  status: ('A' for Active; 'I' for Inactive)
    1  A    between atoms: C_2  and  C_7
    2  A    between atoms: C_2  and  C_19
    3  A    between atoms: N_3  and  C_8
    4  A    between atoms: C_5  and  C_13
    5  A    between atoms: C_5  and  C_31
    6  A    between atoms: C_6  and  C_8
    7  A    between atoms: C_6  and  C_28
    8  A    between atoms: C_7  and  C_23
    9  A    between atoms: C_10  and  C_16
   10  A    between atoms: C_11  and  C_14
   11  A    between atoms: C_11  and  O_29
   12  A    between atoms: C_12  and  C_22
   13  A    between atoms: C_12  and  C_27
   14  A    between atoms: C_13  and  O_29
   15  A    between atoms: C_14  and  C_17
   16  A    between atoms: C_15  and  C_19
   17  A    between atoms: C_16  and  O_20
   18  A    between atoms: C_16  and  C_27
   19  A    between atoms: C_22  and  C_23
   20  A    between atoms: C_24  and  C_27
                            x       y       z     vdW  Elec       q    Type
                         _______ _______ _______ _____ _____    ______ ____

>  <TORSDO>
F 20

$$$$
