=
 OpenBabel11032421143D

 50 55  0  0  1  0  0  0  0  0999 V2000
  186.6620  177.1490  137.1850 C   0  0  0  0  0  0  0  0  0  0  0  0
  185.6390  177.3980  138.2450 C   0  0  2  0  0  3  0  0  0  0  0  0
  184.6760  177.3450  136.1240 C   0  0  0  0  0  3  0  0  0  0  0  0
  184.4090  177.5360  137.4100 C   0  0  0  0  0  0  0  0  0  0  0  0
  186.1050  177.1180  135.9800 C   0  0  0  0  0  3  0  0  0  0  0  0
  188.7800  175.3680  137.6240 S   0  0  0  0  0  0  0  0  0  0  0  0
  188.0920  176.8980  137.4490 C   0  0  0  0  0  0  0  0  0  0  0  0
  189.1150  177.8430  137.5900 C   0  0  0  0  0  0  0  0  0  0  0  0
  188.9040  179.2490  137.5060 N   0  0  0  0  0  1  0  0  0  0  0  0
  191.4800  175.1850  138.0860 N   0  0  0  0  0  1  0  0  0  0  0  0
  190.3530  177.3310  137.8280 N   0  0  0  0  0  0  0  0  0  0  0  0
  190.3240  175.9830  137.8700 C   0  0  0  0  0  0  0  0  0  0  0  0
  183.0320  177.6730  137.9910 C   0  0  0  0  0  2  0  0  0  0  0  0
  182.6890  176.5760  138.9890 C   0  0  2  0  0  3  0  0  0  0  0  0
  182.6240  175.3410  138.3400 O   0  0  0  0  0  1  0  0  0  0  0  0
  181.4020  176.8700  139.6000 N   0  0  0  0  0  2  0  0  0  0  0  0
  180.2650  177.3390  138.8700 C   0  0  0  0  0  0  0  0  0  0  0  0
  179.0180  176.3230  138.5140 S   0  0  0  0  0  0  0  0  0  0  0  0
  178.9730  179.2070  137.7100 C   0  0  1  0  0  3  0  0  0  0  0  0
  180.2090  181.1780  139.6270 C   0  0  0  0  0  2  0  0  0  0  0  0
  180.4720  181.1120  137.1030 N   0  0  0  0  0  2  0  0  0  0  0  0
  179.1750  179.3230  140.9090 C   0  0  0  0  0  1  0  0  0  0  0  0
  180.2560  179.6700  139.8980 C   0  0  1  0  0  3  0  0  0  0  0  0
  179.3710  179.1790  136.3620 O   0  0  0  0  0  0  0  0  0  0  0  0
  180.9560  181.5370  138.3830 C   0  0  0  0  0  0  0  0  0  0  0  0
  180.1510  178.8150  138.6130 C   0  0  1  0  0  3  0  0  0  0  0  0
  182.0710  182.1140  138.4700 O   0  0  0  0  0  0  0  0  0  0  0  0
  179.1730  180.4620  136.9090 C   0  0  1  0  0  3  0  0  0  0  0  0
  185.9240  178.6520  138.9310 N   0  0  0  0  0  2  0  0  0  0  0  0
  187.2310  178.6560  140.9820 C   0  0  0  0  0  1  0  0  0  0  0  0
  185.8710  178.3840  140.3580 C   0  0  1  0  0  3  0  0  0  0  0  0
  184.8040  179.2560  141.0060 C   0  0  0  0  0  2  0  0  0  0  0  0
  182.7880  178.5700  142.2900 C   0  0  0  0  0  1  0  0  0  0  0  0
  184.3030  178.6210  142.2960 C   0  0  2  0  0  3  0  0  0  0  0  0
  184.7660  179.4250  143.5020 C   0  0  0  0  0  2  0  0  0  0  0  0
  184.0530  178.9800  144.7690 C   0  0  0  0  0  2  0  0  0  0  0  0
  184.9300  179.1430  145.9190 N   0  0  0  0  0  2  0  0  0  0  0  0
  185.6250  177.8780  146.1050 C   0  0  0  0  0  2  0  0  0  0  0  0
  189.9270  178.1310  145.3790 C   0  0  2  0  0  3  0  0  0  0  0  0
  187.0260  178.0500  145.7540 N   0  0  0  0  0  2  0  0  0  0  0  0
  191.6610  176.4470  144.6650 C   0  0  0  0  0  2  0  0  0  0  0  0
  189.6690  176.8730  143.2410 C   0  0  0  0  0  2  0  0  0  0  0  0
  189.0270  177.4810  144.4120 N   0  0  0  0  0  0  0  0  0  0  0  0
  187.6220  177.3610  144.6540 C   0  0  0  0  0  0  0  0  0  0  0  0
  190.6660  179.1530  144.7070 O   0  0  0  0  0  0  0  0  0  0  0  0
  186.9050  176.6610  143.8820 O   0  0  0  0  0  0  0  0  0  0  0  0
  191.1750  177.1200  143.3710 C   0  0  1  0  0  0  0  0  0  0  0  0
  190.9200  177.0590  145.8780 C   0  0  0  0  0  2  0  0  0  0  0  0
  191.3590  178.6400  143.5580 C   0  0  0  0  0  2  0  0  0  0  0  0
  191.8680  176.6500  142.2570 O   0  0  0  0  0  1  0  0  0  0  0  0
  1  7  1  0  0  0  0
  1  2  1  0  0  0  0
  2 29  1  6  0  0  0
  3  4  2  0  0  0  0
  4 13  1  0  0  0  0
  4  2  1  0  0  0  0
  5  3  1  0  0  0  0
  5  1  2  0  0  0  0
  6 12  1  0  0  0  0
  7  8  2  0  0  0  0
  7  6  1  0  0  0  0
  8 11  1  0  0  0  0
  9  8  1  0  0  0  0
 11 12  2  0  0  0  0
 12 10  1  0  0  0  0
 13 14  1  0  0  0  0
 14 15  1  6  0  0  0
 14 16  1  0  0  0  0
 17 16  1  0  0  0  0
 18 17  2  0  0  0  0
 19 24  1  6  0  0  0
 19 26  1  0  0  0  0
 20 23  1  0  0  0  0
 21 25  1  0  0  0  0
 23 22  1  1  0  0  0
 25 27  2  0  0  0  0
 25 20  1  0  0  0  0
 26 17  1  1  0  0  0
 26 23  1  0  0  0  0
 28 24  1  6  0  0  0
 28 21  1  0  0  0  0
 28 19  1  0  0  0  0
 29 31  1  0  0  0  0
 31 30  1  1  0  0  0
 31 32  1  0  0  0  0
 32 34  1  0  0  0  0
 34 33  1  6  0  0  0
 34 35  1  0  0  0  0
 35 36  1  0  0  0  0
 36 37  1  0  0  0  0
 37 38  1  0  0  0  0
 39 48  1  6  0  0  0
 40 38  1  0  0  0  0
 41 48  1  0  0  0  0
 42 47  1  0  0  0  0
 42 43  1  0  0  0  0
 43 44  1  0  0  0  0
 43 39  1  0  0  0  0
 44 40  1  0  0  0  0
 45 39  1  0  0  0  0
 46 44  2  0  0  0  0
 47 50  1  6  0  0  0
 47 49  1  0  0  0  0
 47 41  1  0  0  0  0
 49 45  1  0  0  0  0
M  END
>  <MODEL>
1

>  <REMARK>
 VINA RESULT:      -7.5      0.000      0.000
  Name = 
  15 active torsions:
  status: ('A' for Active; 'I' for Inactive)
    1  A    between atoms: C_1  and  C_24
    2  A    between atoms: C_1  and  C_30
    3  A    between atoms: C_2  and  N_12
    4  A    between atoms: C_2  and  N_39
    5  A    between atoms: C_5  and  N_13
    6  A    between atoms: C_5  and  C_41
    7  A    between atoms: C_8  and  C_9
    8  A    between atoms: C_10  and  N_31
    9  A    between atoms: N_13  and  C_36
   10  A    between atoms: C_18  and  C_36
   11  A    between atoms: C_18  and  C_38
   12  A    between atoms: C_24  and  C_33
   13  A    between atoms: C_30  and  N_39
   14  A    between atoms: N_31  and  C_44
   15  A    between atoms: C_33  and  C_44
                            x       y       z     vdW  Elec       q    Type
                         _______ _______ _______ _____ _____    ______ ____

>  <TORSDO>
F 15

$$$$
=
 OpenBabel11032421143D

 50 55  0  0  1  0  0  0  0  0999 V2000
  180.8300  177.2210  139.3740 C   0  0  0  0  0  0  0  0  0  0  0  0
  182.2960  176.9930  139.2010 C   0  0  2  0  0  3  0  0  0  0  0  0
  181.0510  175.1840  138.4230 C   0  0  0  0  0  3  0  0  0  0  0  0
  182.2900  175.6240  138.6050 C   0  0  0  0  0  0  0  0  0  0  0  0
  180.1280  176.1870  138.9270 C   0  0  0  0  0  3  0  0  0  0  0  0
  180.1440  179.9200  139.0600 S   0  0  0  0  0  0  0  0  0  0  0  0
  180.2370  178.4640  139.9050 C   0  0  0  0  0  0  0  0  0  0  0  0
  179.6510  178.6640  141.1610 C   0  0  0  0  0  0  0  0  0  0  0  0
  179.5520  177.6470  142.1540 N   0  0  0  0  0  1  0  0  0  0  0  0
  178.9630  182.0770  140.2800 N   0  0  0  0  0  1  0  0  0  0  0  0
  179.1770  179.9180  141.3910 N   0  0  0  0  0  0  0  0  0  0  0  0
  179.3760  180.7170  140.3230 C   0  0  0  0  0  0  0  0  0  0  0  0
  183.5280  174.9410  138.1030 C   0  0  0  0  0  2  0  0  0  0  0  0
  183.4760  174.6230  136.6150 C   0  0  2  0  0  3  0  0  0  0  0  0
  183.1560  173.2770  136.4220 O   0  0  0  0  0  1  0  0  0  0  0  0
  184.7740  174.9020  136.0200 N   0  0  0  0  0  2  0  0  0  0  0  0
  186.0190  174.6360  136.6730 C   0  0  0  0  0  0  0  0  0  0  0  0
  186.5830  173.0950  136.8090 S   0  0  0  0  0  0  0  0  0  0  0  0
  188.3300  175.7080  136.5460 C   0  0  1  0  0  3  0  0  0  0  0  0
  187.0740  178.3660  137.2090 C   0  0  0  0  0  2  0  0  0  0  0  0
  188.8030  177.0970  138.5680 N   0  0  0  0  0  2  0  0  0  0  0  0
  185.8760  177.3470  135.2900 C   0  0  0  0  0  1  0  0  0  0  0  0
  186.2210  177.1740  136.7600 C   0  0  1  0  0  3  0  0  0  0  0  0
  189.1230  175.0380  137.4940 O   0  0  0  0  0  0  0  0  0  0  0  0
  187.7700  178.0890  138.5030 C   0  0  0  0  0  0  0  0  0  0  0  0
  186.8830  175.8060  137.0490 C   0  0  1  0  0  3  0  0  0  0  0  0
  187.3700  178.6450  139.5570 O   0  0  0  0  0  0  0  0  0  0  0  0
  189.3480  176.4240  137.3850 C   0  0  1  0  0  3  0  0  0  0  0  0
  182.9560  176.9720  140.5010 N   0  0  0  0  0  2  0  0  0  0  0  0
  183.8780  178.7950  139.1810 C   0  0  0  0  0  1  0  0  0  0  0  0
  183.8930  178.0830  140.5250 C   0  0  1  0  0  3  0  0  0  0  0  0
  183.5180  179.0470  141.6420 C   0  0  0  0  0  2  0  0  0  0  0  0
  185.6090  178.0520  142.5490 C   0  0  0  0  0  1  0  0  0  0  0  0
  184.6980  179.2630  142.5810 C   0  0  2  0  0  3  0  0  0  0  0  0
  184.2120  179.4800  144.0060 C   0  0  0  0  0  2  0  0  0  0  0  0
  184.7940  178.4410  144.9510 C   0  0  0  0  0  2  0  0  0  0  0  0
  184.7190  178.9180  146.3250 N   0  0  0  0  0  2  0  0  0  0  0  0
  186.0410  178.7480  146.9070 C   0  0  0  0  0  2  0  0  0  0  0  0
  188.9680  177.8220  143.7970 C   0  0  2  0  0  3  0  0  0  0  0  0
  186.9620  178.3060  145.8720 N   0  0  0  0  0  2  0  0  0  0  0  0
  191.4870  177.7610  143.7570 C   0  0  0  0  0  2  0  0  0  0  0  0
  190.2250  176.3580  145.3760 C   0  0  0  0  0  2  0  0  0  0  0  0
  189.0620  177.2200  145.1370 N   0  0  0  0  0  0  0  0  0  0  0  0
  188.1310  177.5420  146.1750 C   0  0  0  0  0  0  0  0  0  0  0  0
  188.9430  176.7770  142.8230 O   0  0  0  0  0  0  0  0  0  0  0  0
  188.3320  177.1330  147.3540 O   0  0  0  0  0  0  0  0  0  0  0  0
  191.0390  176.3260  144.0790 C   0  0  1  0  0  0  0  0  0  0  0  0
  190.2440  178.6640  143.5770 C   0  0  0  0  0  2  0  0  0  0  0  0
  190.0690  175.8950  142.9600 C   0  0  0  0  0  2  0  0  0  0  0  0
  192.1260  175.4590  144.1790 O   0  0  0  0  0  1  0  0  0  0  0  0
  1  7  1  0  0  0  0
  2  1  1  0  0  0  0
  2 29  1  1  0  0  0
  3  4  2  0  0  0  0
  3  5  1  0  0  0  0
  4  2  1  0  0  0  0
  5  1  2  0  0  0  0
  6  7  1  0  0  0  0
  6 12  1  0  0  0  0
  7  8  2  0  0  0  0
  8 11  1  0  0  0  0
  8  9  1  0  0  0  0
 10 12  1  0  0  0  0
 12 11  2  0  0  0  0
 13  4  1  0  0  0  0
 14 15  1  1  0  0  0
 14 13  1  0  0  0  0
 16 14  1  0  0  0  0
 16 17  1  0  0  0  0
 17 18  2  0  0  0  0
 19 26  1  0  0  0  0
 19 28  1  0  0  0  0
 19 24  1  1  0  0  0
 20 25  1  0  0  0  0
 23 22  1  6  0  0  0
 23 26  1  0  0  0  0
 23 20  1  0  0  0  0
 25 21  1  0  0  0  0
 25 27  2  0  0  0  0
 26 17  1  6  0  0  0
 28 24  1  1  0  0  0
 28 21  1  0  0  0  0
 29 31  1  0  0  0  0
 31 30  1  6  0  0  0
 31 32  1  0  0  0  0
 32 34  1  0  0  0  0
 34 33  1  1  0  0  0
 34 35  1  0  0  0  0
 35 36  1  0  0  0  0
 36 37  1  0  0  0  0
 37 38  1  0  0  0  0
 39 48  1  6  0  0  0
 39 43  1  0  0  0  0
 40 44  1  0  0  0  0
 40 38  1  0  0  0  0
 41 47  1  0  0  0  0
 43 42  1  0  0  0  0
 43 44  1  0  0  0  0
 44 46  2  0  0  0  0
 45 49  1  0  0  0  0
 45 39  1  0  0  0  0
 47 50  1  1  0  0  0
 47 42  1  0  0  0  0
 48 41  1  0  0  0  0
 49 47  1  0  0  0  0
M  END
>  <MODEL>
2

>  <REMARK>
 VINA RESULT:      -7.3      2.327      6.429
  Name = 
  15 active torsions:
  status: ('A' for Active; 'I' for Inactive)
    1  A    between atoms: C_1  and  C_24
    2  A    between atoms: C_1  and  C_30
    3  A    between atoms: C_2  and  N_12
    4  A    between atoms: C_2  and  N_39
    5  A    between atoms: C_5  and  N_13
    6  A    between atoms: C_5  and  C_41
    7  A    between atoms: C_8  and  C_9
    8  A    between atoms: C_10  and  N_31
    9  A    between atoms: N_13  and  C_36
   10  A    between atoms: C_18  and  C_36
   11  A    between atoms: C_18  and  C_38
   12  A    between atoms: C_24  and  C_33
   13  A    between atoms: C_30  and  N_39
   14  A    between atoms: N_31  and  C_44
   15  A    between atoms: C_33  and  C_44
                            x       y       z     vdW  Elec       q    Type
                         _______ _______ _______ _____ _____    ______ ____

>  <TORSDO>
F 15

$$$$
=
 OpenBabel11032421143D

 50 55  0  0  1  0  0  0  0  0999 V2000
  185.7360  178.3060  144.0340 C   0  0  0  0  0  0  0  0  0  0  0  0
  186.2820  178.7150  142.7050 C   0  0  2  0  0  3  0  0  0  0  0  0
  183.9540  178.6170  142.6790 C   0  0  0  0  0  3  0  0  0  0  0  0
  185.0190  178.8500  141.9220 C   0  0  0  0  0  0  0  0  0  0  0  0
  184.4090  178.2540  144.0110 C   0  0  0  0  0  3  0  0  0  0  0  0
  188.0780  177.3320  145.2240 S   0  0  0  0  0  0  0  0  0  0  0  0
  186.5590  178.0630  145.2350 C   0  0  0  0  0  0  0  0  0  0  0  0
  186.2530  178.3870  146.5620 C   0  0  0  0  0  0  0  0  0  0  0  0
  185.0390  179.0180  146.9570 N   0  0  0  0  0  1  0  0  0  0  0  0
  189.4070  177.0230  147.6060 N   0  0  0  0  0  1  0  0  0  0  0  0
  187.2000  178.0490  147.4790 N   0  0  0  0  0  0  0  0  0  0  0  0
  188.2620  177.4630  146.8890 C   0  0  0  0  0  0  0  0  0  0  0  0
  184.9750  179.3770  140.5170 C   0  0  0  0  0  2  0  0  0  0  0  0
  184.9570  178.2770  139.4640 C   0  0  2  0  0  3  0  0  0  0  0  0
  185.2020  178.8200  138.2000 O   0  0  0  0  0  1  0  0  0  0  0  0
  183.6530  177.6310  139.4690 N   0  0  0  0  0  2  0  0  0  0  0  0
  182.5080  178.1490  138.7860 C   0  0  0  0  0  0  0  0  0  0  0  0
  182.3000  177.8820  137.1740 S   0  0  0  0  0  0  0  0  0  0  0  0
  180.3010  179.4260  138.7860 C   0  0  1  0  0  3  0  0  0  0  0  0
  179.8160  178.4800  141.6060 C   0  0  0  0  0  2  0  0  0  0  0  0
  180.0860  180.8750  140.8090 N   0  0  0  0  0  2  0  0  0  0  0  0
  180.3250  176.5290  140.1620 C   0  0  0  0  0  1  0  0  0  0  0  0
  180.8840  177.8270  140.7220 C   0  0  1  0  0  3  0  0  0  0  0  0
  180.6270  180.7700  138.5310 O   0  0  0  0  0  0  0  0  0  0  0  0
  180.1270  179.9180  141.8740 C   0  0  0  0  0  0  0  0  0  0  0  0
  181.4130  178.7640  139.6100 C   0  0  1  0  0  3  0  0  0  0  0  0
  180.5380  180.2640  143.0120 O   0  0  0  0  0  0  0  0  0  0  0  0
  179.5930  180.5630  139.4650 C   0  0  1  0  0  3  0  0  0  0  0  0
  187.1040  177.6460  142.1520 N   0  0  0  0  0  2  0  0  0  0  0  0
  189.4600  178.2370  142.2820 C   0  0  0  0  0  1  0  0  0  0  0  0
  188.1990  178.2750  141.4320 C   0  0  1  0  0  3  0  0  0  0  0  0
  188.4260  177.5550  140.1100 C   0  0  0  0  0  2  0  0  0  0  0  0
  188.9320  178.7310  137.9780 C   0  0  0  0  0  1  0  0  0  0  0  0
  189.5080  178.2540  139.2980 C   0  0  2  0  0  3  0  0  0  0  0  0
  190.6640  177.3050  139.0190 C   0  0  0  0  0  2  0  0  0  0  0  0
  190.1720  175.9940  138.4280 C   0  0  0  0  0  2  0  0  0  0  0  0
  190.8090  175.7560  137.1410 N   0  0  0  0  0  2  0  0  0  0  0  0
  191.1440  174.3410  137.0870 C   0  0  0  0  0  2  0  0  0  0  0  0
  195.1810  173.3720  138.4510 C   0  0  2  0  0  3  0  0  0  0  0  0
  192.4970  174.1540  137.5870 N   0  0  0  0  0  2  0  0  0  0  0  0
  197.2980  172.7140  137.2540 C   0  0  0  0  0  2  0  0  0  0  0  0
  196.1590  174.8530  136.6990 C   0  0  0  0  0  2  0  0  0  0  0  0
  194.9550  174.3190  137.3470 N   0  0  0  0  0  0  0  0  0  0  0  0
  193.6400  174.6180  136.8680 C   0  0  0  0  0  0  0  0  0  0  0  0
  195.9680  174.0140  139.4560 O   0  0  0  0  0  0  0  0  0  0  0  0
  193.4920  175.3090  135.8190 O   0  0  0  0  0  0  0  0  0  0  0  0
  197.3670  174.2410  137.4150 C   0  0  1  0  0  0  0  0  0  0  0  0
  195.9880  172.1840  137.8840 C   0  0  0  0  0  2  0  0  0  0  0  0
  197.1900  174.5430  138.9170 C   0  0  0  0  0  2  0  0  0  0  0  0
  198.5660  174.7560  136.9250 O   0  0  0  0  0  1  0  0  0  0  0  0
  1  7  1  0  0  0  0
  2 29  1  6  0  0  0
  2  1  1  0  0  0  0
  3  5  1  0  0  0  0
  4  3  2  0  0  0  0
  4  2  1  0  0  0  0
  5  1  2  0  0  0  0
  6  7  1  0  0  0  0
  6 12  1  0  0  0  0
  7  8  2  0  0  0  0
  8  9  1  0  0  0  0
  8 11  1  0  0  0  0
 12 11  2  0  0  0  0
 12 10  1  0  0  0  0
 13  4  1  0  0  0  0
 14 15  1  6  0  0  0
 14 16  1  0  0  0  0
 14 13  1  0  0  0  0
 17 16  1  0  0  0  0
 18 17  2  0  0  0  0
 19 24  1  6  0  0  0
 19 28  1  0  0  0  0
 19 26  1  0  0  0  0
 20 25  1  0  0  0  0
 21 25  1  0  0  0  0
 23 22  1  6  0  0  0
 23 20  1  0  0  0  0
 25 27  2  0  0  0  0
 26 17  1  6  0  0  0
 26 23  1  0  0  0  0
 28 24  1  6  0  0  0
 28 21  1  0  0  0  0
 31 29  1  0  0  0  0
 31 30  1  1  0  0  0
 32 31  1  0  0  0  0
 34 33  1  6  0  0  0
 34 32  1  0  0  0  0
 35 34  1  0  0  0  0
 36 35  1  0  0  0  0
 37 36  1  0  0  0  0
 38 37  1  0  0  0  0
 38 40  1  0  0  0  0
 39 48  1  6  0  0  0
 39 45  1  0  0  0  0
 41 47  1  0  0  0  0
 41 48  1  0  0  0  0
 42 43  1  0  0  0  0
 42 47  1  0  0  0  0
 43 39  1  0  0  0  0
 44 43  1  0  0  0  0
 44 40  1  0  0  0  0
 46 44  2  0  0  0  0
 47 50  1  6  0  0  0
 47 49  1  0  0  0  0
 49 45  1  0  0  0  0
M  END
>  <MODEL>
3

>  <REMARK>
 VINA RESULT:      -7.0      3.697      7.281
  Name = 
  15 active torsions:
  status: ('A' for Active; 'I' for Inactive)
    1  A    between atoms: C_1  and  C_24
    2  A    between atoms: C_1  and  C_30
    3  A    between atoms: C_2  and  N_12
    4  A    between atoms: C_2  and  N_39
    5  A    between atoms: C_5  and  N_13
    6  A    between atoms: C_5  and  C_41
    7  A    between atoms: C_8  and  C_9
    8  A    between atoms: C_10  and  N_31
    9  A    between atoms: N_13  and  C_36
   10  A    between atoms: C_18  and  C_36
   11  A    between atoms: C_18  and  C_38
   12  A    between atoms: C_24  and  C_33
   13  A    between atoms: C_30  and  N_39
   14  A    between atoms: N_31  and  C_44
   15  A    between atoms: C_33  and  C_44
                            x       y       z     vdW  Elec       q    Type
                         _______ _______ _______ _____ _____    ______ ____

>  <TORSDO>
F 15

$$$$
=
 OpenBabel11032421143D

 50 55  0  0  1  0  0  0  0  0999 V2000
  187.2280  177.9030  145.4910 C   0  0  0  0  0  0  0  0  0  0  0  0
  187.0860  178.4180  144.0960 C   0  0  2  0  0  3  0  0  0  0  0  0
  185.0400  178.3880  145.2100 C   0  0  0  0  0  3  0  0  0  0  0  0
  185.6140  178.6610  144.0450 C   0  0  0  0  0  0  0  0  0  0  0  0
  186.0580  177.8910  146.1190 C   0  0  0  0  0  3  0  0  0  0  0  0
  189.8020  176.8120  145.2950 S   0  0  0  0  0  0  0  0  0  0  0  0
  188.5120  177.5260  146.1140 C   0  0  0  0  0  0  0  0  0  0  0  0
  188.8960  177.6910  147.4500 C   0  0  0  0  0  0  0  0  0  0  0  0
  188.0530  178.2630  148.4460 N   0  0  0  0  0  1  0  0  0  0  0  0
  192.0910  176.2350  146.6960 N   0  0  0  0  0  1  0  0  0  0  0  0
  190.1470  177.2540  147.7560 N   0  0  0  0  0  0  0  0  0  0  0  0
  190.7660  176.7480  146.6700 C   0  0  0  0  0  0  0  0  0  0  0  0
  184.9300  179.3170  142.8820 C   0  0  0  0  0  2  0  0  0  0  0  0
  185.0370  178.5160  141.5920 C   0  0  2  0  0  3  0  0  0  0  0  0
  185.3710  179.3600  140.5290 O   0  0  0  0  0  1  0  0  0  0  0  0
  183.7590  177.8770  141.3170 N   0  0  0  0  0  2  0  0  0  0  0  0
  183.0630  177.9950  140.0730 C   0  0  0  0  0  0  0  0  0  0  0  0
  183.5150  177.0950  138.7700 S   0  0  0  0  0  0  0  0  0  0  0  0
  181.3530  179.2290  138.6390 C   0  0  1  0  0  3  0  0  0  0  0  0
  179.3940  179.0550  140.9220 C   0  0  0  0  0  2  0  0  0  0  0  0
  180.3510  181.1580  139.8720 N   0  0  0  0  0  2  0  0  0  0  0  0
  180.2870  176.7930  140.4320 C   0  0  0  0  0  1  0  0  0  0  0  0
  180.6600  178.1920  140.8950 C   0  0  1  0  0  3  0  0  0  0  0  0
  181.9430  180.4590  138.2990 O   0  0  0  0  0  0  0  0  0  0  0  0
  179.7210  180.5120  140.9850 C   0  0  0  0  0  0  0  0  0  0  0  0
  181.7980  178.8050  140.0450 C   0  0  1  0  0  3  0  0  0  0  0  0
  179.5480  181.1440  142.0590 O   0  0  0  0  0  0  0  0  0  0  0  0
  180.5630  180.5040  138.5770 C   0  0  1  0  0  3  0  0  0  0  0  0
  187.4590  177.3840  143.1400 N   0  0  0  0  0  2  0  0  0  0  0  0
  189.2400  179.0210  142.8930 C   0  0  0  0  0  1  0  0  0  0  0  0
  188.3750  177.9880  142.1870 C   0  0  1  0  0  3  0  0  0  0  0  0
  189.2430  176.9100  141.5530 C   0  0  0  0  0  2  0  0  0  0  0  0
  190.7880  177.4100  139.6700 C   0  0  0  0  0  1  0  0  0  0  0  0
  189.3480  177.1230  140.0490 C   0  0  2  0  0  3  0  0  0  0  0  0
  188.4790  178.2930  139.6130 C   0  0  0  0  0  2  0  0  0  0  0  0
  187.6960  177.9600  138.3540 C   0  0  0  0  0  2  0  0  0  0  0  0
  188.3350  178.5640  137.1940 N   0  0  0  0  0  2  0  0  0  0  0  0
  188.3200  177.5680  136.1340 C   0  0  0  0  0  2  0  0  0  0  0  0
  192.4330  176.0930  136.0640 C   0  0  2  0  0  3  0  0  0  0  0  0
  189.6520  177.0010  135.9950 N   0  0  0  0  0  2  0  0  0  0  0  0
  193.7840  174.6670  137.6420 C   0  0  0  0  0  2  0  0  0  0  0  0
  191.6540  173.8090  136.6900 C   0  0  0  0  0  2  0  0  0  0  0  0
  191.3050  175.1940  136.3590 N   0  0  0  0  0  0  0  0  0  0  0  0
  189.9570  175.6720  136.4190 C   0  0  0  0  0  0  0  0  0  0  0  0
  193.1760  175.5570  134.9680 O   0  0  0  0  0  0  0  0  0  0  0  0
  189.0340  174.9100  136.8290 O   0  0  0  0  0  0  0  0  0  0  0  0
  193.1800  173.6960  136.6150 C   0  0  1  0  0  0  0  0  0  0  0  0
  193.3460  176.1130  137.3100 C   0  0  0  0  0  2  0  0  0  0  0  0
  193.5910  174.2050  135.2180 C   0  0  0  0  0  2  0  0  0  0  0  0
  193.6070  172.3870  136.8320 O   0  0  0  0  0  1  0  0  0  0  0  0
  1  7  1  0  0  0  0
  1  5  2  0  0  0  0
  2 29  1  6  0  0  0
  2  1  1  0  0  0  0
  3  5  1  0  0  0  0
  4  2  1  0  0  0  0
  4  3  2  0  0  0  0
  6  7  1  0  0  0  0
  6 12  1  0  0  0  0
  7  8  2  0  0  0  0
  8 11  1  0  0  0  0
  8  9  1  0  0  0  0
 12 10  1  0  0  0  0
 12 11  2  0  0  0  0
 13  4  1  0  0  0  0
 14 15  1  6  0  0  0
 14 13  1  0  0  0  0
 16 14  1  0  0  0  0
 17 16  1  0  0  0  0
 18 17  2  0  0  0  0
 19 24  1  6  0  0  0
 19 26  1  0  0  0  0
 20 25  1  0  0  0  0
 21 25  1  0  0  0  0
 23 22  1  6  0  0  0
 23 20  1  0  0  0  0
 25 27  2  0  0  0  0
 26 17  1  6  0  0  0
 26 23  1  0  0  0  0
 28 24  1  6  0  0  0
 28 19  1  0  0  0  0
 28 21  1  0  0  0  0
 31 30  1  1  0  0  0
 31 29  1  0  0  0  0
 32 31  1  0  0  0  0
 34 33  1  1  0  0  0
 34 32  1  0  0  0  0
 35 34  1  0  0  0  0
 36 35  1  0  0  0  0
 37 36  1  0  0  0  0
 38 37  1  0  0  0  0
 39 43  1  0  0  0  0
 39 48  1  1  0  0  0
 40 38  1  0  0  0  0
 40 44  1  0  0  0  0
 43 44  1  0  0  0  0
 43 42  1  0  0  0  0
 44 46  2  0  0  0  0
 45 49  1  0  0  0  0
 45 39  1  0  0  0  0
 47 42  1  0  0  0  0
 47 50  1  1  0  0  0
 47 41  1  0  0  0  0
 48 41  1  0  0  0  0
 49 47  1  0  0  0  0
M  END
>  <MODEL>
4

>  <REMARK>
 VINA RESULT:      -6.8      3.105      7.101
  Name = 
  15 active torsions:
  status: ('A' for Active; 'I' for Inactive)
    1  A    between atoms: C_1  and  C_24
    2  A    between atoms: C_1  and  C_30
    3  A    between atoms: C_2  and  N_12
    4  A    between atoms: C_2  and  N_39
    5  A    between atoms: C_5  and  N_13
    6  A    between atoms: C_5  and  C_41
    7  A    between atoms: C_8  and  C_9
    8  A    between atoms: C_10  and  N_31
    9  A    between atoms: N_13  and  C_36
   10  A    between atoms: C_18  and  C_36
   11  A    between atoms: C_18  and  C_38
   12  A    between atoms: C_24  and  C_33
   13  A    between atoms: C_30  and  N_39
   14  A    between atoms: N_31  and  C_44
   15  A    between atoms: C_33  and  C_44
                            x       y       z     vdW  Elec       q    Type
                         _______ _______ _______ _____ _____    ______ ____

>  <TORSDO>
F 15

$$$$
=
 OpenBabel11032421143D

 50 55  0  0  1  0  0  0  0  0999 V2000
  187.2850  177.8970  145.6990 C   0  0  0  0  0  0  0  0  0  0  0  0
  187.1550  178.3740  144.2900 C   0  0  2  0  0  3  0  0  0  0  0  0
  185.1030  178.3990  145.3940 C   0  0  0  0  0  3  0  0  0  0  0  0
  185.6860  178.6320  144.2240 C   0  0  0  0  0  0  0  0  0  0  0  0
  186.1120  177.9160  146.3210 C   0  0  0  0  0  3  0  0  0  0  0  0
  189.8450  176.7680  145.5470 S   0  0  0  0  0  0  0  0  0  0  0  0
  188.5610  177.5230  146.3380 C   0  0  0  0  0  0  0  0  0  0  0  0
  188.9420  177.7250  147.6710 C   0  0  0  0  0  0  0  0  0  0  0  0
  188.1030  178.3380  148.6440 N   0  0  0  0  0  1  0  0  0  0  0  0
  192.1210  176.2060  146.9740 N   0  0  0  0  0  1  0  0  0  0  0  0
  190.1870  177.2810  147.9950 N   0  0  0  0  0  0  0  0  0  0  0  0
  190.8030  176.7350  146.9270 C   0  0  0  0  0  0  0  0  0  0  0  0
  185.0140  179.2630  143.0400 C   0  0  0  0  0  2  0  0  0  0  0  0
  184.2250  178.2700  142.1970 C   0  0  2  0  0  3  0  0  0  0  0  0
  185.0170  177.7970  141.1470 O   0  0  0  0  0  1  0  0  0  0  0  0
  183.0470  178.9300  141.6560 N   0  0  0  0  0  2  0  0  0  0  0  0
  181.9370  178.2300  141.0860 C   0  0  0  0  0  0  0  0  0  0  0  0
  180.4270  178.3880  141.7260 S   0  0  0  0  0  0  0  0  0  0  0  0
  180.9600  176.6480  139.3410 C   0  0  1  0  0  3  0  0  0  0  0  0
  182.9760  177.6830  137.3540 C   0  0  0  0  0  2  0  0  0  0  0  0
  182.7480  175.3080  138.2220 N   0  0  0  0  0  2  0  0  0  0  0  0
  181.7660  179.5960  138.3680 C   0  0  0  0  0  1  0  0  0  0  0  0
  182.6950  178.4300  138.6620 C   0  0  1  0  0  3  0  0  0  0  0  0
  181.0850  175.3530  139.8740 O   0  0  0  0  0  0  0  0  0  0  0  0
  183.5480  176.3250  137.6060 C   0  0  0  0  0  0  0  0  0  0  0  0
  182.1480  177.5130  139.7820 C   0  0  1  0  0  3  0  0  0  0  0  0
  184.7680  176.1120  137.3830 O   0  0  0  0  0  0  0  0  0  0  0  0
  181.3160  175.4640  138.4890 C   0  0  1  0  0  3  0  0  0  0  0  0
  187.5190  177.3090  143.3650 N   0  0  0  0  0  2  0  0  0  0  0  0
  189.3630  178.8480  142.9840 C   0  0  0  0  0  1  0  0  0  0  0  0
  188.3640  177.8990  142.3400 C   0  0  1  0  0  3  0  0  0  0  0  0
  189.0890  176.8010  141.5750 C   0  0  0  0  0  2  0  0  0  0  0  0
  190.6020  177.4660  139.7170 C   0  0  0  0  0  1  0  0  0  0  0  0
  189.1690  177.1420  140.0940 C   0  0  2  0  0  3  0  0  0  0  0  0
  188.2900  178.3420  139.7740 C   0  0  0  0  0  2  0  0  0  0  0  0
  187.4350  178.0880  138.5430 C   0  0  0  0  0  2  0  0  0  0  0  0
  188.0080  178.7640  137.3890 N   0  0  0  0  0  2  0  0  0  0  0  0
  187.9320  177.8360  136.2710 C   0  0  0  0  0  2  0  0  0  0  0  0
  191.9310  176.0800  136.1240 C   0  0  2  0  0  3  0  0  0  0  0  0
  189.2280  177.2000  136.0930 N   0  0  0  0  0  2  0  0  0  0  0  0
  193.0880  174.2980  137.4810 C   0  0  0  0  0  2  0  0  0  0  0  0
  190.9620  173.7880  136.2970 C   0  0  0  0  0  2  0  0  0  0  0  0
  190.7290  175.2340  136.2020 N   0  0  0  0  0  0  0  0  0  0  0  0
  189.4160  175.7970  136.2860 C   0  0  0  0  0  0  0  0  0  0  0  0
  192.6980  175.6870  134.9850 O   0  0  0  0  0  0  0  0  0  0  0  0
  188.4210  175.0500  136.5110 O   0  0  0  0  0  0  0  0  0  0  0  0
  192.4780  173.5720  136.2710 C   0  0  1  0  0  0  0  0  0  0  0  0
  192.7690  175.8100  137.3930 C   0  0  0  0  0  2  0  0  0  0  0  0
  193.0040  174.2840  135.0080 C   0  0  0  0  0  2  0  0  0  0  0  0
  192.8010  172.2160  136.2700 O   0  0  0  0  0  1  0  0  0  0  0  0
  1  5  2  0  0  0  0
  1  7  1  0  0  0  0
  2 29  1  6  0  0  0
  2  1  1  0  0  0  0
  3  5  1  0  0  0  0
  4  2  1  0  0  0  0
  4  3  2  0  0  0  0
  6  7  1  0  0  0  0
  6 12  1  0  0  0  0
  7  8  2  0  0  0  0
  8 11  1  0  0  0  0
  8  9  1  0  0  0  0
 12 10  1  0  0  0  0
 12 11  2  0  0  0  0
 13  4  1  0  0  0  0
 14 15  1  6  0  0  0
 14 13  1  0  0  0  0
 16 14  1  0  0  0  0
 17 16  1  0  0  0  0
 17 18  2  0  0  0  0
 19 26  1  0  0  0  0
 19 24  1  1  0  0  0
 20 25  1  0  0  0  0
 20 23  1  0  0  0  0
 23 22  1  6  0  0  0
 23 26  1  0  0  0  0
 25 21  1  0  0  0  0
 26 17  1  1  0  0  0
 27 25  2  0  0  0  0
 28 21  1  1  0  0  0
 28 19  1  0  0  0  0
 28 24  1  0  0  0  0
 31 30  1  1  0  0  0
 31 29  1  0  0  0  0
 32 31  1  0  0  0  0
 34 33  1  1  0  0  0
 34 32  1  0  0  0  0
 35 34  1  0  0  0  0
 36 35  1  0  0  0  0
 37 36  1  0  0  0  0
 38 37  1  0  0  0  0
 39 43  1  0  0  0  0
 39 48  1  1  0  0  0
 40 38  1  0  0  0  0
 40 44  1  0  0  0  0
 43 44  1  0  0  0  0
 43 42  1  0  0  0  0
 44 46  2  0  0  0  0
 45 49  1  0  0  0  0
 45 39  1  0  0  0  0
 47 50  1  6  0  0  0
 47 42  1  0  0  0  0
 47 41  1  0  0  0  0
 48 41  1  0  0  0  0
 49 47  1  0  0  0  0
M  END
>  <MODEL>
5

>  <REMARK>
 VINA RESULT:      -6.7      3.018      7.352
  Name = 
  15 active torsions:
  status: ('A' for Active; 'I' for Inactive)
    1  A    between atoms: C_1  and  C_24
    2  A    between atoms: C_1  and  C_30
    3  A    between atoms: C_2  and  N_12
    4  A    between atoms: C_2  and  N_39
    5  A    between atoms: C_5  and  N_13
    6  A    between atoms: C_5  and  C_41
    7  A    between atoms: C_8  and  C_9
    8  A    between atoms: C_10  and  N_31
    9  A    between atoms: N_13  and  C_36
   10  A    between atoms: C_18  and  C_36
   11  A    between atoms: C_18  and  C_38
   12  A    between atoms: C_24  and  C_33
   13  A    between atoms: C_30  and  N_39
   14  A    between atoms: N_31  and  C_44
   15  A    between atoms: C_33  and  C_44
                            x       y       z     vdW  Elec       q    Type
                         _______ _______ _______ _____ _____    ______ ____

>  <TORSDO>
F 15

$$$$
=
 OpenBabel11032421143D

 50 55  0  0  1  0  0  0  0  0999 V2000
  187.9560  177.8870  145.6650 C   0  0  0  0  0  0  0  0  0  0  0  0
  187.4400  178.1800  144.2940 C   0  0  2  0  0  3  0  0  0  0  0  0
  185.7970  178.5070  145.9130 C   0  0  0  0  0  3  0  0  0  0  0  0
  186.0250  178.5370  144.6050 C   0  0  0  0  0  0  0  0  0  0  0  0
  187.0140  178.0790  146.5810 C   0  0  0  0  0  3  0  0  0  0  0  0
  189.8010  176.3510  147.1090 S   0  0  0  0  0  0  0  0  0  0  0  0
  189.3490  177.5070  145.9680 C   0  0  0  0  0  0  0  0  0  0  0  0
  190.5190  178.0080  145.3840 C   0  0  0  0  0  0  0  0  0  0  0  0
  190.5260  179.0110  144.3730 N   0  0  0  0  0  1  0  0  0  0  0  0
  192.4720  175.8190  147.4560 N   0  0  0  0  0  1  0  0  0  0  0  0
  191.6800  177.4760  145.8540 N   0  0  0  0  0  0  0  0  0  0  0  0
  191.4410  176.5490  146.8040 C   0  0  0  0  0  0  0  0  0  0  0  0
  185.0610  179.0520  143.5770 C   0  0  0  0  0  2  0  0  0  0  0  0
  185.2270  178.3920  142.2150 C   0  0  2  0  0  3  0  0  0  0  0  0
  185.7360  179.3120  141.2950 O   0  0  0  0  0  1  0  0  0  0  0  0
  183.9330  177.9120  141.7540 N   0  0  0  0  0  2  0  0  0  0  0  0
  182.7100  178.6330  141.9330 C   0  0  0  0  0  0  0  0  0  0  0  0
  182.1620  178.9930  143.4440 S   0  0  0  0  0  0  0  0  0  0  0  0
  182.8090  178.9650  139.4060 C   0  0  1  0  0  3  0  0  0  0  0  0
  179.8550  179.5610  139.4240 C   0  0  0  0  0  2  0  0  0  0  0  0
  181.7350  181.1160  138.7270 N   0  0  0  0  0  2  0  0  0  0  0  0
  180.2650  177.4090  140.5880 C   0  0  0  0  0  1  0  0  0  0  0  0
  180.5390  178.9030  140.6270 C   0  0  1  0  0  3  0  0  0  0  0  0
  183.7420  179.9930  139.1840 O   0  0  0  0  0  0  0  0  0  0  0  0
  180.3850  180.9350  139.1710 C   0  0  0  0  0  0  0  0  0  0  0  0
  182.0510  179.2190  140.7160 C   0  0  1  0  0  3  0  0  0  0  0  0
  179.6810  181.9370  139.4590 O   0  0  0  0  0  0  0  0  0  0  0  0
  182.6120  180.0060  138.3430 C   0  0  1  0  0  3  0  0  0  0  0  0
  187.4860  176.9750  143.4750 N   0  0  0  0  0  2  0  0  0  0  0  0
  189.5470  175.8160  142.9040 C   0  0  0  0  0  1  0  0  0  0  0  0
  188.6900  177.0500  142.6650 C   0  0  1  0  0  3  0  0  0  0  0  0
  188.3140  177.1610  141.1940 C   0  0  0  0  0  2  0  0  0  0  0  0
  188.8040  178.6360  139.2520 C   0  0  0  0  0  1  0  0  0  0  0  0
  189.4110  177.8710  140.4120 C   0  0  2  0  0  3  0  0  0  0  0  0
  190.4170  176.8670  139.8700 C   0  0  0  0  0  2  0  0  0  0  0  0
  189.9870  176.3310  138.5150 C   0  0  0  0  0  2  0  0  0  0  0  0
  191.0880  176.4240  137.5680 N   0  0  0  0  0  2  0  0  0  0  0  0
  191.4000  175.0680  137.1420 C   0  0  0  0  0  2  0  0  0  0  0  0
  195.2980  173.5950  138.4580 C   0  0  2  0  0  3  0  0  0  0  0  0
  192.7230  174.7110  137.6270 N   0  0  0  0  0  2  0  0  0  0  0  0
  197.3090  172.6970  137.2330 C   0  0  0  0  0  2  0  0  0  0  0  0
  196.4360  174.9660  136.7130 C   0  0  0  0  0  2  0  0  0  0  0  0
  195.1820  174.5750  137.3660 N   0  0  0  0  0  0  0  0  0  0  0  0
  193.9100  175.0400  136.9030 C   0  0  0  0  0  0  0  0  0  0  0  0
  196.1650  174.1230  139.4620 O   0  0  0  0  0  0  0  0  0  0  0  0
  193.8390  175.7570  135.8630 O   0  0  0  0  0  0  0  0  0  0  0  0
  197.5660  174.2020  137.4110 C   0  0  1  0  0  0  0  0  0  0  0  0
  195.9490  172.3230  137.8700 C   0  0  0  0  0  2  0  0  0  0  0  0
  197.4390  174.5050  138.9180 C   0  0  0  0  0  2  0  0  0  0  0  0
  198.8150  174.5720  136.9150 O   0  0  0  0  0  1  0  0  0  0  0  0
  1  7  1  0  0  0  0
  1  5  2  0  0  0  0
  2 29  1  6  0  0  0
  2  4  1  0  0  0  0
  2  1  1  0  0  0  0
  3  5  1  0  0  0  0
  4  3  2  0  0  0  0
  7  6  1  0  0  0  0
  8 11  1  0  0  0  0
  8  7  2  0  0  0  0
  9  8  1  0  0  0  0
 11 12  2  0  0  0  0
 12  6  1  0  0  0  0
 12 10  1  0  0  0  0
 13  4  1  0  0  0  0
 14 15  1  6  0  0  0
 14 13  1  0  0  0  0
 16 17  1  0  0  0  0
 16 14  1  0  0  0  0
 17 18  2  0  0  0  0
 19 24  1  1  0  0  0
 19 26  1  0  0  0  0
 20 23  1  0  0  0  0
 21 25  1  0  0  0  0
 23 22  1  6  0  0  0
 23 26  1  0  0  0  0
 25 20  1  0  0  0  0
 25 27  2  0  0  0  0
 26 17  1  1  0  0  0
 28 21  1  1  0  0  0
 28 24  1  0  0  0  0
 28 19  1  0  0  0  0
 31 30  1  6  0  0  0
 31 29  1  0  0  0  0
 32 31  1  0  0  0  0
 34 33  1  6  0  0  0
 34 32  1  0  0  0  0
 35 34  1  0  0  0  0
 36 35  1  0  0  0  0
 37 36  1  0  0  0  0
 38 37  1  0  0  0  0
 38 40  1  0  0  0  0
 39 48  1  6  0  0  0
 39 45  1  0  0  0  0
 41 47  1  0  0  0  0
 41 48  1  0  0  0  0
 42 43  1  0  0  0  0
 42 47  1  0  0  0  0
 43 39  1  0  0  0  0
 44 43  1  0  0  0  0
 44 40  1  0  0  0  0
 46 44  2  0  0  0  0
 47 50  1  6  0  0  0
 47 49  1  0  0  0  0
 49 45  1  0  0  0  0
M  END
>  <MODEL>
6

>  <REMARK>
 VINA RESULT:      -6.6      3.873      7.510
  Name = 
  15 active torsions:
  status: ('A' for Active; 'I' for Inactive)
    1  A    between atoms: C_1  and  C_24
    2  A    between atoms: C_1  and  C_30
    3  A    between atoms: C_2  and  N_12
    4  A    between atoms: C_2  and  N_39
    5  A    between atoms: C_5  and  N_13
    6  A    between atoms: C_5  and  C_41
    7  A    between atoms: C_8  and  C_9
    8  A    between atoms: C_10  and  N_31
    9  A    between atoms: N_13  and  C_36
   10  A    between atoms: C_18  and  C_36
   11  A    between atoms: C_18  and  C_38
   12  A    between atoms: C_24  and  C_33
   13  A    between atoms: C_30  and  N_39
   14  A    between atoms: N_31  and  C_44
   15  A    between atoms: C_33  and  C_44
                            x       y       z     vdW  Elec       q    Type
                         _______ _______ _______ _____ _____    ______ ____

>  <TORSDO>
F 15

$$$$
=
 OpenBabel11032421143D

 50 55  0  0  1  0  0  0  0  0999 V2000
  182.0270  178.8710  142.4280 C   0  0  0  0  0  0  0  0  0  0  0  0
  183.4950  178.6180  142.3170 C   0  0  2  0  0  3  0  0  0  0  0  0
  182.8790  179.1400  144.5030 C   0  0  0  0  0  3  0  0  0  0  0  0
  183.9190  178.8590  143.7280 C   0  0  0  0  0  0  0  0  0  0  0  0
  181.6840  179.1650  143.6760 C   0  0  0  0  0  3  0  0  0  0  0  0
  181.0950  179.6810  139.9120 S   0  0  0  0  0  0  0  0  0  0  0  0
  181.0720  178.7380  141.3100 C   0  0  0  0  0  0  0  0  0  0  0  0
  180.0090  177.8330  141.1960 C   0  0  0  0  0  0  0  0  0  0  0  0
  179.6800  176.8760  142.1970 N   0  0  0  0  0  1  0  0  0  0  0  0
  179.2100  179.2050  137.9740 N   0  0  0  0  0  1  0  0  0  0  0  0
  179.2830  177.9280  140.0490 N   0  0  0  0  0  0  0  0  0  0  0  0
  179.7650  178.8990  139.2460 C   0  0  0  0  0  0  0  0  0  0  0  0
  185.3150  178.6130  144.2200 C   0  0  0  0  0  2  0  0  0  0  0  0
  185.3750  178.2420  145.6950 C   0  0  2  0  0  3  0  0  0  0  0  0
  185.5970  179.3840  146.4690 O   0  0  0  0  0  1  0  0  0  0  0  0
  186.4600  177.2950  145.9080 N   0  0  0  0  0  2  0  0  0  0  0  0
  187.6740  177.6200  146.5910 C   0  0  0  0  0  0  0  0  0  0  0  0
  187.6730  177.9010  148.2150 S   0  0  0  0  0  0  0  0  0  0  0  0
  189.8850  176.3770  146.3260 C   0  0  1  0  0  3  0  0  0  0  0  0
  190.1000  177.4680  143.5250 C   0  0  0  0  0  2  0  0  0  0  0  0
  191.6810  177.8850  145.4670 N   0  0  0  0  0  2  0  0  0  0  0  0
  187.8890  176.3820  143.8160 C   0  0  0  0  0  1  0  0  0  0  0  0
  188.7770  177.5170  144.2970 C   0  0  1  0  0  3  0  0  0  0  0  0
  190.7270  176.8570  147.3450 O   0  0  0  0  0  0  0  0  0  0  0  0
  191.1590  178.2850  144.1930 C   0  0  0  0  0  0  0  0  0  0  0  0
  188.9650  177.5020  145.8330 C   0  0  1  0  0  3  0  0  0  0  0  0
  191.5070  179.3840  143.6920 O   0  0  0  0  0  0  0  0  0  0  0  0
  191.3520  176.6090  146.1070 C   0  0  1  0  0  3  0  0  0  0  0  0
  184.1070  179.6010  141.4330 N   0  0  0  0  0  2  0  0  0  0  0  0
  186.2840  178.6280  140.9520 C   0  0  0  0  0  1  0  0  0  0  0  0
  184.8720  178.8680  140.4380 C   0  0  1  0  0  3  0  0  0  0  0  0
  184.1840  177.5440  140.1340 C   0  0  0  0  0  2  0  0  0  0  0  0
  184.3220  178.6030  137.8880 C   0  0  0  0  0  1  0  0  0  0  0  0
  184.1450  177.2940  138.6330 C   0  0  2  0  0  3  0  0  0  0  0  0
  182.8160  176.6710  138.2300 C   0  0  0  0  0  2  0  0  0  0  0  0
  183.0160  175.5360  137.2390 C   0  0  0  0  0  2  0  0  0  0  0  0
  183.3130  174.3010  137.9490 N   0  0  0  0  0  2  0  0  0  0  0  0
  184.4130  173.6600  137.2450 C   0  0  0  0  0  2  0  0  0  0  0  0
  187.5240  176.7190  136.9920 C   0  0  2  0  0  3  0  0  0  0  0  0
  185.4690  174.6350  137.0260 N   0  0  0  0  0  2  0  0  0  0  0  0
  189.7420  177.0280  138.1490 C   0  0  0  0  0  2  0  0  0  0  0  0
  189.2840  174.9570  136.8520 C   0  0  0  0  0  2  0  0  0  0  0  0
  187.8560  175.2860  136.9310 N   0  0  0  0  0  0  0  0  0  0  0  0
  186.8510  174.2740  137.0480 C   0  0  0  0  0  0  0  0  0  0  0  0
  188.0560  177.3650  135.8350 O   0  0  0  0  0  0  0  0  0  0  0  0
  187.1860  173.0590  137.1510 O   0  0  0  0  0  0  0  0  0  0  0  0
  190.0530  176.2820  136.8410 C   0  0  1  0  0  0  0  0  0  0  0  0
  188.2220  177.3020  138.2410 C   0  0  0  0  0  2  0  0  0  0  0  0
  189.4650  177.1250  135.6920 C   0  0  0  0  0  2  0  0  0  0  0  0
  191.4220  176.0760  136.6810 O   0  0  0  0  0  1  0  0  0  0  0  0
  1  5  2  0  0  0  0
  2 29  1  6  0  0  0
  2  1  1  0  0  0  0
  2  4  1  0  0  0  0
  4 13  1  0  0  0  0
  4  3  2  0  0  0  0
  5  3  1  0  0  0  0
  6  7  1  0  0  0  0
  7  1  1  0  0  0  0
  8  7  2  0  0  0  0
  8  9  1  0  0  0  0
 10 12  1  0  0  0  0
 11  8  1  0  0  0  0
 12  6  1  0  0  0  0
 12 11  2  0  0  0  0
 13 14  1  0  0  0  0
 14 16  1  0  0  0  0
 14 15  1  1  0  0  0
 16 17  1  0  0  0  0
 17 18  2  0  0  0  0
 19 24  1  1  0  0  0
 20 25  1  0  0  0  0
 20 23  1  0  0  0  0
 23 22  1  6  0  0  0
 23 26  1  0  0  0  0
 25 21  1  0  0  0  0
 26 19  1  0  0  0  0
 26 17  1  1  0  0  0
 27 25  2  0  0  0  0
 28 21  1  6  0  0  0
 28 19  1  0  0  0  0
 28 24  1  0  0  0  0
 31 30  1  1  0  0  0
 31 29  1  0  0  0  0
 32 31  1  0  0  0  0
 34 33  1  6  0  0  0
 34 32  1  0  0  0  0
 35 34  1  0  0  0  0
 36 37  1  0  0  0  0
 36 35  1  0  0  0  0
 38 37  1  0  0  0  0
 39 48  1  1  0  0  0
 40 44  1  0  0  0  0
 40 38  1  0  0  0  0
 41 48  1  0  0  0  0
 42 43  1  0  0  0  0
 43 39  1  0  0  0  0
 43 44  1  0  0  0  0
 44 46  2  0  0  0  0
 45 39  1  0  0  0  0
 47 50  1  6  0  0  0
 47 42  1  0  0  0  0
 47 41  1  0  0  0  0
 49 45  1  0  0  0  0
 49 47  1  0  0  0  0
M  END
>  <MODEL>
7

>  <REMARK>
 VINA RESULT:      -6.6      2.982      9.296
  Name = 
  15 active torsions:
  status: ('A' for Active; 'I' for Inactive)
    1  A    between atoms: C_1  and  C_24
    2  A    between atoms: C_1  and  C_30
    3  A    between atoms: C_2  and  N_12
    4  A    between atoms: C_2  and  N_39
    5  A    between atoms: C_5  and  N_13
    6  A    between atoms: C_5  and  C_41
    7  A    between atoms: C_8  and  C_9
    8  A    between atoms: C_10  and  N_31
    9  A    between atoms: N_13  and  C_36
   10  A    between atoms: C_18  and  C_36
   11  A    between atoms: C_18  and  C_38
   12  A    between atoms: C_24  and  C_33
   13  A    between atoms: C_30  and  N_39
   14  A    between atoms: N_31  and  C_44
   15  A    between atoms: C_33  and  C_44
                            x       y       z     vdW  Elec       q    Type
                         _______ _______ _______ _____ _____    ______ ____

>  <TORSDO>
F 15

$$$$
=
 OpenBabel11032421143D

 50 55  0  0  1  0  0  0  0  0999 V2000
  188.1920  177.6080  144.9450 C   0  0  0  0  0  0  0  0  0  0  0  0
  187.9670  177.9420  143.5070 C   0  0  2  0  0  3  0  0  0  0  0  0
  185.9700  177.9390  144.7060 C   0  0  0  0  0  3  0  0  0  0  0  0
  186.4830  178.0990  143.4920 C   0  0  0  0  0  0  0  0  0  0  0  0
  187.0490  177.6110  145.6220 C   0  0  0  0  0  3  0  0  0  0  0  0
  189.8070  176.3750  146.8750 S   0  0  0  0  0  0  0  0  0  0  0  0
  189.5180  177.3790  145.5510 C   0  0  0  0  0  0  0  0  0  0  0  0
  190.7460  177.9210  145.1530 C   0  0  0  0  0  0  0  0  0  0  0  0
  190.8900  178.8230  144.0610 N   0  0  0  0  0  1  0  0  0  0  0  0
  192.3820  176.1080  147.7860 N   0  0  0  0  0  1  0  0  0  0  0  0
  191.8210  177.5350  145.8920 N   0  0  0  0  0  0  0  0  0  0  0  0
  191.4580  176.6830  146.8730 C   0  0  0  0  0  0  0  0  0  0  0  0
  185.7180  178.5710  142.2910 C   0  0  0  0  0  2  0  0  0  0  0  0
  184.3980  179.2430  142.6460 C   0  0  2  0  0  3  0  0  0  0  0  0
  184.4710  179.7980  143.9260 O   0  0  0  0  0  1  0  0  0  0  0  0
  183.3320  178.2550  142.6070 N   0  0  0  0  0  2  0  0  0  0  0  0
  182.1280  178.4160  141.8510 C   0  0  0  0  0  0  0  0  0  0  0  0
  180.9940  179.5200  142.3040 S   0  0  0  0  0  0  0  0  0  0  0  0
  180.6160  177.7310  139.9140 C   0  0  1  0  0  3  0  0  0  0  0  0
  183.0720  177.2930  138.2230 C   0  0  0  0  0  2  0  0  0  0  0  0
  181.3460  175.5630  138.9100 N   0  0  0  0  0  2  0  0  0  0  0  0
  183.1560  179.5620  139.2220 C   0  0  0  0  0  1  0  0  0  0  0  0
  183.1430  178.0760  139.5390 C   0  0  1  0  0  3  0  0  0  0  0  0
  179.8640  176.6360  140.3750 O   0  0  0  0  0  0  0  0  0  0  0  0
  182.6670  175.8720  138.4480 C   0  0  0  0  0  0  0  0  0  0  0  0
  182.0200  177.7000  140.5340 C   0  0  1  0  0  3  0  0  0  0  0  0
  183.5230  174.9570  138.3430 O   0  0  0  0  0  0  0  0  0  0  0  0
  180.2820  176.5630  139.0320 C   0  0  1  0  0  3  0  0  0  0  0  0
  188.3620  176.8200  142.6650 N   0  0  0  0  0  2  0  0  0  0  0  0
  190.5040  176.7550  141.5150 C   0  0  0  0  0  1  0  0  0  0  0  0
  189.1120  177.3650  141.5450 C   0  0  1  0  0  3  0  0  0  0  0  0
  188.3750  177.0760  140.2450 C   0  0  0  0  0  2  0  0  0  0  0  0
  186.8550  178.2540  138.6670 C   0  0  0  0  0  1  0  0  0  0  0  0
  188.1400  178.3630  139.4650 C   0  0  2  0  0  3  0  0  0  0  0  0
  189.2950  178.6270  138.5100 C   0  0  0  0  0  2  0  0  0  0  0  0
  188.9680  178.1500  137.1040 C   0  0  0  0  0  2  0  0  0  0  0  0
  189.8880  177.0940  136.7080 N   0  0  0  0  0  2  0  0  0  0  0  0
  190.9650  177.0800  137.6860 C   0  0  0  0  0  2  0  0  0  0  0  0
  193.7470  173.9620  136.4070 C   0  0  2  0  0  3  0  0  0  0  0  0
  191.8650  175.9780  137.3850 N   0  0  0  0  0  2  0  0  0  0  0  0
  196.2210  173.9440  135.9250 C   0  0  0  0  0  2  0  0  0  0  0  0
  195.3830  174.6670  138.1520 C   0  0  0  0  0  2  0  0  0  0  0  0
  194.0640  174.8500  137.5380 N   0  0  0  0  0  0  0  0  0  0  0  0
  193.1770  175.8970  137.9440 C   0  0  0  0  0  0  0  0  0  0  0  0
  193.8390  172.6050  136.8460 O   0  0  0  0  0  0  0  0  0  0  0  0
  193.5490  176.7380  138.8120 O   0  0  0  0  0  0  0  0  0  0  0  0
  196.0790  173.5280  137.3990 C   0  0  1  0  0  0  0  0  0  0  0  0
  194.8200  174.1970  135.3200 C   0  0  0  0  0  2  0  0  0  0  0  0
  195.1180  172.3230  137.4350 C   0  0  0  0  0  2  0  0  0  0  0  0
  197.3140  173.2200  137.9660 O   0  0  0  0  0  1  0  0  0  0  0  0
  1  7  1  0  0  0  0
  1  5  2  0  0  0  0
  2 29  1  6  0  0  0
  2  1  1  0  0  0  0
  3  5  1  0  0  0  0
  4  2  1  0  0  0  0
  4  3  2  0  0  0  0
  7  6  1  0  0  0  0
  8  7  2  0  0  0  0
  8 11  1  0  0  0  0
  9  8  1  0  0  0  0
 11 12  2  0  0  0  0
 12  6  1  0  0  0  0
 12 10  1  0  0  0  0
 13 14  1  0  0  0  0
 13  4  1  0  0  0  0
 14 15  1  1  0  0  0
 16 14  1  0  0  0  0
 17 18  2  0  0  0  0
 17 16  1  0  0  0  0
 19 24  1  1  0  0  0
 19 26  1  0  0  0  0
 20 25  1  0  0  0  0
 20 23  1  0  0  0  0
 23 22  1  6  0  0  0
 23 26  1  0  0  0  0
 25 21  1  0  0  0  0
 26 17  1  1  0  0  0
 27 25  2  0  0  0  0
 28 21  1  1  0  0  0
 28 19  1  0  0  0  0
 28 24  1  0  0  0  0
 31 30  1  6  0  0  0
 31 29  1  0  0  0  0
 32 31  1  0  0  0  0
 34 33  1  6  0  0  0
 34 32  1  0  0  0  0
 35 34  1  0  0  0  0
 36 35  1  0  0  0  0
 37 36  1  0  0  0  0
 37 38  1  0  0  0  0
 39 48  1  6  0  0  0
 39 45  1  0  0  0  0
 39 43  1  0  0  0  0
 40 38  1  0  0  0  0
 40 44  1  0  0  0  0
 41 47  1  0  0  0  0
 43 44  1  0  0  0  0
 43 42  1  0  0  0  0
 44 46  2  0  0  0  0
 45 49  1  0  0  0  0
 47 49  1  0  0  0  0
 47 50  1  1  0  0  0
 47 42  1  0  0  0  0
 48 41  1  0  0  0  0
M  END
>  <MODEL>
8

>  <REMARK>
 VINA RESULT:      -6.5      3.444      7.430
  Name = 
  15 active torsions:
  status: ('A' for Active; 'I' for Inactive)
    1  A    between atoms: C_1  and  C_24
    2  A    between atoms: C_1  and  C_30
    3  A    between atoms: C_2  and  N_12
    4  A    between atoms: C_2  and  N_39
    5  A    between atoms: C_5  and  N_13
    6  A    between atoms: C_5  and  C_41
    7  A    between atoms: C_8  and  C_9
    8  A    between atoms: C_10  and  N_31
    9  A    between atoms: N_13  and  C_36
   10  A    between atoms: C_18  and  C_36
   11  A    between atoms: C_18  and  C_38
   12  A    between atoms: C_24  and  C_33
   13  A    between atoms: C_30  and  N_39
   14  A    between atoms: N_31  and  C_44
   15  A    between atoms: C_33  and  C_44
                            x       y       z     vdW  Elec       q    Type
                         _______ _______ _______ _____ _____    ______ ____

>  <TORSDO>
F 15

$$$$
=
 OpenBabel11032421143D

 50 55  0  0  1  0  0  0  0  0999 V2000
  186.7040  176.9340  136.8890 C   0  0  0  0  0  0  0  0  0  0  0  0
  185.7450  177.2720  137.9820 C   0  0  2  0  0  3  0  0  0  0  0  0
  184.6950  177.2460  135.9030 C   0  0  0  0  0  3  0  0  0  0  0  0
  184.4950  177.4800  137.1940 C   0  0  0  0  0  0  0  0  0  0  0  0
  186.0980  176.9190  135.7080 C   0  0  0  0  0  3  0  0  0  0  0  0
  189.3690  177.7120  137.2700 S   0  0  0  0  0  0  0  0  0  0  0  0
  188.1230  176.5880  137.1010 C   0  0  0  0  0  0  0  0  0  0  0  0
  188.6860  175.3100  137.2090 C   0  0  0  0  0  0  0  0  0  0  0  0
  187.9300  174.1070  137.1110 N   0  0  0  0  0  1  0  0  0  0  0  0
  191.9230  176.7930  137.6810 N   0  0  0  0  0  1  0  0  0  0  0  0
  190.0320  175.2810  137.4070 N   0  0  0  0  0  0  0  0  0  0  0  0
  190.5440  176.5270  137.4650 C   0  0  0  0  0  0  0  0  0  0  0  0
  183.1550  177.7230  137.8250 C   0  0  0  0  0  2  0  0  0  0  0  0
  181.9960  177.5780  136.8490 C   0  0  2  0  0  3  0  0  0  0  0  0
  181.1540  178.6890  136.9360 O   0  0  0  0  0  1  0  0  0  0  0  0
  181.2450  176.3750  137.1730 N   0  0  0  0  0  2  0  0  0  0  0  0
  180.8480  175.4020  136.2030 C   0  0  0  0  0  0  0  0  0  0  0  0
  180.0170  175.8520  134.8540 S   0  0  0  0  0  0  0  0  0  0  0  0
  182.7670  173.9210  136.9960 C   0  0  1  0  0  3  0  0  0  0  0  0
  180.8700  171.5790  137.0350 C   0  0  0  0  0  2  0  0  0  0  0  0
  182.9530  171.8500  135.6100 N   0  0  0  0  0  2  0  0  0  0  0  0
  179.8920  173.4500  138.3370 C   0  0  0  0  0  1  0  0  0  0  0  0
  180.3520  173.0190  136.9550 C   0  0  1  0  0  3  0  0  0  0  0  0
  183.7650  174.0130  136.0100 O   0  0  0  0  0  0  0  0  0  0  0  0
  181.6870  171.2190  135.8360 C   0  0  0  0  0  0  0  0  0  0  0  0
  181.3790  174.0040  136.3460 C   0  0  1  0  0  3  0  0  0  0  0  0
  181.2090  170.4470  134.9660 O   0  0  0  0  0  0  0  0  0  0  0  0
  183.5950  172.7380  136.5840 C   0  0  1  0  0  3  0  0  0  0  0  0
  186.1430  178.5170  138.6290 N   0  0  0  0  0  2  0  0  0  0  0  0
  187.5070  178.5760  140.6420 C   0  0  0  0  0  1  0  0  0  0  0  0
  186.1320  178.2790  140.0630 C   0  0  1  0  0  3  0  0  0  0  0  0
  185.0770  179.1560  140.7220 C   0  0  0  0  0  2  0  0  0  0  0  0
  183.0900  178.3940  142.0090 C   0  0  0  0  0  1  0  0  0  0  0  0
  184.6000  178.5320  142.0260 C   0  0  2  0  0  3  0  0  0  0  0  0
  185.0040  179.3970  143.2110 C   0  0  0  0  0  2  0  0  0  0  0  0
  184.0970  179.1540  144.4070 C   0  0  0  0  0  2  0  0  0  0  0  0
  184.8420  179.3410  145.6430 N   0  0  0  0  0  2  0  0  0  0  0  0
  185.4830  178.0720  145.9500 C   0  0  0  0  0  2  0  0  0  0  0  0
  189.8250  178.2060  145.4730 C   0  0  2  0  0  3  0  0  0  0  0  0
  186.9050  178.1770  145.6640 N   0  0  0  0  0  2  0  0  0  0  0  0
  191.5990  176.4260  145.2830 C   0  0  0  0  0  2  0  0  0  0  0  0
  189.7080  176.4880  143.6700 C   0  0  0  0  0  2  0  0  0  0  0  0
  188.9910  177.3410  144.6240 N   0  0  0  0  0  0  0  0  0  0  0  0
  187.5720  177.2610  144.7930 C   0  0  0  0  0  0  0  0  0  0  0  0
  190.6100  179.0560  144.6350 O   0  0  0  0  0  0  0  0  0  0  0  0
  186.9070  176.3940  144.1570 O   0  0  0  0  0  0  0  0  0  0  0  0
  191.2030  176.7780  143.8400 C   0  0  1  0  0  0  0  0  0  0  0  0
  190.7790  177.2900  146.2710 C   0  0  0  0  0  2  0  0  0  0  0  0
  191.3780  178.3020  143.6830 C   0  0  0  0  0  2  0  0  0  0  0  0
  191.9680  176.0740  142.9120 O   0  0  0  0  0  1  0  0  0  0  0  0
  1  7  1  0  0  0  0
  1  2  1  0  0  0  0
  2 29  1  6  0  0  0
  3  4  2  0  0  0  0
  4 13  1  0  0  0  0
  4  2  1  0  0  0  0
  5  3  1  0  0  0  0
  5  1  2  0  0  0  0
  6 12  1  0  0  0  0
  7  8  2  0  0  0  0
  7  6  1  0  0  0  0
  8 11  1  0  0  0  0
  9  8  1  0  0  0  0
 11 12  2  0  0  0  0
 12 10  1  0  0  0  0
 14 15  1  1  0  0  0
 14 16  1  0  0  0  0
 14 13  1  0  0  0  0
 17 16  1  0  0  0  0
 18 17  2  0  0  0  0
 19 24  1  6  0  0  0
 21 25  1  0  0  0  0
 23 20  1  0  0  0  0
 23 22  1  1  0  0  0
 24 28  1  0  0  0  0
 25 20  1  0  0  0  0
 26 17  1  1  0  0  0
 26 23  1  0  0  0  0
 26 19  1  0  0  0  0
 27 25  2  0  0  0  0
 28 21  1  6  0  0  0
 28 19  1  0  0  0  0
 29 31  1  0  0  0  0
 31 30  1  1  0  0  0
 31 32  1  0  0  0  0
 32 34  1  0  0  0  0
 34 33  1  6  0  0  0
 34 35  1  0  0  0  0
 35 36  1  0  0  0  0
 36 37  1  0  0  0  0
 37 38  1  0  0  0  0
 39 48  1  6  0  0  0
 40 38  1  0  0  0  0
 41 48  1  0  0  0  0
 42 47  1  0  0  0  0
 42 43  1  0  0  0  0
 43 44  1  0  0  0  0
 43 39  1  0  0  0  0
 44 40  1  0  0  0  0
 45 39  1  0  0  0  0
 46 44  2  0  0  0  0
 47 50  1  6  0  0  0
 47 41  1  0  0  0  0
 49 47  1  0  0  0  0
 49 45  1  0  0  0  0
M  END
>  <MODEL>
9

>  <REMARK>
 VINA RESULT:      -6.5      2.526      4.135
  Name = 
  15 active torsions:
  status: ('A' for Active; 'I' for Inactive)
    1  A    between atoms: C_1  and  C_24
    2  A    between atoms: C_1  and  C_30
    3  A    between atoms: C_2  and  N_12
    4  A    between atoms: C_2  and  N_39
    5  A    between atoms: C_5  and  N_13
    6  A    between atoms: C_5  and  C_41
    7  A    between atoms: C_8  and  C_9
    8  A    between atoms: C_10  and  N_31
    9  A    between atoms: N_13  and  C_36
   10  A    between atoms: C_18  and  C_36
   11  A    between atoms: C_18  and  C_38
   12  A    between atoms: C_24  and  C_33
   13  A    between atoms: C_30  and  N_39
   14  A    between atoms: N_31  and  C_44
   15  A    between atoms: C_33  and  C_44
                            x       y       z     vdW  Elec       q    Type
                         _______ _______ _______ _____ _____    ______ ____

>  <TORSDO>
F 15

$$$$
