=
 OpenBabel11042412303D

 31 34  0  0  1  0  0  0  0  0999 V2000
  187.6290  177.3150  148.8200 O   0  0  0  0  0  0  0  0  0  0  0  0
  190.8830  177.1100  144.3530 C   0  0  0  0  0  2  0  0  0  0  0  0
  190.7720  176.7920  145.7290 O   0  0  0  0  0  0  0  0  0  0  0  0
  189.5250  177.4100  143.8690 C   0  0  0  0  0  0  0  0  0  0  0  0
  189.1290  177.8850  142.5030 C   0  0  2  0  0  3  0  0  0  0  0  0
  189.2250  177.9580  147.1870 C   0  0  1  0  0  3  0  0  0  0  0  0
  188.6820  177.3230  144.8500 C   0  0  0  0  0  0  0  0  0  0  0  0
  186.8160  178.0360  143.4800 C   0  0  0  0  0  0  0  0  0  0  0  0
  189.4030  176.9140  146.0800 C   0  0  1  0  0  3  0  0  0  0  0  0
  187.8360  177.8860  147.7600 C   0  0  0  0  0  0  0  0  0  0  0  0
  186.6840  178.4360  146.9850 C   0  0  0  0  0  2  0  0  0  0  0  0
  186.3110  177.4890  145.8540 C   0  0  0  0  0  2  0  0  0  0  0  0
  190.1790  177.7690  148.1920 O   0  0  0  0  0  1  0  0  0  0  0  0
  187.2500  177.6340  144.6900 C   0  0  0  0  0  0  0  0  0  0  0  0
  187.7150  178.1490  142.4020 O   0  0  0  0  0  0  0  0  0  0  0  0
  189.6070  176.9780  141.4490 N   0  0  0  0  0  0  0  0  0  0  0  0
  190.5890  176.1210  142.1030 C   0  0  0  0  0  1  0  0  0  0  0  0
  188.2570  177.4210  138.7930 C   0  0  0  0  0  2  0  0  0  0  0  0
  189.2670  178.3960  139.3960 C   0  0  0  0  0  2  0  0  0  0  0  0
  191.2270  176.7910  139.5400 C   0  0  0  0  0  2  0  0  0  0  0  0
  188.7430  176.7870  137.4880 C   0  0  0  0  0  2  0  0  0  0  0  0
  190.5120  175.7220  138.8530 N   0  0  0  0  0  2  0  0  0  0  0  0
  190.2680  177.6950  140.3340 C   0  0  2  0  0  3  0  0  0  0  0  0
  190.1700  176.2340  137.5330 C   0  0  0  0  0  2  0  0  0  0  0  0
  185.3740  178.3330  143.2320 C   0  0  0  0  0  2  0  0  0  0  0  0
  185.2500  179.1730  142.0520 N   0  0  0  0  0  2  0  0  0  0  0  0
  184.3970  178.8310  140.9610 C   0  0  0  0  0  0  0  0  0  0  0  0
  184.2810  179.7310  139.8570 N   0  0  0  0  0  2  0  0  0  0  0  0
  183.7620  177.7410  140.9660 O   0  0  0  0  0  0  0  0  0  0  0  0
  183.4940  179.4250  138.6710 C   0  0  0  0  0  2  0  0  0  0  0  0
  182.1620  180.1450  138.7370 C   0  0  0  0  0  1  0  0  0  0  0  0
  2  3  1  0  0  0  0
  3  9  1  0  0  0  0
  4  2  1  0  0  0  0
  4  7  2  0  0  0  0
  5 16  1  6  0  0  0
  5  4  1  0  0  0  0
  6 10  1  0  0  0  0
  6 13  1  1  0  0  0
  8 14  2  0  0  0  0
  9  7  1  6  0  0  0
  9  6  1  0  0  0  0
 10  1  2  0  0  0  0
 11 10  1  0  0  0  0
 12 11  1  0  0  0  0
 14  7  1  0  0  0  0
 14 12  1  0  0  0  0
 15  5  1  0  0  0  0
 15  8  1  0  0  0  0
 16 17  1  0  0  0  0
 18 19  1  0  0  0  0
 19 23  1  0  0  0  0
 20 23  1  0  0  0  0
 21 24  1  0  0  0  0
 21 18  1  0  0  0  0
 22 20  1  0  0  0  0
 23 16  1  1  0  0  0
 24 22  1  0  0  0  0
 25  8  1  0  0  0  0
 26 25  1  0  0  0  0
 27 29  2  0  0  0  0
 27 26  1  0  0  0  0
 28 27  1  0  0  0  0
 30 31  1  0  0  0  0
 30 28  1  0  0  0  0
M  END
>  <MODEL>
1

>  <REMARK>
 VINA RESULT:      -9.3      0.000      0.000
  Name = 
  5 active torsions:
  status: ('A' for Active; 'I' for Inactive)
    1  A    between atoms: C_1  and  N_19
    2  A    between atoms: N_2  and  C_7
    3  A    between atoms: C_7  and  C_18
    4  A    between atoms: C_14  and  N_22
    5  A    between atoms: N_22  and  C_24
                            x       y       z     vdW  Elec       q    Type
                         _______ _______ _______ _____ _____    ______ ____

>  <TORSDO>
F 5

$$$$
=
 OpenBabel11042412303D

 31 34  0  0  1  0  0  0  0  0999 V2000
  184.5340  178.1760  146.8940 O   0  0  0  0  0  0  0  0  0  0  0  0
  189.2530  177.2480  144.1620 C   0  0  0  0  0  2  0  0  0  0  0  0
  188.5400  177.0250  145.3660 O   0  0  0  0  0  0  0  0  0  0  0  0
  188.2770  177.7200  143.1660 C   0  0  0  0  0  0  0  0  0  0  0  0
  188.5540  178.1750  141.7640 C   0  0  2  0  0  3  0  0  0  0  0  0
  186.7380  178.4840  146.0710 C   0  0  1  0  0  3  0  0  0  0  0  0
  187.1050  177.8120  143.7110 C   0  0  0  0  0  0  0  0  0  0  0  0
  186.0990  178.7200  141.7030 C   0  0  0  0  0  0  0  0  0  0  0  0
  187.1850  177.3680  145.1240 C   0  0  1  0  0  3  0  0  0  0  0  0
  185.2440  178.6510  146.0210 C   0  0  0  0  0  0  0  0  0  0  0  0
  184.6110  179.3240  144.8460 C   0  0  0  0  0  2  0  0  0  0  0  0
  184.5890  178.3830  143.6510 C   0  0  0  0  0  2  0  0  0  0  0  0
  187.1550  178.2100  147.3790 O   0  0  0  0  0  1  0  0  0  0  0  0
  185.9310  178.3240  142.9790 C   0  0  0  0  0  0  0  0  0  0  0  0
  187.3660  178.6400  141.0920 O   0  0  0  0  0  0  0  0  0  0  0  0
  189.2720  177.1500  140.9890 N   0  0  0  0  0  0  0  0  0  0  0  0
  190.2450  176.5860  141.9170 C   0  0  0  0  0  1  0  0  0  0  0  0
  188.2420  176.8910  138.1710 C   0  0  0  0  0  2  0  0  0  0  0  0
  189.0570  178.0860  138.6610 C   0  0  0  0  0  2  0  0  0  0  0  0
  191.1380  176.8050  139.3460 C   0  0  0  0  0  2  0  0  0  0  0  0
  188.9570  176.0820  137.0860 C   0  0  0  0  0  2  0  0  0  0  0  0
  190.6340  175.5400  138.8240 N   0  0  0  0  0  2  0  0  0  0  0  0
  189.9940  177.7150  139.8260 C   0  0  2  0  0  3  0  0  0  0  0  0
  190.4170  175.7370  137.3970 C   0  0  0  0  0  2  0  0  0  0  0  0
  184.9510  179.2140  140.8860 C   0  0  0  0  0  2  0  0  0  0  0  0
  185.2120  178.9540  139.4800 N   0  0  0  0  0  2  0  0  0  0  0  0
  184.4540  178.0090  138.7280 C   0  0  0  0  0  0  0  0  0  0  0  0
  184.7280  177.8440  137.3350 N   0  0  0  0  0  2  0  0  0  0  0  0
  183.5600  177.3180  139.2880 O   0  0  0  0  0  0  0  0  0  0  0  0
  184.0550  176.8490  136.5120 C   0  0  0  0  0  2  0  0  0  0  0  0
  184.8900  175.5860  136.4440 C   0  0  0  0  0  1  0  0  0  0  0  0
  2  3  1  0  0  0  0
  4  7  2  0  0  0  0
  4  2  1  0  0  0  0
  5 16  1  6  0  0  0
  5  4  1  0  0  0  0
  6 13  1  1  0  0  0
  8 14  2  0  0  0  0
  9  7  1  6  0  0  0
  9  3  1  0  0  0  0
  9  6  1  0  0  0  0
 10  6  1  0  0  0  0
 10  1  2  0  0  0  0
 11 10  1  0  0  0  0
 12 11  1  0  0  0  0
 14 12  1  0  0  0  0
 14  7  1  0  0  0  0
 15  8  1  0  0  0  0
 15  5  1  0  0  0  0
 16 17  1  0  0  0  0
 18 19  1  0  0  0  0
 19 23  1  0  0  0  0
 20 23  1  0  0  0  0
 21 24  1  0  0  0  0
 21 18  1  0  0  0  0
 22 20  1  0  0  0  0
 23 16  1  1  0  0  0
 24 22  1  0  0  0  0
 25  8  1  0  0  0  0
 26 25  1  0  0  0  0
 27 29  2  0  0  0  0
 27 26  1  0  0  0  0
 28 27  1  0  0  0  0
 30 28  1  0  0  0  0
 31 30  1  0  0  0  0
M  END
>  <MODEL>
2

>  <REMARK>
 VINA RESULT:      -9.2      1.700      2.365
  Name = 
  5 active torsions:
  status: ('A' for Active; 'I' for Inactive)
    1  A    between atoms: C_1  and  N_19
    2  A    between atoms: N_2  and  C_7
    3  A    between atoms: C_7  and  C_18
    4  A    between atoms: C_14  and  N_22
    5  A    between atoms: N_22  and  C_24
                            x       y       z     vdW  Elec       q    Type
                         _______ _______ _______ _____ _____    ______ ____

>  <TORSDO>
F 5

$$$$
=
 OpenBabel11042412303D

 31 34  0  0  1  0  0  0  0  0999 V2000
  188.1840  176.7310  147.2640 O   0  0  0  0  0  0  0  0  0  0  0  0
  190.5930  177.0710  142.2970 C   0  0  0  0  0  2  0  0  0  0  0  0
  190.6840  176.5250  143.6010 O   0  0  0  0  0  0  0  0  0  0  0  0
  189.2120  177.5510  142.1270 C   0  0  0  0  0  0  0  0  0  0  0  0
  188.6410  178.2880  140.9520 C   0  0  2  0  0  3  0  0  0  0  0  0
  189.5390  177.5290  145.4870 C   0  0  1  0  0  3  0  0  0  0  0  0
  188.5430  177.3570  143.2200 C   0  0  0  0  0  0  0  0  0  0  0  0
  186.5570  178.4380  142.3510 C   0  0  0  0  0  0  0  0  0  0  0  0
  189.4150  176.6860  144.2140 C   0  0  1  0  0  3  0  0  0  0  0  0
  188.2680  177.4620  146.2880 C   0  0  0  0  0  0  0  0  0  0  0  0
  187.0650  178.2240  145.8380 C   0  0  0  0  0  2  0  0  0  0  0  0
  186.4080  177.5210  144.6590 C   0  0  0  0  0  2  0  0  0  0  0  0
  190.6250  177.0960  146.2550 O   0  0  0  0  0  1  0  0  0  0  0  0
  187.1450  177.7980  143.3800 C   0  0  0  0  0  0  0  0  0  0  0  0
  187.2670  178.6700  141.1570 O   0  0  0  0  0  0  0  0  0  0  0  0
  188.8360  177.5470  139.6960 N   0  0  0  0  0  0  0  0  0  0  0  0
  190.2770  177.5450  139.4760 C   0  0  0  0  0  1  0  0  0  0  0  0
  187.5020  175.9720  137.5030 C   0  0  0  0  0  2  0  0  0  0  0  0
  187.0320  177.3550  137.9490 C   0  0  0  0  0  2  0  0  0  0  0  0
  189.1810  178.6080  137.4470 C   0  0  0  0  0  2  0  0  0  0  0  0
  188.0070  175.9480  136.0590 C   0  0  0  0  0  2  0  0  0  0  0  0
  189.8160  177.4450  136.8390 N   0  0  0  0  0  2  0  0  0  0  0  0
  188.1780  178.1980  138.5400 C   0  0  2  0  0  3  0  0  0  0  0  0
  188.9890  177.0680  135.7010 C   0  0  0  0  0  2  0  0  0  0  0  0
  185.1330  178.8800  142.4250 C   0  0  0  0  0  2  0  0  0  0  0  0
  184.3460  178.1390  141.4530 N   0  0  0  0  0  2  0  0  0  0  0  0
  184.1120  178.6260  140.1330 C   0  0  0  0  0  0  0  0  0  0  0  0
  183.3770  177.8190  139.2110 N   0  0  0  0  0  2  0  0  0  0  0  0
  184.5390  179.7620  139.7880 O   0  0  0  0  0  0  0  0  0  0  0  0
  183.0280  178.2730  137.8720 C   0  0  0  0  0  2  0  0  0  0  0  0
  183.5070  177.2650  136.8460 C   0  0  0  0  0  1  0  0  0  0  0  0
  2  3  1  0  0  0  0
  3  9  1  0  0  0  0
  4  2  1  0  0  0  0
  4  7  2  0  0  0  0
  5 16  1  6  0  0  0
  5 15  1  0  0  0  0
  5  4  1  0  0  0  0
  6 13  1  1  0  0  0
  6 10  1  0  0  0  0
  7 14  1  0  0  0  0
  8 25  1  0  0  0  0
  8 14  2  0  0  0  0
  9  7  1  6  0  0  0
  9  6  1  0  0  0  0
 10  1  2  0  0  0  0
 11 10  1  0  0  0  0
 12 11  1  0  0  0  0
 14 12  1  0  0  0  0
 15  8  1  0  0  0  0
 17 16  1  0  0  0  0
 18 19  1  0  0  0  0
 19 23  1  0  0  0  0
 20 23  1  0  0  0  0
 21 18  1  0  0  0  0
 22 20  1  0  0  0  0
 23 16  1  1  0  0  0
 24 21  1  0  0  0  0
 24 22  1  0  0  0  0
 26 25  1  0  0  0  0
 27 26  1  0  0  0  0
 28 27  1  0  0  0  0
 29 27  2  0  0  0  0
 30 28  1  0  0  0  0
 31 30  1  0  0  0  0
M  END
>  <MODEL>
3

>  <REMARK>
 VINA RESULT:      -8.8      1.550      2.086
  Name = 
  5 active torsions:
  status: ('A' for Active; 'I' for Inactive)
    1  A    between atoms: C_1  and  N_19
    2  A    between atoms: N_2  and  C_7
    3  A    between atoms: C_7  and  C_18
    4  A    between atoms: C_14  and  N_22
    5  A    between atoms: N_22  and  C_24
                            x       y       z     vdW  Elec       q    Type
                         _______ _______ _______ _____ _____    ______ ____

>  <TORSDO>
F 5

$$$$
=
 OpenBabel11042412303D

 31 34  0  0  1  0  0  0  0  0999 V2000
  184.2230  178.2500  146.6430 O   0  0  0  0  0  0  0  0  0  0  0  0
  189.0140  177.2750  144.0580 C   0  0  0  0  0  2  0  0  0  0  0  0
  188.2650  177.0630  145.2420 O   0  0  0  0  0  0  0  0  0  0  0  0
  188.0720  177.7480  143.0310 C   0  0  0  0  0  0  0  0  0  0  0  0
  188.3940  178.1930  141.6350 C   0  0  2  0  0  3  0  0  0  0  0  0
  186.4530  178.5390  145.8850 C   0  0  1  0  0  3  0  0  0  0  0  0
  186.8850  177.8510  143.5400 C   0  0  0  0  0  0  0  0  0  0  0  0
  185.9460  178.7540  141.4980 C   0  0  0  0  0  0  0  0  0  0  0  0
  186.9200  177.4140  144.9570 C   0  0  1  0  0  3  0  0  0  0  0  0
  184.9620  178.7160  145.7890 C   0  0  0  0  0  0  0  0  0  0  0  0
  184.3690  179.3860  144.5930 C   0  0  0  0  0  2  0  0  0  0  0  0
  184.3760  178.4390  143.4020 C   0  0  0  0  0  2  0  0  0  0  0  0
  186.8290  178.2700  147.2060 O   0  0  0  0  0  1  0  0  0  0  0  0
  185.7370  178.3670  142.7710 C   0  0  0  0  0  0  0  0  0  0  0  0
  187.2290  178.6620  140.9260 O   0  0  0  0  0  0  0  0  0  0  0  0
  189.1270  177.1590  140.8880 N   0  0  0  0  0  0  0  0  0  0  0  0
  190.0370  176.5630  141.8590 C   0  0  0  0  0  1  0  0  0  0  0  0
  188.2620  176.9120  138.0140 C   0  0  0  0  0  2  0  0  0  0  0  0
  189.0590  178.0990  138.5520 C   0  0  0  0  0  2  0  0  0  0  0  0
  191.0830  176.7970  139.3560 C   0  0  0  0  0  2  0  0  0  0  0  0
  189.0320  176.0970  136.9720 C   0  0  0  0  0  2  0  0  0  0  0  0
  190.5980  175.5380  138.8040 N   0  0  0  0  0  2  0  0  0  0  0  0
  189.9220  177.7180  139.7700 C   0  0  2  0  0  3  0  0  0  0  0  0
  190.4670  175.7380  137.3680 C   0  0  0  0  0  2  0  0  0  0  0  0
  184.8260  179.2520  140.6450 C   0  0  0  0  0  2  0  0  0  0  0  0
  184.3590  178.1750  139.7870 N   0  0  0  0  0  2  0  0  0  0  0  0
  182.9710  177.9230  139.5690 C   0  0  0  0  0  0  0  0  0  0  0  0
  182.5840  176.8830  138.6690 N   0  0  0  0  0  2  0  0  0  0  0  0
  182.0980  178.6030  140.1740 O   0  0  0  0  0  0  0  0  0  0  0  0
  181.1940  176.5110  138.4480 C   0  0  0  0  0  2  0  0  0  0  0  0
  180.8360  175.3200  139.3150 C   0  0  0  0  0  1  0  0  0  0  0  0
  2  3  1  0  0  0  0
  4  7  2  0  0  0  0
  4  2  1  0  0  0  0
  5 16  1  6  0  0  0
  5  4  1  0  0  0  0
  6 13  1  1  0  0  0
  8 14  2  0  0  0  0
  9  7  1  6  0  0  0
  9  3  1  0  0  0  0
  9  6  1  0  0  0  0
 10  6  1  0  0  0  0
 10  1  2  0  0  0  0
 11 10  1  0  0  0  0
 12 11  1  0  0  0  0
 14 12  1  0  0  0  0
 14  7  1  0  0  0  0
 15  8  1  0  0  0  0
 15  5  1  0  0  0  0
 16 17  1  0  0  0  0
 18 19  1  0  0  0  0
 19 23  1  0  0  0  0
 20 23  1  0  0  0  0
 21 24  1  0  0  0  0
 21 18  1  0  0  0  0
 22 20  1  0  0  0  0
 23 16  1  1  0  0  0
 24 22  1  0  0  0  0
 25  8  1  0  0  0  0
 26 25  1  0  0  0  0
 27 26  1  0  0  0  0
 27 29  2  0  0  0  0
 28 27  1  0  0  0  0
 30 28  1  0  0  0  0
 30 31  1  0  0  0  0
M  END
>  <MODEL>
4

>  <REMARK>
 VINA RESULT:      -8.6      1.898      2.518
  Name = 
  5 active torsions:
  status: ('A' for Active; 'I' for Inactive)
    1  A    between atoms: C_1  and  N_19
    2  A    between atoms: N_2  and  C_7
    3  A    between atoms: C_7  and  C_18
    4  A    between atoms: C_14  and  N_22
    5  A    between atoms: N_22  and  C_24
                            x       y       z     vdW  Elec       q    Type
                         _______ _______ _______ _____ _____    ______ ____

>  <TORSDO>
F 5

$$$$
=
 OpenBabel11042412303D

 31 34  0  0  1  0  0  0  0  0999 V2000
  189.3550  176.4110  146.2090 O   0  0  0  0  0  0  0  0  0  0  0  0
  191.4740  177.5440  141.2280 C   0  0  0  0  0  2  0  0  0  0  0  0
  191.6930  176.8910  142.4660 O   0  0  0  0  0  0  0  0  0  0  0  0
  190.0360  177.8530  141.1520 C   0  0  0  0  0  0  0  0  0  0  0  0
  189.3240  178.6190  140.0770 C   0  0  2  0  0  3  0  0  0  0  0  0
  190.5150  177.5480  144.4800 C   0  0  1  0  0  3  0  0  0  0  0  0
  189.4480  177.4670  142.2410 C   0  0  0  0  0  0  0  0  0  0  0  0
  187.3030  178.3560  141.5510 C   0  0  0  0  0  0  0  0  0  0  0  0
  190.4430  176.8230  143.1330 C   0  0  1  0  0  3  0  0  0  0  0  0
  189.3000  177.2380  145.3110 C   0  0  0  0  0  0  0  0  0  0  0  0
  187.9910  177.8750  144.9800 C   0  0  0  0  0  2  0  0  0  0  0  0
  187.3770  177.2090  143.7570 C   0  0  0  0  0  2  0  0  0  0  0  0
  191.6810  177.1890  145.1650 O   0  0  0  0  0  1  0  0  0  0  0  0
  188.0140  177.7030  142.4900 C   0  0  0  0  0  0  0  0  0  0  0  0
  187.9220  178.7950  140.3650 O   0  0  0  0  0  0  0  0  0  0  0  0
  189.5540  178.0340  138.7470 N   0  0  0  0  0  0  0  0  0  0  0  0
  188.7970  178.8750  137.8270 C   0  0  0  0  0  1  0  0  0  0  0  0
  190.9320  175.9570  137.0570 C   0  0  0  0  0  2  0  0  0  0  0  0
  190.1770  175.6280  138.3440 C   0  0  0  0  0  2  0  0  0  0  0  0
  187.9070  176.5060  137.6260 C   0  0  0  0  0  2  0  0  0  0  0  0
  190.2970  175.3290  135.8140 C   0  0  0  0  0  2  0  0  0  0  0  0
  188.3520  176.7910  136.2680 N   0  0  0  0  0  2  0  0  0  0  0  0
  189.0570  176.6430  138.6400 C   0  0  2  0  0  3  0  0  0  0  0  0
  188.7820  175.5220  135.6970 C   0  0  0  0  0  2  0  0  0  0  0  0
  185.8390  178.5980  141.7160 C   0  0  0  0  0  2  0  0  0  0  0  0
  185.3500  179.3780  140.5900 N   0  0  0  0  0  2  0  0  0  0  0  0
  183.9950  179.3090  140.1490 C   0  0  0  0  0  0  0  0  0  0  0  0
  183.5680  180.1450  139.0710 N   0  0  0  0  0  2  0  0  0  0  0  0
  183.1860  178.5100  140.6950 O   0  0  0  0  0  0  0  0  0  0  0  0
  182.2270  180.0820  138.5090 C   0  0  0  0  0  2  0  0  0  0  0  0
  181.6690  181.4830  138.3500 C   0  0  0  0  0  1  0  0  0  0  0  0
  2  3  1  0  0  0  0
  3  9  1  0  0  0  0
  4  2  1  0  0  0  0
  4  7  2  0  0  0  0
  5 16  1  6  0  0  0
  5 15  1  0  0  0  0
  5  4  1  0  0  0  0
  6 13  1  1  0  0  0
  6 10  1  0  0  0  0
  7 14  1  0  0  0  0
  8 25  1  0  0  0  0
  8 14  2  0  0  0  0
  9  7  1  6  0  0  0
  9  6  1  0  0  0  0
 10  1  2  0  0  0  0
 11 10  1  0  0  0  0
 12 11  1  0  0  0  0
 14 12  1  0  0  0  0
 15  8  1  0  0  0  0
 17 16  1  0  0  0  0
 18 19  1  0  0  0  0
 19 23  1  0  0  0  0
 20 23  1  0  0  0  0
 21 18  1  0  0  0  0
 22 20  1  0  0  0  0
 23 16  1  6  0  0  0
 24 21  1  0  0  0  0
 24 22  1  0  0  0  0
 26 25  1  0  0  0  0
 27 26  1  0  0  0  0
 27 29  2  0  0  0  0
 28 27  1  0  0  0  0
 30 28  1  0  0  0  0
 31 30  1  0  0  0  0
M  END
>  <MODEL>
5

>  <REMARK>
 VINA RESULT:      -8.4      1.645      2.764
  Name = 
  5 active torsions:
  status: ('A' for Active; 'I' for Inactive)
    1  A    between atoms: C_1  and  N_19
    2  A    between atoms: N_2  and  C_7
    3  A    between atoms: C_7  and  C_18
    4  A    between atoms: C_14  and  N_22
    5  A    between atoms: N_22  and  C_24
                            x       y       z     vdW  Elec       q    Type
                         _______ _______ _______ _____ _____    ______ ____

>  <TORSDO>
F 5

$$$$
=
 OpenBabel11042412303D

 31 34  0  0  1  0  0  0  0  0999 V2000
  183.5570  178.5910  146.0350 O   0  0  0  0  0  0  0  0  0  0  0  0
  188.4670  178.0800  143.5430 C   0  0  0  0  0  2  0  0  0  0  0  0
  187.7570  177.9310  144.7600 O   0  0  0  0  0  0  0  0  0  0  0  0
  187.4650  178.2080  142.4730 C   0  0  0  0  0  0  0  0  0  0  0  0
  187.7150  178.4740  141.0180 C   0  0  2  0  0  3  0  0  0  0  0  0
  185.7060  179.1460  145.1970 C   0  0  1  0  0  3  0  0  0  0  0  0
  186.2740  178.1800  142.9830 C   0  0  0  0  0  0  0  0  0  0  0  0
  185.2070  178.5640  140.8420 C   0  0  0  0  0  0  0  0  0  0  0  0
  186.3740  177.9880  144.4500 C   0  0  1  0  0  3  0  0  0  0  0  0
  184.2080  179.0380  145.1030 C   0  0  0  0  0  0  0  0  0  0  0  0
  183.5160  179.3930  143.8280 C   0  0  0  0  0  2  0  0  0  0  0  0
  183.7020  178.2840  142.8030 C   0  0  0  0  0  2  0  0  0  0  0  0
  186.1120  179.1620  146.5350 O   0  0  0  0  0  1  0  0  0  0  0  0
  185.0600  178.3540  142.1640 C   0  0  0  0  0  0  0  0  0  0  0  0
  186.4910  178.6100  140.2660 O   0  0  0  0  0  0  0  0  0  0  0  0
  188.6270  177.4810  140.4290 N   0  0  0  0  0  0  0  0  0  0  0  0
  189.2940  176.8580  141.5670 C   0  0  0  0  0  1  0  0  0  0  0  0
  188.3720  177.5140  137.4290 C   0  0  0  0  0  2  0  0  0  0  0  0
  189.0710  178.6150  138.2250 C   0  0  0  0  0  2  0  0  0  0  0  0
  190.8480  177.1590  139.3040 C   0  0  0  0  0  2  0  0  0  0  0  0
  189.3190  176.7560  136.4970 C   0  0  0  0  0  2  0  0  0  0  0  0
  190.4540  175.9740  138.5520 N   0  0  0  0  0  2  0  0  0  0  0  0
  189.6520  178.0940  139.5540 C   0  0  2  0  0  3  0  0  0  0  0  0
  190.6300  176.2990  137.1430 C   0  0  0  0  0  2  0  0  0  0  0  0
  184.0240  178.7120  139.9430 C   0  0  0  0  0  2  0  0  0  0  0  0
  183.9130  180.0980  139.5160 N   0  0  0  0  0  2  0  0  0  0  0  0
  182.7360  180.6100  138.8950 C   0  0  0  0  0  0  0  0  0  0  0  0
  182.6750  181.9960  138.5520 N   0  0  0  0  0  2  0  0  0  0  0  0
  181.7650  179.8460  138.6410 O   0  0  0  0  0  0  0  0  0  0  0  0
  181.5440  182.5830  137.8480 C   0  0  0  0  0  2  0  0  0  0  0  0
  181.8040  184.0550  137.5930 C   0  0  0  0  0  1  0  0  0  0  0  0
  2  3  1  0  0  0  0
  4  7  2  0  0  0  0
  4  2  1  0  0  0  0
  5 16  1  6  0  0  0
  5  4  1  0  0  0  0
  6 13  1  1  0  0  0
  8 14  2  0  0  0  0
  9  7  1  6  0  0  0
  9  3  1  0  0  0  0
  9  6  1  0  0  0  0
 10  6  1  0  0  0  0
 10  1  2  0  0  0  0
 11 10  1  0  0  0  0
 12 11  1  0  0  0  0
 14 12  1  0  0  0  0
 14  7  1  0  0  0  0
 15  8  1  0  0  0  0
 15  5  1  0  0  0  0
 16 17  1  0  0  0  0
 18 19  1  0  0  0  0
 19 23  1  0  0  0  0
 20 23  1  0  0  0  0
 21 24  1  0  0  0  0
 21 18  1  0  0  0  0
 22 20  1  0  0  0  0
 23 16  1  6  0  0  0
 24 22  1  0  0  0  0
 25  8  1  0  0  0  0
 26 25  1  0  0  0  0
 27 26  1  0  0  0  0
 28 27  1  0  0  0  0
 29 27  2  0  0  0  0
 30 28  1  0  0  0  0
 31 30  1  0  0  0  0
M  END
>  <MODEL>
6

>  <REMARK>
 VINA RESULT:      -7.9      2.084      3.126
  Name = 
  5 active torsions:
  status: ('A' for Active; 'I' for Inactive)
    1  A    between atoms: C_1  and  N_19
    2  A    between atoms: N_2  and  C_7
    3  A    between atoms: C_7  and  C_18
    4  A    between atoms: C_14  and  N_22
    5  A    between atoms: N_22  and  C_24
                            x       y       z     vdW  Elec       q    Type
                         _______ _______ _______ _____ _____    ______ ____

>  <TORSDO>
F 5

$$$$
=
 OpenBabel11042412303D

 31 34  0  0  1  0  0  0  0  0999 V2000
  188.8040  177.5180  134.5940 O   0  0  0  0  0  0  0  0  0  0  0  0
  191.3230  176.4280  139.3950 C   0  0  0  0  0  2  0  0  0  0  0  0
  191.4950  176.5740  137.9960 O   0  0  0  0  0  0  0  0  0  0  0  0
  190.0130  177.0090  139.7310 C   0  0  0  0  0  0  0  0  0  0  0  0
  189.3370  177.0180  141.0700 C   0  0  2  0  0  3  0  0  0  0  0  0
  189.6480  176.3050  136.4510 C   0  0  1  0  0  3  0  0  0  0  0  0
  189.4310  177.4280  138.6530 C   0  0  0  0  0  0  0  0  0  0  0  0
  187.4160  178.0710  139.8350 C   0  0  0  0  0  0  0  0  0  0  0  0
  190.3260  177.1990  137.4920 C   0  0  1  0  0  3  0  0  0  0  0  0
  188.5850  177.0710  135.7100 C   0  0  0  0  0  0  0  0  0  0  0  0
  187.2830  177.3690  136.3780 C   0  0  0  0  0  2  0  0  0  0  0  0
  187.4550  178.4970  137.3840 C   0  0  0  0  0  2  0  0  0  0  0  0
  190.5940  175.7930  135.5560 O   0  0  0  0  0  1  0  0  0  0  0  0
  188.0720  178.0000  138.6600 C   0  0  0  0  0  0  0  0  0  0  0  0
  188.0240  177.6110  141.0190 O   0  0  0  0  0  0  0  0  0  0  0  0
  190.1870  177.6260  142.1070 N   0  0  0  0  0  0  0  0  0  0  0  0
  191.4800  177.8300  141.4650 C   0  0  0  0  0  1  0  0  0  0  0  0
  187.9680  177.0600  144.0620 C   0  0  0  0  0  2  0  0  0  0  0  0
  189.0680  176.0560  143.7260 C   0  0  0  0  0  2  0  0  0  0  0  0
  191.0410  177.4720  144.4630 C   0  0  0  0  0  2  0  0  0  0  0  0
  187.9990  177.5160  145.5230 C   0  0  0  0  0  2  0  0  0  0  0  0
  190.1920  178.5320  144.9900 N   0  0  0  0  0  2  0  0  0  0  0  0
  190.3730  176.7450  143.2820 C   0  0  2  0  0  3  0  0  0  0  0  0
  189.3800  177.9310  146.0390 C   0  0  0  0  0  2  0  0  0  0  0  0
  186.0520  178.6710  139.9270 C   0  0  0  0  0  2  0  0  0  0  0  0
  185.9090  179.3460  141.2070 N   0  0  0  0  0  2  0  0  0  0  0  0
  184.9720  178.9160  142.1930 C   0  0  0  0  0  0  0  0  0  0  0  0
  184.9230  179.5910  143.4510 N   0  0  0  0  0  2  0  0  0  0  0  0
  184.1880  177.9580  141.9520 O   0  0  0  0  0  0  0  0  0  0  0  0
  183.9480  179.2660  144.4820 C   0  0  0  0  0  2  0  0  0  0  0  0
  184.6390  178.5930  145.6510 C   0  0  0  0  0  1  0  0  0  0  0  0
  1 10  2  0  0  0  0
  2  4  1  0  0  0  0
  3  2  1  0  0  0  0
  4  5  1  0  0  0  0
  5 16  1  1  0  0  0
  6 13  1  6  0  0  0
  6  9  1  0  0  0  0
  7 14  1  0  0  0  0
  7  4  2  0  0  0  0
  8 25  1  0  0  0  0
  8 15  1  0  0  0  0
  9  3  1  1  0  0  0
  9  7  1  0  0  0  0
 10 11  1  0  0  0  0
 10  6  1  0  0  0  0
 11 12  1  0  0  0  0
 12 14  1  0  0  0  0
 14  8  2  0  0  0  0
 15  5  1  0  0  0  0
 17 16  1  0  0  0  0
 18 21  1  0  0  0  0
 19 18  1  0  0  0  0
 20 22  1  0  0  0  0
 21 24  1  0  0  0  0
 22 24  1  0  0  0  0
 23 16  1  6  0  0  0
 23 19  1  0  0  0  0
 23 20  1  0  0  0  0
 25 26  1  0  0  0  0
 26 27  1  0  0  0  0
 27 28  1  0  0  0  0
 28 30  1  0  0  0  0
 29 27  2  0  0  0  0
 30 31  1  0  0  0  0
M  END
>  <MODEL>
7

>  <REMARK>
 VINA RESULT:      -7.8      2.748      6.936
  Name = 
  5 active torsions:
  status: ('A' for Active; 'I' for Inactive)
    1  A    between atoms: C_1  and  N_19
    2  A    between atoms: N_2  and  C_7
    3  A    between atoms: C_7  and  C_18
    4  A    between atoms: C_14  and  N_22
    5  A    between atoms: N_22  and  C_24
                            x       y       z     vdW  Elec       q    Type
                         _______ _______ _______ _____ _____    ______ ____

>  <TORSDO>
F 5

$$$$
=
 OpenBabel11042412303D

 31 34  0  0  1  0  0  0  0  0999 V2000
  189.6970  178.2500  147.9890 O   0  0  0  0  0  0  0  0  0  0  0  0
  184.6090  178.5680  145.8450 C   0  0  0  0  0  2  0  0  0  0  0  0
  185.4220  178.8680  146.9660 O   0  0  0  0  0  0  0  0  0  0  0  0
  185.5150  178.2490  144.7290 C   0  0  0  0  0  0  0  0  0  0  0  0
  185.1380  177.7820  143.3540 C   0  0  2  0  0  3  0  0  0  0  0  0
  187.4720  177.6570  147.4140 C   0  0  1  0  0  3  0  0  0  0  0  0
  186.7450  178.3090  145.1330 C   0  0  0  0  0  0  0  0  0  0  0  0
  187.6190  177.5770  142.9960 C   0  0  0  0  0  0  0  0  0  0  0  0
  186.7720  178.7170  146.5590 C   0  0  1  0  0  3  0  0  0  0  0  0
  188.9590  177.6960  147.1880 C   0  0  0  0  0  0  0  0  0  0  0  0
  189.5330  177.1330  145.9290 C   0  0  0  0  0  2  0  0  0  0  0  0
  189.2890  178.0870  144.7680 C   0  0  0  0  0  2  0  0  0  0  0  0
  187.1790  177.8510  148.7690 O   0  0  0  0  0  1  0  0  0  0  0  0
  187.8820  177.9730  144.2570 C   0  0  0  0  0  0  0  0  0  0  0  0
  186.2910  177.4940  142.5370 O   0  0  0  0  0  0  0  0  0  0  0  0
  184.2040  178.7110  142.6990 N   0  0  0  0  0  0  0  0  0  0  0  0
  183.4030  179.2700  143.7820 C   0  0  0  0  0  1  0  0  0  0  0  0
  184.1810  179.3780  139.7620 C   0  0  0  0  0  2  0  0  0  0  0  0
  183.8750  177.9850  140.3100 C   0  0  0  0  0  2  0  0  0  0  0  0
  181.8830  178.6280  141.7460 C   0  0  0  0  0  2  0  0  0  0  0  0
  182.9840  180.0190  139.0550 C   0  0  0  0  0  2  0  0  0  0  0  0
  181.8770  180.0050  141.2690 N   0  0  0  0  0  2  0  0  0  0  0  0
  183.3030  178.0330  141.7400 C   0  0  2  0  0  3  0  0  0  0  0  0
  181.6650  179.9460  139.8300 C   0  0  0  0  0  2  0  0  0  0  0  0
  188.7190  177.2570  142.0390 C   0  0  0  0  0  2  0  0  0  0  0  0
  188.7710  178.2770  141.0040 N   0  0  0  0  0  2  0  0  0  0  0  0
  188.8540  177.9500  139.6180 C   0  0  0  0  0  0  0  0  0  0  0  0
  188.8440  179.0030  138.6510 N   0  0  0  0  0  2  0  0  0  0  0  0
  188.9480  176.7480  139.2510 O   0  0  0  0  0  0  0  0  0  0  0  0
  189.0030  178.7630  137.2240 C   0  0  0  0  0  2  0  0  0  0  0  0
  187.6410  178.6270  136.5700 C   0  0  0  0  0  1  0  0  0  0  0  0
  2  3  1  0  0  0  0
  4  7  2  0  0  0  0
  4  2  1  0  0  0  0
  5 16  1  6  0  0  0
  5  4  1  0  0  0  0
  6 13  1  1  0  0  0
  8 14  2  0  0  0  0
  9  7  1  6  0  0  0
  9  3  1  0  0  0  0
  9  6  1  0  0  0  0
 10  6  1  0  0  0  0
 10  1  2  0  0  0  0
 11 10  1  0  0  0  0
 12 11  1  0  0  0  0
 14 12  1  0  0  0  0
 14  7  1  0  0  0  0
 15  8  1  0  0  0  0
 15  5  1  0  0  0  0
 16 17  1  0  0  0  0
 18 19  1  0  0  0  0
 19 23  1  0  0  0  0
 21 18  1  0  0  0  0
 21 24  1  0  0  0  0
 22 20  1  0  0  0  0
 23 20  1  0  0  0  0
 23 16  1  1  0  0  0
 24 22  1  0  0  0  0
 25  8  1  0  0  0  0
 26 25  1  0  0  0  0
 27 26  1  0  0  0  0
 28 27  1  0  0  0  0
 29 27  2  0  0  0  0
 30 28  1  0  0  0  0
 31 30  1  0  0  0  0
M  END
>  <MODEL>
8

>  <REMARK>
 VINA RESULT:      -7.7      1.741      5.326
  Name = 
  5 active torsions:
  status: ('A' for Active; 'I' for Inactive)
    1  A    between atoms: C_1  and  N_19
    2  A    between atoms: N_2  and  C_7
    3  A    between atoms: C_7  and  C_18
    4  A    between atoms: C_14  and  N_22
    5  A    between atoms: N_22  and  C_24
                            x       y       z     vdW  Elec       q    Type
                         _______ _______ _______ _____ _____    ______ ____

>  <TORSDO>
F 5

$$$$
=
 OpenBabel11042412303D

 31 34  0  0  1  0  0  0  0  0999 V2000
  186.4110  179.2920  137.2160 O   0  0  0  0  0  0  0  0  0  0  0  0
  189.5350  175.1830  135.2280 C   0  0  0  0  0  2  0  0  0  0  0  0
  188.5770  176.1780  134.9100 O   0  0  0  0  0  0  0  0  0  0  0  0
  190.0750  175.5160  136.5570 C   0  0  0  0  0  0  0  0  0  0  0  0
  191.0530  174.7200  137.3680 C   0  0  2  0  0  3  0  0  0  0  0  0
  187.0990  177.1090  136.5900 C   0  0  1  0  0  3  0  0  0  0  0  0
  189.4840  176.5740  137.0170 C   0  0  0  0  0  0  0  0  0  0  0  0
  190.6590  176.4680  139.1330 C   0  0  0  0  0  0  0  0  0  0  0  0
  188.5160  177.0710  136.0100 C   0  0  1  0  0  3  0  0  0  0  0  0
  186.9560  178.2530  137.5570 C   0  0  0  0  0  0  0  0  0  0  0  0
  187.5670  178.1570  138.9160 C   0  0  0  0  0  2  0  0  0  0  0  0
  189.0720  178.3600  138.8320 C   0  0  0  0  0  2  0  0  0  0  0  0
  186.1540  177.2160  135.5640 O   0  0  0  0  0  1  0  0  0  0  0  0
  189.7650  177.1140  138.3600 C   0  0  0  0  0  0  0  0  0  0  0  0
  191.3050  175.3100  138.6590 O   0  0  0  0  0  0  0  0  0  0  0  0
  192.2930  174.4530  136.6220 N   0  0  0  0  0  0  0  0  0  0  0  0
  192.3380  173.0030  136.4680 C   0  0  0  0  0  1  0  0  0  0  0  0
  194.1880  176.5080  135.5030 C   0  0  0  0  0  2  0  0  0  0  0  0
  193.9270  176.3310  136.9970 C   0  0  0  0  0  2  0  0  0  0  0  0
  194.6810  173.9150  137.1780 C   0  0  0  0  0  2  0  0  0  0  0  0
  195.6320  176.1910  135.1060 C   0  0  0  0  0  2  0  0  0  0  0  0
  195.1400  173.8660  135.7960 N   0  0  0  0  0  2  0  0  0  0  0  0
  193.5050  174.8920  137.3500 C   0  0  2  0  0  3  0  0  0  0  0  0
  196.1810  174.8770  135.6680 C   0  0  0  0  0  2  0  0  0  0  0  0
  191.0220  176.9760  140.4890 C   0  0  0  0  0  2  0  0  0  0  0  0
  190.1800  176.3350  141.4860 N   0  0  0  0  0  2  0  0  0  0  0  0
  189.3070  177.0770  142.3350 C   0  0  0  0  0  0  0  0  0  0  0  0
  188.4660  176.3780  143.2540 N   0  0  0  0  0  2  0  0  0  0  0  0
  189.2880  178.3370  142.2840 O   0  0  0  0  0  0  0  0  0  0  0  0
  187.6030  177.0600  144.2080 C   0  0  0  0  0  2  0  0  0  0  0  0
  188.4050  177.4640  145.4300 C   0  0  0  0  0  1  0  0  0  0  0  0
  1 10  2  0  0  0  0
  2  4  1  0  0  0  0
  3  2  1  0  0  0  0
  4  7  2  0  0  0  0
  4  5  1  0  0  0  0
  5 16  1  6  0  0  0
  5 15  1  0  0  0  0
  6 13  1  6  0  0  0
  6 10  1  0  0  0  0
  7 14  1  0  0  0  0
  8 25  1  0  0  0  0
  9  3  1  6  0  0  0
  9  6  1  0  0  0  0
  9  7  1  0  0  0  0
 10 11  1  0  0  0  0
 12 11  1  0  0  0  0
 14 12  1  0  0  0  0
 14  8  2  0  0  0  0
 15  8  1  0  0  0  0
 17 16  1  0  0  0  0
 18 19  1  0  0  0  0
 19 23  1  0  0  0  0
 20 23  1  0  0  0  0
 21 18  1  0  0  0  0
 21 24  1  0  0  0  0
 22 20  1  0  0  0  0
 23 16  1  6  0  0  0
 24 22  1  0  0  0  0
 25 26  1  0  0  0  0
 26 27  1  0  0  0  0
 27 28  1  0  0  0  0
 28 30  1  0  0  0  0
 29 27  2  0  0  0  0
 30 31  1  0  0  0  0
M  END
>  <MODEL>
9

>  <REMARK>
 VINA RESULT:      -7.5      3.599      7.861
  Name = 
  5 active torsions:
  status: ('A' for Active; 'I' for Inactive)
    1  A    between atoms: C_1  and  N_19
    2  A    between atoms: N_2  and  C_7
    3  A    between atoms: C_7  and  C_18
    4  A    between atoms: C_14  and  N_22
    5  A    between atoms: N_22  and  C_24
                            x       y       z     vdW  Elec       q    Type
                         _______ _______ _______ _____ _____    ______ ____

>  <TORSDO>
F 5

$$$$
