=
 OpenBabel11032420293D

 33 36  0  0  1  0  0  0  0  0999 V2000
  187.7640  177.7310  142.7960 C   0  0  1  0  0  3  0  0  0  0  0  0
  189.4280  177.1080  144.5990 C   0  0  0  0  0  0  0  0  0  0  0  0
  189.3030  177.8170  147.1380 C   0  0  0  0  0  1  0  0  0  0  0  0
  191.0830  176.4720  145.9770 C   0  0  0  0  0  0  0  0  0  0  0  0
  188.2040  177.7190  144.1850 N   0  0  0  0  0  2  0  0  0  0  0  0
  191.2860  176.0190  144.6100 C   0  0  0  0  0  0  0  0  0  0  0  0
  192.1290  175.1060  144.2510 N   0  0  0  0  0  2  0  0  0  0  0  0
  189.9480  177.1530  145.9670 C   0  0  0  0  0  0  0  0  0  0  0  0
  190.1890  176.4280  143.7990 N   0  0  0  0  0  0  0  0  0  0  0  0
  192.6190  176.0230  148.0220 N   0  0  0  0  0  0  0  0  0  0  0  0
  191.9340  176.2210  147.1120 C   0  0  0  0  0  0  0  0  0  0  0  0
  186.3780  178.2790  142.6990 C   0  0  0  0  0  0  0  0  0  0  0  0
  183.3110  178.6790  142.7850 C   0  0  0  0  0  3  0  0  0  0  0  0
  182.4730  177.9030  140.5150 C   0  0  0  0  0  1  0  0  0  0  0  0
  183.6000  178.3630  141.3690 C   0  0  0  0  0  0  0  0  0  0  0  0
  184.7970  178.5160  140.8000 C   0  0  0  0  0  3  0  0  0  0  0  0
  185.9810  179.0930  141.5050 C   0  0  0  0  0  2  0  0  0  0  0  0
  185.5670  178.1280  143.7470 C   0  0  0  0  0  3  0  0  0  0  0  0
  184.1610  178.5750  143.8140 C   0  0  0  0  0  3  0  0  0  0  0  0
  188.6710  178.5390  141.9860 N   0  0  0  0  0  2  0  0  0  0  0  0
  188.8840  176.7790  137.8890 C   0  0  0  0  0  2  0  0  0  0  0  0
  189.5620  177.2040  140.1000 C   0  0  0  0  0  0  0  0  0  0  0  0
  189.6420  177.6820  141.4440 N   0  0  0  0  0  2  0  0  0  0  0  0
  190.3760  176.3210  139.6450 N   0  0  0  0  0  0  0  0  0  0  0  0
  188.6950  178.9780  138.8000 O   0  0  0  0  0  1  0  0  0  0  0  0
  188.5250  177.6280  139.1090 C   0  0  1  0  0  3  0  0  0  0  0  0
  190.0400  176.0160  138.3280 N   0  0  0  0  0  0  0  0  0  0  0  0
  189.9660  174.1330  136.7470 C   0  0  0  0  0  3  0  0  0  0  0  0
  192.0090  173.0460  136.0280 C   0  0  0  0  0  3  0  0  0  0  0  0
  190.7060  175.0080  137.5560 C   0  0  0  0  0  0  0  0  0  0  0  0
  190.6150  173.1560  135.9860 C   0  0  0  0  0  3  0  0  0  0  0  0
  192.1040  174.8900  137.5940 C   0  0  0  0  0  3  0  0  0  0  0  0
  192.7540  173.9130  136.8320 C   0  0  0  0  0  3  0  0  0  0  0  0
  1 20  1  6  0  0  0
  1  5  1  0  0  0  0
  2  8  1  0  0  0  0
  4 11  1  0  0  0  0
  5  2  1  0  0  0  0
  6  4  1  0  0  0  0
  7  6  2  0  0  0  0
  8  4  2  0  0  0  0
  8  3  1  0  0  0  0
  9  2  2  0  0  0  0
  9  6  1  0  0  0  0
 11 10  3  0  0  0  0
 12  1  1  0  0  0  0
 12 18  2  0  0  0  0
 13 19  2  0  0  0  0
 14 15  1  0  0  0  0
 15 13  1  0  0  0  0
 16 15  2  0  0  0  0
 16 17  1  0  0  0  0
 17 12  1  0  0  0  0
 18 19  1  0  0  0  0
 21 27  1  0  0  0  0
 21 26  1  0  0  0  0
 22 23  1  0  0  0  0
 23 20  1  0  0  0  0
 24 22  2  0  0  0  0
 26 25  1  6  0  0  0
 26 22  1  0  0  0  0
 27 24  1  0  0  0  0
 28 30  1  0  0  0  0
 29 33  2  0  0  0  0
 30 32  2  0  0  0  0
 30 27  1  0  0  0  0
 31 29  1  0  0  0  0
 31 28  2  0  0  0  0
 33 32  1  0  0  0  0
M  END
>  <MODEL>
1

>  <REMARK>
 VINA RESULT:      -9.6      0.000      0.000
  Name = 
  6 active torsions:
  status: ('A' for Active; 'I' for Inactive)
    1  A    between atoms: C_3  and  C_33
    2  A    between atoms: C_8  and  C_27
    3  A    between atoms: N_11  and  C_33
    4  A    between atoms: C_12  and  N_31
    5  A    between atoms: N_13  and  N_32
    6  A    between atoms: N_32  and  C_33
                            x       y       z     vdW  Elec       q    Type
                         _______ _______ _______ _____ _____    ______ ____

>  <TORSDO>
F 6

$$$$
=
 OpenBabel11032420293D

 33 36  0  0  1  0  0  0  0  0999 V2000
  184.9780  178.1990  141.6170 C   0  0  1  0  0  3  0  0  0  0  0  0
  185.9890  178.0280  143.9320 C   0  0  0  0  0  0  0  0  0  0  0  0
  184.8390  178.7760  146.1860 C   0  0  0  0  0  1  0  0  0  0  0  0
  187.1440  177.8270  145.8470 C   0  0  0  0  0  0  0  0  0  0  0  0
  184.8940  178.3340  143.0660 N   0  0  0  0  0  2  0  0  0  0  0  0
  187.9010  177.3860  144.6860 C   0  0  0  0  0  0  0  0  0  0  0  0
  188.9800  176.6750  144.7340 N   0  0  0  0  0  2  0  0  0  0  0  0
  185.9730  178.2340  145.3810 C   0  0  0  0  0  0  0  0  0  0  0  0
  187.1020  177.5100  143.5140 N   0  0  0  0  0  0  0  0  0  0  0  0
  187.9120  177.8020  148.3280 N   0  0  0  0  0  0  0  0  0  0  0  0
  187.5720  177.8130  147.2230 C   0  0  0  0  0  0  0  0  0  0  0  0
  183.6080  178.1210  141.0270 C   0  0  0  0  0  0  0  0  0  0  0  0
  180.5810  177.6930  140.5480 C   0  0  0  0  0  3  0  0  0  0  0  0
  180.3650  175.2900  139.7520 C   0  0  0  0  0  1  0  0  0  0  0  0
  181.2180  176.4880  139.9720 C   0  0  0  0  0  0  0  0  0  0  0  0
  182.4950  176.4290  139.5920 C   0  0  0  0  0  3  0  0  0  0  0  0
  183.4270  177.5950  139.6350 C   0  0  0  0  0  2  0  0  0  0  0  0
  182.5940  178.6410  141.7190 C   0  0  0  0  0  3  0  0  0  0  0  0
  181.1760  178.6230  141.3060 C   0  0  0  0  0  3  0  0  0  0  0  0
  185.6970  179.3340  141.0460 N   0  0  0  0  0  2  0  0  0  0  0  0
  187.6830  177.0400  137.7730 C   0  0  0  0  0  2  0  0  0  0  0  0
  187.5250  178.2260  139.7970 C   0  0  0  0  0  0  0  0  0  0  0  0
  187.0460  178.9690  140.9200 N   0  0  0  0  0  2  0  0  0  0  0  0
  188.7280  177.7800  139.7420 N   0  0  0  0  0  0  0  0  0  0  0  0
  186.3290  179.0020  137.9100 O   0  0  0  0  0  1  0  0  0  0  0  0
  186.6950  177.8520  138.6100 C   0  0  1  0  0  3  0  0  0  0  0  0
  188.9040  177.0640  138.5610 N   0  0  0  0  0  0  0  0  0  0  0  0
  190.0630  175.1600  137.5210 C   0  0  0  0  0  3  0  0  0  0  0  0
  192.4820  175.0170  137.5650 C   0  0  0  0  0  3  0  0  0  0  0  0
  190.1130  176.3690  138.2300 C   0  0  0  0  0  0  0  0  0  0  0  0
  191.2430  174.4860  137.1900 C   0  0  0  0  0  3  0  0  0  0  0  0
  191.3610  176.8940  138.6040 C   0  0  0  0  0  3  0  0  0  0  0  0
  192.5410  176.2210  138.2720 C   0  0  0  0  0  3  0  0  0  0  0  0
  1 20  1  6  0  0  0
  1  5  1  0  0  0  0
  2  8  1  0  0  0  0
  4 11  1  0  0  0  0
  5  2  1  0  0  0  0
  6  7  2  0  0  0  0
  6  4  1  0  0  0  0
  8  4  2  0  0  0  0
  8  3  1  0  0  0  0
  9  2  2  0  0  0  0
  9  6  1  0  0  0  0
 11 10  3  0  0  0  0
 12  1  1  0  0  0  0
 12 18  2  0  0  0  0
 13 19  2  0  0  0  0
 14 15  1  0  0  0  0
 15 13  1  0  0  0  0
 16 17  1  0  0  0  0
 16 15  2  0  0  0  0
 17 12  1  0  0  0  0
 19 18  1  0  0  0  0
 21 27  1  0  0  0  0
 21 26  1  0  0  0  0
 22 23  1  0  0  0  0
 23 20  1  0  0  0  0
 24 22  2  0  0  0  0
 26 25  1  6  0  0  0
 26 22  1  0  0  0  0
 27 24  1  0  0  0  0
 28 30  1  0  0  0  0
 29 33  2  0  0  0  0
 30 27  1  0  0  0  0
 30 32  2  0  0  0  0
 31 28  2  0  0  0  0
 31 29  1  0  0  0  0
 33 32  1  0  0  0  0
M  END
>  <MODEL>
2

>  <REMARK>
 VINA RESULT:      -9.2      2.170      3.231
  Name = 
  6 active torsions:
  status: ('A' for Active; 'I' for Inactive)
    1  A    between atoms: C_3  and  C_33
    2  A    between atoms: C_8  and  C_27
    3  A    between atoms: N_11  and  C_33
    4  A    between atoms: C_12  and  N_31
    5  A    between atoms: N_13  and  N_32
    6  A    between atoms: N_32  and  C_33
                            x       y       z     vdW  Elec       q    Type
                         _______ _______ _______ _____ _____    ______ ____

>  <TORSDO>
F 6

$$$$
=
 OpenBabel11032420293D

 33 36  0  0  1  0  0  0  0  0999 V2000
  185.2850  179.0970  142.1960 C   0  0  1  0  0  3  0  0  0  0  0  0
  183.1460  178.2240  141.1620 C   0  0  0  0  0  0  0  0  0  0  0  0
  182.9700  176.3630  139.3000 C   0  0  0  0  0  1  0  0  0  0  0  0
  181.1150  177.6840  140.3690 C   0  0  0  0  0  0  0  0  0  0  0  0
  184.5660  178.1840  141.3170 N   0  0  0  0  0  2  0  0  0  0  0  0
  181.0640  178.7260  141.3820 C   0  0  0  0  0  0  0  0  0  0  0  0
  179.9920  179.1020  142.0010 N   0  0  0  0  0  2  0  0  0  0  0  0
  182.3970  177.3850  140.2250 C   0  0  0  0  0  0  0  0  0  0  0  0
  182.3760  178.9970  141.8630 N   0  0  0  0  0  0  0  0  0  0  0  0
  179.1110  176.6070  139.1170 N   0  0  0  0  0  0  0  0  0  0  0  0
  180.0020  177.0880  139.6740 C   0  0  0  0  0  0  0  0  0  0  0  0
  185.3730  178.5260  143.5730 C   0  0  0  0  0  0  0  0  0  0  0  0
  185.6260  178.1240  146.6300 C   0  0  0  0  0  3  0  0  0  0  0  0
  188.1180  177.8950  147.0700 C   0  0  0  0  0  1  0  0  0  0  0  0
  186.9820  177.8450  146.1100 C   0  0  0  0  0  0  0  0  0  0  0  0
  187.2410  177.5030  144.8480 C   0  0  0  0  0  3  0  0  0  0  0  0
  186.1840  177.2880  143.8140 C   0  0  0  0  0  2  0  0  0  0  0  0
  184.6190  179.0690  144.5290 C   0  0  0  0  0  3  0  0  0  0  0  0
  184.6040  178.6560  145.9470 C   0  0  0  0  0  3  0  0  0  0  0  0
  186.6280  179.3440  141.6770 N   0  0  0  0  0  2  0  0  0  0  0  0
  190.1020  177.4610  139.6020 C   0  0  0  0  0  2  0  0  0  0  0  0
  187.8970  178.2320  139.8650 C   0  0  0  0  0  0  0  0  0  0  0  0
  186.6940  178.8040  140.3830 N   0  0  0  0  0  2  0  0  0  0  0  0
  187.9960  177.8560  138.6400 N   0  0  0  0  0  0  0  0  0  0  0  0
  188.9500  177.1180  141.6650 O   0  0  0  0  0  1  0  0  0  0  0  0
  189.1580  178.0510  140.6490 C   0  0  1  0  0  3  0  0  0  0  0  0
  189.2820  177.3790  138.4050 N   0  0  0  0  0  0  0  0  0  0  0  0
  190.9490  176.2470  136.9930 C   0  0  0  0  0  3  0  0  0  0  0  0
  190.6400  176.1060  134.5940 C   0  0  0  0  0  3  0  0  0  0  0  0
  189.7440  176.9540  137.1160 C   0  0  0  0  0  0  0  0  0  0  0  0
  191.3950  175.8250  135.7370 C   0  0  0  0  0  3  0  0  0  0  0  0
  188.9930  177.2350  135.9630 C   0  0  0  0  0  3  0  0  0  0  0  0
  189.4380  176.8110  134.7060 C   0  0  0  0  0  3  0  0  0  0  0  0
  1  5  1  6  0  0  0
  1 12  1  0  0  0  0
  2  5  1  0  0  0  0
  2  9  2  0  0  0  0
  3  8  1  0  0  0  0
  4  6  1  0  0  0  0
  6  9  1  0  0  0  0
  6  7  2  0  0  0  0
  8  4  2  0  0  0  0
  8  2  1  0  0  0  0
 10 11  3  0  0  0  0
 11  4  1  0  0  0  0
 12 17  1  0  0  0  0
 12 18  2  0  0  0  0
 15 13  1  0  0  0  0
 15 14  1  0  0  0  0
 16 15  2  0  0  0  0
 17 16  1  0  0  0  0
 18 19  1  0  0  0  0
 19 13  2  0  0  0  0
 20  1  1  0  0  0  0
 21 26  1  0  0  0  0
 22 23  1  0  0  0  0
 22 26  1  0  0  0  0
 23 20  1  0  0  0  0
 24 22  2  0  0  0  0
 26 25  1  1  0  0  0
 27 24  1  0  0  0  0
 27 21  1  0  0  0  0
 28 30  1  0  0  0  0
 29 33  2  0  0  0  0
 29 31  1  0  0  0  0
 30 27  1  0  0  0  0
 31 28  2  0  0  0  0
 32 30  2  0  0  0  0
 33 32  1  0  0  0  0
M  END
>  <MODEL>
3

>  <REMARK>
 VINA RESULT:      -9.0      3.249      6.799
  Name = 
  6 active torsions:
  status: ('A' for Active; 'I' for Inactive)
    1  A    between atoms: C_3  and  C_33
    2  A    between atoms: C_8  and  C_27
    3  A    between atoms: N_11  and  C_33
    4  A    between atoms: C_12  and  N_31
    5  A    between atoms: N_13  and  N_32
    6  A    between atoms: N_32  and  C_33
                            x       y       z     vdW  Elec       q    Type
                         _______ _______ _______ _____ _____    ______ ____

>  <TORSDO>
F 6

$$$$
=
 OpenBabel11032420293D

 33 36  0  0  1  0  0  0  0  0999 V2000
  183.1470  179.2110  139.1460 C   0  0  1  0  0  3  0  0  0  0  0  0
  184.9760  177.9170  137.9680 C   0  0  0  0  0  0  0  0  0  0  0  0
  184.7160  175.5510  136.8280 C   0  0  0  0  0  1  0  0  0  0  0  0
  186.7880  176.9600  137.0500 C   0  0  0  0  0  0  0  0  0  0  0  0
  183.6110  178.0740  138.3630 N   0  0  0  0  0  2  0  0  0  0  0  0
  187.0780  178.2530  137.6480 C   0  0  0  0  0  0  0  0  0  0  0  0
  188.1510  178.9430  137.4310 N   0  0  0  0  0  2  0  0  0  0  0  0
  185.4980  176.7470  137.2600 C   0  0  0  0  0  0  0  0  0  0  0  0
  185.8850  178.8170  138.1820 N   0  0  0  0  0  0  0  0  0  0  0  0
  188.4450  175.3930  135.8070 N   0  0  0  0  0  0  0  0  0  0  0  0
  187.7090  176.0920  136.3610 C   0  0  0  0  0  0  0  0  0  0  0  0
  182.0130  179.8880  138.4480 C   0  0  0  0  0  0  0  0  0  0  0  0
  180.1430  181.1900  136.3540 C   0  0  0  0  0  3  0  0  0  0  0  0
  180.7920  183.6460  136.3150 C   0  0  0  0  0  1  0  0  0  0  0  0
  180.8050  182.3340  137.0170 C   0  0  0  0  0  0  0  0  0  0  0  0
  181.3660  182.2750  138.2250 C   0  0  0  0  0  3  0  0  0  0  0  0
  181.3350  181.0590  139.0940 C   0  0  0  0  0  2  0  0  0  0  0  0
  181.5550  179.3470  137.3190 C   0  0  0  0  0  3  0  0  0  0  0  0
  180.4690  179.8970  136.4830 C   0  0  0  0  0  3  0  0  0  0  0  0
  182.7180  178.7700  140.4700 N   0  0  0  0  0  2  0  0  0  0  0  0
  184.2070  179.1570  144.6610 C   0  0  0  0  0  2  0  0  0  0  0  0
  184.1530  178.3640  142.4470 C   0  0  0  0  0  0  0  0  0  0  0  0
  183.8060  178.1270  141.0820 N   0  0  0  0  0  2  0  0  0  0  0  0
  185.2200  177.8780  142.9700 N   0  0  0  0  0  0  0  0  0  0  0  0
  182.1210  178.6280  143.6270 O   0  0  0  0  0  1  0  0  0  0  0  0
  183.3620  179.2170  143.3880 C   0  0  1  0  0  3  0  0  0  0  0  0
  185.3230  178.3010  144.2920 N   0  0  0  0  0  0  0  0  0  0  0  0
  187.6320  177.5030  144.5810 C   0  0  0  0  0  3  0  0  0  0  0  0
  188.6420  177.4210  146.7820 C   0  0  0  0  0  3  0  0  0  0  0  0
  186.4430  177.9980  145.1350 C   0  0  0  0  0  0  0  0  0  0  0  0
  188.7280  177.2150  145.4010 C   0  0  0  0  0  3  0  0  0  0  0  0
  186.3650  178.2000  146.5220 C   0  0  0  0  0  3  0  0  0  0  0  0
  187.4600  177.9140  147.3430 C   0  0  0  0  0  3  0  0  0  0  0  0
  1  5  1  6  0  0  0
  1 20  1  0  0  0  0
  2  9  2  0  0  0  0
  2  5  1  0  0  0  0
  3  8  1  0  0  0  0
  4  8  2  0  0  0  0
  4  6  1  0  0  0  0
  6  9  1  0  0  0  0
  7  6  2  0  0  0  0
  8  2  1  0  0  0  0
 10 11  3  0  0  0  0
 11  4  1  0  0  0  0
 12 17  1  0  0  0  0
 12  1  1  0  0  0  0
 13 19  2  0  0  0  0
 13 15  1  0  0  0  0
 14 15  1  0  0  0  0
 15 16  2  0  0  0  0
 16 17  1  0  0  0  0
 18 12  2  0  0  0  0
 19 18  1  0  0  0  0
 20 23  1  0  0  0  0
 22 24  2  0  0  0  0
 22 26  1  0  0  0  0
 23 22  1  0  0  0  0
 24 27  1  0  0  0  0
 26 25  1  1  0  0  0
 26 21  1  0  0  0  0
 27 21  1  0  0  0  0
 27 30  1  0  0  0  0
 28 30  2  0  0  0  0
 28 31  1  0  0  0  0
 29 33  1  0  0  0  0
 30 32  1  0  0  0  0
 31 29  2  0  0  0  0
 32 33  2  0  0  0  0
M  END
>  <MODEL>
4

>  <REMARK>
 VINA RESULT:      -9.0      3.964      8.647
  Name = 
  6 active torsions:
  status: ('A' for Active; 'I' for Inactive)
    1  A    between atoms: C_3  and  C_33
    2  A    between atoms: C_8  and  C_27
    3  A    between atoms: N_11  and  C_33
    4  A    between atoms: C_12  and  N_31
    5  A    between atoms: N_13  and  N_32
    6  A    between atoms: N_32  and  C_33
                            x       y       z     vdW  Elec       q    Type
                         _______ _______ _______ _____ _____    ______ ____

>  <TORSDO>
F 6

$$$$
=
 OpenBabel11032420293D

 33 36  0  0  1  0  0  0  0  0999 V2000
  187.2200  177.5760  143.8420 C   0  0  1  0  0  3  0  0  0  0  0  0
  189.1090  177.1310  145.4680 C   0  0  0  0  0  0  0  0  0  0  0  0
  189.0880  177.6560  148.0530 C   0  0  0  0  0  1  0  0  0  0  0  0
  190.9560  176.6950  146.6690 C   0  0  0  0  0  0  0  0  0  0  0  0
  187.7730  177.5550  145.1900 N   0  0  0  0  0  2  0  0  0  0  0  0
  191.1110  176.3660  145.2620 C   0  0  0  0  0  0  0  0  0  0  0  0
  192.0560  175.6280  144.7760 N   0  0  0  0  0  2  0  0  0  0  0  0
  189.7290  177.1790  146.7930 C   0  0  0  0  0  0  0  0  0  0  0  0
  189.8990  176.6350  144.5660 N   0  0  0  0  0  0  0  0  0  0  0  0
  192.7130  176.3830  148.5560 N   0  0  0  0  0  0  0  0  0  0  0  0
  191.9290  176.5210  147.7180 C   0  0  0  0  0  0  0  0  0  0  0  0
  185.9240  178.3170  143.8290 C   0  0  0  0  0  0  0  0  0  0  0  0
  182.9610  179.1600  144.1270 C   0  0  0  0  0  3  0  0  0  0  0  0
  181.8450  178.4570  141.9550 C   0  0  0  0  0  1  0  0  0  0  0  0
  183.0910  178.7710  142.7060 C   0  0  0  0  0  0  0  0  0  0  0  0
  184.2480  178.7340  142.0450 C   0  0  0  0  0  3  0  0  0  0  0  0
  185.5550  179.1500  142.6390 C   0  0  0  0  0  2  0  0  0  0  0  0
  185.1840  178.3120  144.9390 C   0  0  0  0  0  3  0  0  0  0  0  0
  183.8650  178.9600  145.0940 C   0  0  0  0  0  3  0  0  0  0  0  0
  188.1600  178.2100  142.9220 N   0  0  0  0  0  2  0  0  0  0  0  0
  191.0250  177.3660  139.6050 C   0  0  0  0  0  2  0  0  0  0  0  0
  188.9390  177.5040  140.6810 C   0  0  0  0  0  0  0  0  0  0  0  0
  187.8960  177.7210  141.6330 N   0  0  0  0  0  2  0  0  0  0  0  0
  188.6880  177.1800  139.4630 N   0  0  0  0  0  0  0  0  0  0  0  0
  190.8070  176.7030  141.8890 O   0  0  0  0  0  1  0  0  0  0  0  0
  190.3980  177.6670  140.9660 C   0  0  1  0  0  3  0  0  0  0  0  0
  189.8820  177.0740  138.7560 N   0  0  0  0  0  0  0  0  0  0  0  0
  190.7370  175.7490  136.8680 C   0  0  0  0  0  3  0  0  0  0  0  0
  190.0600  176.2600  134.5970 C   0  0  0  0  0  3  0  0  0  0  0  0
  189.9470  176.8030  137.3490 C   0  0  0  0  0  0  0  0  0  0  0  0
  190.7940  175.4790  135.4970 C   0  0  0  0  0  3  0  0  0  0  0  0
  189.2160  177.5840  136.4400 C   0  0  0  0  0  3  0  0  0  0  0  0
  189.2710  177.3130  135.0690 C   0  0  0  0  0  3  0  0  0  0  0  0
  1 20  1  6  0  0  0
  1  5  1  0  0  0  0
  2  8  1  0  0  0  0
  4  8  2  0  0  0  0
  4 11  1  0  0  0  0
  5  2  1  0  0  0  0
  6  4  1  0  0  0  0
  7  6  2  0  0  0  0
  8  3  1  0  0  0  0
  9  6  1  0  0  0  0
  9  2  2  0  0  0  0
 11 10  3  0  0  0  0
 12  1  1  0  0  0  0
 12 18  2  0  0  0  0
 13 19  2  0  0  0  0
 14 15  1  0  0  0  0
 15 13  1  0  0  0  0
 16 17  1  0  0  0  0
 16 15  2  0  0  0  0
 17 12  1  0  0  0  0
 18 19  1  0  0  0  0
 21 26  1  0  0  0  0
 22 26  1  0  0  0  0
 22 23  1  0  0  0  0
 23 20  1  0  0  0  0
 24 22  2  0  0  0  0
 26 25  1  1  0  0  0
 27 24  1  0  0  0  0
 27 21  1  0  0  0  0
 28 30  1  0  0  0  0
 29 33  2  0  0  0  0
 29 31  1  0  0  0  0
 30 27  1  0  0  0  0
 31 28  2  0  0  0  0
 32 30  2  0  0  0  0
 33 32  1  0  0  0  0
M  END
>  <MODEL>
5

>  <REMARK>
 VINA RESULT:      -9.0      1.541      2.064
  Name = 
  6 active torsions:
  status: ('A' for Active; 'I' for Inactive)
    1  A    between atoms: C_3  and  C_33
    2  A    between atoms: C_8  and  C_27
    3  A    between atoms: N_11  and  C_33
    4  A    between atoms: C_12  and  N_31
    5  A    between atoms: N_13  and  N_32
    6  A    between atoms: N_32  and  C_33
                            x       y       z     vdW  Elec       q    Type
                         _______ _______ _______ _____ _____    ______ ____

>  <TORSDO>
F 6

$$$$
=
 OpenBabel11032420293D

 33 36  0  0  1  0  0  0  0  0999 V2000
  185.8050  179.2150  141.5460 C   0  0  1  0  0  3  0  0  0  0  0  0
  184.1880  178.8660  139.6310 C   0  0  0  0  0  0  0  0  0  0  0  0
  184.0440  176.7280  138.0910 C   0  0  0  0  0  1  0  0  0  0  0  0
  182.6970  178.8480  137.9520 C   0  0  0  0  0  0  0  0  0  0  0  0
  185.2210  178.3910  140.4960 N   0  0  0  0  0  2  0  0  0  0  0  0
  182.6720  180.0880  138.7110 C   0  0  0  0  0  0  0  0  0  0  0  0
  181.7230  180.9650  138.6600 N   0  0  0  0  0  2  0  0  0  0  0  0
  183.6380  178.1020  138.5090 C   0  0  0  0  0  0  0  0  0  0  0  0
  183.6150  180.0210  139.7750 N   0  0  0  0  0  0  0  0  0  0  0  0
  181.1950  178.2100  135.9310 N   0  0  0  0  0  0  0  0  0  0  0  0
  181.8610  178.4950  136.8310 C   0  0  0  0  0  0  0  0  0  0  0  0
  185.3200  178.7630  142.8850 C   0  0  0  0  0  0  0  0  0  0  0  0
  184.2570  178.6290  145.7880 C   0  0  0  0  0  3  0  0  0  0  0  0
  186.3290  178.6440  147.2580 C   0  0  0  0  0  1  0  0  0  0  0  0
  185.7160  178.4240  145.9210 C   0  0  0  0  0  0  0  0  0  0  0  0
  186.5040  178.0050  144.9300 C   0  0  0  0  0  3  0  0  0  0  0  0
  186.0010  177.6210  143.5770 C   0  0  0  0  0  2  0  0  0  0  0  0
  184.2080  179.3170  143.3700 C   0  0  0  0  0  3  0  0  0  0  0  0
  183.6050  179.0170  144.6850 C   0  0  0  0  0  3  0  0  0  0  0  0
  187.2620  179.1350  141.4980 N   0  0  0  0  0  2  0  0  0  0  0  0
  190.9470  176.9050  140.3260 C   0  0  0  0  0  2  0  0  0  0  0  0
  188.8520  177.9320  140.0300 C   0  0  0  0  0  0  0  0  0  0  0  0
  187.6230  178.6300  140.2390 N   0  0  0  0  0  2  0  0  0  0  0  0
  189.2430  177.5820  138.8570 N   0  0  0  0  0  0  0  0  0  0  0  0
  189.2410  176.6450  141.9760 O   0  0  0  0  0  1  0  0  0  0  0  0
  189.8210  177.5760  141.1130 C   0  0  1  0  0  3  0  0  0  0  0  0
  190.4840  176.9590  138.9490 N   0  0  0  0  0  0  0  0  0  0  0  0
  192.6310  176.4120  137.8790 C   0  0  0  0  0  3  0  0  0  0  0  0
  192.7020  175.6400  135.5820 C   0  0  0  0  0  3  0  0  0  0  0  0
  191.2340  176.5190  137.8090 C   0  0  0  0  0  0  0  0  0  0  0  0
  193.3620  175.9750  136.7700 C   0  0  0  0  0  3  0  0  0  0  0  0
  190.5800  176.1840  136.6130 C   0  0  0  0  0  3  0  0  0  0  0  0
  191.3100  175.7450  135.5040 C   0  0  0  0  0  3  0  0  0  0  0  0
  1  5  1  6  0  0  0
  1 12  1  0  0  0  0
  2  9  2  0  0  0  0
  2  5  1  0  0  0  0
  3  8  1  0  0  0  0
  4  8  2  0  0  0  0
  4  6  1  0  0  0  0
  6  9  1  0  0  0  0
  7  6  2  0  0  0  0
  8  2  1  0  0  0  0
 10 11  3  0  0  0  0
 11  4  1  0  0  0  0
 12 18  2  0  0  0  0
 12 17  1  0  0  0  0
 13 15  1  0  0  0  0
 15 14  1  0  0  0  0
 16 15  2  0  0  0  0
 17 16  1  0  0  0  0
 18 19  1  0  0  0  0
 19 13  2  0  0  0  0
 20  1  1  0  0  0  0
 21 26  1  0  0  0  0
 22 23  1  0  0  0  0
 22 26  1  0  0  0  0
 23 20  1  0  0  0  0
 24 27  1  0  0  0  0
 24 22  2  0  0  0  0
 26 25  1  1  0  0  0
 27 21  1  0  0  0  0
 29 31  1  0  0  0  0
 30 28  1  0  0  0  0
 30 27  1  0  0  0  0
 31 28  2  0  0  0  0
 32 30  2  0  0  0  0
 33 29  2  0  0  0  0
 33 32  1  0  0  0  0
M  END
>  <MODEL>
6

>  <REMARK>
 VINA RESULT:      -8.9      3.204      6.801
  Name = 
  6 active torsions:
  status: ('A' for Active; 'I' for Inactive)
    1  A    between atoms: C_3  and  C_33
    2  A    between atoms: C_8  and  C_27
    3  A    between atoms: N_11  and  C_33
    4  A    between atoms: C_12  and  N_31
    5  A    between atoms: N_13  and  N_32
    6  A    between atoms: N_32  and  C_33
                            x       y       z     vdW  Elec       q    Type
                         _______ _______ _______ _____ _____    ______ ____

>  <TORSDO>
F 6

$$$$
=
 OpenBabel11032420293D

 33 36  0  0  1  0  0  0  0  0999 V2000
  188.6100  177.4020  141.0040 C   0  0  1  0  0  3  0  0  0  0  0  0
  190.6750  176.7570  139.6890 C   0  0  0  0  0  0  0  0  0  0  0  0
  193.1510  177.4960  140.2270 C   0  0  0  0  0  1  0  0  0  0  0  0
  192.3190  176.0930  138.3120 C   0  0  0  0  0  0  0  0  0  0  0  0
  190.0540  177.3940  140.8080 N   0  0  0  0  0  2  0  0  0  0  0  0
  191.0100  175.6210  137.8910 C   0  0  0  0  0  0  0  0  0  0  0  0
  190.8060  174.6830  137.0240 N   0  0  0  0  0  2  0  0  0  0  0  0
  192.1110  176.8030  139.4100 C   0  0  0  0  0  0  0  0  0  0  0  0
  190.0210  176.0490  138.8210 N   0  0  0  0  0  0  0  0  0  0  0  0
  194.6010  175.6280  137.1610 N   0  0  0  0  0  0  0  0  0  0  0  0
  193.5850  175.8330  137.6740 C   0  0  0  0  0  0  0  0  0  0  0  0
  188.2850  177.1650  142.4420 C   0  0  0  0  0  0  0  0  0  0  0  0
  187.5040  177.4800  145.4200 C   0  0  0  0  0  3  0  0  0  0  0  0
  189.6930  177.8810  146.6450 C   0  0  0  0  0  1  0  0  0  0  0  0
  188.9800  177.3910  145.4350 C   0  0  0  0  0  0  0  0  0  0  0  0
  189.7060  176.8530  144.4540 C   0  0  0  0  0  3  0  0  0  0  0  0
  189.1130  176.2070  143.2440 C   0  0  0  0  0  2  0  0  0  0  0  0
  187.1810  177.7260  142.9390 C   0  0  0  0  0  3  0  0  0  0  0  0
  186.7260  177.6270  144.3400 C   0  0  0  0  0  3  0  0  0  0  0  0
  188.0500  178.6810  140.5760 N   0  0  0  0  0  2  0  0  0  0  0  0
  183.8150  178.1450  139.2690 C   0  0  0  0  0  2  0  0  0  0  0  0
  186.1450  178.3540  139.0280 C   0  0  0  0  0  0  0  0  0  0  0  0
  187.5430  178.5140  139.2770 N   0  0  0  0  0  2  0  0  0  0  0  0
  185.6930  178.0730  137.8590 N   0  0  0  0  0  0  0  0  0  0  0  0
  185.0170  179.7500  140.5670 O   0  0  0  0  0  1  0  0  0  0  0  0
  185.0800  178.4460  140.0740 C   0  0  1  0  0  3  0  0  0  0  0  0
  184.3090  177.9370  137.9180 N   0  0  0  0  0  0  0  0  0  0  0  0
  182.1460  177.8910  136.7480 C   0  0  0  0  0  3  0  0  0  0  0  0
  181.9320  176.8000  134.5940 C   0  0  0  0  0  3  0  0  0  0  0  0
  183.5040  177.5470  136.7970 C   0  0  0  0  0  0  0  0  0  0  0  0
  181.3620  177.5190  135.6500 C   0  0  0  0  0  3  0  0  0  0  0  0
  184.0670  176.8230  135.7340 C   0  0  0  0  0  3  0  0  0  0  0  0
  183.2850  176.4520  134.6360 C   0  0  0  0  0  3  0  0  0  0  0  0
  1 20  1  1  0  0  0
  1 12  1  0  0  0  0
  2  5  1  0  0  0  0
  4  8  2  0  0  0  0
  5  1  1  0  0  0  0
  6  4  1  0  0  0  0
  6  9  1  0  0  0  0
  7  6  2  0  0  0  0
  8  2  1  0  0  0  0
  8  3  1  0  0  0  0
  9  2  2  0  0  0  0
 10 11  3  0  0  0  0
 11  4  1  0  0  0  0
 12 18  2  0  0  0  0
 12 17  1  0  0  0  0
 13 15  1  0  0  0  0
 15 14  1  0  0  0  0
 16 15  2  0  0  0  0
 17 16  1  0  0  0  0
 18 19  1  0  0  0  0
 19 13  2  0  0  0  0
 21 26  1  0  0  0  0
 22 23  1  0  0  0  0
 22 26  1  0  0  0  0
 23 20  1  0  0  0  0
 24 27  1  0  0  0  0
 24 22  2  0  0  0  0
 26 25  1  6  0  0  0
 27 21  1  0  0  0  0
 28 30  1  0  0  0  0
 29 33  2  0  0  0  0
 29 31  1  0  0  0  0
 30 27  1  0  0  0  0
 31 28  2  0  0  0  0
 32 30  2  0  0  0  0
 33 32  1  0  0  0  0
M  END
>  <MODEL>
7

>  <REMARK>
 VINA RESULT:      -8.9      3.111      6.684
  Name = 
  6 active torsions:
  status: ('A' for Active; 'I' for Inactive)
    1  A    between atoms: C_3  and  C_33
    2  A    between atoms: C_8  and  C_27
    3  A    between atoms: N_11  and  C_33
    4  A    between atoms: C_12  and  N_31
    5  A    between atoms: N_13  and  N_32
    6  A    between atoms: N_32  and  C_33
                            x       y       z     vdW  Elec       q    Type
                         _______ _______ _______ _____ _____    ______ ____

>  <TORSDO>
F 6

$$$$
=
 OpenBabel11032420293D

 33 36  0  0  1  0  0  0  0  0999 V2000
  190.1760  176.1390  138.6300 C   0  0  1  0  0  3  0  0  0  0  0  0
  188.0490  176.4610  137.2960 C   0  0  0  0  0  0  0  0  0  0  0  0
  187.2880  178.6880  136.1020 C   0  0  0  0  0  1  0  0  0  0  0  0
  186.0710  176.4910  136.2330 C   0  0  0  0  0  0  0  0  0  0  0  0
  189.3040  176.9420  137.7830 N   0  0  0  0  0  2  0  0  0  0  0  0
  186.3570  175.2060  136.8510 C   0  0  0  0  0  0  0  0  0  0  0  0
  185.7330  174.1040  136.5860 N   0  0  0  0  0  2  0  0  0  0  0  0
  187.1050  177.2660  136.5190 C   0  0  0  0  0  0  0  0  0  0  0  0
  187.6340  175.2450  137.4780 N   0  0  0  0  0  0  0  0  0  0  0  0
  183.9740  177.1260  134.8380 N   0  0  0  0  0  0  0  0  0  0  0  0
  184.9090  176.8450  135.4580 C   0  0  0  0  0  0  0  0  0  0  0  0
  191.2800  175.5470  137.8170 C   0  0  0  0  0  0  0  0  0  0  0  0
  193.3870  173.6560  136.5660 C   0  0  0  0  0  3  0  0  0  0  0  0
  195.4560  173.9080  138.0180 C   0  0  0  0  0  1  0  0  0  0  0  0
  194.1460  174.4440  137.5610 C   0  0  0  0  0  0  0  0  0  0  0  0
  193.7520  175.6270  138.0340 C   0  0  0  0  0  3  0  0  0  0  0  0
  192.5260  176.3410  137.5640 C   0  0  0  0  0  2  0  0  0  0  0  0
  191.0690  174.3660  137.2330 C   0  0  0  0  0  3  0  0  0  0  0  0
  192.0560  173.6210  136.4250 C   0  0  0  0  0  3  0  0  0  0  0  0
  190.7370  176.9600  139.6990 N   0  0  0  0  0  2  0  0  0  0  0  0
  188.7080  176.4160  143.6380 C   0  0  0  0  0  2  0  0  0  0  0  0
  189.1480  177.3980  141.5460 C   0  0  0  0  0  0  0  0  0  0  0  0
  189.6890  177.7070  140.2610 N   0  0  0  0  0  2  0  0  0  0  0  0
  188.1080  177.9960  142.0060 N   0  0  0  0  0  0  0  0  0  0  0  0
  190.9600  176.7030  142.8970 O   0  0  0  0  0  1  0  0  0  0  0  0
  189.6830  176.3440  142.4630 C   0  0  1  0  0  3  0  0  0  0  0  0
  187.7830  177.4700  143.2530 N   0  0  0  0  0  0  0  0  0  0  0  0
  186.6610  177.8780  145.4030 C   0  0  0  0  0  3  0  0  0  0  0  0
  184.3670  178.6590  145.4680 C   0  0  0  0  0  3  0  0  0  0  0  0
  186.6260  177.8660  144.0020 C   0  0  0  0  0  0  0  0  0  0  0  0
  185.5350  178.2730  146.1340 C   0  0  0  0  0  3  0  0  0  0  0  0
  185.4490  178.2520  143.3410 C   0  0  0  0  0  3  0  0  0  0  0  0
  184.3240  178.6490  144.0710 C   0  0  0  0  0  3  0  0  0  0  0  0
  1  5  1  6  0  0  0
  1 20  1  0  0  0  0
  2  9  2  0  0  0  0
  2  5  1  0  0  0  0
  3  8  1  0  0  0  0
  4  8  2  0  0  0  0
  4  6  1  0  0  0  0
  6  9  1  0  0  0  0
  7  6  2  0  0  0  0
  8  2  1  0  0  0  0
 10 11  3  0  0  0  0
 11  4  1  0  0  0  0
 12  1  1  0  0  0  0
 13 15  1  0  0  0  0
 15 14  1  0  0  0  0
 15 16  2  0  0  0  0
 17 12  1  0  0  0  0
 17 16  1  0  0  0  0
 18 12  2  0  0  0  0
 19 13  2  0  0  0  0
 19 18  1  0  0  0  0
 20 23  1  0  0  0  0
 22 24  2  0  0  0  0
 22 26  1  0  0  0  0
 23 22  1  0  0  0  0
 24 27  1  0  0  0  0
 26 25  1  1  0  0  0
 26 21  1  0  0  0  0
 27 21  1  0  0  0  0
 27 30  1  0  0  0  0
 28 31  1  0  0  0  0
 29 31  2  0  0  0  0
 30 28  2  0  0  0  0
 32 30  1  0  0  0  0
 32 33  2  0  0  0  0
 33 29  1  0  0  0  0
M  END
>  <MODEL>
8

>  <REMARK>
 VINA RESULT:      -8.8      2.646      9.455
  Name = 
  6 active torsions:
  status: ('A' for Active; 'I' for Inactive)
    1  A    between atoms: C_3  and  C_33
    2  A    between atoms: C_8  and  C_27
    3  A    between atoms: N_11  and  C_33
    4  A    between atoms: C_12  and  N_31
    5  A    between atoms: N_13  and  N_32
    6  A    between atoms: N_32  and  C_33
                            x       y       z     vdW  Elec       q    Type
                         _______ _______ _______ _____ _____    ______ ____

>  <TORSDO>
F 6

$$$$
=
 OpenBabel11032420293D

 33 36  0  0  1  0  0  0  0  0999 V2000
  188.2480  177.6500  142.1600 C   0  0  1  0  0  3  0  0  0  0  0  0
  190.0740  177.1710  140.4740 C   0  0  0  0  0  0  0  0  0  0  0  0
  192.6640  177.5030  140.8560 C   0  0  0  0  0  1  0  0  0  0  0  0
  191.4770  176.7300  138.7770 C   0  0  0  0  0  0  0  0  0  0  0  0
  189.6520  177.5540  141.7850 N   0  0  0  0  0  2  0  0  0  0  0  0
  190.0830  176.5120  138.4250 C   0  0  0  0  0  0  0  0  0  0  0  0
  189.6790  175.8540  137.3870 N   0  0  0  0  0  2  0  0  0  0  0  0
  191.4700  177.1480  140.0340 C   0  0  0  0  0  0  0  0  0  0  0  0
  189.2540  176.7780  139.5500 N   0  0  0  0  0  0  0  0  0  0  0  0
  193.5560  176.3520  137.2660 N   0  0  0  0  0  0  0  0  0  0  0  0
  192.6310  176.5220  137.9390 C   0  0  0  0  0  0  0  0  0  0  0  0
  188.0690  177.2620  143.5910 C   0  0  0  0  0  0  0  0  0  0  0  0
  187.3890  177.2060  146.6090 C   0  0  0  0  0  3  0  0  0  0  0  0
  189.4630  178.0950  147.7770 C   0  0  0  0  0  1  0  0  0  0  0  0
  188.8380  177.5020  146.5650 C   0  0  0  0  0  0  0  0  0  0  0  0
  189.6250  177.2230  145.5250 C   0  0  0  0  0  3  0  0  0  0  0  0
  189.1550  176.5100  144.2990 C   0  0  0  0  0  2  0  0  0  0  0  0
  186.8860  177.4910  144.1630 C   0  0  0  0  0  3  0  0  0  0  0  0
  186.5440  177.2040  145.5710 C   0  0  0  0  0  3  0  0  0  0  0  0
  187.7630  179.0120  141.9540 N   0  0  0  0  0  2  0  0  0  0  0  0
  183.3170  178.6280  141.8620 C   0  0  0  0  0  2  0  0  0  0  0  0
  185.4870  178.8670  140.9900 C   0  0  0  0  0  0  0  0  0  0  0  0
  186.9030  178.9990  140.8450 N   0  0  0  0  0  2  0  0  0  0  0  0
  184.7130  178.7260  139.9750 N   0  0  0  0  0  0  0  0  0  0  0  0
  184.8880  180.0700  142.9350 O   0  0  0  0  0  1  0  0  0  0  0  0
  184.7670  178.8340  142.3000 C   0  0  1  0  0  3  0  0  0  0  0  0
  183.3990  178.5810  140.4110 N   0  0  0  0  0  0  0  0  0  0  0  0
  181.3740  177.3120  139.8270 C   0  0  0  0  0  3  0  0  0  0  0  0
  180.1280  177.8360  137.8160 C   0  0  0  0  0  3  0  0  0  0  0  0
  182.2960  178.3250  139.5300 C   0  0  0  0  0  0  0  0  0  0  0  0
  180.2940  177.0670  138.9730 C   0  0  0  0  0  3  0  0  0  0  0  0
  182.1240  179.0910  138.3660 C   0  0  0  0  0  3  0  0  0  0  0  0
  181.0420  178.8490  137.5130 C   0  0  0  0  0  3  0  0  0  0  0  0
  1  5  1  1  0  0  0
  1 12  1  0  0  0  0
  2  5  1  0  0  0  0
  4  8  2  0  0  0  0
  6  4  1  0  0  0  0
  6  9  1  0  0  0  0
  7  6  2  0  0  0  0
  8  2  1  0  0  0  0
  8  3  1  0  0  0  0
  9  2  2  0  0  0  0
 10 11  3  0  0  0  0
 11  4  1  0  0  0  0
 12 18  2  0  0  0  0
 12 17  1  0  0  0  0
 15 13  1  0  0  0  0
 15 14  1  0  0  0  0
 16 15  2  0  0  0  0
 17 16  1  0  0  0  0
 18 19  1  0  0  0  0
 19 13  2  0  0  0  0
 20  1  1  0  0  0  0
 21 26  1  0  0  0  0
 22 26  1  0  0  0  0
 23 22  1  0  0  0  0
 23 20  1  0  0  0  0
 24 27  1  0  0  0  0
 24 22  2  0  0  0  0
 26 25  1  6  0  0  0
 27 21  1  0  0  0  0
 29 31  1  0  0  0  0
 30 28  1  0  0  0  0
 30 27  1  0  0  0  0
 31 28  2  0  0  0  0
 32 30  2  0  0  0  0
 33 29  2  0  0  0  0
 33 32  1  0  0  0  0
M  END
>  <MODEL>
9

>  <REMARK>
 VINA RESULT:      -8.5      2.525      7.282
  Name = 
  6 active torsions:
  status: ('A' for Active; 'I' for Inactive)
    1  A    between atoms: C_3  and  C_33
    2  A    between atoms: C_8  and  C_27
    3  A    between atoms: N_11  and  C_33
    4  A    between atoms: C_12  and  N_31
    5  A    between atoms: N_13  and  N_32
    6  A    between atoms: N_32  and  C_33
                            x       y       z     vdW  Elec       q    Type
                         _______ _______ _______ _____ _____    ______ ____

>  <TORSDO>
F 6

$$$$
