=
 OpenBabel11042411463D

 47 52  0  0  1  0  0  0  0  0999 V2000
  182.8910  173.9560  136.8250 C   0  0  0  0  0  0  0  0  0  0  0  0
  182.5660  172.6690  136.8700 C   0  0  0  0  0  0  0  0  0  0  0  0
  180.3870  171.3180  136.3790 C   0  0  0  0  0  1  0  0  0  0  0  0
  182.7370  178.3630  139.7010 C   0  0  1  0  0  3  0  0  0  0  0  0
  184.1910  174.5150  137.0550 N   0  0  0  0  0  0  0  0  0  0  0  0
  181.7040  174.7580  136.4070 C   0  0  2  0  0  3  0  0  0  0  0  0
  181.9930  178.5120  141.0260 C   0  0  1  0  0  3  0  0  0  0  0  0
  181.6880  177.8570  138.7360 C   0  0  2  0  0  3  0  0  0  0  0  0
  185.2420  173.7050  137.3330 O   0  0  0  0  0  1  0  0  0  0  0  0
  184.4250  175.9160  136.8450 C   0  0  0  0  0  0  0  0  0  0  0  0
  183.4630  176.9160  137.2110 N   0  0  0  0  0  2  0  0  0  0  0  0
  189.1980  176.4060  135.5200 C   0  0  0  0  0  2  0  0  0  0  0  0
  186.7680  176.7360  136.0420 C   0  0  0  0  0  0  0  0  0  0  0  0
  181.3380  175.7370  137.4950 C   0  0  0  0  0  0  0  0  0  0  0  0
  180.6130  177.4130  139.5990 N   0  0  0  0  0  0  0  0  0  0  0  0
  180.0240  175.6060  138.1740 C   0  0  0  0  0  3  0  0  0  0  0  0
  187.8870  178.8670  136.6990 C   0  0  0  0  0  3  0  0  0  0  0  0
  181.1720  172.5780  136.4840 C   0  0  0  0  0  0  0  0  0  0  0  0
  180.7250  177.7890  140.9410 N   0  0  0  0  0  2  0  0  0  0  0  0
  182.1820  176.7410  137.8380 C   0  0  0  0  0  0  0  0  0  0  0  0
  180.6720  173.7380  136.2160 N   0  0  0  0  0  0  0  0  0  0  0  0
  187.8600  175.7360  135.8100 C   0  0  0  0  0  2  0  0  0  0  0  0
  179.7000  176.3960  139.1930 C   0  0  0  0  0  3  0  0  0  0  0  0
  183.4560  171.5200  137.2050 C   0  0  0  0  0  1  0  0  0  0  0  0
  186.9650  178.1840  135.7260 C   0  0  0  0  0  2  0  0  0  0  0  0
  189.7250  177.0830  136.7790 C   0  0  0  0  0  2  0  0  0  0  0  0
  189.0830  178.4090  137.1100 C   0  0  0  0  0  3  0  0  0  0  0  0
  185.5990  176.3220  136.4420 C   0  0  0  0  0  0  0  0  0  0  0  0
  183.2500  179.7280  139.2680 C   0  0  0  0  0  2  0  0  0  0  0  0
  184.6570  179.6140  138.7110 C   0  0  0  0  0  2  0  0  0  0  0  0
  185.5630  179.0410  139.7400 C   0  0  0  0  0  0  0  0  0  0  0  0
  186.2080  177.9900  139.4950 O   0  0  0  0  0  0  0  0  0  0  0  0
  185.6760  179.6490  140.9830 O   0  0  0  0  0  1  0  0  0  0  0  0
  182.8430  177.9560  142.1600 C   0  0  0  0  0  2  0  0  0  0  0  0
  183.0730  179.0020  143.2440 C   0  0  0  0  0  2  0  0  0  0  0  0
  185.1980  178.5140  146.3460 C   0  0  0  0  0  3  0  0  0  0  0  0
  186.3560  177.5550  144.4530 C   0  0  0  0  0  3  0  0  0  0  0  0
  184.2010  178.6130  144.1410 C   0  0  0  0  0  0  0  0  0  0  0  0
  185.3060  177.9370  143.6140 C   0  0  0  0  0  3  0  0  0  0  0  0
  184.1460  178.8990  145.5090 C   0  0  0  0  0  3  0  0  0  0  0  0
  186.3100  177.8450  145.8250 C   0  0  0  0  0  0  0  0  0  0  0  0
  187.3600  177.4520  146.7180 N   0  0  0  0  0  2  0  0  0  0  0  0
  188.7670  177.6090  146.5010 C   0  0  0  0  0  0  0  0  0  0  0  0
  189.5660  177.1170  147.3420 O   0  0  0  0  0  0  0  0  0  0  0  0
  189.2410  178.3200  145.3850 O   0  0  0  0  0  0  0  0  0  0  0  0
  190.0900  177.8260  144.3840 C   0  0  0  0  0  3  0  0  0  0  0  0
  189.9250  176.6520  143.7850 C   0  0  0  0  0  2  0  0  0  0  0  0
  1  2  2  0  0  0  0
  1  5  1  0  0  0  0
  2 24  1  0  0  0  0
  3 18  1  0  0  0  0
  4 29  1  6  0  0  0
  4  7  1  0  0  0  0
  5  9  1  0  0  0  0
  6 21  1  1  0  0  0
  6  1  1  0  0  0  0
  6 14  1  0  0  0  0
  7 34  1  1  0  0  0
  8 20  1  1  0  0  0
  8 15  1  0  0  0  0
  8  4  1  0  0  0  0
 10  5  1  0  0  0  0
 10 11  1  0  0  0  0
 11 20  1  0  0  0  0
 12 22  1  0  0  0  0
 12 26  1  0  0  0  0
 13 28  2  0  0  0  0
 14 20  2  0  0  0  0
 14 16  1  0  0  0  0
 15 19  1  0  0  0  0
 16 23  2  0  0  0  0
 17 27  2  0  0  0  0
 18  2  1  0  0  0  0
 19  7  1  0  0  0  0
 21 18  2  0  0  0  0
 22 13  1  0  0  0  0
 23 15  1  0  0  0  0
 25 13  1  0  0  0  0
 25 17  1  0  0  0  0
 26 27  1  0  0  0  0
 28 10  2  0  0  0  0
 30 29  1  0  0  0  0
 30 31  1  0  0  0  0
 31 33  1  0  0  0  0
 32 31  2  0  0  0  0
 34 35  1  0  0  0  0
 35 38  1  0  0  0  0
 37 41  2  0  0  0  0
 38 40  1  0  0  0  0
 39 38  2  0  0  0  0
 39 37  1  0  0  0  0
 40 36  2  0  0  0  0
 41 36  1  0  0  0  0
 41 42  1  0  0  0  0
 43 42  1  0  0  0  0
 43 44  2  0  0  0  0
 45 43  1  0  0  0  0
 46 45  1  0  0  0  0
 47 46  2  0  0  0  0
M  END
>  <MODEL>
1

>  <REMARK>
 VINA RESULT:      -8.3      0.000      0.000
  Name = 
  9 active torsions:
  status: ('A' for Active; 'I' for Inactive)
    1  A    between atoms: C_2  and  O_47
    2  A    between atoms: C_4  and  C_46
    3  A    between atoms: C_6  and  C_18
    4  A    between atoms: N_9  and  C_40
    5  A    between atoms: C_10  and  O_47
    6  A    between atoms: C_12  and  C_45
    7  A    between atoms: C_18  and  C_46
    8  A    between atoms: C_29  and  C_31
    9  A    between atoms: C_29  and  C_45
                            x       y       z     vdW  Elec       q    Type
                         _______ _______ _______ _____ _____    ______ ____

>  <TORSDO>
F 9

$$$$
=
 OpenBabel11042411463D

 47 52  0  0  1  0  0  0  0  0999 V2000
  182.3650  173.8660  136.7420 C   0  0  0  0  0  0  0  0  0  0  0  0
  181.4680  172.8920  136.8520 C   0  0  0  0  0  0  0  0  0  0  0  0
  178.9320  172.6730  136.2760 C   0  0  0  0  0  1  0  0  0  0  0  0
  184.1960  178.1090  139.2650 C   0  0  1  0  0  3  0  0  0  0  0  0
  183.7650  173.7740  137.0420 N   0  0  0  0  0  0  0  0  0  0  0  0
  181.7180  175.0810  136.1660 C   0  0  2  0  0  3  0  0  0  0  0  0
  183.5560  178.7270  140.5060 C   0  0  1  0  0  3  0  0  0  0  0  0
  183.0730  178.0540  138.2510 C   0  0  2  0  0  3  0  0  0  0  0  0
  184.2940  172.6010  137.4680 O   0  0  0  0  0  1  0  0  0  0  0  0
  184.6420  174.8730  136.7510 C   0  0  0  0  0  0  0  0  0  0  0  0
  184.2530  176.2380  136.9580 N   0  0  0  0  0  2  0  0  0  0  0  0
  189.1290  172.9340  135.8100 C   0  0  0  0  0  2  0  0  0  0  0  0
  187.1250  174.4130  136.0960 C   0  0  0  0  0  0  0  0  0  0  0  0
  181.8140  176.2250  137.1430 C   0  0  0  0  0  0  0  0  0  0  0  0
  181.8810  178.2570  139.0490 N   0  0  0  0  0  0  0  0  0  0  0  0
  180.5670  176.7960  137.7140 C   0  0  0  0  0  3  0  0  0  0  0  0
  189.0910  175.8300  136.6890 C   0  0  0  0  0  3  0  0  0  0  0  0
  180.2150  173.4230  136.3560 C   0  0  0  0  0  0  0  0  0  0  0  0
  182.1020  178.6760  140.3650 N   0  0  0  0  0  2  0  0  0  0  0  0
  183.0170  176.7480  137.4840 C   0  0  0  0  0  0  0  0  0  0  0  0
  180.3340  174.6470  135.9610 N   0  0  0  0  0  0  0  0  0  0  0  0
  187.6230  173.0010  136.0320 C   0  0  0  0  0  2  0  0  0  0  0  0
  180.6130  177.7480  138.6420 C   0  0  0  0  0  3  0  0  0  0  0  0
  181.6930  171.5030  137.3460 C   0  0  0  0  0  1  0  0  0  0  0  0
  187.9970  175.5590  135.6920 C   0  0  0  0  0  2  0  0  0  0  0  0
  189.8610  173.4140  137.0570 C   0  0  0  0  0  2  0  0  0  0  0  0
  189.9100  174.9130  137.2340 C   0  0  0  0  0  3  0  0  0  0  0  0
  185.8840  174.6380  136.4220 C   0  0  0  0  0  0  0  0  0  0  0  0
  185.3100  179.0230  138.7790 C   0  0  0  0  0  2  0  0  0  0  0  0
  186.5180  178.2070  138.3570 C   0  0  0  0  0  2  0  0  0  0  0  0
  187.6580  178.4810  139.2700 C   0  0  0  0  0  0  0  0  0  0  0  0
  187.5180  178.3400  140.5120 O   0  0  0  0  0  1  0  0  0  0  0  0
  188.8700  178.9220  138.7550 O   0  0  0  0  0  0  0  0  0  0  0  0
  183.9940  177.9610  141.7470 C   0  0  0  0  0  2  0  0  0  0  0  0
  183.8470  178.8110  143.0030 C   0  0  0  0  0  2  0  0  0  0  0  0
  185.7210  178.5250  146.2850 C   0  0  0  0  0  3  0  0  0  0  0  0
  187.0020  177.4150  144.5620 C   0  0  0  0  0  3  0  0  0  0  0  0
  184.8970  178.4750  144.0090 C   0  0  0  0  0  0  0  0  0  0  0  0
  186.0260  177.7480  143.6190 C   0  0  0  0  0  3  0  0  0  0  0  0
  184.7440  178.8610  145.3440 C   0  0  0  0  0  3  0  0  0  0  0  0
  186.8580  177.8050  145.9020 C   0  0  0  0  0  0  0  0  0  0  0  0
  187.8300  177.4650  146.8990 N   0  0  0  0  0  2  0  0  0  0  0  0
  189.2490  177.6270  146.7960 C   0  0  0  0  0  0  0  0  0  0  0  0
  189.9750  177.1830  147.7240 O   0  0  0  0  0  0  0  0  0  0  0  0
  189.8120  178.2910  145.6930 O   0  0  0  0  0  0  0  0  0  0  0  0
  190.7910  177.7800  144.8260 C   0  0  0  0  0  3  0  0  0  0  0  0
  191.5740  178.5360  144.0660 C   0  0  0  0  0  2  0  0  0  0  0  0
  1  2  2  0  0  0  0
  1  5  1  0  0  0  0
  2 24  1  0  0  0  0
  3 18  1  0  0  0  0
  4 29  1  6  0  0  0
  4  7  1  0  0  0  0
  5  9  1  0  0  0  0
  6 21  1  1  0  0  0
  6  1  1  0  0  0  0
  6 14  1  0  0  0  0
  7 34  1  1  0  0  0
  8 20  1  1  0  0  0
  8 15  1  0  0  0  0
  8  4  1  0  0  0  0
 10 11  1  0  0  0  0
 10  5  1  0  0  0  0
 11 20  1  0  0  0  0
 12 22  1  0  0  0  0
 12 26  1  0  0  0  0
 13 28  2  0  0  0  0
 14 20  2  0  0  0  0
 14 16  1  0  0  0  0
 15 19  1  0  0  0  0
 16 23  2  0  0  0  0
 17 27  2  0  0  0  0
 18  2  1  0  0  0  0
 19  7  1  0  0  0  0
 21 18  2  0  0  0  0
 22 13  1  0  0  0  0
 23 15  1  0  0  0  0
 25 13  1  0  0  0  0
 25 17  1  0  0  0  0
 26 27  1  0  0  0  0
 28 10  2  0  0  0  0
 30 29  1  0  0  0  0
 30 31  1  0  0  0  0
 31 32  1  0  0  0  0
 33 31  2  0  0  0  0
 34 35  1  0  0  0  0
 35 38  1  0  0  0  0
 37 41  2  0  0  0  0
 38 40  1  0  0  0  0
 39 38  2  0  0  0  0
 39 37  1  0  0  0  0
 40 36  2  0  0  0  0
 41 36  1  0  0  0  0
 41 42  1  0  0  0  0
 43 42  1  0  0  0  0
 43 44  2  0  0  0  0
 45 43  1  0  0  0  0
 46 45  1  0  0  0  0
 47 46  2  0  0  0  0
M  END
>  <MODEL>
2

>  <REMARK>
 VINA RESULT:      -8.3      1.465      1.823
  Name = 
  9 active torsions:
  status: ('A' for Active; 'I' for Inactive)
    1  A    between atoms: C_2  and  O_47
    2  A    between atoms: C_4  and  C_46
    3  A    between atoms: C_6  and  C_18
    4  A    between atoms: N_9  and  C_40
    5  A    between atoms: C_10  and  O_47
    6  A    between atoms: C_12  and  C_45
    7  A    between atoms: C_18  and  C_46
    8  A    between atoms: C_29  and  C_31
    9  A    between atoms: C_29  and  C_45
                            x       y       z     vdW  Elec       q    Type
                         _______ _______ _______ _____ _____    ______ ____

>  <TORSDO>
F 9

$$$$
=
 OpenBabel11042411463D

 47 52  0  0  1  0  0  0  0  0999 V2000
  182.5510  175.1370  137.0910 C   0  0  0  0  0  0  0  0  0  0  0  0
  181.5010  174.3260  137.0320 C   0  0  0  0  0  0  0  0  0  0  0  0
  178.9620  174.6600  136.5230 C   0  0  0  0  0  1  0  0  0  0  0  0
  185.0910  178.3870  140.3630 C   0  0  1  0  0  3  0  0  0  0  0  0
  183.9150  174.7510  137.3100 N   0  0  0  0  0  0  0  0  0  0  0  0
  182.1200  176.5370  136.8040 C   0  0  2  0  0  3  0  0  0  0  0  0
  184.5710  178.8270  141.7300 C   0  0  1  0  0  3  0  0  0  0  0  0
  183.9710  178.7350  139.4050 C   0  0  2  0  0  3  0  0  0  0  0  0
  184.2360  173.4440  137.4630 O   0  0  0  0  0  1  0  0  0  0  0  0
  184.9670  175.7250  137.2180 C   0  0  0  0  0  0  0  0  0  0  0  0
  184.8190  177.0620  137.7190 N   0  0  0  0  0  2  0  0  0  0  0  0
  189.0520  173.3070  135.7210 C   0  0  0  0  0  2  0  0  0  0  0  0
  187.3320  175.0060  136.3850 C   0  0  0  0  0  0  0  0  0  0  0  0
  182.4130  177.4170  137.9930 C   0  0  0  0  0  0  0  0  0  0  0  0
  182.8350  178.9610  140.2740 N   0  0  0  0  0  0  0  0  0  0  0  0
  181.2850  178.0550  138.7180 C   0  0  0  0  0  3  0  0  0  0  0  0
  189.5140  175.9180  137.1810 C   0  0  0  0  0  3  0  0  0  0  0  0
  180.3550  175.1510  136.7060 C   0  0  0  0  0  0  0  0  0  0  0  0
  183.1290  179.0510  141.6380 N   0  0  0  0  0  2  0  0  0  0  0  0
  183.6900  177.6480  138.3870 C   0  0  0  0  0  0  0  0  0  0  0  0
  180.6820  176.3930  136.5690 N   0  0  0  0  0  0  0  0  0  0  0  0
  187.5800  173.5760  136.0110 C   0  0  0  0  0  2  0  0  0  0  0  0
  181.4970  178.7690  139.8200 C   0  0  0  0  0  3  0  0  0  0  0  0
  181.4860  172.8460  137.2190 C   0  0  0  0  0  1  0  0  0  0  0  0
  188.3860  176.0490  136.1940 C   0  0  0  0  0  2  0  0  0  0  0  0
  189.8590  173.3840  137.0110 C   0  0  0  0  0  2  0  0  0  0  0  0
  190.1650  174.7830  137.4920 C   0  0  0  0  0  3  0  0  0  0  0  0
  186.1490  175.3610  136.7990 C   0  0  0  0  0  0  0  0  0  0  0  0
  186.3440  179.1830  140.0340 C   0  0  0  0  0  2  0  0  0  0  0  0
  187.5380  178.6280  140.7860 C   0  0  0  0  0  2  0  0  0  0  0  0
  188.6770  178.4290  139.8520 C   0  0  0  0  0  0  0  0  0  0  0  0
  188.6810  179.0030  138.7330 O   0  0  0  0  0  0  0  0  0  0  0  0
  189.7230  177.5860  140.2020 O   0  0  0  0  0  1  0  0  0  0  0  0
  184.8740  177.7550  142.7670 C   0  0  0  0  0  2  0  0  0  0  0  0
  184.9370  178.3450  144.1700 C   0  0  0  0  0  2  0  0  0  0  0  0
  188.3830  176.9110  144.8360 C   0  0  0  0  0  3  0  0  0  0  0  0
  187.5370  177.8780  146.8840 C   0  0  0  0  0  3  0  0  0  0  0  0
  186.1900  177.9370  144.8730 C   0  0  0  0  0  0  0  0  0  0  0  0
  186.3580  178.2420  146.2270 C   0  0  0  0  0  3  0  0  0  0  0  0
  187.2050  177.2730  144.1770 C   0  0  0  0  0  3  0  0  0  0  0  0
  188.5560  177.2060  146.1920 C   0  0  0  0  0  0  0  0  0  0  0  0
  189.7850  176.8340  146.8290 N   0  0  0  0  0  2  0  0  0  0  0  0
  191.1070  177.0500  146.3220 C   0  0  0  0  0  0  0  0  0  0  0  0
  192.0830  176.5700  146.9580 O   0  0  0  0  0  0  0  0  0  0  0  0
  191.3070  177.8030  145.1520 O   0  0  0  0  0  0  0  0  0  0  0  0
  191.6170  177.2970  143.8810 C   0  0  0  0  0  3  0  0  0  0  0  0
  191.6800  176.0030  143.5940 C   0  0  0  0  0  2  0  0  0  0  0  0
  1  5  1  0  0  0  0
  2  1  2  0  0  0  0
  2 24  1  0  0  0  0
  3 18  1  0  0  0  0
  4 29  1  6  0  0  0
  4  7  1  0  0  0  0
  5  9  1  0  0  0  0
  6 21  1  1  0  0  0
  6  1  1  0  0  0  0
  6 14  1  0  0  0  0
  7 34  1  1  0  0  0
  8 20  1  6  0  0  0
  8 15  1  0  0  0  0
  8  4  1  0  0  0  0
 10  5  1  0  0  0  0
 10 11  1  0  0  0  0
 11 20  1  0  0  0  0
 12 22  1  0  0  0  0
 12 26  1  0  0  0  0
 13 28  2  0  0  0  0
 14 20  2  0  0  0  0
 14 16  1  0  0  0  0
 15 19  1  0  0  0  0
 16 23  2  0  0  0  0
 17 27  2  0  0  0  0
 18  2  1  0  0  0  0
 19  7  1  0  0  0  0
 21 18  2  0  0  0  0
 22 13  1  0  0  0  0
 23 15  1  0  0  0  0
 25 13  1  0  0  0  0
 25 17  1  0  0  0  0
 26 27  1  0  0  0  0
 28 10  2  0  0  0  0
 29 30  1  0  0  0  0
 31 33  1  0  0  0  0
 31 30  1  0  0  0  0
 32 31  2  0  0  0  0
 34 35  1  0  0  0  0
 35 38  1  0  0  0  0
 36 41  1  0  0  0  0
 38 39  2  0  0  0  0
 39 37  1  0  0  0  0
 40 36  2  0  0  0  0
 40 38  1  0  0  0  0
 41 42  1  0  0  0  0
 41 37  2  0  0  0  0
 43 42  1  0  0  0  0
 43 44  2  0  0  0  0
 45 43  1  0  0  0  0
 46 45  1  0  0  0  0
 47 46  2  0  0  0  0
M  END
>  <MODEL>
3

>  <REMARK>
 VINA RESULT:      -8.0      1.808      2.646
  Name = 
  9 active torsions:
  status: ('A' for Active; 'I' for Inactive)
    1  A    between atoms: C_2  and  O_47
    2  A    between atoms: C_4  and  C_46
    3  A    between atoms: C_6  and  C_18
    4  A    between atoms: N_9  and  C_40
    5  A    between atoms: C_10  and  O_47
    6  A    between atoms: C_12  and  C_45
    7  A    between atoms: C_18  and  C_46
    8  A    between atoms: C_29  and  C_31
    9  A    between atoms: C_29  and  C_45
                            x       y       z     vdW  Elec       q    Type
                         _______ _______ _______ _____ _____    ______ ____

>  <TORSDO>
F 9

$$$$
=
 OpenBabel11042411463D

 47 52  0  0  1  0  0  0  0  0999 V2000
  182.8480  173.9980  136.5280 C   0  0  0  0  0  0  0  0  0  0  0  0
  182.5450  172.7080  136.6240 C   0  0  0  0  0  0  0  0  0  0  0  0
  180.5130  171.2490  135.8770 C   0  0  0  0  0  1  0  0  0  0  0  0
  182.1020  178.6130  138.9500 C   0  0  1  0  0  3  0  0  0  0  0  0
  184.0760  174.6180  136.9330 N   0  0  0  0  0  0  0  0  0  0  0  0
  181.7370  174.7240  135.8430 C   0  0  2  0  0  3  0  0  0  0  0  0
  181.1340  178.8410  140.1080 C   0  0  1  0  0  3  0  0  0  0  0  0
  181.2500  177.9950  137.8630 C   0  0  2  0  0  3  0  0  0  0  0  0
  185.0760  173.8690  137.4570 O   0  0  0  0  0  1  0  0  0  0  0  0
  184.3150  176.0050  136.6490 C   0  0  0  0  0  0  0  0  0  0  0  0
  183.2840  176.9970  136.7560 N   0  0  0  0  0  2  0  0  0  0  0  0
  189.2370  176.5500  136.1380 C   0  0  0  0  0  2  0  0  0  0  0  0
  186.7470  176.8380  136.2000 C   0  0  0  0  0  0  0  0  0  0  0  0
  181.1660  175.7720  136.7640 C   0  0  0  0  0  0  0  0  0  0  0  0
  180.0490  177.5860  138.5600 N   0  0  0  0  0  0  0  0  0  0  0  0
  179.7560  175.6520  137.2120 C   0  0  0  0  0  3  0  0  0  0  0  0
  187.6900  179.0510  136.8590 C   0  0  0  0  0  3  0  0  0  0  0  0
  181.2430  172.5390  136.0110 C   0  0  0  0  0  0  0  0  0  0  0  0
  179.9150  178.0710  139.8650 N   0  0  0  0  0  2  0  0  0  0  0  0
  181.9160  176.8290  137.1630 C   0  0  0  0  0  0  0  0  0  0  0  0
  180.7750  173.6560  135.5620 N   0  0  0  0  0  0  0  0  0  0  0  0
  187.8820  175.8600  136.2470 C   0  0  0  0  0  2  0  0  0  0  0  0
  179.2410  176.5090  138.0890 C   0  0  0  0  0  3  0  0  0  0  0  0
  183.3840  171.6210  137.2050 C   0  0  0  0  0  1  0  0  0  0  0  0
  186.9680  178.2610  135.8010 C   0  0  0  0  0  2  0  0  0  0  0  0
  189.5200  177.3430  137.4080 C   0  0  0  0  0  2  0  0  0  0  0  0
  188.8030  178.6690  137.5090 C   0  0  0  0  0  3  0  0  0  0  0  0
  185.5340  176.4170  136.4230 C   0  0  0  0  0  0  0  0  0  0  0  0
  182.6560  179.9550  138.4990 C   0  0  0  0  0  2  0  0  0  0  0  0
  181.7040  181.0750  138.8750 C   0  0  0  0  0  2  0  0  0  0  0  0
  181.2030  181.7470  137.6480 C   0  0  0  0  0  0  0  0  0  0  0  0
  181.0430  181.0860  136.5890 O   0  0  0  0  0  0  0  0  0  0  0  0
  180.9380  183.1090  137.6600 O   0  0  0  0  0  1  0  0  0  0  0  0
  181.7810  178.4070  141.4160 C   0  0  0  0  0  2  0  0  0  0  0  0
  183.2920  178.2830  141.2710 C   0  0  0  0  0  2  0  0  0  0  0  0
  183.8950  179.0110  144.9430 C   0  0  0  0  0  3  0  0  0  0  0  0
  185.9950  178.3850  143.9210 C   0  0  0  0  0  3  0  0  0  0  0  0
  183.9780  178.4690  142.5840 C   0  0  0  0  0  0  0  0  0  0  0  0
  185.3520  178.2290  142.6900 C   0  0  0  0  0  3  0  0  0  0  0  0
  183.2500  178.8570  143.7120 C   0  0  0  0  0  3  0  0  0  0  0  0
  185.2700  178.7810  145.0560 C   0  0  0  0  0  0  0  0  0  0  0  0
  185.8920  178.9320  146.3380 N   0  0  0  0  0  2  0  0  0  0  0  0
  186.9780  178.1540  146.8550 C   0  0  0  0  0  0  0  0  0  0  0  0
  187.3450  178.3470  148.0440 O   0  0  0  0  0  0  0  0  0  0  0  0
  187.6340  177.2150  146.0400 O   0  0  0  0  0  0  0  0  0  0  0  0
  189.0150  177.1330  145.8120 C   0  0  0  0  0  3  0  0  0  0  0  0
  189.6980  178.0030  145.0770 C   0  0  0  0  0  2  0  0  0  0  0  0
  1  2  2  0  0  0  0
  1  5  1  0  0  0  0
  2 24  1  0  0  0  0
  3 18  1  0  0  0  0
  4 29  1  6  0  0  0
  4  7  1  0  0  0  0
  5  9  1  0  0  0  0
  6 21  1  1  0  0  0
  6  1  1  0  0  0  0
  6 14  1  0  0  0  0
  7 34  1  1  0  0  0
  8 20  1  1  0  0  0
  8 15  1  0  0  0  0
  8  4  1  0  0  0  0
 10 11  1  0  0  0  0
 10  5  1  0  0  0  0
 11 20  1  0  0  0  0
 12 22  1  0  0  0  0
 12 26  1  0  0  0  0
 13 22  1  0  0  0  0
 13 28  2  0  0  0  0
 14 20  2  0  0  0  0
 14 16  1  0  0  0  0
 15 19  1  0  0  0  0
 16 23  2  0  0  0  0
 17 27  2  0  0  0  0
 18  2  1  0  0  0  0
 19  7  1  0  0  0  0
 21 18  2  0  0  0  0
 23 15  1  0  0  0  0
 25 13  1  0  0  0  0
 25 17  1  0  0  0  0
 26 27  1  0  0  0  0
 28 10  2  0  0  0  0
 29 30  1  0  0  0  0
 31 33  1  0  0  0  0
 31 30  1  0  0  0  0
 32 31  2  0  0  0  0
 35 34  1  0  0  0  0
 35 38  1  0  0  0  0
 36 41  1  0  0  0  0
 37 41  2  0  0  0  0
 38 39  2  0  0  0  0
 38 40  1  0  0  0  0
 39 37  1  0  0  0  0
 40 36  2  0  0  0  0
 41 42  1  0  0  0  0
 42 43  1  0  0  0  0
 43 44  2  0  0  0  0
 45 43  1  0  0  0  0
 46 45  1  0  0  0  0
 47 46  2  0  0  0  0
M  END
>  <MODEL>
4

>  <REMARK>
 VINA RESULT:      -8.0      1.743      2.035
  Name = 
  9 active torsions:
  status: ('A' for Active; 'I' for Inactive)
    1  A    between atoms: C_2  and  O_47
    2  A    between atoms: C_4  and  C_46
    3  A    between atoms: C_6  and  C_18
    4  A    between atoms: N_9  and  C_40
    5  A    between atoms: C_10  and  O_47
    6  A    between atoms: C_12  and  C_45
    7  A    between atoms: C_18  and  C_46
    8  A    between atoms: C_29  and  C_31
    9  A    between atoms: C_29  and  C_45
                            x       y       z     vdW  Elec       q    Type
                         _______ _______ _______ _____ _____    ______ ____

>  <TORSDO>
F 9

$$$$
=
 OpenBabel11042411463D

 47 52  0  0  1  0  0  0  0  0999 V2000
  187.4830  174.1960  135.6260 C   0  0  0  0  0  0  0  0  0  0  0  0
  186.2040  173.8370  135.5850 C   0  0  0  0  0  0  0  0  0  0  0  0
  183.9920  175.0390  134.8960 C   0  0  0  0  0  1  0  0  0  0  0  0
  191.0070  176.6010  138.7110 C   0  0  1  0  0  3  0  0  0  0  0  0
  188.5940  173.3540  135.9620 N   0  0  0  0  0  0  0  0  0  0  0  0
  187.6200  175.6140  135.1800 C   0  0  2  0  0  3  0  0  0  0  0  0
  190.6680  177.3550  139.9950 C   0  0  1  0  0  3  0  0  0  0  0  0
  190.1200  177.2330  137.6600 C   0  0  2  0  0  3  0  0  0  0  0  0
  188.3930  172.0470  136.2600 O   0  0  0  0  0  1  0  0  0  0  0  0
  189.9380  173.8450  135.8380 C   0  0  0  0  0  0  0  0  0  0  0  0
  190.2990  175.1860  136.1970 N   0  0  0  0  0  2  0  0  0  0  0  0
  192.8260  169.9180  134.8270 C   0  0  0  0  0  2  0  0  0  0  0  0
  191.8690  172.2020  135.2200 C   0  0  0  0  0  0  0  0  0  0  0  0
  188.2040  176.4470  136.2930 C   0  0  0  0  0  0  0  0  0  0  0  0
  189.1390  177.9660  138.4330 N   0  0  0  0  0  0  0  0  0  0  0  0
  187.3900  177.5380  136.8850 C   0  0  0  0  0  3  0  0  0  0  0  0
  194.2180  172.3120  136.0510 C   0  0  0  0  0  3  0  0  0  0  0  0
  185.4640  174.9890  135.1130 C   0  0  0  0  0  0  0  0  0  0  0  0
  189.4210  178.0910  139.7970 N   0  0  0  0  0  2  0  0  0  0  0  0
  189.4660  176.2250  136.7370 C   0  0  0  0  0  0  0  0  0  0  0  0
  186.2400  175.9940  134.8750 N   0  0  0  0  0  0  0  0  0  0  0  0
  191.5620  170.7510  135.0030 C   0  0  0  0  0  2  0  0  0  0  0  0
  187.8370  178.2400  137.9220 C   0  0  0  0  0  3  0  0  0  0  0  0
  185.6260  172.5020  135.9130 C   0  0  0  0  0  1  0  0  0  0  0  0
  193.2420  172.7450  134.9910 C   0  0  0  0  0  2  0  0  0  0  0  0
  193.5790  169.8320  136.1490 C   0  0  0  0  0  2  0  0  0  0  0  0
  194.3840  171.0580  136.5090 C   0  0  0  0  0  3  0  0  0  0  0  0
  190.9010  173.0190  135.5270 C   0  0  0  0  0  0  0  0  0  0  0  0
  192.4740  176.8260  138.3800 C   0  0  0  0  0  2  0  0  0  0  0  0
  192.9830  175.7350  137.4580 C   0  0  0  0  0  2  0  0  0  0  0  0
  193.6280  176.3410  136.2640 C   0  0  0  0  0  0  0  0  0  0  0  0
  193.2040  176.0660  135.1120 O   0  0  0  0  0  0  0  0  0  0  0  0
  194.7170  177.1880  136.4180 O   0  0  0  0  0  1  0  0  0  0  0  0
  190.5240  176.3710  141.1480 C   0  0  0  0  0  2  0  0  0  0  0  0
  191.0680  176.9550  142.4460 C   0  0  0  0  0  2  0  0  0  0  0  0
  187.6540  176.9590  144.0940 C   0  0  0  0  0  3  0  0  0  0  0  0
  189.2600  177.9020  145.6350 C   0  0  0  0  0  3  0  0  0  0  0  0
  189.9780  177.1630  143.4440 C   0  0  0  0  0  0  0  0  0  0  0  0
  190.2750  177.7230  144.6910 C   0  0  0  0  0  3  0  0  0  0  0  0
  188.6660  176.7790  143.1470 C   0  0  0  0  0  3  0  0  0  0  0  0
  187.9410  177.5250  145.3400 C   0  0  0  0  0  0  0  0  0  0  0  0
  186.8800  177.6780  146.2910 N   0  0  0  0  0  2  0  0  0  0  0  0
  185.5860  178.2390  146.0410 C   0  0  0  0  0  0  0  0  0  0  0  0
  184.7980  178.3950  147.0120 O   0  0  0  0  0  0  0  0  0  0  0  0
  185.1990  178.5820  144.7350 O   0  0  0  0  0  0  0  0  0  0  0  0
  183.9840  179.1740  144.3560 C   0  0  0  0  0  3  0  0  0  0  0  0
  183.4140  179.0000  143.1690 C   0  0  0  0  0  2  0  0  0  0  0  0
  1  5  1  0  0  0  0
  2  1  2  0  0  0  0
  2 24  1  0  0  0  0
  3 18  1  0  0  0  0
  4 29  1  6  0  0  0
  4  7  1  0  0  0  0
  5  9  1  0  0  0  0
  6 21  1  1  0  0  0
  6  1  1  0  0  0  0
  6 14  1  0  0  0  0
  7 34  1  1  0  0  0
  8 20  1  1  0  0  0
  8 15  1  0  0  0  0
  8  4  1  0  0  0  0
 10  5  1  0  0  0  0
 10 11  1  0  0  0  0
 11 20  1  0  0  0  0
 12 22  1  0  0  0  0
 12 26  1  0  0  0  0
 13 28  2  0  0  0  0
 14 20  2  0  0  0  0
 14 16  1  0  0  0  0
 15 19  1  0  0  0  0
 16 23  2  0  0  0  0
 17 27  2  0  0  0  0
 18  2  1  0  0  0  0
 19  7  1  0  0  0  0
 21 18  2  0  0  0  0
 22 13  1  0  0  0  0
 23 15  1  0  0  0  0
 25 13  1  0  0  0  0
 25 17  1  0  0  0  0
 26 27  1  0  0  0  0
 28 10  2  0  0  0  0
 30 29  1  0  0  0  0
 31 33  1  0  0  0  0
 31 30  1  0  0  0  0
 32 31  2  0  0  0  0
 34 35  1  0  0  0  0
 35 38  1  0  0  0  0
 36 41  1  0  0  0  0
 38 39  2  0  0  0  0
 39 37  1  0  0  0  0
 40 38  1  0  0  0  0
 40 36  2  0  0  0  0
 41 37  2  0  0  0  0
 41 42  1  0  0  0  0
 43 42  1  0  0  0  0
 43 44  2  0  0  0  0
 45 43  1  0  0  0  0
 46 45  1  0  0  0  0
 47 46  2  0  0  0  0
M  END
>  <MODEL>
5

>  <REMARK>
 VINA RESULT:      -7.9      4.112      6.885
  Name = 
  9 active torsions:
  status: ('A' for Active; 'I' for Inactive)
    1  A    between atoms: C_2  and  O_47
    2  A    between atoms: C_4  and  C_46
    3  A    between atoms: C_6  and  C_18
    4  A    between atoms: N_9  and  C_40
    5  A    between atoms: C_10  and  O_47
    6  A    between atoms: C_12  and  C_45
    7  A    between atoms: C_18  and  C_46
    8  A    between atoms: C_29  and  C_31
    9  A    between atoms: C_29  and  C_45
                            x       y       z     vdW  Elec       q    Type
                         _______ _______ _______ _____ _____    ______ ____

>  <TORSDO>
F 9

$$$$
=
 OpenBabel11042411463D

 47 52  0  0  1  0  0  0  0  0999 V2000
  188.5570  177.8960  142.9010 C   0  0  0  0  0  0  0  0  0  0  0  0
  189.0440  177.5160  144.0770 C   0  0  0  0  0  0  0  0  0  0  0  0
  191.3240  177.8480  145.3040 C   0  0  0  0  0  1  0  0  0  0  0  0
  188.4090  176.4800  137.8310 C   0  0  1  0  0  3  0  0  0  0  0  0
  187.2220  177.6850  142.4210 N   0  0  0  0  0  0  0  0  0  0  0  0
  189.5940  178.6720  142.1570 C   0  0  2  0  0  3  0  0  0  0  0  0
  189.2420  175.3580  137.2170 C   0  0  1  0  0  3  0  0  0  0  0  0
  189.4260  177.3750  138.5080 C   0  0  2  0  0  3  0  0  0  0  0  0
  186.3100  177.0570  143.2020 O   0  0  0  0  0  1  0  0  0  0  0  0
  186.7980  178.2670  141.1790 C   0  0  0  0  0  0  0  0  0  0  0  0
  187.6560  178.3300  140.0300 N   0  0  0  0  0  2  0  0  0  0  0  0
  181.9040  179.0900  141.5630 C   0  0  0  0  0  2  0  0  0  0  0  0
  184.3090  178.9850  140.8650 C   0  0  0  0  0  0  0  0  0  0  0  0
  189.9280  177.9720  140.8640 C   0  0  0  0  0  0  0  0  0  0  0  0
  190.6190  176.5560  138.5660 N   0  0  0  0  0  0  0  0  0  0  0  0
  191.3020  177.4490  140.6580 C   0  0  0  0  0  3  0  0  0  0  0  0
  182.9950  178.8530  138.7490 C   0  0  0  0  0  3  0  0  0  0  0  0
  190.3990  178.0230  144.1510 C   0  0  0  0  0  0  0  0  0  0  0  0
  190.5780  175.3800  137.8100 N   0  0  0  0  0  2  0  0  0  0  0  0
  188.9980  177.8380  139.8860 C   0  0  0  0  0  0  0  0  0  0  0  0
  190.7250  178.6780  143.0860 N   0  0  0  0  0  0  0  0  0  0  0  0
  183.3350  178.7800  141.9850 C   0  0  0  0  0  2  0  0  0  0  0  0
  191.6130  176.7530  139.5680 C   0  0  0  0  0  3  0  0  0  0  0  0
  188.3370  176.7530  145.1460 C   0  0  0  0  0  1  0  0  0  0  0  0
  183.9060  179.6870  139.6080 C   0  0  0  0  0  2  0  0  0  0  0  0
  181.4080  178.0310  140.5870 C   0  0  0  0  0  2  0  0  0  0  0  0
  181.9060  178.1830  139.1680 C   0  0  0  0  0  3  0  0  0  0  0  0
  185.5520  178.6270  141.0270 C   0  0  0  0  0  0  0  0  0  0  0  0
  187.6940  177.2300  136.7180 C   0  0  0  0  0  2  0  0  0  0  0  0
  186.2080  177.3200  137.0080 C   0  0  0  0  0  2  0  0  0  0  0  0
  185.4360  176.7360  135.8810 C   0  0  0  0  0  0  0  0  0  0  0  0
  186.0320  176.1110  134.9670 O   0  0  0  0  0  0  0  0  0  0  0  0
  184.0590  176.9050  135.8210 O   0  0  0  0  0  1  0  0  0  0  0  0
  188.5700  174.0160  137.4770 C   0  0  0  0  0  2  0  0  0  0  0  0
  187.9940  173.4280  136.1950 C   0  0  0  0  0  2  0  0  0  0  0  0
  184.7830  171.4560  135.7800 C   0  0  0  0  0  3  0  0  0  0  0  0
  184.5560  172.9130  137.6960 C   0  0  0  0  0  3  0  0  0  0  0  0
  186.6080  172.9180  136.4100 C   0  0  0  0  0  0  0  0  0  0  0  0
  185.8480  173.4010  137.4800 C   0  0  0  0  0  3  0  0  0  0  0  0
  186.0750  171.9430  135.5610 C   0  0  0  0  0  3  0  0  0  0  0  0
  184.0140  171.9390  136.8440 C   0  0  0  0  0  0  0  0  0  0  0  0
  182.7000  171.4030  137.0460 N   0  0  0  0  0  2  0  0  0  0  0  0
  181.4580  172.0680  136.7880 C   0  0  0  0  0  0  0  0  0  0  0  0
  180.3870  171.4940  137.1160 O   0  0  0  0  0  0  0  0  0  0  0  0
  181.4410  173.3250  136.1600 O   0  0  0  0  0  0  0  0  0  0  0  0
  181.0440  174.5400  136.7400 C   0  0  0  0  0  3  0  0  0  0  0  0
  181.2990  174.8780  137.9980 C   0  0  0  0  0  2  0  0  0  0  0  0
  1  2  2  0  0  0  0
  2 18  1  0  0  0  0
  2 24  1  0  0  0  0
  4 29  1  6  0  0  0
  4  8  1  0  0  0  0
  5  1  1  0  0  0  0
  5  9  1  0  0  0  0
  6 14  1  6  0  0  0
  6  1  1  0  0  0  0
  6 21  1  0  0  0  0
  7 34  1  1  0  0  0
  7 19  1  0  0  0  0
  7  4  1  0  0  0  0
  8 15  1  0  0  0  0
  8 20  1  1  0  0  0
 10  5  1  0  0  0  0
 11 10  1  0  0  0  0
 12 22  1  0  0  0  0
 13 28  2  0  0  0  0
 13 22  1  0  0  0  0
 15 23  1  0  0  0  0
 16 14  1  0  0  0  0
 17 27  2  0  0  0  0
 17 25  1  0  0  0  0
 18  3  1  0  0  0  0
 19 15  1  0  0  0  0
 20 11  1  0  0  0  0
 20 14  2  0  0  0  0
 21 18  2  0  0  0  0
 23 16  2  0  0  0  0
 25 13  1  0  0  0  0
 26 12  1  0  0  0  0
 27 26  1  0  0  0  0
 28 10  2  0  0  0  0
 29 30  1  0  0  0  0
 31 30  1  0  0  0  0
 32 31  2  0  0  0  0
 33 31  1  0  0  0  0
 35 38  1  0  0  0  0
 35 34  1  0  0  0  0
 36 41  1  0  0  0  0
 38 39  2  0  0  0  0
 39 37  1  0  0  0  0
 40 36  2  0  0  0  0
 40 38  1  0  0  0  0
 41 42  1  0  0  0  0
 41 37  2  0  0  0  0
 43 42  1  0  0  0  0
 43 44  2  0  0  0  0
 45 46  1  0  0  0  0
 45 43  1  0  0  0  0
 46 47  2  0  0  0  0
M  END
>  <MODEL>
6

>  <REMARK>
 VINA RESULT:      -7.8      2.881      9.613
  Name = 
  9 active torsions:
  status: ('A' for Active; 'I' for Inactive)
    1  A    between atoms: C_2  and  O_47
    2  A    between atoms: C_4  and  C_46
    3  A    between atoms: C_6  and  C_18
    4  A    between atoms: N_9  and  C_40
    5  A    between atoms: C_10  and  O_47
    6  A    between atoms: C_12  and  C_45
    7  A    between atoms: C_18  and  C_46
    8  A    between atoms: C_29  and  C_31
    9  A    between atoms: C_29  and  C_45
                            x       y       z     vdW  Elec       q    Type
                         _______ _______ _______ _____ _____    ______ ____

>  <TORSDO>
F 9

$$$$
=
 OpenBabel11042411463D

 47 52  0  0  1  0  0  0  0  0999 V2000
  182.5940  175.9960  137.7800 C   0  0  0  0  0  0  0  0  0  0  0  0
  181.3680  175.5600  138.0450 C   0  0  0  0  0  0  0  0  0  0  0  0
  179.0260  176.6990  138.2390 C   0  0  0  0  0  1  0  0  0  0  0  0
  186.8200  178.1200  140.0930 C   0  0  1  0  0  3  0  0  0  0  0  0
  183.7720  175.1910  137.6320 N   0  0  0  0  0  0  0  0  0  0  0  0
  182.5650  177.4730  137.5650 C   0  0  2  0  0  3  0  0  0  0  0  0
  186.8600  178.6340  141.5300 C   0  0  1  0  0  3  0  0  0  0  0  0
  185.6510  178.8480  139.4650 C   0  0  2  0  0  3  0  0  0  0  0  0
  183.6930  173.8430  137.7450 O   0  0  0  0  0  1  0  0  0  0  0  0
  185.0090  175.7880  137.2150 C   0  0  0  0  0  0  0  0  0  0  0  0
  185.4330  177.0780  137.6820 N   0  0  0  0  0  2  0  0  0  0  0  0
  187.5510  172.2850  134.7560 C   0  0  0  0  0  2  0  0  0  0  0  0
  186.7050  174.4040  135.7960 C   0  0  0  0  0  0  0  0  0  0  0  0
  183.4340  178.1570  138.5900 C   0  0  0  0  0  0  0  0  0  0  0  0
  184.9270  179.3770  140.6010 N   0  0  0  0  0  0  0  0  0  0  0  0
  182.8080  179.0800  139.5700 C   0  0  0  0  0  3  0  0  0  0  0  0
  189.1930  174.5440  135.9240 C   0  0  0  0  0  3  0  0  0  0  0  0
  180.4970  176.7180  138.0120 C   0  0  0  0  0  0  0  0  0  0  0  0
  185.5950  179.3030  141.8280 N   0  0  0  0  0  2  0  0  0  0  0  0
  184.7750  177.9560  138.6090 C   0  0  0  0  0  0  0  0  0  0  0  0
  181.1490  177.8000  137.7400 N   0  0  0  0  0  0  0  0  0  0  0  0
  186.3770  172.9880  135.4280 C   0  0  0  0  0  2  0  0  0  0  0  0
  183.5260  179.6370  140.5410 C   0  0  0  0  0  3  0  0  0  0  0  0
  180.9390  174.1530  138.2900 C   0  0  0  0  0  1  0  0  0  0  0  0
  187.9390  175.0710  135.2790 C   0  0  0  0  0  2  0  0  0  0  0  0
  188.6610  172.0420  135.7710 C   0  0  0  0  0  2  0  0  0  0  0  0
  189.5120  173.2490  136.0910 C   0  0  0  0  0  3  0  0  0  0  0  0
  185.8550  175.0920  136.5030 C   0  0  0  0  0  0  0  0  0  0  0  0
  188.1200  178.4970  139.3990 C   0  0  0  0  0  2  0  0  0  0  0  0
  188.6940  177.3020  138.6610 C   0  0  0  0  0  2  0  0  0  0  0  0
  190.0190  176.9440  139.2310 C   0  0  0  0  0  0  0  0  0  0  0  0
  190.4870  175.7890  139.0600 O   0  0  0  0  0  0  0  0  0  0  0  0
  190.7280  177.8750  139.9770 O   0  0  0  0  0  1  0  0  0  0  0  0
  187.0810  177.4710  142.4870 C   0  0  0  0  0  2  0  0  0  0  0  0
  186.6900  177.8450  143.9120 C   0  0  0  0  0  2  0  0  0  0  0  0
  188.7480  177.3450  147.0560 C   0  0  0  0  0  3  0  0  0  0  0  0
  190.2480  177.7470  145.2030 C   0  0  0  0  0  3  0  0  0  0  0  0
  187.8540  177.7330  144.8390 C   0  0  0  0  0  0  0  0  0  0  0  0
  189.1550  177.8690  144.3420 C   0  0  0  0  0  3  0  0  0  0  0  0
  187.6520  177.4680  146.1970 C   0  0  0  0  0  3  0  0  0  0  0  0
  190.0510  177.4880  146.5680 C   0  0  0  0  0  0  0  0  0  0  0  0
  191.1500  177.3380  147.4760 N   0  0  0  0  0  2  0  0  0  0  0  0
  191.9630  176.1710  147.6460 C   0  0  0  0  0  0  0  0  0  0  0  0
  192.8270  176.1660  148.5620 O   0  0  0  0  0  0  0  0  0  0  0  0
  191.8110  175.0670  146.7890 O   0  0  0  0  0  0  0  0  0  0  0  0
  192.4320  174.8890  145.5440 C   0  0  0  0  0  3  0  0  0  0  0  0
  192.1660  173.8830  144.7200 C   0  0  0  0  0  2  0  0  0  0  0  0
  1  2  2  0  0  0  0
  2 24  1  0  0  0  0
  4 29  1  6  0  0  0
  4  7  1  0  0  0  0
  5  9  1  0  0  0  0
  5  1  1  0  0  0  0
  6 21  1  1  0  0  0
  6  1  1  0  0  0  0
  6 14  1  0  0  0  0
  7 19  1  0  0  0  0
  7 34  1  1  0  0  0
  8 20  1  1  0  0  0
  8  4  1  0  0  0  0
  8 15  1  0  0  0  0
 10  5  1  0  0  0  0
 10 11  1  0  0  0  0
 11 20  1  0  0  0  0
 12 22  1  0  0  0  0
 12 26  1  0  0  0  0
 13 28  2  0  0  0  0
 14 20  2  0  0  0  0
 14 16  1  0  0  0  0
 15 19  1  0  0  0  0
 16 23  2  0  0  0  0
 17 27  2  0  0  0  0
 18  2  1  0  0  0  0
 18  3  1  0  0  0  0
 21 18  2  0  0  0  0
 22 13  1  0  0  0  0
 23 15  1  0  0  0  0
 25 13  1  0  0  0  0
 25 17  1  0  0  0  0
 26 27  1  0  0  0  0
 28 10  2  0  0  0  0
 30 31  1  0  0  0  0
 30 29  1  0  0  0  0
 31 33  1  0  0  0  0
 32 31  2  0  0  0  0
 34 35  1  0  0  0  0
 35 38  1  0  0  0  0
 37 41  2  0  0  0  0
 38 40  1  0  0  0  0
 39 38  2  0  0  0  0
 39 37  1  0  0  0  0
 40 36  2  0  0  0  0
 41 36  1  0  0  0  0
 41 42  1  0  0  0  0
 42 43  1  0  0  0  0
 43 44  2  0  0  0  0
 45 43  1  0  0  0  0
 46 45  1  0  0  0  0
 47 46  2  0  0  0  0
M  END
>  <MODEL>
7

>  <REMARK>
 VINA RESULT:      -6.9      2.464      4.022
  Name = 
  9 active torsions:
  status: ('A' for Active; 'I' for Inactive)
    1  A    between atoms: C_2  and  O_47
    2  A    between atoms: C_4  and  C_46
    3  A    between atoms: C_6  and  C_18
    4  A    between atoms: N_9  and  C_40
    5  A    between atoms: C_10  and  O_47
    6  A    between atoms: C_12  and  C_45
    7  A    between atoms: C_18  and  C_46
    8  A    between atoms: C_29  and  C_31
    9  A    between atoms: C_29  and  C_45
                            x       y       z     vdW  Elec       q    Type
                         _______ _______ _______ _____ _____    ______ ____

>  <TORSDO>
F 9

$$$$
=
 OpenBabel11042411463D

 47 52  0  0  1  0  0  0  0  0999 V2000
  190.0460  176.8000  137.5280 C   0  0  0  0  0  0  0  0  0  0  0  0
  190.9960  176.0930  136.9270 C   0  0  0  0  0  0  0  0  0  0  0  0
  192.1930  176.2380  134.6120 C   0  0  0  0  0  1  0  0  0  0  0  0
  184.8110  177.2350  137.8840 C   0  0  1  0  0  3  0  0  0  0  0  0
  189.5620  176.6170  138.8650 N   0  0  0  0  0  0  0  0  0  0  0  0
  189.5950  177.9010  136.6260 C   0  0  2  0  0  3  0  0  0  0  0  0
  183.8140  176.5020  136.9900 C   0  0  1  0  0  3  0  0  0  0  0  0
  185.7300  177.9480  136.9160 C   0  0  2  0  0  3  0  0  0  0  0  0
  190.0970  175.6540  139.6560 O   0  0  0  0  0  1  0  0  0  0  0  0
  188.6200  177.5430  139.4290 C   0  0  0  0  0  0  0  0  0  0  0  0
  187.5430  178.1010  138.6620 N   0  0  0  0  0  2  0  0  0  0  0  0
  189.4150  177.6070  144.3430 C   0  0  0  0  0  2  0  0  0  0  0  0
  188.6550  178.0320  141.9920 C   0  0  0  0  0  0  0  0  0  0  0  0
  188.1280  177.7400  136.3140 C   0  0  0  0  0  0  0  0  0  0  0  0
  185.4580  177.3050  135.6470 N   0  0  0  0  0  0  0  0  0  0  0  0
  187.7100  177.4840  134.9130 C   0  0  0  0  0  3  0  0  0  0  0  0
  186.6690  178.4940  143.4290 C   0  0  0  0  0  3  0  0  0  0  0  0
  191.2050  176.6960  135.6260 C   0  0  0  0  0  0  0  0  0  0  0  0
  184.3370  176.4700  135.6250 N   0  0  0  0  0  2  0  0  0  0  0  0
  187.1950  177.8490  137.2910 C   0  0  0  0  0  0  0  0  0  0  0  0
  190.4320  177.7140  135.4400 N   0  0  0  0  0  0  0  0  0  0  0  0
  189.6580  177.3370  142.8620 C   0  0  0  0  0  2  0  0  0  0  0  0
  186.4350  177.2530  134.6100 C   0  0  0  0  0  3  0  0  0  0  0  0
  191.7460  174.9290  137.4810 C   0  0  0  0  0  1  0  0  0  0  0  0
  187.7400  179.0760  142.5470 C   0  0  0  0  0  2  0  0  0  0  0  0
  188.1420  176.9060  144.7980 C   0  0  0  0  0  2  0  0  0  0  0  0
  186.8560  177.6000  144.4160 C   0  0  0  0  0  3  0  0  0  0  0  0
  188.6420  177.7860  140.7120 C   0  0  0  0  0  0  0  0  0  0  0  0
  184.0560  178.2370  138.7430 C   0  0  0  0  0  2  0  0  0  0  0  0
  182.7530  178.6340  138.0760 C   0  0  0  0  0  2  0  0  0  0  0  0
  182.2340  179.8870  138.6830 C   0  0  0  0  0  0  0  0  0  0  0  0
  182.9820  180.8920  138.7880 O   0  0  0  0  0  0  0  0  0  0  0  0
  180.9320  179.9390  139.1620 O   0  0  0  0  0  1  0  0  0  0  0  0
  183.6010  175.0860  137.5070 C   0  0  0  0  0  2  0  0  0  0  0  0
  182.1240  174.7140  137.5120 C   0  0  0  0  0  2  0  0  0  0  0  0
  179.3880  176.6680  139.2640 C   0  0  0  0  0  3  0  0  0  0  0  0
  181.2520  176.4130  140.7810 C   0  0  0  0  0  3  0  0  0  0  0  0
  181.3760  175.4850  138.5490 C   0  0  0  0  0  0  0  0  0  0  0  0
  181.9560  175.7080  139.8020 C   0  0  0  0  0  3  0  0  0  0  0  0
  180.0900  175.9640  138.2810 C   0  0  0  0  0  3  0  0  0  0  0  0
  179.9640  176.9020  140.5170 C   0  0  0  0  0  0  0  0  0  0  0  0
  179.2060  177.6130  141.5040 N   0  0  0  0  0  2  0  0  0  0  0  0
  179.7290  178.4610  142.5320 C   0  0  0  0  0  0  0  0  0  0  0  0
  178.9330  178.9340  143.3870 O   0  0  0  0  0  0  0  0  0  0  0  0
  181.0980  178.7750  142.5680 O   0  0  0  0  0  0  0  0  0  0  0  0
  181.9230  178.7710  143.7030 C   0  0  0  0  0  3  0  0  0  0  0  0
  183.2290  179.0030  143.6700 C   0  0  0  0  0  2  0  0  0  0  0  0
  1  5  1  0  0  0  0
  2 24  1  0  0  0  0
  2  1  2  0  0  0  0
  3 18  1  0  0  0  0
  4 29  1  1  0  0  0
  5 10  1  0  0  0  0
  5  9  1  0  0  0  0
  6 21  1  6  0  0  0
  6  1  1  0  0  0  0
  7 34  1  1  0  0  0
  7  4  1  0  0  0  0
  8 20  1  1  0  0  0
  8  4  1  0  0  0  0
 10 28  2  0  0  0  0
 11 10  1  0  0  0  0
 12 26  1  0  0  0  0
 13 25  1  0  0  0  0
 13 22  1  0  0  0  0
 14  6  1  0  0  0  0
 14 20  2  0  0  0  0
 15  8  1  0  0  0  0
 16 14  1  0  0  0  0
 17 27  2  0  0  0  0
 18  2  1  0  0  0  0
 19 15  1  0  0  0  0
 19  7  1  0  0  0  0
 20 11  1  0  0  0  0
 21 18  2  0  0  0  0
 22 12  1  0  0  0  0
 23 16  2  0  0  0  0
 23 15  1  0  0  0  0
 25 17  1  0  0  0  0
 27 26  1  0  0  0  0
 28 13  2  0  0  0  0
 30 31  1  0  0  0  0
 30 29  1  0  0  0  0
 31 32  2  0  0  0  0
 31 33  1  0  0  0  0
 34 35  1  0  0  0  0
 35 38  1  0  0  0  0
 36 41  1  0  0  0  0
 38 39  2  0  0  0  0
 39 37  1  0  0  0  0
 40 38  1  0  0  0  0
 40 36  2  0  0  0  0
 41 37  2  0  0  0  0
 41 42  1  0  0  0  0
 42 43  1  0  0  0  0
 43 45  1  0  0  0  0
 43 44  2  0  0  0  0
 45 46  1  0  0  0  0
 47 46  2  0  0  0  0
M  END
>  <MODEL>
8

>  <REMARK>
 VINA RESULT:      -6.1      2.848      7.448
  Name = 
  9 active torsions:
  status: ('A' for Active; 'I' for Inactive)
    1  A    between atoms: C_2  and  O_47
    2  A    between atoms: C_4  and  C_46
    3  A    between atoms: C_6  and  C_18
    4  A    between atoms: N_9  and  C_40
    5  A    between atoms: C_10  and  O_47
    6  A    between atoms: C_12  and  C_45
    7  A    between atoms: C_18  and  C_46
    8  A    between atoms: C_29  and  C_31
    9  A    between atoms: C_29  and  C_45
                            x       y       z     vdW  Elec       q    Type
                         _______ _______ _______ _____ _____    ______ ____

>  <TORSDO>
F 9

$$$$
=
 OpenBabel11042411463D

 47 52  0  0  1  0  0  0  0  0999 V2000
  188.4880  177.8450  143.2810 C   0  0  0  0  0  0  0  0  0  0  0  0
  188.8470  177.3730  144.4700 C   0  0  0  0  0  0  0  0  0  0  0  0
  190.9390  177.6770  146.0000 C   0  0  0  0  0  1  0  0  0  0  0  0
  189.0340  176.9230  138.1260 C   0  0  1  0  0  3  0  0  0  0  0  0
  187.2350  177.6280  142.6200 N   0  0  0  0  0  0  0  0  0  0  0  0
  189.5660  178.7310  142.7480 C   0  0  2  0  0  3  0  0  0  0  0  0
  189.9930  175.9000  137.5220 C   0  0  1  0  0  3  0  0  0  0  0  0
  189.9120  177.7880  139.0050 C   0  0  2  0  0  3  0  0  0  0  0  0
  186.2680  176.8900  143.2180 O   0  0  0  0  0  1  0  0  0  0  0  0
  186.9350  178.3100  141.3920 C   0  0  0  0  0  0  0  0  0  0  0  0
  187.9220  178.5190  140.3710 N   0  0  0  0  0  2  0  0  0  0  0  0
  181.9940  178.8940  141.2270 C   0  0  0  0  0  2  0  0  0  0  0  0
  184.4690  178.9540  140.8330 C   0  0  0  0  0  0  0  0  0  0  0  0
  190.0910  178.1730  141.4500 C   0  0  0  0  0  0  0  0  0  0  0  0
  191.1300  177.0160  139.1380 N   0  0  0  0  0  0  0  0  0  0  0  0
  191.5060  177.7290  141.3720 C   0  0  0  0  0  3  0  0  0  0  0  0
  183.4310  178.9740  138.5640 C   0  0  0  0  0  3  0  0  0  0  0  0
  190.1540  177.9250  144.7600 C   0  0  0  0  0  0  0  0  0  0  0  0
  191.2430  175.9180  138.2790 N   0  0  0  0  0  2  0  0  0  0  0  0
  189.2960  178.0980  140.3540 C   0  0  0  0  0  0  0  0  0  0  0  0
  190.5730  178.6930  143.8100 N   0  0  0  0  0  0  0  0  0  0  0  0
  183.3780  178.6020  141.7970 C   0  0  0  0  0  2  0  0  0  0  0  0
  191.9830  177.1550  140.2720 C   0  0  0  0  0  3  0  0  0  0  0  0
  188.0560  176.4820  145.3670 C   0  0  0  0  0  1  0  0  0  0  0  0
  184.1870  179.7570  139.6040 C   0  0  0  0  0  2  0  0  0  0  0  0
  181.6780  177.9150  140.1040 C   0  0  0  0  0  2  0  0  0  0  0  0
  182.3360  178.2240  138.7800 C   0  0  0  0  0  3  0  0  0  0  0  0
  185.7000  178.6320  141.1160 C   0  0  0  0  0  0  0  0  0  0  0  0
  188.4220  177.7470  137.0040 C   0  0  0  0  0  2  0  0  0  0  0  0
  186.9130  177.8030  137.1490 C   0  0  0  0  0  2  0  0  0  0  0  0
  186.2820  176.7850  136.2700 C   0  0  0  0  0  0  0  0  0  0  0  0
  186.0540  175.6290  136.7090 O   0  0  0  0  0  1  0  0  0  0  0  0
  185.9700  177.1000  134.9550 O   0  0  0  0  0  0  0  0  0  0  0  0
  189.3660  174.5130  137.5720 C   0  0  0  0  0  2  0  0  0  0  0  0
  189.5320  173.7820  136.2450 C   0  0  0  0  0  2  0  0  0  0  0  0
  192.8020  174.7620  134.5940 C   0  0  0  0  0  3  0  0  0  0  0  0
  193.1550  172.7440  135.8780 C   0  0  0  0  0  3  0  0  0  0  0  0
  190.9610  173.7660  135.8130 C   0  0  0  0  0  0  0  0  0  0  0  0
  191.8130  172.7530  136.2660 C   0  0  0  0  0  3  0  0  0  0  0  0
  191.4580  174.7720  134.9790 C   0  0  0  0  0  3  0  0  0  0  0  0
  193.6580  173.7480  135.0360 C   0  0  0  0  0  0  0  0  0  0  0  0
  195.0330  173.7810  134.6340 N   0  0  0  0  0  2  0  0  0  0  0  0
  196.1270  174.3280  135.3790 C   0  0  0  0  0  0  0  0  0  0  0  0
  197.2640  174.3700  134.8400 O   0  0  0  0  0  0  0  0  0  0  0  0
  195.9340  174.7840  136.6950 O   0  0  0  0  0  0  0  0  0  0  0  0
  196.1410  174.0460  137.8700 C   0  0  0  0  0  3  0  0  0  0  0  0
  195.6520  174.3880  139.0550 C   0  0  0  0  0  2  0  0  0  0  0  0
  1  2  2  0  0  0  0
  2 18  1  0  0  0  0
  2 24  1  0  0  0  0
  4 29  1  6  0  0  0
  4  8  1  0  0  0  0
  5  9  1  0  0  0  0
  5  1  1  0  0  0  0
  6 14  1  6  0  0  0
  6  1  1  0  0  0  0
  6 21  1  0  0  0  0
  7 34  1  1  0  0  0
  7  4  1  0  0  0  0
  7 19  1  0  0  0  0
  8 15  1  0  0  0  0
  8 20  1  1  0  0  0
 10  5  1  0  0  0  0
 11 10  1  0  0  0  0
 12 22  1  0  0  0  0
 13 28  2  0  0  0  0
 13 22  1  0  0  0  0
 15 23  1  0  0  0  0
 16 14  1  0  0  0  0
 17 27  2  0  0  0  0
 17 25  1  0  0  0  0
 18  3  1  0  0  0  0
 19 15  1  0  0  0  0
 20 11  1  0  0  0  0
 20 14  2  0  0  0  0
 21 18  2  0  0  0  0
 23 16  2  0  0  0  0
 25 13  1  0  0  0  0
 26 12  1  0  0  0  0
 27 26  1  0  0  0  0
 28 10  2  0  0  0  0
 29 30  1  0  0  0  0
 31 32  1  0  0  0  0
 31 30  1  0  0  0  0
 33 31  2  0  0  0  0
 35 34  1  0  0  0  0
 36 40  2  0  0  0  0
 36 41  1  0  0  0  0
 37 39  1  0  0  0  0
 38 35  1  0  0  0  0
 38 39  2  0  0  0  0
 40 38  1  0  0  0  0
 41 37  2  0  0  0  0
 42 41  1  0  0  0  0
 42 43  1  0  0  0  0
 43 45  1  0  0  0  0
 44 43  2  0  0  0  0
 45 46  1  0  0  0  0
 46 47  2  0  0  0  0
M  END
>  <MODEL>
9

>  <REMARK>
 VINA RESULT:      -5.9      4.537      9.986
  Name = 
  9 active torsions:
  status: ('A' for Active; 'I' for Inactive)
    1  A    between atoms: C_2  and  O_47
    2  A    between atoms: C_4  and  C_46
    3  A    between atoms: C_6  and  C_18
    4  A    between atoms: N_9  and  C_40
    5  A    between atoms: C_10  and  O_47
    6  A    between atoms: C_12  and  C_45
    7  A    between atoms: C_18  and  C_46
    8  A    between atoms: C_29  and  C_31
    9  A    between atoms: C_29  and  C_45
                            x       y       z     vdW  Elec       q    Type
                         _______ _______ _______ _____ _____    ______ ____

>  <TORSDO>
F 9

$$$$
