=
 OpenBabel11042411563D

 37 40  0  0  1  0  0  0  0  0999 V2000
  190.2160  176.8440  140.5910 C   0  0  0  0  0  2  0  0  0  0  0  0
  190.8500  178.2060  142.4540 O   0  0  0  0  0  1  0  0  0  0  0  0
  188.9390  178.7850  141.1500 C   0  0  0  0  0  2  0  0  0  0  0  0
  189.7560  177.6700  141.7700 C   0  0  1  0  0  0  0  0  0  0  0  0
  189.1600  177.0740  139.5370 C   0  0  0  0  0  2  0  0  0  0  0  0
  188.5470  178.3710  139.8010 N   0  0  0  0  0  0  0  0  0  0  0  0
  187.0850  178.2750  139.6860 C   0  0  0  0  0  2  0  0  0  0  0  0
  186.3400  178.8400  140.8710 C   0  0  0  0  0  3  0  0  0  0  0  0
  185.1310  179.3180  140.8240 N   0  0  0  0  0  0  0  0  0  0  0  0
  184.2880  179.4540  139.6680 C   0  0  0  0  0  0  0  0  0  0  0  0
  184.3280  180.4930  138.9540 O   0  0  0  0  0  0  0  0  0  0  0  0
  180.2420  180.5920  141.0880 O   0  0  0  0  0  0  0  0  0  0  0  0
  182.5590  178.5400  138.0160 C   0  0  0  0  0  2  0  0  0  0  0  0
  180.4080  179.3490  139.0360 C   0  0  1  0  0  3  0  0  0  0  0  0
  181.5600  179.6920  138.1040 C   0  0  0  0  0  2  0  0  0  0  0  0
  182.4940  177.8420  140.4670 C   0  0  0  0  0  2  0  0  0  0  0  0
  180.7990  179.6530  140.4570 C   0  0  0  0  0  0  0  0  0  0  0  0
  181.8060  178.9220  141.0920 O   0  0  0  0  0  0  0  0  0  0  0  0
  183.3680  178.3170  139.3010 C   0  0  2  0  0  3  0  0  0  0  0  0
  179.4930  181.2340  137.8800 O   0  0  0  0  0  1  0  0  0  0  0  0
  179.1500  180.0980  138.6130 C   0  0  0  0  0  2  0  0  0  0  0  0
  188.9030  176.8970  142.6800 N   0  0  0  0  0  2  0  0  0  0  0  0
  188.5810  177.6640  143.8790 C   0  0  0  0  0  2  0  0  0  0  0  0
  188.6890  176.7650  145.0980 C   0  0  0  0  0  2  0  0  0  0  0  0
  188.1340  177.4510  146.3000 C   0  0  0  0  0  0  0  0  0  0  0  0
  186.8980  177.9040  146.4160 C   0  0  0  0  0  0  0  0  0  0  0  0
  186.6550  178.4690  147.6630 O   0  0  0  0  0  0  0  0  0  0  0  0
  190.0350  177.5040  147.9140 N   0  0  0  0  0  2  0  0  0  0  0  0
  187.8170  178.3930  148.4800 C   0  0  0  0  0  3  0  0  0  0  0  0
  188.7990  177.7300  147.5750 C   0  0  0  0  0  0  0  0  0  0  0  0
  191.8870  175.8680  146.8530 C   0  0  0  0  0  2  0  0  0  0  0  0
  191.0380  176.9010  147.0950 C   0  0  0  0  0  0  0  0  0  0  0  0
  191.8830  176.9000  145.9650 N   0  0  0  0  0  0  0  0  0  0  0  0
  185.9150  177.8160  145.3820 N   0  0  0  0  0  2  0  0  0  0  0  0
  185.1910  178.9920  144.9330 C   0  0  0  0  0  2  0  0  0  0  0  0
  182.8350  178.7680  144.6130 O   0  0  0  0  0  1  0  0  0  0  0  0
  184.0720  178.5810  143.9940 C   0  0  0  0  0  2  0  0  0  0  0  0
  1  4  1  0  0  0  0
  3  4  1  0  0  0  0
  4  2  1  1  0  0  0
  4 22  1  0  0  0  0
  5  6  1  0  0  0  0
  5  1  1  0  0  0  0
  6  3  1  0  0  0  0
  7  6  1  0  0  0  0
  7  8  1  0  0  0  0
  9  8  2  0  0  0  0
 10  9  1  0  0  0  0
 11 10  2  0  0  0  0
 13 15  1  0  0  0  0
 13 19  1  0  0  0  0
 14 21  1  6  0  0  0
 14 17  1  0  0  0  0
 15 14  1  0  0  0  0
 16 18  1  0  0  0  0
 17 12  2  0  0  0  0
 17 18  1  0  0  0  0
 19 10  1  1  0  0  0
 19 16  1  0  0  0  0
 20 21  1  0  0  0  0
 22 23  1  0  0  0  0
 23 24  1  0  0  0  0
 24 25  1  0  0  0  0
 25 26  2  0  0  0  0
 25 30  1  0  0  0  0
 26 27  1  0  0  0  0
 27 29  1  0  0  0  0
 30 28  1  0  0  0  0
 30 29  2  0  0  0  0
 31 32  1  0  0  0  0
 32 28  1  0  0  0  0
 33 31  1  0  0  0  0
 33 32  2  0  0  0  0
 34 26  1  0  0  0  0
 35 34  1  0  0  0  0
 37 36  1  0  0  0  0
 37 35  1  0  0  0  0
M  END
>  <MODEL>
1

>  <REMARK>
 VINA RESULT:      -7.4      0.000      0.000
  Name = 
  13 active torsions:
  status: ('A' for Active; 'I' for Inactive)
    1  A    between atoms: C_1  and  C_13
    2  A    between atoms: C_1  and  C_17
    3  A    between atoms: C_7  and  C_33
    4  A    between atoms: C_11  and  C_18
    5  A    between atoms: C_12  and  C_22
    6  A    between atoms: C_15  and  N_26
    7  A    between atoms: C_17  and  N_26
    8  A    between atoms: C_18  and  N_19
    9  A    between atoms: N_19  and  C_20
   10  A    between atoms: C_22  and  N_30
   11  A    between atoms: C_24  and  C_28
   12  A    between atoms: C_24  and  N_35
   13  A    between atoms: C_25  and  N_29
                            x       y       z     vdW  Elec       q    Type
                         _______ _______ _______ _____ _____    ______ ____

>  <TORSDO>
F 13

$$$$
=
 OpenBabel11042411563D

 37 40  0  0  1  0  0  0  0  0999 V2000
  190.1130  176.8690  140.6650 C   0  0  0  0  0  2  0  0  0  0  0  0
  190.6040  177.9590  142.7380 O   0  0  0  0  0  1  0  0  0  0  0  0
  188.7490  178.6790  141.4230 C   0  0  0  0  0  2  0  0  0  0  0  0
  189.5650  177.5040  141.9220 C   0  0  1  0  0  0  0  0  0  0  0  0
  189.1100  177.2260  139.5950 C   0  0  0  0  0  2  0  0  0  0  0  0
  188.4450  178.4580  140.0070 N   0  0  0  0  0  0  0  0  0  0  0  0
  186.9950  178.3470  139.7950 C   0  0  0  0  0  2  0  0  0  0  0  0
  186.1680  178.7960  140.9750 C   0  0  0  0  0  3  0  0  0  0  0  0
  184.9510  179.2520  140.8950 N   0  0  0  0  0  0  0  0  0  0  0  0
  184.1740  179.4660  139.7050 C   0  0  0  0  0  0  0  0  0  0  0  0
  184.3910  180.4610  138.9600 O   0  0  0  0  0  0  0  0  0  0  0  0
  180.9570  179.8880  142.7310 O   0  0  0  0  0  0  0  0  0  0  0  0
  181.9230  179.0470  138.5610 C   0  0  0  0  0  2  0  0  0  0  0  0
  180.3170  179.3800  140.4680 C   0  0  1  0  0  3  0  0  0  0  0  0
  181.0980  180.0590  139.3530 C   0  0  0  0  0  2  0  0  0  0  0  0
  182.6610  177.5970  140.5240 C   0  0  0  0  0  2  0  0  0  0  0  0
  181.1960  179.2300  141.6820 C   0  0  0  0  0  0  0  0  0  0  0  0
  182.3070  178.3840  141.6580 O   0  0  0  0  0  0  0  0  0  0  0  0
  183.1080  178.4640  139.3410 C   0  0  2  0  0  3  0  0  0  0  0  0
  179.1910  181.4880  140.3670 O   0  0  0  0  0  1  0  0  0  0  0  0
  179.0460  180.1620  140.7720 C   0  0  0  0  0  2  0  0  0  0  0  0
  188.6880  176.5890  142.6600 N   0  0  0  0  0  2  0  0  0  0  0  0
  188.8280  176.7720  144.1010 C   0  0  0  0  0  2  0  0  0  0  0  0
  187.5800  177.4420  144.6480 C   0  0  0  0  0  2  0  0  0  0  0  0
  187.7240  177.6910  146.1120 C   0  0  0  0  0  0  0  0  0  0  0  0
  188.7540  177.3150  146.8500 C   0  0  0  0  0  0  0  0  0  0  0  0
  188.6290  177.7140  148.1760 O   0  0  0  0  0  0  0  0  0  0  0  0
  185.6480  178.9230  146.7370 N   0  0  0  0  0  2  0  0  0  0  0  0
  187.4160  178.4330  148.3690 C   0  0  0  0  0  3  0  0  0  0  0  0
  186.8120  178.4090  147.0060 C   0  0  0  0  0  0  0  0  0  0  0  0
  184.4690  179.5960  144.4150 C   0  0  0  0  0  2  0  0  0  0  0  0
  184.9940  178.9140  145.4670 C   0  0  0  0  0  0  0  0  0  0  0  0
  184.4150  178.2360  144.3740 N   0  0  0  0  0  0  0  0  0  0  0  0
  189.8760  176.5890  146.3450 N   0  0  0  0  0  2  0  0  0  0  0  0
  191.2340  176.9620  146.6980 C   0  0  0  0  0  2  0  0  0  0  0  0
  192.8000  176.0980  148.2810 O   0  0  0  0  0  1  0  0  0  0  0  0
  191.9900  175.7460  147.2000 C   0  0  0  0  0  2  0  0  0  0  0  0
  1  4  1  0  0  0  0
  3  4  1  0  0  0  0
  4 22  1  0  0  0  0
  4  2  1  1  0  0  0
  5  6  1  0  0  0  0
  5  1  1  0  0  0  0
  6  3  1  0  0  0  0
  7  6  1  0  0  0  0
  7  8  1  0  0  0  0
  9  8  2  0  0  0  0
 10  9  1  0  0  0  0
 11 10  2  0  0  0  0
 13 19  1  0  0  0  0
 13 15  1  0  0  0  0
 14 21  1  1  0  0  0
 14 17  1  0  0  0  0
 15 14  1  0  0  0  0
 16 18  1  0  0  0  0
 17 12  2  0  0  0  0
 18 17  1  0  0  0  0
 19 10  1  1  0  0  0
 19 16  1  0  0  0  0
 20 21  1  0  0  0  0
 22 23  1  0  0  0  0
 23 24  1  0  0  0  0
 24 25  1  0  0  0  0
 25 26  2  0  0  0  0
 25 30  1  0  0  0  0
 26 27  1  0  0  0  0
 27 29  1  0  0  0  0
 28 30  1  0  0  0  0
 30 29  2  0  0  0  0
 31 32  1  0  0  0  0
 32 28  1  0  0  0  0
 33 31  1  0  0  0  0
 33 32  2  0  0  0  0
 34 35  1  0  0  0  0
 34 26  1  0  0  0  0
 35 37  1  0  0  0  0
 37 36  1  0  0  0  0
M  END
>  <MODEL>
2

>  <REMARK>
 VINA RESULT:      -7.3      1.455      3.689
  Name = 
  13 active torsions:
  status: ('A' for Active; 'I' for Inactive)
    1  A    between atoms: C_1  and  C_13
    2  A    between atoms: C_1  and  C_17
    3  A    between atoms: C_7  and  C_33
    4  A    between atoms: C_11  and  C_18
    5  A    between atoms: C_12  and  C_22
    6  A    between atoms: C_15  and  N_26
    7  A    between atoms: C_17  and  N_26
    8  A    between atoms: C_18  and  N_19
    9  A    between atoms: N_19  and  C_20
   10  A    between atoms: C_22  and  N_30
   11  A    between atoms: C_24  and  C_28
   12  A    between atoms: C_24  and  N_35
   13  A    between atoms: C_25  and  N_29
                            x       y       z     vdW  Elec       q    Type
                         _______ _______ _______ _____ _____    ______ ____

>  <TORSDO>
F 13

$$$$
=
 OpenBabel11042411563D

 37 40  0  0  1  0  0  0  0  0999 V2000
  190.5660  176.1330  143.1910 C   0  0  0  0  0  2  0  0  0  0  0  0
  191.5910  177.8360  144.5250 O   0  0  0  0  0  1  0  0  0  0  0  0
  191.4960  178.0750  142.1540 C   0  0  0  0  0  2  0  0  0  0  0  0
  190.7820  177.6140  143.4070 C   0  0  1  0  0  0  0  0  0  0  0  0
  190.5150  175.9770  141.6910 C   0  0  0  0  0  2  0  0  0  0  0  0
  191.2740  177.0770  141.1050 N   0  0  0  0  0  0  0  0  0  0  0  0
  190.5370  177.6590  139.9750 C   0  0  0  0  0  2  0  0  0  0  0  0
  189.0820  177.2590  139.9230 C   0  0  0  0  0  3  0  0  0  0  0  0
  188.2700  177.5520  138.9500 N   0  0  0  0  0  0  0  0  0  0  0  0
  188.5540  178.3310  137.7770 C   0  0  0  0  0  0  0  0  0  0  0  0
  188.9720  179.5180  137.8720 O   0  0  0  0  0  0  0  0  0  0  0  0
  190.7540  174.4790  137.8760 O   0  0  0  0  0  0  0  0  0  0  0  0
  187.2750  176.6280  136.3570 C   0  0  0  0  0  2  0  0  0  0  0  0
  188.7050  174.5750  136.6200 C   0  0  1  0  0  3  0  0  0  0  0  0
  187.5640  175.3920  137.2070 C   0  0  0  0  0  2  0  0  0  0  0  0
  189.6880  177.2250  135.7910 C   0  0  0  0  0  2  0  0  0  0  0  0
  190.0210  175.1370  137.0870 C   0  0  0  0  0  0  0  0  0  0  0  0
  190.4410  176.4050  136.6810 O   0  0  0  0  0  0  0  0  0  0  0  0
  188.3730  177.6980  136.4200 C   0  0  2  0  0  3  0  0  0  0  0  0
  188.2720  172.3530  135.8460 O   0  0  0  0  0  1  0  0  0  0  0  0
  188.5420  173.1060  136.9880 C   0  0  0  0  0  2  0  0  0  0  0  0
  189.5130  178.3390  143.5330 N   0  0  0  0  0  2  0  0  0  0  0  0
  188.9880  178.2490  144.8910 C   0  0  0  0  0  2  0  0  0  0  0  0
  187.8540  177.2380  144.9280 C   0  0  0  0  0  2  0  0  0  0  0  0
  186.5370  177.9370  144.9790 C   0  0  0  0  0  0  0  0  0  0  0  0
  185.7740  178.2010  143.9320 C   0  0  0  0  0  0  0  0  0  0  0  0
  184.5870  178.8320  144.2880 O   0  0  0  0  0  0  0  0  0  0  0  0
  186.1920  178.4290  147.3990 N   0  0  0  0  0  2  0  0  0  0  0  0
  184.5200  179.0110  145.6980 C   0  0  0  0  0  3  0  0  0  0  0  0
  185.8150  178.4290  146.1550 C   0  0  0  0  0  0  0  0  0  0  0  0
  188.6310  178.1340  148.4940 C   0  0  0  0  0  2  0  0  0  0  0  0
  187.4250  177.9160  147.9080 C   0  0  0  0  0  0  0  0  0  0  0  0
  188.3050  176.8490  148.1840 N   0  0  0  0  0  0  0  0  0  0  0  0
  186.1220  177.8690  142.5870 N   0  0  0  0  0  2  0  0  0  0  0  0
  186.2620  178.8980  141.5720 C   0  0  0  0  0  2  0  0  0  0  0  0
  185.3340  179.0990  139.3810 O   0  0  0  0  0  1  0  0  0  0  0  0
  185.0020  178.9680  140.7300 C   0  0  0  0  0  2  0  0  0  0  0  0
  1  4  1  0  0  0  0
  3  4  1  0  0  0  0
  4 22  1  0  0  0  0
  4  2  1  1  0  0  0
  5  1  1  0  0  0  0
  6  5  1  0  0  0  0
  6  3  1  0  0  0  0
  7  6  1  0  0  0  0
  8  7  1  0  0  0  0
  9  8  2  0  0  0  0
 10 11  2  0  0  0  0
 10  9  1  0  0  0  0
 13 19  1  0  0  0  0
 13 15  1  0  0  0  0
 14 21  1  1  0  0  0
 14 17  1  0  0  0  0
 14 15  1  0  0  0  0
 16 19  1  0  0  0  0
 16 18  1  0  0  0  0
 17 12  2  0  0  0  0
 18 17  1  0  0  0  0
 19 10  1  1  0  0  0
 20 21  1  0  0  0  0
 22 23  1  0  0  0  0
 23 24  1  0  0  0  0
 24 25  1  0  0  0  0
 25 30  1  0  0  0  0
 26 27  1  0  0  0  0
 26 25  2  0  0  0  0
 27 29  1  0  0  0  0
 28 32  1  0  0  0  0
 29 30  2  0  0  0  0
 30 28  1  0  0  0  0
 32 33  2  0  0  0  0
 32 31  1  0  0  0  0
 33 31  1  0  0  0  0
 34 26  1  0  0  0  0
 35 34  1  0  0  0  0
 36 37  1  0  0  0  0
 37 35  1  0  0  0  0
M  END
>  <MODEL>
3

>  <REMARK>
 VINA RESULT:      -7.2      3.073      5.904
  Name = 
  13 active torsions:
  status: ('A' for Active; 'I' for Inactive)
    1  A    between atoms: C_1  and  C_13
    2  A    between atoms: C_1  and  C_17
    3  A    between atoms: C_7  and  C_33
    4  A    between atoms: C_11  and  C_18
    5  A    between atoms: C_12  and  C_22
    6  A    between atoms: C_15  and  N_26
    7  A    between atoms: C_17  and  N_26
    8  A    between atoms: C_18  and  N_19
    9  A    between atoms: N_19  and  C_20
   10  A    between atoms: C_22  and  N_30
   11  A    between atoms: C_24  and  C_28
   12  A    between atoms: C_24  and  N_35
   13  A    between atoms: C_25  and  N_29
                            x       y       z     vdW  Elec       q    Type
                         _______ _______ _______ _____ _____    ______ ____

>  <TORSDO>
F 13

$$$$
=
 OpenBabel11042411563D

 37 40  0  0  1  0  0  0  0  0999 V2000
  190.8350  176.3970  143.9880 C   0  0  0  0  0  2  0  0  0  0  0  0
  191.8450  178.4930  144.5500 O   0  0  0  0  0  1  0  0  0  0  0  0
  191.4080  177.9540  142.2680 C   0  0  0  0  0  2  0  0  0  0  0  0
  190.9220  177.8790  143.7000 C   0  0  1  0  0  0  0  0  0  0  0  0
  190.5990  175.7660  142.6380 C   0  0  0  0  0  2  0  0  0  0  0  0
  191.1540  176.6620  141.6280 N   0  0  0  0  0  0  0  0  0  0  0  0
  190.2140  176.8080  140.5070 C   0  0  0  0  0  2  0  0  0  0  0  0
  190.8480  176.6210  139.1500 C   0  0  0  0  0  3  0  0  0  0  0  0
  190.4710  177.2370  138.0670 N   0  0  0  0  0  0  0  0  0  0  0  0
  189.3790  178.1590  137.9210 C   0  0  0  0  0  0  0  0  0  0  0  0
  188.9950  178.8680  138.8910 O   0  0  0  0  0  0  0  0  0  0  0  0
  186.9140  174.5120  137.3690 O   0  0  0  0  0  0  0  0  0  0  0  0
  187.2650  178.7960  136.6260 C   0  0  0  0  0  2  0  0  0  0  0  0
  186.0690  176.5880  136.4930 C   0  0  1  0  0  3  0  0  0  0  0  0
  186.3000  177.8410  137.3240 C   0  0  0  0  0  2  0  0  0  0  0  0
  188.8670  177.0440  135.6960 C   0  0  0  0  0  2  0  0  0  0  0  0
  187.1650  175.5920  136.7660 C   0  0  0  0  0  0  0  0  0  0  0  0
  188.4820  175.8570  136.3840 O   0  0  0  0  0  0  0  0  0  0  0  0
  188.7130  178.2910  136.5750 C   0  0  2  0  0  3  0  0  0  0  0  0
  183.9000  176.9640  137.4290 O   0  0  0  0  0  1  0  0  0  0  0  0
  184.6870  176.0140  136.7790 C   0  0  0  0  0  2  0  0  0  0  0  0
  189.6120  178.5330  143.7980 N   0  0  0  0  0  2  0  0  0  0  0  0
  189.0070  178.3070  145.1070 C   0  0  0  0  0  2  0  0  0  0  0  0
  187.8940  177.2810  144.9790 C   0  0  0  0  0  2  0  0  0  0  0  0
  186.5640  177.9560  144.9780 C   0  0  0  0  0  0  0  0  0  0  0  0
  185.8420  178.2130  143.9010 C   0  0  0  0  0  0  0  0  0  0  0  0
  184.6300  178.8220  144.2080 O   0  0  0  0  0  0  0  0  0  0  0  0
  186.1080  178.4280  147.3830 N   0  0  0  0  0  2  0  0  0  0  0  0
  184.5000  178.9910  145.6160 C   0  0  0  0  0  3  0  0  0  0  0  0
  185.7840  178.4290  146.1240 C   0  0  0  0  0  0  0  0  0  0  0  0
  188.5130  178.1720  148.5600 C   0  0  0  0  0  2  0  0  0  0  0  0
  187.3270  177.9340  147.9410 C   0  0  0  0  0  0  0  0  0  0  0  0
  188.2040  176.8780  148.2690 N   0  0  0  0  0  0  0  0  0  0  0  0
  186.2520  177.8960  142.5700 N   0  0  0  0  0  2  0  0  0  0  0  0
  186.2080  178.8910  141.5120 C   0  0  0  0  0  2  0  0  0  0  0  0
  184.8080  179.7620  139.7850 O   0  0  0  0  0  1  0  0  0  0  0  0
  184.8090  178.9620  140.9280 C   0  0  0  0  0  2  0  0  0  0  0  0
  3  4  1  0  0  0  0
  4 22  1  0  0  0  0
  4  1  1  0  0  0  0
  4  2  1  1  0  0  0
  5  1  1  0  0  0  0
  6  3  1  0  0  0  0
  6  5  1  0  0  0  0
  7  6  1  0  0  0  0
  8  7  1  0  0  0  0
  9  8  2  0  0  0  0
 10  9  1  0  0  0  0
 10 11  2  0  0  0  0
 13 15  1  0  0  0  0
 14 17  1  0  0  0  0
 14 21  1  1  0  0  0
 14 15  1  0  0  0  0
 16 18  1  0  0  0  0
 16 19  1  0  0  0  0
 17 12  2  0  0  0  0
 18 17  1  0  0  0  0
 19 13  1  0  0  0  0
 19 10  1  1  0  0  0
 21 20  1  0  0  0  0
 22 23  1  0  0  0  0
 24 23  1  0  0  0  0
 25 24  1  0  0  0  0
 25 30  1  0  0  0  0
 26 27  1  0  0  0  0
 26 25  2  0  0  0  0
 27 29  1  0  0  0  0
 28 32  1  0  0  0  0
 29 30  2  0  0  0  0
 30 28  1  0  0  0  0
 32 33  2  0  0  0  0
 32 31  1  0  0  0  0
 33 31  1  0  0  0  0
 34 26  1  0  0  0  0
 35 34  1  0  0  0  0
 36 37  1  0  0  0  0
 37 35  1  0  0  0  0
M  END
>  <MODEL>
4

>  <REMARK>
 VINA RESULT:      -7.1      2.875      4.980
  Name = 
  13 active torsions:
  status: ('A' for Active; 'I' for Inactive)
    1  A    between atoms: C_1  and  C_13
    2  A    between atoms: C_1  and  C_17
    3  A    between atoms: C_7  and  C_33
    4  A    between atoms: C_11  and  C_18
    5  A    between atoms: C_12  and  C_22
    6  A    between atoms: C_15  and  N_26
    7  A    between atoms: C_17  and  N_26
    8  A    between atoms: C_18  and  N_19
    9  A    between atoms: N_19  and  C_20
   10  A    between atoms: C_22  and  N_30
   11  A    between atoms: C_24  and  C_28
   12  A    between atoms: C_24  and  N_35
   13  A    between atoms: C_25  and  N_29
                            x       y       z     vdW  Elec       q    Type
                         _______ _______ _______ _____ _____    ______ ____

>  <TORSDO>
F 13

$$$$
=
 OpenBabel11042411563D

 37 40  0  0  1  0  0  0  0  0999 V2000
  183.6460  178.8450  145.3730 C   0  0  0  0  0  2  0  0  0  0  0  0
  182.9510  180.4660  143.7560 O   0  0  0  0  0  1  0  0  0  0  0  0
  185.0850  179.4200  143.5540 C   0  0  0  0  0  2  0  0  0  0  0  0
  183.6240  179.2530  143.9180 C   0  0  1  0  0  0  0  0  0  0  0  0
  184.9810  178.1650  145.5520 C   0  0  0  0  0  2  0  0  0  0  0  0
  185.8900  178.7030  144.5450 N   0  0  0  0  0  0  0  0  0  0  0  0
  186.6510  177.6150  143.9140 C   0  0  0  0  0  2  0  0  0  0  0  0
  187.1800  177.9550  142.5420 C   0  0  0  0  0  3  0  0  0  0  0  0
  188.3600  177.6270  142.1030 N   0  0  0  0  0  0  0  0  0  0  0  0
  189.3990  176.9380  142.8170 C   0  0  0  0  0  0  0  0  0  0  0  0
  189.3230  175.6970  143.0350 O   0  0  0  0  0  0  0  0  0  0  0  0
  189.4730  176.6340  147.2420 O   0  0  0  0  0  0  0  0  0  0  0  0
  191.8390  176.8590  143.5860 C   0  0  0  0  0  2  0  0  0  0  0  0
  191.5780  176.6570  146.0790 C   0  0  1  0  0  3  0  0  0  0  0  0
  191.6550  175.9010  144.7610 C   0  0  0  0  0  2  0  0  0  0  0  0
  190.2890  178.7090  144.4050 C   0  0  0  0  0  2  0  0  0  0  0  0
  190.1660  177.1260  146.3110 C   0  0  0  0  0  0  0  0  0  0  0  0
  189.5890  178.0910  145.4820 O   0  0  0  0  0  0  0  0  0  0  0  0
  190.6040  177.7160  143.2810 C   0  0  2  0  0  3  0  0  0  0  0  0
  192.5860  176.5780  148.2470 O   0  0  0  0  0  1  0  0  0  0  0  0
  192.0880  175.7820  147.2170 C   0  0  0  0  0  2  0  0  0  0  0  0
  183.0320  178.2140  143.0670 N   0  0  0  0  0  2  0  0  0  0  0  0
  183.6820  178.1700  141.7620 C   0  0  0  0  0  2  0  0  0  0  0  0
  182.6440  177.8830  140.6910 C   0  0  0  0  0  2  0  0  0  0  0  0
  182.3630  179.1140  139.8970 C   0  0  0  0  0  0  0  0  0  0  0  0
  183.2340  179.7320  139.1180 C   0  0  0  0  0  0  0  0  0  0  0  0
  182.6810  180.8350  138.4760 O   0  0  0  0  0  0  0  0  0  0  0  0
  179.9790  179.6450  140.4010 N   0  0  0  0  0  2  0  0  0  0  0  0
  181.3120  180.9870  138.8350 C   0  0  0  0  0  3  0  0  0  0  0  0
  181.1040  179.8550  139.7830 C   0  0  0  0  0  0  0  0  0  0  0  0
  179.4350  177.2970  141.5940 C   0  0  0  0  0  2  0  0  0  0  0  0
  179.7140  178.6020  141.3410 C   0  0  0  0  0  0  0  0  0  0  0  0
  179.5430  178.1360  142.6610 N   0  0  0  0  0  0  0  0  0  0  0  0
  184.5880  179.3130  138.9440 N   0  0  0  0  0  2  0  0  0  0  0  0
  184.9280  178.2180  138.0530 C   0  0  0  0  0  2  0  0  0  0  0  0
  187.0440  178.6360  139.0780 O   0  0  0  0  0  1  0  0  0  0  0  0
  186.4360  178.0870  137.9480 C   0  0  0  0  0  2  0  0  0  0  0  0
  1  5  1  0  0  0  0
  3  4  1  0  0  0  0
  3  6  1  0  0  0  0
  4  2  1  6  0  0  0
  4  1  1  0  0  0  0
  6  5  1  0  0  0  0
  7  6  1  0  0  0  0
  8  7  1  0  0  0  0
  9  8  2  0  0  0  0
  9 10  1  0  0  0  0
 10 11  2  0  0  0  0
 13 15  1  0  0  0  0
 14 17  1  0  0  0  0
 14 21  1  1  0  0  0
 15 14  1  0  0  0  0
 16 18  1  0  0  0  0
 17 12  2  0  0  0  0
 18 17  1  0  0  0  0
 19 10  1  1  0  0  0
 19 13  1  0  0  0  0
 19 16  1  0  0  0  0
 21 20  1  0  0  0  0
 22  4  1  0  0  0  0
 23 22  1  0  0  0  0
 24 23  1  0  0  0  0
 25 24  1  0  0  0  0
 26 25  2  0  0  0  0
 27 29  1  0  0  0  0
 27 26  1  0  0  0  0
 28 32  1  0  0  0  0
 29 30  2  0  0  0  0
 30 25  1  0  0  0  0
 30 28  1  0  0  0  0
 31 33  1  0  0  0  0
 32 31  1  0  0  0  0
 32 33  2  0  0  0  0
 34 26  1  0  0  0  0
 35 34  1  0  0  0  0
 37 35  1  0  0  0  0
 37 36  1  0  0  0  0
M  END
>  <MODEL>
5

>  <REMARK>
 VINA RESULT:      -7.1      2.519      9.659
  Name = 
  13 active torsions:
  status: ('A' for Active; 'I' for Inactive)
    1  A    between atoms: C_1  and  C_13
    2  A    between atoms: C_1  and  C_17
    3  A    between atoms: C_7  and  C_33
    4  A    between atoms: C_11  and  C_18
    5  A    between atoms: C_12  and  C_22
    6  A    between atoms: C_15  and  N_26
    7  A    between atoms: C_17  and  N_26
    8  A    between atoms: C_18  and  N_19
    9  A    between atoms: N_19  and  C_20
   10  A    between atoms: C_22  and  N_30
   11  A    between atoms: C_24  and  C_28
   12  A    between atoms: C_24  and  N_35
   13  A    between atoms: C_25  and  N_29
                            x       y       z     vdW  Elec       q    Type
                         _______ _______ _______ _____ _____    ______ ____

>  <TORSDO>
F 13

$$$$
=
 OpenBabel11042411563D

 37 40  0  0  1  0  0  0  0  0999 V2000
  190.3680  176.7710  141.3230 C   0  0  0  0  0  2  0  0  0  0  0  0
  189.9160  178.6320  142.7590 O   0  0  0  0  0  1  0  0  0  0  0  0
  188.9890  178.5690  140.5620 C   0  0  0  0  0  2  0  0  0  0  0  0
  189.3520  177.7820  141.8040 C   0  0  1  0  0  0  0  0  0  0  0  0
  190.0340  176.5680  139.8660 C   0  0  0  0  0  2  0  0  0  0  0  0
  189.3740  177.7800  139.3900 N   0  0  0  0  0  0  0  0  0  0  0  0
  188.1970  177.4330  138.5810 C   0  0  0  0  0  2  0  0  0  0  0  0
  187.6330  178.5920  137.7950 C   0  0  0  0  0  3  0  0  0  0  0  0
  186.3720  178.7540  137.5200 N   0  0  0  0  0  0  0  0  0  0  0  0
  185.2840  177.8750  137.8500 C   0  0  0  0  0  0  0  0  0  0  0  0
  184.7470  177.1490  136.9690 O   0  0  0  0  0  0  0  0  0  0  0  0
  182.3100  181.1300  138.3420 O   0  0  0  0  0  0  0  0  0  0  0  0
  183.4720  177.0820  139.4760 C   0  0  0  0  0  2  0  0  0  0  0  0
  181.9390  179.0750  139.5350 C   0  0  1  0  0  3  0  0  0  0  0  0
  182.2840  177.7790  138.8160 C   0  0  0  0  0  2  0  0  0  0  0  0
  184.8460  179.1660  139.9940 C   0  0  0  0  0  2  0  0  0  0  0  0
  182.8090  180.1880  139.0150 C   0  0  0  0  0  0  0  0  0  0  0  0
  184.1870  180.1830  139.2440 O   0  0  0  0  0  0  0  0  0  0  0  0
  184.8090  177.8110  139.2800 C   0  0  2  0  0  3  0  0  0  0  0  0
  180.0020  180.1260  140.4670 O   0  0  0  0  0  1  0  0  0  0  0  0
  180.4550  179.3830  139.3770 C   0  0  0  0  0  2  0  0  0  0  0  0
  188.1460  177.1360  142.3340 N   0  0  0  0  0  2  0  0  0  0  0  0
  187.3120  178.0900  143.0580 C   0  0  0  0  0  2  0  0  0  0  0  0
  186.4540  177.3470  144.0670 C   0  0  0  0  0  2  0  0  0  0  0  0
  186.7160  177.8550  145.4450 C   0  0  0  0  0  0  0  0  0  0  0  0
  187.7950  177.5910  146.1610 C   0  0  0  0  0  0  0  0  0  0  0  0
  187.7790  178.2290  147.3960 O   0  0  0  0  0  0  0  0  0  0  0  0
  184.7120  179.2370  145.9850 N   0  0  0  0  0  2  0  0  0  0  0  0
  186.5950  179.0050  147.5430 C   0  0  0  0  0  3  0  0  0  0  0  0
  185.8860  178.7490  146.2560 C   0  0  0  0  0  0  0  0  0  0  0  0
  182.8390  178.5470  144.1820 C   0  0  0  0  0  2  0  0  0  0  0  0
  183.9600  179.0150  144.7900 C   0  0  0  0  0  0  0  0  0  0  0  0
  183.8000  179.1000  143.3910 N   0  0  0  0  0  0  0  0  0  0  0  0
  188.8630  176.7540  145.7170 N   0  0  0  0  0  2  0  0  0  0  0  0
  190.2510  177.1410  145.9070 C   0  0  0  0  0  2  0  0  0  0  0  0
  192.0550  176.3950  147.2810 O   0  0  0  0  0  1  0  0  0  0  0  0
  190.7080  176.7560  147.3010 C   0  0  0  0  0  2  0  0  0  0  0  0
  1  4  1  0  0  0  0
  3  4  1  0  0  0  0
  4 22  1  0  0  0  0
  4  2  1  1  0  0  0
  5  1  1  0  0  0  0
  6  5  1  0  0  0  0
  6  3  1  0  0  0  0
  7  6  1  0  0  0  0
  8  7  1  0  0  0  0
  9  8  2  0  0  0  0
  9 10  1  0  0  0  0
 11 10  2  0  0  0  0
 12 17  2  0  0  0  0
 14 21  1  6  0  0  0
 15 13  1  0  0  0  0
 15 14  1  0  0  0  0
 17 18  1  0  0  0  0
 17 14  1  0  0  0  0
 18 16  1  0  0  0  0
 19 10  1  6  0  0  0
 19 13  1  0  0  0  0
 19 16  1  0  0  0  0
 21 20  1  0  0  0  0
 22 23  1  0  0  0  0
 23 24  1  0  0  0  0
 24 25  1  0  0  0  0
 25 26  2  0  0  0  0
 25 30  1  0  0  0  0
 26 27  1  0  0  0  0
 27 29  1  0  0  0  0
 28 30  1  0  0  0  0
 30 29  2  0  0  0  0
 31 32  1  0  0  0  0
 32 28  1  0  0  0  0
 33 31  1  0  0  0  0
 33 32  2  0  0  0  0
 34 35  1  0  0  0  0
 34 26  1  0  0  0  0
 35 37  1  0  0  0  0
 36 37  1  0  0  0  0
M  END
>  <MODEL>
6

>  <REMARK>
 VINA RESULT:      -7.0      1.834      4.057
  Name = 
  13 active torsions:
  status: ('A' for Active; 'I' for Inactive)
    1  A    between atoms: C_1  and  C_13
    2  A    between atoms: C_1  and  C_17
    3  A    between atoms: C_7  and  C_33
    4  A    between atoms: C_11  and  C_18
    5  A    between atoms: C_12  and  C_22
    6  A    between atoms: C_15  and  N_26
    7  A    between atoms: C_17  and  N_26
    8  A    between atoms: C_18  and  N_19
    9  A    between atoms: N_19  and  C_20
   10  A    between atoms: C_22  and  N_30
   11  A    between atoms: C_24  and  C_28
   12  A    between atoms: C_24  and  N_35
   13  A    between atoms: C_25  and  N_29
                            x       y       z     vdW  Elec       q    Type
                         _______ _______ _______ _____ _____    ______ ____

>  <TORSDO>
F 13

$$$$
=
 OpenBabel11042411563D

 37 40  0  0  1  0  0  0  0  0999 V2000
  185.3070  180.0880  144.6760 C   0  0  0  0  0  2  0  0  0  0  0  0
  185.0640  179.0040  146.7960 O   0  0  0  0  0  1  0  0  0  0  0  0
  183.4680  178.6120  145.0670 C   0  0  0  0  0  2  0  0  0  0  0  0
  184.9260  178.8270  145.4170 C   0  0  1  0  0  0  0  0  0  0  0  0
  184.3700  180.1260  143.4940 C   0  0  0  0  0  2  0  0  0  0  0  0
  183.1690  179.3820  143.8570 N   0  0  0  0  0  0  0  0  0  0  0  0
  182.7690  178.4940  142.7570 C   0  0  0  0  0  2  0  0  0  0  0  0
  181.4250  178.8300  142.1570 C   0  0  0  0  0  3  0  0  0  0  0  0
  181.0650  178.5400  140.9410 N   0  0  0  0  0  0  0  0  0  0  0  0
  181.8540  177.9010  139.9240 C   0  0  0  0  0  0  0  0  0  0  0  0
  182.1960  176.6910  140.0320 O   0  0  0  0  0  0  0  0  0  0  0  0
  186.1590  178.8710  140.3810 O   0  0  0  0  0  0  0  0  0  0  0  0
  182.9440  177.8760  137.6070 C   0  0  0  0  0  2  0  0  0  0  0  0
  185.3360  178.4140  138.1670 C   0  0  1  0  0  3  0  0  0  0  0  0
  184.2990  177.3090  138.0230 C   0  0  0  0  0  2  0  0  0  0  0  0
  183.0020  179.9860  139.0360 C   0  0  0  0  0  2  0  0  0  0  0  0
  185.2330  179.0270  139.5390 C   0  0  0  0  0  0  0  0  0  0  0  0
  184.1000  179.7520  139.9130 O   0  0  0  0  0  0  0  0  0  0  0  0
  182.2480  178.6940  138.7030 C   0  0  2  0  0  3  0  0  0  0  0  0
  187.5550  178.8840  137.4080 O   0  0  0  0  0  1  0  0  0  0  0  0
  186.7290  177.8670  137.8840 C   0  0  0  0  0  2  0  0  0  0  0  0
  185.7050  177.6690  144.9630 N   0  0  0  0  0  2  0  0  0  0  0  0
  187.0250  178.0750  144.4920 C   0  0  0  0  0  2  0  0  0  0  0  0
  187.9350  176.8600  144.4320 C   0  0  0  0  0  2  0  0  0  0  0  0
  189.3260  177.2710  144.0820 C   0  0  0  0  0  0  0  0  0  0  0  0
  189.7990  177.3860  142.8530 C   0  0  0  0  0  0  0  0  0  0  0  0
  191.1210  177.8180  142.8330 O   0  0  0  0  0  0  0  0  0  0  0  0
  190.4300  177.6550  146.2850 N   0  0  0  0  0  2  0  0  0  0  0  0
  191.5980  178.0280  144.1570 C   0  0  0  0  0  3  0  0  0  0  0  0
  190.4140  177.6550  144.9840 C   0  0  0  0  0  0  0  0  0  0  0  0
  188.3570  177.6470  147.9990 C   0  0  0  0  0  2  0  0  0  0  0  0
  189.3490  177.2860  147.1420 C   0  0  0  0  0  0  0  0  0  0  0  0
  188.5110  176.3190  147.7380 N   0  0  0  0  0  0  0  0  0  0  0  0
  189.0400  177.1070  141.6760 N   0  0  0  0  0  2  0  0  0  0  0  0
  189.3800  177.7150  140.4010 C   0  0  0  0  0  2  0  0  0  0  0  0
  191.5500  177.1030  139.6160 O   0  0  0  0  0  1  0  0  0  0  0  0
  190.2020  176.7470  139.5700 C   0  0  0  0  0  2  0  0  0  0  0  0
  1  4  1  0  0  0  0
  3  4  1  0  0  0  0
  4  2  1  1  0  0  0
  5  6  1  0  0  0  0
  5  1  1  0  0  0  0
  6  3  1  0  0  0  0
  7  6  1  0  0  0  0
  8  7  1  0  0  0  0
  9  8  2  0  0  0  0
 10 11  2  0  0  0  0
 10  9  1  0  0  0  0
 13 15  1  0  0  0  0
 13 19  1  0  0  0  0
 14 21  1  1  0  0  0
 14 17  1  0  0  0  0
 15 14  1  0  0  0  0
 16 18  1  0  0  0  0
 17 18  1  0  0  0  0
 17 12  2  0  0  0  0
 19 16  1  0  0  0  0
 19 10  1  1  0  0  0
 20 21  1  0  0  0  0
 22  4  1  0  0  0  0
 23 22  1  0  0  0  0
 24 23  1  0  0  0  0
 25 24  1  0  0  0  0
 25 30  1  0  0  0  0
 26 25  2  0  0  0  0
 27 26  1  0  0  0  0
 27 29  1  0  0  0  0
 28 32  1  0  0  0  0
 29 30  2  0  0  0  0
 30 28  1  0  0  0  0
 32 33  2  0  0  0  0
 32 31  1  0  0  0  0
 33 31  1  0  0  0  0
 34 26  1  0  0  0  0
 35 34  1  0  0  0  0
 37 36  1  0  0  0  0
 37 35  1  0  0  0  0
M  END
>  <MODEL>
7

>  <REMARK>
 VINA RESULT:      -6.9      2.023      5.276
  Name = 
  13 active torsions:
  status: ('A' for Active; 'I' for Inactive)
    1  A    between atoms: C_1  and  C_13
    2  A    between atoms: C_1  and  C_17
    3  A    between atoms: C_7  and  C_33
    4  A    between atoms: C_11  and  C_18
    5  A    between atoms: C_12  and  C_22
    6  A    between atoms: C_15  and  N_26
    7  A    between atoms: C_17  and  N_26
    8  A    between atoms: C_18  and  N_19
    9  A    between atoms: N_19  and  C_20
   10  A    between atoms: C_22  and  N_30
   11  A    between atoms: C_24  and  C_28
   12  A    between atoms: C_24  and  N_35
   13  A    between atoms: C_25  and  N_29
                            x       y       z     vdW  Elec       q    Type
                         _______ _______ _______ _____ _____    ______ ____

>  <TORSDO>
F 13

$$$$
=
 OpenBabel11042411563D

 37 40  0  0  1  0  0  0  0  0999 V2000
  190.4880  176.5750  142.2440 C   0  0  0  0  0  2  0  0  0  0  0  0
  189.7660  178.3220  143.7110 O   0  0  0  0  0  1  0  0  0  0  0  0
  189.3580  178.4900  141.3670 C   0  0  0  0  0  2  0  0  0  0  0  0
  189.4130  177.5830  142.5800 C   0  0  1  0  0  0  0  0  0  0  0  0
  190.4870  176.5140  140.7360 C   0  0  0  0  0  2  0  0  0  0  0  0
  189.9800  177.7900  140.2420 N   0  0  0  0  0  0  0  0  0  0  0  0
  189.0070  177.5660  139.1620 C   0  0  0  0  0  2  0  0  0  0  0  0
  189.0460  178.6150  138.0780 C   0  0  0  0  0  3  0  0  0  0  0  0
  188.0430  178.9180  137.3060 N   0  0  0  0  0  0  0  0  0  0  0  0
  186.7400  178.3100  137.2860 C   0  0  0  0  0  0  0  0  0  0  0  0
  185.9740  178.3850  138.2850 O   0  0  0  0  0  0  0  0  0  0  0  0
  188.8560  174.4110  137.2050 O   0  0  0  0  0  0  0  0  0  0  0  0
  185.1820  176.5610  136.2550 C   0  0  0  0  0  2  0  0  0  0  0  0
  186.6020  174.4890  136.3670 C   0  0  1  0  0  3  0  0  0  0  0  0
  185.6120  175.3720  137.1110 C   0  0  0  0  0  2  0  0  0  0  0  0
  187.4460  177.0550  135.1930 C   0  0  0  0  0  2  0  0  0  0  0  0
  187.9940  175.0400  136.5330 C   0  0  0  0  0  0  0  0  0  0  0  0
  188.3450  176.2700  135.9710 O   0  0  0  0  0  0  0  0  0  0  0  0
  186.2870  177.6020  136.0340 C   0  0  2  0  0  3  0  0  0  0  0  0
  185.6660  172.9850  137.9760 O   0  0  0  0  0  1  0  0  0  0  0  0
  186.4920  173.0500  136.8540 C   0  0  0  0  0  2  0  0  0  0  0  0
  188.1040  176.9460  142.7640 N   0  0  0  0  0  2  0  0  0  0  0  0
  187.1510  177.8680  143.3720 C   0  0  0  0  0  2  0  0  0  0  0  0
  186.3820  177.1480  144.4670 C   0  0  0  0  0  2  0  0  0  0  0  0
  186.5270  177.8710  145.7640 C   0  0  0  0  0  0  0  0  0  0  0  0
  187.5110  177.6950  146.6280 C   0  0  0  0  0  0  0  0  0  0  0  0
  187.4020  178.5320  147.7340 O   0  0  0  0  0  0  0  0  0  0  0  0
  184.5540  179.3940  145.8460 N   0  0  0  0  0  2  0  0  0  0  0  0
  186.2510  179.3620  147.6190 C   0  0  0  0  0  3  0  0  0  0  0  0
  185.6660  178.9180  146.3220 C   0  0  0  0  0  0  0  0  0  0  0  0
  182.8420  178.4810  143.9840 C   0  0  0  0  0  2  0  0  0  0  0  0
  183.9190  179.0010  144.6280 C   0  0  0  0  0  0  0  0  0  0  0  0
  183.9100  178.8510  143.2250 N   0  0  0  0  0  0  0  0  0  0  0  0
  188.5740  176.7580  146.4480 N   0  0  0  0  0  2  0  0  0  0  0  0
  189.6930  176.7030  147.3720 C   0  0  0  0  0  2  0  0  0  0  0  0
  192.0710  176.8900  147.4850 O   0  0  0  0  0  1  0  0  0  0  0  0
  191.0000  176.7470  146.6020 C   0  0  0  0  0  2  0  0  0  0  0  0
  1  4  1  0  0  0  0
  3  4  1  0  0  0  0
  4 22  1  0  0  0  0
  4  2  1  1  0  0  0
  5  1  1  0  0  0  0
  6  5  1  0  0  0  0
  6  3  1  0  0  0  0
  7  6  1  0  0  0  0
  8  7  1  0  0  0  0
  9  8  2  0  0  0  0
 10  9  1  0  0  0  0
 10 11  2  0  0  0  0
 13 15  1  0  0  0  0
 14 17  1  0  0  0  0
 14 21  1  1  0  0  0
 14 15  1  0  0  0  0
 16 18  1  0  0  0  0
 16 19  1  0  0  0  0
 17 12  2  0  0  0  0
 18 17  1  0  0  0  0
 19 13  1  0  0  0  0
 19 10  1  1  0  0  0
 21 20  1  0  0  0  0
 22 23  1  0  0  0  0
 23 24  1  0  0  0  0
 24 25  1  0  0  0  0
 25 30  1  0  0  0  0
 25 26  2  0  0  0  0
 26 27  1  0  0  0  0
 28 30  1  0  0  0  0
 29 27  1  0  0  0  0
 30 29  2  0  0  0  0
 31 32  1  0  0  0  0
 32 28  1  0  0  0  0
 33 31  1  0  0  0  0
 33 32  2  0  0  0  0
 34 26  1  0  0  0  0
 34 35  1  0  0  0  0
 37 35  1  0  0  0  0
 37 36  1  0  0  0  0
M  END
>  <MODEL>
8

>  <REMARK>
 VINA RESULT:      -6.9      3.297      5.852
  Name = 
  13 active torsions:
  status: ('A' for Active; 'I' for Inactive)
    1  A    between atoms: C_1  and  C_13
    2  A    between atoms: C_1  and  C_17
    3  A    between atoms: C_7  and  C_33
    4  A    between atoms: C_11  and  C_18
    5  A    between atoms: C_12  and  C_22
    6  A    between atoms: C_15  and  N_26
    7  A    between atoms: C_17  and  N_26
    8  A    between atoms: C_18  and  N_19
    9  A    between atoms: N_19  and  C_20
   10  A    between atoms: C_22  and  N_30
   11  A    between atoms: C_24  and  C_28
   12  A    between atoms: C_24  and  N_35
   13  A    between atoms: C_25  and  N_29
                            x       y       z     vdW  Elec       q    Type
                         _______ _______ _______ _____ _____    ______ ____

>  <TORSDO>
F 13

$$$$
=
 OpenBabel11042411563D

 37 40  0  0  1  0  0  0  0  0999 V2000
  190.0070  176.1380  142.0980 C   0  0  0  0  0  2  0  0  0  0  0  0
  191.9710  177.0700  143.0990 O   0  0  0  0  0  1  0  0  0  0  0  0
  191.2110  177.8790  140.9880 C   0  0  0  0  0  2  0  0  0  0  0  0
  190.8230  177.3820  142.3650 C   0  0  1  0  0  0  0  0  0  0  0  0
  189.4180  176.3640  140.7270 C   0  0  0  0  0  2  0  0  0  0  0  0
  190.3020  177.2770  140.0100 N   0  0  0  0  0  0  0  0  0  0  0  0
  189.5160  178.3090  139.3200 C   0  0  0  0  0  2  0  0  0  0  0  0
  188.0360  178.2470  139.6110 C   0  0  0  0  0  3  0  0  0  0  0  0
  187.1020  178.3180  138.7090 N   0  0  0  0  0  0  0  0  0  0  0  0
  187.2640  178.5110  137.2940 C   0  0  0  0  0  0  0  0  0  0  0  0
  187.8520  179.5330  136.8430 O   0  0  0  0  0  0  0  0  0  0  0  0
  190.8230  176.5100  135.5580 O   0  0  0  0  0  0  0  0  0  0  0  0
  186.7120  176.0370  136.9360 C   0  0  0  0  0  2  0  0  0  0  0  0
  188.8750  175.1670  135.9950 C   0  0  1  0  0  3  0  0  0  0  0  0
  188.0910  175.4690  137.2630 C   0  0  0  0  0  2  0  0  0  0  0  0
  187.4040  177.5010  134.9670 C   0  0  0  0  0  2  0  0  0  0  0  0
  189.5660  176.4170  135.5190 C   0  0  0  0  0  0  0  0  0  0  0  0
  188.8260  177.5070  135.0540 O   0  0  0  0  0  0  0  0  0  0  0  0
  186.7460  177.4560  136.3510 C   0  0  2  0  0  3  0  0  0  0  0  0
  190.1830  173.9630  137.5970 O   0  0  0  0  0  1  0  0  0  0  0  0
  189.8560  174.0280  136.2430 C   0  0  0  0  0  2  0  0  0  0  0  0
  190.0370  178.4160  143.0470 N   0  0  0  0  0  2  0  0  0  0  0  0
  190.0870  178.2470  144.4950 C   0  0  0  0  0  2  0  0  0  0  0  0
  189.1130  177.1570  144.9090 C   0  0  0  0  0  2  0  0  0  0  0  0
  188.1940  177.6580  145.9710 C   0  0  0  0  0  0  0  0  0  0  0  0
  186.9680  178.1100  145.7660 C   0  0  0  0  0  0  0  0  0  0  0  0
  186.3350  178.4780  146.9480 O   0  0  0  0  0  0  0  0  0  0  0  0
  189.5000  177.4240  148.0820 N   0  0  0  0  0  2  0  0  0  0  0  0
  187.1900  178.2550  148.0630 C   0  0  0  0  0  3  0  0  0  0  0  0
  188.4240  177.7220  147.4160 C   0  0  0  0  0  0  0  0  0  0  0  0
  191.5890  175.9090  147.3250 C   0  0  0  0  0  2  0  0  0  0  0  0
  190.7250  176.9370  147.5310 C   0  0  0  0  0  0  0  0  0  0  0  0
  191.9260  177.1260  146.8150 N   0  0  0  0  0  0  0  0  0  0  0  0
  186.3560  178.2030  144.4790 N   0  0  0  0  0  2  0  0  0  0  0  0
  184.9890  178.6690  144.3280 C   0  0  0  0  0  2  0  0  0  0  0  0
  185.6800  179.4280  142.1720 O   0  0  0  0  0  1  0  0  0  0  0  0
  184.6440  178.7890  142.8550 C   0  0  0  0  0  2  0  0  0  0  0  0
  1  4  1  0  0  0  0
  3  4  1  0  0  0  0
  4 22  1  0  0  0  0
  4  2  1  1  0  0  0
  5  1  1  0  0  0  0
  6  5  1  0  0  0  0
  6  3  1  0  0  0  0
  7  8  1  0  0  0  0
  7  6  1  0  0  0  0
  9  8  2  0  0  0  0
 10  9  1  0  0  0  0
 11 10  2  0  0  0  0
 13 15  1  0  0  0  0
 14 21  1  1  0  0  0
 14 15  1  0  0  0  0
 16 18  1  0  0  0  0
 16 19  1  0  0  0  0
 17 12  2  0  0  0  0
 17 14  1  0  0  0  0
 18 17  1  0  0  0  0
 19 13  1  0  0  0  0
 19 10  1  1  0  0  0
 21 20  1  0  0  0  0
 22 23  1  0  0  0  0
 23 24  1  0  0  0  0
 24 25  1  0  0  0  0
 25 30  1  0  0  0  0
 26 25  2  0  0  0  0
 26 27  1  0  0  0  0
 27 29  1  0  0  0  0
 30 29  2  0  0  0  0
 30 28  1  0  0  0  0
 31 32  1  0  0  0  0
 32 28  1  0  0  0  0
 33 31  1  0  0  0  0
 33 32  2  0  0  0  0
 34 26  1  0  0  0  0
 35 34  1  0  0  0  0
 36 37  1  0  0  0  0
 37 35  1  0  0  0  0
M  END
>  <MODEL>
9

>  <REMARK>
 VINA RESULT:      -6.8      3.171      5.313
  Name = 
  13 active torsions:
  status: ('A' for Active; 'I' for Inactive)
    1  A    between atoms: C_1  and  C_13
    2  A    between atoms: C_1  and  C_17
    3  A    between atoms: C_7  and  C_33
    4  A    between atoms: C_11  and  C_18
    5  A    between atoms: C_12  and  C_22
    6  A    between atoms: C_15  and  N_26
    7  A    between atoms: C_17  and  N_26
    8  A    between atoms: C_18  and  N_19
    9  A    between atoms: N_19  and  C_20
   10  A    between atoms: C_22  and  N_30
   11  A    between atoms: C_24  and  C_28
   12  A    between atoms: C_24  and  N_35
   13  A    between atoms: C_25  and  N_29
                            x       y       z     vdW  Elec       q    Type
                         _______ _______ _______ _____ _____    ______ ____

>  <TORSDO>
F 13

$$$$
