=
 OpenBabel11042410263D

 29 32  0  0  1  0  0  0  0  0999 V2000
  190.4680  177.0880  146.8990 C   0  0  0  0  0  0  0  0  0  0  0  0
  189.7940  177.0710  142.2260 C   0  0  0  0  0  2  0  0  0  0  0  0
  189.2270  177.6650  140.9330 C   0  0  0  0  0  0  0  0  0  0  0  0
  189.9420  177.5170  139.7060 N   0  0  0  0  0  2  0  0  0  0  0  0
  188.1880  177.7780  145.4470 C   0  0  0  0  0  0  0  0  0  0  0  0
  187.6810  177.6820  143.2460 C   0  0  1  0  0  3  0  0  0  0  0  0
  190.5380  177.1930  145.4940 C   0  0  0  0  0  3  0  0  0  0  0  0
  189.3720  177.4990  144.7980 C   0  0  0  0  0  0  0  0  0  0  0  0
  187.1320  178.0990  144.5370 N   0  0  0  0  0  0  0  0  0  0  0  0
  187.2930  178.4640  142.0890 N   0  0  0  0  0  2  0  0  0  0  0  0
  188.0930  177.6840  146.8370 C   0  0  0  0  0  3  0  0  0  0  0  0
  188.0790  178.3060  140.9250 N   0  0  0  0  0  0  0  0  0  0  0  0
  189.2450  177.3330  147.5590 C   0  0  0  0  0  3  0  0  0  0  0  0
  189.1730  177.8350  143.3760 C   0  0  1  0  0  3  0  0  0  0  0  0
  191.5890  176.7550  147.6630 O   0  0  0  0  0  0  0  0  0  0  0  0
  192.4310  175.6540  147.3510 C   0  0  0  0  0  1  0  0  0  0  0  0
  191.2160  176.8200  139.6210 C   0  0  0  0  0  2  0  0  0  0  0  0
  192.9750  175.8490  136.4690 O   0  0  0  0  0  0  0  0  0  0  0  0
  191.0480  174.8440  138.2900 O   0  0  0  0  0  0  0  0  0  0  0  0
  191.1820  174.3290  136.9850 C   0  0  0  0  0  2  0  0  0  0  0  0
  192.8410  176.3640  137.7720 C   0  0  0  0  0  2  0  0  0  0  0  0
  191.3850  176.2120  138.2410 C   0  0  2  0  0  3  0  0  0  0  0  0
  192.6340  174.4830  136.5160 C   0  0  0  0  0  2  0  0  0  0  0  0
  185.7200  178.0350  144.9210 C   0  0  2  0  0  3  0  0  0  0  0  0
  184.1890  178.0060  143.0720 O   0  0  0  0  0  0  0  0  0  0  0  0
  184.7110  180.0750  143.9020 O   0  0  0  0  0  1  0  0  0  0  0  0
  184.8270  178.6930  143.9140 C   0  0  0  0  0  0  0  0  0  0  0  0
  184.2140  178.1740  146.7960 F   0  0  0  0  0  0  0  0  0  0  0  0
  185.4740  178.5260  146.3450 C   0  0  0  0  0  2  0  0  0  0  0  0
  1 13  1  0  0  0  0
  1 15  1  0  0  0  0
  3  2  1  0  0  0  0
  4  3  1  0  0  0  0
  5 11  1  0  0  0  0
  6 10  1  6  0  0  0
  6 14  1  0  0  0  0
  6  9  1  0  0  0  0
  7  1  2  0  0  0  0
  8  5  2  0  0  0  0
  8  7  1  0  0  0  0
  9 24  1  0  0  0  0
  9  5  1  0  0  0  0
 11 13  2  0  0  0  0
 12  3  2  0  0  0  0
 12 10  1  0  0  0  0
 14  2  1  6  0  0  0
 14  8  1  0  0  0  0
 16 15  1  0  0  0  0
 17  4  1  0  0  0  0
 18 23  1  0  0  0  0
 18 21  1  0  0  0  0
 20 19  1  0  0  0  0
 21 22  1  0  0  0  0
 22 19  1  0  0  0  0
 22 17  1  1  0  0  0
 23 20  1  0  0  0  0
 24 29  1  1  0  0  0
 25 27  2  0  0  0  0
 26 27  1  0  0  0  0
 27 24  1  0  0  0  0
 29 28  1  0  0  0  0
M  END
>  <MODEL>
1

>  <REMARK>
 VINA RESULT:      -9.1      0.000      0.000
  Name = 
  6 active torsions:
  status: ('A' for Active; 'I' for Inactive)
    1  A    between atoms: C_1  and  N_15
    2  A    between atoms: C_1  and  C_23
    3  A    between atoms: C_2  and  O_6
    4  A    between atoms: C_5  and  C_12
    5  A    between atoms: C_5  and  N_21
    6  A    between atoms: C_5  and  C_24
                            x       y       z     vdW  Elec       q    Type
                         _______ _______ _______ _____ _____    ______ ____

>  <TORSDO>
F 6

$$$$
=
 OpenBabel11042410263D

 29 32  0  0  1  0  0  0  0  0999 V2000
  184.8370  178.6470  145.3260 C   0  0  0  0  0  0  0  0  0  0  0  0
  187.7230  178.0960  141.6300 C   0  0  0  0  0  2  0  0  0  0  0  0
  188.8240  177.3560  140.8650 C   0  0  0  0  0  0  0  0  0  0  0  0
  188.8130  177.3380  139.4370 N   0  0  0  0  0  2  0  0  0  0  0  0
  187.5020  177.8230  145.2810 C   0  0  0  0  0  0  0  0  0  0  0  0
  189.0300  177.6540  143.6240 C   0  0  1  0  0  3  0  0  0  0  0  0
  185.4630  178.3670  144.0930 C   0  0  0  0  0  3  0  0  0  0  0  0
  186.8050  177.9980  144.1050 C   0  0  0  0  0  0  0  0  0  0  0  0
  188.8530  177.4110  145.0560 N   0  0  0  0  0  0  0  0  0  0  0  0
  189.9000  176.7410  142.9100 N   0  0  0  0  0  2  0  0  0  0  0  0
  186.9050  178.0910  146.5150 C   0  0  0  0  0  3  0  0  0  0  0  0
  189.7970  176.7390  141.5000 N   0  0  0  0  0  0  0  0  0  0  0  0
  185.5640  178.5080  146.5280 C   0  0  0  0  0  3  0  0  0  0  0  0
  187.6620  177.4920  143.0170 C   0  0  1  0  0  3  0  0  0  0  0  0
  183.5020  179.0520  145.3920 O   0  0  0  0  0  0  0  0  0  0  0  0
  182.6050  178.9200  144.2980 C   0  0  0  0  0  1  0  0  0  0  0  0
  187.7800  177.9960  138.6540 C   0  0  0  0  0  2  0  0  0  0  0  0
  189.1450  177.6880  135.1880 O   0  0  0  0  0  0  0  0  0  0  0  0
  187.8610  176.1240  137.1730 O   0  0  0  0  0  0  0  0  0  0  0  0
  187.8850  175.7370  135.8190 C   0  0  0  0  0  2  0  0  0  0  0  0
  189.1200  178.0750  136.5420 C   0  0  0  0  0  2  0  0  0  0  0  0
  187.8470  177.5320  137.2110 C   0  0  2  0  0  3  0  0  0  0  0  0
  189.1540  176.2800  135.1500 C   0  0  0  0  0  2  0  0  0  0  0  0
  189.8950  177.5470  146.0760 C   0  0  2  0  0  3  0  0  0  0  0  0
  191.7770  176.1320  145.6100 O   0  0  0  0  0  1  0  0  0  0  0  0
  191.9780  178.3120  144.9380 O   0  0  0  0  0  0  0  0  0  0  0  0
  191.2640  177.2800  145.5290 C   0  0  0  0  0  0  0  0  0  0  0  0
  189.4560  177.5650  148.4450 F   0  0  0  0  0  0  0  0  0  0  0  0
  189.5920  176.7450  147.3390 C   0  0  0  0  0  2  0  0  0  0  0  0
  1 15  1  0  0  0  0
  1 13  1  0  0  0  0
  3 12  2  0  0  0  0
  3  2  1  0  0  0  0
  4  3  1  0  0  0  0
  5 11  1  0  0  0  0
  6 10  1  6  0  0  0
  6  9  1  0  0  0  0
  7  8  1  0  0  0  0
  7  1  2  0  0  0  0
  8  5  2  0  0  0  0
  9  5  1  0  0  0  0
  9 24  1  0  0  0  0
 11 13  2  0  0  0  0
 12 10  1  0  0  0  0
 14  2  1  6  0  0  0
 14  6  1  0  0  0  0
 14  8  1  0  0  0  0
 16 15  1  0  0  0  0
 17  4  1  0  0  0  0
 18 21  1  0  0  0  0
 19 22  1  0  0  0  0
 20 19  1  0  0  0  0
 21 22  1  0  0  0  0
 22 17  1  1  0  0  0
 23 18  1  0  0  0  0
 23 20  1  0  0  0  0
 24 29  1  1  0  0  0
 26 27  2  0  0  0  0
 27 25  1  0  0  0  0
 27 24  1  0  0  0  0
 29 28  1  0  0  0  0
M  END
>  <MODEL>
2

>  <REMARK>
 VINA RESULT:      -9.1      2.504      4.801
  Name = 
  6 active torsions:
  status: ('A' for Active; 'I' for Inactive)
    1  A    between atoms: C_1  and  N_15
    2  A    between atoms: C_1  and  C_23
    3  A    between atoms: C_2  and  O_6
    4  A    between atoms: C_5  and  C_12
    5  A    between atoms: C_5  and  N_21
    6  A    between atoms: C_5  and  C_24
                            x       y       z     vdW  Elec       q    Type
                         _______ _______ _______ _____ _____    ______ ____

>  <TORSDO>
F 6

$$$$
=
 OpenBabel11042410263D

 29 32  0  0  1  0  0  0  0  0999 V2000
  188.8440  177.1230  146.2280 C   0  0  0  0  0  0  0  0  0  0  0  0
  189.3740  177.1940  141.5370 C   0  0  0  0  0  2  0  0  0  0  0  0
  189.1770  177.8280  140.1570 C   0  0  0  0  0  0  0  0  0  0  0  0
  190.1730  177.6640  139.1470 N   0  0  0  0  0  2  0  0  0  0  0  0
  187.0350  177.9310  144.2640 C   0  0  0  0  0  0  0  0  0  0  0  0
  187.0980  177.8850  142.0050 C   0  0  1  0  0  3  0  0  0  0  0  0
  189.2720  177.2420  144.8890 C   0  0  0  0  0  3  0  0  0  0  0  0
  188.3320  177.6080  143.9290 C   0  0  0  0  0  0  0  0  0  0  0  0
  186.2570  178.3100  143.1250 N   0  0  0  0  0  0  0  0  0  0  0  0
  187.0470  178.6980  140.8060 N   0  0  0  0  0  2  0  0  0  0  0  0
  186.5880  177.8240  145.5830 C   0  0  0  0  0  3  0  0  0  0  0  0
  188.0950  178.5200  139.8740 N   0  0  0  0  0  0  0  0  0  0  0  0
  187.5040  177.4130  146.5640 C   0  0  0  0  0  3  0  0  0  0  0  0
  188.5140  177.9700  142.5100 C   0  0  1  0  0  3  0  0  0  0  0  0
  189.7220  176.7310  147.2420 O   0  0  0  0  0  0  0  0  0  0  0  0
  191.1320  176.7150  147.0730 C   0  0  0  0  0  1  0  0  0  0  0  0
  191.3980  176.9120  139.3700 C   0  0  0  0  0  2  0  0  0  0  0  0
  193.5960  175.3200  136.7990 O   0  0  0  0  0  0  0  0  0  0  0  0
  191.2040  174.8190  138.2370 O   0  0  0  0  0  0  0  0  0  0  0  0
  191.5210  174.1260  137.0520 C   0  0  0  0  0  2  0  0  0  0  0  0
  193.2780  176.0130  137.9830 C   0  0  0  0  0  2  0  0  0  0  0  0
  191.7510  176.1130  138.1290 C   0  0  2  0  0  3  0  0  0  0  0  0
  193.0450  174.0280  136.9040 C   0  0  0  0  0  2  0  0  0  0  0  0
  184.7930  178.3040  143.1390 C   0  0  2  0  0  3  0  0  0  0  0  0
  183.6940  177.3440  141.2320 O   0  0  0  0  0  1  0  0  0  0  0  0
  184.2550  179.5560  141.0500 O   0  0  0  0  0  0  0  0  0  0  0  0
  184.2120  178.3650  141.7590 C   0  0  0  0  0  0  0  0  0  0  0  0
  183.3170  178.7980  144.9770 F   0  0  0  0  0  0  0  0  0  0  0  0
  184.2070  179.3560  144.0770 C   0  0  0  0  0  2  0  0  0  0  0  0
  1 13  1  0  0  0  0
  1 15  1  0  0  0  0
  3  2  1  0  0  0  0
  4 17  1  0  0  0  0
  4  3  1  0  0  0  0
  5 11  1  0  0  0  0
  6 10  1  6  0  0  0
  6 14  1  0  0  0  0
  6  9  1  0  0  0  0
  7  1  2  0  0  0  0
  8  5  2  0  0  0  0
  8  7  1  0  0  0  0
  9 24  1  0  0  0  0
  9  5  1  0  0  0  0
 11 13  2  0  0  0  0
 12  3  2  0  0  0  0
 12 10  1  0  0  0  0
 14  2  1  6  0  0  0
 14  8  1  0  0  0  0
 16 15  1  0  0  0  0
 18 23  1  0  0  0  0
 18 21  1  0  0  0  0
 20 19  1  0  0  0  0
 21 22  1  0  0  0  0
 22 19  1  0  0  0  0
 22 17  1  1  0  0  0
 23 20  1  0  0  0  0
 24 29  1  1  0  0  0
 25 27  1  0  0  0  0
 26 27  2  0  0  0  0
 27 24  1  0  0  0  0
 29 28  1  0  0  0  0
M  END
>  <MODEL>
3

>  <REMARK>
 VINA RESULT:      -8.7      1.261      1.560
  Name = 
  6 active torsions:
  status: ('A' for Active; 'I' for Inactive)
    1  A    between atoms: C_1  and  N_15
    2  A    between atoms: C_1  and  C_23
    3  A    between atoms: C_2  and  O_6
    4  A    between atoms: C_5  and  C_12
    5  A    between atoms: C_5  and  N_21
    6  A    between atoms: C_5  and  C_24
                            x       y       z     vdW  Elec       q    Type
                         _______ _______ _______ _____ _____    ______ ____

>  <TORSDO>
F 6

$$$$
=
 OpenBabel11042410263D

 29 32  0  0  1  0  0  0  0  0999 V2000
  189.7530  176.8650  141.7500 C   0  0  0  0  0  0  0  0  0  0  0  0
  185.5600  177.9690  143.6170 C   0  0  0  0  0  2  0  0  0  0  0  0
  184.6730  178.7090  144.6240 C   0  0  0  0  0  0  0  0  0  0  0  0
  183.3620  179.1300  144.2450 N   0  0  0  0  0  2  0  0  0  0  0  0
  189.0610  177.2330  144.4270 C   0  0  0  0  0  0  0  0  0  0  0  0
  187.0900  177.6160  145.4650 C   0  0  1  0  0  3  0  0  0  0  0  0
  188.4810  177.3780  142.0790 C   0  0  0  0  0  3  0  0  0  0  0  0
  188.1540  177.5100  143.4260 C   0  0  0  0  0  0  0  0  0  0  0  0
  188.5220  177.4700  145.7310 N   0  0  0  0  0  0  0  0  0  0  0  0
  186.3610  178.5410  146.3090 N   0  0  0  0  0  2  0  0  0  0  0  0
  190.3270  176.7270  144.1260 C   0  0  0  0  0  3  0  0  0  0  0  0
  185.0920  178.9580  145.8450 N   0  0  0  0  0  0  0  0  0  0  0  0
  190.6660  176.5420  142.7760 C   0  0  0  0  0  3  0  0  0  0  0  0
  186.9930  178.1590  144.0640 C   0  0  1  0  0  3  0  0  0  0  0  0
  190.1420  176.6770  140.4210 O   0  0  0  0  0  0  0  0  0  0  0  0
  189.6400  177.4700  139.3540 C   0  0  0  0  0  1  0  0  0  0  0  0
  182.8170  178.8940  142.9190 C   0  0  0  0  0  2  0  0  0  0  0  0
  179.4300  178.1970  144.3410 O   0  0  0  0  0  0  0  0  0  0  0  0
  180.8040  180.1770  142.8470 O   0  0  0  0  0  0  0  0  0  0  0  0
  179.3970  180.1010  142.8680 C   0  0  0  0  0  2  0  0  0  0  0  0
  180.8360  178.2730  144.3180 C   0  0  0  0  0  2  0  0  0  0  0  0
  181.3010  178.8650  142.9780 C   0  0  2  0  0  3  0  0  0  0  0  0
  178.9330  179.5080  144.2050 C   0  0  0  0  0  2  0  0  0  0  0  0
  189.1070  176.8870  146.9390 C   0  0  2  0  0  3  0  0  0  0  0  0
  189.1720  178.6220  148.5970 O   0  0  0  0  0  0  0  0  0  0  0  0
  187.5740  177.0110  148.9030 O   0  0  0  0  0  1  0  0  0  0  0  0
  188.6260  177.5630  148.1870 C   0  0  0  0  0  0  0  0  0  0  0  0
  191.0990  175.6750  147.5450 F   0  0  0  0  0  0  0  0  0  0  0  0
  190.6290  176.7850  146.8670 C   0  0  0  0  0  2  0  0  0  0  0  0
  1  7  2  0  0  0  0
  1 13  1  0  0  0  0
  2  3  1  0  0  0  0
  3 12  2  0  0  0  0
  4  3  1  0  0  0  0
  5  9  1  0  0  0  0
  6  9  1  0  0  0  0
  6 10  1  1  0  0  0
  7  8  1  0  0  0  0
  8 14  1  0  0  0  0
  8  5  2  0  0  0  0
  9 24  1  0  0  0  0
 11  5  1  0  0  0  0
 12 10  1  0  0  0  0
 13 11  2  0  0  0  0
 14  2  1  6  0  0  0
 14  6  1  0  0  0  0
 15  1  1  0  0  0  0
 16 15  1  0  0  0  0
 17  4  1  0  0  0  0
 19 20  1  0  0  0  0
 19 22  1  0  0  0  0
 20 23  1  0  0  0  0
 21 18  1  0  0  0  0
 22 17  1  1  0  0  0
 22 21  1  0  0  0  0
 23 18  1  0  0  0  0
 24 29  1  6  0  0  0
 24 27  1  0  0  0  0
 27 25  2  0  0  0  0
 27 26  1  0  0  0  0
 29 28  1  0  0  0  0
M  END
>  <MODEL>
4

>  <REMARK>
 VINA RESULT:      -8.6      3.208      8.160
  Name = 
  6 active torsions:
  status: ('A' for Active; 'I' for Inactive)
    1  A    between atoms: C_1  and  N_15
    2  A    between atoms: C_1  and  C_23
    3  A    between atoms: C_2  and  O_6
    4  A    between atoms: C_5  and  C_12
    5  A    between atoms: C_5  and  N_21
    6  A    between atoms: C_5  and  C_24
                            x       y       z     vdW  Elec       q    Type
                         _______ _______ _______ _____ _____    ______ ____

>  <TORSDO>
F 6

$$$$
=
 OpenBabel11042410263D

 29 32  0  0  1  0  0  0  0  0999 V2000
  186.3180  177.7850  144.2100 C   0  0  0  0  0  0  0  0  0  0  0  0
  188.3580  178.2820  139.9810 C   0  0  0  0  0  2  0  0  0  0  0  0
  189.3450  177.8550  138.8900 C   0  0  0  0  0  0  0  0  0  0  0  0
  189.0200  178.0580  137.5140 N   0  0  0  0  0  2  0  0  0  0  0  0
  188.9860  177.4130  143.4890 C   0  0  0  0  0  0  0  0  0  0  0  0
  190.1180  177.7490  141.5610 C   0  0  1  0  0  3  0  0  0  0  0  0
  186.6840  177.8040  142.8470 C   0  0  0  0  0  3  0  0  0  0  0  0
  188.0300  177.6550  142.5260 C   0  0  0  0  0  0  0  0  0  0  0  0
  190.2940  177.2610  142.9290 N   0  0  0  0  0  0  0  0  0  0  0  0
  190.9140  177.1090  140.5330 N   0  0  0  0  0  2  0  0  0  0  0  0
  188.6490  177.3870  144.8430 C   0  0  0  0  0  3  0  0  0  0  0  0
  190.5020  177.3100  139.1950 N   0  0  0  0  0  0  0  0  0  0  0  0
  187.3040  177.5790  145.1970 C   0  0  0  0  0  3  0  0  0  0  0  0
  188.6800  177.4680  141.2150 C   0  0  1  0  0  3  0  0  0  0  0  0
  184.9900  177.9570  144.6110 O   0  0  0  0  0  0  0  0  0  0  0  0
  184.5780  179.0120  145.4680 C   0  0  0  0  0  1  0  0  0  0  0  0
  187.7660  178.6570  137.0860 C   0  0  0  0  0  2  0  0  0  0  0  0
  186.7640  175.3910  135.5680 O   0  0  0  0  0  0  0  0  0  0  0  0
  185.9390  177.2030  137.5880 O   0  0  0  0  0  0  0  0  0  0  0  0
  185.0660  176.2360  137.0520 C   0  0  0  0  0  2  0  0  0  0  0  0
  187.6360  176.3580  136.1040 C   0  0  0  0  0  2  0  0  0  0  0  0
  186.8290  177.5840  136.5640 C   0  0  2  0  0  3  0  0  0  0  0  0
  185.8700  175.0140  136.5910 C   0  0  0  0  0  2  0  0  0  0  0  0
  191.5110  177.4010  143.7320 C   0  0  2  0  0  3  0  0  0  0  0  0
  192.0180  175.0710  144.0080 O   0  0  0  0  0  0  0  0  0  0  0  0
  191.7880  176.2770  145.9410 O   0  0  0  0  0  1  0  0  0  0  0  0
  191.7910  176.1820  144.5570 C   0  0  0  0  0  0  0  0  0  0  0  0
  191.2220  179.7920  143.7730 F   0  0  0  0  0  0  0  0  0  0  0  0
  191.5320  178.6900  144.5500 C   0  0  0  0  0  2  0  0  0  0  0  0
  1 15  1  0  0  0  0
  1 13  1  0  0  0  0
  3 12  2  0  0  0  0
  3  2  1  0  0  0  0
  4  3  1  0  0  0  0
  5 11  1  0  0  0  0
  6 10  1  6  0  0  0
  6  9  1  0  0  0  0
  7  1  2  0  0  0  0
  8  7  1  0  0  0  0
  8  5  2  0  0  0  0
  9  5  1  0  0  0  0
  9 24  1  0  0  0  0
 11 13  2  0  0  0  0
 12 10  1  0  0  0  0
 14  2  1  6  0  0  0
 14  6  1  0  0  0  0
 14  8  1  0  0  0  0
 15 16  1  0  0  0  0
 17  4  1  0  0  0  0
 18 21  1  0  0  0  0
 18 23  1  0  0  0  0
 20 19  1  0  0  0  0
 21 22  1  0  0  0  0
 22 17  1  1  0  0  0
 22 19  1  0  0  0  0
 23 20  1  0  0  0  0
 24 29  1  1  0  0  0
 24 27  1  0  0  0  0
 25 27  2  0  0  0  0
 27 26  1  0  0  0  0
 28 29  1  0  0  0  0
M  END
>  <MODEL>
5

>  <REMARK>
 VINA RESULT:      -8.5      3.265      5.392
  Name = 
  6 active torsions:
  status: ('A' for Active; 'I' for Inactive)
    1  A    between atoms: C_1  and  N_15
    2  A    between atoms: C_1  and  C_23
    3  A    between atoms: C_2  and  O_6
    4  A    between atoms: C_5  and  C_12
    5  A    between atoms: C_5  and  N_21
    6  A    between atoms: C_5  and  C_24
                            x       y       z     vdW  Elec       q    Type
                         _______ _______ _______ _____ _____    ______ ____

>  <TORSDO>
F 6

$$$$
=
 OpenBabel11042410263D

 29 32  0  0  1  0  0  0  0  0999 V2000
  185.3750  178.3420  144.9440 C   0  0  0  0  0  0  0  0  0  0  0  0
  187.4570  178.3270  140.7060 C   0  0  0  0  0  2  0  0  0  0  0  0
  188.4210  177.7450  139.6680 C   0  0  0  0  0  0  0  0  0  0  0  0
  188.1140  177.8380  138.2770 N   0  0  0  0  0  2  0  0  0  0  0  0
  188.0200  177.7500  144.2840 C   0  0  0  0  0  0  0  0  0  0  0  0
  189.1770  177.8400  142.3450 C   0  0  1  0  0  3  0  0  0  0  0  0
  185.7470  178.2140  143.5890 C   0  0  0  0  0  3  0  0  0  0  0  0
  187.0830  177.9580  143.2950 C   0  0  0  0  0  0  0  0  0  0  0  0
  189.3190  177.4700  143.7530 N   0  0  0  0  0  0  0  0  0  0  0  0
  189.9370  177.0630  141.3860 N   0  0  0  0  0  2  0  0  0  0  0  0
  187.6770  177.8680  145.6330 C   0  0  0  0  0  3  0  0  0  0  0  0
  189.5430  177.1630  140.0330 N   0  0  0  0  0  0  0  0  0  0  0  0
  186.3440  178.1700  145.9550 C   0  0  0  0  0  3  0  0  0  0  0  0
  187.7260  177.6130  142.0130 C   0  0  1  0  0  3  0  0  0  0  0  0
  184.0590  178.6280  145.3160 O   0  0  0  0  0  0  0  0  0  0  0  0
  183.0610  179.0040  144.3770 C   0  0  0  0  0  1  0  0  0  0  0  0
  186.8990  178.4680  137.7840 C   0  0  0  0  0  2  0  0  0  0  0  0
  183.5640  176.7820  137.9110 O   0  0  0  0  0  0  0  0  0  0  0  0
  185.6760  177.3080  136.0930 O   0  0  0  0  0  0  0  0  0  0  0  0
  184.7260  176.2940  135.8590 C   0  0  0  0  0  2  0  0  0  0  0  0
  184.5150  177.7950  138.1430 C   0  0  0  0  0  2  0  0  0  0  0  0
  185.8510  177.4120  137.4870 C   0  0  2  0  0  3  0  0  0  0  0  0
  183.3930  176.6750  136.5160 C   0  0  0  0  0  2  0  0  0  0  0  0
  190.5390  177.6120  144.5510 C   0  0  2  0  0  3  0  0  0  0  0  0
  192.4260  178.3620  143.2700 O   0  0  0  0  0  0  0  0  0  0  0  0
  191.2270  180.0000  144.3310 O   0  0  0  0  0  1  0  0  0  0  0  0
  191.4520  178.6690  144.0080 C   0  0  0  0  0  0  0  0  0  0  0  0
  191.2960  175.5160  143.6360 F   0  0  0  0  0  0  0  0  0  0  0  0
  191.2460  176.2800  144.7890 C   0  0  0  0  0  2  0  0  0  0  0  0
  1 15  1  0  0  0  0
  1 13  1  0  0  0  0
  3 12  2  0  0  0  0
  3  2  1  0  0  0  0
  4  3  1  0  0  0  0
  5 11  1  0  0  0  0
  6 10  1  6  0  0  0
  6  9  1  0  0  0  0
  7  1  2  0  0  0  0
  8  7  1  0  0  0  0
  8  5  2  0  0  0  0
  9  5  1  0  0  0  0
  9 24  1  0  0  0  0
 11 13  2  0  0  0  0
 12 10  1  0  0  0  0
 14  2  1  6  0  0  0
 14  6  1  0  0  0  0
 14  8  1  0  0  0  0
 16 15  1  0  0  0  0
 17  4  1  0  0  0  0
 18 21  1  0  0  0  0
 19 22  1  0  0  0  0
 20 19  1  0  0  0  0
 20 23  1  0  0  0  0
 22 17  1  6  0  0  0
 22 21  1  0  0  0  0
 23 18  1  0  0  0  0
 24 29  1  6  0  0  0
 25 27  2  0  0  0  0
 27 26  1  0  0  0  0
 27 24  1  0  0  0  0
 28 29  1  0  0  0  0
M  END
>  <MODEL>
6

>  <REMARK>
 VINA RESULT:      -8.2      3.686      5.819
  Name = 
  6 active torsions:
  status: ('A' for Active; 'I' for Inactive)
    1  A    between atoms: C_1  and  N_15
    2  A    between atoms: C_1  and  C_23
    3  A    between atoms: C_2  and  O_6
    4  A    between atoms: C_5  and  C_12
    5  A    between atoms: C_5  and  N_21
    6  A    between atoms: C_5  and  C_24
                            x       y       z     vdW  Elec       q    Type
                         _______ _______ _______ _____ _____    ______ ____

>  <TORSDO>
F 6

$$$$
=
 OpenBabel11042410263D

 29 32  0  0  1  0  0  0  0  0999 V2000
  185.1910  178.6270  139.0070 C   0  0  0  0  0  0  0  0  0  0  0  0
  184.5450  179.2280  143.6450 C   0  0  0  0  0  2  0  0  0  0  0  0
  183.8570  178.9010  144.9750 C   0  0  0  0  0  0  0  0  0  0  0  0
  184.5880  178.9930  146.1980 N   0  0  0  0  0  2  0  0  0  0  0  0
  182.8160  178.6160  140.4680 C   0  0  0  0  0  0  0  0  0  0  0  0
  182.3460  179.0280  142.6410 C   0  0  1  0  0  3  0  0  0  0  0  0
  185.2370  178.6380  140.4170 C   0  0  0  0  0  3  0  0  0  0  0  0
  184.0320  178.6740  141.1140 C   0  0  0  0  0  0  0  0  0  0  0  0
  181.7140  178.6320  141.3820 N   0  0  0  0  0  0  0  0  0  0  0  0
  181.7900  178.4660  143.8560 N   0  0  0  0  0  2  0  0  0  0  0  0
  182.7430  178.6020  139.0740 C   0  0  0  0  0  3  0  0  0  0  0  0
  182.5920  178.5450  145.0170 N   0  0  0  0  0  0  0  0  0  0  0  0
  183.9450  178.6110  138.3470 C   0  0  0  0  0  3  0  0  0  0  0  0
  183.7630  178.5250  142.5560 C   0  0  1  0  0  3  0  0  0  0  0  0
  186.3590  178.6210  138.2390 O   0  0  0  0  0  0  0  0  0  0  0  0
  186.6930  177.5580  137.3590 C   0  0  0  0  0  1  0  0  0  0  0  0
  185.9880  179.3830  146.2450 C   0  0  0  0  0  2  0  0  0  0  0  0
  188.6650  176.7720  146.2170 O   0  0  0  0  0  0  0  0  0  0  0  0
  187.4270  178.6100  147.9870 O   0  0  0  0  0  0  0  0  0  0  0  0
  188.1660  177.5060  148.4560 C   0  0  0  0  0  2  0  0  0  0  0  0
  187.9250  177.8760  145.7500 C   0  0  0  0  0  2  0  0  0  0  0  0
  186.8300  178.2340  146.7680 C   0  0  2  0  0  3  0  0  0  0  0  0
  189.2580  177.1470  147.4390 C   0  0  0  0  0  2  0  0  0  0  0  0
  180.3560  178.9840  140.9650 C   0  0  2  0  0  3  0  0  0  0  0  0
  180.1450  181.2610  140.2330 O   0  0  0  0  0  0  0  0  0  0  0  0
  179.6800  180.8780  142.4420 O   0  0  0  0  0  1  0  0  0  0  0  0
  180.0540  180.4360  141.1810 C   0  0  0  0  0  0  0  0  0  0  0  0
  179.7260  176.7460  141.5980 F   0  0  0  0  0  0  0  0  0  0  0  0
  179.2970  178.0610  141.5660 C   0  0  0  0  0  2  0  0  0  0  0  0
  1  7  1  0  0  0  0
  2  3  1  0  0  0  0
  3 12  2  0  0  0  0
  3  4  1  0  0  0  0
  4 17  1  0  0  0  0
  5  8  1  0  0  0  0
  5  9  1  0  0  0  0
  6 10  1  1  0  0  0
  7  8  2  0  0  0  0
  8 14  1  0  0  0  0
  9  6  1  0  0  0  0
 10 12  1  0  0  0  0
 11  5  2  0  0  0  0
 13  1  2  0  0  0  0
 13 11  1  0  0  0  0
 14  6  1  0  0  0  0
 14  2  1  1  0  0  0
 15  1  1  0  0  0  0
 16 15  1  0  0  0  0
 18 23  1  0  0  0  0
 19 20  1  0  0  0  0
 21 18  1  0  0  0  0
 21 22  1  0  0  0  0
 22 17  1  6  0  0  0
 22 19  1  0  0  0  0
 23 20  1  0  0  0  0
 24 27  1  0  0  0  0
 24  9  1  0  0  0  0
 24 29  1  1  0  0  0
 25 27  2  0  0  0  0
 27 26  1  0  0  0  0
 29 28  1  0  0  0  0
M  END
>  <MODEL>
7

>  <REMARK>
 VINA RESULT:      -8.2      4.529      8.476
  Name = 
  6 active torsions:
  status: ('A' for Active; 'I' for Inactive)
    1  A    between atoms: C_1  and  N_15
    2  A    between atoms: C_1  and  C_23
    3  A    between atoms: C_2  and  O_6
    4  A    between atoms: C_5  and  C_12
    5  A    between atoms: C_5  and  N_21
    6  A    between atoms: C_5  and  C_24
                            x       y       z     vdW  Elec       q    Type
                         _______ _______ _______ _____ _____    ______ ____

>  <TORSDO>
F 6

$$$$
=
 OpenBabel11042410263D

 29 32  0  0  1  0  0  0  0  0999 V2000
  184.6900  178.7170  145.2350 C   0  0  0  0  0  0  0  0  0  0  0  0
  188.3000  178.2080  142.2350 C   0  0  0  0  0  2  0  0  0  0  0  0
  189.4620  177.4150  141.6300 C   0  0  0  0  0  0  0  0  0  0  0  0
  189.7940  177.5740  140.2500 N   0  0  0  0  0  2  0  0  0  0  0  0
  187.1750  177.5250  145.6590 C   0  0  0  0  0  0  0  0  0  0  0  0
  189.0290  177.3390  144.3780 C   0  0  1  0  0  3  0  0  0  0  0  0
  185.5580  178.5030  144.1430 C   0  0  0  0  0  3  0  0  0  0  0  0
  186.8070  177.9420  144.3980 C   0  0  0  0  0  0  0  0  0  0  0  0
  188.4860  176.9500  145.6800 N   0  0  0  0  0  0  0  0  0  0  0  0
  189.9370  176.4040  143.7440 N   0  0  0  0  0  2  0  0  0  0  0  0
  186.3330  177.7230  146.7540 C   0  0  0  0  0  3  0  0  0  0  0  0
  190.1770  176.5900  142.3640 N   0  0  0  0  0  0  0  0  0  0  0  0
  185.0850  178.3280  146.5320 C   0  0  0  0  0  3  0  0  0  0  0  0
  187.8380  177.4540  143.4630 C   0  0  1  0  0  3  0  0  0  0  0  0
  183.4320  179.3020  145.0620 O   0  0  0  0  0  0  0  0  0  0  0  0
  182.5930  179.0040  143.9550 C   0  0  0  0  0  1  0  0  0  0  0  0
  189.0610  178.4660  139.3670 C   0  0  0  0  0  2  0  0  0  0  0  0
  186.6980  177.1270  136.7980 O   0  0  0  0  0  0  0  0  0  0  0  0
  189.2960  178.2460  137.0010 O   0  0  0  0  0  0  0  0  0  0  0  0
  188.8900  177.5020  135.8750 C   0  0  0  0  0  2  0  0  0  0  0  0
  187.1050  177.8690  137.9230 C   0  0  0  0  0  2  0  0  0  0  0  0
  188.6220  177.7200  138.1210 C   0  0  2  0  0  3  0  0  0  0  0  0
  187.3760  177.6500  135.6780 C   0  0  0  0  0  2  0  0  0  0  0  0
  189.2590  176.8080  146.9150 C   0  0  2  0  0  3  0  0  0  0  0  0
  189.3470  178.9920  147.9070 O   0  0  0  0  0  0  0  0  0  0  0  0
  187.9970  177.4720  148.9610 O   0  0  0  0  0  1  0  0  0  0  0  0
  188.8750  177.8250  147.9460 C   0  0  0  0  0  0  0  0  0  0  0  0
  191.4380  176.1870  147.7330 F   0  0  0  0  0  0  0  0  0  0  0  0
  190.7640  176.7530  146.6650 C   0  0  0  0  0  2  0  0  0  0  0  0
  1 13  1  0  0  0  0
  3  2  1  0  0  0  0
  3 12  2  0  0  0  0
  4  3  1  0  0  0  0
  5  9  1  0  0  0  0
  5 11  1  0  0  0  0
  6 10  1  6  0  0  0
  6  9  1  0  0  0  0
  7  8  1  0  0  0  0
  7  1  2  0  0  0  0
  8  5  2  0  0  0  0
  9 24  1  0  0  0  0
 12 10  1  0  0  0  0
 13 11  2  0  0  0  0
 14  2  1  6  0  0  0
 14  6  1  0  0  0  0
 14  8  1  0  0  0  0
 15  1  1  0  0  0  0
 16 15  1  0  0  0  0
 17  4  1  0  0  0  0
 18 21  1  0  0  0  0
 19 22  1  0  0  0  0
 20 19  1  0  0  0  0
 21 22  1  0  0  0  0
 22 17  1  1  0  0  0
 23 20  1  0  0  0  0
 23 18  1  0  0  0  0
 24 29  1  6  0  0  0
 24 27  1  0  0  0  0
 25 27  2  0  0  0  0
 27 26  1  0  0  0  0
 29 28  1  0  0  0  0
M  END
>  <MODEL>
8

>  <REMARK>
 VINA RESULT:      -8.1      2.826      5.028
  Name = 
  6 active torsions:
  status: ('A' for Active; 'I' for Inactive)
    1  A    between atoms: C_1  and  N_15
    2  A    between atoms: C_1  and  C_23
    3  A    between atoms: C_2  and  O_6
    4  A    between atoms: C_5  and  C_12
    5  A    between atoms: C_5  and  N_21
    6  A    between atoms: C_5  and  C_24
                            x       y       z     vdW  Elec       q    Type
                         _______ _______ _______ _____ _____    ______ ____

>  <TORSDO>
F 6

$$$$
=
 OpenBabel11042410263D

 29 32  0  0  1  0  0  0  0  0999 V2000
  188.9660  178.1080  139.0250 C   0  0  0  0  0  0  0  0  0  0  0  0
  185.2870  178.1220  141.9850 C   0  0  0  0  0  2  0  0  0  0  0  0
  184.6250  178.4450  143.3280 C   0  0  0  0  0  0  0  0  0  0  0  0
  183.2380  178.7810  143.3780 N   0  0  0  0  0  2  0  0  0  0  0  0
  188.9180  177.6490  141.7760 C   0  0  0  0  0  0  0  0  0  0  0  0
  187.2370  177.4840  143.2780 C   0  0  1  0  0  3  0  0  0  0  0  0
  187.7810  178.3460  139.7540 C   0  0  0  0  0  3  0  0  0  0  0  0
  187.7820  178.0680  141.1180 C   0  0  0  0  0  0  0  0  0  0  0  0
  188.6960  177.4570  143.1770 N   0  0  0  0  0  0  0  0  0  0  0  0
  186.6770  178.0470  144.4900 N   0  0  0  0  0  2  0  0  0  0  0  0
  190.1040  177.4090  141.0780 C   0  0  0  0  0  3  0  0  0  0  0  0
  185.3100  178.4070  144.4500 N   0  0  0  0  0  0  0  0  0  0  0  0
  190.1170  177.6390  139.6930 C   0  0  0  0  0  3  0  0  0  0  0  0
  186.7710  178.3670  142.1500 C   0  0  1  0  0  3  0  0  0  0  0  0
  189.0330  178.3350  137.6480 O   0  0  0  0  0  0  0  0  0  0  0  0
  188.9720  177.2860  136.6930 C   0  0  0  0  0  1  0  0  0  0  0  0
  182.4040  178.8420  142.1890 C   0  0  0  0  0  2  0  0  0  0  0  0
  179.3950  178.3960  144.3620 O   0  0  0  0  0  0  0  0  0  0  0  0
  180.4830  180.2280  142.4900 O   0  0  0  0  0  0  0  0  0  0  0  0
  179.1150  180.2290  142.8270 C   0  0  0  0  0  2  0  0  0  0  0  0
  180.7630  178.3950  144.0240 C   0  0  0  0  0  2  0  0  0  0  0  0
  180.9400  178.8980  142.5830 C   0  0  2  0  0  3  0  0  0  0  0  0
  178.9370  179.7250  144.2640 C   0  0  0  0  0  2  0  0  0  0  0  0
  189.5910  176.6500  144.0080 C   0  0  2  0  0  3  0  0  0  0  0  0
  190.6100  177.2210  146.1050 O   0  0  0  0  0  1  0  0  0  0  0  0
  191.1200  178.5910  144.3430 O   0  0  0  0  0  0  0  0  0  0  0  0
  190.4670  177.4930  144.8830 C   0  0  0  0  0  0  0  0  0  0  0  0
  191.6640  175.4670  143.6790 F   0  0  0  0  0  0  0  0  0  0  0  0
  190.3740  175.6160  143.2020 C   0  0  0  0  0  2  0  0  0  0  0  0
  1 13  2  0  0  0  0
  1  7  1  0  0  0  0
  2  3  1  0  0  0  0
  3  4  1  0  0  0  0
  3 12  2  0  0  0  0
  5  9  1  0  0  0  0
  6 10  1  1  0  0  0
  7  8  2  0  0  0  0
  8  5  1  0  0  0  0
  8 14  1  0  0  0  0
  9  6  1  0  0  0  0
  9 24  1  0  0  0  0
 11  5  2  0  0  0  0
 12 10  1  0  0  0  0
 13 11  1  0  0  0  0
 14  2  1  6  0  0  0
 14  6  1  0  0  0  0
 15  1  1  0  0  0  0
 16 15  1  0  0  0  0
 17  4  1  0  0  0  0
 19 22  1  0  0  0  0
 19 20  1  0  0  0  0
 20 23  1  0  0  0  0
 21 18  1  0  0  0  0
 22 17  1  1  0  0  0
 22 21  1  0  0  0  0
 23 18  1  0  0  0  0
 24 29  1  6  0  0  0
 24 27  1  0  0  0  0
 26 27  2  0  0  0  0
 27 25  1  0  0  0  0
 29 28  1  0  0  0  0
M  END
>  <MODEL>
9

>  <REMARK>
 VINA RESULT:      -8.0      3.354      8.706
  Name = 
  6 active torsions:
  status: ('A' for Active; 'I' for Inactive)
    1  A    between atoms: C_1  and  N_15
    2  A    between atoms: C_1  and  C_23
    3  A    between atoms: C_2  and  O_6
    4  A    between atoms: C_5  and  C_12
    5  A    between atoms: C_5  and  N_21
    6  A    between atoms: C_5  and  C_24
                            x       y       z     vdW  Elec       q    Type
                         _______ _______ _______ _____ _____    ______ ____

>  <TORSDO>
F 6

$$$$
