=
 OpenBabel11042411483D

 53 58  0  0  1  0  0  0  0  0999 V2000
  189.1200  177.4780  147.6520 C   0  0  2  0  0  3  0  0  0  0  0  0
  189.3040  177.4280  145.5050 C   0  0  1  0  0  0  0  0  0  0  0  0
  191.3430  177.2950  146.8200 O   0  0  0  0  0  1  0  0  0  0  0  0
  188.6460  176.4840  144.7260 F   0  0  0  0  0  0  0  0  0  0  0  0
  188.3850  178.1480  146.4880 C   0  0  1  0  0  3  0  0  0  0  0  0
  190.0510  176.7790  146.6720 C   0  0  1  0  0  3  0  0  0  0  0  0
  188.3160  176.5320  148.2990 O   0  0  0  0  0  1  0  0  0  0  0  0
  190.1060  178.4210  144.6590 C   0  0  0  0  0  2  0  0  0  0  0  0
  190.4980  177.8010  143.4060 N   0  0  0  0  0  2  0  0  0  0  0  0
  189.5690  178.2700  142.3920 C   0  0  0  0  0  2  0  0  0  0  0  0
  189.3190  177.2010  141.3320 C   0  0  2  0  0  3  0  0  0  0  0  0
  190.0770  176.0450  141.5510 O   0  0  0  0  0  1  0  0  0  0  0  0
  188.2530  177.9770  137.9170 C   0  0  1  0  0  3  0  0  0  0  0  0
  188.6640  179.3170  137.8580 O   0  0  0  0  0  1  0  0  0  0  0  0
  189.2070  177.5460  135.6320 C   0  0  0  0  0  1  0  0  0  0  0  0
  189.1310  177.0630  137.0700 C   0  0  1  0  0  3  0  0  0  0  0  0
  189.4410  177.7250  139.8940 C   0  0  2  0  0  3  0  0  0  0  0  0
  188.2090  177.4940  139.2400 O   0  0  0  0  0  0  0  0  0  0  0  0
  190.6460  177.1860  139.1250 C   0  0  0  0  0  0  0  0  0  0  0  0
  193.0900  176.8200  139.1520 C   0  0  0  0  0  3  0  0  0  0  0  0
  193.2970  175.8620  138.2250 C   0  0  0  0  0  0  0  0  0  0  0  0
  190.5310  176.8640  137.6560 C   0  0  1  0  0  3  0  0  0  0  0  0
  190.9760  175.4640  137.3930 C   0  0  0  0  0  3  0  0  0  0  0  0
  191.8170  177.2270  139.6930 N   0  0  0  0  0  0  0  0  0  0  0  0
  192.2180  175.0470  137.6270 C   0  0  0  0  0  3  0  0  0  0  0  0
  194.6010  175.5480  137.8260 O   0  0  0  0  0  0  0  0  0  0  0  0
  194.9580  175.2170  136.4840 C   0  0  0  0  0  1  0  0  0  0  0  0
  187.0340  177.7010  146.3820 O   0  0  0  0  0  0  0  0  0  0  0  0
  185.6690  179.2520  147.4110 O   0  0  0  0  0  0  0  0  0  0  0  0
  185.9490  178.5830  146.3780 C   0  0  0  0  0  0  0  0  0  0  0  0
  185.7440  178.7450  143.9020 C   0  0  0  0  0  3  0  0  0  0  0  0
  183.6030  179.0140  142.8670 N   0  0  0  0  0  0  0  0  0  0  0  0
  185.1350  178.7350  145.1620 C   0  0  0  0  0  0  0  0  0  0  0  0
  182.9850  179.0040  144.0790 C   0  0  0  0  0  3  0  0  0  0  0  0
  184.9550  178.8850  142.7560 C   0  0  0  0  0  0  0  0  0  0  0  0
  183.7420  178.8650  145.2490 C   0  0  0  0  0  3  0  0  0  0  0  0
  185.7310  178.9160  141.1430 S   0  0  0  0  0  0  0  0  0  0  0  0
  183.8320  179.4740  139.2930 C   0  0  0  0  0  3  0  0  0  0  0  0
  184.1600  178.6910  140.3160 C   0  0  0  0  0  3  0  0  0  0  0  0
  181.2740  179.5420  139.3240 C   0  0  0  0  0  2  0  0  0  0  0  0
  182.5510  179.2600  138.5560 C   0  0  0  0  0  0  0  0  0  0  0  0
  181.7860  180.5420  138.2880 C   0  0  0  0  0  2  0  0  0  0  0  0
  183.6630  177.5070  137.1070 N   0  0  0  0  0  2  0  0  0  0  0  0
  181.4170  178.0700  136.8040 O   0  0  0  0  0  0  0  0  0  0  0  0
  182.4900  178.2520  137.4440 C   0  0  0  0  0  0  0  0  0  0  0  0
  183.4830  175.0900  136.5420 C   0  0  1  0  0  3  0  0  0  0  0  0
  183.9060  174.9650  137.8730 O   0  0  0  0  0  1  0  0  0  0  0  0
  185.1950  175.0460  134.9260 C   0  0  0  0  0  2  0  0  0  0  0  0
  183.6830  176.5170  136.0330 C   0  0  2  0  0  3  0  0  0  0  0  0
  184.2870  174.2010  135.7030 N   0  0  0  0  0  0  0  0  0  0  0  0
  185.0350  176.4850  135.3850 C   0  0  0  0  0  2  0  0  0  0  0  0
  182.5470  172.5120  135.4830 C   0  0  0  0  0  1  0  0  0  0  0  0
  183.3870  173.5490  134.7610 C   0  0  0  0  0  2  0  0  0  0  0  0
  1  7  1  6  0  0  0
  2  4  1  6  0  0  0
  2  5  1  0  0  0  0
  2  6  1  0  0  0  0
  5 28  1  6  0  0  0
  5  1  1  0  0  0  0
  6  3  1  1  0  0  0
  6  1  1  0  0  0  0
  8  2  1  0  0  0  0
  9  8  1  0  0  0  0
 10  9  1  0  0  0  0
 11 12  1  6  0  0  0
 11 10  1  0  0  0  0
 13 14  1  1  0  0  0
 13 18  1  0  0  0  0
 16 15  1  6  0  0  0
 16 22  1  0  0  0  0
 16 13  1  0  0  0  0
 17 11  1  1  0  0  0
 18 17  1  0  0  0  0
 19 24  2  0  0  0  0
 19 17  1  0  0  0  0
 20 24  1  0  0  0  0
 21 20  2  0  0  0  0
 22 23  1  1  0  0  0
 22 19  1  0  0  0  0
 23 25  2  0  0  0  0
 25 21  1  0  0  0  0
 26 21  1  0  0  0  0
 27 26  1  0  0  0  0
 30 28  1  0  0  0  0
 30 29  2  0  0  0  0
 31 33  1  0  0  0  0
 32 34  2  0  0  0  0
 33 36  2  0  0  0  0
 33 30  1  0  0  0  0
 34 36  1  0  0  0  0
 35 32  1  0  0  0  0
 35 31  2  0  0  0  0
 37 35  1  0  0  0  0
 38 39  2  0  0  0  0
 39 37  1  0  0  0  0
 41 38  1  0  0  0  0
 41 40  1  0  0  0  0
 42 41  1  0  0  0  0
 42 40  1  0  0  0  0
 43 45  1  0  0  0  0
 44 45  2  0  0  0  0
 45 41  1  0  0  0  0
 46 47  1  1  0  0  0
 48 51  1  0  0  0  0
 48 50  1  0  0  0  0
 49 46  1  0  0  0  0
 49 43  1  1  0  0  0
 50 46  1  0  0  0  0
 51 49  1  0  0  0  0
 53 52  1  0  0  0  0
 53 50  1  0  0  0  0
M  END
>  <MODEL>
1

>  <REMARK>
 VINA RESULT:      -9.0      0.000      0.000
  Name = 
  15 active torsions:
  status: ('A' for Active; 'I' for Inactive)
    1  A    between atoms: C_3  and  C_7
    2  A    between atoms: C_3  and  N_26
    3  A    between atoms: N_5  and  C_27
    4  A    between atoms: C_7  and  C_25
    5  A    between atoms: C_11  and  C_30
    6  A    between atoms: C_16  and  C_46
    7  A    between atoms: C_19  and  S_35
    8  A    between atoms: C_22  and  N_49
    9  A    between atoms: C_24  and  C_32
   10  A    between atoms: N_26  and  C_46
   11  A    between atoms: C_30  and  O_48
   12  A    between atoms: C_32  and  C_33
   13  A    between atoms: S_35  and  C_42
   14  A    between atoms: C_38  and  O_44
   15  A    between atoms: C_47  and  O_48
                            x       y       z     vdW  Elec       q    Type
                         _______ _______ _______ _____ _____    ______ ____

>  <TORSDO>
F 15

$$$$
=
 OpenBabel11042411483D

 53 58  0  0  1  0  0  0  0  0999 V2000
  189.6210  177.5520  146.2390 C   0  0  2  0  0  3  0  0  0  0  0  0
  190.5470  176.9050  144.4020 C   0  0  1  0  0  0  0  0  0  0  0  0
  192.0020  177.5120  146.2520 O   0  0  0  0  0  1  0  0  0  0  0  0
  190.2600  175.6770  143.8200 F   0  0  0  0  0  0  0  0  0  0  0  0
  189.3010  177.7150  144.7510 C   0  0  1  0  0  3  0  0  0  0  0  0
  190.8750  176.7640  145.8900 C   0  0  1  0  0  3  0  0  0  0  0  0
  188.6990  176.7170  146.8800 O   0  0  0  0  0  1  0  0  0  0  0  0
  191.5340  177.7260  143.5680 C   0  0  0  0  0  2  0  0  0  0  0  0
  192.0090  176.9380  142.4460 N   0  0  0  0  0  2  0  0  0  0  0  0
  191.6540  177.6630  141.2370 C   0  0  0  0  0  2  0  0  0  0  0  0
  190.2040  177.4010  140.8390 C   0  0  2  0  0  3  0  0  0  0  0  0
  189.7730  176.1210  141.2080 O   0  0  0  0  0  1  0  0  0  0  0  0
  188.2280  178.4660  137.9480 C   0  0  1  0  0  3  0  0  0  0  0  0
  189.1210  179.4000  137.4030 O   0  0  0  0  0  1  0  0  0  0  0  0
  187.7810  177.5090  135.6680 C   0  0  0  0  0  1  0  0  0  0  0  0
  188.1340  177.1960  137.1110 C   0  0  1  0  0  3  0  0  0  0  0  0
  189.9060  177.7250  139.3690 C   0  0  2  0  0  3  0  0  0  0  0  0
  188.5550  178.1330  139.2770 O   0  0  0  0  0  0  0  0  0  0  0  0
  190.2700  176.6100  138.3890 C   0  0  0  0  0  0  0  0  0  0  0  0
  192.0260  175.0410  137.6410 C   0  0  0  0  0  3  0  0  0  0  0  0
  191.3550  174.0730  136.9820 C   0  0  0  0  0  0  0  0  0  0  0  0
  189.3950  176.3300  137.1920 C   0  0  1  0  0  3  0  0  0  0  0  0
  189.0010  174.8910  137.1610 C   0  0  0  0  0  3  0  0  0  0  0  0
  191.4500  176.0670  138.4730 N   0  0  0  0  0  0  0  0  0  0  0  0
  189.8870  173.9050  137.0370 C   0  0  0  0  0  3  0  0  0  0  0  0
  192.0580  173.1170  136.2410 O   0  0  0  0  0  0  0  0  0  0  0  0
  193.4800  173.1070  136.1140 C   0  0  0  0  0  1  0  0  0  0  0  0
  188.1010  177.0350  144.3840 O   0  0  0  0  0  0  0  0  0  0  0  0
  187.1600  177.8300  142.4330 O   0  0  0  0  0  0  0  0  0  0  0  0
  187.0680  177.6600  143.6800 C   0  0  0  0  0  0  0  0  0  0  0  0
  184.6820  178.3710  143.6970 C   0  0  0  0  0  3  0  0  0  0  0  0
  183.5990  178.9730  145.7430 N   0  0  0  0  0  0  0  0  0  0  0  0
  185.8680  178.1180  144.3960 C   0  0  0  0  0  0  0  0  0  0  0  0
  184.7370  178.7310  146.4490 C   0  0  0  0  0  3  0  0  0  0  0  0
  183.5480  178.8000  144.3930 C   0  0  0  0  0  0  0  0  0  0  0  0
  185.8920  178.2990  145.7860 C   0  0  0  0  0  3  0  0  0  0  0  0
  182.0350  179.1420  143.4990 S   0  0  0  0  0  0  0  0  0  0  0  0
  182.3610  178.9030  140.8200 C   0  0  0  0  0  3  0  0  0  0  0  0
  182.6770  178.3920  142.0060 C   0  0  0  0  0  3  0  0  0  0  0  0
  183.3400  179.3100  138.4920 C   0  0  0  0  0  2  0  0  0  0  0  0
  182.9350  178.3240  139.5690 C   0  0  0  0  0  0  0  0  0  0  0  0
  184.4020  178.6500  139.3700 C   0  0  0  0  0  2  0  0  0  0  0  0
  183.4680  176.1390  138.4060 N   0  0  0  0  0  2  0  0  0  0  0  0
  181.3890  176.4920  139.4090 O   0  0  0  0  0  0  0  0  0  0  0  0
  182.5380  176.9410  139.1380 C   0  0  0  0  0  0  0  0  0  0  0  0
  184.3960  173.9740  137.6010 C   0  0  1  0  0  3  0  0  0  0  0  0
  185.4600  174.8110  137.2340 O   0  0  0  0  0  1  0  0  0  0  0  0
  182.7900  173.5810  135.9250 C   0  0  0  0  0  2  0  0  0  0  0  0
  183.1500  174.7900  137.9460 C   0  0  2  0  0  3  0  0  0  0  0  0
  184.0630  173.1060  136.4720 N   0  0  0  0  0  0  0  0  0  0  0  0
  182.3870  174.8500  136.6560 C   0  0  0  0  0  2  0  0  0  0  0  0
  182.9860  170.9680  136.0270 C   0  0  0  0  0  1  0  0  0  0  0  0
  183.8380  171.7660  136.9960 C   0  0  0  0  0  2  0  0  0  0  0  0
  1  7  1  1  0  0  0
  2  4  1  6  0  0  0
  2  5  1  0  0  0  0
  2  6  1  0  0  0  0
  5 28  1  1  0  0  0
  5  1  1  0  0  0  0
  6  1  1  0  0  0  0
  6  3  1  6  0  0  0
  8  2  1  0  0  0  0
  9  8  1  0  0  0  0
 10  9  1  0  0  0  0
 11 12  1  6  0  0  0
 11 10  1  0  0  0  0
 13 14  1  6  0  0  0
 13 18  1  0  0  0  0
 16 15  1  6  0  0  0
 16 22  1  0  0  0  0
 16 13  1  0  0  0  0
 17 11  1  1  0  0  0
 18 17  1  0  0  0  0
 19 24  2  0  0  0  0
 19 17  1  0  0  0  0
 20 24  1  0  0  0  0
 21 25  1  0  0  0  0
 21 20  2  0  0  0  0
 22 23  1  1  0  0  0
 22 19  1  0  0  0  0
 25 23  2  0  0  0  0
 26 21  1  0  0  0  0
 27 26  1  0  0  0  0
 29 30  2  0  0  0  0
 30 28  1  0  0  0  0
 30 33  1  0  0  0  0
 31 35  2  0  0  0  0
 31 33  1  0  0  0  0
 32 34  2  0  0  0  0
 33 36  2  0  0  0  0
 35 32  1  0  0  0  0
 36 34  1  0  0  0  0
 37 35  1  0  0  0  0
 38 39  2  0  0  0  0
 39 37  1  0  0  0  0
 40 42  1  0  0  0  0
 40 41  1  0  0  0  0
 41 38  1  0  0  0  0
 42 41  1  0  0  0  0
 43 45  1  0  0  0  0
 45 44  2  0  0  0  0
 45 41  1  0  0  0  0
 46 47  1  6  0  0  0
 46 49  1  0  0  0  0
 48 50  1  0  0  0  0
 48 51  1  0  0  0  0
 49 43  1  6  0  0  0
 50 53  1  0  0  0  0
 50 46  1  0  0  0  0
 51 49  1  0  0  0  0
 52 53  1  0  0  0  0
M  END
>  <MODEL>
2

>  <REMARK>
 VINA RESULT:      -8.8      1.810      2.285
  Name = 
  15 active torsions:
  status: ('A' for Active; 'I' for Inactive)
    1  A    between atoms: C_3  and  C_7
    2  A    between atoms: C_3  and  N_26
    3  A    between atoms: N_5  and  C_27
    4  A    between atoms: C_7  and  C_25
    5  A    between atoms: C_11  and  C_30
    6  A    between atoms: C_16  and  C_46
    7  A    between atoms: C_19  and  S_35
    8  A    between atoms: C_22  and  N_49
    9  A    between atoms: C_24  and  C_32
   10  A    between atoms: N_26  and  C_46
   11  A    between atoms: C_30  and  O_48
   12  A    between atoms: C_32  and  C_33
   13  A    between atoms: S_35  and  C_42
   14  A    between atoms: C_38  and  O_44
   15  A    between atoms: C_47  and  O_48
                            x       y       z     vdW  Elec       q    Type
                         _______ _______ _______ _____ _____    ______ ____

>  <TORSDO>
F 15

$$$$
=
 OpenBabel11042411483D

 53 58  0  0  1  0  0  0  0  0999 V2000
  189.5520  177.7470  145.0170 C   0  0  2  0  0  3  0  0  0  0  0  0
  190.0430  176.7200  143.1870 C   0  0  1  0  0  0  0  0  0  0  0  0
  191.8750  177.3880  144.6380 O   0  0  0  0  0  1  0  0  0  0  0  0
  189.5230  175.4700  142.8750 F   0  0  0  0  0  0  0  0  0  0  0  0
  188.9780  177.7330  143.5980 C   0  0  1  0  0  3  0  0  0  0  0  0
  190.6270  176.7550  144.6010 C   0  0  1  0  0  3  0  0  0  0  0  0
  188.6820  177.1470  145.9350 O   0  0  0  0  0  1  0  0  0  0  0  0
  190.9390  177.2700  142.0730 C   0  0  0  0  0  2  0  0  0  0  0  0
  190.8360  176.4290  140.8940 N   0  0  0  0  0  2  0  0  0  0  0  0
  190.0010  177.1380  139.9380 C   0  0  0  0  0  2  0  0  0  0  0  0
  190.0010  176.4440  138.5790 C   0  0  2  0  0  3  0  0  0  0  0  0
  191.2370  176.5410  137.9300 O   0  0  0  0  0  1  0  0  0  0  0  0
  186.8530  178.0790  137.6750 C   0  0  1  0  0  3  0  0  0  0  0  0
  187.2660  178.7120  136.4930 O   0  0  0  0  0  1  0  0  0  0  0  0
  184.7270  177.3220  136.5700 C   0  0  0  0  0  1  0  0  0  0  0  0
  185.9220  176.9030  137.4090 C   0  0  1  0  0  3  0  0  0  0  0  0
  188.8270  176.8580  137.6820 C   0  0  2  0  0  3  0  0  0  0  0  0
  187.9450  177.6490  138.4550 O   0  0  0  0  0  0  0  0  0  0  0  0
  188.1330  175.6960  136.9720 C   0  0  0  0  0  0  0  0  0  0  0  0
  188.4380  173.6850  135.5690 C   0  0  0  0  0  3  0  0  0  0  0  0
  187.3120  172.9670  135.7600 C   0  0  0  0  0  0  0  0  0  0  0  0
  186.6360  175.7010  136.7830 C   0  0  1  0  0  3  0  0  0  0  0  0
  186.0400  174.4440  137.3220 C   0  0  0  0  0  3  0  0  0  0  0  0
  188.8660  174.8270  136.3380 N   0  0  0  0  0  0  0  0  0  0  0  0
  186.3320  173.2410  136.8320 C   0  0  0  0  0  3  0  0  0  0  0  0
  187.0500  171.8530  134.9540 O   0  0  0  0  0  0  0  0  0  0  0  0
  187.4840  170.5310  135.2720 C   0  0  0  0  0  1  0  0  0  0  0  0
  187.6650  177.1750  143.5570 O   0  0  0  0  0  0  0  0  0  0  0  0
  186.5100  178.1810  141.8310 O   0  0  0  0  0  0  0  0  0  0  0  0
  186.5660  177.8780  143.0550 C   0  0  0  0  0  0  0  0  0  0  0  0
  184.1690  178.4130  143.4610 C   0  0  0  0  0  3  0  0  0  0  0  0
  183.3950  178.9740  145.6550 N   0  0  0  0  0  0  0  0  0  0  0  0
  185.4690  178.2600  143.9570 C   0  0  0  0  0  0  0  0  0  0  0  0
  184.6490  178.8290  146.1640 C   0  0  0  0  0  3  0  0  0  0  0  0
  183.1360  178.7720  144.3330 C   0  0  0  0  0  0  0  0  0  0  0  0
  185.7080  178.4700  145.3220 C   0  0  0  0  0  3  0  0  0  0  0  0
  181.4750  178.9860  143.7000 S   0  0  0  0  0  0  0  0  0  0  0  0
  181.3620  177.9940  141.1800 C   0  0  0  0  0  3  0  0  0  0  0  0
  182.0300  178.7900  142.0090 C   0  0  0  0  0  3  0  0  0  0  0  0
  182.4950  176.5870  139.3680 C   0  0  0  0  0  2  0  0  0  0  0  0
  181.7780  177.8670  139.7520 C   0  0  0  0  0  0  0  0  0  0  0  0
  181.0270  176.7880  138.9970 C   0  0  0  0  0  2  0  0  0  0  0  0
  181.0240  179.7220  138.2020 N   0  0  0  0  0  2  0  0  0  0  0  0
  183.2410  179.5840  138.9250 O   0  0  0  0  0  0  0  0  0  0  0  0
  182.0730  179.1020  138.9490 C   0  0  0  0  0  0  0  0  0  0  0  0
  180.7610  182.1940  138.0860 C   0  0  1  0  0  3  0  0  0  0  0  0
  179.7420  181.9150  139.0080 O   0  0  0  0  0  1  0  0  0  0  0  0
  180.0870  182.3030  135.8320 C   0  0  0  0  0  2  0  0  0  0  0  0
  181.2370  180.9180  137.3920 C   0  0  2  0  0  3  0  0  0  0  0  0
  180.2370  183.0920  137.0570 N   0  0  0  0  0  0  0  0  0  0  0  0
  180.4080  180.8520  136.1440 C   0  0  0  0  0  2  0  0  0  0  0  0
  180.8890  184.8920  135.5530 C   0  0  0  0  0  1  0  0  0  0  0  0
  181.2510  184.1070  136.7990 C   0  0  0  0  0  2  0  0  0  0  0  0
  1  7  1  1  0  0  0
  2  4  1  6  0  0  0
  2  5  1  0  0  0  0
  2  6  1  0  0  0  0
  5 28  1  1  0  0  0
  5  1  1  0  0  0  0
  6  3  1  6  0  0  0
  6  1  1  0  0  0  0
  8  2  1  0  0  0  0
  9  8  1  0  0  0  0
 10  9  1  0  0  0  0
 11 12  1  6  0  0  0
 11 10  1  0  0  0  0
 13 14  1  6  0  0  0
 13 18  1  0  0  0  0
 16 15  1  6  0  0  0
 16 13  1  0  0  0  0
 17 18  1  0  0  0  0
 17 11  1  1  0  0  0
 19 17  1  0  0  0  0
 20 21  2  0  0  0  0
 20 24  1  0  0  0  0
 21 25  1  0  0  0  0
 22 19  1  0  0  0  0
 22 23  1  1  0  0  0
 22 16  1  0  0  0  0
 24 19  2  0  0  0  0
 25 23  2  0  0  0  0
 26 27  1  0  0  0  0
 26 21  1  0  0  0  0
 29 30  2  0  0  0  0
 30 28  1  0  0  0  0
 30 33  1  0  0  0  0
 31 33  2  0  0  0  0
 31 35  1  0  0  0  0
 32 34  1  0  0  0  0
 33 36  1  0  0  0  0
 35 32  2  0  0  0  0
 36 34  2  0  0  0  0
 37 35  1  0  0  0  0
 38 39  2  0  0  0  0
 39 37  1  0  0  0  0
 40 41  1  0  0  0  0
 41 38  1  0  0  0  0
 42 40  1  0  0  0  0
 42 41  1  0  0  0  0
 43 45  1  0  0  0  0
 44 45  2  0  0  0  0
 45 41  1  0  0  0  0
 46 47  1  1  0  0  0
 48 51  1  0  0  0  0
 48 50  1  0  0  0  0
 49 46  1  0  0  0  0
 49 43  1  1  0  0  0
 50 46  1  0  0  0  0
 51 49  1  0  0  0  0
 52 53  1  0  0  0  0
 53 50  1  0  0  0  0
M  END
>  <MODEL>
3

>  <REMARK>
 VINA RESULT:      -8.7      2.804      5.028
  Name = 
  15 active torsions:
  status: ('A' for Active; 'I' for Inactive)
    1  A    between atoms: C_3  and  C_7
    2  A    between atoms: C_3  and  N_26
    3  A    between atoms: N_5  and  C_27
    4  A    between atoms: C_7  and  C_25
    5  A    between atoms: C_11  and  C_30
    6  A    between atoms: C_16  and  C_46
    7  A    between atoms: C_19  and  S_35
    8  A    between atoms: C_22  and  N_49
    9  A    between atoms: C_24  and  C_32
   10  A    between atoms: N_26  and  C_46
   11  A    between atoms: C_30  and  O_48
   12  A    between atoms: C_32  and  C_33
   13  A    between atoms: S_35  and  C_42
   14  A    between atoms: C_38  and  O_44
   15  A    between atoms: C_47  and  O_48
                            x       y       z     vdW  Elec       q    Type
                         _______ _______ _______ _____ _____    ______ ____

>  <TORSDO>
F 15

$$$$
=
 OpenBabel11042411483D

 53 58  0  0  1  0  0  0  0  0999 V2000
  191.6280  177.4200  141.4770 C   0  0  2  0  0  3  0  0  0  0  0  0
  189.6560  177.3110  140.6110 C   0  0  1  0  0  0  0  0  0  0  0  0
  191.5630  177.1370  139.1140 O   0  0  0  0  0  1  0  0  0  0  0  0
  188.7170  176.3730  141.0200 F   0  0  0  0  0  0  0  0  0  0  0  0
  190.2810  178.0870  141.7670 C   0  0  1  0  0  3  0  0  0  0  0  0
  191.0100  176.6640  140.3090 C   0  0  1  0  0  3  0  0  0  0  0  0
  191.9890  176.5200  142.4860 O   0  0  0  0  0  1  0  0  0  0  0  0
  189.1050  178.2540  139.5360 C   0  0  0  0  0  2  0  0  0  0  0  0
  187.7170  178.5670  139.8180 N   0  0  0  0  0  2  0  0  0  0  0  0
  186.9310  178.0520  138.7090 C   0  0  0  0  0  2  0  0  0  0  0  0
  187.7140  178.1080  137.4010 C   0  0  2  0  0  3  0  0  0  0  0  0
  187.4730  179.2870  136.6850 O   0  0  0  0  0  1  0  0  0  0  0  0
  186.3200  174.8930  136.3420 C   0  0  1  0  0  3  0  0  0  0  0  0
  186.1050  175.1830  134.9860 O   0  0  0  0  0  1  0  0  0  0  0  0
  187.3000  172.6570  135.7460 C   0  0  0  0  0  1  0  0  0  0  0  0
  187.4830  173.9310  136.5520 C   0  0  1  0  0  3  0  0  0  0  0  0
  187.5550  176.8480  136.5390 C   0  0  2  0  0  3  0  0  0  0  0  0
  186.5280  176.0590  137.1060 O   0  0  0  0  0  0  0  0  0  0  0  0
  188.8520  176.0750  136.3020 C   0  0  0  0  0  0  0  0  0  0  0  0
  191.2120  176.2170  135.5810 C   0  0  0  0  0  3  0  0  0  0  0  0
  191.7890  175.1120  136.0980 C   0  0  0  0  0  0  0  0  0  0  0  0
  188.8470  174.5670  136.2700 C   0  0  1  0  0  3  0  0  0  0  0  0
  189.8480  174.0220  137.2330 C   0  0  0  0  0  3  0  0  0  0  0  0
  189.9050  176.7310  135.9060 N   0  0  0  0  0  0  0  0  0  0  0  0
  191.1550  174.2530  137.1210 C   0  0  0  0  0  3  0  0  0  0  0  0
  193.0870  174.7590  135.7140 O   0  0  0  0  0  0  0  0  0  0  0  0
  194.1860  175.6700  135.7170 C   0  0  0  0  0  1  0  0  0  0  0  0
  189.7470  177.6870  143.0290 O   0  0  0  0  0  0  0  0  0  0  0  0
  190.9200  179.2710  144.2290 O   0  0  0  0  0  0  0  0  0  0  0  0
  190.0600  178.3480  144.2200 C   0  0  0  0  0  0  0  0  0  0  0  0
  188.0340  178.2970  145.6670 C   0  0  0  0  0  3  0  0  0  0  0  0
  188.0910  177.2460  147.8150 N   0  0  0  0  0  0  0  0  0  0  0  0
  189.3800  177.9680  145.4680 C   0  0  0  0  0  0  0  0  0  0  0  0
  189.3980  176.9090  147.6460 C   0  0  0  0  0  3  0  0  0  0  0  0
  187.4010  177.9240  146.8560 C   0  0  0  0  0  0  0  0  0  0  0  0
  190.0660  177.2650  146.4690 C   0  0  0  0  0  3  0  0  0  0  0  0
  185.6850  178.3600  147.1220 S   0  0  0  0  0  0  0  0  0  0  0  0
  184.5520  179.0290  144.7530 C   0  0  0  0  0  3  0  0  0  0  0  0
  185.2960  178.1290  145.3900 C   0  0  0  0  0  3  0  0  0  0  0  0
  185.2770  179.4930  142.3430 C   0  0  0  0  0  2  0  0  0  0  0  0
  184.2680  178.8800  143.2940 C   0  0  0  0  0  0  0  0  0  0  0  0
  185.2560  177.9830  142.5740 C   0  0  0  0  0  2  0  0  0  0  0  0
  182.5880  178.5310  141.4330 N   0  0  0  0  0  2  0  0  0  0  0  0
  181.8910  178.8530  143.6390 O   0  0  0  0  0  0  0  0  0  0  0  0
  182.8480  178.7530  142.8210 C   0  0  0  0  0  0  0  0  0  0  0  0
  181.2130  177.8840  139.4620 C   0  0  1  0  0  3  0  0  0  0  0  0
  182.4060  178.1950  138.7950 O   0  0  0  0  0  1  0  0  0  0  0  0
  179.6500  179.6390  139.6160 C   0  0  0  0  0  2  0  0  0  0  0  0
  181.2350  178.4060  140.8980 C   0  0  2  0  0  3  0  0  0  0  0  0
  180.0990  178.5320  138.7690 N   0  0  0  0  0  0  0  0  0  0  0  0
  180.5890  179.7560  140.8040 C   0  0  0  0  0  2  0  0  0  0  0  0
  179.5590  176.1800  138.4510 C   0  0  0  0  0  1  0  0  0  0  0  0
  179.0060  177.5720  138.6940 C   0  0  0  0  0  2  0  0  0  0  0  0
  1  5  1  0  0  0  0
  1  7  1  1  0  0  0
  2  4  1  1  0  0  0
  2  5  1  0  0  0  0
  5 28  1  1  0  0  0
  6  3  1  6  0  0  0
  6  2  1  0  0  0  0
  6  1  1  0  0  0  0
  8  9  1  0  0  0  0
  8  2  1  0  0  0  0
 10  9  1  0  0  0  0
 11 12  1  6  0  0  0
 11 10  1  0  0  0  0
 13 14  1  6  0  0  0
 13 16  1  0  0  0  0
 13 18  1  0  0  0  0
 16 15  1  6  0  0  0
 17 18  1  0  0  0  0
 17 11  1  1  0  0  0
 19 17  1  0  0  0  0
 20 24  1  0  0  0  0
 20 21  2  0  0  0  0
 21 25  1  0  0  0  0
 22 19  1  0  0  0  0
 22 16  1  0  0  0  0
 22 23  1  1  0  0  0
 24 19  2  0  0  0  0
 25 23  2  0  0  0  0
 26 27  1  0  0  0  0
 26 21  1  0  0  0  0
 28 30  1  0  0  0  0
 30 29  2  0  0  0  0
 30 33  1  0  0  0  0
 31 35  1  0  0  0  0
 33 31  2  0  0  0  0
 33 36  1  0  0  0  0
 34 32  1  0  0  0  0
 35 37  1  0  0  0  0
 35 32  2  0  0  0  0
 36 34  2  0  0  0  0
 38 39  2  0  0  0  0
 39 37  1  0  0  0  0
 40 42  1  0  0  0  0
 40 41  1  0  0  0  0
 41 38  1  0  0  0  0
 42 41  1  0  0  0  0
 43 45  1  0  0  0  0
 45 41  1  0  0  0  0
 45 44  2  0  0  0  0
 46 47  1  6  0  0  0
 46 49  1  0  0  0  0
 48 51  1  0  0  0  0
 49 43  1  6  0  0  0
 50 46  1  0  0  0  0
 50 48  1  0  0  0  0
 51 49  1  0  0  0  0
 52 53  1  0  0  0  0
 53 50  1  0  0  0  0
M  END
>  <MODEL>
4

>  <REMARK>
 VINA RESULT:      -7.9      2.784      5.257
  Name = 
  15 active torsions:
  status: ('A' for Active; 'I' for Inactive)
    1  A    between atoms: C_3  and  C_7
    2  A    between atoms: C_3  and  N_26
    3  A    between atoms: N_5  and  C_27
    4  A    between atoms: C_7  and  C_25
    5  A    between atoms: C_11  and  C_30
    6  A    between atoms: C_16  and  C_46
    7  A    between atoms: C_19  and  S_35
    8  A    between atoms: C_22  and  N_49
    9  A    between atoms: C_24  and  C_32
   10  A    between atoms: N_26  and  C_46
   11  A    between atoms: C_30  and  O_48
   12  A    between atoms: C_32  and  C_33
   13  A    between atoms: S_35  and  C_42
   14  A    between atoms: C_38  and  O_44
   15  A    between atoms: C_47  and  O_48
                            x       y       z     vdW  Elec       q    Type
                         _______ _______ _______ _____ _____    ______ ____

>  <TORSDO>
F 15

$$$$
=
 OpenBabel11042411483D

 53 58  0  0  1  0  0  0  0  0999 V2000
  189.7320  177.7460  145.3330 C   0  0  2  0  0  3  0  0  0  0  0  0
  190.2390  176.6870  143.5240 C   0  0  1  0  0  0  0  0  0  0  0  0
  192.0560  177.3580  144.9930 O   0  0  0  0  0  1  0  0  0  0  0  0
  189.7110  175.4390  143.2230 F   0  0  0  0  0  0  0  0  0  0  0  0
  189.1790  177.7170  143.9050 C   0  0  1  0  0  3  0  0  0  0  0  0
  190.8030  176.7360  144.9460 C   0  0  1  0  0  3  0  0  0  0  0  0
  188.8420  177.1670  146.2460 O   0  0  0  0  0  1  0  0  0  0  0  0
  191.1570  177.2120  142.4160 C   0  0  0  0  0  2  0  0  0  0  0  0
  190.3620  177.6900  141.3000 N   0  0  0  0  0  2  0  0  0  0  0  0
  190.6570  176.8270  140.1680 C   0  0  0  0  0  2  0  0  0  0  0  0
  190.3850  177.5360  138.8440 C   0  0  2  0  0  3  0  0  0  0  0  0
  189.2920  178.4060  138.9200 O   0  0  0  0  0  1  0  0  0  0  0  0
  189.1570  174.7260  136.8440 C   0  0  1  0  0  3  0  0  0  0  0  0
  188.9580  175.3940  135.6260 O   0  0  0  0  0  1  0  0  0  0  0  0
  190.2470  172.8010  135.6520 C   0  0  0  0  0  1  0  0  0  0  0  0
  190.3560  173.7870  136.8020 C   0  0  1  0  0  3  0  0  0  0  0  0
  190.3000  176.5800  137.6460 C   0  0  2  0  0  3  0  0  0  0  0  0
  189.2970  175.6220  137.9230 O   0  0  0  0  0  0  0  0  0  0  0  0
  191.6350  175.9580  137.2370 C   0  0  0  0  0  0  0  0  0  0  0  0
  194.0000  176.3910  136.6680 C   0  0  0  0  0  3  0  0  0  0  0  0
  194.6140  175.2040  136.8570 C   0  0  0  0  0  0  0  0  0  0  0  0
  191.6970  174.5270  136.7640 C   0  0  1  0  0  3  0  0  0  0  0  0
  192.7010  173.7600  137.5580 C   0  0  0  0  0  3  0  0  0  0  0  0
  192.6650  176.7390  137.0850 N   0  0  0  0  0  0  0  0  0  0  0  0
  193.9970  174.0600  137.5620 C   0  0  0  0  0  3  0  0  0  0  0  0
  195.9350  175.0270  136.4300 O   0  0  0  0  0  0  0  0  0  0  0  0
  196.3970  175.3790  135.1260 C   0  0  0  0  0  1  0  0  0  0  0  0
  187.8610  177.1720  143.8530 O   0  0  0  0  0  0  0  0  0  0  0  0
  186.8690  178.0340  141.9570 O   0  0  0  0  0  0  0  0  0  0  0  0
  186.8070  177.8150  143.1980 C   0  0  0  0  0  0  0  0  0  0  0  0
  184.3880  178.3930  143.3150 C   0  0  0  0  0  3  0  0  0  0  0  0
  183.3780  179.0170  145.3920 N   0  0  0  0  0  0  0  0  0  0  0  0
  185.6200  178.2350  143.9590 C   0  0  0  0  0  0  0  0  0  0  0  0
  184.5620  178.8670  146.0440 C   0  0  0  0  0  3  0  0  0  0  0  0
  183.2690  178.7870  144.0540 C   0  0  0  0  0  0  0  0  0  0  0  0
  185.7050  178.4740  145.3380 C   0  0  0  0  0  3  0  0  0  0  0  0
  181.6950  179.0080  143.2290 S   0  0  0  0  0  0  0  0  0  0  0  0
  181.6710  178.2160  140.6380 C   0  0  0  0  0  3  0  0  0  0  0  0
  182.4240  178.6940  141.6250 C   0  0  0  0  0  3  0  0  0  0  0  0
  181.7930  178.9570  138.1920 C   0  0  0  0  0  2  0  0  0  0  0  0
  182.2510  178.0040  139.2780 C   0  0  0  0  0  0  0  0  0  0  0  0
  183.1710  179.1240  138.8320 C   0  0  0  0  0  2  0  0  0  0  0  0
  183.3400  176.4510  137.6010 N   0  0  0  0  0  2  0  0  0  0  0  0
  182.4840  175.6370  139.6150 O   0  0  0  0  0  0  0  0  0  0  0  0
  182.6930  176.6300  138.8630 C   0  0  0  0  0  0  0  0  0  0  0  0
  185.3040  174.9680  137.2270 C   0  0  1  0  0  3  0  0  0  0  0  0
  185.9600  176.2060  137.1740 O   0  0  0  0  0  1  0  0  0  0  0  0
  184.6120  174.0980  135.1510 C   0  0  0  0  0  2  0  0  0  0  0  0
  183.7890  175.1450  137.1260 C   0  0  2  0  0  3  0  0  0  0  0  0
  185.7340  174.1530  136.0900 N   0  0  0  0  0  0  0  0  0  0  0  0
  183.5030  175.0030  135.6610 C   0  0  0  0  0  2  0  0  0  0  0  0
  185.3850  171.7950  135.5970 C   0  0  0  0  0  1  0  0  0  0  0  0
  185.9600  172.8000  136.5770 C   0  0  0  0  0  2  0  0  0  0  0  0
  1  7  1  1  0  0  0
  2  4  1  6  0  0  0
  2  5  1  0  0  0  0
  2  6  1  0  0  0  0
  5 28  1  1  0  0  0
  5  1  1  0  0  0  0
  6  3  1  6  0  0  0
  6  1  1  0  0  0  0
  8  2  1  0  0  0  0
  9  8  1  0  0  0  0
 10  9  1  0  0  0  0
 11 12  1  1  0  0  0
 11 10  1  0  0  0  0
 13 14  1  6  0  0  0
 13 18  1  0  0  0  0
 16 15  1  6  0  0  0
 16 13  1  0  0  0  0
 17 18  1  0  0  0  0
 17 11  1  1  0  0  0
 19 17  1  0  0  0  0
 20 21  2  0  0  0  0
 20 24  1  0  0  0  0
 21 25  1  0  0  0  0
 22 16  1  0  0  0  0
 22 19  1  0  0  0  0
 22 23  1  1  0  0  0
 23 25  2  0  0  0  0
 24 19  2  0  0  0  0
 26 21  1  0  0  0  0
 27 26  1  0  0  0  0
 29 30  2  0  0  0  0
 30 28  1  0  0  0  0
 30 33  1  0  0  0  0
 31 33  2  0  0  0  0
 31 35  1  0  0  0  0
 32 34  1  0  0  0  0
 33 36  1  0  0  0  0
 35 32  2  0  0  0  0
 36 34  2  0  0  0  0
 37 35  1  0  0  0  0
 38 39  2  0  0  0  0
 39 37  1  0  0  0  0
 40 42  1  0  0  0  0
 40 41  1  0  0  0  0
 41 38  1  0  0  0  0
 42 41  1  0  0  0  0
 43 45  1  0  0  0  0
 45 41  1  0  0  0  0
 45 44  2  0  0  0  0
 46 47  1  6  0  0  0
 48 51  1  0  0  0  0
 48 50  1  0  0  0  0
 49 46  1  0  0  0  0
 49 43  1  6  0  0  0
 50 53  1  0  0  0  0
 50 46  1  0  0  0  0
 51 49  1  0  0  0  0
 52 53  1  0  0  0  0
M  END
>  <MODEL>
5

>  <REMARK>
 VINA RESULT:      -7.8      1.968      2.711
  Name = 
  15 active torsions:
  status: ('A' for Active; 'I' for Inactive)
    1  A    between atoms: C_3  and  C_7
    2  A    between atoms: C_3  and  N_26
    3  A    between atoms: N_5  and  C_27
    4  A    between atoms: C_7  and  C_25
    5  A    between atoms: C_11  and  C_30
    6  A    between atoms: C_16  and  C_46
    7  A    between atoms: C_19  and  S_35
    8  A    between atoms: C_22  and  N_49
    9  A    between atoms: C_24  and  C_32
   10  A    between atoms: N_26  and  C_46
   11  A    between atoms: C_30  and  O_48
   12  A    between atoms: C_32  and  C_33
   13  A    between atoms: S_35  and  C_42
   14  A    between atoms: C_38  and  O_44
   15  A    between atoms: C_47  and  O_48
                            x       y       z     vdW  Elec       q    Type
                         _______ _______ _______ _____ _____    ______ ____

>  <TORSDO>
F 15

$$$$
=
 OpenBabel11042411483D

 53 58  0  0  1  0  0  0  0  0999 V2000
  190.1710  177.4060  140.6410 C   0  0  2  0  0  3  0  0  0  0  0  0
  189.4190  176.9930  138.6630 C   0  0  1  0  0  0  0  0  0  0  0  0
  191.8180  176.8300  139.0210 O   0  0  0  0  0  1  0  0  0  0  0  0
  188.4550  176.0230  138.4230 F   0  0  0  0  0  0  0  0  0  0  0  0
  189.0370  177.9640  139.7770 C   0  0  1  0  0  3  0  0  0  0  0  0
  190.5660  176.4540  139.5210 C   0  0  1  0  0  3  0  0  0  0  0  0
  189.6810  176.6770  141.7320 O   0  0  0  0  0  1  0  0  0  0  0  0
  189.8240  177.7370  137.3860 C   0  0  0  0  0  2  0  0  0  0  0  0
  189.8640  176.8140  136.2670 N   0  0  0  0  0  2  0  0  0  0  0  0
  188.6030  176.9500  135.5590 C   0  0  0  0  0  2  0  0  0  0  0  0
  187.8390  175.6300  135.5280 C   0  0  2  0  0  3  0  0  0  0  0  0
  188.3660  174.7300  134.5940 O   0  0  0  0  0  1  0  0  0  0  0  0
  184.5330  177.0720  136.1550 C   0  0  1  0  0  3  0  0  0  0  0  0
  184.1260  177.2740  134.8280 O   0  0  0  0  0  1  0  0  0  0  0  0
  182.2790  176.1260  136.7390 C   0  0  0  0  0  1  0  0  0  0  0  0
  183.7820  175.9260  136.8230 C   0  0  1  0  0  3  0  0  0  0  0  0
  186.3200  175.8050  135.3890 C   0  0  2  0  0  3  0  0  0  0  0  0
  185.9210  176.8480  136.2560 O   0  0  0  0  0  0  0  0  0  0  0  0
  185.5150  174.5200  135.5760 C   0  0  0  0  0  0  0  0  0  0  0  0
  185.2580  172.1540  134.9080 C   0  0  0  0  0  3  0  0  0  0  0  0
  184.5390  171.5990  135.9060 C   0  0  0  0  0  0  0  0  0  0  0  0
  184.1830  174.5500  136.2840 C   0  0  1  0  0  3  0  0  0  0  0  0
  184.1660  173.5630  137.4030 C   0  0  0  0  0  3  0  0  0  0  0  0
  185.8810  173.4540  134.9230 N   0  0  0  0  0  0  0  0  0  0  0  0
  184.2970  172.2530  137.2090 C   0  0  0  0  0  3  0  0  0  0  0  0
  184.0290  170.3040  135.7600 O   0  0  0  0  0  0  0  0  0  0  0  0
  182.6390  170.0180  135.5990 C   0  0  0  0  0  1  0  0  0  0  0  0
  187.7520  177.6700  140.3240 O   0  0  0  0  0  0  0  0  0  0  0  0
  187.5830  179.3740  141.8710 O   0  0  0  0  0  0  0  0  0  0  0  0
  187.0110  178.6090  141.0470 C   0  0  0  0  0  0  0  0  0  0  0  0
  184.6930  178.8030  141.9370 C   0  0  0  0  0  3  0  0  0  0  0  0
  182.8180  178.9050  140.4550 N   0  0  0  0  0  0  0  0  0  0  0  0
  185.5580  178.7090  140.8400 C   0  0  0  0  0  0  0  0  0  0  0  0
  183.6350  178.8190  139.3700 C   0  0  0  0  0  3  0  0  0  0  0  0
  183.3150  178.9020  141.7230 C   0  0  0  0  0  0  0  0  0  0  0  0
  185.0210  178.7180  139.5450 C   0  0  0  0  0  3  0  0  0  0  0  0
  182.2060  179.0040  143.1240 S   0  0  0  0  0  0  0  0  0  0  0  0
  184.3710  178.1960  144.5390 C   0  0  0  0  0  3  0  0  0  0  0  0
  183.5680  179.2200  144.2640 C   0  0  0  0  0  3  0  0  0  0  0  0
  185.6810  179.7290  146.1140 C   0  0  0  0  0  2  0  0  0  0  0  0
  185.5460  178.3770  145.4420 C   0  0  0  0  0  0  0  0  0  0  0  0
  185.1690  178.5240  146.9030 C   0  0  0  0  0  2  0  0  0  0  0  0
  187.9600  177.8480  145.9920 N   0  0  0  0  0  2  0  0  0  0  0  0
  186.8390  176.7120  144.2880 O   0  0  0  0  0  0  0  0  0  0  0  0
  186.8020  177.5890  145.1960 C   0  0  0  0  0  0  0  0  0  0  0  0
  190.0620  177.0760  147.0800 C   0  0  1  0  0  3  0  0  0  0  0  0
  189.7750  178.1600  147.9210 O   0  0  0  0  0  1  0  0  0  0  0  0
  191.5040  177.5430  145.2780 C   0  0  0  0  0  2  0  0  0  0  0  0
  189.2180  177.1290  145.8070 C   0  0  2  0  0  3  0  0  0  0  0  0
  191.4690  177.1400  146.6850 N   0  0  0  0  0  0  0  0  0  0  0  0
  190.0880  177.8560  144.8250 C   0  0  0  0  0  2  0  0  0  0  0  0
  192.8050  175.6280  148.0480 C   0  0  0  0  0  1  0  0  0  0  0  0
  192.0130  175.7910  146.7650 C   0  0  0  0  0  2  0  0  0  0  0  0
  1  7  1  1  0  0  0
  2  4  1  6  0  0  0
  2  6  1  0  0  0  0
  2  5  1  0  0  0  0
  5 28  1  1  0  0  0
  5  1  1  0  0  0  0
  6  3  1  6  0  0  0
  6  1  1  0  0  0  0
  8  2  1  0  0  0  0
  9  8  1  0  0  0  0
 10  9  1  0  0  0  0
 11 12  1  6  0  0  0
 11 10  1  0  0  0  0
 13 14  1  6  0  0  0
 13 18  1  0  0  0  0
 13 16  1  0  0  0  0
 16 15  1  6  0  0  0
 17 11  1  1  0  0  0
 17 19  1  0  0  0  0
 17 18  1  0  0  0  0
 19 22  1  0  0  0  0
 20 24  1  0  0  0  0
 20 21  2  0  0  0  0
 21 25  1  0  0  0  0
 22 16  1  0  0  0  0
 22 23  1  1  0  0  0
 24 19  2  0  0  0  0
 25 23  2  0  0  0  0
 26 21  1  0  0  0  0
 27 26  1  0  0  0  0
 28 30  1  0  0  0  0
 30 29  2  0  0  0  0
 32 35  2  0  0  0  0
 33 30  1  0  0  0  0
 33 31  2  0  0  0  0
 34 36  2  0  0  0  0
 34 32  1  0  0  0  0
 35 31  1  0  0  0  0
 35 37  1  0  0  0  0
 36 33  1  0  0  0  0
 37 39  1  0  0  0  0
 38 41  1  0  0  0  0
 39 38  2  0  0  0  0
 40 42  1  0  0  0  0
 41 40  1  0  0  0  0
 41 42  1  0  0  0  0
 44 45  2  0  0  0  0
 45 41  1  0  0  0  0
 45 43  1  0  0  0  0
 46 47  1  1  0  0  0
 48 50  1  0  0  0  0
 49 43  1  1  0  0  0
 49 46  1  0  0  0  0
 50 53  1  0  0  0  0
 50 46  1  0  0  0  0
 51 48  1  0  0  0  0
 51 49  1  0  0  0  0
 53 52  1  0  0  0  0
M  END
>  <MODEL>
6

>  <REMARK>
 VINA RESULT:      -7.7      2.400      8.341
  Name = 
  15 active torsions:
  status: ('A' for Active; 'I' for Inactive)
    1  A    between atoms: C_3  and  C_7
    2  A    between atoms: C_3  and  N_26
    3  A    between atoms: N_5  and  C_27
    4  A    between atoms: C_7  and  C_25
    5  A    between atoms: C_11  and  C_30
    6  A    between atoms: C_16  and  C_46
    7  A    between atoms: C_19  and  S_35
    8  A    between atoms: C_22  and  N_49
    9  A    between atoms: C_24  and  C_32
   10  A    between atoms: N_26  and  C_46
   11  A    between atoms: C_30  and  O_48
   12  A    between atoms: C_32  and  C_33
   13  A    between atoms: S_35  and  C_42
   14  A    between atoms: C_38  and  O_44
   15  A    between atoms: C_47  and  O_48
                            x       y       z     vdW  Elec       q    Type
                         _______ _______ _______ _____ _____    ______ ____

>  <TORSDO>
F 15

$$$$
=
 OpenBabel11042411483D

 53 58  0  0  1  0  0  0  0  0999 V2000
  189.6570  177.5020  146.7290 C   0  0  2  0  0  3  0  0  0  0  0  0
  190.5210  176.8430  144.8670 C   0  0  1  0  0  0  0  0  0  0  0  0
  192.0370  177.4920  146.6520 O   0  0  0  0  0  1  0  0  0  0  0  0
  190.2280  175.6040  144.3110 F   0  0  0  0  0  0  0  0  0  0  0  0
  189.2790  177.6420  145.2520 C   0  0  1  0  0  3  0  0  0  0  0  0
  190.9080  176.7260  146.3430 C   0  0  1  0  0  3  0  0  0  0  0  0
  188.7710  176.6630  147.4150 O   0  0  0  0  0  1  0  0  0  0  0  0
  191.4650  177.6660  143.9850 C   0  0  0  0  0  2  0  0  0  0  0  0
  191.8190  176.9100  142.7990 N   0  0  0  0  0  2  0  0  0  0  0  0
  190.9290  177.3460  141.7360 C   0  0  0  0  0  2  0  0  0  0  0  0
  191.5770  177.1750  140.3640 C   0  0  2  0  0  3  0  0  0  0  0  0
  192.8580  177.7360  140.3060 O   0  0  0  0  0  1  0  0  0  0  0  0
  188.5080  178.2710  138.6950 C   0  0  1  0  0  3  0  0  0  0  0  0
  189.0150  179.3890  138.0170 O   0  0  0  0  0  1  0  0  0  0  0  0
  187.2640  177.5400  136.6380 C   0  0  0  0  0  1  0  0  0  0  0  0
  188.1990  177.1120  137.7550 C   0  0  1  0  0  3  0  0  0  0  0  0
  190.6790  177.6270  139.2040 C   0  0  2  0  0  3  0  0  0  0  0  0
  189.3770  177.8320  139.7150 O   0  0  0  0  0  0  0  0  0  0  0  0
  190.7130  176.7080  137.9840 C   0  0  0  0  0  0  0  0  0  0  0  0
  192.1490  175.5270  136.3550 C   0  0  0  0  0  3  0  0  0  0  0  0
  191.3590  174.5560  135.8510 C   0  0  0  0  0  0  0  0  0  0  0  0
  189.4570  176.4460  137.1910 C   0  0  1  0  0  3  0  0  0  0  0  0
  189.2170  174.9780  137.0660 C   0  0  0  0  0  3  0  0  0  0  0  0
  191.8700  176.3450  137.5090 N   0  0  0  0  0  0  0  0  0  0  0  0
  190.0620  174.1610  136.4410 C   0  0  0  0  0  3  0  0  0  0  0  0
  191.7850  173.8150  134.7430 O   0  0  0  0  0  0  0  0  0  0  0  0
  193.1060  173.2940  134.6040 C   0  0  0  0  0  1  0  0  0  0  0  0
  188.0750  176.9420  144.9400 O   0  0  0  0  0  0  0  0  0  0  0  0
  187.9900  175.9740  142.8470 O   0  0  0  0  0  0  0  0  0  0  0  0
  187.5690  176.8610  143.6400 C   0  0  0  0  0  0  0  0  0  0  0  0
  185.4240  178.0720  144.0050 C   0  0  0  0  0  3  0  0  0  0  0  0
  184.5930  179.6080  142.3690 N   0  0  0  0  0  0  0  0  0  0  0  0
  186.5370  177.8110  143.1970 C   0  0  0  0  0  0  0  0  0  0  0  0
  185.6660  179.3760  141.5660 C   0  0  0  0  0  3  0  0  0  0  0  0
  184.4550  178.9820  143.5710 C   0  0  0  0  0  0  0  0  0  0  0  0
  186.6580  178.4720  141.9660 C   0  0  0  0  0  3  0  0  0  0  0  0
  183.0210  179.3050  144.5930 S   0  0  0  0  0  0  0  0  0  0  0  0
  181.5270  178.2400  142.5990 C   0  0  0  0  0  3  0  0  0  0  0  0
  181.9430  179.3680  143.1660 C   0  0  0  0  0  3  0  0  0  0  0  0
  179.1450  178.6460  141.7580 C   0  0  0  0  0  2  0  0  0  0  0  0
  180.5810  178.2760  141.4440 C   0  0  0  0  0  0  0  0  0  0  0  0
  180.0810  179.6690  141.1160 C   0  0  0  0  0  2  0  0  0  0  0  0
  181.7600  177.8350  139.2470 N   0  0  0  0  0  2  0  0  0  0  0  0
  180.2250  176.3050  140.1170 O   0  0  0  0  0  0  0  0  0  0  0  0
  180.8330  177.4040  140.2470 C   0  0  0  0  0  0  0  0  0  0  0  0
  183.5180  176.6320  137.9600 C   0  0  1  0  0  3  0  0  0  0  0  0
  184.3400  177.5340  138.6490 O   0  0  0  0  0  1  0  0  0  0  0  0
  182.8260  177.3230  135.8180 C   0  0  0  0  0  2  0  0  0  0  0  0
  182.0500  177.0460  138.0530 C   0  0  2  0  0  3  0  0  0  0  0  0
  183.8930  176.6330  136.5450 N   0  0  0  0  0  0  0  0  0  0  0  0
  181.8260  177.8720  136.8210 C   0  0  0  0  0  2  0  0  0  0  0  0
  184.9830  174.4740  136.8240 C   0  0  0  0  0  1  0  0  0  0  0  0
  183.9040  175.2490  136.0910 C   0  0  0  0  0  2  0  0  0  0  0  0
  1  7  1  1  0  0  0
  2  4  1  6  0  0  0
  2  5  1  0  0  0  0
  2  6  1  0  0  0  0
  5 28  1  1  0  0  0
  5  1  1  0  0  0  0
  6  3  1  6  0  0  0
  6  1  1  0  0  0  0
  8  2  1  0  0  0  0
  9  8  1  0  0  0  0
 10  9  1  0  0  0  0
 11 12  1  1  0  0  0
 11 10  1  0  0  0  0
 13 14  1  6  0  0  0
 13 18  1  0  0  0  0
 16 15  1  6  0  0  0
 16 13  1  0  0  0  0
 17 18  1  0  0  0  0
 17 11  1  1  0  0  0
 19 17  1  0  0  0  0
 20 24  1  0  0  0  0
 21 20  2  0  0  0  0
 21 25  1  0  0  0  0
 22 23  1  1  0  0  0
 22 16  1  0  0  0  0
 22 19  1  0  0  0  0
 24 19  2  0  0  0  0
 25 23  2  0  0  0  0
 26 21  1  0  0  0  0
 27 26  1  0  0  0  0
 29 30  2  0  0  0  0
 30 28  1  0  0  0  0
 32 35  2  0  0  0  0
 33 30  1  0  0  0  0
 33 31  2  0  0  0  0
 34 36  2  0  0  0  0
 34 32  1  0  0  0  0
 35 31  1  0  0  0  0
 35 37  1  0  0  0  0
 36 33  1  0  0  0  0
 38 39  2  0  0  0  0
 39 37  1  0  0  0  0
 41 40  1  0  0  0  0
 41 38  1  0  0  0  0
 42 41  1  0  0  0  0
 42 40  1  0  0  0  0
 43 45  1  0  0  0  0
 44 45  2  0  0  0  0
 45 41  1  0  0  0  0
 46 49  1  0  0  0  0
 46 47  1  1  0  0  0
 48 50  1  0  0  0  0
 48 51  1  0  0  0  0
 49 43  1  1  0  0  0
 50 46  1  0  0  0  0
 51 49  1  0  0  0  0
 53 50  1  0  0  0  0
 53 52  1  0  0  0  0
M  END
>  <MODEL>
7

>  <REMARK>
 VINA RESULT:      -7.6      2.011      2.773
  Name = 
  15 active torsions:
  status: ('A' for Active; 'I' for Inactive)
    1  A    between atoms: C_3  and  C_7
    2  A    between atoms: C_3  and  N_26
    3  A    between atoms: N_5  and  C_27
    4  A    between atoms: C_7  and  C_25
    5  A    between atoms: C_11  and  C_30
    6  A    between atoms: C_16  and  C_46
    7  A    between atoms: C_19  and  S_35
    8  A    between atoms: C_22  and  N_49
    9  A    between atoms: C_24  and  C_32
   10  A    between atoms: N_26  and  C_46
   11  A    between atoms: C_30  and  O_48
   12  A    between atoms: C_32  and  C_33
   13  A    between atoms: S_35  and  C_42
   14  A    between atoms: C_38  and  O_44
   15  A    between atoms: C_47  and  O_48
                            x       y       z     vdW  Elec       q    Type
                         _______ _______ _______ _____ _____    ______ ____

>  <TORSDO>
F 15

$$$$
=
 OpenBabel11042411483D

 53 58  0  0  1  0  0  0  0  0999 V2000
  190.2390  177.5630  144.6780 C   0  0  2  0  0  3  0  0  0  0  0  0
  189.8860  176.7590  142.7100 C   0  0  1  0  0  0  0  0  0  0  0  0
  192.1880  176.9050  143.4780 O   0  0  0  0  0  1  0  0  0  0  0  0
  189.0550  175.6680  142.4930 F   0  0  0  0  0  0  0  0  0  0  0  0
  189.2400  177.8530  143.5550 C   0  0  1  0  0  3  0  0  0  0  0  0
  190.8970  176.4880  143.8260 C   0  0  1  0  0  3  0  0  0  0  0  0
  189.6180  176.9750  145.7870 O   0  0  0  0  0  1  0  0  0  0  0  0
  190.4560  177.3230  141.4050 C   0  0  0  0  0  2  0  0  0  0  0  0
  189.5130  177.1150  140.3210 N   0  0  0  0  0  2  0  0  0  0  0  0
  190.2450  177.2990  139.0790 C   0  0  0  0  0  2  0  0  0  0  0  0
  189.3830  177.9860  138.0240 C   0  0  2  0  0  3  0  0  0  0  0  0
  188.4880  178.9050  138.5830 O   0  0  0  0  0  1  0  0  0  0  0  0
  186.9200  175.5300  136.8840 C   0  0  1  0  0  3  0  0  0  0  0  0
  186.5680  176.1240  135.6620 O   0  0  0  0  0  1  0  0  0  0  0  0
  187.0580  173.2720  135.7900 C   0  0  0  0  0  1  0  0  0  0  0  0
  187.7550  174.2700  136.6980 C   0  0  1  0  0  3  0  0  0  0  0  0
  188.7020  177.0060  137.0590 C   0  0  2  0  0  3  0  0  0  0  0  0
  187.6010  176.4270  137.7310 O   0  0  0  0  0  0  0  0  0  0  0  0
  189.6420  175.9750  136.4370 C   0  0  0  0  0  0  0  0  0  0  0  0
  191.7700  175.6140  135.2310 C   0  0  0  0  0  3  0  0  0  0  0  0
  192.0670  174.3170  135.4530 C   0  0  0  0  0  0  0  0  0  0  0  0
  189.1760  174.5590  136.2050 C   0  0  1  0  0  3  0  0  0  0  0  0
  190.1190  173.5900  136.8370 C   0  0  0  0  0  3  0  0  0  0  0  0
  190.7570  176.3880  135.9060 N   0  0  0  0  0  0  0  0  0  0  0  0
  191.3930  173.4790  136.4680 C   0  0  0  0  0  3  0  0  0  0  0  0
  193.1090  173.7100  134.7440 O   0  0  0  0  0  0  0  0  0  0  0  0
  193.6350  172.4210  135.0640 C   0  0  0  0  0  1  0  0  0  0  0  0
  187.9040  177.5200  143.9290 O   0  0  0  0  0  0  0  0  0  0  0  0
  186.8220  178.1740  141.9990 O   0  0  0  0  0  0  0  0  0  0  0  0
  186.7880  178.0180  143.2510 C   0  0  0  0  0  0  0  0  0  0  0  0
  184.3640  178.5830  143.3220 C   0  0  0  0  0  3  0  0  0  0  0  0
  183.2630  178.9880  145.4070 N   0  0  0  0  0  0  0  0  0  0  0  0
  185.5680  178.3570  143.9990 C   0  0  0  0  0  0  0  0  0  0  0  0
  184.4190  178.7690  146.0910 C   0  0  0  0  0  3  0  0  0  0  0  0
  183.2120  178.8990  144.0490 C   0  0  0  0  0  0  0  0  0  0  0  0
  185.5920  178.4500  145.3980 C   0  0  0  0  0  3  0  0  0  0  0  0
  181.6750  179.2060  143.1850 S   0  0  0  0  0  0  0  0  0  0  0  0
  181.5570  178.4550  140.5840 C   0  0  0  0  0  3  0  0  0  0  0  0
  182.3470  178.5880  141.6460 C   0  0  0  0  0  3  0  0  0  0  0  0
  182.1020  179.0030  138.1450 C   0  0  0  0  0  2  0  0  0  0  0  0
  182.1150  177.9960  139.2780 C   0  0  0  0  0  0  0  0  0  0  0  0
  183.4010  178.6990  138.8890 C   0  0  0  0  0  2  0  0  0  0  0  0
  181.4010  176.1320  137.7200 N   0  0  0  0  0  2  0  0  0  0  0  0
  182.5990  175.6750  139.6720 O   0  0  0  0  0  0  0  0  0  0  0  0
  182.0670  176.5380  138.9180 C   0  0  0  0  0  0  0  0  0  0  0  0
  182.5840  174.2230  136.6460 C   0  0  1  0  0  3  0  0  0  0  0  0
  183.2990  175.2750  136.0560 O   0  0  0  0  0  1  0  0  0  0  0  0
  180.7540  173.4170  135.4020 C   0  0  0  0  0  2  0  0  0  0  0  0
  181.3050  174.7330  137.3100 C   0  0  2  0  0  3  0  0  0  0  0  0
  182.1970  173.2690  135.6060 N   0  0  0  0  0  0  0  0  0  0  0  0
  180.2580  174.5770  136.2480 C   0  0  0  0  0  2  0  0  0  0  0  0
  183.8120  171.4530  135.7330 C   0  0  0  0  0  1  0  0  0  0  0  0
  182.4270  171.9290  136.1280 C   0  0  0  0  0  2  0  0  0  0  0  0
  1  7  1  1  0  0  0
  2  4  1  6  0  0  0
  2  5  1  0  0  0  0
  2  6  1  0  0  0  0
  5 28  1  1  0  0  0
  5  1  1  0  0  0  0
  6  3  1  6  0  0  0
  6  1  1  0  0  0  0
  8  2  1  0  0  0  0
  9  8  1  0  0  0  0
 10  9  1  0  0  0  0
 11 12  1  1  0  0  0
 11 10  1  0  0  0  0
 13 14  1  6  0  0  0
 13 18  1  0  0  0  0
 16 15  1  6  0  0  0
 16 13  1  0  0  0  0
 17 18  1  0  0  0  0
 17 11  1  1  0  0  0
 19 17  1  0  0  0  0
 20 21  2  0  0  0  0
 20 24  1  0  0  0  0
 21 25  1  0  0  0  0
 22 19  1  0  0  0  0
 22 16  1  0  0  0  0
 22 23  1  1  0  0  0
 24 19  2  0  0  0  0
 25 23  2  0  0  0  0
 26 27  1  0  0  0  0
 26 21  1  0  0  0  0
 29 30  2  0  0  0  0
 30 28  1  0  0  0  0
 30 33  1  0  0  0  0
 31 33  2  0  0  0  0
 31 35  1  0  0  0  0
 32 34  1  0  0  0  0
 33 36  1  0  0  0  0
 35 32  2  0  0  0  0
 36 34  2  0  0  0  0
 37 35  1  0  0  0  0
 38 39  2  0  0  0  0
 39 37  1  0  0  0  0
 40 42  1  0  0  0  0
 40 41  1  0  0  0  0
 41 38  1  0  0  0  0
 42 41  1  0  0  0  0
 43 45  1  0  0  0  0
 45 41  1  0  0  0  0
 45 44  2  0  0  0  0
 46 47  1  6  0  0  0
 46 49  1  0  0  0  0
 48 50  1  0  0  0  0
 48 51  1  0  0  0  0
 49 43  1  6  0  0  0
 50 53  1  0  0  0  0
 50 46  1  0  0  0  0
 51 49  1  0  0  0  0
 52 53  1  0  0  0  0
M  END
>  <MODEL>
8

>  <REMARK>
 VINA RESULT:      -7.6      2.220      3.164
  Name = 
  15 active torsions:
  status: ('A' for Active; 'I' for Inactive)
    1  A    between atoms: C_3  and  C_7
    2  A    between atoms: C_3  and  N_26
    3  A    between atoms: N_5  and  C_27
    4  A    between atoms: C_7  and  C_25
    5  A    between atoms: C_11  and  C_30
    6  A    between atoms: C_16  and  C_46
    7  A    between atoms: C_19  and  S_35
    8  A    between atoms: C_22  and  N_49
    9  A    between atoms: C_24  and  C_32
   10  A    between atoms: N_26  and  C_46
   11  A    between atoms: C_30  and  O_48
   12  A    between atoms: C_32  and  C_33
   13  A    between atoms: S_35  and  C_42
   14  A    between atoms: C_38  and  O_44
   15  A    between atoms: C_47  and  O_48
                            x       y       z     vdW  Elec       q    Type
                         _______ _______ _______ _____ _____    ______ ____

>  <TORSDO>
F 15

$$$$
=
 OpenBabel11042411483D

 53 58  0  0  1  0  0  0  0  0999 V2000
  183.3280  179.4820  139.3440 C   0  0  2  0  0  3  0  0  0  0  0  0
  182.6940  177.4320  139.5520 C   0  0  1  0  0  0  0  0  0  0  0  0
  181.8180  178.7040  137.6760 O   0  0  0  0  0  1  0  0  0  0  0  0
  183.5970  176.3790  139.6100 F   0  0  0  0  0  0  0  0  0  0  0  0
  183.0170  178.5610  140.5270 C   0  0  1  0  0  3  0  0  0  0  0  0
  182.9830  178.3630  138.3730 C   0  0  1  0  0  3  0  0  0  0  0  0
  184.6940  179.7780  139.2610 O   0  0  0  0  0  1  0  0  0  0  0  0
  181.2430  176.9620  139.7010 C   0  0  0  0  0  2  0  0  0  0  0  0
  181.1970  175.5130  139.7700 N   0  0  0  0  0  2  0  0  0  0  0  0
  180.0370  175.0880  139.0040 C   0  0  0  0  0  2  0  0  0  0  0  0
  180.2460  175.3120  137.5090 C   0  0  2  0  0  3  0  0  0  0  0  0
  179.0730  175.7160  136.8610 O   0  0  0  0  0  1  0  0  0  0  0  0
  181.3280  171.8550  136.9830 C   0  0  1  0  0  3  0  0  0  0  0  0
  180.9140  171.6960  135.6520 O   0  0  0  0  0  1  0  0  0  0  0  0
  183.5290  170.7560  136.4680 C   0  0  0  0  0  1  0  0  0  0  0  0
  182.8440  171.9490  137.1120 C   0  0  1  0  0  3  0  0  0  0  0  0
  180.9360  174.1360  136.8060 C   0  0  2  0  0  3  0  0  0  0  0  0
  180.7330  172.9780  137.5920 O   0  0  0  0  0  0  0  0  0  0  0  0
  182.4040  174.3810  136.4570 C   0  0  0  0  0  0  0  0  0  0  0  0
  184.0210  175.9120  135.3850 C   0  0  0  0  0  3  0  0  0  0  0  0
  185.2130  175.5680  135.9160 C   0  0  0  0  0  0  0  0  0  0  0  0
  183.4120  173.2640  136.5710 C   0  0  1  0  0  3  0  0  0  0  0  0
  184.5610  173.6860  137.4240 C   0  0  0  0  0  3  0  0  0  0  0  0
  182.7230  175.4860  135.8480 N   0  0  0  0  0  0  0  0  0  0  0  0
  185.3670  174.6950  137.0990 C   0  0  0  0  0  3  0  0  0  0  0  0
  186.3920  176.0970  135.3810 O   0  0  0  0  0  0  0  0  0  0  0  0
  186.5380  177.4610  134.9870 C   0  0  0  0  0  1  0  0  0  0  0  0
  184.1800  178.2790  141.3050 O   0  0  0  0  0  0  0  0  0  0  0  0
  183.4200  179.3990  143.1730 O   0  0  0  0  0  0  0  0  0  0  0  0
  184.3100  178.6850  142.6360 C   0  0  0  0  0  0  0  0  0  0  0  0
  186.7600  178.2820  142.8280 C   0  0  0  0  0  3  0  0  0  0  0  0
  187.7150  177.5040  144.8800 N   0  0  0  0  0  0  0  0  0  0  0  0
  185.4890  178.2730  143.4140 C   0  0  0  0  0  0  0  0  0  0  0  0
  186.4910  177.4890  145.4750 C   0  0  0  0  0  3  0  0  0  0  0  0
  187.8700  177.8920  143.5840 C   0  0  0  0  0  0  0  0  0  0  0  0
  185.3560  177.8730  144.7510 C   0  0  0  0  0  3  0  0  0  0  0  0
  189.4950  177.8850  142.8320 S   0  0  0  0  0  0  0  0  0  0  0  0
  189.3190  178.0070  140.1310 C   0  0  0  0  0  3  0  0  0  0  0  0
  188.8190  177.4540  141.2320 C   0  0  0  0  0  3  0  0  0  0  0  0
  187.3290  177.8490  138.5300 C   0  0  0  0  0  2  0  0  0  0  0  0
  188.8050  177.6130  138.7850 C   0  0  0  0  0  0  0  0  0  0  0  0
  188.3740  178.7910  137.9340 C   0  0  0  0  0  2  0  0  0  0  0  0
  190.8840  176.5820  137.7740 N   0  0  0  0  0  2  0  0  0  0  0  0
  188.8100  175.5220  137.6030 O   0  0  0  0  0  0  0  0  0  0  0  0
  189.4790  176.5070  138.0260 C   0  0  0  0  0  0  0  0  0  0  0  0
  192.9990  175.2800  137.6050 C   0  0  1  0  0  3  0  0  0  0  0  0
  193.4970  176.4080  138.2710 O   0  0  0  0  0  1  0  0  0  0  0  0
  193.1760  175.3270  135.2570 C   0  0  0  0  0  2  0  0  0  0  0  0
  191.6060  175.5490  137.0350 C   0  0  2  0  0  3  0  0  0  0  0  0
  193.8840  174.9590  136.4850 N   0  0  0  0  0  0  0  0  0  0  0  0
  191.8700  176.0070  135.6320 C   0  0  0  0  0  2  0  0  0  0  0  0
  195.4760  173.1660  136.9050 C   0  0  0  0  0  1  0  0  0  0  0  0
  194.0660  173.5140  136.4650 C   0  0  0  0  0  2  0  0  0  0  0  0
  1  7  1  1  0  0  0
  1  5  1  0  0  0  0
  2  4  1  1  0  0  0
  2  8  1  0  0  0  0
  2  5  1  0  0  0  0
  5 28  1  1  0  0  0
  6  3  1  6  0  0  0
  6  1  1  0  0  0  0
  6  2  1  0  0  0  0
  8  9  1  0  0  0  0
 10  9  1  0  0  0  0
 11 12  1  6  0  0  0
 11 10  1  0  0  0  0
 13 14  1  6  0  0  0
 13 16  1  0  0  0  0
 13 18  1  0  0  0  0
 16 15  1  6  0  0  0
 17 11  1  1  0  0  0
 17 18  1  0  0  0  0
 19 22  1  0  0  0  0
 19 17  1  0  0  0  0
 20 24  1  0  0  0  0
 20 21  2  0  0  0  0
 21 25  1  0  0  0  0
 22 16  1  0  0  0  0
 22 23  1  1  0  0  0
 24 19  2  0  0  0  0
 25 23  2  0  0  0  0
 26 21  1  0  0  0  0
 27 26  1  0  0  0  0
 28 30  1  0  0  0  0
 30 29  2  0  0  0  0
 30 33  1  0  0  0  0
 31 33  2  0  0  0  0
 31 35  1  0  0  0  0
 32 34  1  0  0  0  0
 33 36  1  0  0  0  0
 35 32  2  0  0  0  0
 36 34  2  0  0  0  0
 37 35  1  0  0  0  0
 38 39  2  0  0  0  0
 39 37  1  0  0  0  0
 40 41  1  0  0  0  0
 41 38  1  0  0  0  0
 42 40  1  0  0  0  0
 42 41  1  0  0  0  0
 43 45  1  0  0  0  0
 44 45  2  0  0  0  0
 45 41  1  0  0  0  0
 46 47  1  6  0  0  0
 48 51  1  0  0  0  0
 48 50  1  0  0  0  0
 49 46  1  0  0  0  0
 49 43  1  1  0  0  0
 50 46  1  0  0  0  0
 51 49  1  0  0  0  0
 53 50  1  0  0  0  0
 53 52  1  0  0  0  0
M  END
>  <MODEL>
9

>  <REMARK>
 VINA RESULT:      -7.5      2.968      8.361
  Name = 
  15 active torsions:
  status: ('A' for Active; 'I' for Inactive)
    1  A    between atoms: C_3  and  C_7
    2  A    between atoms: C_3  and  N_26
    3  A    between atoms: N_5  and  C_27
    4  A    between atoms: C_7  and  C_25
    5  A    between atoms: C_11  and  C_30
    6  A    between atoms: C_16  and  C_46
    7  A    between atoms: C_19  and  S_35
    8  A    between atoms: C_22  and  N_49
    9  A    between atoms: C_24  and  C_32
   10  A    between atoms: N_26  and  C_46
   11  A    between atoms: C_30  and  O_48
   12  A    between atoms: C_32  and  C_33
   13  A    between atoms: S_35  and  C_42
   14  A    between atoms: C_38  and  O_44
   15  A    between atoms: C_47  and  O_48
                            x       y       z     vdW  Elec       q    Type
                         _______ _______ _______ _____ _____    ______ ____

>  <TORSDO>
F 15

$$$$
