=
 OpenBabel11042411193D

 25 27  0  0  1  0  0  0  0  0999 V2000
  191.6550  175.6940  144.4620 C   0  0  0  0  0  0  0  0  0  0  0  0
  190.1370  177.4640  144.7200 C   0  0  1  0  0  3  0  0  0  0  0  0
  191.1240  177.4170  145.8990 C   0  0  0  0  0  2  0  0  0  0  0  0
  192.2790  174.6900  144.0290 O   0  0  0  0  0  0  0  0  0  0  0  0
  190.4470  176.2600  143.8250 C   0  0  1  0  0  3  0  0  0  0  0  0
  192.0210  176.3610  145.6090 O   0  0  0  0  0  0  0  0  0  0  0  0
  185.6150  179.6530  147.2130 O   0  0  0  0  0  1  0  0  0  0  0  0
  187.2360  177.9280  148.4540 O   0  0  0  0  0  1  0  0  0  0  0  0
  184.7350  179.3730  144.5960 C   0  0  0  0  0  1  0  0  0  0  0  0
  188.4830  177.7530  146.4620 C   0  0  0  0  0  3  0  0  0  0  0  0
  187.1300  177.6770  147.0860 C   0  0  2  0  0  3  0  0  0  0  0  0
  188.7170  177.4430  145.1870 C   0  0  0  0  0  0  0  0  0  0  0  0
  187.6460  177.0400  144.2450 C   0  0  0  0  0  3  0  0  0  0  0  0
  185.8090  178.5020  145.1530 C   0  0  0  0  0  0  0  0  0  0  0  0
  186.3870  177.4970  144.2360 C   0  0  0  0  0  3  0  0  0  0  0  0
  186.1720  178.6350  146.4410 C   0  0  0  0  0  0  0  0  0  0  0  0
  192.2140  177.5270  140.7710 C   0  0  0  0  0  3  0  0  0  0  0  0
  189.6590  176.7420  141.5070 C   0  0  0  0  0  3  0  0  0  0  0  0
  190.7130  176.7060  142.4220 C   0  0  0  0  0  0  0  0  0  0  0  0
  191.9600  177.1000  142.0360 N   0  0  0  0  0  0  0  0  0  0  0  0
  189.9000  177.1720  140.2000 C   0  0  0  0  0  0  0  0  0  0  0  0
  191.1860  177.5720  139.8270 C   0  0  0  0  0  3  0  0  0  0  0  0
  188.7840  177.2340  139.2160 C   0  0  0  0  0  2  0  0  0  0  0  0
  188.8860  178.5020  138.3900 C   0  0  0  0  0  2  0  0  0  0  0  0
  188.8910  178.1470  136.9190 C   0  0  0  0  0  1  0  0  0  0  0  0
  1  6  1  0  0  0  0
  2 12  1  1  0  0  0
  2  3  1  0  0  0  0
  4  1  2  0  0  0  0
  5 19  1  6  0  0  0
  5  1  1  0  0  0  0
  5  2  1  0  0  0  0
  6  3  1  0  0  0  0
  9 14  1  0  0  0  0
 10 11  1  0  0  0  0
 11  8  1  1  0  0  0
 12 10  2  0  0  0  0
 13 12  1  0  0  0  0
 14 16  2  0  0  0  0
 15 13  2  0  0  0  0
 15 14  1  0  0  0  0
 16 11  1  0  0  0  0
 16  7  1  0  0  0  0
 17 20  1  0  0  0  0
 18 19  1  0  0  0  0
 20 19  2  0  0  0  0
 21 18  2  0  0  0  0
 22 21  1  0  0  0  0
 22 17  2  0  0  0  0
 23 21  1  0  0  0  0
 24 23  1  0  0  0  0
 25 24  1  0  0  0  0
M  END
>  <MODEL>
1

>  <REMARK>
 VINA RESULT:      -9.0      0.000      0.000
  Name = 
  4 active torsions:
  status: ('A' for Active; 'I' for Inactive)
    1  A    between atoms: C_4  and  C_14
    2  A    between atoms: C_6  and  C_24
    3  A    between atoms: C_7  and  C_17
    4  A    between atoms: C_21  and  C_24
                            x       y       z     vdW  Elec       q    Type
                         _______ _______ _______ _____ _____    ______ ____

>  <TORSDO>
F 4

$$$$
=
 OpenBabel11042411193D

 25 27  0  0  1  0  0  0  0  0999 V2000
  190.5310  176.8780  141.2780 C   0  0  0  0  0  0  0  0  0  0  0  0
  190.1120  177.9430  143.3260 C   0  0  1  0  0  3  0  0  0  0  0  0
  191.5630  178.1820  142.8760 C   0  0  0  0  0  2  0  0  0  0  0  0
  190.4180  176.2050  140.2200 O   0  0  0  0  0  0  0  0  0  0  0  0
  189.4710  177.0010  142.3020 C   0  0  1  0  0  3  0  0  0  0  0  0
  191.6830  177.5530  141.6130 O   0  0  0  0  0  0  0  0  0  0  0  0
  191.6000  177.6120  148.7240 O   0  0  0  0  0  1  0  0  0  0  0  0
  192.5980  175.9730  146.8640 O   0  0  0  0  0  1  0  0  0  0  0  0
  188.9220  178.3150  148.9200 C   0  0  0  0  0  1  0  0  0  0  0  0
  191.2000  177.0130  145.2770 C   0  0  0  0  0  3  0  0  0  0  0  0
  191.2760  176.3370  146.6050 C   0  0  2  0  0  3  0  0  0  0  0  0
  190.0490  177.3680  144.7060 C   0  0  0  0  0  0  0  0  0  0  0  0
  188.7310  177.1760  145.3560 C   0  0  0  0  0  3  0  0  0  0  0  0
  189.4490  177.5820  147.7340 C   0  0  0  0  0  0  0  0  0  0  0  0
  188.4760  177.2650  146.6680 C   0  0  0  0  0  3  0  0  0  0  0  0
  190.7420  177.2140  147.7000 C   0  0  0  0  0  0  0  0  0  0  0  0
  187.0240  178.5280  139.9060 C   0  0  0  0  0  3  0  0  0  0  0  0
  187.1400  177.8430  142.5910 C   0  0  0  0  0  3  0  0  0  0  0  0
  188.2240  177.6080  141.7420 C   0  0  0  0  0  0  0  0  0  0  0  0
  188.1430  177.9570  140.4260 N   0  0  0  0  0  0  0  0  0  0  0  0
  185.9790  178.4240  142.0750 C   0  0  0  0  0  0  0  0  0  0  0  0
  185.9190  178.7740  140.7240 C   0  0  0  0  0  3  0  0  0  0  0  0
  184.8200  178.6990  142.9690 C   0  0  0  0  0  2  0  0  0  0  0  0
  185.2110  178.4680  144.4160 C   0  0  0  0  0  2  0  0  0  0  0  0
  184.0720  178.8890  145.3200 C   0  0  0  0  0  1  0  0  0  0  0  0
  1  6  1  0  0  0  0
  1  5  1  0  0  0  0
  2 12  1  1  0  0  0
  3  2  1  0  0  0  0
  4  1  2  0  0  0  0
  5 19  1  6  0  0  0
  5  2  1  0  0  0  0
  6  3  1  0  0  0  0
 10 11  1  0  0  0  0
 11  8  1  1  0  0  0
 11 16  1  0  0  0  0
 12 10  2  0  0  0  0
 12 13  1  0  0  0  0
 13 15  2  0  0  0  0
 14  9  1  0  0  0  0
 15 14  1  0  0  0  0
 16 14  2  0  0  0  0
 16  7  1  0  0  0  0
 17 20  2  0  0  0  0
 17 22  1  0  0  0  0
 19 18  2  0  0  0  0
 20 19  1  0  0  0  0
 21 18  1  0  0  0  0
 21 23  1  0  0  0  0
 22 21  2  0  0  0  0
 23 24  1  0  0  0  0
 24 25  1  0  0  0  0
M  END
>  <MODEL>
2

>  <REMARK>
 VINA RESULT:      -8.9      2.406      4.729
  Name = 
  4 active torsions:
  status: ('A' for Active; 'I' for Inactive)
    1  A    between atoms: C_4  and  C_14
    2  A    between atoms: C_6  and  C_24
    3  A    between atoms: C_7  and  C_17
    4  A    between atoms: C_21  and  C_24
                            x       y       z     vdW  Elec       q    Type
                         _______ _______ _______ _____ _____    ______ ____

>  <TORSDO>
F 4

$$$$
=
 OpenBabel11042411193D

 25 27  0  0  1  0  0  0  0  0999 V2000
  191.3440  176.7340  145.1540 C   0  0  0  0  0  0  0  0  0  0  0  0
  189.7860  176.4820  143.4190 C   0  0  1  0  0  3  0  0  0  0  0  0
  190.8150  175.3400  143.3960 C   0  0  0  0  0  2  0  0  0  0  0  0
  191.9870  177.1610  146.1490 O   0  0  0  0  0  0  0  0  0  0  0  0
  190.2060  177.4450  144.5330 C   0  0  1  0  0  3  0  0  0  0  0  0
  191.6590  175.5580  144.5120 O   0  0  0  0  0  0  0  0  0  0  0  0
  189.3020  176.6700  137.8340 O   0  0  0  0  0  1  0  0  0  0  0  0
  191.6640  176.8630  139.0710 O   0  0  0  0  0  1  0  0  0  0  0  0
  186.9960  177.9860  138.6440 C   0  0  0  0  0  1  0  0  0  0  0  0
  190.5280  176.7680  141.1340 C   0  0  0  0  0  3  0  0  0  0  0  0
  190.6250  177.4380  139.8040 C   0  0  2  0  0  3  0  0  0  0  0  0
  189.7060  177.1800  142.0990 C   0  0  0  0  0  0  0  0  0  0  0  0
  188.7660  178.3150  141.9300 C   0  0  0  0  0  3  0  0  0  0  0  0
  188.2170  177.9570  139.4990 C   0  0  0  0  0  0  0  0  0  0  0  0
  188.1270  178.6500  140.8020 C   0  0  0  0  0  3  0  0  0  0  0  0
  189.3310  177.3530  139.0490 C   0  0  0  0  0  0  0  0  0  0  0  0
  188.2700  177.7060  147.7340 C   0  0  0  0  0  3  0  0  0  0  0  0
  187.8040  177.9260  145.0100 C   0  0  0  0  0  3  0  0  0  0  0  0
  189.0820  177.6490  145.5000 C   0  0  0  0  0  0  0  0  0  0  0  0
  189.2850  177.5430  146.8440 N   0  0  0  0  0  0  0  0  0  0  0  0
  186.7490  178.1020  145.9080 C   0  0  0  0  0  0  0  0  0  0  0  0
  186.9790  177.9880  147.2810 C   0  0  0  0  0  3  0  0  0  0  0  0
  185.3760  178.3790  145.4020 C   0  0  0  0  0  2  0  0  0  0  0  0
  185.3410  178.2570  143.8910 C   0  0  0  0  0  2  0  0  0  0  0  0
  183.9830  178.6890  143.3810 C   0  0  0  0  0  1  0  0  0  0  0  0
  1  4  2  0  0  0  0
  2 12  1  6  0  0  0
  2  5  1  0  0  0  0
  3  2  1  0  0  0  0
  3  6  1  0  0  0  0
  5  1  1  0  0  0  0
  5 19  1  1  0  0  0
  6  1  1  0  0  0  0
  7 16  1  0  0  0  0
  9 14  1  0  0  0  0
 10 12  2  0  0  0  0
 11  8  1  6  0  0  0
 11 10  1  0  0  0  0
 13 12  1  0  0  0  0
 14 15  1  0  0  0  0
 15 13  2  0  0  0  0
 16 14  2  0  0  0  0
 16 11  1  0  0  0  0
 18 19  2  0  0  0  0
 18 21  1  0  0  0  0
 19 20  1  0  0  0  0
 20 17  2  0  0  0  0
 21 22  2  0  0  0  0
 22 17  1  0  0  0  0
 23 21  1  0  0  0  0
 24 23  1  0  0  0  0
 25 24  1  0  0  0  0
M  END
>  <MODEL>
3

>  <REMARK>
 VINA RESULT:      -8.8      2.371      6.104
  Name = 
  4 active torsions:
  status: ('A' for Active; 'I' for Inactive)
    1  A    between atoms: C_4  and  C_14
    2  A    between atoms: C_6  and  C_24
    3  A    between atoms: C_7  and  C_17
    4  A    between atoms: C_21  and  C_24
                            x       y       z     vdW  Elec       q    Type
                         _______ _______ _______ _____ _____    ______ ____

>  <TORSDO>
F 4

$$$$
=
 OpenBabel11042411193D

 25 27  0  0  1  0  0  0  0  0999 V2000
  190.8580  176.9770  144.4020 C   0  0  0  0  0  0  0  0  0  0  0  0
  188.8490  176.8720  143.1940 C   0  0  1  0  0  3  0  0  0  0  0  0
  189.8010  175.7430  142.7660 C   0  0  0  0  0  2  0  0  0  0  0  0
  191.7770  177.3160  145.1940 O   0  0  0  0  0  0  0  0  0  0  0  0
  189.6020  177.7340  144.2130 C   0  0  1  0  0  3  0  0  0  0  0  0
  190.9430  175.8660  143.5940 O   0  0  0  0  0  0  0  0  0  0  0  0
  187.3290  177.6040  137.8460 O   0  0  0  0  0  1  0  0  0  0  0  0
  189.7920  178.1620  138.7190 O   0  0  0  0  0  1  0  0  0  0  0  0
  184.9970  178.2810  139.1910 C   0  0  0  0  0  1  0  0  0  0  0  0
  189.0930  177.5800  140.8930 C   0  0  0  0  0  3  0  0  0  0  0  0
  188.8130  178.4060  139.6820 C   0  0  2  0  0  3  0  0  0  0  0  0
  188.3960  177.6870  142.0250 C   0  0  0  0  0  0  0  0  0  0  0  0
  187.2380  178.6000  142.1780 C   0  0  0  0  0  3  0  0  0  0  0  0
  186.3350  178.4190  139.8340 C   0  0  0  0  0  0  0  0  0  0  0  0
  186.3510  178.9180  141.2260 C   0  0  0  0  0  3  0  0  0  0  0  0
  187.4450  178.1300  139.1320 C   0  0  0  0  0  0  0  0  0  0  0  0
  188.7330  177.7900  147.8600 C   0  0  0  0  0  3  0  0  0  0  0  0
  187.4420  178.0560  145.4200 C   0  0  0  0  0  3  0  0  0  0  0  0
  188.8210  177.8440  145.4840 C   0  0  0  0  0  0  0  0  0  0  0  0
  189.4320  177.7140  146.6960 N   0  0  0  0  0  0  0  0  0  0  0  0
  186.7060  178.1430  146.6050 C   0  0  0  0  0  0  0  0  0  0  0  0
  187.3530  178.0060  147.8350 C   0  0  0  0  0  3  0  0  0  0  0  0
  185.2320  178.3510  146.5550 C   0  0  0  0  0  2  0  0  0  0  0  0
  184.8610  179.1660  145.3320 C   0  0  0  0  0  2  0  0  0  0  0  0
  183.4700  178.7830  144.8740 C   0  0  0  0  0  1  0  0  0  0  0  0
  1  4  2  0  0  0  0
  2 12  1  6  0  0  0
  2  5  1  0  0  0  0
  3  2  1  0  0  0  0
  3  6  1  0  0  0  0
  5  1  1  0  0  0  0
  5 19  1  1  0  0  0
  6  1  1  0  0  0  0
  7 16  1  0  0  0  0
  9 14  1  0  0  0  0
 10 12  2  0  0  0  0
 11  8  1  6  0  0  0
 11 10  1  0  0  0  0
 12 13  1  0  0  0  0
 14 15  1  0  0  0  0
 15 13  2  0  0  0  0
 16 11  1  0  0  0  0
 16 14  2  0  0  0  0
 18 19  2  0  0  0  0
 18 21  1  0  0  0  0
 19 20  1  0  0  0  0
 20 17  2  0  0  0  0
 21 22  2  0  0  0  0
 22 17  1  0  0  0  0
 23 21  1  0  0  0  0
 24 23  1  0  0  0  0
 25 24  1  0  0  0  0
M  END
>  <MODEL>
4

>  <REMARK>
 VINA RESULT:      -8.8      2.929      6.165
  Name = 
  4 active torsions:
  status: ('A' for Active; 'I' for Inactive)
    1  A    between atoms: C_4  and  C_14
    2  A    between atoms: C_6  and  C_24
    3  A    between atoms: C_7  and  C_17
    4  A    between atoms: C_21  and  C_24
                            x       y       z     vdW  Elec       q    Type
                         _______ _______ _______ _____ _____    ______ ____

>  <TORSDO>
F 4

$$$$
=
 OpenBabel11042411193D

 25 27  0  0  1  0  0  0  0  0999 V2000
  191.6380  177.6080  142.3220 C   0  0  0  0  0  0  0  0  0  0  0  0
  189.7210  178.4270  143.4000 C   0  0  1  0  0  3  0  0  0  0  0  0
  190.9820  179.1420  143.9150 C   0  0  0  0  0  2  0  0  0  0  0  0
  192.4260  176.9610  141.5840 O   0  0  0  0  0  0  0  0  0  0  0  0
  190.1840  177.3510  142.4130 C   0  0  1  0  0  3  0  0  0  0  0  0
  192.0580  178.6170  143.1590 O   0  0  0  0  0  0  0  0  0  0  0  0
  187.6900  178.2900  148.6260 O   0  0  0  0  0  1  0  0  0  0  0  0
  189.8360  176.8780  147.8910 O   0  0  0  0  0  1  0  0  0  0  0  0
  185.3650  178.5070  147.1240 C   0  0  0  0  0  1  0  0  0  0  0  0
  189.5390  177.6770  145.6930 C   0  0  0  0  0  3  0  0  0  0  0  0
  188.9010  177.0070  146.8640 C   0  0  2  0  0  3  0  0  0  0  0  0
  188.9270  177.8320  144.5190 C   0  0  0  0  0  0  0  0  0  0  0  0
  187.5300  177.4000  144.2730 C   0  0  0  0  0  3  0  0  0  0  0  0
  186.6020  177.8940  146.5600 C   0  0  0  0  0  0  0  0  0  0  0  0
  186.5280  177.4250  145.1600 C   0  0  0  0  0  3  0  0  0  0  0  0
  187.6920  177.7600  147.3370 C   0  0  0  0  0  0  0  0  0  0  0  0
  189.5680  177.4540  138.7150 C   0  0  0  0  0  3  0  0  0  0  0  0
  188.1820  177.9740  141.0600 C   0  0  0  0  0  3  0  0  0  0  0  0
  189.5040  177.5260  141.0910 C   0  0  0  0  0  0  0  0  0  0  0  0
  190.1660  177.2810  139.9250 N   0  0  0  0  0  0  0  0  0  0  0  0
  187.5480  178.1540  139.8280 C   0  0  0  0  0  0  0  0  0  0  0  0
  188.2450  177.8960  138.6450 C   0  0  0  0  0  3  0  0  0  0  0  0
  186.1440  178.6480  139.7750 C   0  0  0  0  0  2  0  0  0  0  0  0
  185.6680  179.0190  141.1650 C   0  0  0  0  0  2  0  0  0  0  0  0
  184.4290  178.2190  141.5050 C   0  0  0  0  0  1  0  0  0  0  0  0
  1  5  1  0  0  0  0
  1  6  1  0  0  0  0
  2  3  1  0  0  0  0
  2 12  1  1  0  0  0
  4  1  2  0  0  0  0
  5 19  1  6  0  0  0
  5  2  1  0  0  0  0
  6  3  1  0  0  0  0
 10 11  1  0  0  0  0
 11 16  1  0  0  0  0
 11  8  1  1  0  0  0
 12 10  2  0  0  0  0
 13 12  1  0  0  0  0
 13 15  2  0  0  0  0
 14  9  1  0  0  0  0
 14 16  2  0  0  0  0
 15 14  1  0  0  0  0
 16  7  1  0  0  0  0
 17 20  1  0  0  0  0
 18 19  1  0  0  0  0
 20 19  2  0  0  0  0
 21 18  2  0  0  0  0
 22 17  2  0  0  0  0
 22 21  1  0  0  0  0
 23 21  1  0  0  0  0
 23 24  1  0  0  0  0
 24 25  1  0  0  0  0
M  END
>  <MODEL>
5

>  <REMARK>
 VINA RESULT:      -8.4      1.953      2.781
  Name = 
  4 active torsions:
  status: ('A' for Active; 'I' for Inactive)
    1  A    between atoms: C_4  and  C_14
    2  A    between atoms: C_6  and  C_24
    3  A    between atoms: C_7  and  C_17
    4  A    between atoms: C_21  and  C_24
                            x       y       z     vdW  Elec       q    Type
                         _______ _______ _______ _____ _____    ______ ____

>  <TORSDO>
F 4

$$$$
=
 OpenBabel11042411193D

 25 27  0  0  1  0  0  0  0  0999 V2000
  190.6100  177.4890  142.5020 C   0  0  0  0  0  0  0  0  0  0  0  0
  188.4090  177.1310  143.2320 C   0  0  1  0  0  3  0  0  0  0  0  0
  188.6580  176.4270  141.8870 C   0  0  0  0  0  2  0  0  0  0  0  0
  191.8070  177.8710  142.4100 O   0  0  0  0  0  0  0  0  0  0  0  0
  189.6850  177.9060  143.5780 C   0  0  1  0  0  3  0  0  0  0  0  0
  190.0200  176.6570  141.5780 O   0  0  0  0  0  0  0  0  0  0  0  0
  183.2470  178.5780  141.5840 O   0  0  0  0  0  1  0  0  0  0  0  0
  185.4440  179.5060  140.3770 O   0  0  0  0  0  1  0  0  0  0  0  0
  182.9290  178.3930  144.3350 C   0  0  0  0  0  1  0  0  0  0  0  0
  186.7400  178.3380  141.9620 C   0  0  0  0  0  3  0  0  0  0  0  0
  185.6260  179.3070  141.7460 C   0  0  2  0  0  3  0  0  0  0  0  0
  187.2240  178.0400  143.1680 C   0  0  0  0  0  0  0  0  0  0  0  0
  186.6690  178.6040  144.4230 C   0  0  0  0  0  3  0  0  0  0  0  0
  184.2520  178.7050  143.7240 C   0  0  0  0  0  0  0  0  0  0  0  0
  185.3830  178.8940  144.6580 C   0  0  0  0  0  3  0  0  0  0  0  0
  184.3550  178.8370  142.3900 C   0  0  0  0  0  0  0  0  0  0  0  0
  191.7950  176.3980  146.2860 C   0  0  0  0  0  3  0  0  0  0  0  0
  189.4520  177.8640  146.0620 C   0  0  0  0  0  3  0  0  0  0  0  0
  190.1880  177.5080  144.9300 C   0  0  0  0  0  0  0  0  0  0  0  0
  191.3360  176.7850  145.0660 N   0  0  0  0  0  0  0  0  0  0  0  0
  189.9100  177.4810  147.3250 C   0  0  0  0  0  0  0  0  0  0  0  0
  191.0880  176.7400  147.4410 C   0  0  0  0  0  3  0  0  0  0  0  0
  189.1280  177.8360  148.5420 C   0  0  0  0  0  2  0  0  0  0  0  0
  187.6530  177.5740  148.3100 C   0  0  0  0  0  2  0  0  0  0  0  0
  186.9350  178.8870  148.0860 C   0  0  0  0  0  1  0  0  0  0  0  0
  1  5  1  0  0  0  0
  2 12  1  6  0  0  0
  2  5  1  0  0  0  0
  3  2  1  0  0  0  0
  4  1  2  0  0  0  0
  5 19  1  1  0  0  0
  6  3  1  0  0  0  0
  6  1  1  0  0  0  0
  7 16  1  0  0  0  0
 10 12  2  0  0  0  0
 11  8  1  6  0  0  0
 11 10  1  0  0  0  0
 11 16  1  0  0  0  0
 12 13  1  0  0  0  0
 13 15  2  0  0  0  0
 14  9  1  0  0  0  0
 14 15  1  0  0  0  0
 16 14  2  0  0  0  0
 17 22  1  0  0  0  0
 18 21  1  0  0  0  0
 19 20  1  0  0  0  0
 19 18  2  0  0  0  0
 20 17  2  0  0  0  0
 21 22  2  0  0  0  0
 21 23  1  0  0  0  0
 24 23  1  0  0  0  0
 25 24  1  0  0  0  0
M  END
>  <MODEL>
6

>  <REMARK>
 VINA RESULT:      -8.3      2.984      5.583
  Name = 
  4 active torsions:
  status: ('A' for Active; 'I' for Inactive)
    1  A    between atoms: C_4  and  C_14
    2  A    between atoms: C_6  and  C_24
    3  A    between atoms: C_7  and  C_17
    4  A    between atoms: C_21  and  C_24
                            x       y       z     vdW  Elec       q    Type
                         _______ _______ _______ _____ _____    ______ ____

>  <TORSDO>
F 4

$$$$
=
 OpenBabel11042411193D

 25 27  0  0  1  0  0  0  0  0999 V2000
  191.6740  177.5960  142.3750 C   0  0  0  0  0  0  0  0  0  0  0  0
  189.7110  178.4300  143.3540 C   0  0  1  0  0  3  0  0  0  0  0  0
  190.9470  179.1610  143.9050 C   0  0  0  0  0  2  0  0  0  0  0  0
  192.4940  176.9360  141.6840 O   0  0  0  0  0  0  0  0  0  0  0  0
  190.2180  177.3350  142.4100 C   0  0  1  0  0  3  0  0  0  0  0  0
  192.0550  178.6250  143.2050 O   0  0  0  0  0  0  0  0  0  0  0  0
  187.5470  178.3460  148.5270 O   0  0  0  0  0  1  0  0  0  0  0  0
  189.6720  176.8760  147.8440 O   0  0  0  0  0  1  0  0  0  0  0  0
  185.2680  178.6260  146.9690 C   0  0  0  0  0  1  0  0  0  0  0  0
  189.4520  177.6840  145.6410 C   0  0  0  0  0  3  0  0  0  0  0  0
  188.7670  177.0310  146.7940 C   0  0  2  0  0  3  0  0  0  0  0  0
  188.8740  177.8560  144.4520 C   0  0  0  0  0  0  0  0  0  0  0  0
  187.4730  177.4620  144.1710 C   0  0  0  0  0  3  0  0  0  0  0  0
  186.5010  177.9800  146.4350 C   0  0  0  0  0  0  0  0  0  0  0  0
  186.4490  177.5140  145.0330 C   0  0  0  0  0  3  0  0  0  0  0  0
  187.5670  177.8170  147.2380 C   0  0  0  0  0  0  0  0  0  0  0  0
  187.8160  178.2530  139.6820 C   0  0  0  0  0  3  0  0  0  0  0  0
  190.2260  176.9080  139.9520 C   0  0  0  0  0  3  0  0  0  0  0  0
  189.5930  177.4780  141.0590 C   0  0  0  0  0  0  0  0  0  0  0  0
  188.4070  178.1310  140.9010 N   0  0  0  0  0  0  0  0  0  0  0  0
  189.6380  177.0260  138.6900 C   0  0  0  0  0  0  0  0  0  0  0  0
  188.4220  177.6990  138.5510 C   0  0  0  0  0  3  0  0  0  0  0  0
  190.2890  176.4080  137.5020 C   0  0  0  0  0  2  0  0  0  0  0  0
  191.4380  175.5200  137.9380 C   0  0  0  0  0  2  0  0  0  0  0  0
  191.3500  174.1920  137.2180 C   0  0  0  0  0  1  0  0  0  0  0  0
  1  5  1  0  0  0  0
  1  6  1  0  0  0  0
  2  3  1  0  0  0  0
  2 12  1  1  0  0  0
  4  1  2  0  0  0  0
  5 19  1  6  0  0  0
  5  2  1  0  0  0  0
  6  3  1  0  0  0  0
 10 11  1  0  0  0  0
 11 16  1  0  0  0  0
 11  8  1  1  0  0  0
 12 10  2  0  0  0  0
 13 12  1  0  0  0  0
 13 15  2  0  0  0  0
 14  9  1  0  0  0  0
 14 16  2  0  0  0  0
 15 14  1  0  0  0  0
 16  7  1  0  0  0  0
 17 20  1  0  0  0  0
 18 19  1  0  0  0  0
 20 19  2  0  0  0  0
 21 18  2  0  0  0  0
 22 21  1  0  0  0  0
 22 17  2  0  0  0  0
 23 24  1  0  0  0  0
 23 21  1  0  0  0  0
 25 24  1  0  0  0  0
M  END
>  <MODEL>
7

>  <REMARK>
 VINA RESULT:      -8.1      1.950      2.632
  Name = 
  4 active torsions:
  status: ('A' for Active; 'I' for Inactive)
    1  A    between atoms: C_4  and  C_14
    2  A    between atoms: C_6  and  C_24
    3  A    between atoms: C_7  and  C_17
    4  A    between atoms: C_21  and  C_24
                            x       y       z     vdW  Elec       q    Type
                         _______ _______ _______ _____ _____    ______ ____

>  <TORSDO>
F 4

$$$$
=
 OpenBabel11042411193D

 25 27  0  0  1  0  0  0  0  0999 V2000
  185.8540  178.9390  141.5920 C   0  0  0  0  0  0  0  0  0  0  0  0
  187.2880  177.5050  142.7730 C   0  0  1  0  0  3  0  0  0  0  0  0
  185.8260  177.2790  143.1920 C   0  0  0  0  0  2  0  0  0  0  0  0
  185.3930  179.8190  140.8180 O   0  0  0  0  0  0  0  0  0  0  0  0
  187.2970  178.6720  141.7790 C   0  0  1  0  0  3  0  0  0  0  0  0
  185.0530  178.1440  142.3800 O   0  0  0  0  0  0  0  0  0  0  0  0
  189.5870  176.3200  147.7490 O   0  0  0  0  0  1  0  0  0  0  0  0
  187.4700  177.9320  147.5020 O   0  0  0  0  0  1  0  0  0  0  0  0
  191.8200  176.3990  146.1020 C   0  0  0  0  0  1  0  0  0  0  0  0
  187.6190  177.6770  145.1640 C   0  0  0  0  0  3  0  0  0  0  0  0
  188.3450  178.0250  146.4190 C   0  0  2  0  0  3  0  0  0  0  0  0
  188.1630  177.7900  143.9510 C   0  0  0  0  0  0  0  0  0  0  0  0
  189.5630  178.2250  143.7320 C   0  0  0  0  0  3  0  0  0  0  0  0
  190.5840  177.1670  145.7760 C   0  0  0  0  0  0  0  0  0  0  0  0
  190.6080  177.9570  144.5260 C   0  0  0  0  0  3  0  0  0  0  0  0
  189.5420  177.1440  146.6260 C   0  0  0  0  0  0  0  0  0  0  0  0
  187.8790  177.9630  138.1430 C   0  0  0  0  0  3  0  0  0  0  0  0
  189.2640  177.7690  140.5380 C   0  0  0  0  0  3  0  0  0  0  0  0
  187.9590  178.2650  140.5010 C   0  0  0  0  0  0  0  0  0  0  0  0
  187.2980  178.3480  139.3110 N   0  0  0  0  0  0  0  0  0  0  0  0
  189.8810  177.3730  139.3480 C   0  0  0  0  0  0  0  0  0  0  0  0
  189.1840  177.4660  138.1410 C   0  0  0  0  0  3  0  0  0  0  0  0
  191.2650  176.8250  139.3710 C   0  0  0  0  0  2  0  0  0  0  0  0
  191.5810  176.1480  138.0510 C   0  0  0  0  0  2  0  0  0  0  0  0
  193.0090  176.4550  137.6550 C   0  0  0  0  0  1  0  0  0  0  0  0
  1  5  1  0  0  0  0
  1  6  1  0  0  0  0
  2  3  1  0  0  0  0
  2 12  1  1  0  0  0
  4  1  2  0  0  0  0
  5 19  1  6  0  0  0
  5  2  1  0  0  0  0
  6  3  1  0  0  0  0
 10 11  1  0  0  0  0
 11 16  1  0  0  0  0
 11  8  1  1  0  0  0
 12 10  2  0  0  0  0
 13 12  1  0  0  0  0
 13 15  2  0  0  0  0
 14  9  1  0  0  0  0
 14 16  2  0  0  0  0
 15 14  1  0  0  0  0
 16  7  1  0  0  0  0
 17 20  1  0  0  0  0
 19 18  1  0  0  0  0
 20 19  2  0  0  0  0
 21 23  1  0  0  0  0
 21 18  2  0  0  0  0
 22 17  2  0  0  0  0
 22 21  1  0  0  0  0
 24 23  1  0  0  0  0
 25 24  1  0  0  0  0
M  END
>  <MODEL>
8

>  <REMARK>
 VINA RESULT:      -7.8      2.529      4.663
  Name = 
  4 active torsions:
  status: ('A' for Active; 'I' for Inactive)
    1  A    between atoms: C_4  and  C_14
    2  A    between atoms: C_6  and  C_24
    3  A    between atoms: C_7  and  C_17
    4  A    between atoms: C_21  and  C_24
                            x       y       z     vdW  Elec       q    Type
                         _______ _______ _______ _____ _____    ______ ____

>  <TORSDO>
F 4

$$$$
=
 OpenBabel11042411193D

 25 27  0  0  1  0  0  0  0  0999 V2000
  185.9240  178.5690  146.1750 C   0  0  0  0  0  0  0  0  0  0  0  0
  186.8260  177.5280  144.2760 C   0  0  1  0  0  3  0  0  0  0  0  0
  187.2290  176.7720  145.5530 C   0  0  0  0  0  2  0  0  0  0  0  0
  185.3140  179.3520  146.9500 O   0  0  0  0  0  0  0  0  0  0  0  0
  186.0380  178.7670  144.7140 C   0  0  1  0  0  3  0  0  0  0  0  0
  186.5840  177.4460  146.6190 O   0  0  0  0  0  0  0  0  0  0  0  0
  192.0320  176.8050  142.3210 O   0  0  0  0  0  1  0  0  0  0  0  0
  191.4840  178.4640  144.3440 O   0  0  0  0  0  1  0  0  0  0  0  0
  190.5270  176.6150  139.9970 C   0  0  0  0  0  1  0  0  0  0  0  0
  189.2000  177.9470  144.0740 C   0  0  0  0  0  3  0  0  0  0  0  0
  190.4530  178.4020  143.4050 C   0  0  2  0  0  3  0  0  0  0  0  0
  188.0190  177.9050  143.4570 C   0  0  0  0  0  0  0  0  0  0  0  0
  187.8400  178.2570  142.0280 C   0  0  0  0  0  3  0  0  0  0  0  0
  190.0450  177.3910  141.1750 C   0  0  0  0  0  0  0  0  0  0  0  0
  188.7220  178.0370  141.0440 C   0  0  0  0  0  3  0  0  0  0  0  0
  190.8270  177.5020  142.2630 C   0  0  0  0  0  0  0  0  0  0  0  0
  182.3310  178.9830  144.1910 C   0  0  0  0  0  3  0  0  0  0  0  0
  184.6190  178.6150  142.6670 C   0  0  0  0  0  3  0  0  0  0  0  0
  184.6980  178.7970  144.0500 C   0  0  0  0  0  0  0  0  0  0  0  0
  183.5580  178.9730  144.7770 N   0  0  0  0  0  0  0  0  0  0  0  0
  183.3690  178.6270  142.0450 C   0  0  0  0  0  0  0  0  0  0  0  0
  182.2140  178.8080  142.8090 C   0  0  0  0  0  3  0  0  0  0  0  0
  183.2640  178.4160  140.5740 C   0  0  0  0  0  2  0  0  0  0  0  0
  184.1810  179.3770  139.8420 C   0  0  0  0  0  2  0  0  0  0  0  0
  185.1120  178.5970  138.9390 C   0  0  0  0  0  1  0  0  0  0  0  0
  1  6  1  0  0  0  0
  1  4  2  0  0  0  0
  2 12  1  1  0  0  0
  2  5  1  0  0  0  0
  2  3  1  0  0  0  0
  3  6  1  0  0  0  0
  5 19  1  6  0  0  0
  5  1  1  0  0  0  0
  9 14  1  0  0  0  0
 11 10  1  0  0  0  0
 11  8  1  1  0  0  0
 12 10  2  0  0  0  0
 13 12  1  0  0  0  0
 14 16  2  0  0  0  0
 15 14  1  0  0  0  0
 15 13  2  0  0  0  0
 16  7  1  0  0  0  0
 16 11  1  0  0  0  0
 17 20  1  0  0  0  0
 18 19  1  0  0  0  0
 19 20  2  0  0  0  0
 21 18  2  0  0  0  0
 21 22  1  0  0  0  0
 22 17  2  0  0  0  0
 23 21  1  0  0  0  0
 24 23  1  0  0  0  0
 25 24  1  0  0  0  0
M  END
>  <MODEL>
9

>  <REMARK>
 VINA RESULT:      -7.8      2.866      6.307
  Name = 
  4 active torsions:
  status: ('A' for Active; 'I' for Inactive)
    1  A    between atoms: C_4  and  C_14
    2  A    between atoms: C_6  and  C_24
    3  A    between atoms: C_7  and  C_17
    4  A    between atoms: C_21  and  C_24
                            x       y       z     vdW  Elec       q    Type
                         _______ _______ _______ _____ _____    ______ ____

>  <TORSDO>
F 4

$$$$
