=
 OpenBabel11042411053D

 39 43  0  0  1  0  0  0  0  0999 V2000
  191.3340  176.3150  136.0290 O   0  0  0  0  0  0  0  0  0  0  0  0
  189.0630  176.3700  136.5070 N   0  0  0  0  0  0  0  0  0  0  0  0
  189.9510  177.3150  139.2630 C   0  0  1  0  0  3  0  0  0  0  0  0
  190.1910  176.4330  140.4370 C   0  0  0  0  0  2  0  0  0  0  0  0
  187.8530  178.2210  140.2510 C   0  0  0  0  0  3  0  0  0  0  0  0
  185.5250  177.4350  137.3470 C   0  0  0  0  0  3  0  0  0  0  0  0
  190.8240  177.1250  138.1440 N   0  0  0  0  0  2  0  0  0  0  0  0
  190.4370  176.6140  136.8520 C   0  0  0  0  0  0  0  0  0  0  0  0
  188.3100  178.4070  137.7920 C   0  0  0  0  0  2  0  0  0  0  0  0
  190.3360  177.1970  141.7100 C   0  0  0  0  0  3  0  0  0  0  0  0
  186.2710  175.4830  136.3230 C   0  0  0  0  0  3  0  0  0  0  0  0
  189.3910  177.9880  142.2280 C   0  0  0  0  0  0  0  0  0  0  0  0
  184.9890  175.4080  136.4490 N   0  0  0  0  0  0  0  0  0  0  0  0
  187.9880  177.1570  137.0250 C   0  0  0  0  0  0  0  0  0  0  0  0
  188.7990  177.9980  139.1440 C   0  0  2  0  0  3  0  0  0  0  0  0
  184.5240  176.6080  137.0780 C   0  0  0  0  0  2  0  0  0  0  0  0
  188.0660  178.2250  141.5780 C   0  0  0  0  0  0  0  0  0  0  0  0
  186.7230  176.7490  136.8840 C   0  0  0  0  0  0  0  0  0  0  0  0
  185.6810  178.8950  141.7860 C   0  0  0  0  0  0  0  0  0  0  0  0
  186.9520  178.6230  142.3810 N   0  0  0  0  0  2  0  0  0  0  0  0
  185.6100  179.5180  140.6870 O   0  0  0  0  0  0  0  0  0  0  0  0
  183.7940  179.1030  143.2950 C   0  0  0  0  0  3  0  0  0  0  0  0
  184.4630  178.3660  142.4080 C   0  0  0  0  0  3  0  0  0  0  0  0
  182.4540  178.6920  143.8350 C   0  0  0  0  0  2  0  0  0  0  0  0
  180.1560  178.1240  142.8830 C   0  0  1  0  0  3  0  0  0  0  0  0
  180.7570  180.4020  143.2200 N   0  0  0  0  0  2  0  0  0  0  0  0
  178.9760  178.9690  142.4820 C   0  0  0  0  0  2  0  0  0  0  0  0
  181.3190  179.1010  142.8910 C   0  0  1  0  0  3  0  0  0  0  0  0
  179.4650  180.4020  142.5460 C   0  0  0  0  0  2  0  0  0  0  0  0
  179.9200  177.6020  144.1580 O   0  0  0  0  0  1  0  0  0  0  0  0
  189.5830  178.4560  143.6400 C   0  0  0  0  0  2  0  0  0  0  0  0
  189.8900  177.3300  144.6420 C   0  0  0  0  0  2  0  0  0  0  0  0
  189.3140  177.0070  147.1690 C   0  0  0  0  0  2  0  0  0  0  0  0
  186.4440  177.5220  146.4530 C   0  0  0  0  0  2  0  0  0  0  0  0
  187.5880  177.9970  148.5670 N   0  0  0  0  0  2  0  0  0  0  0  0
  188.9510  178.1760  148.0830 C   0  0  0  0  0  2  0  0  0  0  0  0
  188.8780  177.2760  145.7530 C   0  0  0  0  0  0  0  0  0  0  0  0
  186.6730  178.5430  147.5740 C   0  0  0  0  0  2  0  0  0  0  0  0
  187.5850  177.5100  145.4440 C   0  0  0  0  0  3  0  0  0  0  0  0
  1  8  2  0  0  0  0
  2  8  1  0  0  0  0
  2 14  2  0  0  0  0
  3  4  1  6  0  0  0
  4 10  1  0  0  0  0
  5 17  2  0  0  0  0
  7  3  1  0  0  0  0
  8  7  1  0  0  0  0
 10 12  2  0  0  0  0
 11 13  2  0  0  0  0
 11 18  1  0  0  0  0
 12 31  1  0  0  0  0
 13 16  1  0  0  0  0
 14  9  1  0  0  0  0
 15  9  1  6  0  0  0
 15  3  1  0  0  0  0
 15  5  1  0  0  0  0
 16  6  1  0  0  0  0
 17 12  1  0  0  0  0
 17 20  1  0  0  0  0
 18 14  1  0  0  0  0
 18  6  2  0  0  0  0
 19 20  1  0  0  0  0
 19 23  1  0  0  0  0
 21 19  2  0  0  0  0
 22 24  1  0  0  0  0
 23 22  2  0  0  0  0
 25 28  1  0  0  0  0
 25 30  1  1  0  0  0
 27 29  1  0  0  0  0
 27 25  1  0  0  0  0
 28 26  1  0  0  0  0
 28 24  1  1  0  0  0
 29 26  1  0  0  0  0
 31 32  1  0  0  0  0
 32 37  1  0  0  0  0
 33 36  1  0  0  0  0
 34 38  1  0  0  0  0
 36 35  1  0  0  0  0
 37 33  1  0  0  0  0
 38 35  1  0  0  0  0
 39 37  2  0  0  0  0
 39 34  1  0  0  0  0
M  END
>  <MODEL>
1

>  <REMARK>
 VINA RESULT:     -10.1      0.000      0.000
  Name = 
  7 active torsions:
  status: ('A' for Active; 'I' for Inactive)
    1  A    between atoms: C_11  and  C_23
    2  A    between atoms: C_11  and  C_35
    3  A    between atoms: C_12  and  C_28
    4  A    between atoms: C_12  and  C_30
    5  A    between atoms: C_17  and  C_37
    6  A    between atoms: N_18  and  C_32
    7  A    between atoms: C_22  and  C_35
                            x       y       z     vdW  Elec       q    Type
                         _______ _______ _______ _____ _____    ______ ____

>  <TORSDO>
F 7

$$$$
=
 OpenBabel11042411053D

 39 43  0  0  1  0  0  0  0  0999 V2000
  178.9580  179.8340  144.0650 O   0  0  0  0  0  0  0  0  0  0  0  0
  180.0200  180.0740  142.0160 N   0  0  0  0  0  2  0  0  0  0  0  0
  182.4190  178.8400  143.4290 C   0  0  1  0  0  3  0  0  0  0  0  0
  183.5080  179.6020  144.0970 C   0  0  0  0  0  2  0  0  0  0  0  0
  183.9070  178.1820  141.5440 C   0  0  0  0  0  3  0  0  0  0  0  0
  181.7440  179.4750  138.6950 C   0  0  0  0  0  3  0  0  0  0  0  0
  181.1140  178.9730  144.0010 N   0  0  0  0  0  2  0  0  0  0  0  0
  179.9830  179.6140  143.3770 C   0  0  0  0  0  0  0  0  0  0  0  0
  181.4120  178.0880  141.3150 C   0  0  0  0  0  2  0  0  0  0  0  0
  184.6790  178.7460  144.4470 C   0  0  0  0  0  3  0  0  0  0  0  0
  180.6040  181.3610  139.4430 C   0  0  0  0  0  3  0  0  0  0  0  0
  185.4110  178.0680  143.5570 C   0  0  0  0  0  0  0  0  0  0  0  0
  181.0670  181.6100  138.2650 N   0  0  0  0  0  0  0  0  0  0  0  0
  180.7870  179.4180  141.0030 C   0  0  0  0  0  0  0  0  0  0  0  0
  182.5940  178.3380  142.1940 C   0  0  2  0  0  3  0  0  0  0  0  0
  181.7690  180.4520  137.7980 C   0  0  0  0  0  3  0  0  0  0  0  0
  185.1300  178.0650  142.0890 C   0  0  0  0  0  0  0  0  0  0  0  0
  180.9960  180.0110  139.8230 C   0  0  0  0  0  0  0  0  0  0  0  0
  187.3730  178.5810  141.1500 C   0  0  0  0  0  0  0  0  0  0  0  0
  186.1900  177.7800  141.1730 N   0  0  0  0  0  2  0  0  0  0  0  0
  187.2960  179.8380  141.2770 O   0  0  0  0  0  0  0  0  0  0  0  0
  189.3050  177.8180  139.9000 C   0  0  0  0  0  3  0  0  0  0  0  0
  188.6850  177.9310  141.0750 C   0  0  0  0  0  3  0  0  0  0  0  0
  190.7180  177.3210  139.7810 C   0  0  0  0  0  2  0  0  0  0  0  0
  192.3680  176.7620  137.9160 C   0  0  1  0  0  3  0  0  0  0  0  0
  190.6940  175.1790  138.5170 N   0  0  0  0  0  2  0  0  0  0  0  0
  192.5660  175.5430  137.0570 C   0  0  0  0  0  2  0  0  0  0  0  0
  190.9520  176.6100  138.4440 C   0  0  1  0  0  3  0  0  0  0  0  0
  191.3820  174.6440  137.3500 C   0  0  0  0  0  2  0  0  0  0  0  0
  193.3040  176.7360  138.9540 O   0  0  0  0  0  1  0  0  0  0  0  0
  186.7090  177.4890  144.0330 C   0  0  0  0  0  2  0  0  0  0  0  0
  187.0290  177.7850  145.5090 C   0  0  0  0  0  2  0  0  0  0  0  0
  189.0500  177.8490  147.1620 C   0  0  0  0  0  2  0  0  0  0  0  0
  190.8490  177.9830  144.7610 C   0  0  0  0  0  2  0  0  0  0  0  0
  191.3240  177.0100  146.9590 N   0  0  0  0  0  2  0  0  0  0  0  0
  189.9740  176.6520  147.3740 C   0  0  0  0  0  2  0  0  0  0  0  0
  188.5090  177.8680  145.7560 C   0  0  0  0  0  0  0  0  0  0  0  0
  191.4360  176.7890  145.5240 C   0  0  0  0  0  2  0  0  0  0  0  0
  189.3290  177.9250  144.6850 C   0  0  0  0  0  3  0  0  0  0  0  0
  2  8  1  0  0  0  0
  3  7  1  0  0  0  0
  3  4  1  6  0  0  0
  4 10  1  0  0  0  0
  5 17  2  0  0  0  0
  5 15  1  0  0  0  0
  6 18  1  0  0  0  0
  8  7  1  0  0  0  0
  8  1  2  0  0  0  0
 11 18  1  0  0  0  0
 12 31  1  0  0  0  0
 12 10  2  0  0  0  0
 13 11  2  0  0  0  0
 14  9  1  0  0  0  0
 14  2  1  0  0  0  0
 15  9  1  6  0  0  0
 15  3  1  0  0  0  0
 16 13  1  0  0  0  0
 16  6  2  0  0  0  0
 17 12  1  0  0  0  0
 18 14  2  0  0  0  0
 19 20  1  0  0  0  0
 19 21  2  0  0  0  0
 20 17  1  0  0  0  0
 22 23  2  0  0  0  0
 23 19  1  0  0  0  0
 24 22  1  0  0  0  0
 25 28  1  0  0  0  0
 25 30  1  1  0  0  0
 27 29  1  0  0  0  0
 27 25  1  0  0  0  0
 28 26  1  0  0  0  0
 28 24  1  1  0  0  0
 29 26  1  0  0  0  0
 31 32  1  0  0  0  0
 32 37  1  0  0  0  0
 33 36  1  0  0  0  0
 34 38  1  0  0  0  0
 35 36  1  0  0  0  0
 37 33  1  0  0  0  0
 38 35  1  0  0  0  0
 39 34  1  0  0  0  0
 39 37  2  0  0  0  0
M  END
>  <MODEL>
2

>  <REMARK>
 VINA RESULT:      -9.4      2.369      8.201
  Name = 
  7 active torsions:
  status: ('A' for Active; 'I' for Inactive)
    1  A    between atoms: C_11  and  C_23
    2  A    between atoms: C_11  and  C_35
    3  A    between atoms: C_12  and  C_28
    4  A    between atoms: C_12  and  C_30
    5  A    between atoms: C_17  and  C_37
    6  A    between atoms: N_18  and  C_32
    7  A    between atoms: C_22  and  C_35
                            x       y       z     vdW  Elec       q    Type
                         _______ _______ _______ _____ _____    ______ ____

>  <TORSDO>
F 7

$$$$
=
 OpenBabel11042411053D

 39 43  0  0  1  0  0  0  0  0999 V2000
  191.7330  176.4150  136.0370 O   0  0  0  0  0  0  0  0  0  0  0  0
  189.4610  176.2180  136.4680 N   0  0  0  0  0  0  0  0  0  0  0  0
  190.1750  177.2910  139.2270 C   0  0  1  0  0  3  0  0  0  0  0  0
  190.4870  176.4570  140.4190 C   0  0  0  0  0  2  0  0  0  0  0  0
  187.9670  177.9660  140.1590 C   0  0  0  0  0  3  0  0  0  0  0  0
  185.8070  176.8860  137.2200 C   0  0  0  0  0  3  0  0  0  0  0  0
  191.0890  177.1880  138.1300 N   0  0  0  0  0  2  0  0  0  0  0  0
  190.7900  176.6210  136.8380 C   0  0  0  0  0  0  0  0  0  0  0  0
  188.4540  178.1730  137.7080 C   0  0  0  0  0  2  0  0  0  0  0  0
  190.5170  177.2480  141.6830 C   0  0  0  0  0  3  0  0  0  0  0  0
  186.7920  175.0180  136.2400 C   0  0  0  0  0  3  0  0  0  0  0  0
  189.4770  177.9320  142.1700 C   0  0  0  0  0  0  0  0  0  0  0  0
  185.5240  174.8000  136.3400 N   0  0  0  0  0  0  0  0  0  0  0  0
  188.2930  176.8850  136.9530 C   0  0  0  0  0  0  0  0  0  0  0  0
  188.9560  177.8370  139.0750 C   0  0  2  0  0  3  0  0  0  0  0  0
  184.9120  175.9470  136.9420 C   0  0  0  0  0  2  0  0  0  0  0  0
  188.1490  178.0090  141.4900 C   0  0  0  0  0  0  0  0  0  0  0  0
  187.0850  176.3340  136.7910 C   0  0  0  0  0  0  0  0  0  0  0  0
  185.8050  178.8220  141.6490 C   0  0  0  0  0  0  0  0  0  0  0  0
  186.9790  178.2880  142.2640 N   0  0  0  0  0  2  0  0  0  0  0  0
  185.9000  179.7130  140.7540 O   0  0  0  0  0  0  0  0  0  0  0  0
  183.3960  178.7260  141.3880 C   0  0  0  0  0  3  0  0  0  0  0  0
  184.4920  178.2670  141.9920 C   0  0  0  0  0  3  0  0  0  0  0  0
  182.0490  178.0840  141.5690 C   0  0  0  0  0  2  0  0  0  0  0  0
  182.0120  177.1080  139.2110 C   0  0  1  0  0  3  0  0  0  0  0  0
  179.9660  177.4090  140.3910 N   0  0  0  0  0  2  0  0  0  0  0  0
  180.9010  176.6020  138.3310 C   0  0  0  0  0  2  0  0  0  0  0  0
  181.2990  177.9720  140.2370 C   0  0  1  0  0  3  0  0  0  0  0  0
  179.6160  176.9740  139.0450 C   0  0  0  0  0  2  0  0  0  0  0  0
  182.6380  176.0140  139.8140 O   0  0  0  0  0  1  0  0  0  0  0  0
  189.5840  178.4360  143.5790 C   0  0  0  0  0  2  0  0  0  0  0  0
  189.9890  177.3620  144.6040 C   0  0  0  0  0  2  0  0  0  0  0  0
  189.4590  176.8540  147.1100 C   0  0  0  0  0  2  0  0  0  0  0  0
  186.6060  177.5870  146.5270 C   0  0  0  0  0  2  0  0  0  0  0  0
  187.8280  177.8130  148.6390 N   0  0  0  0  0  2  0  0  0  0  0  0
  189.1870  177.9570  148.1310 C   0  0  0  0  0  2  0  0  0  0  0  0
  189.0040  177.2690  145.7360 C   0  0  0  0  0  0  0  0  0  0  0  0
  186.9220  178.4930  147.7240 C   0  0  0  0  0  2  0  0  0  0  0  0
  187.7190  177.6000  145.4870 C   0  0  0  0  0  3  0  0  0  0  0  0
  1  8  2  0  0  0  0
  2  8  1  0  0  0  0
  2 14  2  0  0  0  0
  3  4  1  6  0  0  0
  4 10  1  0  0  0  0
  5 17  2  0  0  0  0
  7  3  1  0  0  0  0
  8  7  1  0  0  0  0
 10 12  2  0  0  0  0
 11 13  2  0  0  0  0
 11 18  1  0  0  0  0
 12 31  1  0  0  0  0
 13 16  1  0  0  0  0
 14  9  1  0  0  0  0
 15  9  1  6  0  0  0
 15  3  1  0  0  0  0
 15  5  1  0  0  0  0
 16  6  1  0  0  0  0
 17 12  1  0  0  0  0
 17 20  1  0  0  0  0
 18 14  1  0  0  0  0
 18  6  2  0  0  0  0
 19 23  1  0  0  0  0
 19 20  1  0  0  0  0
 21 19  2  0  0  0  0
 22 24  1  0  0  0  0
 22 23  2  0  0  0  0
 25 30  1  1  0  0  0
 25 28  1  0  0  0  0
 27 29  1  0  0  0  0
 27 25  1  0  0  0  0
 28 26  1  0  0  0  0
 28 24  1  1  0  0  0
 29 26  1  0  0  0  0
 31 32  1  0  0  0  0
 32 37  1  0  0  0  0
 33 36  1  0  0  0  0
 34 38  1  0  0  0  0
 36 35  1  0  0  0  0
 37 33  1  0  0  0  0
 38 35  1  0  0  0  0
 39 37  2  0  0  0  0
 39 34  1  0  0  0  0
M  END
>  <MODEL>
3

>  <REMARK>
 VINA RESULT:      -9.1      1.601      1.877
  Name = 
  7 active torsions:
  status: ('A' for Active; 'I' for Inactive)
    1  A    between atoms: C_11  and  C_23
    2  A    between atoms: C_11  and  C_35
    3  A    between atoms: C_12  and  C_28
    4  A    between atoms: C_12  and  C_30
    5  A    between atoms: C_17  and  C_37
    6  A    between atoms: N_18  and  C_32
    7  A    between atoms: C_22  and  C_35
                            x       y       z     vdW  Elec       q    Type
                         _______ _______ _______ _____ _____    ______ ____

>  <TORSDO>
F 7

$$$$
=
 OpenBabel11042411053D

 39 43  0  0  1  0  0  0  0  0999 V2000
  189.4540  176.6810  147.3570 O   0  0  0  0  0  0  0  0  0  0  0  0
  187.9170  177.5170  145.8320 N   0  0  0  0  0  2  0  0  0  0  0  0
  190.1700  177.2000  143.8080 C   0  0  1  0  0  3  0  0  0  0  0  0
  191.1420  178.2620  143.4310 C   0  0  0  0  0  2  0  0  0  0  0  0
  188.9920  177.3670  141.6210 C   0  0  0  0  0  3  0  0  0  0  0  0
  185.4840  177.9690  142.9620 C   0  0  0  0  0  3  0  0  0  0  0  0
  190.2240  176.7510  145.1670 N   0  0  0  0  0  2  0  0  0  0  0  0
  189.1970  176.9510  146.1590 C   0  0  0  0  0  0  0  0  0  0  0  0
  187.8820  176.3190  143.6110 C   0  0  0  0  0  2  0  0  0  0  0  0
  191.9400  177.9080  142.2210 C   0  0  0  0  0  3  0  0  0  0  0  0
  185.6590  179.1710  144.9470 C   0  0  0  0  0  3  0  0  0  0  0  0
  191.4160  177.6630  141.0160 C   0  0  0  0  0  0  0  0  0  0  0  0
  184.7150  179.6940  144.2400 N   0  0  0  0  0  0  0  0  0  0  0  0
  187.2890  177.3170  144.5630 C   0  0  0  0  0  0  0  0  0  0  0  0
  189.1140  176.9290  143.0220 C   0  0  2  0  0  3  0  0  0  0  0  0
  184.6020  178.9580  143.0170 C   0  0  0  0  0  3  0  0  0  0  0  0
  189.9480  177.6900  140.7340 C   0  0  0  0  0  0  0  0  0  0  0  0
  186.2320  178.0550  144.2080 C   0  0  0  0  0  0  0  0  0  0  0  0
  189.0310  176.8650  138.5760 C   0  0  0  0  0  0  0  0  0  0  0  0
  189.4950  177.9360  139.4000 N   0  0  0  0  0  2  0  0  0  0  0  0
  189.6260  175.7480  138.5840 O   0  0  0  0  0  0  0  0  0  0  0  0
  186.7760  177.7130  138.2990 C   0  0  0  0  0  3  0  0  0  0  0  0
  187.8050  177.0360  137.7900 C   0  0  0  0  0  3  0  0  0  0  0  0
  185.5640  178.0690  137.4850 C   0  0  0  0  0  2  0  0  0  0  0  0
  184.0790  178.8400  139.4110 C   0  0  1  0  0  3  0  0  0  0  0  0
  183.0810  177.9420  137.4450 N   0  0  0  0  0  2  0  0  0  0  0  0
  182.5860  178.8950  139.5940 C   0  0  0  0  0  2  0  0  0  0  0  0
  184.2710  177.8480  138.2770 C   0  0  1  0  0  3  0  0  0  0  0  0
  182.0050  178.1580  138.4030 C   0  0  0  0  0  2  0  0  0  0  0  0
  184.5340  180.1130  139.0570 O   0  0  0  0  0  1  0  0  0  0  0  0
  192.3620  177.6000  139.8540 C   0  0  0  0  0  2  0  0  0  0  0  0
  193.2820  176.3670  139.8550 C   0  0  0  0  0  2  0  0  0  0  0  0
  194.6830  174.8870  138.2220 C   0  0  0  0  0  2  0  0  0  0  0  0
  193.0220  176.0030  135.9830 C   0  0  0  0  0  2  0  0  0  0  0  0
  194.0970  173.8060  136.1230 N   0  0  0  0  0  2  0  0  0  0  0  0
  194.1180  173.6260  137.5700 C   0  0  0  0  0  2  0  0  0  0  0  0
  193.5950  175.9010  138.4610 C   0  0  0  0  0  0  0  0  0  0  0  0
  192.8640  174.4930  135.7650 C   0  0  0  0  0  2  0  0  0  0  0  0
  192.8540  176.3930  137.4460 C   0  0  0  0  0  3  0  0  0  0  0  0
  2  8  1  0  0  0  0
  3  4  1  1  0  0  0
  3  7  1  0  0  0  0
  6 16  2  0  0  0  0
  6 18  1  0  0  0  0
  7  8  1  0  0  0  0
  8  1  2  0  0  0  0
  9 14  1  0  0  0  0
 10  4  1  0  0  0  0
 12 10  2  0  0  0  0
 13 11  2  0  0  0  0
 14  2  1  0  0  0  0
 15  5  1  1  0  0  0
 15  9  1  0  0  0  0
 15  3  1  0  0  0  0
 16 13  1  0  0  0  0
 17 12  1  0  0  0  0
 17  5  2  0  0  0  0
 18 14  2  0  0  0  0
 18 11  1  0  0  0  0
 19 21  2  0  0  0  0
 19 20  1  0  0  0  0
 20 17  1  0  0  0  0
 23 22  2  0  0  0  0
 23 19  1  0  0  0  0
 24 22  1  0  0  0  0
 25 30  1  6  0  0  0
 25 27  1  0  0  0  0
 26 28  1  0  0  0  0
 26 29  1  0  0  0  0
 28 24  1  6  0  0  0
 28 25  1  0  0  0  0
 29 27  1  0  0  0  0
 31 32  1  0  0  0  0
 31 12  1  0  0  0  0
 33 37  1  0  0  0  0
 34 39  1  0  0  0  0
 35 36  1  0  0  0  0
 36 33  1  0  0  0  0
 37 32  1  0  0  0  0
 38 34  1  0  0  0  0
 38 35  1  0  0  0  0
 39 37  2  0  0  0  0
M  END
>  <MODEL>
4

>  <REMARK>
 VINA RESULT:      -8.9      2.903      7.658
  Name = 
  7 active torsions:
  status: ('A' for Active; 'I' for Inactive)
    1  A    between atoms: C_11  and  C_23
    2  A    between atoms: C_11  and  C_35
    3  A    between atoms: C_12  and  C_28
    4  A    between atoms: C_12  and  C_30
    5  A    between atoms: C_17  and  C_37
    6  A    between atoms: N_18  and  C_32
    7  A    between atoms: C_22  and  C_35
                            x       y       z     vdW  Elec       q    Type
                         _______ _______ _______ _____ _____    ______ ____

>  <TORSDO>
F 7

$$$$
=
 OpenBabel11042411053D

 39 43  0  0  1  0  0  0  0  0999 V2000
  179.3130  177.5260  136.0470 O   0  0  0  0  0  0  0  0  0  0  0  0
  179.6460  177.9490  138.3040 N   0  0  0  0  0  0  0  0  0  0  0  0
  182.5950  178.0920  137.5580 C   0  0  1  0  0  3  0  0  0  0  0  0
  183.5520  176.9540  137.6170 C   0  0  0  0  0  2  0  0  0  0  0  0
  183.6260  179.1860  139.5430 C   0  0  0  0  0  3  0  0  0  0  0  0
  180.4770  179.5260  141.6490 C   0  0  0  0  0  3  0  0  0  0  0  0
  181.5210  177.9630  136.6210 N   0  0  0  0  0  2  0  0  0  0  0  0
  180.1240  177.8260  136.9550 C   0  0  0  0  0  0  0  0  0  0  0  0
  181.3080  179.7840  138.7960 C   0  0  0  0  0  2  0  0  0  0  0  0
  184.9710  177.3880  137.4700 C   0  0  0  0  0  3  0  0  0  0  0  0
  179.0870  177.7190  141.1770 C   0  0  0  0  0  3  0  0  0  0  0  0
  185.5930  178.2300  138.3000 C   0  0  0  0  0  0  0  0  0  0  0  0
  179.1100  177.8880  142.4560 N   0  0  0  0  0  0  0  0  0  0  0  0
  180.2590  178.8160  139.2620 C   0  0  0  0  0  0  0  0  0  0  0  0
  182.5600  179.0080  138.5420 C   0  0  2  0  0  3  0  0  0  0  0  0
  179.9630  178.9990  142.7520 C   0  0  0  0  0  2  0  0  0  0  0  0
  184.9300  178.8680  139.4780 C   0  0  0  0  0  0  0  0  0  0  0  0
  179.9480  178.7180  140.5590 C   0  0  0  0  0  0  0  0  0  0  0  0
  185.6880  178.6320  141.8340 C   0  0  0  0  0  0  0  0  0  0  0  0
  185.7290  179.3110  140.5780 N   0  0  0  0  0  2  0  0  0  0  0  0
  184.5880  178.2130  142.2980 O   0  0  0  0  0  0  0  0  0  0  0  0
  186.9760  177.3730  143.4570 C   0  0  0  0  0  3  0  0  0  0  0  0
  186.9400  178.3390  142.5390 C   0  0  0  0  0  3  0  0  0  0  0  0
  188.2590  176.9100  144.0880 C   0  0  0  0  0  2  0  0  0  0  0  0
  190.2830  178.3910  144.5600 C   0  0  1  0  0  3  0  0  0  0  0  0
  190.3940  176.7700  142.8200 N   0  0  0  0  0  2  0  0  0  0  0  0
  191.6630  178.4580  143.9630 C   0  0  0  0  0  2  0  0  0  0  0  0
  189.4680  177.6550  143.5110 C   0  0  1  0  0  3  0  0  0  0  0  0
  191.6280  177.5410  142.7560 C   0  0  0  0  0  2  0  0  0  0  0  0
  190.3470  177.6690  145.7540 O   0  0  0  0  0  1  0  0  0  0  0  0
  187.0840  178.3420  138.1770 C   0  0  0  0  0  2  0  0  0  0  0  0
  187.6970  177.4400  137.0920 C   0  0  0  0  0  2  0  0  0  0  0  0
  188.9160  175.1340  137.2200 C   0  0  0  0  0  2  0  0  0  0  0  0
  190.8760  176.4150  139.1000 C   0  0  0  0  0  2  0  0  0  0  0  0
  191.2600  174.5660  137.5380 N   0  0  0  0  0  2  0  0  0  0  0  0
  190.2540  174.8740  136.5300 C   0  0  0  0  0  2  0  0  0  0  0  0
  188.7990  176.5760  137.6390 C   0  0  0  0  0  0  0  0  0  0  0  0
  191.8080  175.8200  138.0370 C   0  0  0  0  0  2  0  0  0  0  0  0
  189.6880  177.1410  138.4820 C   0  0  0  0  0  3  0  0  0  0  0  0
  1  8  2  0  0  0  0
  2 14  2  0  0  0  0
  3  4  1  1  0  0  0
  3 15  1  0  0  0  0
  6 16  1  0  0  0  0
  7  8  1  0  0  0  0
  7  3  1  0  0  0  0
  8  2  1  0  0  0  0
  9 14  1  0  0  0  0
 10  4  1  0  0  0  0
 10 12  2  0  0  0  0
 11 13  2  0  0  0  0
 12 17  1  0  0  0  0
 13 16  1  0  0  0  0
 14 18  1  0  0  0  0
 15  9  1  1  0  0  0
 15  5  1  0  0  0  0
 17  5  2  0  0  0  0
 17 20  1  0  0  0  0
 18 11  1  0  0  0  0
 18  6  2  0  0  0  0
 19 21  2  0  0  0  0
 19 23  1  0  0  0  0
 20 19  1  0  0  0  0
 22 24  1  0  0  0  0
 23 22  2  0  0  0  0
 25 30  1  1  0  0  0
 26 28  1  0  0  0  0
 27 25  1  0  0  0  0
 28 24  1  1  0  0  0
 28 25  1  0  0  0  0
 29 26  1  0  0  0  0
 29 27  1  0  0  0  0
 31 12  1  0  0  0  0
 32 37  1  0  0  0  0
 32 31  1  0  0  0  0
 33 37  1  0  0  0  0
 35 38  1  0  0  0  0
 36 33  1  0  0  0  0
 36 35  1  0  0  0  0
 37 39  2  0  0  0  0
 38 34  1  0  0  0  0
 39 34  1  0  0  0  0
M  END
>  <MODEL>
5

>  <REMARK>
 VINA RESULT:      -8.7      2.966      8.376
  Name = 
  7 active torsions:
  status: ('A' for Active; 'I' for Inactive)
    1  A    between atoms: C_11  and  C_23
    2  A    between atoms: C_11  and  C_35
    3  A    between atoms: C_12  and  C_28
    4  A    between atoms: C_12  and  C_30
    5  A    between atoms: C_17  and  C_37
    6  A    between atoms: N_18  and  C_32
    7  A    between atoms: C_22  and  C_35
                            x       y       z     vdW  Elec       q    Type
                         _______ _______ _______ _____ _____    ______ ____

>  <TORSDO>
F 7

$$$$
=
 OpenBabel11042411053D

 39 43  0  0  1  0  0  0  0  0999 V2000
  179.0920  178.3890  144.0960 O   0  0  0  0  0  0  0  0  0  0  0  0
  179.9700  179.3870  142.1930 N   0  0  0  0  0  2  0  0  0  0  0  0
  182.6710  178.6590  143.3970 C   0  0  1  0  0  3  0  0  0  0  0  0
  183.4950  179.5490  144.2600 C   0  0  0  0  0  2  0  0  0  0  0  0
  184.2340  178.9180  141.4750 C   0  0  0  0  0  3  0  0  0  0  0  0
  181.6970  180.0880  138.8940 C   0  0  0  0  0  3  0  0  0  0  0  0
  181.4050  178.2600  143.9320 N   0  0  0  0  0  2  0  0  0  0  0  0
  180.1140  178.6490  143.4180 C   0  0  0  0  0  0  0  0  0  0  0  0
  181.8800  178.1230  141.1310 C   0  0  0  0  0  2  0  0  0  0  0  0
  184.8800  179.0340  144.4610 C   0  0  0  0  0  3  0  0  0  0  0  0
  180.0590  181.3250  139.9900 C   0  0  0  0  0  3  0  0  0  0  0  0
  185.7580  178.8240  143.4740 C   0  0  0  0  0  0  0  0  0  0  0  0
  180.3890  181.9560  138.9150 N   0  0  0  0  0  0  0  0  0  0  0  0
  180.8710  179.2350  141.0930 C   0  0  0  0  0  0  0  0  0  0  0  0
  182.9550  178.5200  142.0900 C   0  0  2  0  0  3  0  0  0  0  0  0
  181.3970  181.1990  138.2350 C   0  0  0  0  0  3  0  0  0  0  0  0
  185.4490  179.0600  142.0310 C   0  0  0  0  0  0  0  0  0  0  0  0
  180.8540  180.1080  140.0810 C   0  0  0  0  0  0  0  0  0  0  0  0
  187.3370  178.2570  140.6280 C   0  0  0  0  0  0  0  0  0  0  0  0
  186.5180  179.3200  141.1180 N   0  0  0  0  0  2  0  0  0  0  0  0
  187.7050  177.3240  141.4010 O   0  0  0  0  0  0  0  0  0  0  0  0
  186.7010  178.1330  138.2910 C   0  0  0  0  0  3  0  0  0  0  0  0
  187.6720  178.2000  139.2020 C   0  0  0  0  0  3  0  0  0  0  0  0
  186.9700  178.2450  136.8170 C   0  0  0  0  0  2  0  0  0  0  0  0
  188.1450  176.3760  135.5360 C   0  0  1  0  0  3  0  0  0  0  0  0
  186.3500  175.8440  137.0070 N   0  0  0  0  0  2  0  0  0  0  0  0
  187.9730  174.8810  135.5210 C   0  0  0  0  0  2  0  0  0  0  0  0
  186.8380  176.8880  136.1180 C   0  0  1  0  0  3  0  0  0  0  0  0
  186.7170  174.6100  136.3270 C   0  0  0  0  0  2  0  0  0  0  0  0
  189.2280  176.6930  136.3600 O   0  0  0  0  0  1  0  0  0  0  0  0
  187.1850  178.5770  143.8640 C   0  0  0  0  0  2  0  0  0  0  0  0
  187.3530  177.7760  145.1680 C   0  0  0  0  0  2  0  0  0  0  0  0
  189.0860  177.6210  147.1150 C   0  0  0  0  0  2  0  0  0  0  0  0
  191.2470  177.9080  145.0490 C   0  0  0  0  0  2  0  0  0  0  0  0
  191.3460  176.7240  147.1920 N   0  0  0  0  0  2  0  0  0  0  0  0
  189.9400  176.3770  147.3550 C   0  0  0  0  0  2  0  0  0  0  0  0
  188.7770  177.7850  145.6500 C   0  0  0  0  0  0  0  0  0  0  0  0
  191.6810  176.6300  145.7780 C   0  0  0  0  0  2  0  0  0  0  0  0
  189.7570  177.9100  144.7310 C   0  0  0  0  0  3  0  0  0  0  0  0
  2  8  1  0  0  0  0
  3  7  1  0  0  0  0
  3  4  1  6  0  0  0
  4 10  1  0  0  0  0
  5 17  2  0  0  0  0
  5 15  1  0  0  0  0
  6 18  1  0  0  0  0
  8  7  1  0  0  0  0
  8  1  2  0  0  0  0
 11 18  1  0  0  0  0
 12 31  1  0  0  0  0
 12 10  2  0  0  0  0
 13 11  2  0  0  0  0
 14  9  1  0  0  0  0
 14  2  1  0  0  0  0
 15  9  1  6  0  0  0
 15  3  1  0  0  0  0
 16  6  2  0  0  0  0
 16 13  1  0  0  0  0
 17 12  1  0  0  0  0
 18 14  2  0  0  0  0
 19 20  1  0  0  0  0
 19 21  2  0  0  0  0
 20 17  1  0  0  0  0
 22 23  2  0  0  0  0
 23 19  1  0  0  0  0
 24 22  1  0  0  0  0
 25 28  1  0  0  0  0
 25 30  1  1  0  0  0
 27 25  1  0  0  0  0
 27 29  1  0  0  0  0
 28 24  1  1  0  0  0
 28 26  1  0  0  0  0
 29 26  1  0  0  0  0
 31 32  1  0  0  0  0
 32 37  1  0  0  0  0
 33 36  1  0  0  0  0
 34 38  1  0  0  0  0
 35 36  1  0  0  0  0
 37 33  1  0  0  0  0
 38 35  1  0  0  0  0
 39 34  1  0  0  0  0
 39 37  2  0  0  0  0
M  END
>  <MODEL>
6

>  <REMARK>
 VINA RESULT:      -8.5      2.090      7.558
  Name = 
  7 active torsions:
  status: ('A' for Active; 'I' for Inactive)
    1  A    between atoms: C_11  and  C_23
    2  A    between atoms: C_11  and  C_35
    3  A    between atoms: C_12  and  C_28
    4  A    between atoms: C_12  and  C_30
    5  A    between atoms: C_17  and  C_37
    6  A    between atoms: N_18  and  C_32
    7  A    between atoms: C_22  and  C_35
                            x       y       z     vdW  Elec       q    Type
                         _______ _______ _______ _____ _____    ______ ____

>  <TORSDO>
F 7

$$$$
=
 OpenBabel11042411053D

 39 43  0  0  1  0  0  0  0  0999 V2000
  189.7540  177.3070  147.2990 O   0  0  0  0  0  0  0  0  0  0  0  0
  187.9600  177.8880  145.9460 N   0  0  0  0  0  2  0  0  0  0  0  0
  189.8670  177.3050  143.6450 C   0  0  1  0  0  3  0  0  0  0  0  0
  190.7250  178.3120  142.9630 C   0  0  0  0  0  2  0  0  0  0  0  0
  188.3460  177.1310  141.6810 C   0  0  0  0  0  3  0  0  0  0  0  0
  185.0800  177.8780  143.4830 C   0  0  0  0  0  3  0  0  0  0  0  0
  190.1560  177.0630  145.0250 N   0  0  0  0  0  2  0  0  0  0  0  0
  189.2960  177.3930  146.1350 C   0  0  0  0  0  0  0  0  0  0  0  0
  187.6120  176.3740  143.9560 C   0  0  0  0  0  2  0  0  0  0  0  0
  191.3290  177.7940  141.7020 C   0  0  0  0  0  3  0  0  0  0  0  0
  185.5290  179.3620  145.2190 C   0  0  0  0  0  3  0  0  0  0  0  0
  190.6270  177.3660  140.6480 C   0  0  0  0  0  0  0  0  0  0  0  0
  184.4640  179.7630  144.6100 N   0  0  0  0  0  0  0  0  0  0  0  0
  187.1440  177.4940  144.8400 C   0  0  0  0  0  0  0  0  0  0  0  0
  188.7080  176.9070  143.0910 C   0  0  2  0  0  3  0  0  0  0  0  0
  184.1830  178.8530  143.5410 C   0  0  0  0  0  3  0  0  0  0  0  0
  189.1330  177.3320  140.6110 C   0  0  0  0  0  0  0  0  0  0  0  0
  186.0160  178.1570  144.5630 C   0  0  0  0  0  0  0  0  0  0  0  0
  188.8030  178.3540  138.3690 C   0  0  0  0  0  0  0  0  0  0  0  0
  188.4620  177.3720  139.3490 N   0  0  0  0  0  2  0  0  0  0  0  0
  189.0460  179.5470  138.7180 O   0  0  0  0  0  0  0  0  0  0  0  0
  188.2900  176.9050  136.4950 C   0  0  0  0  0  3  0  0  0  0  0  0
  188.9620  177.9540  136.9680 C   0  0  0  0  0  3  0  0  0  0  0  0
  188.2770  176.5500  135.0340 C   0  0  0  0  0  2  0  0  0  0  0  0
  187.2380  174.2600  134.5960 C   0  0  1  0  0  3  0  0  0  0  0  0
  185.9240  175.9750  135.5980 N   0  0  0  0  0  2  0  0  0  0  0  0
  185.8780  173.6820  134.8820 C   0  0  0  0  0  2  0  0  0  0  0  0
  187.0170  175.7620  134.6600 C   0  0  1  0  0  3  0  0  0  0  0  0
  185.0320  174.8500  135.3500 C   0  0  0  0  0  2  0  0  0  0  0  0
  188.1230  173.8340  135.5900 O   0  0  0  0  0  1  0  0  0  0  0  0
  191.3750  177.1450  139.3670 C   0  0  0  0  0  2  0  0  0  0  0  0
  191.2230  175.7290  138.7830 C   0  0  0  0  0  2  0  0  0  0  0  0
  193.2190  176.2770  137.1910 C   0  0  0  0  0  2  0  0  0  0  0  0
  191.8730  174.5700  135.1190 C   0  0  0  0  0  2  0  0  0  0  0  0
  194.2700  174.9820  135.4210 N   0  0  0  0  0  2  0  0  0  0  0  0
  194.3020  175.2540  136.8520 C   0  0  0  0  0  2  0  0  0  0  0  0
  191.9000  175.5980  137.4480 C   0  0  0  0  0  0  0  0  0  0  0  0
  193.2740  173.9480  135.1730 C   0  0  0  0  0  2  0  0  0  0  0  0
  191.3060  174.8300  136.5090 C   0  0  0  0  0  3  0  0  0  0  0  0
  2  8  1  0  0  0  0
  3  4  1  1  0  0  0
  3  7  1  0  0  0  0
  6 16  2  0  0  0  0
  6 18  1  0  0  0  0
  7  8  1  0  0  0  0
  8  1  2  0  0  0  0
  9 14  1  0  0  0  0
 10  4  1  0  0  0  0
 12 10  2  0  0  0  0
 13 11  2  0  0  0  0
 14  2  1  0  0  0  0
 15  5  1  1  0  0  0
 15  3  1  0  0  0  0
 15  9  1  0  0  0  0
 16 13  1  0  0  0  0
 17 12  1  0  0  0  0
 17  5  2  0  0  0  0
 18 14  2  0  0  0  0
 18 11  1  0  0  0  0
 19 21  2  0  0  0  0
 19 20  1  0  0  0  0
 20 17  1  0  0  0  0
 22 23  2  0  0  0  0
 23 19  1  0  0  0  0
 24 22  1  0  0  0  0
 25 28  1  0  0  0  0
 25 27  1  0  0  0  0
 25 30  1  1  0  0  0
 27 29  1  0  0  0  0
 28 24  1  1  0  0  0
 28 26  1  0  0  0  0
 29 26  1  0  0  0  0
 31 12  1  0  0  0  0
 32 31  1  0  0  0  0
 33 37  1  0  0  0  0
 34 38  1  0  0  0  0
 34 39  1  0  0  0  0
 35 36  1  0  0  0  0
 36 33  1  0  0  0  0
 37 32  1  0  0  0  0
 38 35  1  0  0  0  0
 39 37  2  0  0  0  0
M  END
>  <MODEL>
7

>  <REMARK>
 VINA RESULT:      -8.3      2.943      8.802
  Name = 
  7 active torsions:
  status: ('A' for Active; 'I' for Inactive)
    1  A    between atoms: C_11  and  C_23
    2  A    between atoms: C_11  and  C_35
    3  A    between atoms: C_12  and  C_28
    4  A    between atoms: C_12  and  C_30
    5  A    between atoms: C_17  and  C_37
    6  A    between atoms: N_18  and  C_32
    7  A    between atoms: C_22  and  C_35
                            x       y       z     vdW  Elec       q    Type
                         _______ _______ _______ _____ _____    ______ ____

>  <TORSDO>
F 7

$$$$
=
 OpenBabel11042411053D

 39 43  0  0  1  0  0  0  0  0999 V2000
  189.4460  178.3270  149.5120 O   0  0  0  0  0  0  0  0  0  0  0  0
  190.2420  177.2210  147.6340 N   0  0  0  0  0  2  0  0  0  0  0  0
  187.6630  178.1720  146.3230 C   0  0  1  0  0  3  0  0  0  0  0  0
  186.3950  177.3960  146.2590 C   0  0  0  0  0  2  0  0  0  0  0  0
  188.1050  177.8330  143.8960 C   0  0  0  0  0  3  0  0  0  0  0  0
  191.5890  176.3370  144.2040 C   0  0  0  0  0  3  0  0  0  0  0  0
  188.1030  178.5530  147.6310 N   0  0  0  0  0  2  0  0  0  0  0  0
  189.2840  178.0620  148.2970 C   0  0  0  0  0  0  0  0  0  0  0  0
  189.9480  178.4830  145.4680 C   0  0  0  0  0  2  0  0  0  0  0  0
  185.4040  177.9910  145.3170 C   0  0  0  0  0  3  0  0  0  0  0  0
  191.6850  175.1160  146.1840 C   0  0  0  0  0  3  0  0  0  0  0  0
  185.6140  178.1620  144.0080 C   0  0  0  0  0  0  0  0  0  0  0  0
  192.2360  174.4160  145.2500 N   0  0  0  0  0  0  0  0  0  0  0  0
  190.5190  177.3260  146.2350 C   0  0  0  0  0  0  0  0  0  0  0  0
  188.4910  178.2180  145.2650 C   0  0  2  0  0  3  0  0  0  0  0  0
  192.1800  175.1620  144.0290 C   0  0  0  0  0  3  0  0  0  0  0  0
  186.8910  177.7950  143.3230 C   0  0  0  0  0  0  0  0  0  0  0  0
  191.2200  176.3730  145.6120 C   0  0  0  0  0  0  0  0  0  0  0  0
  187.1660  178.5350  140.9660 C   0  0  0  0  0  0  0  0  0  0  0  0
  186.8790  177.5130  141.9210 N   0  0  0  0  0  2  0  0  0  0  0  0
  186.7160  179.7070  141.1300 O   0  0  0  0  0  0  0  0  0  0  0  0
  189.3000  177.8090  140.0740 C   0  0  0  0  0  3  0  0  0  0  0  0
  188.0620  178.2460  139.8420 C   0  0  0  0  0  3  0  0  0  0  0  0
  190.2040  177.3330  138.9710 C   0  0  0  0  0  2  0  0  0  0  0  0
  189.0140  176.2590  136.9860 C   0  0  1  0  0  3  0  0  0  0  0  0
  190.7300  175.0570  138.1180 N   0  0  0  0  0  2  0  0  0  0  0  0
  189.1840  174.9400  136.2820 C   0  0  0  0  0  2  0  0  0  0  0  0
  189.6800  176.0420  138.3340 C   0  0  1  0  0  3  0  0  0  0  0  0
  190.1530  174.1470  137.1370 C   0  0  0  0  0  2  0  0  0  0  0  0
  189.6690  177.2480  136.2480 O   0  0  0  0  0  1  0  0  0  0  0  0
  184.4270  178.5080  143.1590 C   0  0  0  0  0  2  0  0  0  0  0  0
  183.1150  178.6730  143.9470 C   0  0  0  0  0  2  0  0  0  0  0  0
  180.5340  178.8810  143.6090 C   0  0  0  0  0  2  0  0  0  0  0  0
  181.0360  178.7530  140.6510 C   0  0  0  0  0  2  0  0  0  0  0  0
  179.2190  179.8960  141.8310 N   0  0  0  0  0  2  0  0  0  0  0  0
  179.8740  180.1640  143.1060 C   0  0  0  0  0  2  0  0  0  0  0  0
  181.9190  178.7310  143.0380 C   0  0  0  0  0  0  0  0  0  0  0  0
  180.2060  180.0370  140.7700 C   0  0  0  0  0  2  0  0  0  0  0  0
  182.1320  178.6770  141.7060 C   0  0  0  0  0  3  0  0  0  0  0  0
  2  8  1  0  0  0  0
  3  4  1  1  0  0  0
  3  7  1  0  0  0  0
  6 18  1  0  0  0  0
  7  8  1  0  0  0  0
  8  1  2  0  0  0  0
  9 14  1  0  0  0  0
 10  4  1  0  0  0  0
 12 10  2  0  0  0  0
 13 11  2  0  0  0  0
 14  2  1  0  0  0  0
 15  5  1  1  0  0  0
 15  9  1  0  0  0  0
 15  3  1  0  0  0  0
 16  6  2  0  0  0  0
 16 13  1  0  0  0  0
 17  5  2  0  0  0  0
 17 12  1  0  0  0  0
 18 11  1  0  0  0  0
 18 14  2  0  0  0  0
 19 21  2  0  0  0  0
 19 20  1  0  0  0  0
 20 17  1  0  0  0  0
 23 22  2  0  0  0  0
 23 19  1  0  0  0  0
 24 22  1  0  0  0  0
 25 30  1  6  0  0  0
 25 28  1  0  0  0  0
 26 28  1  0  0  0  0
 27 25  1  0  0  0  0
 27 29  1  0  0  0  0
 28 24  1  6  0  0  0
 29 26  1  0  0  0  0
 31 32  1  0  0  0  0
 31 12  1  0  0  0  0
 34 38  1  0  0  0  0
 34 39  1  0  0  0  0
 35 36  1  0  0  0  0
 36 33  1  0  0  0  0
 37 33  1  0  0  0  0
 37 32  1  0  0  0  0
 38 35  1  0  0  0  0
 39 37  2  0  0  0  0
M  END
>  <MODEL>
8

>  <REMARK>
 VINA RESULT:      -8.3      2.514      8.982
  Name = 
  7 active torsions:
  status: ('A' for Active; 'I' for Inactive)
    1  A    between atoms: C_11  and  C_23
    2  A    between atoms: C_11  and  C_35
    3  A    between atoms: C_12  and  C_28
    4  A    between atoms: C_12  and  C_30
    5  A    between atoms: C_17  and  C_37
    6  A    between atoms: N_18  and  C_32
    7  A    between atoms: C_22  and  C_35
                            x       y       z     vdW  Elec       q    Type
                         _______ _______ _______ _____ _____    ______ ____

>  <TORSDO>
F 7

$$$$
=
 OpenBabel11042411053D

 39 43  0  0  1  0  0  0  0  0999 V2000
  192.5580  176.8310  139.2760 O   0  0  0  0  0  0  0  0  0  0  0  0
  190.4120  176.8180  138.3930 N   0  0  0  0  0  2  0  0  0  0  0  0
  189.5450  177.5420  141.2220 C   0  0  1  0  0  3  0  0  0  0  0  0
  189.1340  176.5690  142.2700 C   0  0  0  0  0  2  0  0  0  0  0  0
  187.2060  178.3380  140.9080 C   0  0  0  0  0  3  0  0  0  0  0  0
  186.9580  177.7670  137.1560 C   0  0  0  0  0  3  0  0  0  0  0  0
  190.9040  177.4570  140.7810 N   0  0  0  0  0  2  0  0  0  0  0  0
  191.3380  177.0500  139.4670 C   0  0  0  0  0  0  0  0  0  0  0  0
  188.9520  178.7330  139.1530 C   0  0  0  0  0  2  0  0  0  0  0  0
  188.4960  177.2270  143.4470 C   0  0  0  0  0  3  0  0  0  0  0  0
  188.2600  175.9150  136.6130 C   0  0  0  0  0  3  0  0  0  0  0  0
  187.3800  177.9600  143.3890 C   0  0  0  0  0  0  0  0  0  0  0  0
  187.1350  175.8150  135.9890 N   0  0  0  0  0  0  0  0  0  0  0  0
  189.1880  177.5470  138.2630 C   0  0  0  0  0  0  0  0  0  0  0  0
  188.6210  178.2180  140.5160 C   0  0  2  0  0  3  0  0  0  0  0  0
  186.3290  176.9520  136.3190 C   0  0  0  0  0  3  0  0  0  0  0  0
  186.6370  178.2330  142.1210 C   0  0  0  0  0  0  0  0  0  0  0  0
  188.2460  177.1360  137.4080 C   0  0  0  0  0  0  0  0  0  0  0  0
  184.5130  178.8550  140.9900 C   0  0  0  0  0  0  0  0  0  0  0  0
  185.2440  178.5500  142.1790 N   0  0  0  0  0  2  0  0  0  0  0  0
  185.0360  179.5660  140.0830 O   0  0  0  0  0  0  0  0  0  0  0  0
  182.9060  177.6470  139.6340 C   0  0  0  0  0  3  0  0  0  0  0  0
  183.1880  178.2610  140.7830 C   0  0  0  0  0  3  0  0  0  0  0  0
  181.6340  176.8730  139.4270 C   0  0  0  0  0  2  0  0  0  0  0  0
  181.1360  175.4800  137.3480 C   0  0  1  0  0  3  0  0  0  0  0  0
  183.2950  175.3720  138.3450 N   0  0  0  0  0  2  0  0  0  0  0  0
  181.9760  174.5510  136.5130 C   0  0  0  0  0  2  0  0  0  0  0  0
  181.8890  175.5690  138.6640 C   0  0  1  0  0  3  0  0  0  0  0  0
  183.2730  174.3790  137.2790 C   0  0  0  0  0  2  0  0  0  0  0  0
  181.0750  176.7230  136.7110 O   0  0  0  0  0  1  0  0  0  0  0  0
  186.7200  178.3110  144.6890 C   0  0  0  0  0  2  0  0  0  0  0  0
  186.5740  177.1290  145.6630 C   0  0  0  0  0  2  0  0  0  0  0  0
  188.8240  176.3320  146.7220 C   0  0  0  0  0  2  0  0  0  0  0  0
  188.3030  178.2540  148.9700 C   0  0  0  0  0  2  0  0  0  0  0  0
  190.4620  177.4970  148.0910 N   0  0  0  0  0  2  0  0  0  0  0  0
  190.0840  177.1950  146.7170 C   0  0  0  0  0  2  0  0  0  0  0  0
  187.5860  177.1880  146.7720 C   0  0  0  0  0  0  0  0  0  0  0  0
  189.7120  178.6670  148.5260 C   0  0  0  0  0  2  0  0  0  0  0  0
  187.3650  178.0510  147.7870 C   0  0  0  0  0  3  0  0  0  0  0  0
  1  8  2  0  0  0  0
  2  8  1  0  0  0  0
  3  4  1  6  0  0  0
  4 10  1  0  0  0  0
  5 17  2  0  0  0  0
  6 18  1  0  0  0  0
  7  3  1  0  0  0  0
  8  7  1  0  0  0  0
 11 18  1  0  0  0  0
 12 10  2  0  0  0  0
 12 31  1  0  0  0  0
 13 16  1  0  0  0  0
 13 11  2  0  0  0  0
 14  2  1  0  0  0  0
 14  9  1  0  0  0  0
 15  9  1  6  0  0  0
 15  5  1  0  0  0  0
 15  3  1  0  0  0  0
 16  6  2  0  0  0  0
 17 20  1  0  0  0  0
 17 12  1  0  0  0  0
 18 14  2  0  0  0  0
 19 20  1  0  0  0  0
 21 19  2  0  0  0  0
 22 23  2  0  0  0  0
 23 19  1  0  0  0  0
 24 22  1  0  0  0  0
 25 30  1  6  0  0  0
 25 28  1  0  0  0  0
 26 28  1  0  0  0  0
 27 29  1  0  0  0  0
 27 25  1  0  0  0  0
 28 24  1  6  0  0  0
 29 26  1  0  0  0  0
 31 32  1  0  0  0  0
 32 37  1  0  0  0  0
 33 37  1  0  0  0  0
 35 38  1  0  0  0  0
 36 33  1  0  0  0  0
 36 35  1  0  0  0  0
 37 39  2  0  0  0  0
 38 34  1  0  0  0  0
 39 34  1  0  0  0  0
M  END
>  <MODEL>
9

>  <REMARK>
 VINA RESULT:      -8.2      2.407      3.654
  Name = 
  7 active torsions:
  status: ('A' for Active; 'I' for Inactive)
    1  A    between atoms: C_11  and  C_23
    2  A    between atoms: C_11  and  C_35
    3  A    between atoms: C_12  and  C_28
    4  A    between atoms: C_12  and  C_30
    5  A    between atoms: C_17  and  C_37
    6  A    between atoms: N_18  and  C_32
    7  A    between atoms: C_22  and  C_35
                            x       y       z     vdW  Elec       q    Type
                         _______ _______ _______ _____ _____    ______ ____

>  <TORSDO>
F 7

$$$$
