=
 OpenBabel11042410543D

 26 30  0  0  1  0  0  0  0  0999 V2000
  185.8220  179.3180  141.7340 C   0  0  2  0  0  3  0  0  0  0  0  0
  184.9530  179.6410  142.9520 C   0  0  0  0  0  2  0  0  0  0  0  0
  184.0260  178.4830  143.2970 C   0  0  0  0  0  2  0  0  0  0  0  0
  181.5310  176.1710  138.6300 C   0  0  0  0  0  2  0  0  0  0  0  0
  183.7660  177.3260  138.5100 C   0  0  0  0  0  0  0  0  0  0  0  0
  185.0500  178.6640  140.6220 C   0  0  0  0  0  0  0  0  0  0  0  0
  183.7710  178.0390  140.8870 N   0  0  0  0  0  0  0  0  0  0  0  0
  183.1340  177.3690  139.7940 C   0  0  0  0  0  0  0  0  0  0  0  0
  183.0560  178.2530  142.1450 C   0  0  0  0  0  2  0  0  0  0  0  0
  181.9890  176.7850  139.8750 N   0  0  0  0  0  0  0  0  0  0  0  0
  184.9470  177.9230  138.3250 C   0  0  0  0  0  0  0  0  0  0  0  0
  185.5840  178.5910  139.4330 N   0  0  0  0  0  0  0  0  0  0  0  0
  182.7910  176.4480  137.3100 S   0  0  0  0  0  0  0  0  0  0  0  0
  185.6240  177.9000  136.9990 C   0  0  0  0  0  1  0  0  0  0  0  0
  189.3170  177.7760  142.0580 C   0  0  0  0  0  2  0  0  0  0  0  0
  186.9980  178.5320  142.1140 N   0  0  0  0  0  0  0  0  0  0  0  0
  188.5160  177.1310  145.7660 C   0  0  0  0  0  0  0  0  0  0  0  0
  186.6120  178.0700  144.5630 C   0  0  0  0  0  3  0  0  0  0  0  0
  189.0550  176.6570  146.9550 O   0  0  0  0  0  1  0  0  0  0  0  0
  188.7010  177.6440  143.4170 C   0  0  0  0  0  0  0  0  0  0  0  0
  188.2140  178.7050  140.0970 O   0  0  0  0  0  0  0  0  0  0  0  0
  187.3940  178.0910  143.4070 C   0  0  0  0  0  0  0  0  0  0  0  0
  190.7040  176.6810  144.5900 C   0  0  0  0  0  1  0  0  0  0  0  0
  188.1630  178.3690  141.3090 C   0  0  0  0  0  0  0  0  0  0  0  0
  189.2900  177.1580  144.5880 C   0  0  0  0  0  0  0  0  0  0  0  0
  187.1830  177.5850  145.7470 C   0  0  0  0  0  3  0  0  0  0  0  0
  1 16  1  1  0  0  0
  1  2  1  0  0  0  0
  2  3  1  0  0  0  0
  4 10  1  0  0  0  0
  5  8  1  0  0  0  0
  6  7  1  0  0  0  0
  6  1  1  0  0  0  0
  7  9  1  0  0  0  0
  8 10  2  0  0  0  0
  8  7  1  0  0  0  0
  9  3  1  0  0  0  0
 11  5  2  0  0  0  0
 11 12  1  0  0  0  0
 12  6  2  0  0  0  0
 13  5  1  0  0  0  0
 13  4  1  0  0  0  0
 14 11  1  0  0  0  0
 15 20  1  0  0  0  0
 16 22  1  0  0  0  0
 17 19  1  0  0  0  0
 18 26  2  0  0  0  0
 20 25  1  0  0  0  0
 21 24  2  0  0  0  0
 22 20  2  0  0  0  0
 22 18  1  0  0  0  0
 24 15  1  0  0  0  0
 24 16  1  0  0  0  0
 25 23  1  0  0  0  0
 25 17  2  0  0  0  0
 26 17  1  0  0  0  0
M  END
>  <MODEL>
1

>  <REMARK>
 VINA RESULT:      -8.6      0.000      0.000
  Name = 
  1 active torsions:
  status: ('A' for Active; 'I' for Inactive)
    1  A    between atoms: C_1  and  N_4
                            x       y       z     vdW  Elec       q    Type
                         _______ _______ _______ _____ _____    ______ ____

>  <TORSDO>
F 1

$$$$
=
 OpenBabel11042410543D

 26 30  0  0  1  0  0  0  0  0999 V2000
  185.0150  179.5440  143.0240 C   0  0  2  0  0  3  0  0  0  0  0  0
  183.9610  179.9000  144.0750 C   0  0  0  0  0  2  0  0  0  0  0  0
  182.9030  178.8120  144.1930 C   0  0  0  0  0  2  0  0  0  0  0  0
  181.1550  176.8480  139.0510 C   0  0  0  0  0  2  0  0  0  0  0  0
  183.4520  177.8210  139.3940 C   0  0  0  0  0  0  0  0  0  0  0  0
  184.4170  178.9880  141.7610 C   0  0  0  0  0  0  0  0  0  0  0  0
  183.0680  178.4610  141.7600 N   0  0  0  0  0  0  0  0  0  0  0  0
  182.5980  177.8770  140.5400 C   0  0  0  0  0  0  0  0  0  0  0  0
  182.1500  178.6950  142.8750 C   0  0  0  0  0  2  0  0  0  0  0  0
  181.4180  177.3850  140.3850 N   0  0  0  0  0  0  0  0  0  0  0  0
  184.6880  178.3270  139.4540 C   0  0  0  0  0  0  0  0  0  0  0  0
  185.1560  178.9080  140.6880 N   0  0  0  0  0  0  0  0  0  0  0  0
  182.6550  177.0610  137.9980 S   0  0  0  0  0  0  0  0  0  0  0  0
  185.5960  178.2880  138.2740 C   0  0  0  0  0  1  0  0  0  0  0  0
  188.1750  177.4830  143.7070 C   0  0  0  0  0  2  0  0  0  0  0  0
  186.0390  178.6550  143.5770 N   0  0  0  0  0  0  0  0  0  0  0  0
  187.4030  177.8370  147.4600 C   0  0  0  0  0  0  0  0  0  0  0  0
  185.6620  178.8270  146.0650 C   0  0  0  0  0  3  0  0  0  0  0  0
  187.8880  177.5440  148.7280 O   0  0  0  0  0  1  0  0  0  0  0  0
  187.5940  177.7740  145.0570 C   0  0  0  0  0  0  0  0  0  0  0  0
  187.1920  178.1460  141.5810 O   0  0  0  0  0  0  0  0  0  0  0  0
  186.3930  178.4450  144.9390 C   0  0  0  0  0  0  0  0  0  0  0  0
  189.4260  176.7340  146.4280 C   0  0  0  0  0  1  0  0  0  0  0  0
  187.1240  178.1020  142.8370 C   0  0  0  0  0  0  0  0  0  0  0  0
  188.1260  177.4570  146.3110 C   0  0  0  0  0  0  0  0  0  0  0  0
  186.1770  178.5180  147.3310 C   0  0  0  0  0  3  0  0  0  0  0  0
  1 16  1  1  0  0  0
  1  2  1  0  0  0  0
  2  3  1  0  0  0  0
  4 10  1  0  0  0  0
  5 11  2  0  0  0  0
  5  8  1  0  0  0  0
  6  1  1  0  0  0  0
  7  6  1  0  0  0  0
  7  9  1  0  0  0  0
  8  7  1  0  0  0  0
  9  3  1  0  0  0  0
 10  8  2  0  0  0  0
 11 12  1  0  0  0  0
 12  6  2  0  0  0  0
 13  4  1  0  0  0  0
 13  5  1  0  0  0  0
 14 11  1  0  0  0  0
 15 20  1  0  0  0  0
 16 22  1  0  0  0  0
 17 19  1  0  0  0  0
 18 26  2  0  0  0  0
 20 25  1  0  0  0  0
 21 24  2  0  0  0  0
 22 20  2  0  0  0  0
 22 18  1  0  0  0  0
 24 16  1  0  0  0  0
 24 15  1  0  0  0  0
 25 23  1  0  0  0  0
 25 17  2  0  0  0  0
 26 17  1  0  0  0  0
M  END
>  <MODEL>
2

>  <REMARK>
 VINA RESULT:      -8.5      1.334      1.649
  Name = 
  1 active torsions:
  status: ('A' for Active; 'I' for Inactive)
    1  A    between atoms: C_1  and  N_4
                            x       y       z     vdW  Elec       q    Type
                         _______ _______ _______ _____ _____    ______ ____

>  <TORSDO>
F 1

$$$$
=
 OpenBabel11042410543D

 26 30  0  0  1  0  0  0  0  0999 V2000
  190.1240  177.7590  139.0090 C   0  0  2  0  0  3  0  0  0  0  0  0
  189.0220  178.8210  138.9760 C   0  0  0  0  0  2  0  0  0  0  0  0
  187.6430  178.1960  139.1390 C   0  0  0  0  0  2  0  0  0  0  0  0
  186.9890  173.4040  135.9820 C   0  0  0  0  0  2  0  0  0  0  0  0
  189.2460  174.1580  136.8060 C   0  0  0  0  0  0  0  0  0  0  0  0
  189.7880  176.5420  138.1910 C   0  0  0  0  0  0  0  0  0  0  0  0
  188.4170  176.2680  137.8140 N   0  0  0  0  0  0  0  0  0  0  0  0
  188.1680  175.0500  137.1050 C   0  0  0  0  0  0  0  0  0  0  0  0
  187.3640  177.2740  137.9600 C   0  0  0  0  0  2  0  0  0  0  0  0
  187.0050  174.6840  136.6910 N   0  0  0  0  0  0  0  0  0  0  0  0
  190.4920  174.4670  137.1770 C   0  0  0  0  0  0  0  0  0  0  0  0
  190.7350  175.6920  137.8970 N   0  0  0  0  0  0  0  0  0  0  0  0
  188.7000  172.7190  135.9160 S   0  0  0  0  0  0  0  0  0  0  0  0
  191.6340  173.5600  136.8730 C   0  0  0  0  0  1  0  0  0  0  0  0
  191.8610  177.2870  142.3930 C   0  0  0  0  0  2  0  0  0  0  0  0
  190.4830  177.4070  140.3840 N   0  0  0  0  0  0  0  0  0  0  0  0
  188.3670  177.2640  144.0050 C   0  0  0  0  0  0  0  0  0  0  0  0
  188.2570  177.3940  141.5700 C   0  0  0  0  0  3  0  0  0  0  0  0
  187.7050  177.2120  145.2250 O   0  0  0  0  0  1  0  0  0  0  0  0
  190.3960  177.2930  142.7000 C   0  0  0  0  0  0  0  0  0  0  0  0
  192.8330  177.4550  140.1680 O   0  0  0  0  0  0  0  0  0  0  0  0
  189.6520  177.3710  141.5380 C   0  0  0  0  0  0  0  0  0  0  0  0
  190.5870  177.1580  145.2030 C   0  0  0  0  0  1  0  0  0  0  0  0
  191.8110  177.3850  140.8990 C   0  0  0  0  0  0  0  0  0  0  0  0
  189.7760  177.2390  143.9530 C   0  0  0  0  0  0  0  0  0  0  0  0
  187.6170  177.3400  142.8160 C   0  0  0  0  0  3  0  0  0  0  0  0
  1  2  1  1  0  0  0
  1 16  1  0  0  0  0
  2  3  1  0  0  0  0
  4 10  1  0  0  0  0
  5  8  1  0  0  0  0
  5 11  2  0  0  0  0
  6  1  1  0  0  0  0
  7  9  1  0  0  0  0
  7  6  1  0  0  0  0
  8  7  1  0  0  0  0
  9  3  1  0  0  0  0
 10  8  2  0  0  0  0
 11 12  1  0  0  0  0
 12  6  2  0  0  0  0
 13  4  1  0  0  0  0
 13  5  1  0  0  0  0
 14 11  1  0  0  0  0
 15 20  1  0  0  0  0
 16 24  1  0  0  0  0
 16 22  1  0  0  0  0
 17 19  1  0  0  0  0
 18 26  1  0  0  0  0
 20 25  2  0  0  0  0
 21 24  2  0  0  0  0
 22 18  2  0  0  0  0
 22 20  1  0  0  0  0
 24 15  1  0  0  0  0
 25 17  1  0  0  0  0
 25 23  1  0  0  0  0
 26 17  2  0  0  0  0
M  END
>  <MODEL>
3

>  <REMARK>
 VINA RESULT:      -8.4      3.849      5.007
  Name = 
  1 active torsions:
  status: ('A' for Active; 'I' for Inactive)
    1  A    between atoms: C_1  and  N_4
                            x       y       z     vdW  Elec       q    Type
                         _______ _______ _______ _____ _____    ______ ____

>  <TORSDO>
F 1

$$$$
=
 OpenBabel11042410543D

 26 30  0  0  1  0  0  0  0  0999 V2000
  189.5290  176.8600  136.7630 C   0  0  2  0  0  3  0  0  0  0  0  0
  189.3800  178.3220  136.3360 C   0  0  0  0  0  2  0  0  0  0  0  0
  188.2130  178.9940  137.0480 C   0  0  0  0  0  2  0  0  0  0  0  0
  183.5060  175.6530  137.2350 C   0  0  0  0  0  2  0  0  0  0  0  0
  185.8250  174.6800  137.1070 C   0  0  0  0  0  0  0  0  0  0  0  0
  188.2140  176.1330  136.8260 C   0  0  0  0  0  0  0  0  0  0  0  0
  186.9710  176.8710  136.9030 N   0  0  0  0  0  0  0  0  0  0  0  0
  185.7680  176.1080  137.0400 C   0  0  0  0  0  0  0  0  0  0  0  0
  186.9140  178.3100  136.6440 C   0  0  0  0  0  2  0  0  0  0  0  0
  184.5900  176.6260  137.1020 N   0  0  0  0  0  0  0  0  0  0  0  0
  187.0030  174.0530  137.0280 C   0  0  0  0  0  0  0  0  0  0  0  0
  188.2110  174.8290  136.8960 N   0  0  0  0  0  0  0  0  0  0  0  0
  184.2130  173.9490  137.2700 S   0  0  0  0  0  0  0  0  0  0  0  0
  187.0920  172.5680  137.0880 C   0  0  0  0  0  1  0  0  0  0  0  0
  192.2050  176.8140  139.5080 C   0  0  0  0  0  2  0  0  0  0  0  0
  190.2730  176.7460  138.0190 N   0  0  0  0  0  0  0  0  0  0  0  0
  189.4280  177.7280  142.0100 C   0  0  0  0  0  0  0  0  0  0  0  0
  188.5560  177.3650  139.7600 C   0  0  0  0  0  3  0  0  0  0  0  0
  189.1910  178.0460  143.3410 O   0  0  0  0  0  1  0  0  0  0  0  0
  190.9230  177.1350  140.2130 C   0  0  0  0  0  0  0  0  0  0  0  0
  192.4230  176.3440  137.1290 O   0  0  0  0  0  0  0  0  0  0  0  0
  189.8580  177.0960  139.3340 C   0  0  0  0  0  0  0  0  0  0  0  0
  191.8930  177.4950  142.5030 C   0  0  0  0  0  1  0  0  0  0  0  0
  191.6880  176.6040  138.1170 C   0  0  0  0  0  0  0  0  0  0  0  0
  190.7360  177.4510  141.5630 C   0  0  0  0  0  0  0  0  0  0  0  0
  188.3480  177.6820  141.1090 C   0  0  0  0  0  3  0  0  0  0  0  0
  1  2  1  1  0  0  0
  1  6  1  0  0  0  0
  1 16  1  0  0  0  0
  2  3  1  0  0  0  0
  4 13  1  0  0  0  0
  5 13  1  0  0  0  0
  6 12  2  0  0  0  0
  6  7  1  0  0  0  0
  7  8  1  0  0  0  0
  8 10  2  0  0  0  0
  8  5  1  0  0  0  0
  9  7  1  0  0  0  0
  9  3  1  0  0  0  0
 10  4  1  0  0  0  0
 11 14  1  0  0  0  0
 11  5  2  0  0  0  0
 12 11  1  0  0  0  0
 15 20  1  0  0  0  0
 16 24  1  0  0  0  0
 16 22  1  0  0  0  0
 17 19  1  0  0  0  0
 18 26  1  0  0  0  0
 20 25  2  0  0  0  0
 21 24  2  0  0  0  0
 22 18  2  0  0  0  0
 22 20  1  0  0  0  0
 24 15  1  0  0  0  0
 25 17  1  0  0  0  0
 25 23  1  0  0  0  0
 26 17  2  0  0  0  0
M  END
>  <MODEL>
4

>  <REMARK>
 VINA RESULT:      -8.1      3.458      4.995
  Name = 
  1 active torsions:
  status: ('A' for Active; 'I' for Inactive)
    1  A    between atoms: C_1  and  N_4
                            x       y       z     vdW  Elec       q    Type
                         _______ _______ _______ _____ _____    ______ ____

>  <TORSDO>
F 1

$$$$
=
 OpenBabel11042410543D

 26 30  0  0  1  0  0  0  0  0999 V2000
  183.9360  178.7850  139.0180 C   0  0  2  0  0  3  0  0  0  0  0  0
  183.0940  180.0630  139.0550 C   0  0  0  0  0  2  0  0  0  0  0  0
  181.7460  179.8220  139.7230 C   0  0  0  0  0  2  0  0  0  0  0  0
  179.2650  174.8980  138.0070 C   0  0  0  0  0  2  0  0  0  0  0  0
  181.7640  175.2050  137.9920 C   0  0  0  0  0  0  0  0  0  0  0  0
  183.1420  177.5740  138.6140 C   0  0  0  0  0  0  0  0  0  0  0  0
  181.6970  177.5830  138.6970 N   0  0  0  0  0  0  0  0  0  0  0  0
  181.0180  176.3660  138.3710 C   0  0  0  0  0  0  0  0  0  0  0  0
  180.9460  178.8220  138.9000 C   0  0  0  0  0  2  0  0  0  0  0  0
  179.7370  176.2300  138.3830 N   0  0  0  0  0  0  0  0  0  0  0  0
  183.0980  175.2570  137.9310 C   0  0  0  0  0  0  0  0  0  0  0  0
  183.7750  176.4850  138.2670 N   0  0  0  0  0  0  0  0  0  0  0  0
  180.7120  173.8190  137.6270 S   0  0  0  0  0  0  0  0  0  0  0  0
  183.8990  174.0660  137.5340 C   0  0  0  0  0  1  0  0  0  0  0  0
  186.4910  178.6400  141.8720 C   0  0  0  0  0  2  0  0  0  0  0  0
  184.6390  178.5750  140.2850 N   0  0  0  0  0  0  0  0  0  0  0  0
  183.5330  178.8800  144.3210 C   0  0  0  0  0  0  0  0  0  0  0  0
  182.7970  178.7480  141.9990 C   0  0  0  0  0  3  0  0  0  0  0  0
  183.2100  178.9780  145.6690 O   0  0  0  0  0  1  0  0  0  0  0  0
  185.1550  178.7160  142.5440 C   0  0  0  0  0  0  0  0  0  0  0  0
  186.8530  178.5410  139.4670 O   0  0  0  0  0  0  0  0  0  0  0  0
  184.1360  178.6870  141.6110 C   0  0  0  0  0  0  0  0  0  0  0  0
  185.9880  178.8490  144.9110 C   0  0  0  0  0  1  0  0  0  0  0  0
  186.0560  178.5760  140.4400 C   0  0  0  0  0  0  0  0  0  0  0  0
  184.8810  178.8140  143.9120 C   0  0  0  0  0  0  0  0  0  0  0  0
  182.5010  178.8460  143.3650 C   0  0  0  0  0  3  0  0  0  0  0  0
  1  2  1  1  0  0  0
  1 16  1  0  0  0  0
  2  3  1  0  0  0  0
  4 10  1  0  0  0  0
  5  8  1  0  0  0  0
  6  7  1  0  0  0  0
  6  1  1  0  0  0  0
  7  9  1  0  0  0  0
  8 10  2  0  0  0  0
  8  7  1  0  0  0  0
  9  3  1  0  0  0  0
 11  5  2  0  0  0  0
 11 12  1  0  0  0  0
 12  6  2  0  0  0  0
 13  5  1  0  0  0  0
 13  4  1  0  0  0  0
 14 11  1  0  0  0  0
 15 20  1  0  0  0  0
 16 24  1  0  0  0  0
 16 22  1  0  0  0  0
 17 19  1  0  0  0  0
 18 26  1  0  0  0  0
 20 25  2  0  0  0  0
 21 24  2  0  0  0  0
 22 18  2  0  0  0  0
 22 20  1  0  0  0  0
 24 15  1  0  0  0  0
 25 17  1  0  0  0  0
 25 23  1  0  0  0  0
 26 17  2  0  0  0  0
M  END
>  <MODEL>
5

>  <REMARK>
 VINA RESULT:      -8.0      2.521      3.867
  Name = 
  1 active torsions:
  status: ('A' for Active; 'I' for Inactive)
    1  A    between atoms: C_1  and  N_4
                            x       y       z     vdW  Elec       q    Type
                         _______ _______ _______ _____ _____    ______ ____

>  <TORSDO>
F 1

$$$$
=
 OpenBabel11042410543D

 26 30  0  0  1  0  0  0  0  0999 V2000
  184.9130  179.0680  140.3160 C   0  0  2  0  0  3  0  0  0  0  0  0
  183.3950  179.0030  140.5080 C   0  0  0  0  0  2  0  0  0  0  0  0
  182.8520  177.6190  140.1750 C   0  0  0  0  0  2  0  0  0  0  0  0
  185.1460  175.4340  135.3470 C   0  0  0  0  0  2  0  0  0  0  0  0
  186.3840  177.0990  136.7740 C   0  0  0  0  0  0  0  0  0  0  0  0
  185.3700  178.4050  139.0460 C   0  0  0  0  0  0  0  0  0  0  0  0
  184.5130  177.4600  138.3620 N   0  0  0  0  0  0  0  0  0  0  0  0
  185.0500  176.8120  137.2050 C   0  0  0  0  0  0  0  0  0  0  0  0
  183.0960  177.3220  138.7020 C   0  0  0  0  0  2  0  0  0  0  0  0
  184.3990  175.9640  136.4870 N   0  0  0  0  0  0  0  0  0  0  0  0
  187.1280  177.9840  137.4450 C   0  0  0  0  0  0  0  0  0  0  0  0
  186.5820  178.6280  138.6130 N   0  0  0  0  0  0  0  0  0  0  0  0
  186.8310  176.1840  135.3160 S   0  0  0  0  0  0  0  0  0  0  0  0
  188.5170  178.3060  137.0150 C   0  0  0  0  0  1  0  0  0  0  0  0
  187.5210  178.0240  142.9240 C   0  0  0  0  0  2  0  0  0  0  0  0
  185.6200  178.5450  141.4870 N   0  0  0  0  0  0  0  0  0  0  0  0
  184.7890  178.4610  145.5980 C   0  0  0  0  0  0  0  0  0  0  0  0
  183.9320  178.8120  143.3410 C   0  0  0  0  0  3  0  0  0  0  0  0
  184.5560  178.4200  146.9670 O   0  0  0  0  0  1  0  0  0  0  0  0
  186.2600  178.2540  143.6980 C   0  0  0  0  0  0  0  0  0  0  0  0
  187.7420  178.2110  140.5070 O   0  0  0  0  0  0  0  0  0  0  0  0
  185.2120  178.5550  142.8490 C   0  0  0  0  0  0  0  0  0  0  0  0
  187.2140  177.8780  145.9920 C   0  0  0  0  0  1  0  0  0  0  0  0
  187.0140  178.2540  141.5330 C   0  0  0  0  0  0  0  0  0  0  0  0
  186.0760  178.2010  145.0840 C   0  0  0  0  0  0  0  0  0  0  0  0
  183.7260  178.7640  144.7270 C   0  0  0  0  0  3  0  0  0  0  0  0
  1  2  1  1  0  0  0
  1 16  1  0  0  0  0
  3  2  1  0  0  0  0
  4 10  1  0  0  0  0
  5  8  1  0  0  0  0
  5 11  2  0  0  0  0
  6  1  1  0  0  0  0
  7  9  1  0  0  0  0
  7  6  1  0  0  0  0
  8  7  1  0  0  0  0
  9  3  1  0  0  0  0
 10  8  2  0  0  0  0
 11 12  1  0  0  0  0
 12  6  2  0  0  0  0
 13  4  1  0  0  0  0
 13  5  1  0  0  0  0
 14 11  1  0  0  0  0
 15 20  1  0  0  0  0
 16 24  1  0  0  0  0
 16 22  1  0  0  0  0
 17 19  1  0  0  0  0
 18 26  1  0  0  0  0
 20 25  2  0  0  0  0
 21 24  2  0  0  0  0
 22 18  2  0  0  0  0
 22 20  1  0  0  0  0
 24 15  1  0  0  0  0
 25 17  1  0  0  0  0
 25 23  1  0  0  0  0
 26 17  2  0  0  0  0
M  END
>  <MODEL>
6

>  <REMARK>
 VINA RESULT:      -8.0      2.038      3.133
  Name = 
  1 active torsions:
  status: ('A' for Active; 'I' for Inactive)
    1  A    between atoms: C_1  and  N_4
                            x       y       z     vdW  Elec       q    Type
                         _______ _______ _______ _____ _____    ______ ____

>  <TORSDO>
F 1

$$$$
=
 OpenBabel11042410543D

 26 30  0  0  1  0  0  0  0  0999 V2000
  188.0610  178.4060  138.6150 C   0  0  2  0  0  3  0  0  0  0  0  0
  189.3220  178.4270  137.7470 C   0  0  0  0  0  2  0  0  0  0  0  0
  190.2240  177.2370  138.0470 C   0  0  0  0  0  2  0  0  0  0  0  0
  190.7540  176.2250  143.7080 C   0  0  0  0  0  2  0  0  0  0  0  0
  188.7100  177.3310  142.7390 C   0  0  0  0  0  0  0  0  0  0  0  0
  188.3460  178.0690  140.0520 C   0  0  0  0  0  0  0  0  0  0  0  0
  189.5880  177.4210  140.4210 N   0  0  0  0  0  0  0  0  0  0  0  0
  189.7510  177.0600  141.7960 C   0  0  0  0  0  0  0  0  0  0  0  0
  190.7100  177.3240  139.4880 C   0  0  0  0  0  2  0  0  0  0  0  0
  190.8060  176.4960  142.2720 N   0  0  0  0  0  0  0  0  0  0  0  0
  187.5860  177.9350  142.3400 C   0  0  0  0  0  0  0  0  0  0  0  0
  187.4260  178.2900  140.9520 N   0  0  0  0  0  0  0  0  0  0  0  0
  189.1370  176.8030  144.3830 S   0  0  0  0  0  0  0  0  0  0  0  0
  186.4890  178.2350  143.3020 C   0  0  0  0  0  1  0  0  0  0  0  0
  184.9450  176.9260  136.9430 C   0  0  0  0  0  2  0  0  0  0  0  0
  187.0370  177.5290  138.0440 N   0  0  0  0  0  0  0  0  0  0  0  0
  187.1540  173.9970  135.7810 C   0  0  0  0  0  0  0  0  0  0  0  0
  188.3740  175.5630  137.2010 C   0  0  0  0  0  3  0  0  0  0  0  0
  187.1500  172.8320  135.0250 O   0  0  0  0  0  1  0  0  0  0  0  0
  186.0410  175.9410  136.6750 C   0  0  0  0  0  0  0  0  0  0  0  0
  185.1740  178.9630  138.2560 O   0  0  0  0  0  0  0  0  0  0  0  0
  187.2090  176.3240  137.3070 C   0  0  0  0  0  0  0  0  0  0  0  0
  184.7220  174.3740  135.2200 C   0  0  0  0  0  1  0  0  0  0  0  0
  185.6850  177.9060  137.8020 C   0  0  0  0  0  0  0  0  0  0  0  0
  185.9860  174.7770  135.9010 C   0  0  0  0  0  0  0  0  0  0  0  0
  188.3390  174.3920  136.4310 C   0  0  0  0  0  3  0  0  0  0  0  0
  1  2  1  6  0  0  0
  1  6  1  0  0  0  0
  2  3  1  0  0  0  0
  3  9  1  0  0  0  0
  4 13  1  0  0  0  0
  5 13  1  0  0  0  0
  6  7  1  0  0  0  0
  6 12  2  0  0  0  0
  7  8  1  0  0  0  0
  8 10  2  0  0  0  0
  8  5  1  0  0  0  0
  9  7  1  0  0  0  0
 10  4  1  0  0  0  0
 11  5  2  0  0  0  0
 11 14  1  0  0  0  0
 12 11  1  0  0  0  0
 15 24  1  0  0  0  0
 16  1  1  0  0  0  0
 17 25  2  0  0  0  0
 17 26  1  0  0  0  0
 18 22  1  0  0  0  0
 19 17  1  0  0  0  0
 20 15  1  0  0  0  0
 20 22  2  0  0  0  0
 22 16  1  0  0  0  0
 23 25  1  0  0  0  0
 24 16  1  0  0  0  0
 24 21  2  0  0  0  0
 25 20  1  0  0  0  0
 26 18  2  0  0  0  0
M  END
>  <MODEL>
7

>  <REMARK>
 VINA RESULT:      -7.7      3.637      7.679
  Name = 
  1 active torsions:
  status: ('A' for Active; 'I' for Inactive)
    1  A    between atoms: C_1  and  N_4
                            x       y       z     vdW  Elec       q    Type
                         _______ _______ _______ _____ _____    ______ ____

>  <TORSDO>
F 1

$$$$
=
 OpenBabel11042410543D

 26 30  0  0  1  0  0  0  0  0999 V2000
  184.3040  178.0560  140.3300 C   0  0  2  0  0  3  0  0  0  0  0  0
  184.9080  179.1920  139.5010 C   0  0  0  0  0  2  0  0  0  0  0  0
  183.8480  180.2060  139.0920 C   0  0  0  0  0  2  0  0  0  0  0  0
  178.9740  177.7080  137.2610 C   0  0  0  0  0  2  0  0  0  0  0  0
  180.5140  176.5770  138.9010 C   0  0  0  0  0  0  0  0  0  0  0  0
  183.0060  177.5470  139.7660 C   0  0  0  0  0  0  0  0  0  0  0  0
  182.2480  178.3500  138.8300 N   0  0  0  0  0  0  0  0  0  0  0  0
  180.9850  177.8320  138.4000 C   0  0  0  0  0  0  0  0  0  0  0  0
  182.8260  179.5310  138.1870 C   0  0  0  0  0  2  0  0  0  0  0  0
  180.2120  178.4260  137.5580 N   0  0  0  0  0  0  0  0  0  0  0  0
  181.2600  175.8780  139.7630 C   0  0  0  0  0  0  0  0  0  0  0  0
  182.5280  176.4100  140.1950 N   0  0  0  0  0  0  0  0  0  0  0  0
  178.9310  176.1350  138.2250 S   0  0  0  0  0  0  0  0  0  0  0  0
  180.7970  174.5670  140.2950 C   0  0  0  0  0  1  0  0  0  0  0  0
  183.0560  178.8320  143.8700 C   0  0  0  0  0  2  0  0  0  0  0  0
  184.1720  178.4370  141.7380 N   0  0  0  0  0  0  0  0  0  0  0  0
  186.5630  177.8920  145.1420 C   0  0  0  0  0  0  0  0  0  0  0  0
  186.4200  177.8290  142.7070 C   0  0  0  0  0  3  0  0  0  0  0  0
  187.3220  177.7250  146.2940 O   0  0  0  0  0  1  0  0  0  0  0  0
  184.4900  178.4370  144.0370 C   0  0  0  0  0  0  0  0  0  0  0  0
  181.8810  179.0050  141.7450 O   0  0  0  0  0  0  0  0  0  0  0  0
  185.0820  178.2130  142.8080 C   0  0  0  0  0  0  0  0  0  0  0  0
  184.5630  178.5220  146.5470 C   0  0  0  0  0  1  0  0  0  0  0  0
  182.9460  178.7820  142.3770 C   0  0  0  0  0  0  0  0  0  0  0  0
  185.2110  178.2820  145.2250 C   0  0  0  0  0  0  0  0  0  0  0  0
  187.1600  177.6690  143.8870 C   0  0  0  0  0  3  0  0  0  0  0  0
  1  2  1  6  0  0  0
  1 16  1  0  0  0  0
  3  2  1  0  0  0  0
  4 10  1  0  0  0  0
  4 13  1  0  0  0  0
  5 11  2  0  0  0  0
  6 12  2  0  0  0  0
  6  1  1  0  0  0  0
  7  6  1  0  0  0  0
  8  7  1  0  0  0  0
  8  5  1  0  0  0  0
  9  7  1  0  0  0  0
  9  3  1  0  0  0  0
 10  8  2  0  0  0  0
 11 12  1  0  0  0  0
 11 14  1  0  0  0  0
 13  5  1  0  0  0  0
 15 20  1  0  0  0  0
 16 24  1  0  0  0  0
 16 22  1  0  0  0  0
 17 25  1  0  0  0  0
 17 19  1  0  0  0  0
 18 22  2  0  0  0  0
 18 26  1  0  0  0  0
 20 25  2  0  0  0  0
 21 24  2  0  0  0  0
 22 20  1  0  0  0  0
 24 15  1  0  0  0  0
 25 23  1  0  0  0  0
 26 17  2  0  0  0  0
M  END
>  <MODEL>
8

>  <REMARK>
 VINA RESULT:      -7.6      2.332      4.075
  Name = 
  1 active torsions:
  status: ('A' for Active; 'I' for Inactive)
    1  A    between atoms: C_1  and  N_4
                            x       y       z     vdW  Elec       q    Type
                         _______ _______ _______ _____ _____    ______ ____

>  <TORSDO>
F 1

$$$$
=
 OpenBabel11042410543D

 26 30  0  0  1  0  0  0  0  0999 V2000
  183.1750  179.2610  140.8110 C   0  0  2  0  0  3  0  0  0  0  0  0
  183.8070  179.5230  139.4420 C   0  0  0  0  0  2  0  0  0  0  0  0
  184.8770  178.4890  139.1170 C   0  0  0  0  0  2  0  0  0  0  0  0
  188.3260  177.3720  143.6130 C   0  0  0  0  0  2  0  0  0  0  0  0
  185.9530  178.1590  143.9180 C   0  0  0  0  0  0  0  0  0  0  0  0
  184.1890  178.9230  141.8690 C   0  0  0  0  0  0  0  0  0  0  0  0
  185.5150  178.4770  141.4970 N   0  0  0  0  0  0  0  0  0  0  0  0
  186.3970  178.0990  142.5590 C   0  0  0  0  0  0  0  0  0  0  0  0
  186.0120  178.6020  140.1260 C   0  0  0  0  0  2  0  0  0  0  0  0
  187.6080  177.7000  142.3820 N   0  0  0  0  0  0  0  0  0  0  0  0
  184.7170  178.5810  144.2010 C   0  0  0  0  0  0  0  0  0  0  0  0
  183.8330  178.9550  143.1250 N   0  0  0  0  0  0  0  0  0  0  0  0
  187.2160  177.6490  145.0610 S   0  0  0  0  0  0  0  0  0  0  0  0
  184.2310  178.6600  145.6070 C   0  0  0  0  0  1  0  0  0  0  0  0
  179.8540  177.3490  140.7280 C   0  0  0  0  0  2  0  0  0  0  0  0
  182.1210  178.2470  140.7250 N   0  0  0  0  0  0  0  0  0  0  0  0
  181.5390  174.8410  138.3460 C   0  0  0  0  0  0  0  0  0  0  0  0
  183.0960  176.5420  139.1430 C   0  0  0  0  0  3  0  0  0  0  0  0
  181.3050  173.7110  137.5730 O   0  0  0  0  0  1  0  0  0  0  0  0
  180.7840  176.5580  139.8610 C   0  0  0  0  0  0  0  0  0  0  0  0
  180.4470  179.3610  141.9630 O   0  0  0  0  0  0  0  0  0  0  0  0
  182.0530  177.1050  139.8800 C   0  0  0  0  0  0  0  0  0  0  0  0
  179.1240  174.8400  139.0820 C   0  0  0  0  0  1  0  0  0  0  0  0
  180.7920  178.4100  141.2130 C   0  0  0  0  0  0  0  0  0  0  0  0
  180.4980  175.4220  139.0990 C   0  0  0  0  0  0  0  0  0  0  0  0
  182.8300  175.4020  138.3730 C   0  0  0  0  0  3  0  0  0  0  0  0
  1  2  1  6  0  0  0
  1  6  1  0  0  0  0
  3  2  1  0  0  0  0
  3  9  1  0  0  0  0
  4 13  1  0  0  0  0
  5 11  2  0  0  0  0
  5 13  1  0  0  0  0
  6 12  2  0  0  0  0
  7  6  1  0  0  0  0
  7  8  1  0  0  0  0
  8  5  1  0  0  0  0
  9  7  1  0  0  0  0
 10  8  2  0  0  0  0
 10  4  1  0  0  0  0
 11 14  1  0  0  0  0
 12 11  1  0  0  0  0
 15 24  1  0  0  0  0
 16  1  1  0  0  0  0
 16 24  1  0  0  0  0
 17 26  2  0  0  0  0
 17 25  1  0  0  0  0
 18 22  2  0  0  0  0
 19 17  1  0  0  0  0
 20 22  1  0  0  0  0
 20 15  1  0  0  0  0
 22 16  1  0  0  0  0
 23 25  1  0  0  0  0
 24 21  2  0  0  0  0
 25 20  2  0  0  0  0
 26 18  1  0  0  0  0
M  END
>  <MODEL>
9

>  <REMARK>
 VINA RESULT:      -7.6      3.466      7.476
  Name = 
  1 active torsions:
  status: ('A' for Active; 'I' for Inactive)
    1  A    between atoms: C_1  and  N_4
                            x       y       z     vdW  Elec       q    Type
                         _______ _______ _______ _____ _____    ______ ____

>  <TORSDO>
F 1

$$$$
