=
 OpenBabel11032421233D

 64 70  0  0  1  0  0  0  0  0999 V2000
  182.5230  177.0970  138.3270 C   0  0  2  0  0  3  0  0  0  0  0  0
  181.5590  179.5900  137.5420 C   0  0  0  0  0  3  0  0  0  0  0  0
  184.7430  177.9970  138.2830 C   0  0  1  0  0  3  0  0  0  0  0  0
  183.5180  177.6260  137.4600 C   0  0  2  0  0  0  0  0  0  0  0  0
  182.2830  178.4810  137.7120 C   0  0  0  0  0  0  0  0  0  0  0  0
  184.5030  177.5600  139.6570 N   0  0  2  0  0  0  0  0  0  0  0  0
  183.0720  177.2550  139.7320 C   0  0  0  0  0  2  0  0  0  0  0  0
  186.8950  177.5280  143.2130 C   0  0  0  0  0  3  0  0  0  0  0  0
  186.2120  178.1290  145.5570 C   0  0  0  0  0  0  0  0  0  0  0  0
  184.7500  178.6470  142.8860 C   0  0  0  0  0  0  0  0  0  0  0  0
  186.2440  178.5960  141.0690 C   0  0  0  0  0  2  0  0  0  0  0  0
  186.1940  178.6900  142.5900 C   0  0  2  0  0  3  0  0  0  0  0  0
  184.7980  178.6900  140.5460 C   0  0  2  0  0  3  0  0  0  0  0  0
  185.0260  178.7250  145.3490 C   0  0  0  0  0  3  0  0  0  0  0  0
  186.9150  177.3140  144.5310 C   0  0  0  0  0  3  0  0  0  0  0  0
  184.2300  178.7320  144.1070 C   0  0  0  0  0  3  0  0  0  0  0  0
  183.9460  178.6590  141.7260 N   0  0  0  0  0  2  0  0  0  0  0  0
  186.7730  178.2870  146.8310 O   0  0  0  0  0  0  0  0  0  0  0  0
  188.8160  177.0110  146.4840 N   0  0  0  0  0  2  0  0  0  0  0  0
  187.8900  177.2800  148.5980 O   0  0  0  0  0  0  0  0  0  0  0  0
  187.8100  177.5100  147.3610 C   0  0  0  0  0  0  0  0  0  0  0  0
  190.1010  177.6740  146.3320 C   0  0  2  0  0  3  0  0  0  0  0  0
  190.8170  177.1180  145.1340 C   0  0  2  0  0  3  0  0  0  0  0  0
  191.0060  177.2340  147.4520 C   0  0  0  0  0  2  0  0  0  0  0  0
  191.5210  175.9760  147.1160 O   0  0  0  0  0  0  0  0  0  0  0  0
  191.5760  175.9340  145.7070 C   0  0  0  0  0  2  0  0  0  0  0  0
  191.7400  178.0590  144.6670 O   0  0  0  0  0  0  0  0  0  0  0  0
  191.1340  178.6600  143.5580 C   0  0  0  0  0  2  0  0  0  0  0  0
  192.0530  177.4670  141.5910 C   0  0  0  0  0  1  0  0  0  0  0  0
  190.8480  177.6070  142.5000 C   0  0  2  0  0  3  0  0  0  0  0  0
  189.7350  177.9760  141.7430 O   0  0  0  0  0  1  0  0  0  0  0  0
  183.6080  176.9550  136.1170 C   0  0  0  0  0  0  0  0  0  0  0  0
  183.5540  175.4690  136.0130 C   0  0  0  0  0  1  0  0  0  0  0  0
  183.7610  177.6240  135.1070 O   0  0  0  0  0  0  0  0  0  0  0  0
  180.2330  179.7830  138.2150 C   0  0  2  0  0  3  0  0  0  0  0  0
  179.3940  180.5760  137.4260 O   0  0  0  0  0  0  0  0  0  0  0  0
  180.0250  181.7280  137.3240 O   0  0  0  0  0  1  0  0  0  0  0  0
  180.4180  180.4120  139.5920 C   0  0  0  0  0  2  0  0  0  0  0  0
  179.4000  179.8740  140.5890 C   0  0  0  0  0  2  0  0  0  0  0  0
  179.7190  178.4370  140.9740 C   0  0  0  0  0  2  0  0  0  0  0  0
  180.3740  178.3830  142.3420 C   0  0  0  0  0  1  0  0  0  0  0  0
  185.9500  177.3620  137.7710 N   0  0  0  0  0  2  0  0  0  0  0  0
  188.1810  178.3440  138.0320 C   0  0  0  0  0  2  0  0  0  0  0  0
  188.3280  177.8140  135.3100 C   0  0  0  0  0  2  0  0  0  0  0  0
  186.9780  178.3600  135.7800 C   0  0  0  0  0  2  0  0  0  0  0  0
  186.8310  178.4260  137.3100 C   0  0  1  0  0  3  0  0  0  0  0  0
  188.7750  176.6500  136.1900 C   0  0  2  0  0  3  0  0  0  0  0  0
  188.9760  177.0870  137.6510 C   0  0  0  0  0  2  0  0  0  0  0  0
  190.5510  174.8510  136.1290 C   0  0  0  0  0  0  0  0  0  0  0  0
  189.9850  174.2090  137.0550 O   0  0  0  0  0  0  0  0  0  0  0  0
  190.0090  176.0880  135.6640 N   0  0  0  0  0  2  0  0  0  0  0  0
  191.7980  174.3210  135.5090 C   0  0  0  0  0  2  0  0  0  0  0  0
  193.1940  172.6180  136.6100 C   0  0  0  0  0  2  0  0  0  0  0  0
  192.8850  174.1080  136.5600 C   0  0  1  0  0  3  0  0  0  0  0  0
  194.1080  174.8520  136.1960 N   0  0  0  0  0  0  0  0  0  0  0  0
  195.2600  173.2550  137.7570 C   0  0  0  0  0  0  0  0  0  0  0  0
  194.2070  172.3620  137.5670 O   0  0  0  0  0  0  0  0  0  0  0  0
  195.2350  174.6280  137.1280 C   0  0  1  0  0  3  0  0  0  0  0  0
  196.2060  172.9330  138.5260 O   0  0  0  0  0  0  0  0  0  0  0  0
  197.3600  175.7070  136.9400 O   0  0  0  0  0  1  0  0  0  0  0  0
  196.5350  174.9040  136.4310 C   0  0  0  0  0  0  0  0  0  0  0  0
  196.8330  174.2760  135.2260 O   0  0  0  0  0  0  0  0  0  0  0  0
  193.8200  176.2940  136.1890 C   0  0  0  0  0  2  0  0  0  0  0  0
  193.6590  176.7860  137.4930 O   0  0  0  0  0  1  0  0  0  0  0  0
  1  7  1  1  0  0  0
  2  5  2  0  0  0  0
  3 42  1  6  0  0  0
  3  6  1  0  0  0  0
  4 32  1  6  0  0  0
  4  5  1  0  0  0  0
  4  3  1  0  0  0  0
  4  1  1  0  0  0  0
  5  1  1  0  0  0  0
  6  7  1  6  0  0  0
  6 13  1  0  0  0  0
  8 15  2  0  0  0  0
  9 18  1  0  0  0  0
 10 16  2  0  0  0  0
 12 11  1  6  0  0  0
 12 10  1  0  0  0  0
 12  8  1  0  0  0  0
 13 11  1  1  0  0  0
 13 17  1  0  0  0  0
 14  9  2  0  0  0  0
 15  9  1  0  0  0  0
 16 14  1  0  0  0  0
 17 10  1  0  0  0  0
 18 21  1  0  0  0  0
 19 21  1  0  0  0  0
 21 20  2  0  0  0  0
 22 19  1  1  0  0  0
 22 24  1  0  0  0  0
 23 27  1  1  0  0  0
 23 26  1  0  0  0  0
 23 22  1  0  0  0  0
 25 24  1  0  0  0  0
 26 25  1  0  0  0  0
 28 27  1  0  0  0  0
 30 29  1  6  0  0  0
 30 28  1  0  0  0  0
 31 30  1  0  0  0  0
 33 32  1  0  0  0  0
 34 32  2  0  0  0  0
 35  2  1  6  0  0  0
 35 38  1  0  0  0  0
 36 35  1  0  0  0  0
 37 36  1  0  0  0  0
 38 39  1  0  0  0  0
 39 40  1  0  0  0  0
 40 41  1  0  0  0  0
 44 45  1  0  0  0  0
 44 47  1  0  0  0  0
 45 46  1  0  0  0  0
 46 42  1  1  0  0  0
 46 43  1  0  0  0  0
 47 51  1  6  0  0  0
 47 48  1  0  0  0  0
 48 43  1  0  0  0  0
 49 50  2  0  0  0  0
 51 49  1  0  0  0  0
 52 49  1  0  0  0  0
 53 57  1  0  0  0  0
 54 52  1  6  0  0  0
 54 53  1  0  0  0  0
 55 54  1  0  0  0  0
 55 58  1  0  0  0  0
 56 59  2  0  0  0  0
 57 56  1  0  0  0  0
 58 61  1  6  0  0  0
 58 56  1  0  0  0  0
 61 60  1  0  0  0  0
 62 61  2  0  0  0  0
 63 55  1  0  0  0  0
 63 64  1  0  0  0  0
M  END
>  <MODEL>
1

>  <REMARK>
 VINA RESULT:      -8.1      0.000      0.000
  Name = 
  20 active torsions:
  status: ('A' for Active; 'I' for Inactive)
    1  A    between atoms: C_1  and  C_38
    2  A    between atoms: N_5  and  C_6
    3  A    between atoms: C_7  and  C_47
    4  A    between atoms: C_13  and  C_51
    5  A    between atoms: C_14  and  C_38
    6  A    between atoms: C_14  and  C_47
    7  A    between atoms: C_15  and  N_50
    8  A    between atoms: C_16  and  O_55
    9  A    between atoms: C_17  and  C_51
   10  A    between atoms: C_18  and  C_30
   11  A    between atoms: N_19  and  C_28
   12  A    between atoms: C_21  and  O_35
   13  A    between atoms: C_25  and  N_50
   14  A    between atoms: N_27  and  C_33
   15  A    between atoms: C_29  and  C_36
   16  A    between atoms: O_32  and  C_47
   17  A    between atoms: O_35  and  C_43
   18  A    between atoms: C_41  and  N_57
   19  A    between atoms: O_55  and  C_56
   20  A    between atoms: C_56  and  C_63
                            x       y       z     vdW  Elec       q    Type
                         _______ _______ _______ _____ _____    ______ ____

>  <TORSDO>
F 20

$$$$
=
 OpenBabel11032421233D

 64 70  0  0  1  0  0  0  0  0999 V2000
  183.2340  176.8380  137.9000 C   0  0  2  0  0  3  0  0  0  0  0  0
  181.5220  178.9480  137.2850 C   0  0  0  0  0  3  0  0  0  0  0  0
  185.0490  178.4000  137.9810 C   0  0  1  0  0  3  0  0  0  0  0  0
  184.0060  177.7260  137.1010 C   0  0  2  0  0  0  0  0  0  0  0  0
  182.5630  178.1180  137.3870 C   0  0  0  0  0  0  0  0  0  0  0  0
  184.9620  177.8000  139.3100 N   0  0  2  0  0  0  0  0  0  0  0  0
  183.7050  177.0490  139.3260 C   0  0  0  0  0  2  0  0  0  0  0  0
  186.3840  177.7840  143.3540 C   0  0  0  0  0  3  0  0  0  0  0  0
  185.0710  178.1340  145.4690 C   0  0  0  0  0  0  0  0  0  0  0  0
  184.2620  178.6730  142.5380 C   0  0  0  0  0  0  0  0  0  0  0  0
  186.1530  178.9220  141.1600 C   0  0  0  0  0  2  0  0  0  0  0  0
  185.7160  178.9000  142.6210 C   0  0  2  0  0  3  0  0  0  0  0  0
  184.8820  178.8890  140.2910 C   0  0  2  0  0  3  0  0  0  0  0  0
  183.9070  178.6050  144.9910 C   0  0  0  0  0  3  0  0  0  0  0  0
  186.1040  177.4800  144.6240 C   0  0  0  0  0  3  0  0  0  0  0  0
  183.4490  178.6110  143.5880 C   0  0  0  0  0  3  0  0  0  0  0  0
  183.7750  178.6770  141.2130 N   0  0  0  0  0  2  0  0  0  0  0  0
  185.2740  178.2620  146.8500 O   0  0  0  0  0  0  0  0  0  0  0  0
  187.3460  178.7070  148.0460 N   0  0  0  0  0  2  0  0  0  0  0  0
  185.8850  180.4160  147.4590 O   0  0  0  0  0  0  0  0  0  0  0  0
  186.1370  179.1810  147.4580 C   0  0  0  0  0  0  0  0  0  0  0  0
  188.6180  178.7760  147.3460 C   0  0  2  0  0  3  0  0  0  0  0  0
  188.6760  177.7020  146.2970 C   0  0  2  0  0  3  0  0  0  0  0  0
  189.7100  178.3330  148.2860 C   0  0  0  0  0  2  0  0  0  0  0  0
  189.7070  176.9340  148.3150 O   0  0  0  0  0  0  0  0  0  0  0  0
  189.2370  176.5110  147.0540 C   0  0  0  0  0  2  0  0  0  0  0  0
  189.5880  178.0720  145.3040 O   0  0  0  0  0  0  0  0  0  0  0  0
  190.2620  176.8950  144.9590 C   0  0  0  0  0  2  0  0  0  0  0  0
  189.9870  178.0450  142.7820 C   0  0  0  0  0  1  0  0  0  0  0  0
  190.2210  176.7050  143.4520 C   0  0  2  0  0  3  0  0  0  0  0  0
  189.1930  175.8270  143.1050 O   0  0  0  0  0  1  0  0  0  0  0  0
  184.3050  177.2290  135.7130 C   0  0  0  0  0  0  0  0  0  0  0  0
  183.7420  175.9320  135.2400 C   0  0  0  0  0  1  0  0  0  0  0  0
  185.0400  177.8710  134.9780 O   0  0  0  0  0  0  0  0  0  0  0  0
  180.2040  178.6540  137.9370 C   0  0  2  0  0  3  0  0  0  0  0  0
  180.2510  178.9680  139.2980 O   0  0  0  0  0  0  0  0  0  0  0  0
  180.2940  177.8010  139.9080 O   0  0  0  0  0  1  0  0  0  0  0  0
  179.8260  177.1900  137.7420 C   0  0  0  0  0  2  0  0  0  0  0  0
  179.5180  176.8870  136.2810 C   0  0  0  0  0  2  0  0  0  0  0  0
  179.0300  175.4550  136.1120 C   0  0  0  0  0  2  0  0  0  0  0  0
  179.0020  175.0700  134.6450 C   0  0  0  0  0  1  0  0  0  0  0  0
  186.3960  178.2260  137.4520 N   0  0  0  0  0  2  0  0  0  0  0  0
  187.1920  175.9080  137.4960 C   0  0  0  0  0  2  0  0  0  0  0  0
  189.6150  177.1400  138.0640 C   0  0  0  0  0  2  0  0  0  0  0  0
  188.4070  177.7540  138.7750 C   0  0  0  0  0  2  0  0  0  0  0  0
  187.0530  177.2210  138.2750 C   0  0  1  0  0  3  0  0  0  0  0  0
  189.3390  176.9810  136.5720 C   0  0  2  0  0  3  0  0  0  0  0  0
  188.1600  176.0290  136.3100 C   0  0  0  0  0  2  0  0  0  0  0  0
  190.9280  175.1160  135.9460 C   0  0  0  0  0  0  0  0  0  0  0  0
  190.2600  174.2750  136.6050 O   0  0  0  0  0  0  0  0  0  0  0  0
  190.5340  176.4880  135.9040 N   0  0  0  0  0  2  0  0  0  0  0  0
  192.1430  174.6840  135.2000 C   0  0  0  0  0  2  0  0  0  0  0  0
  193.5030  172.7900  135.9930 C   0  0  0  0  0  2  0  0  0  0  0  0
  193.2620  174.2840  136.1590 C   0  0  1  0  0  3  0  0  0  0  0  0
  194.5020  175.0210  135.8420 N   0  0  0  0  0  0  0  0  0  0  0  0
  195.6430  173.1790  137.1160 C   0  0  0  0  0  0  0  0  0  0  0  0
  194.5420  172.3650  136.8580 O   0  0  0  0  0  0  0  0  0  0  0  0
  195.6560  174.6260  136.6800 C   0  0  1  0  0  3  0  0  0  0  0  0
  196.6030  172.7170  137.7890 O   0  0  0  0  0  0  0  0  0  0  0  0
  197.6150  175.9440  136.3080 O   0  0  0  0  0  1  0  0  0  0  0  0
  196.9370  174.9410  135.9650 C   0  0  0  0  0  0  0  0  0  0  0  0
  197.3790  174.1290  134.9250 O   0  0  0  0  0  0  0  0  0  0  0  0
  194.2820  176.4600  136.0430 C   0  0  0  0  0  2  0  0  0  0  0  0
  193.7880  176.7240  137.3280 O   0  0  0  0  0  1  0  0  0  0  0  0
  1  7  1  1  0  0  0
  2  5  2  0  0  0  0
  3 42  1  6  0  0  0
  3  6  1  0  0  0  0
  4 32  1  6  0  0  0
  4  5  1  0  0  0  0
  4  1  1  0  0  0  0
  4  3  1  0  0  0  0
  5  1  1  0  0  0  0
  6  7  1  6  0  0  0
  6 13  1  0  0  0  0
  8 15  2  0  0  0  0
  9 18  1  0  0  0  0
 10 12  1  0  0  0  0
 10 16  2  0  0  0  0
 12 11  1  6  0  0  0
 12  8  1  0  0  0  0
 13 11  1  1  0  0  0
 13 17  1  0  0  0  0
 14  9  2  0  0  0  0
 15  9  1  0  0  0  0
 16 14  1  0  0  0  0
 17 10  1  0  0  0  0
 18 21  1  0  0  0  0
 21 20  2  0  0  0  0
 21 19  1  0  0  0  0
 22 19  1  1  0  0  0
 22 24  1  0  0  0  0
 23 27  1  6  0  0  0
 23 26  1  0  0  0  0
 23 22  1  0  0  0  0
 24 25  1  0  0  0  0
 26 25  1  0  0  0  0
 28 27  1  0  0  0  0
 30 29  1  6  0  0  0
 30 28  1  0  0  0  0
 31 30  1  0  0  0  0
 33 32  1  0  0  0  0
 34 32  2  0  0  0  0
 35  2  1  1  0  0  0
 35 36  1  0  0  0  0
 36 37  1  0  0  0  0
 38 35  1  0  0  0  0
 39 38  1  0  0  0  0
 40 39  1  0  0  0  0
 41 40  1  0  0  0  0
 43 46  1  0  0  0  0
 44 45  1  0  0  0  0
 46 42  1  6  0  0  0
 46 45  1  0  0  0  0
 47 51  1  6  0  0  0
 47 44  1  0  0  0  0
 48 47  1  0  0  0  0
 48 43  1  0  0  0  0
 49 50  2  0  0  0  0
 51 49  1  0  0  0  0
 52 49  1  0  0  0  0
 53 54  1  0  0  0  0
 53 57  1  0  0  0  0
 54 52  1  6  0  0  0
 55 63  1  0  0  0  0
 55 54  1  0  0  0  0
 55 58  1  0  0  0  0
 56 59  2  0  0  0  0
 57 56  1  0  0  0  0
 58 61  1  6  0  0  0
 58 56  1  0  0  0  0
 61 60  1  0  0  0  0
 62 61  2  0  0  0  0
 63 64  1  0  0  0  0
M  END
>  <MODEL>
2

>  <REMARK>
 VINA RESULT:      -6.2      1.593      2.221
  Name = 
  20 active torsions:
  status: ('A' for Active; 'I' for Inactive)
    1  A    between atoms: C_1  and  C_38
    2  A    between atoms: N_5  and  C_6
    3  A    between atoms: C_7  and  C_47
    4  A    between atoms: C_13  and  C_51
    5  A    between atoms: C_14  and  C_38
    6  A    between atoms: C_14  and  C_47
    7  A    between atoms: C_15  and  N_50
    8  A    between atoms: C_16  and  O_55
    9  A    between atoms: C_17  and  C_51
   10  A    between atoms: C_18  and  C_30
   11  A    between atoms: N_19  and  C_28
   12  A    between atoms: C_21  and  O_35
   13  A    between atoms: C_25  and  N_50
   14  A    between atoms: N_27  and  C_33
   15  A    between atoms: C_29  and  C_36
   16  A    between atoms: O_32  and  C_47
   17  A    between atoms: O_35  and  C_43
   18  A    between atoms: C_41  and  N_57
   19  A    between atoms: O_55  and  C_56
   20  A    between atoms: C_56  and  C_63
                            x       y       z     vdW  Elec       q    Type
                         _______ _______ _______ _____ _____    ______ ____

>  <TORSDO>
F 20

$$$$
=
 OpenBabel11032421233D

 64 70  0  0  1  0  0  0  0  0999 V2000
  183.2800  176.8580  137.9490 C   0  0  2  0  0  3  0  0  0  0  0  0
  181.5970  178.9820  137.3010 C   0  0  0  0  0  3  0  0  0  0  0  0
  185.1210  178.3910  137.9740 C   0  0  1  0  0  3  0  0  0  0  0  0
  184.0580  177.7130  137.1220 C   0  0  2  0  0  0  0  0  0  0  0  0
  182.6240  178.1370  137.4120 C   0  0  0  0  0  0  0  0  0  0  0  0
  185.0390  177.8250  139.3190 N   0  0  2  0  0  0  0  0  0  0  0  0
  183.7690  177.0960  139.3650 C   0  0  0  0  0  2  0  0  0  0  0  0
  186.3130  177.8180  143.4110 C   0  0  0  0  0  3  0  0  0  0  0  0
  184.9490  178.2890  145.4690 C   0  0  0  0  0  0  0  0  0  0  0  0
  184.2760  178.8080  142.5000 C   0  0  0  0  0  0  0  0  0  0  0  0
  186.2260  178.9180  141.1880 C   0  0  0  0  0  2  0  0  0  0  0  0
  185.7370  178.9540  142.6320 C   0  0  2  0  0  3  0  0  0  0  0  0
  184.9860  178.9380  140.2740 C   0  0  2  0  0  3  0  0  0  0  0  0
  183.8320  178.8150  144.9390 C   0  0  0  0  0  3  0  0  0  0  0  0
  185.9720  177.5590  144.6760 C   0  0  0  0  0  3  0  0  0  0  0  0
  183.4240  178.8150  143.5210 C   0  0  0  0  0  3  0  0  0  0  0  0
  183.8370  178.8100  141.1580 N   0  0  0  0  0  2  0  0  0  0  0  0
  185.1100  178.4360  146.8540 O   0  0  0  0  0  0  0  0  0  0  0  0
  187.2990  178.6280  147.8990 N   0  0  0  0  0  2  0  0  0  0  0  0
  185.9110  180.4720  147.6260 O   0  0  0  0  0  0  0  0  0  0  0  0
  186.0800  179.2320  147.4750 C   0  0  0  0  0  0  0  0  0  0  0  0
  188.5110  178.7000  147.1000 C   0  0  2  0  0  3  0  0  0  0  0  0
  188.6470  177.4500  146.2760 C   0  0  2  0  0  3  0  0  0  0  0  0
  189.7010  178.5850  148.0160 C   0  0  0  0  0  2  0  0  0  0  0  0
  189.8800  177.2290  148.3160 O   0  0  0  0  0  0  0  0  0  0  0  0
  189.3980  176.5100  147.2030 C   0  0  0  0  0  2  0  0  0  0  0  0
  189.4470  177.7140  145.1610 O   0  0  0  0  0  0  0  0  0  0  0  0
  190.0210  176.4860  144.8130 C   0  0  0  0  0  2  0  0  0  0  0  0
  190.7720  177.9740  142.9810 C   0  0  0  0  0  1  0  0  0  0  0  0
  190.4990  176.5360  143.3720 C   0  0  2  0  0  3  0  0  0  0  0  0
  189.5290  176.0000  142.5240 O   0  0  0  0  0  1  0  0  0  0  0  0
  184.3340  177.1790  135.7430 C   0  0  0  0  0  0  0  0  0  0  0  0
  185.3450  177.8390  134.8680 C   0  0  0  0  0  1  0  0  0  0  0  0
  183.7060  176.2210  135.3200 O   0  0  0  0  0  0  0  0  0  0  0  0
  180.2810  178.7250  137.9740 C   0  0  2  0  0  3  0  0  0  0  0  0
  179.2880  179.5480  137.4360 O   0  0  0  0  0  0  0  0  0  0  0  0
  179.4060  180.6840  138.0940 O   0  0  0  0  0  1  0  0  0  0  0  0
  180.3980  178.9430  139.4780 C   0  0  0  0  0  2  0  0  0  0  0  0
  180.1640  177.6490  140.2470 C   0  0  0  0  0  2  0  0  0  0  0  0
  180.0250  177.9170  141.7380 C   0  0  0  0  0  2  0  0  0  0  0  0
  179.2720  179.2120  141.9800 C   0  0  0  0  0  1  0  0  0  0  0  0
  186.4590  178.1830  137.4360 N   0  0  0  0  0  2  0  0  0  0  0  0
  187.2960  175.8830  137.5800 C   0  0  0  0  0  2  0  0  0  0  0  0
  189.6910  177.1810  138.1230 C   0  0  0  0  0  2  0  0  0  0  0  0
  188.4640  177.8000  138.7970 C   0  0  0  0  0  2  0  0  0  0  0  0
  187.1250  177.2230  138.3050 C   0  0  1  0  0  3  0  0  0  0  0  0
  189.4340  176.9580  136.6360 C   0  0  2  0  0  3  0  0  0  0  0  0
  188.2750  175.9750  136.4000 C   0  0  0  0  0  2  0  0  0  0  0  0
  191.7090  175.8580  136.7380 C   0  0  0  0  0  0  0  0  0  0  0  0
  191.6480  175.7650  137.9940 O   0  0  0  0  0  0  0  0  0  0  0  0
  190.6450  176.4620  136.0010 N   0  0  0  0  0  2  0  0  0  0  0  0
  192.8970  175.3350  136.0080 C   0  0  0  0  0  2  0  0  0  0  0  0
  192.6060  172.9940  135.3030 C   0  0  0  0  0  2  0  0  0  0  0  0
  193.1830  173.8850  136.3930 C   0  0  1  0  0  3  0  0  0  0  0  0
  194.6380  173.6560  136.4980 N   0  0  0  0  0  0  0  0  0  0  0  0
  194.0370  171.2310  136.2170 C   0  0  0  0  0  0  0  0  0  0  0  0
  192.8510  171.6310  135.6060 O   0  0  0  0  0  0  0  0  0  0  0  0
  194.9960  172.2500  136.7900 C   0  0  1  0  0  3  0  0  0  0  0  0
  194.2720  170.0010  136.3570 O   0  0  0  0  0  0  0  0  0  0  0  0
  196.6850  172.1190  135.1040 O   0  0  0  0  0  0  0  0  0  0  0  0
  196.3930  171.9710  136.3200 C   0  0  0  0  0  0  0  0  0  0  0  0
  197.3670  171.5510  137.2190 O   0  0  0  0  0  1  0  0  0  0  0  0
  195.1880  174.4860  137.5800 C   0  0  0  0  0  2  0  0  0  0  0  0
  196.4890  174.9140  137.2790 O   0  0  0  0  0  1  0  0  0  0  0  0
  1  7  1  1  0  0  0
  2  5  2  0  0  0  0
  3 42  1  6  0  0  0
  3  6  1  0  0  0  0
  4 32  1  6  0  0  0
  4  5  1  0  0  0  0
  4  1  1  0  0  0  0
  4  3  1  0  0  0  0
  5  1  1  0  0  0  0
  6  7  1  6  0  0  0
  6 13  1  0  0  0  0
  8 15  2  0  0  0  0
  9 18  1  0  0  0  0
 10 12  1  0  0  0  0
 10 16  2  0  0  0  0
 12 11  1  6  0  0  0
 12  8  1  0  0  0  0
 13 17  1  0  0  0  0
 13 11  1  1  0  0  0
 14  9  2  0  0  0  0
 15  9  1  0  0  0  0
 16 14  1  0  0  0  0
 17 10  1  0  0  0  0
 18 21  1  0  0  0  0
 21 20  2  0  0  0  0
 21 19  1  0  0  0  0
 22 19  1  1  0  0  0
 22 24  1  0  0  0  0
 23 27  1  6  0  0  0
 23 22  1  0  0  0  0
 23 26  1  0  0  0  0
 24 25  1  0  0  0  0
 26 25  1  0  0  0  0
 28 27  1  0  0  0  0
 30 29  1  6  0  0  0
 30 28  1  0  0  0  0
 31 30  1  0  0  0  0
 33 32  1  0  0  0  0
 34 32  2  0  0  0  0
 35  2  1  6  0  0  0
 35 38  1  0  0  0  0
 36 35  1  0  0  0  0
 36 37  1  0  0  0  0
 38 39  1  0  0  0  0
 39 40  1  0  0  0  0
 40 41  1  0  0  0  0
 43 46  1  0  0  0  0
 44 45  1  0  0  0  0
 46 42  1  6  0  0  0
 46 45  1  0  0  0  0
 47 51  1  1  0  0  0
 47 44  1  0  0  0  0
 48 47  1  0  0  0  0
 48 43  1  0  0  0  0
 49 50  2  0  0  0  0
 51 49  1  0  0  0  0
 52 49  1  0  0  0  0
 53 57  1  0  0  0  0
 53 54  1  0  0  0  0
 54 52  1  6  0  0  0
 54 55  1  0  0  0  0
 55 58  1  0  0  0  0
 55 63  1  0  0  0  0
 56 59  2  0  0  0  0
 56 58  1  0  0  0  0
 57 56  1  0  0  0  0
 58 61  1  6  0  0  0
 60 61  2  0  0  0  0
 61 62  1  0  0  0  0
 64 63  1  0  0  0  0
M  END
>  <MODEL>
3

>  <REMARK>
 VINA RESULT:      -5.7      1.438      2.035
  Name = 
  20 active torsions:
  status: ('A' for Active; 'I' for Inactive)
    1  A    between atoms: C_1  and  C_38
    2  A    between atoms: N_5  and  C_6
    3  A    between atoms: C_7  and  C_47
    4  A    between atoms: C_13  and  C_51
    5  A    between atoms: C_14  and  C_38
    6  A    between atoms: C_14  and  C_47
    7  A    between atoms: C_15  and  N_50
    8  A    between atoms: C_16  and  O_55
    9  A    between atoms: C_17  and  C_51
   10  A    between atoms: C_18  and  C_30
   11  A    between atoms: N_19  and  C_28
   12  A    between atoms: C_21  and  O_35
   13  A    between atoms: C_25  and  N_50
   14  A    between atoms: N_27  and  C_33
   15  A    between atoms: C_29  and  C_36
   16  A    between atoms: O_32  and  C_47
   17  A    between atoms: O_35  and  C_43
   18  A    between atoms: C_41  and  N_57
   19  A    between atoms: O_55  and  C_56
   20  A    between atoms: C_56  and  C_63
                            x       y       z     vdW  Elec       q    Type
                         _______ _______ _______ _____ _____    ______ ____

>  <TORSDO>
F 20

$$$$
=
 OpenBabel11032421233D

 64 70  0  0  1  0  0  0  0  0999 V2000
  188.7280  176.5380  143.9350 C   0  0  2  0  0  3  0  0  0  0  0  0
  190.0830  178.8660  144.6470 C   0  0  0  0  0  3  0  0  0  0  0  0
  187.2300  177.8720  142.6240 C   0  0  1  0  0  3  0  0  0  0  0  0
  187.7250  177.5430  144.0240 C   0  0  2  0  0  0  0  0  0  0  0  0
  189.1600  177.9580  144.3210 C   0  0  0  0  0  0  0  0  0  0  0  0
  187.8780  176.9470  141.6960 N   0  0  2  0  0  0  0  0  0  0  0  0
  188.9650  176.3230  142.4520 C   0  0  0  0  0  2  0  0  0  0  0  0
  189.5440  175.4950  138.0230 C   0  0  0  0  0  3  0  0  0  0  0  0
  191.8730  175.8150  137.1340 C   0  0  0  0  0  0  0  0  0  0  0  0
  190.4350  177.2630  139.4520 C   0  0  0  0  0  0  0  0  0  0  0  0
  188.0960  177.1030  139.2410 C   0  0  0  0  0  2  0  0  0  0  0  0
  189.3960  176.9130  138.4660 C   0  0  2  0  0  3  0  0  0  0  0  0
  188.4500  177.7380  140.5990 C   0  0  2  0  0  3  0  0  0  0  0  0
  192.3430  176.7770  137.9460 C   0  0  0  0  0  3  0  0  0  0  0  0
  190.6370  175.0370  137.4090 C   0  0  0  0  0  3  0  0  0  0  0  0
  191.7400  177.2680  139.2000 C   0  0  0  0  0  3  0  0  0  0  0  0
  189.9040  177.7450  140.6690 N   0  0  0  0  0  2  0  0  0  0  0  0
  192.6310  175.5440  135.9870 O   0  0  0  0  0  0  0  0  0  0  0  0
  194.9700  175.6560  136.6530 N   0  0  0  0  0  2  0  0  0  0  0  0
  194.1980  176.7020  134.7260 O   0  0  0  0  0  0  0  0  0  0  0  0
  193.9290  176.0110  135.7470 C   0  0  0  0  0  0  0  0  0  0  0  0
  195.8820  174.5580  136.3820 C   0  0  2  0  0  3  0  0  0  0  0  0
  196.0350  173.7130  137.6160 C   0  0  2  0  0  3  0  0  0  0  0  0
  197.2740  175.1130  136.2270 C   0  0  0  0  0  2  0  0  0  0  0  0
  197.7900  175.3370  137.5090 O   0  0  0  0  0  0  0  0  0  0  0  0
  197.1780  174.3880  138.3540 C   0  0  0  0  0  2  0  0  0  0  0  0
  196.4360  172.4250  137.2490 O   0  0  0  0  0  0  0  0  0  0  0  0
  195.6010  171.5570  137.9620 C   0  0  0  0  0  2  0  0  0  0  0  0
  196.6200  170.1740  136.1780 C   0  0  0  0  0  1  0  0  0  0  0  0
  195.6030  170.1880  137.3010 C   0  0  2  0  0  3  0  0  0  0  0  0
  194.3390  169.9010  136.7860 O   0  0  0  0  0  1  0  0  0  0  0  0
  186.8050  177.4130  145.2070 C   0  0  0  0  0  0  0  0  0  0  0  0
  186.3570  178.6260  145.9490 C   0  0  0  0  0  1  0  0  0  0  0  0
  186.4470  176.3090  145.5880 O   0  0  0  0  0  0  0  0  0  0  0  0
  191.5360  178.5130  144.7640 C   0  0  2  0  0  3  0  0  0  0  0  0
  192.0760  178.2410  143.5040 O   0  0  0  0  0  0  0  0  0  0  0  0
  192.0870  176.9260  143.4250 O   0  0  0  0  0  1  0  0  0  0  0  0
  191.7240  177.3200  145.6940 C   0  0  0  0  0  2  0  0  0  0  0  0
  190.6220  177.2540  146.7430 C   0  0  0  0  0  2  0  0  0  0  0  0
  190.8800  176.1300  147.7350 C   0  0  0  0  0  2  0  0  0  0  0  0
  192.0740  175.2990  147.3040 C   0  0  0  0  0  1  0  0  0  0  0  0
  185.7830  177.7390  142.5170 N   0  0  0  0  0  2  0  0  0  0  0  0
  184.9760  179.3460  140.8500 C   0  0  0  0  0  2  0  0  0  0  0  0
  182.6760  179.2410  142.4040 C   0  0  0  0  0  2  0  0  0  0  0  0
  183.9820  179.2590  143.2010 C   0  0  0  0  0  2  0  0  0  0  0  0
  185.2420  179.0800  142.3360 C   0  0  1  0  0  3  0  0  0  0  0  0
  182.7280  178.1810  141.3070 C   0  0  2  0  0  3  0  0  0  0  0  0
  183.8450  178.4700  140.2900 C   0  0  0  0  0  2  0  0  0  0  0  0
  180.5370  179.2200  140.5910 C   0  0  0  0  0  0  0  0  0  0  0  0
  180.8110  180.2970  141.1860 O   0  0  0  0  0  0  0  0  0  0  0  0
  181.4430  178.1160  140.6290 N   0  0  0  0  0  2  0  0  0  0  0  0
  179.2580  179.0870  139.8380 C   0  0  0  0  0  2  0  0  0  0  0  0
  180.2980  180.7180  138.3140 C   0  0  0  0  0  2  0  0  0  0  0  0
  179.4470  179.4570  138.3680 C   0  0  1  0  0  3  0  0  0  0  0  0
  180.1340  178.3680  137.6460 N   0  0  0  0  0  0  0  0  0  0  0  0
  180.6910  180.1530  135.9650 C   0  0  0  0  0  0  0  0  0  0  0  0
  180.5140  181.1040  136.9680 O   0  0  0  0  0  0  0  0  0  0  0  0
  180.4260  178.6890  136.2300 C   0  0  1  0  0  3  0  0  0  0  0  0
  181.0030  180.5340  134.8050 O   0  0  0  0  0  0  0  0  0  0  0  0
  181.5400  177.3490  134.5940 O   0  0  0  0  0  0  0  0  0  0  0  0
  181.5760  177.8570  135.7460 C   0  0  0  0  0  0  0  0  0  0  0  0
  182.6830  177.6440  136.5610 O   0  0  0  0  0  1  0  0  0  0  0  0
  179.2930  177.1630  137.6610 C   0  0  0  0  0  2  0  0  0  0  0  0
  179.8370  176.1750  138.4950 O   0  0  0  0  0  1  0  0  0  0  0  0
  1  7  1  6  0  0  0
  1  4  1  0  0  0  0
  1  5  1  0  0  0  0
  3 42  1  1  0  0  0
  3  4  1  0  0  0  0
  4  5  1  0  0  0  0
  4 32  1  1  0  0  0
  5  2  2  0  0  0  0
  6  7  1  1  0  0  0
  6  3  1  0  0  0  0
  9 15  1  0  0  0  0
  9 14  2  0  0  0  0
 10 17  1  0  0  0  0
 12  8  1  1  0  0  0
 12 11  1  0  0  0  0
 12 10  1  0  0  0  0
 13 11  1  6  0  0  0
 13 17  1  0  0  0  0
 13  6  1  0  0  0  0
 14 16  1  0  0  0  0
 15  8  2  0  0  0  0
 16 10  2  0  0  0  0
 18  9  1  0  0  0  0
 20 21  2  0  0  0  0
 21 18  1  0  0  0  0
 21 19  1  0  0  0  0
 22 19  1  1  0  0  0
 22 23  1  0  0  0  0
 23 27  1  6  0  0  0
 23 26  1  0  0  0  0
 24 22  1  0  0  0  0
 24 25  1  0  0  0  0
 25 26  1  0  0  0  0
 27 28  1  0  0  0  0
 30 29  1  6  0  0  0
 30 28  1  0  0  0  0
 31 30  1  0  0  0  0
 32 34  2  0  0  0  0
 32 33  1  0  0  0  0
 35  2  1  6  0  0  0
 35 38  1  0  0  0  0
 36 35  1  0  0  0  0
 37 36  1  0  0  0  0
 38 39  1  0  0  0  0
 39 40  1  0  0  0  0
 41 40  1  0  0  0  0
 43 46  1  0  0  0  0
 44 45  1  0  0  0  0
 46 42  1  6  0  0  0
 46 45  1  0  0  0  0
 47 51  1  6  0  0  0
 47 44  1  0  0  0  0
 48 43  1  0  0  0  0
 48 47  1  0  0  0  0
 49 51  1  0  0  0  0
 49 50  2  0  0  0  0
 52 49  1  0  0  0  0
 53 54  1  0  0  0  0
 54 52  1  1  0  0  0
 55 63  1  0  0  0  0
 55 54  1  0  0  0  0
 56 58  1  0  0  0  0
 56 57  1  0  0  0  0
 57 53  1  0  0  0  0
 58 61  1  1  0  0  0
 58 55  1  0  0  0  0
 59 56  2  0  0  0  0
 60 61  2  0  0  0  0
 61 62  1  0  0  0  0
 63 64  1  0  0  0  0
M  END
>  <MODEL>
4

>  <REMARK>
 VINA RESULT:      -5.5      2.215     11.300
  Name = 
  20 active torsions:
  status: ('A' for Active; 'I' for Inactive)
    1  A    between atoms: C_1  and  C_38
    2  A    between atoms: N_5  and  C_6
    3  A    between atoms: C_7  and  C_47
    4  A    between atoms: C_13  and  C_51
    5  A    between atoms: C_14  and  C_38
    6  A    between atoms: C_14  and  C_47
    7  A    between atoms: C_15  and  N_50
    8  A    between atoms: C_16  and  O_55
    9  A    between atoms: C_17  and  C_51
   10  A    between atoms: C_18  and  C_30
   11  A    between atoms: N_19  and  C_28
   12  A    between atoms: C_21  and  O_35
   13  A    between atoms: C_25  and  N_50
   14  A    between atoms: N_27  and  C_33
   15  A    between atoms: C_29  and  C_36
   16  A    between atoms: O_32  and  C_47
   17  A    between atoms: O_35  and  C_43
   18  A    between atoms: C_41  and  N_57
   19  A    between atoms: O_55  and  C_56
   20  A    between atoms: C_56  and  C_63
                            x       y       z     vdW  Elec       q    Type
                         _______ _______ _______ _____ _____    ______ ____

>  <TORSDO>
F 20

$$$$
=
 OpenBabel11032421233D

 64 70  0  0  1  0  0  0  0  0999 V2000
  190.0450  174.9840  135.4130 C   0  0  2  0  0  3  0  0  0  0  0  0
  191.9820  174.6350  137.3850 C   0  0  0  0  0  3  0  0  0  0  0  0
  188.4970  175.6390  137.1210 C   0  0  1  0  0  3  0  0  0  0  0  0
  189.3390  174.5060  136.5510 C   0  0  2  0  0  0  0  0  0  0  0  0
  190.8450  174.6840  136.6870 C   0  0  0  0  0  0  0  0  0  0  0  0
  188.6220  176.7810  136.2180 N   0  0  2  0  0  0  0  0  0  0  0  0
  189.7510  176.4700  135.3380 C   0  0  0  0  0  2  0  0  0  0  0  0
  190.7530  176.8760  139.9360 C   0  0  0  0  0  3  0  0  0  0  0  0
  189.9680  177.7460  142.1600 C   0  0  0  0  0  0  0  0  0  0  0  0
  188.7450  178.1370  139.3510 C   0  0  0  0  0  0  0  0  0  0  0  0
  190.3500  177.7920  137.6640 C   0  0  0  0  0  2  0  0  0  0  0  0
  190.2040  178.0300  139.1630 C   0  0  2  0  0  3  0  0  0  0  0  0
  188.9580  177.9600  137.0270 C   0  0  2  0  0  3  0  0  0  0  0  0
  188.8590  178.4190  141.8110 C   0  0  0  0  0  3  0  0  0  0  0  0
  190.6630  176.7840  141.2650 C   0  0  0  0  0  3  0  0  0  0  0  0
  188.1530  178.3780  140.5160 C   0  0  0  0  0  3  0  0  0  0  0  0
  188.0270  178.1090  138.1360 N   0  0  0  0  0  2  0  0  0  0  0  0
  190.4520  177.9740  143.4550 O   0  0  0  0  0  0  0  0  0  0  0  0
  189.8010  177.4330  145.7370 N   0  0  0  0  0  2  0  0  0  0  0  0
  190.8660  175.8830  144.3720 O   0  0  0  0  0  0  0  0  0  0  0  0
  190.4120  177.0510  144.5070 C   0  0  0  0  0  0  0  0  0  0  0  0
  188.4330  177.0650  146.0620 C   0  0  2  0  0  3  0  0  0  0  0  0
  187.6230  178.3060  146.3110 C   0  0  2  0  0  3  0  0  0  0  0  0
  188.4160  176.4190  147.4230 C   0  0  0  0  0  2  0  0  0  0  0  0
  188.4580  177.4400  148.3800 O   0  0  0  0  0  0  0  0  0  0  0  0
  187.8320  178.5600  147.7940 C   0  0  0  0  0  2  0  0  0  0  0  0
  186.2700  178.0300  146.0900 O   0  0  0  0  0  0  0  0  0  0  0  0
  186.1360  177.9040  144.7020 C   0  0  0  0  0  2  0  0  0  0  0  0
  184.9940  179.3190  143.0210 C   0  0  0  0  0  1  0  0  0  0  0  0
  184.7980  178.4750  144.2640 C   0  0  2  0  0  3  0  0  0  0  0  0
  184.2550  179.2620  145.2800 O   0  0  0  0  0  1  0  0  0  0  0  0
  188.8370  173.0930  136.4360 C   0  0  0  0  0  0  0  0  0  0  0  0
  189.1730  172.2700  135.2400 C   0  0  0  0  0  1  0  0  0  0  0  0
  188.1220  172.6240  137.3080 O   0  0  0  0  0  0  0  0  0  0  0  0
  193.2990  175.0320  136.7870 C   0  0  2  0  0  3  0  0  0  0  0  0
  193.2100  176.3000  136.2060 O   0  0  0  0  0  0  0  0  0  0  0  0
  194.0450  177.0440  136.9020 O   0  0  0  0  0  1  0  0  0  0  0  0
  193.7500  174.0040  135.7560 C   0  0  0  0  0  2  0  0  0  0  0  0
  193.2840  172.6020  136.1280 C   0  0  0  0  0  2  0  0  0  0  0  0
  194.4560  171.7330  136.5570 C   0  0  0  0  0  2  0  0  0  0  0  0
  194.9220  170.8580  135.4080 C   0  0  0  0  0  1  0  0  0  0  0  0
  187.0950  175.2620  137.2420 N   0  0  0  0  0  2  0  0  0  0  0  0
  185.5350  174.9770  135.3720 C   0  0  0  0  0  2  0  0  0  0  0  0
  184.0180  176.7770  136.8460 C   0  0  0  0  0  2  0  0  0  0  0  0
  185.5160  177.0890  136.8070 C   0  0  0  0  0  2  0  0  0  0  0  0
  186.3700  175.9660  136.1930 C   0  0  1  0  0  3  0  0  0  0  0  0
  183.7800  175.3180  137.2220 C   0  0  2  0  0  3  0  0  0  0  0  0
  184.3900  174.3570  136.1870 C   0  0  0  0  0  2  0  0  0  0  0  0
  181.4250  175.3710  136.3020 C   0  0  0  0  0  0  0  0  0  0  0  0
  181.8180  175.9000  135.2270 O   0  0  0  0  0  0  0  0  0  0  0  0
  182.3520  175.0730  137.3470 N   0  0  0  0  0  2  0  0  0  0  0  0
  179.9830  175.0490  136.4920 C   0  0  0  0  0  2  0  0  0  0  0  0
  179.5870  174.4630  138.8510 C   0  0  0  0  0  2  0  0  0  0  0  0
  179.4740  175.5860  137.8290 C   0  0  1  0  0  3  0  0  0  0  0  0
  180.2900  176.7350  138.2680 N   0  0  0  0  0  0  0  0  0  0  0  0
  179.3710  176.2120  140.5490 C   0  0  0  0  0  0  0  0  0  0  0  0
  179.1340  174.9090  140.1170 O   0  0  0  0  0  0  0  0  0  0  0  0
  179.9060  177.2590  139.5990 C   0  0  1  0  0  3  0  0  0  0  0  0
  179.0640  176.5340  141.7280 O   0  0  0  0  0  0  0  0  0  0  0  0
  180.8880  179.0900  140.7800 O   0  0  0  0  0  1  0  0  0  0  0  0
  181.0670  177.9780  140.2180 C   0  0  0  0  0  0  0  0  0  0  0  0
  182.3430  177.4230  140.1750 O   0  0  0  0  0  0  0  0  0  0  0  0
  180.1480  177.8350  137.3030 C   0  0  0  0  0  2  0  0  0  0  0  0
  178.9320  177.7470  136.6100 O   0  0  0  0  0  1  0  0  0  0  0  0
  1  7  1  1  0  0  0
  1  4  1  0  0  0  0
  1  5  1  0  0  0  0
  3 42  1  6  0  0  0
  4 32  1  6  0  0  0
  4  5  1  0  0  0  0
  4  3  1  0  0  0  0
  5  2  2  0  0  0  0
  6  7  1  6  0  0  0
  6 13  1  0  0  0  0
  6  3  1  0  0  0  0
  8 15  2  0  0  0  0
  9 18  1  0  0  0  0
 10 16  2  0  0  0  0
 12 11  1  6  0  0  0
 12 10  1  0  0  0  0
 12  8  1  0  0  0  0
 13 11  1  1  0  0  0
 13 17  1  0  0  0  0
 14  9  2  0  0  0  0
 15  9  1  0  0  0  0
 16 14  1  0  0  0  0
 17 10  1  0  0  0  0
 18 21  1  0  0  0  0
 20 21  2  0  0  0  0
 21 19  1  0  0  0  0
 22 19  1  1  0  0  0
 22 23  1  0  0  0  0
 22 24  1  0  0  0  0
 23 27  1  1  0  0  0
 23 26  1  0  0  0  0
 24 25  1  0  0  0  0
 26 25  1  0  0  0  0
 28 27  1  0  0  0  0
 30 29  1  6  0  0  0
 30 28  1  0  0  0  0
 30 31  1  0  0  0  0
 32 34  2  0  0  0  0
 33 32  1  0  0  0  0
 35 38  1  6  0  0  0
 35  2  1  0  0  0  0
 36 35  1  0  0  0  0
 36 37  1  0  0  0  0
 38 39  1  0  0  0  0
 39 40  1  0  0  0  0
 41 40  1  0  0  0  0
 43 48  1  0  0  0  0
 43 46  1  0  0  0  0
 44 47  1  0  0  0  0
 45 44  1  0  0  0  0
 46 45  1  0  0  0  0
 46 42  1  1  0  0  0
 47 51  1  6  0  0  0
 48 47  1  0  0  0  0
 49 52  1  0  0  0  0
 49 51  1  0  0  0  0
 50 49  2  0  0  0  0
 53 57  1  0  0  0  0
 54 52  1  6  0  0  0
 54 55  1  0  0  0  0
 54 53  1  0  0  0  0
 55 58  1  0  0  0  0
 56 59  2  0  0  0  0
 57 56  1  0  0  0  0
 58 61  1  1  0  0  0
 58 56  1  0  0  0  0
 61 60  1  0  0  0  0
 62 61  2  0  0  0  0
 63 55  1  0  0  0  0
 64 63  1  0  0  0  0
M  END
>  <MODEL>
5

>  <REMARK>
 VINA RESULT:      -5.4      2.389      9.894
  Name = 
  20 active torsions:
  status: ('A' for Active; 'I' for Inactive)
    1  A    between atoms: C_1  and  C_38
    2  A    between atoms: N_5  and  C_6
    3  A    between atoms: C_7  and  C_47
    4  A    between atoms: C_13  and  C_51
    5  A    between atoms: C_14  and  C_38
    6  A    between atoms: C_14  and  C_47
    7  A    between atoms: C_15  and  N_50
    8  A    between atoms: C_16  and  O_55
    9  A    between atoms: C_17  and  C_51
   10  A    between atoms: C_18  and  C_30
   11  A    between atoms: N_19  and  C_28
   12  A    between atoms: C_21  and  O_35
   13  A    between atoms: C_25  and  N_50
   14  A    between atoms: N_27  and  C_33
   15  A    between atoms: C_29  and  C_36
   16  A    between atoms: O_32  and  C_47
   17  A    between atoms: O_35  and  C_43
   18  A    between atoms: C_41  and  N_57
   19  A    between atoms: O_55  and  C_56
   20  A    between atoms: C_56  and  C_63
                            x       y       z     vdW  Elec       q    Type
                         _______ _______ _______ _____ _____    ______ ____

>  <TORSDO>
F 20

$$$$
=
 OpenBabel11032421233D

 64 70  0  0  1  0  0  0  0  0999 V2000
  189.0890  178.5690  143.0410 C   0  0  2  0  0  3  0  0  0  0  0  0
  187.9170  177.2030  145.1680 C   0  0  0  0  0  3  0  0  0  0  0  0
  187.6170  177.4060  141.5490 C   0  0  1  0  0  3  0  0  0  0  0  0
  188.7740  177.2800  142.5300 C   0  0  2  0  0  0  0  0  0  0  0  0
  188.4260  177.5590  143.9860 C   0  0  0  0  0  0  0  0  0  0  0  0
  187.3240  178.8290  141.3920 N   0  0  2  0  0  0  0  0  0  0  0  0
  188.0350  179.5040  142.4800 C   0  0  0  0  0  2  0  0  0  0  0  0
  184.1480  176.7280  139.4240 C   0  0  0  0  0  3  0  0  0  0  0  0
  182.3110  177.6690  137.9890 C   0  0  0  0  0  0  0  0  0  0  0  0
  184.2770  179.1240  139.8740 C   0  0  0  0  0  0  0  0  0  0  0  0
  185.1520  177.6590  141.4950 C   0  0  0  0  0  2  0  0  0  0  0  0
  184.0370  177.7940  140.4630 C   0  0  2  0  0  3  0  0  0  0  0  0
  185.8790  179.0140  141.5770 C   0  0  2  0  0  3  0  0  0  0  0  0
  182.4160  178.9840  138.2420 C   0  0  0  0  0  3  0  0  0  0  0  0
  183.3550  176.6740  138.3510 C   0  0  0  0  0  3  0  0  0  0  0  0
  183.5170  179.6800  138.9360 C   0  0  0  0  0  3  0  0  0  0  0  0
  185.3200  179.8320  140.5110 N   0  0  0  0  0  2  0  0  0  0  0  0
  181.1490  177.2540  137.3230 O   0  0  0  0  0  0  0  0  0  0  0  0
  180.2410  175.0200  136.9960 N   0  0  0  0  0  2  0  0  0  0  0  0
  179.6110  176.3410  138.8010 O   0  0  0  0  0  0  0  0  0  0  0  0
  180.2960  176.2290  137.7480 C   0  0  0  0  0  0  0  0  0  0  0  0
  180.9920  173.8380  137.3860 C   0  0  2  0  0  3  0  0  0  0  0  0
  181.3960  173.0700  136.1600 C   0  0  2  0  0  3  0  0  0  0  0  0
  180.0520  172.8660  138.0510 C   0  0  0  0  0  2  0  0  0  0  0  0
  179.3520  172.1920  137.0430 O   0  0  0  0  0  0  0  0  0  0  0  0
  180.2100  172.1520  135.9240 C   0  0  0  0  0  2  0  0  0  0  0  0
  182.5180  172.2880  136.4500 O   0  0  0  0  0  0  0  0  0  0  0  0
  183.4480  173.1640  137.0200 C   0  0  0  0  0  2  0  0  0  0  0  0
  185.8550  173.7090  137.2210 C   0  0  0  0  0  1  0  0  0  0  0  0
  184.8560  172.7080  136.6780 C   0  0  2  0  0  3  0  0  0  0  0  0
  185.0060  172.6060  135.2950 O   0  0  0  0  0  1  0  0  0  0  0  0
  189.9620  176.3910  142.2810 C   0  0  0  0  0  0  0  0  0  0  0  0
  190.2630  175.2610  143.2060 C   0  0  0  0  0  1  0  0  0  0  0  0
  190.7070  176.6130  141.3390 O   0  0  0  0  0  0  0  0  0  0  0  0
  187.8930  178.1420  146.3370 C   0  0  2  0  0  3  0  0  0  0  0  0
  188.7260  177.6740  147.3580 O   0  0  0  0  0  0  0  0  0  0  0  0
  188.0860  176.6380  147.8600 O   0  0  0  0  0  1  0  0  0  0  0  0
  186.4690  178.3190  146.8510 C   0  0  0  0  0  2  0  0  0  0  0  0
  185.6760  179.2780  145.9720 C   0  0  0  0  0  2  0  0  0  0  0  0
  184.7910  178.5180  144.9960 C   0  0  0  0  0  2  0  0  0  0  0  0
  183.3590  179.0130  145.0770 C   0  0  0  0  0  1  0  0  0  0  0  0
  187.9410  176.8260  140.2530 N   0  0  0  0  0  2  0  0  0  0  0  0
  189.5650  178.1770  139.0080 C   0  0  0  0  0  2  0  0  0  0  0  0
  188.1070  177.2570  136.8310 C   0  0  0  0  0  2  0  0  0  0  0  0
  187.2600  177.6500  138.0450 C   0  0  0  0  0  2  0  0  0  0  0  0
  188.0840  177.9300  139.3140 C   0  0  1  0  0  3  0  0  0  0  0  0
  189.2460  176.3300  137.2460 C   0  0  2  0  0  3  0  0  0  0  0  0
  190.2060  177.0170  138.2330 C   0  0  0  0  0  2  0  0  0  0  0  0
  190.7820  174.7160  136.0490 C   0  0  0  0  0  0  0  0  0  0  0  0
  190.9200  174.0180  137.0900 O   0  0  0  0  0  0  0  0  0  0  0  0
  189.9750  175.8940  136.0650 N   0  0  0  0  0  2  0  0  0  0  0  0
  191.4610  174.3140  134.7860 C   0  0  0  0  0  2  0  0  0  0  0  0
  192.9670  176.2450  135.0430 C   0  0  0  0  0  2  0  0  0  0  0  0
  192.9270  174.7450  134.7910 C   0  0  1  0  0  3  0  0  0  0  0  0
  193.6660  174.0460  135.8610 N   0  0  0  0  0  0  0  0  0  0  0  0
  195.3250  175.9180  135.6130 C   0  0  0  0  0  0  0  0  0  0  0  0
  194.3090  176.7000  135.0670 O   0  0  0  0  0  0  0  0  0  0  0  0
  195.0780  174.4730  135.9800 C   0  0  1  0  0  3  0  0  0  0  0  0
  196.4810  176.4070  135.7280 O   0  0  0  0  0  0  0  0  0  0  0  0
  196.2430  173.1530  137.5980 O   0  0  0  0  0  0  0  0  0  0  0  0
  195.5790  174.1980  137.3680 C   0  0  0  0  0  0  0  0  0  0  0  0
  195.3140  175.0910  138.4010 O   0  0  0  0  0  1  0  0  0  0  0  0
  193.6640  172.6000  135.5950 C   0  0  0  0  0  2  0  0  0  0  0  0
  194.5920  172.2650  134.5990 O   0  0  0  0  0  1  0  0  0  0  0  0
  1  7  1  6  0  0  0
  1  5  1  0  0  0  0
  3 42  1  6  0  0  0
  3  4  1  0  0  0  0
  4 32  1  6  0  0  0
  4  1  1  0  0  0  0
  4  5  1  0  0  0  0
  5  2  2  0  0  0  0
  6  3  1  0  0  0  0
  6 13  1  0  0  0  0
  6  7  1  1  0  0  0
  9 14  2  0  0  0  0
  9 15  1  0  0  0  0
 10 12  1  0  0  0  0
 10 17  1  0  0  0  0
 12  8  1  6  0  0  0
 12 11  1  0  0  0  0
 13 11  1  6  0  0  0
 14 16  1  0  0  0  0
 15  8  2  0  0  0  0
 16 10  2  0  0  0  0
 17 13  1  0  0  0  0
 18 21  1  0  0  0  0
 18  9  1  0  0  0  0
 19 21  1  0  0  0  0
 21 20  2  0  0  0  0
 22 19  1  6  0  0  0
 22 24  1  0  0  0  0
 23 27  1  1  0  0  0
 23 22  1  0  0  0  0
 25 24  1  0  0  0  0
 26 23  1  0  0  0  0
 26 25  1  0  0  0  0
 27 28  1  0  0  0  0
 30 28  1  0  0  0  0
 30 29  1  6  0  0  0
 31 30  1  0  0  0  0
 32 33  1  0  0  0  0
 34 32  2  0  0  0  0
 35  2  1  6  0  0  0
 35 38  1  0  0  0  0
 35 36  1  0  0  0  0
 36 37  1  0  0  0  0
 39 38  1  0  0  0  0
 40 41  1  0  0  0  0
 40 39  1  0  0  0  0
 43 46  1  0  0  0  0
 44 47  1  0  0  0  0
 44 45  1  0  0  0  0
 45 46  1  0  0  0  0
 46 42  1  1  0  0  0
 47 51  1  6  0  0  0
 47 48  1  0  0  0  0
 48 43  1  0  0  0  0
 49 51  1  0  0  0  0
 49 50  2  0  0  0  0
 52 49  1  0  0  0  0
 53 57  1  0  0  0  0
 54 52  1  1  0  0  0
 54 53  1  0  0  0  0
 54 55  1  0  0  0  0
 55 58  1  0  0  0  0
 56 59  2  0  0  0  0
 56 58  1  0  0  0  0
 57 56  1  0  0  0  0
 58 61  1  1  0  0  0
 61 60  2  0  0  0  0
 61 62  1  0  0  0  0
 63 55  1  0  0  0  0
 64 63  1  0  0  0  0
M  END
>  <MODEL>
6

>  <REMARK>
 VINA RESULT:      -5.2      2.504      8.000
  Name = 
  20 active torsions:
  status: ('A' for Active; 'I' for Inactive)
    1  A    between atoms: C_1  and  C_38
    2  A    between atoms: N_5  and  C_6
    3  A    between atoms: C_7  and  C_47
    4  A    between atoms: C_13  and  C_51
    5  A    between atoms: C_14  and  C_38
    6  A    between atoms: C_14  and  C_47
    7  A    between atoms: C_15  and  N_50
    8  A    between atoms: C_16  and  O_55
    9  A    between atoms: C_17  and  C_51
   10  A    between atoms: C_18  and  C_30
   11  A    between atoms: N_19  and  C_28
   12  A    between atoms: C_21  and  O_35
   13  A    between atoms: C_25  and  N_50
   14  A    between atoms: N_27  and  C_33
   15  A    between atoms: C_29  and  C_36
   16  A    between atoms: O_32  and  C_47
   17  A    between atoms: O_35  and  C_43
   18  A    between atoms: C_41  and  N_57
   19  A    between atoms: O_55  and  C_56
   20  A    between atoms: C_56  and  C_63
                            x       y       z     vdW  Elec       q    Type
                         _______ _______ _______ _____ _____    ______ ____

>  <TORSDO>
F 20

$$$$
