=
 OpenBabel11032420263D

 39 44  0  0  1  0  0  0  0  0999 V2000
  191.4390  176.3320  137.8370 N   0  0  0  0  0  2  0  0  0  0  0  0
  191.1180  177.3280  140.6410 N   0  0  0  0  0  0  0  0  0  0  0  0
  192.7970  176.7580  138.1530 C   0  0  1  0  0  3  0  0  0  0  0  0
  189.1160  176.8990  137.4890 C   0  0  0  0  0  3  0  0  0  0  0  0
  190.0620  177.3800  139.6650 C   0  0  0  0  0  0  0  0  0  0  0  0
  192.4120  177.7590  140.3070 N   0  0  0  0  0  2  0  0  0  0  0  0
  187.8820  177.3760  137.9250 C   0  0  0  0  0  3  0  0  0  0  0  0
  188.8340  177.8280  140.0590 N   0  0  0  0  0  0  0  0  0  0  0  0
  187.7550  177.8490  139.2310 C   0  0  0  0  0  0  0  0  0  0  0  0
  193.0770  176.6610  139.6360 C   0  0  0  0  0  2  0  0  0  0  0  0
  190.2250  176.9070  138.3380 C   0  0  0  0  0  0  0  0  0  0  0  0
  191.9020  176.3720  142.7480 C   0  0  0  0  0  2  0  0  0  0  0  0
  190.4060  178.3950  142.7730 C   0  0  0  0  0  2  0  0  0  0  0  0
  191.2130  176.8220  145.1190 C   0  0  0  0  0  2  0  0  0  0  0  0
  189.4890  178.1260  143.9250 C   0  0  0  0  0  3  0  0  0  0  0  0
  190.7590  177.0960  142.0430 C   0  0  1  0  0  3  0  0  0  0  0  0
  189.8310  177.4010  144.9930 C   0  0  0  0  0  0  0  0  0  0  0  0
  191.4570  175.7490  144.0660 C   0  0  0  0  0  2  0  0  0  0  0  0
  188.8460  177.2230  146.0230 N   0  0  0  0  0  2  0  0  0  0  0  0
  186.6750  177.7850  144.9540 C   0  0  0  0  0  3  0  0  0  0  0  0
  187.5120  177.7470  146.0780 C   0  0  0  0  0  0  0  0  0  0  0  0
  185.3920  178.3260  145.0670 C   0  0  0  0  0  3  0  0  0  0  0  0
  185.7550  178.7940  147.3630 C   0  0  0  0  0  3  0  0  0  0  0  0
  187.0440  178.2620  147.2890 C   0  0  0  0  0  3  0  0  0  0  0  0
  184.9610  178.8160  146.2600 N   0  0  0  0  0  0  0  0  0  0  0  0
  184.8710  179.1590  141.2120 C   0  0  0  0  0  3  0  0  0  0  0  0
  184.0930  179.1360  140.0560 C   0  0  0  0  0  3  0  0  0  0  0  0
  185.0700  178.5670  138.8120 S   0  0  0  0  0  0  0  0  0  0  0  0
  186.1910  178.7220  141.0320 C   0  0  0  0  0  3  0  0  0  0  0  0
  186.4630  178.3500  139.7240 C   0  0  0  0  0  0  0  0  0  0  0  0
  193.8050  175.9400  137.3530 C   0  0  0  0  0  2  0  0  0  0  0  0
  193.7290  174.4470  137.6850 C   0  0  0  0  0  2  0  0  0  0  0  0
  197.9080  174.7460  137.9960 C   0  0  0  0  0  2  0  0  0  0  0  0
  194.9410  172.2660  137.6200 C   0  0  0  0  0  1  0  0  0  0  0  0
  195.7630  174.0810  139.0840 C   0  0  0  0  0  3  0  0  0  0  0  0
  195.9290  174.2830  136.5710 C   0  0  0  0  0  2  0  0  0  0  0  0
  195.1000  173.7730  137.7560 C   0  0  2  0  0  0  0  0  0  0  0  0
  197.4140  173.9910  136.7690 C   0  0  0  0  0  2  0  0  0  0  0  0
  197.0410  174.4780  139.1970 C   0  0  0  0  0  3  0  0  0  0  0  0
  1  3  1  0  0  0  0
  1 11  1  0  0  0  0
  3 31  1  6  0  0  0
  3 10  1  0  0  0  0
  4  7  2  0  0  0  0
  4 11  1  0  0  0  0
  5  8  1  0  0  0  0
  5  2  1  0  0  0  0
  6  2  1  0  0  0  0
  7  9  1  0  0  0  0
  9 30  1  0  0  0  0
  9  8  2  0  0  0  0
 10  6  1  0  0  0  0
 11  5  2  0  0  0  0
 12 18  1  0  0  0  0
 13 15  1  0  0  0  0
 15 17  2  0  0  0  0
 16  2  1  6  0  0  0
 16 12  1  0  0  0  0
 16 13  1  0  0  0  0
 17 14  1  0  0  0  0
 17 19  1  0  0  0  0
 18 14  1  0  0  0  0
 19 21  1  0  0  0  0
 20 22  2  0  0  0  0
 20 21  1  0  0  0  0
 21 24  2  0  0  0  0
 22 25  1  0  0  0  0
 24 23  1  0  0  0  0
 25 23  2  0  0  0  0
 27 26  2  0  0  0  0
 28 30  1  0  0  0  0
 28 27  1  0  0  0  0
 29 26  1  0  0  0  0
 30 29  2  0  0  0  0
 31 32  1  0  0  0  0
 32 37  1  0  0  0  0
 33 39  1  0  0  0  0
 35 39  2  0  0  0  0
 36 38  1  0  0  0  0
 36 37  1  0  0  0  0
 37 34  1  6  0  0  0
 37 35  1  0  0  0  0
 38 33  1  0  0  0  0
M  END
>  <MODEL>
1

>  <REMARK>
 VINA RESULT:      -8.9      0.000      0.000
  Name = 
  7 active torsions:
  status: ('A' for Active; 'I' for Inactive)
    1  A    between atoms: C_3  and  N_13
    2  A    between atoms: N_5  and  C_31
    3  A    between atoms: N_13  and  C_33
    4  A    between atoms: C_15  and  C_18
    5  A    between atoms: C_18  and  C_34
    6  A    between atoms: C_27  and  C_34
    7  A    between atoms: C_30  and  C_32
                            x       y       z     vdW  Elec       q    Type
                         _______ _______ _______ _____ _____    ______ ____

>  <TORSDO>
F 7

$$$$
=
 OpenBabel11032420263D

 39 44  0  0  1  0  0  0  0  0999 V2000
  183.8750  179.5090  138.9120 N   0  0  0  0  0  2  0  0  0  0  0  0
  184.7450  178.3460  141.5290 N   0  0  0  0  0  0  0  0  0  0  0  0
  182.6140  179.0030  139.4410 C   0  0  1  0  0  3  0  0  0  0  0  0
  186.1090  179.0700  138.1020 C   0  0  0  0  0  3  0  0  0  0  0  0
  185.6020  178.4050  140.3740 C   0  0  0  0  0  0  0  0  0  0  0  0
  183.4260  177.8810  141.4090 N   0  0  0  0  0  2  0  0  0  0  0  0
  187.4170  178.6210  138.2670 C   0  0  0  0  0  3  0  0  0  0  0  0
  186.8950  177.9880  140.5010 N   0  0  0  0  0  0  0  0  0  0  0  0
  187.8000  178.0690  139.4900 C   0  0  0  0  0  0  0  0  0  0  0  0
  182.6130  178.9900  140.9530 C   0  0  0  0  0  2  0  0  0  0  0  0
  185.1780  178.9570  139.1380 C   0  0  0  0  0  0  0  0  0  0  0  0
  184.2770  178.8920  143.8640 C   0  0  0  0  0  2  0  0  0  0  0  0
  186.0880  177.2360  143.3050 C   0  0  0  0  0  2  0  0  0  0  0  0
  185.5370  178.3520  145.9670 C   0  0  0  0  0  2  0  0  0  0  0  0
  187.1680  177.5700  144.2860 C   0  0  0  0  0  3  0  0  0  0  0  0
  185.3530  178.5010  142.8540 C   0  0  1  0  0  3  0  0  0  0  0  0
  186.9400  178.0920  145.4940 C   0  0  0  0  0  0  0  0  0  0  0  0
  184.8770  179.4530  145.1470 C   0  0  0  0  0  2  0  0  0  0  0  0
  188.0760  178.3640  146.3290 N   0  0  0  0  0  2  0  0  0  0  0  0
  190.1980  177.9070  145.1220 C   0  0  0  0  0  3  0  0  0  0  0  0
  189.3890  177.7900  146.2600 C   0  0  0  0  0  0  0  0  0  0  0  0
  191.4610  177.3090  145.1090 C   0  0  0  0  0  3  0  0  0  0  0  0
  191.1300  176.4840  147.3080 C   0  0  0  0  0  3  0  0  0  0  0  0
  189.8620  177.0670  147.3580 C   0  0  0  0  0  3  0  0  0  0  0  0
  191.8980  176.6150  146.1930 N   0  0  0  0  0  0  0  0  0  0  0  0
  191.1250  177.0050  140.8210 C   0  0  0  0  0  3  0  0  0  0  0  0
  191.5380  176.7350  139.5180 C   0  0  0  0  0  3  0  0  0  0  0  0
  190.2470  177.1000  138.5040 S   0  0  0  0  0  0  0  0  0  0  0  0
  189.8120  177.4840  140.9270 C   0  0  0  0  0  3  0  0  0  0  0  0
  189.1770  177.5950  139.6990 C   0  0  0  0  0  0  0  0  0  0  0  0
  181.4490  179.8270  138.9020 C   0  0  0  0  0  2  0  0  0  0  0  0
  181.8590  181.2680  138.5870 C   0  0  0  0  0  2  0  0  0  0  0  0
  180.7930  183.3440  135.0940 C   0  0  0  0  0  2  0  0  0  0  0  0
  179.5250  182.1520  138.5680 C   0  0  0  0  0  1  0  0  0  0  0  0
  180.5240  181.2860  136.4790 C   0  0  0  0  0  3  0  0  0  0  0  0
  181.3620  183.4360  137.5080 C   0  0  0  0  0  2  0  0  0  0  0  0
  180.8140  182.0270  137.7680 C   0  0  2  0  0  0  0  0  0  0  0  0
  180.5950  184.1280  136.3850 C   0  0  0  0  0  2  0  0  0  0  0  0
  180.4710  181.8850  135.2780 C   0  0  0  0  0  3  0  0  0  0  0  0
  1 11  1  0  0  0  0
  1  3  1  0  0  0  0
  3 31  1  1  0  0  0
  3 10  1  0  0  0  0
  4  7  2  0  0  0  0
  4 11  1  0  0  0  0
  5  8  1  0  0  0  0
  5  2  1  0  0  0  0
  6  2  1  0  0  0  0
  7  9  1  0  0  0  0
  9 30  1  0  0  0  0
  9  8  2  0  0  0  0
 10  6  1  0  0  0  0
 11  5  2  0  0  0  0
 12 18  1  0  0  0  0
 13 15  1  0  0  0  0
 15 17  2  0  0  0  0
 16  2  1  6  0  0  0
 16 13  1  0  0  0  0
 16 12  1  0  0  0  0
 17 14  1  0  0  0  0
 17 19  1  0  0  0  0
 18 14  1  0  0  0  0
 20 21  1  0  0  0  0
 21 19  1  0  0  0  0
 21 24  2  0  0  0  0
 22 20  2  0  0  0  0
 22 25  1  0  0  0  0
 23 24  1  0  0  0  0
 25 23  2  0  0  0  0
 26 29  1  0  0  0  0
 27 26  2  0  0  0  0
 28 27  1  0  0  0  0
 28 30  1  0  0  0  0
 30 29  2  0  0  0  0
 32 31  1  0  0  0  0
 33 39  1  0  0  0  0
 33 38  1  0  0  0  0
 35 37  1  0  0  0  0
 36 37  1  0  0  0  0
 37 34  1  1  0  0  0
 37 32  1  0  0  0  0
 38 36  1  0  0  0  0
 39 35  2  0  0  0  0
M  END
>  <MODEL>
2

>  <REMARK>
 VINA RESULT:      -8.5      3.408      9.725
  Name = 
  7 active torsions:
  status: ('A' for Active; 'I' for Inactive)
    1  A    between atoms: C_3  and  N_13
    2  A    between atoms: N_5  and  C_31
    3  A    between atoms: N_13  and  C_33
    4  A    between atoms: C_15  and  C_18
    5  A    between atoms: C_18  and  C_34
    6  A    between atoms: C_27  and  C_34
    7  A    between atoms: C_30  and  C_32
                            x       y       z     vdW  Elec       q    Type
                         _______ _______ _______ _____ _____    ______ ____

>  <TORSDO>
F 7

$$$$
=
 OpenBabel11032420263D

 39 44  0  0  1  0  0  0  0  0999 V2000
  191.7430  175.5690  136.8120 N   0  0  0  0  0  2  0  0  0  0  0  0
  190.8060  176.9030  139.3220 N   0  0  0  0  0  0  0  0  0  0  0  0
  192.9610  176.2300  137.2640 C   0  0  1  0  0  3  0  0  0  0  0  0
  189.4690  175.7340  136.0100 C   0  0  0  0  0  3  0  0  0  0  0  0
  189.9450  176.6590  138.1960 C   0  0  0  0  0  0  0  0  0  0  0  0
  192.0790  177.4650  139.1310 N   0  0  0  0  0  2  0  0  0  0  0  0
  188.1300  176.0850  136.1570 C   0  0  0  0  0  3  0  0  0  0  0  0
  188.6220  176.9750  138.3090 N   0  0  0  0  0  0  0  0  0  0  0  0
  187.7150  176.7180  137.3280 C   0  0  0  0  0  0  0  0  0  0  0  0
  192.9800  176.3900  138.7680 C   0  0  0  0  0  2  0  0  0  0  0  0
  190.3990  176.0270  137.0100 C   0  0  0  0  0  0  0  0  0  0  0  0
  191.3410  176.9700  141.7050 C   0  0  0  0  0  2  0  0  0  0  0  0
  189.1400  177.8780  140.8910 C   0  0  0  0  0  2  0  0  0  0  0  0
  189.9130  177.4980  143.7000 C   0  0  0  0  0  2  0  0  0  0  0  0
  188.1760  177.4300  141.9450 C   0  0  0  0  0  3  0  0  0  0  0  0
  190.2310  176.8270  140.6680 C   0  0  1  0  0  3  0  0  0  0  0  0
  188.5110  177.2360  143.2240 C   0  0  0  0  0  0  0  0  0  0  0  0
  190.8950  176.5080  143.0870 C   0  0  0  0  0  2  0  0  0  0  0  0
  187.4810  176.8010  144.1250 N   0  0  0  0  0  2  0  0  0  0  0  0
  187.0310  177.7620  146.3710 C   0  0  0  0  0  3  0  0  0  0  0  0
  186.6910  177.5940  145.0220 C   0  0  0  0  0  0  0  0  0  0  0  0
  186.2110  178.5310  147.1990 C   0  0  0  0  0  3  0  0  0  0  0  0
  184.7320  178.9570  145.3950 C   0  0  0  0  0  3  0  0  0  0  0  0
  185.5270  178.1950  144.5360 C   0  0  0  0  0  3  0  0  0  0  0  0
  185.0860  179.1090  146.6990 N   0  0  0  0  0  0  0  0  0  0  0  0
  184.4530  178.2720  138.2810 C   0  0  0  0  0  3  0  0  0  0  0  0
  183.7940  177.3010  137.5300 C   0  0  0  0  0  3  0  0  0  0  0  0
  184.9740  176.3050  136.8640 S   0  0  0  0  0  0  0  0  0  0  0  0
  185.8500  178.1590  138.2790 C   0  0  0  0  0  3  0  0  0  0  0  0
  186.3040  177.0920  137.5190 C   0  0  0  0  0  0  0  0  0  0  0  0
  194.1870  175.4600  136.7830 C   0  0  0  0  0  2  0  0  0  0  0  0
  194.1410  173.9860  137.1980 C   0  0  0  0  0  2  0  0  0  0  0  0
  198.0780  174.7230  138.4670 C   0  0  0  0  0  2  0  0  0  0  0  0
  195.4400  171.9450  137.8130 C   0  0  0  0  0  1  0  0  0  0  0  0
  195.7630  174.0350  139.0940 C   0  0  0  0  0  3  0  0  0  0  0  0
  196.5600  173.8590  136.7030 C   0  0  0  0  0  2  0  0  0  0  0  0
  195.4810  173.4640  137.7190 C   0  0  2  0  0  0  0  0  0  0  0  0
  197.9570  173.7420  137.3080 C   0  0  0  0  0  2  0  0  0  0  0  0
  196.9460  174.5640  139.4460 C   0  0  0  0  0  3  0  0  0  0  0  0
  1 11  1  0  0  0  0
  1  3  1  0  0  0  0
  3 31  1  1  0  0  0
  3 10  1  0  0  0  0
  4  7  2  0  0  0  0
  4 11  1  0  0  0  0
  5  8  1  0  0  0  0
  5  2  1  0  0  0  0
  6  2  1  0  0  0  0
  7  9  1  0  0  0  0
  9 30  1  0  0  0  0
  9  8  2  0  0  0  0
 10  6  1  0  0  0  0
 11  5  2  0  0  0  0
 12 18  1  0  0  0  0
 13 15  1  0  0  0  0
 15 17  2  0  0  0  0
 16  2  1  6  0  0  0
 16 13  1  0  0  0  0
 16 12  1  0  0  0  0
 17 14  1  0  0  0  0
 17 19  1  0  0  0  0
 18 14  1  0  0  0  0
 19 21  1  0  0  0  0
 20 22  1  0  0  0  0
 21 20  2  0  0  0  0
 23 25  1  0  0  0  0
 24 21  1  0  0  0  0
 24 23  2  0  0  0  0
 25 22  2  0  0  0  0
 27 26  2  0  0  0  0
 28 30  1  0  0  0  0
 28 27  1  0  0  0  0
 29 26  1  0  0  0  0
 30 29  2  0  0  0  0
 31 32  1  0  0  0  0
 32 37  1  0  0  0  0
 33 39  1  0  0  0  0
 35 39  2  0  0  0  0
 36 38  1  0  0  0  0
 36 37  1  0  0  0  0
 37 34  1  1  0  0  0
 37 35  1  0  0  0  0
 38 33  1  0  0  0  0
M  END
>  <MODEL>
3

>  <REMARK>
 VINA RESULT:      -8.5      1.388      1.843
  Name = 
  7 active torsions:
  status: ('A' for Active; 'I' for Inactive)
    1  A    between atoms: C_3  and  N_13
    2  A    between atoms: N_5  and  C_31
    3  A    between atoms: N_13  and  C_33
    4  A    between atoms: C_15  and  C_18
    5  A    between atoms: C_18  and  C_34
    6  A    between atoms: C_27  and  C_34
    7  A    between atoms: C_30  and  C_32
                            x       y       z     vdW  Elec       q    Type
                         _______ _______ _______ _____ _____    ______ ____

>  <TORSDO>
F 7

$$$$
=
 OpenBabel11032420263D

 39 44  0  0  1  0  0  0  0  0999 V2000
  193.3450  176.7450  137.8680 N   0  0  0  0  0  2  0  0  0  0  0  0
  190.4130  176.1740  137.6930 N   0  0  0  0  0  0  0  0  0  0  0  0
  193.3010  175.7760  136.7800 C   0  0  1  0  0  3  0  0  0  0  0  0
  192.9920  177.2600  140.2030 C   0  0  0  0  0  3  0  0  0  0  0  0
  191.0680  176.5410  138.9210 C   0  0  0  0  0  0  0  0  0  0  0  0
  190.9690  175.1890  136.8610 N   0  0  0  0  0  2  0  0  0  0  0  0
  192.1810  177.4140  141.3240 C   0  0  0  0  0  3  0  0  0  0  0  0
  190.3050  176.7160  140.0380 N   0  0  0  0  0  0  0  0  0  0  0  0
  190.8190  177.1300  141.2270 C   0  0  0  0  0  0  0  0  0  0  0  0
  191.9800  175.8290  136.0440 C   0  0  0  0  0  2  0  0  0  0  0  0
  192.4590  176.8080  138.9930 C   0  0  0  0  0  0  0  0  0  0  0  0
  189.0450  177.8860  136.6110 C   0  0  0  0  0  2  0  0  0  0  0  0
  188.1600  175.5420  136.8480 C   0  0  0  0  0  2  0  0  0  0  0  0
  186.6310  177.8750  135.9250 C   0  0  0  0  0  2  0  0  0  0  0  0
  186.7180  175.7560  137.1910 C   0  0  0  0  0  3  0  0  0  0  0  0
  189.0360  176.6290  137.4770 C   0  0  1  0  0  3  0  0  0  0  0  0
  186.0100  176.8160  136.7950 C   0  0  0  0  0  0  0  0  0  0  0  0
  187.7190  178.6320  136.6760 C   0  0  0  0  0  2  0  0  0  0  0  0
  184.6350  176.8910  137.2020 N   0  0  0  0  0  2  0  0  0  0  0  0
  184.6420  178.5510  139.0500 C   0  0  0  0  0  3  0  0  0  0  0  0
  184.0960  177.4250  138.4190 C   0  0  0  0  0  0  0  0  0  0  0  0
  184.0830  179.0120  140.2440 C   0  0  0  0  0  3  0  0  0  0  0  0
  182.4720  177.2720  140.2010 C   0  0  0  0  0  3  0  0  0  0  0  0
  183.0040  176.7810  139.0070 C   0  0  0  0  0  3  0  0  0  0  0  0
  183.0180  178.3680  140.7920 N   0  0  0  0  0  0  0  0  0  0  0  0
  188.0580  177.0660  143.7440 C   0  0  0  0  0  3  0  0  0  0  0  0
  188.8250  177.8780  144.5760 C   0  0  0  0  0  3  0  0  0  0  0  0
  190.2730  178.1810  143.7760 S   0  0  0  0  0  0  0  0  0  0  0  0
  188.6710  176.7370  142.5260 C   0  0  0  0  0  3  0  0  0  0  0  0
  189.9350  177.2940  142.3910 C   0  0  0  0  0  0  0  0  0  0  0  0
  194.4660  176.0040  135.8230 C   0  0  0  0  0  2  0  0  0  0  0  0
  195.0030  174.6920  135.2440 C   0  0  0  0  0  2  0  0  0  0  0  0
  196.6070  174.2000  139.0960 C   0  0  0  0  0  2  0  0  0  0  0  0
  196.6830  172.8580  135.4500 C   0  0  0  0  0  1  0  0  0  0  0  0
  195.1150  173.2980  137.3110 C   0  0  0  0  0  3  0  0  0  0  0  0
  196.9430  174.9510  136.7540 C   0  0  0  0  0  2  0  0  0  0  0  0
  195.9270  173.9420  136.2040 C   0  0  2  0  0  0  0  0  0  0  0  0
  197.6420  174.4090  137.9980 C   0  0  0  0  0  2  0  0  0  0  0  0
  195.4440  173.3770  138.6100 C   0  0  0  0  0  3  0  0  0  0  0  0
  1 11  1  0  0  0  0
  2  5  1  0  0  0  0
  3 31  1  6  0  0  0
  3  1  1  0  0  0  0
  4  7  1  0  0  0  0
  5 11  1  0  0  0  0
  5  8  2  0  0  0  0
  6  2  1  0  0  0  0
  8  9  1  0  0  0  0
  9  7  2  0  0  0  0
  9 30  1  0  0  0  0
 10  3  1  0  0  0  0
 10  6  1  0  0  0  0
 11  4  2  0  0  0  0
 12 18  1  0  0  0  0
 13 15  1  0  0  0  0
 13 16  1  0  0  0  0
 14 18  1  0  0  0  0
 14 17  1  0  0  0  0
 16 12  1  6  0  0  0
 16  2  1  0  0  0  0
 17 15  2  0  0  0  0
 17 19  1  0  0  0  0
 19 21  1  0  0  0  0
 20 22  1  0  0  0  0
 21 24  1  0  0  0  0
 21 20  2  0  0  0  0
 22 25  2  0  0  0  0
 23 25  1  0  0  0  0
 24 23  2  0  0  0  0
 26 27  2  0  0  0  0
 28 27  1  0  0  0  0
 29 26  1  0  0  0  0
 30 29  2  0  0  0  0
 30 28  1  0  0  0  0
 32 31  1  0  0  0  0
 32 37  1  0  0  0  0
 35 39  2  0  0  0  0
 36 38  1  0  0  0  0
 37 34  1  6  0  0  0
 37 36  1  0  0  0  0
 37 35  1  0  0  0  0
 38 33  1  0  0  0  0
 39 33  1  0  0  0  0
M  END
>  <MODEL>
4

>  <REMARK>
 VINA RESULT:      -8.0      2.462      5.495
  Name = 
  7 active torsions:
  status: ('A' for Active; 'I' for Inactive)
    1  A    between atoms: C_3  and  N_13
    2  A    between atoms: N_5  and  C_31
    3  A    between atoms: N_13  and  C_33
    4  A    between atoms: C_15  and  C_18
    5  A    between atoms: C_18  and  C_34
    6  A    between atoms: C_27  and  C_34
    7  A    between atoms: C_30  and  C_32
                            x       y       z     vdW  Elec       q    Type
                         _______ _______ _______ _____ _____    ______ ____

>  <TORSDO>
F 7

$$$$
=
 OpenBabel11032420263D

 39 44  0  0  1  0  0  0  0  0999 V2000
  190.8090  175.7710  137.5420 N   0  0  0  0  0  2  0  0  0  0  0  0
  189.3680  177.2620  139.7000 N   0  0  0  0  0  0  0  0  0  0  0  0
  191.8950  176.5320  138.1460 C   0  0  1  0  0  3  0  0  0  0  0  0
  188.7220  175.7460  136.3220 C   0  0  0  0  0  3  0  0  0  0  0  0
  188.7430  176.8770  138.4620 C   0  0  0  0  0  0  0  0  0  0  0  0
  190.6330  177.8730  139.6950 N   0  0  0  0  0  2  0  0  0  0  0  0
  187.3670  176.0350  136.1870 C   0  0  0  0  0  3  0  0  0  0  0  0
  187.4120  177.1300  138.3000 N   0  0  0  0  0  0  0  0  0  0  0  0
  186.7160  176.7430  137.1970 C   0  0  0  0  0  0  0  0  0  0  0  0
  191.6250  176.8210  139.6060 C   0  0  0  0  0  2  0  0  0  0  0  0
  189.4360  176.1720  137.4450 C   0  0  0  0  0  0  0  0  0  0  0  0
  189.3410  176.6370  142.0620 C   0  0  0  0  0  2  0  0  0  0  0  0
  188.0870  178.6800  141.2940 C   0  0  0  0  0  2  0  0  0  0  0  0
  187.9530  177.4840  143.9740 C   0  0  0  0  0  2  0  0  0  0  0  0
  186.8250  178.6270  142.0970 C   0  0  0  0  0  3  0  0  0  0  0  0
  188.5530  177.2700  140.9180 C   0  0  1  0  0  3  0  0  0  0  0  0
  186.7400  178.0750  143.3100 C   0  0  0  0  0  0  0  0  0  0  0  0
  188.4400  176.2490  143.2280 C   0  0  0  0  0  2  0  0  0  0  0  0
  185.4620  178.0940  143.9640 N   0  0  0  0  0  2  0  0  0  0  0  0
  183.1150  178.8760  144.1940 C   0  0  0  0  0  3  0  0  0  0  0  0
  184.1820  178.4240  143.4060 C   0  0  0  0  0  0  0  0  0  0  0  0
  181.8870  179.1620  143.5940 C   0  0  0  0  0  3  0  0  0  0  0  0
  182.7460  178.5570  141.4680 C   0  0  0  0  0  3  0  0  0  0  0  0
  183.9880  178.2600  142.0320 C   0  0  0  0  0  3  0  0  0  0  0  0
  181.7270  178.9980  142.2530 N   0  0  0  0  0  0  0  0  0  0  0  0
  183.1390  177.1460  136.1940 C   0  0  0  0  0  3  0  0  0  0  0  0
  182.9020  177.8240  137.3880 C   0  0  0  0  0  3  0  0  0  0  0  0
  184.3600  177.8790  138.2250 S   0  0  0  0  0  0  0  0  0  0  0  0
  184.4630  176.7160  136.0230 C   0  0  0  0  0  3  0  0  0  0  0  0
  185.2820  177.0550  137.0900 C   0  0  0  0  0  0  0  0  0  0  0  0
  193.2170  175.7910  137.9740 C   0  0  0  0  0  2  0  0  0  0  0  0
  193.0420  174.4680  137.2230 C   0  0  0  0  0  2  0  0  0  0  0  0
  197.2350  174.3470  137.4590 C   0  0  0  0  0  2  0  0  0  0  0  0
  194.0740  172.3470  136.4050 C   0  0  0  0  0  1  0  0  0  0  0  0
  195.0570  173.5180  138.3490 C   0  0  0  0  0  3  0  0  0  0  0  0
  195.2100  174.5200  136.0350 C   0  0  0  0  0  2  0  0  0  0  0  0
  194.3560  173.7110  137.0190 C   0  0  2  0  0  0  0  0  0  0  0  0
  196.6680  174.0720  136.0720 C   0  0  0  0  0  2  0  0  0  0  0  0
  196.3630  173.7630  138.5380 C   0  0  0  0  0  3  0  0  0  0  0  0
  1  3  1  0  0  0  0
  3 31  1  1  0  0  0
  3 10  1  0  0  0  0
  4 11  1  0  0  0  0
  5  2  1  0  0  0  0
  6  2  1  0  0  0  0
  7  4  2  0  0  0  0
  7  9  1  0  0  0  0
  8  5  1  0  0  0  0
  9  8  2  0  0  0  0
 10  6  1  0  0  0  0
 11  1  1  0  0  0  0
 11  5  2  0  0  0  0
 12 18  1  0  0  0  0
 13 15  1  0  0  0  0
 15 17  2  0  0  0  0
 16  2  1  6  0  0  0
 16 13  1  0  0  0  0
 16 12  1  0  0  0  0
 17 19  1  0  0  0  0
 17 14  1  0  0  0  0
 18 14  1  0  0  0  0
 21 19  1  0  0  0  0
 21 20  2  0  0  0  0
 22 20  1  0  0  0  0
 23 24  2  0  0  0  0
 23 25  1  0  0  0  0
 24 21  1  0  0  0  0
 25 22  2  0  0  0  0
 26 27  2  0  0  0  0
 27 28  1  0  0  0  0
 29 26  1  0  0  0  0
 29 30  2  0  0  0  0
 30  9  1  0  0  0  0
 30 28  1  0  0  0  0
 32 31  1  0  0  0  0
 33 39  1  0  0  0  0
 35 39  2  0  0  0  0
 36 38  1  0  0  0  0
 36 37  1  0  0  0  0
 37 34  1  6  0  0  0
 37 32  1  0  0  0  0
 37 35  1  0  0  0  0
 38 33  1  0  0  0  0
M  END
>  <MODEL>
5

>  <REMARK>
 VINA RESULT:      -7.9      2.102      3.088
  Name = 
  7 active torsions:
  status: ('A' for Active; 'I' for Inactive)
    1  A    between atoms: C_3  and  N_13
    2  A    between atoms: N_5  and  C_31
    3  A    between atoms: N_13  and  C_33
    4  A    between atoms: C_15  and  C_18
    5  A    between atoms: C_18  and  C_34
    6  A    between atoms: C_27  and  C_34
    7  A    between atoms: C_30  and  C_32
                            x       y       z     vdW  Elec       q    Type
                         _______ _______ _______ _____ _____    ______ ____

>  <TORSDO>
F 7

$$$$
=
 OpenBabel11032420263D

 39 44  0  0  1  0  0  0  0  0999 V2000
  190.1520  175.7460  136.3670 N   0  0  0  0  0  2  0  0  0  0  0  0
  189.7730  177.0440  139.0360 N   0  0  0  0  0  0  0  0  0  0  0  0
  191.5000  176.2190  136.6550 C   0  0  1  0  0  3  0  0  0  0  0  0
  187.8300  176.2450  135.9200 C   0  0  0  0  0  3  0  0  0  0  0  0
  188.7340  176.9760  138.0430 C   0  0  0  0  0  0  0  0  0  0  0  0
  191.0690  177.4490  138.6780 N   0  0  0  0  0  2  0  0  0  0  0  0
  186.5850  176.7540  136.2790 C   0  0  0  0  0  3  0  0  0  0  0  0
  187.4950  177.4510  138.3650 N   0  0  0  0  0  0  0  0  0  0  0  0
  186.4310  177.3680  137.5220 C   0  0  0  0  0  0  0  0  0  0  0  0
  191.7560  176.2910  138.1440 C   0  0  0  0  0  2  0  0  0  0  0  0
  188.9240  176.3590  136.7800 C   0  0  0  0  0  0  0  0  0  0  0  0
  190.6390  176.7520  141.3020 C   0  0  0  0  0  2  0  0  0  0  0  0
  188.6240  178.2080  140.9110 C   0  0  0  0  0  2  0  0  0  0  0  0
  189.6730  177.3860  143.5300 C   0  0  0  0  0  2  0  0  0  0  0  0
  187.7400  177.8850  142.0750 C   0  0  0  0  0  3  0  0  0  0  0  0
  189.3910  176.9660  140.4490 C   0  0  1  0  0  3  0  0  0  0  0  0
  188.1960  177.4950  143.2680 C   0  0  0  0  0  0  0  0  0  0  0  0
  190.2950  176.2670  142.7050 C   0  0  0  0  0  2  0  0  0  0  0  0
  187.2300  177.2150  144.2930 N   0  0  0  0  0  2  0  0  0  0  0  0
  188.1740  177.3830  146.5850 C   0  0  0  0  0  3  0  0  0  0  0  0
  187.1930  177.7090  145.6400 C   0  0  0  0  0  0  0  0  0  0  0  0
  188.0730  177.8800  147.8860 C   0  0  0  0  0  3  0  0  0  0  0  0
  186.0560  179.0010  147.3350 C   0  0  0  0  0  3  0  0  0  0  0  0
  186.1240  178.5220  146.0250 C   0  0  0  0  0  3  0  0  0  0  0  0
  187.0240  178.6730  148.2330 N   0  0  0  0  0  0  0  0  0  0  0  0
  183.5700  179.1640  139.1190 C   0  0  0  0  0  3  0  0  0  0  0  0
  182.6990  178.5000  138.2570 C   0  0  0  0  0  3  0  0  0  0  0  0
  183.6340  177.5040  137.2770 S   0  0  0  0  0  0  0  0  0  0  0  0
  184.9220  178.8360  138.9440 C   0  0  0  0  0  3  0  0  0  0  0  0
  185.1250  177.9060  137.9360 C   0  0  0  0  0  0  0  0  0  0  0  0
  192.5300  175.3280  135.9680 C   0  0  0  0  0  2  0  0  0  0  0  0
  193.9550  175.8650  136.1260 C   0  0  0  0  0  2  0  0  0  0  0  0
  194.8630  171.9750  137.4270 C   0  0  0  0  0  2  0  0  0  0  0  0
  196.3840  175.2930  136.0940 C   0  0  0  0  0  1  0  0  0  0  0  0
  194.7120  173.5670  135.5120 C   0  0  0  0  0  3  0  0  0  0  0  0
  194.9110  174.4140  137.8840 C   0  0  0  0  0  2  0  0  0  0  0  0
  194.9870  174.7690  136.3940 C   0  0  2  0  0  0  0  0  0  0  0  0
  195.5990  173.0820  138.1700 C   0  0  0  0  0  2  0  0  0  0  0  0
  194.6980  172.3050  135.9670 C   0  0  0  0  0  3  0  0  0  0  0  0
  1  3  1  0  0  0  0
  1 11  1  0  0  0  0
  3 31  1  6  0  0  0
  3 10  1  0  0  0  0
  4  7  2  0  0  0  0
  4 11  1  0  0  0  0
  5  8  1  0  0  0  0
  5  2  1  0  0  0  0
  6  2  1  0  0  0  0
  7  9  1  0  0  0  0
  9 30  1  0  0  0  0
  9  8  2  0  0  0  0
 10  6  1  0  0  0  0
 11  5  2  0  0  0  0
 12 18  1  0  0  0  0
 13 15  1  0  0  0  0
 15 17  2  0  0  0  0
 16  2  1  6  0  0  0
 16 13  1  0  0  0  0
 16 12  1  0  0  0  0
 17 14  1  0  0  0  0
 17 19  1  0  0  0  0
 18 14  1  0  0  0  0
 19 21  1  0  0  0  0
 20 22  1  0  0  0  0
 21 24  1  0  0  0  0
 21 20  2  0  0  0  0
 22 25  2  0  0  0  0
 23 25  1  0  0  0  0
 24 23  2  0  0  0  0
 27 26  2  0  0  0  0
 28 30  1  0  0  0  0
 28 27  1  0  0  0  0
 29 26  1  0  0  0  0
 30 29  2  0  0  0  0
 31 32  1  0  0  0  0
 32 37  1  0  0  0  0
 33 38  1  0  0  0  0
 35 39  2  0  0  0  0
 35 37  1  0  0  0  0
 36 38  1  0  0  0  0
 37 34  1  6  0  0  0
 37 36  1  0  0  0  0
 39 33  1  0  0  0  0
M  END
>  <MODEL>
6

>  <REMARK>
 VINA RESULT:      -7.9      1.617      2.463
  Name = 
  7 active torsions:
  status: ('A' for Active; 'I' for Inactive)
    1  A    between atoms: C_3  and  N_13
    2  A    between atoms: N_5  and  C_31
    3  A    between atoms: N_13  and  C_33
    4  A    between atoms: C_15  and  C_18
    5  A    between atoms: C_18  and  C_34
    6  A    between atoms: C_27  and  C_34
    7  A    between atoms: C_30  and  C_32
                            x       y       z     vdW  Elec       q    Type
                         _______ _______ _______ _____ _____    ______ ____

>  <TORSDO>
F 7

$$$$
=
 OpenBabel11032420263D

 39 44  0  0  1  0  0  0  0  0999 V2000
  192.8830  176.8760  139.3660 N   0  0  0  0  0  2  0  0  0  0  0  0
  190.0450  176.3750  138.5600 N   0  0  0  0  0  0  0  0  0  0  0  0
  193.0510  175.8970  138.2990 C   0  0  1  0  0  3  0  0  0  0  0  0
  192.0440  177.4240  141.5650 C   0  0  0  0  0  3  0  0  0  0  0  0
  190.4270  176.7390  139.8980 C   0  0  0  0  0  0  0  0  0  0  0  0
  190.7430  175.3690  137.8730 N   0  0  0  0  0  2  0  0  0  0  0  0
  191.0130  177.6100  142.4820 C   0  0  0  0  0  3  0  0  0  0  0  0
  189.4430  176.9450  140.8220 N   0  0  0  0  0  0  0  0  0  0  0  0
  189.6980  177.3580  142.0920 C   0  0  0  0  0  0  0  0  0  0  0  0
  191.9240  175.9750  137.2930 C   0  0  0  0  0  2  0  0  0  0  0  0
  191.7760  176.9720  140.2710 C   0  0  0  0  0  0  0  0  0  0  0  0
  188.9870  178.1290  137.2270 C   0  0  0  0  0  2  0  0  0  0  0  0
  188.0310  175.8010  137.2170 C   0  0  0  0  0  2  0  0  0  0  0  0
  186.7900  178.1780  136.0140 C   0  0  0  0  0  2  0  0  0  0  0  0
  186.5530  176.0400  137.2290 C   0  0  0  0  0  3  0  0  0  0  0  0
  188.7610  176.8610  138.0460 C   0  0  1  0  0  3  0  0  0  0  0  0
  185.9710  177.1200  136.7020 C   0  0  0  0  0  0  0  0  0  0  0  0
  187.6930  178.9020  137.0040 C   0  0  0  0  0  2  0  0  0  0  0  0
  184.5420  177.2180  136.7900 N   0  0  0  0  0  2  0  0  0  0  0  0
  183.8880  178.6400  138.7190 C   0  0  0  0  0  3  0  0  0  0  0  0
  183.7370  177.4800  137.9480 C   0  0  0  0  0  0  0  0  0  0  0  0
  183.0880  178.8280  139.8480 C   0  0  0  0  0  3  0  0  0  0  0  0
  182.0060  176.7520  139.4680 C   0  0  0  0  0  3  0  0  0  0  0  0
  182.7890  176.5280  138.3340 C   0  0  0  0  0  3  0  0  0  0  0  0
  182.1700  177.8880  140.1980 N   0  0  0  0  0  0  0  0  0  0  0  0
  187.4570  177.7270  145.0600 C   0  0  0  0  0  3  0  0  0  0  0  0
  186.3880  177.9580  144.1980 C   0  0  0  0  0  3  0  0  0  0  0  0
  186.9880  177.8780  142.6290 S   0  0  0  0  0  0  0  0  0  0  0  0
  188.6830  177.5030  144.4170 C   0  0  0  0  0  3  0  0  0  0  0  0
  188.5850  177.5550  143.0350 C   0  0  0  0  0  0  0  0  0  0  0  0
  194.4030  176.0870  137.6180 C   0  0  0  0  0  2  0  0  0  0  0  0
  194.9290  174.7850  137.0070 C   0  0  0  0  0  2  0  0  0  0  0  0
  198.3010  175.2530  139.4700 C   0  0  0  0  0  2  0  0  0  0  0  0
  196.0710  172.6550  137.6320 C   0  0  0  0  0  1  0  0  0  0  0  0
  195.9310  174.4980  139.2750 C   0  0  0  0  0  3  0  0  0  0  0  0
  197.3910  174.7140  137.2240 C   0  0  0  0  0  2  0  0  0  0  0  0
  196.0800  174.1670  137.8040 C   0  0  2  0  0  0  0  0  0  0  0  0
  198.5570  174.4810  138.1820 C   0  0  0  0  0  2  0  0  0  0  0  0
  196.9410  174.9460  140.0380 C   0  0  0  0  0  3  0  0  0  0  0  0
  1 11  1  0  0  0  0
  2  5  1  0  0  0  0
  3 31  1  6  0  0  0
  3  1  1  0  0  0  0
  4  7  1  0  0  0  0
  5 11  1  0  0  0  0
  5  8  2  0  0  0  0
  6  2  1  0  0  0  0
  8  9  1  0  0  0  0
  9  7  2  0  0  0  0
  9 30  1  0  0  0  0
 10  6  1  0  0  0  0
 10  3  1  0  0  0  0
 11  4  2  0  0  0  0
 12 16  1  0  0  0  0
 13 15  1  0  0  0  0
 14 17  1  0  0  0  0
 14 18  1  0  0  0  0
 16 13  1  6  0  0  0
 16  2  1  0  0  0  0
 17 19  1  0  0  0  0
 17 15  2  0  0  0  0
 18 12  1  0  0  0  0
 19 21  1  0  0  0  0
 20 22  1  0  0  0  0
 21 24  1  0  0  0  0
 21 20  2  0  0  0  0
 22 25  2  0  0  0  0
 23 25  1  0  0  0  0
 24 23  2  0  0  0  0
 27 26  2  0  0  0  0
 28 30  1  0  0  0  0
 28 27  1  0  0  0  0
 29 26  1  0  0  0  0
 30 29  2  0  0  0  0
 32 31  1  0  0  0  0
 32 37  1  0  0  0  0
 33 39  1  0  0  0  0
 35 39  2  0  0  0  0
 36 37  1  0  0  0  0
 36 38  1  0  0  0  0
 37 34  1  6  0  0  0
 37 35  1  0  0  0  0
 38 33  1  0  0  0  0
M  END
>  <MODEL>
7

>  <REMARK>
 VINA RESULT:      -7.8      2.164      5.415
  Name = 
  7 active torsions:
  status: ('A' for Active; 'I' for Inactive)
    1  A    between atoms: C_3  and  N_13
    2  A    between atoms: N_5  and  C_31
    3  A    between atoms: N_13  and  C_33
    4  A    between atoms: C_15  and  C_18
    5  A    between atoms: C_18  and  C_34
    6  A    between atoms: C_27  and  C_34
    7  A    between atoms: C_30  and  C_32
                            x       y       z     vdW  Elec       q    Type
                         _______ _______ _______ _____ _____    ______ ____

>  <TORSDO>
F 7

$$$$
=
 OpenBabel11032420263D

 39 44  0  0  1  0  0  0  0  0999 V2000
  187.7600  176.6170  135.8350 N   0  0  0  0  0  2  0  0  0  0  0  0
  188.0880  178.2760  138.3040 N   0  0  0  0  0  0  0  0  0  0  0  0
  189.0260  177.2890  135.5690 C   0  0  1  0  0  3  0  0  0  0  0  0
  185.3740  176.7550  136.1960 C   0  0  0  0  0  3  0  0  0  0  0  0
  186.8030  177.9230  137.7630 C   0  0  0  0  0  0  0  0  0  0  0  0
  189.0990  178.7690  137.4650 N   0  0  0  0  0  2  0  0  0  0  0  0
  184.2550  177.1630  136.9180 C   0  0  0  0  0  3  0  0  0  0  0  0
  185.6830  178.2920  138.4510 N   0  0  0  0  0  0  0  0  0  0  0  0
  184.4280  177.9470  138.0580 C   0  0  0  0  0  0  0  0  0  0  0  0
  189.7520  177.6300  136.8520 C   0  0  0  0  0  2  0  0  0  0  0  0
  186.6580  177.1380  136.5900 C   0  0  0  0  0  0  0  0  0  0  0  0
  186.8510  178.2370  140.4120 C   0  0  0  0  0  2  0  0  0  0  0  0
  189.2050  177.3520  140.3270 C   0  0  0  0  0  2  0  0  0  0  0  0
  187.6070  177.7640  142.7580 C   0  0  0  0  0  2  0  0  0  0  0  0
  189.7960  177.8330  141.6160 C   0  0  0  0  0  3  0  0  0  0  0  0
  188.2240  178.3820  139.7600 C   0  0  1  0  0  3  0  0  0  0  0  0
  189.0850  178.0410  142.7270 C   0  0  0  0  0  0  0  0  0  0  0  0
  186.8490  178.7280  141.8540 C   0  0  0  0  0  2  0  0  0  0  0  0
  189.7850  178.5060  143.8900 N   0  0  0  0  0  2  0  0  0  0  0  0
  189.2950  177.7690  146.2120 C   0  0  0  0  0  3  0  0  0  0  0  0
  190.1200  177.7750  145.0790 C   0  0  0  0  0  0  0  0  0  0  0  0
  189.6850  177.0540  147.3460 C   0  0  0  0  0  3  0  0  0  0  0  0
  191.6810  176.3640  146.2650 C   0  0  0  0  0  3  0  0  0  0  0  0
  191.3250  177.0680  145.1130 C   0  0  0  0  0  3  0  0  0  0  0  0
  190.8610  176.3710  147.3510 N   0  0  0  0  0  0  0  0  0  0  0  0
  181.2620  179.4420  139.3650 C   0  0  0  0  0  3  0  0  0  0  0  0
  181.5180  178.8540  140.6010 C   0  0  0  0  0  3  0  0  0  0  0  0
  182.9660  178.0100  140.4580 S   0  0  0  0  0  0  0  0  0  0  0  0
  182.2320  179.1840  138.3860 C   0  0  0  0  0  3  0  0  0  0  0  0
  183.2670  178.3850  138.8500 C   0  0  0  0  0  0  0  0  0  0  0  0
  189.8980  176.4280  134.6620 C   0  0  0  0  0  2  0  0  0  0  0  0
  189.9840  174.9790  135.1510 C   0  0  0  0  0  2  0  0  0  0  0  0
  193.4970  175.8920  137.2670 C   0  0  0  0  0  2  0  0  0  0  0  0
  191.7540  173.2220  135.0450 C   0  0  0  0  0  1  0  0  0  0  0  0
  191.4260  174.5070  137.1330 C   0  0  0  0  0  3  0  0  0  0  0  0
  192.3700  175.6240  135.0720 C   0  0  0  0  0  2  0  0  0  0  0  0
  191.3850  174.5830  135.6200 C   0  0  2  0  0  0  0  0  0  0  0  0
  193.7110  175.5510  135.7980 C   0  0  0  0  0  2  0  0  0  0  0  0
  192.4000  175.0590  137.8740 C   0  0  0  0  0  3  0  0  0  0  0  0
  1 11  1  0  0  0  0
  3 31  1  6  0  0  0
  3  1  1  0  0  0  0
  3 10  1  0  0  0  0
  4 11  2  0  0  0  0
  4  7  1  0  0  0  0
  5  2  1  0  0  0  0
  5  8  2  0  0  0  0
  6  2  1  0  0  0  0
  7  9  2  0  0  0  0
  9  8  1  0  0  0  0
  9 30  1  0  0  0  0
 10  6  1  0  0  0  0
 11  5  1  0  0  0  0
 12 18  1  0  0  0  0
 13 15  1  0  0  0  0
 15 17  2  0  0  0  0
 16  2  1  6  0  0  0
 16 13  1  0  0  0  0
 16 12  1  0  0  0  0
 17 14  1  0  0  0  0
 17 19  1  0  0  0  0
 18 14  1  0  0  0  0
 19 21  1  0  0  0  0
 20 22  1  0  0  0  0
 21 24  1  0  0  0  0
 21 20  2  0  0  0  0
 22 25  2  0  0  0  0
 23 25  1  0  0  0  0
 24 23  2  0  0  0  0
 26 27  2  0  0  0  0
 28 27  1  0  0  0  0
 29 30  2  0  0  0  0
 29 26  1  0  0  0  0
 30 28  1  0  0  0  0
 31 32  1  0  0  0  0
 32 37  1  0  0  0  0
 33 39  1  0  0  0  0
 35 39  2  0  0  0  0
 36 37  1  0  0  0  0
 36 38  1  0  0  0  0
 37 34  1  6  0  0  0
 37 35  1  0  0  0  0
 38 33  1  0  0  0  0
M  END
>  <MODEL>
8

>  <REMARK>
 VINA RESULT:      -7.4      2.640      4.254
  Name = 
  7 active torsions:
  status: ('A' for Active; 'I' for Inactive)
    1  A    between atoms: C_3  and  N_13
    2  A    between atoms: N_5  and  C_31
    3  A    between atoms: N_13  and  C_33
    4  A    between atoms: C_15  and  C_18
    5  A    between atoms: C_18  and  C_34
    6  A    between atoms: C_27  and  C_34
    7  A    between atoms: C_30  and  C_32
                            x       y       z     vdW  Elec       q    Type
                         _______ _______ _______ _____ _____    ______ ____

>  <TORSDO>
F 7

$$$$
=
 OpenBabel11032420263D

 39 44  0  0  1  0  0  0  0  0999 V2000
  187.9220  177.0420  137.1910 N   0  0  0  0  0  2  0  0  0  0  0  0
  187.7800  178.4660  139.8200 N   0  0  0  0  0  0  0  0  0  0  0  0
  189.2520  177.6330  137.2760 C   0  0  1  0  0  3  0  0  0  0  0  0
  185.5280  177.3370  137.0300 C   0  0  0  0  0  3  0  0  0  0  0  0
  186.6320  178.2600  138.9770 C   0  0  0  0  0  0  0  0  0  0  0  0
  188.9820  178.9450  139.2740 N   0  0  0  0  0  2  0  0  0  0  0  0
  184.3010  177.7710  137.5250 C   0  0  0  0  0  3  0  0  0  0  0  0
  185.4100  178.6580  139.4350 N   0  0  0  0  0  0  0  0  0  0  0  0
  184.2570  178.4440  138.7450 C   0  0  0  0  0  0  0  0  0  0  0  0
  189.6880  177.8120  138.7130 C   0  0  0  0  0  2  0  0  0  0  0  0
  186.7100  177.5850  137.7320 C   0  0  0  0  0  0  0  0  0  0  0  0
  186.1150  178.6690  141.5970 C   0  0  0  0  0  2  0  0  0  0  0  0
  188.0910  177.1410  141.9030 C   0  0  0  0  0  2  0  0  0  0  0  0
  186.1350  177.8610  143.9730 C   0  0  0  0  0  2  0  0  0  0  0  0
  188.4670  177.3530  143.3360 C   0  0  0  0  0  3  0  0  0  0  0  0
  187.5900  178.4440  141.2730 C   0  0  1  0  0  3  0  0  0  0  0  0
  187.5960  177.6950  144.2890 C   0  0  0  0  0  0  0  0  0  0  0  0
  185.9040  179.0540  143.0560 C   0  0  0  0  0  2  0  0  0  0  0  0
  188.0990  177.8680  145.6230 N   0  0  0  0  0  2  0  0  0  0  0  0
  190.4470  177.1190  145.3150 C   0  0  0  0  0  3  0  0  0  0  0  0
  189.3830  177.4970  146.1440 C   0  0  0  0  0  0  0  0  0  0  0  0
  191.6680  176.7490  145.8840 C   0  0  0  0  0  3  0  0  0  0  0  0
  190.8010  177.1130  148.0610 C   0  0  0  0  0  3  0  0  0  0  0  0
  189.5660  177.4870  147.5290 C   0  0  0  0  0  3  0  0  0  0  0  0
  191.8200  176.7540  147.2350 N   0  0  0  0  0  0  0  0  0  0  0  0
  181.1590  179.0540  140.7430 C   0  0  0  0  0  3  0  0  0  0  0  0
  180.7780  180.0240  139.8190 C   0  0  0  0  0  3  0  0  0  0  0  0
  181.9820  180.0920  138.6470 S   0  0  0  0  0  0  0  0  0  0  0  0
  182.3810  178.4290  140.4590 C   0  0  0  0  0  3  0  0  0  0  0  0
  182.9750  178.9060  139.3000 C   0  0  0  0  0  0  0  0  0  0  0  0
  190.2560  176.7830  136.5040 C   0  0  0  0  0  2  0  0  0  0  0  0
  190.8930  175.7020  137.3830 C   0  0  0  0  0  2  0  0  0  0  0  0
  194.1930  173.9550  135.4590 C   0  0  0  0  0  2  0  0  0  0  0  0
  193.1160  176.5050  138.1850 C   0  0  0  0  0  1  0  0  0  0  0  0
  192.7900  175.9920  135.7880 C   0  0  0  0  0  3  0  0  0  0  0  0
  192.8050  174.1400  137.5080 C   0  0  0  0  0  2  0  0  0  0  0  0
  192.4070  175.5890  137.1980 C   0  0  2  0  0  0  0  0  0  0  0  0
  194.2010  173.8260  136.9760 C   0  0  0  0  0  2  0  0  0  0  0  0
  193.6290  175.2790  135.0190 C   0  0  0  0  0  3  0  0  0  0  0  0
  1  3  1  0  0  0  0
  1 11  1  0  0  0  0
  3 31  1  6  0  0  0
  3 10  1  0  0  0  0
  4  7  2  0  0  0  0
  4 11  1  0  0  0  0
  5  8  1  0  0  0  0
  5  2  1  0  0  0  0
  6  2  1  0  0  0  0
  7  9  1  0  0  0  0
  9 30  1  0  0  0  0
  9  8  2  0  0  0  0
 10  6  1  0  0  0  0
 11  5  2  0  0  0  0
 12 18  1  0  0  0  0
 13 15  1  0  0  0  0
 14 17  1  0  0  0  0
 15 17  2  0  0  0  0
 16  2  1  6  0  0  0
 16 12  1  0  0  0  0
 16 13  1  0  0  0  0
 17 19  1  0  0  0  0
 18 14  1  0  0  0  0
 19 21  1  0  0  0  0
 20 22  2  0  0  0  0
 20 21  1  0  0  0  0
 21 24  2  0  0  0  0
 22 25  1  0  0  0  0
 24 23  1  0  0  0  0
 25 23  2  0  0  0  0
 27 26  2  0  0  0  0
 28 30  1  0  0  0  0
 28 27  1  0  0  0  0
 29 26  1  0  0  0  0
 30 29  2  0  0  0  0
 31 32  1  0  0  0  0
 33 38  1  0  0  0  0
 35 37  1  0  0  0  0
 37 32  1  0  0  0  0
 37 36  1  0  0  0  0
 37 34  1  1  0  0  0
 38 36  1  0  0  0  0
 39 33  1  0  0  0  0
 39 35  2  0  0  0  0
M  END
>  <MODEL>
9

>  <REMARK>
 VINA RESULT:      -7.3      2.192      4.089
  Name = 
  7 active torsions:
  status: ('A' for Active; 'I' for Inactive)
    1  A    between atoms: C_3  and  N_13
    2  A    between atoms: N_5  and  C_31
    3  A    between atoms: N_13  and  C_33
    4  A    between atoms: C_15  and  C_18
    5  A    between atoms: C_18  and  C_34
    6  A    between atoms: C_27  and  C_34
    7  A    between atoms: C_30  and  C_32
                            x       y       z     vdW  Elec       q    Type
                         _______ _______ _______ _____ _____    ______ ____

>  <TORSDO>
F 7

$$$$
