=
 OpenBabel11042409553D

 66 74  0  0  1  0  0  0  0  0999 V2000
  186.3020  178.6250  141.9450 C   0  0  0  0  0  3  0  0  0  0  0  0
  186.9520  178.4870  140.7780 C   0  0  0  0  0  0  0  0  0  0  0  0
  188.3390  179.0590  140.7420 C   0  0  0  0  0  2  0  0  0  0  0  0
  187.2530  177.7450  138.3230 C   0  0  1  0  0  3  0  0  0  0  0  0
  186.3120  177.8660  139.5330 C   0  0  2  0  0  3  0  0  0  0  0  0
  189.1190  178.6240  139.5110 C   0  0  0  0  0  2  0  0  0  0  0  0
  188.2990  178.7730  138.3160 N   0  0  0  0  0  2  0  0  0  0  0  0
  184.9940  178.5630  139.1400 C   0  0  1  0  0  3  0  0  0  0  0  0
  185.2440  179.6970  138.3670 O   0  0  0  0  0  1  0  0  0  0  0  0
  183.4420  176.6830  139.3660 C   0  0  0  0  0  1  0  0  0  0  0  0
  183.9860  177.7050  138.4730 N   0  0  0  0  0  0  0  0  0  0  0  0
  182.8420  178.5110  138.0090 C   0  0  1  0  0  3  0  0  0  0  0  0
  181.9090  177.7340  137.0730 C   0  0  0  0  0  2  0  0  0  0  0  0
  181.5780  178.5160  135.9700 O   0  0  0  0  0  1  0  0  0  0  0  0
  182.0560  179.0890  139.1870 C   0  0  0  0  0  2  0  0  0  0  0  0
  179.7990  180.0850  139.9140 C   0  0  0  0  0  0  0  0  0  0  0  0
  179.7870  182.3240  138.9770 O   0  0  0  0  0  0  0  0  0  0  0  0
  179.2260  179.1160  140.6270 C   0  0  0  0  0  2  0  0  0  0  0  0
  179.3370  181.5120  140.0500 C   0  0  0  0  0  2  0  0  0  0  0  0
  180.8560  181.5300  136.5030 O   0  0  0  0  0  0  0  0  0  0  0  0
  180.7480  179.8050  138.7990 C   0  0  1  0  0  3  0  0  0  0  0  0
  181.0260  181.4600  138.1890 P   0  0  2  0  0  0  0  0  0  0  0  0
  182.3780  181.9950  138.5870 O   0  0  0  0  0  1  0  0  0  0  0  0
  187.8340  176.3260  138.1750 C   0  0  0  0  0  2  0  0  0  0  0  0
  190.8420  176.3770  137.5520 C   0  0  0  0  0  3  0  0  0  0  0  0
  187.4330  175.6940  135.7580 C   0  0  0  0  0  0  0  0  0  0  0  0
  192.5070  174.3510  134.9440 C   0  0  0  0  0  3  0  0  0  0  0  0
  188.3350  176.1250  136.8140 N   0  0  0  0  0  0  0  0  0  0  0  0
  196.4980  174.0660  136.2580 C   0  0  0  0  0  3  0  0  0  0  0  0
  195.5910  174.8570  136.9720 C   0  0  0  0  0  3  0  0  0  0  0  0
  191.6220  175.1140  135.7020 C   0  0  0  0  0  0  0  0  0  0  0  0
  192.0140  175.7560  136.8610 C   0  0  0  0  0  0  0  0  0  0  0  0
  194.7580  173.4740  134.6750 C   0  0  0  0  0  3  0  0  0  0  0  0
  194.2590  174.9600  136.5510 C   0  0  0  0  0  0  0  0  0  0  0  0
  189.3180  174.7230  134.5950 N   0  0  0  0  0  0  0  0  0  0  0  0
  187.9090  174.9870  134.7160 C   0  0  0  0  0  3  0  0  0  0  0  0
  193.3340  175.6980  137.3090 C   0  0  0  0  0  3  0  0  0  0  0  0
  193.8410  174.2680  135.3760 C   0  0  0  0  0  0  0  0  0  0  0  0
  196.0840  173.3720  135.1190 C   0  0  0  0  0  3  0  0  0  0  0  0
  189.7450  175.9800  136.6040 C   0  0  0  0  0  0  0  0  0  0  0  0
  190.1980  175.3020  135.5610 C   0  0  0  0  0  0  0  0  0  0  0  0
  186.0650  175.9810  135.8120 O   0  0  0  0  0  0  0  0  0  0  0  0
  183.8760  175.0800  135.5510 C   0  0  0  0  0  3  0  0  0  0  0  0
  183.3120  172.8150  136.4910 C   0  0  1  0  0  3  0  0  0  0  0  0
  185.4660  173.9080  137.0640 C   0  0  0  0  0  2  0  0  0  0  0  0
  182.7760  174.1010  135.8550 C   0  0  0  0  0  2  0  0  0  0  0  0
  184.2500  173.1780  137.6340 C   0  0  0  0  0  2  0  0  0  0  0  0
  182.1580  171.9940  137.0140 C   0  0  0  0  0  1  0  0  0  0  0  0
  185.0860  175.0320  136.1320 C   0  0  0  0  0  0  0  0  0  0  0  0
  184.8650  178.2600  142.1840 C   0  0  0  0  0  2  0  0  0  0  0  0
  184.4020  178.5530  143.6140 C   0  0  2  0  0  3  0  0  0  0  0  0
  183.0610  179.2890  143.6700 C   0  0  0  0  0  2  0  0  0  0  0  0
  182.1490  178.5850  144.5650 N   0  0  0  0  0  1  0  0  0  0  0  0
  185.4190  179.2340  144.3170 O   0  0  0  0  0  0  0  0  0  0  0  0
  185.6290  178.6510  145.5970 C   0  0  1  0  0  3  0  0  0  0  0  0
  185.3590  177.2840  145.5550 O   0  0  0  0  0  1  0  0  0  0  0  0
  187.0050  178.9100  146.2320 C   0  0  0  0  0  2  0  0  0  0  0  0
  189.4680  176.9210  143.6370 C   0  0  0  0  0  2  0  0  0  0  0  0
  187.7380  176.5550  146.4920 O   0  0  0  0  0  1  0  0  0  0  0  0
  187.9870  177.7980  145.8980 C   0  0  1  0  0  0  0  0  0  0  0  0
  188.5300  177.8500  144.4360 C   0  0  0  0  0  0  0  0  0  0  0  0
  188.1020  176.4630  143.9200 C   0  0  0  0  0  2  0  0  0  0  0  0
  189.4100  178.1790  145.7090 C   0  0  2  0  0  3  0  0  0  0  0  0
  189.9860  176.4040  147.2880 O   0  0  0  0  0  1  0  0  0  0  0  0
  190.3530  177.1700  146.3460 C   0  0  0  0  0  0  0  0  0  0  0  0
  191.6960  177.1890  145.9810 O   0  0  0  0  0  0  0  0  0  0  0  0
  1 50  1  0  0  0  0
  2  1  2  0  0  0  0
  3  2  1  0  0  0  0
  4 24  1  1  0  0  0
  4  5  1  0  0  0  0
  5  8  1  6  0  0  0
  5  2  1  0  0  0  0
  6  3  1  0  0  0  0
  7  4  1  0  0  0  0
  7  6  1  0  0  0  0
  8  9  1  6  0  0  0
 11  8  1  0  0  0  0
 11 10  1  0  0  0  0
 12 13  1  1  0  0  0
 12 11  1  0  0  0  0
 12 15  1  0  0  0  0
 14 13  1  0  0  0  0
 16 19  1  0  0  0  0
 16 18  2  0  0  0  0
 17 19  1  0  0  0  0
 21 15  1  1  0  0  0
 21 16  1  0  0  0  0
 22 20  2  6  0  0  0
 22 23  1  0  0  0  0
 22 21  1  0  0  0  0
 22 17  1  0  0  0  0
 26 42  1  0  0  0  0
 26 28  1  0  0  0  0
 27 38  2  0  0  0  0
 27 31  1  0  0  0  0
 28 24  1  0  0  0  0
 29 30  2  0  0  0  0
 31 32  2  0  0  0  0
 32 37  1  0  0  0  0
 32 25  1  0  0  0  0
 33 39  2  0  0  0  0
 33 38  1  0  0  0  0
 34 30  1  0  0  0  0
 34 37  2  0  0  0  0
 35 36  1  0  0  0  0
 35 41  2  0  0  0  0
 36 26  2  0  0  0  0
 38 34  1  0  0  0  0
 39 29  1  0  0  0  0
 40 28  1  0  0  0  0
 40 25  2  0  0  0  0
 41 31  1  0  0  0  0
 41 40  1  0  0  0  0
 42 49  1  0  0  0  0
 43 46  1  0  0  0  0
 43 49  2  0  0  0  0
 44 48  1  1  0  0  0
 44 47  1  0  0  0  0
 45 47  1  0  0  0  0
 46 44  1  0  0  0  0
 49 45  1  0  0  0  0
 51 50  1  6  0  0  0
 51 52  1  0  0  0  0
 51 54  1  0  0  0  0
 52 53  1  0  0  0  0
 54 55  1  0  0  0  0
 55 56  1  6  0  0  0
 55 57  1  0  0  0  0
 58 62  1  0  0  0  0
 58 61  1  0  0  0  0
 60 57  1  0  0  0  0
 60 59  1  1  0  0  0
 61 63  1  0  0  0  0
 61 60  1  0  0  0  0
 62 61  1  0  0  0  0
 63 60  1  0  0  0  0
 63 65  1  1  0  0  0
 65 64  1  0  0  0  0
 66 65  2  0  0  0  0
M  END
>  <MODEL>
1

>  <REMARK>
 VINA RESULT:      -6.8      0.000      0.000
  Name = 
  18 active torsions:
  status: ('A' for Active; 'I' for Inactive)
    1  A    between atoms: C_1  and  C_36
    2  A    between atoms: C_1  and  N_62
    3  A    between atoms: O_2  and  C_25
    4  A    between atoms: O_2  and  C_39
    5  A    between atoms: C_6  and  O_12
    6  A    between atoms: C_11  and  C_23
    7  A    between atoms: C_11  and  C_25
    8  A    between atoms: O_12  and  C_53
    9  A    between atoms: C_13  and  C_19
   10  A    between atoms: C_14  and  C_39
   11  A    between atoms: C_14  and  C_49
   12  A    between atoms: C_19  and  C_41
   13  A    between atoms: C_19  and  N_62
   14  A    between atoms: N_20  and  C_33
   15  A    between atoms: C_21  and  C_25
   16  A    between atoms: C_32  and  C_33
   17  A    between atoms: C_41  and  C_58
   18  A    between atoms: C_60  and  C_64
                            x       y       z     vdW  Elec       q    Type
                         _______ _______ _______ _____ _____    ______ ____

>  <TORSDO>
F 18

$$$$
=
 OpenBabel11042409553D

 66 74  0  0  1  0  0  0  0  0999 V2000
  187.8400  177.7920  138.2070 C   0  0  0  0  0  3  0  0  0  0  0  0
  187.0720  177.8320  137.1060 C   0  0  0  0  0  0  0  0  0  0  0  0
  187.6240  178.6360  135.9650 C   0  0  0  0  0  2  0  0  0  0  0  0
  185.0080  177.2890  135.6540 C   0  0  1  0  0  3  0  0  0  0  0  0
  185.6900  177.1800  137.0270 C   0  0  2  0  0  3  0  0  0  0  0  0
  186.8620  178.4100  134.6680 C   0  0  0  0  0  2  0  0  0  0  0  0
  185.4260  178.4810  134.9090 N   0  0  0  0  0  2  0  0  0  0  0  0
  184.7480  177.6600  138.1510 C   0  0  1  0  0  3  0  0  0  0  0  0
  184.6430  179.0510  138.1490 O   0  0  0  0  0  1  0  0  0  0  0  0
  183.1040  176.3710  139.4270 C   0  0  0  0  0  1  0  0  0  0  0  0
  183.3980  177.0470  138.1660 N   0  0  0  0  0  0  0  0  0  0  0  0
  182.3590  178.0770  137.9870 C   0  0  1  0  0  3  0  0  0  0  0  0
  181.5590  177.8950  136.6920 C   0  0  0  0  0  2  0  0  0  0  0  0
  180.2500  178.3310  136.8720 O   0  0  0  0  0  1  0  0  0  0  0  0
  181.4170  178.1300  139.1920 C   0  0  0  0  0  2  0  0  0  0  0  0
  180.9720  180.6620  139.2550 C   0  0  0  0  0  0  0  0  0  0  0  0
  179.6520  181.0020  141.2650 O   0  0  0  0  0  0  0  0  0  0  0  0
  181.5720  181.1300  138.1620 C   0  0  0  0  0  2  0  0  0  0  0  0
  179.9060  181.4690  139.9490 C   0  0  0  0  0  2  0  0  0  0  0  0
  181.1970  179.2600  142.8360 O   0  0  0  0  0  1  0  0  0  0  0  0
  181.4560  179.4540  139.9810 C   0  0  1  0  0  3  0  0  0  0  0  0
  180.3480  179.4510  141.3810 P   0  0  2  0  0  0  0  0  0  0  0  0
  179.2870  178.3860  141.2660 O   0  0  0  0  0  0  0  0  0  0  0  0
  185.1600  176.0020  134.8220 C   0  0  0  0  0  2  0  0  0  0  0  0
  188.1740  175.4460  134.6020 C   0  0  0  0  0  3  0  0  0  0  0  0
  185.0700  174.2950  136.6870 C   0  0  0  0  0  0  0  0  0  0  0  0
  190.3350  174.3190  137.3840 C   0  0  0  0  0  3  0  0  0  0  0  0
  185.8040  174.9570  135.6210 N   0  0  0  0  0  0  0  0  0  0  0  0
  194.1940  175.5790  136.2600 C   0  0  0  0  0  3  0  0  0  0  0  0
  193.1230  175.7630  135.3770 C   0  0  0  0  0  3  0  0  0  0  0  0
  189.2870  174.5540  136.4970 C   0  0  0  0  0  0  0  0  0  0  0  0
  189.4790  175.1920  135.2860 C   0  0  0  0  0  0  0  0  0  0  0  0
  192.7040  174.5570  137.8780 C   0  0  0  0  0  3  0  0  0  0  0  0
  191.8330  175.3520  135.7370 C   0  0  0  0  0  0  0  0  0  0  0  0
  187.1700  173.8270  137.7920 N   0  0  0  0  0  0  0  0  0  0  0  0
  185.7330  173.7900  137.7450 C   0  0  0  0  0  3  0  0  0  0  0  0
  190.7490  175.6000  134.8780 C   0  0  0  0  0  3  0  0  0  0  0  0
  191.6240  174.7280  137.0020 C   0  0  0  0  0  0  0  0  0  0  0  0
  193.9850  174.9860  137.5070 C   0  0  0  0  0  3  0  0  0  0  0  0
  187.2330  174.8560  135.6160 C   0  0  0  0  0  0  0  0  0  0  0  0
  187.8690  174.3350  136.6540 C   0  0  0  0  0  0  0  0  0  0  0  0
  183.6760  174.1880  136.6490 O   0  0  0  0  0  0  0  0  0  0  0  0
  181.6830  172.9040  136.4220 C   0  0  0  0  0  3  0  0  0  0  0  0
  181.5990  170.9590  134.8280 C   0  0  1  0  0  3  0  0  0  0  0  0
  183.7600  172.0700  135.3350 C   0  0  0  0  0  2  0  0  0  0  0  0
  180.8950  171.7090  135.9620 C   0  0  0  0  0  2  0  0  0  0  0  0
  183.0520  170.7210  135.2150 C   0  0  0  0  0  2  0  0  0  0  0  0
  180.9070  169.6380  134.5940 C   0  0  0  0  0  1  0  0  0  0  0  0
  182.9970  173.0550  136.1860 C   0  0  0  0  0  0  0  0  0  0  0  0
  187.4450  177.1720  139.5160 C   0  0  0  0  0  2  0  0  0  0  0  0
  188.1590  177.8010  140.7170 C   0  0  2  0  0  3  0  0  0  0  0  0
  187.3570  178.9330  141.3630 C   0  0  0  0  0  2  0  0  0  0  0  0
  185.9700  178.5170  141.5420 N   0  0  0  0  0  1  0  0  0  0  0  0
  189.4580  178.2060  140.3430 O   0  0  0  0  0  0  0  0  0  0  0  0
  190.4350  177.3030  140.8440 C   0  0  1  0  0  3  0  0  0  0  0  0
  191.3270  176.9480  139.8330 O   0  0  0  0  0  1  0  0  0  0  0  0
  191.1960  177.7690  142.0970 C   0  0  0  0  0  2  0  0  0  0  0  0
  191.3600  176.8960  146.0930 C   0  0  0  0  0  2  0  0  0  0  0  0
  189.9890  175.9000  143.1940 O   0  0  0  0  0  1  0  0  0  0  0  0
  190.6290  177.1340  143.3570 C   0  0  1  0  0  0  0  0  0  0  0  0
  191.4910  177.3840  144.6340 C   0  0  0  0  0  0  0  0  0  0  0  0
  191.7900  175.9360  145.0680 C   0  0  0  0  0  2  0  0  0  0  0  0
  190.0750  178.0460  144.3900 C   0  0  2  0  0  3  0  0  0  0  0  0
  188.4860  177.6820  146.2110 O   0  0  0  0  0  1  0  0  0  0  0  0
  188.7900  177.5000  144.9930 C   0  0  0  0  0  0  0  0  0  0  0  0
  187.9980  176.6550  144.2220 O   0  0  0  0  0  0  0  0  0  0  0  0
  1 50  1  0  0  0  0
  2  1  2  0  0  0  0
  3  2  1  0  0  0  0
  4 24  1  6  0  0  0
  4  5  1  0  0  0  0
  5  2  1  0  0  0  0
  5  8  1  1  0  0  0
  6  7  1  0  0  0  0
  6  3  1  0  0  0  0
  7  4  1  0  0  0  0
  8  9  1  6  0  0  0
  8 11  1  0  0  0  0
 11 10  1  0  0  0  0
 12 13  1  6  0  0  0
 12 11  1  0  0  0  0
 12 15  1  0  0  0  0
 13 14  1  0  0  0  0
 16 19  1  0  0  0  0
 16 21  1  0  0  0  0
 17 22  1  0  0  0  0
 18 16  2  0  0  0  0
 19 17  1  0  0  0  0
 21 15  1  6  0  0  0
 21 22  1  0  0  0  0
 22 23  2  6  0  0  0
 22 20  1  0  0  0  0
 24 28  1  0  0  0  0
 25 32  1  0  0  0  0
 25 40  2  0  0  0  0
 26 36  2  0  0  0  0
 28 26  1  0  0  0  0
 29 39  1  0  0  0  0
 30 34  1  0  0  0  0
 30 29  2  0  0  0  0
 31 41  1  0  0  0  0
 31 27  2  0  0  0  0
 32 31  1  0  0  0  0
 34 38  2  0  0  0  0
 36 35  1  0  0  0  0
 37 32  2  0  0  0  0
 37 34  1  0  0  0  0
 38 27  1  0  0  0  0
 38 33  1  0  0  0  0
 39 33  2  0  0  0  0
 40 28  1  0  0  0  0
 40 41  1  0  0  0  0
 41 35  2  0  0  0  0
 42 26  1  0  0  0  0
 44 48  1  1  0  0  0
 44 47  1  0  0  0  0
 44 46  1  0  0  0  0
 45 49  1  0  0  0  0
 46 43  1  0  0  0  0
 47 45  1  0  0  0  0
 49 43  2  0  0  0  0
 49 42  1  0  0  0  0
 51 50  1  6  0  0  0
 51 52  1  0  0  0  0
 52 53  1  0  0  0  0
 54 51  1  0  0  0  0
 54 55  1  0  0  0  0
 55 56  1  6  0  0  0
 55 57  1  0  0  0  0
 57 60  1  0  0  0  0
 60 59  1  6  0  0  0
 60 63  1  0  0  0  0
 60 61  1  0  0  0  0
 61 62  1  0  0  0  0
 61 58  1  0  0  0  0
 62 58  1  0  0  0  0
 63 61  1  0  0  0  0
 63 65  1  1  0  0  0
 65 64  1  0  0  0  0
 66 65  2  0  0  0  0
M  END
>  <MODEL>
2

>  <REMARK>
 VINA RESULT:      -5.9      2.217      3.677
  Name = 
  18 active torsions:
  status: ('A' for Active; 'I' for Inactive)
    1  A    between atoms: C_1  and  C_36
    2  A    between atoms: C_1  and  N_62
    3  A    between atoms: O_2  and  C_25
    4  A    between atoms: O_2  and  C_39
    5  A    between atoms: C_6  and  O_12
    6  A    between atoms: C_11  and  C_23
    7  A    between atoms: C_11  and  C_25
    8  A    between atoms: O_12  and  C_53
    9  A    between atoms: C_13  and  C_19
   10  A    between atoms: C_14  and  C_39
   11  A    between atoms: C_14  and  C_49
   12  A    between atoms: C_19  and  C_41
   13  A    between atoms: C_19  and  N_62
   14  A    between atoms: N_20  and  C_33
   15  A    between atoms: C_21  and  C_25
   16  A    between atoms: C_32  and  C_33
   17  A    between atoms: C_41  and  C_58
   18  A    between atoms: C_60  and  C_64
                            x       y       z     vdW  Elec       q    Type
                         _______ _______ _______ _____ _____    ______ ____

>  <TORSDO>
F 18

$$$$
=
 OpenBabel11042409553D

 66 74  0  0  1  0  0  0  0  0999 V2000
  188.0280  178.1400  139.9330 C   0  0  0  0  0  3  0  0  0  0  0  0
  187.7660  178.2330  138.6190 C   0  0  0  0  0  0  0  0  0  0  0  0
  188.7360  179.0590  137.8270 C   0  0  0  0  0  2  0  0  0  0  0  0
  186.4520  177.7860  136.4420 C   0  0  1  0  0  3  0  0  0  0  0  0
  186.5250  177.6170  137.9690 C   0  0  2  0  0  3  0  0  0  0  0  0
  188.5550  178.8930  136.3250 C   0  0  0  0  0  2  0  0  0  0  0  0
  187.1440  178.9910  135.9740 N   0  0  0  0  0  2  0  0  0  0  0  0
  185.2170  178.0820  138.6400 C   0  0  1  0  0  3  0  0  0  0  0  0
  185.0720  179.4660  138.5370 O   0  0  0  0  0  1  0  0  0  0  0  0
  183.3850  176.5620  139.2120 C   0  0  0  0  0  1  0  0  0  0  0  0
  183.9800  177.4070  138.1780 N   0  0  0  0  0  0  0  0  0  0  0  0
  182.9550  178.3980  137.8030 C   0  0  1  0  0  3  0  0  0  0  0  0
  182.4920  178.2510  136.3490 C   0  0  0  0  0  2  0  0  0  0  0  0
  181.3540  179.0220  136.1290 O   0  0  0  0  0  1  0  0  0  0  0  0
  181.7570  178.3450  138.7530 C   0  0  0  0  0  2  0  0  0  0  0  0
  180.7360  180.5980  139.4550 C   0  0  0  0  0  0  0  0  0  0  0  0
  180.0100  180.2540  141.7470 O   0  0  0  0  0  0  0  0  0  0  0  0
  180.8600  181.3670  138.3750 C   0  0  0  0  0  2  0  0  0  0  0  0
  179.7500  180.9500  140.5380 C   0  0  0  0  0  2  0  0  0  0  0  0
  182.3250  178.8490  142.4990 O   0  0  0  0  0  1  0  0  0  0  0  0
  181.6930  179.4990  139.7720 C   0  0  1  0  0  3  0  0  0  0  0  0
  181.0720  178.9770  141.3620 P   0  0  2  0  0  0  0  0  0  0  0  0
  180.3220  177.6730  141.2820 O   0  0  0  0  0  0  0  0  0  0  0  0
  186.9130  176.5230  135.6920 C   0  0  0  0  0  2  0  0  0  0  0  0
  184.1800  175.1240  135.8200 C   0  0  0  0  0  3  0  0  0  0  0  0
  187.8320  174.6690  137.1480 C   0  0  0  0  0  0  0  0  0  0  0  0
  183.6730  171.4870  136.2610 C   0  0  0  0  0  3  0  0  0  0  0  0
  186.7010  175.3360  136.5220 N   0  0  0  0  0  0  0  0  0  0  0  0
  179.8710  170.7720  134.5940 C   0  0  0  0  0  3  0  0  0  0  0  0
  180.3510  172.0840  134.6820 C   0  0  0  0  0  3  0  0  0  0  0  0
  184.1350  172.8010  136.2950 C   0  0  0  0  0  0  0  0  0  0  0  0
  183.3930  173.8530  135.7910 C   0  0  0  0  0  0  0  0  0  0  0  0
  181.9090  169.9430  135.6160 C   0  0  0  0  0  3  0  0  0  0  0  0
  181.6140  172.3390  135.2310 C   0  0  0  0  0  0  0  0  0  0  0  0
  186.5640  172.6090  137.1590 N   0  0  0  0  0  0  0  0  0  0  0  0
  187.7700  173.3510  137.4140 C   0  0  0  0  0  3  0  0  0  0  0  0
  182.1220  173.6490  135.2540 C   0  0  0  0  0  3  0  0  0  0  0  0
  182.3990  171.2520  135.7170 C   0  0  0  0  0  0  0  0  0  0  0  0
  180.6480  169.7060  135.0520 C   0  0  0  0  0  3  0  0  0  0  0  0
  185.4660  174.6170  136.4110 C   0  0  0  0  0  0  0  0  0  0  0  0
  185.4160  173.3260  136.7000 C   0  0  0  0  0  0  0  0  0  0  0  0
  189.0010  175.3690  137.4630 O   0  0  0  0  0  0  0  0  0  0  0  0
  190.7870  176.1170  136.0750 C   0  0  0  0  0  3  0  0  0  0  0  0
  192.9290  174.8030  135.9410 C   0  0  1  0  0  3  0  0  0  0  0  0
  190.9460  173.8520  137.0920 C   0  0  0  0  0  2  0  0  0  0  0  0
  192.0970  175.9490  135.3570 C   0  0  0  0  0  2  0  0  0  0  0  0
  192.0500  173.5670  136.0730 C   0  0  0  0  0  2  0  0  0  0  0  0
  194.0920  174.5100  135.0250 C   0  0  0  0  0  1  0  0  0  0  0  0
  190.2290  175.1520  136.8260 C   0  0  0  0  0  0  0  0  0  0  0  0
  187.1350  177.4870  140.9500 C   0  0  0  0  0  2  0  0  0  0  0  0
  187.8470  177.2010  142.2760 C   0  0  2  0  0  3  0  0  0  0  0  0
  187.3150  178.0490  143.4340 C   0  0  0  0  0  2  0  0  0  0  0  0
  186.5940  177.2000  144.3770 N   0  0  0  0  0  1  0  0  0  0  0  0
  189.2420  177.3330  142.1100 O   0  0  0  0  0  0  0  0  0  0  0  0
  189.9420  176.4870  143.0140 C   0  0  1  0  0  3  0  0  0  0  0  0
  190.1130  175.2210  142.4560 O   0  0  0  0  0  1  0  0  0  0  0  0
  191.2810  177.0320  143.5380 C   0  0  0  0  0  2  0  0  0  0  0  0
  189.3520  176.9800  147.1480 C   0  0  0  0  0  2  0  0  0  0  0  0
  192.0010  178.2880  145.5510 O   0  0  0  0  0  1  0  0  0  0  0  0
  191.2500  177.2200  145.0460 C   0  0  1  0  0  0  0  0  0  0  0  0
  189.8740  176.8800  145.6990 C   0  0  0  0  0  0  0  0  0  0  0  0
  189.5400  178.2190  146.3830 C   0  0  0  0  0  2  0  0  0  0  0  0
  191.1730  175.9970  145.8850 C   0  0  2  0  0  3  0  0  0  0  0  0
  193.1170  175.3880  147.2360 O   0  0  0  0  0  0  0  0  0  0  0  0
  192.0720  176.0950  147.1080 C   0  0  0  0  0  0  0  0  0  0  0  0
  191.6550  176.8790  148.1800 O   0  0  0  0  0  1  0  0  0  0  0  0
  1 50  1  0  0  0  0
  2  1  2  0  0  0  0
  3  2  1  0  0  0  0
  4 24  1  6  0  0  0
  4  5  1  0  0  0  0
  5  2  1  0  0  0  0
  5  8  1  1  0  0  0
  6  3  1  0  0  0  0
  7  6  1  0  0  0  0
  7  4  1  0  0  0  0
  8  9  1  6  0  0  0
 11  8  1  0  0  0  0
 11 10  1  0  0  0  0
 12 13  1  6  0  0  0
 12 11  1  0  0  0  0
 12 15  1  0  0  0  0
 14 13  1  0  0  0  0
 16 21  1  0  0  0  0
 16 19  1  0  0  0  0
 18 16  2  0  0  0  0
 19 17  1  0  0  0  0
 21 15  1  6  0  0  0
 21 22  1  0  0  0  0
 22 23  2  6  0  0  0
 22 17  1  0  0  0  0
 22 20  1  0  0  0  0
 24 28  1  0  0  0  0
 25 40  2  0  0  0  0
 26 36  2  0  0  0  0
 26 42  1  0  0  0  0
 27 31  1  0  0  0  0
 28 26  1  0  0  0  0
 29 30  2  0  0  0  0
 29 39  1  0  0  0  0
 30 34  1  0  0  0  0
 31 41  1  0  0  0  0
 32 25  1  0  0  0  0
 32 31  2  0  0  0  0
 33 38  1  0  0  0  0
 34 37  2  0  0  0  0
 34 38  1  0  0  0  0
 35 36  1  0  0  0  0
 37 32  1  0  0  0  0
 38 27  2  0  0  0  0
 39 33  2  0  0  0  0
 40 28  1  0  0  0  0
 40 41  1  0  0  0  0
 41 35  2  0  0  0  0
 43 49  2  0  0  0  0
 44 48  1  6  0  0  0
 44 47  1  0  0  0  0
 46 44  1  0  0  0  0
 46 43  1  0  0  0  0
 47 45  1  0  0  0  0
 49 45  1  0  0  0  0
 49 42  1  0  0  0  0
 51 50  1  6  0  0  0
 51 52  1  0  0  0  0
 52 53  1  0  0  0  0
 54 51  1  0  0  0  0
 54 55  1  0  0  0  0
 55 56  1  6  0  0  0
 55 57  1  0  0  0  0
 57 60  1  0  0  0  0
 60 59  1  1  0  0  0
 60 61  1  0  0  0  0
 60 63  1  0  0  0  0
 61 63  1  0  0  0  0
 61 62  1  0  0  0  0
 61 58  1  0  0  0  0
 62 58  1  0  0  0  0
 63 65  1  1  0  0  0
 65 64  2  0  0  0  0
 65 66  1  0  0  0  0
M  END
>  <MODEL>
3

>  <REMARK>
 VINA RESULT:      -5.9      2.130      6.443
  Name = 
  18 active torsions:
  status: ('A' for Active; 'I' for Inactive)
    1  A    between atoms: C_1  and  C_36
    2  A    between atoms: C_1  and  N_62
    3  A    between atoms: O_2  and  C_25
    4  A    between atoms: O_2  and  C_39
    5  A    between atoms: C_6  and  O_12
    6  A    between atoms: C_11  and  C_23
    7  A    between atoms: C_11  and  C_25
    8  A    between atoms: O_12  and  C_53
    9  A    between atoms: C_13  and  C_19
   10  A    between atoms: C_14  and  C_39
   11  A    between atoms: C_14  and  C_49
   12  A    between atoms: C_19  and  C_41
   13  A    between atoms: C_19  and  N_62
   14  A    between atoms: N_20  and  C_33
   15  A    between atoms: C_21  and  C_25
   16  A    between atoms: C_32  and  C_33
   17  A    between atoms: C_41  and  C_58
   18  A    between atoms: C_60  and  C_64
                            x       y       z     vdW  Elec       q    Type
                         _______ _______ _______ _____ _____    ______ ____

>  <TORSDO>
F 18

$$$$
=
 OpenBabel11042409553D

 66 74  0  0  1  0  0  0  0  0999 V2000
  191.9560  176.4050  137.2310 C   0  0  0  0  0  3  0  0  0  0  0  0
  191.1710  176.5510  138.3110 C   0  0  0  0  0  0  0  0  0  0  0  0
  191.8440  176.3160  139.6320 C   0  0  0  0  0  2  0  0  0  0  0  0
  188.9770  177.0470  139.5780 C   0  0  1  0  0  3  0  0  0  0  0  0
  189.6740  176.8550  138.2210 C   0  0  2  0  0  3  0  0  0  0  0  0
  190.9960  176.7710  140.8090 C   0  0  0  0  0  2  0  0  0  0  0  0
  189.6270  176.2950  140.6570 N   0  0  0  0  0  2  0  0  0  0  0  0
  188.9180  175.8300  137.3520 C   0  0  1  0  0  3  0  0  0  0  0  0
  189.2870  174.5270  137.6860 O   0  0  0  0  0  1  0  0  0  0  0  0
  186.9790  177.1240  136.6030 C   0  0  0  0  0  1  0  0  0  0  0  0
  187.4400  175.9540  137.3480 N   0  0  0  0  0  0  0  0  0  0  0  0
  186.8210  174.7770  136.7110 C   0  0  1  0  0  3  0  0  0  0  0  0
  187.4320  173.4540  137.1870 C   0  0  0  0  0  2  0  0  0  0  0  0
  186.4780  172.7030  137.8660 O   0  0  0  0  0  1  0  0  0  0  0  0
  185.3050  174.7690  136.9170 C   0  0  0  0  0  2  0  0  0  0  0  0
  184.2770  173.3540  135.0310 C   0  0  0  0  0  0  0  0  0  0  0  0
  181.9480  174.0380  134.9520 O   0  0  0  0  0  0  0  0  0  0  0  0
  185.2870  172.6050  134.5940 C   0  0  0  0  0  2  0  0  0  0  0  0
  182.8510  172.9630  134.7440 C   0  0  0  0  0  2  0  0  0  0  0  0
  182.5150  176.7740  135.2420 O   0  0  0  0  0  0  0  0  0  0  0  0
  184.4800  174.7100  135.6170 C   0  0  1  0  0  3  0  0  0  0  0  0
  182.7850  175.2160  135.8560 P   0  0  2  0  0  0  0  0  0  0  0  0
  182.3720  175.1610  137.3050 O   0  0  0  0  0  1  0  0  0  0  0  0
  188.7940  178.5340  139.9350 C   0  0  0  0  0  2  0  0  0  0  0  0
  185.8390  179.0100  139.2420 C   0  0  0  0  0  3  0  0  0  0  0  0
  188.1120  178.4010  142.3670 C   0  0  0  0  0  0  0  0  0  0  0  0
  182.9670  177.7650  141.2120 C   0  0  0  0  0  3  0  0  0  0  0  0
  187.7790  178.6810  140.9800 N   0  0  0  0  0  0  0  0  0  0  0  0
  179.8100  177.5930  138.4280 C   0  0  0  0  0  3  0  0  0  0  0  0
  181.0480  178.1190  138.0380 C   0  0  0  0  0  3  0  0  0  0  0  0
  184.1950  178.2570  140.7770 C   0  0  0  0  0  0  0  0  0  0  0  0
  184.4010  178.6690  139.4740 C   0  0  0  0  0  0  0  0  0  0  0  0
  180.6700  177.1900  140.6600 C   0  0  0  0  0  3  0  0  0  0  0  0
  182.1090  178.1810  138.9500 C   0  0  0  0  0  0  0  0  0  0  0  0
  185.7840  177.8920  142.7840 N   0  0  0  0  0  0  0  0  0  0  0  0
  187.1530  177.9850  143.2160 C   0  0  0  0  0  3  0  0  0  0  0  0
  183.3690  178.6450  138.5360 C   0  0  0  0  0  3  0  0  0  0  0  0
  181.9110  177.7210  140.2860 C   0  0  0  0  0  0  0  0  0  0  0  0
  179.6230  177.1240  139.7300 C   0  0  0  0  0  3  0  0  0  0  0  0
  186.3960  178.7220  140.6080 C   0  0  0  0  0  0  0  0  0  0  0  0
  185.4630  178.3320  141.4630 C   0  0  0  0  0  0  0  0  0  0  0  0
  189.4210  178.5350  142.8390 O   0  0  0  0  0  0  0  0  0  0  0  0
  190.7750  176.8440  143.8290 C   0  0  0  0  0  3  0  0  0  0  0  0
  191.2100  176.8510  146.3070 C   0  0  1  0  0  3  0  0  0  0  0  0
  189.5220  178.3850  145.3270 C   0  0  0  0  0  2  0  0  0  0  0  0
  191.3340  176.0750  144.9940 C   0  0  0  0  0  2  0  0  0  0  0  0
  189.7870  177.3750  146.4430 C   0  0  0  0  0  2  0  0  0  0  0  0
  191.5340  175.9380  147.4640 C   0  0  0  0  0  1  0  0  0  0  0  0
  189.9120  177.8640  143.9660 C   0  0  0  0  0  0  0  0  0  0  0  0
  191.4850  176.4520  135.8060 C   0  0  0  0  0  2  0  0  0  0  0  0
  192.1810  175.4230  134.9100 C   0  0  2  0  0  3  0  0  0  0  0  0
  191.3170  174.1900  134.6330 C   0  0  0  0  0  2  0  0  0  0  0  0
  191.5060  173.2060  135.6930 N   0  0  0  0  0  1  0  0  0  0  0  0
  193.4390  175.0870  135.4540 O   0  0  0  0  0  0  0  0  0  0  0  0
  194.4930  175.6120  134.6560 C   0  0  1  0  0  3  0  0  0  0  0  0
  194.7910  176.9160  135.0490 O   0  0  0  0  0  1  0  0  0  0  0  0
  195.7730  174.7610  134.5950 C   0  0  0  0  0  2  0  0  0  0  0  0
  198.0480  172.9410  137.4700 C   0  0  0  0  0  2  0  0  0  0  0  0
  195.0530  172.8160  135.9550 O   0  0  0  0  0  1  0  0  0  0  0  0
  195.9280  173.9030  135.8410 C   0  0  1  0  0  0  0  0  0  0  0  0
  197.4040  173.7500  136.3240 C   0  0  0  0  0  0  0  0  0  0  0  0
  197.5600  172.2170  136.2890 C   0  0  0  0  0  2  0  0  0  0  0  0
  196.3120  174.5920  137.0990 C   0  0  2  0  0  3  0  0  0  0  0  0
  194.3110  173.7580  138.2290 O   0  0  0  0  0  0  0  0  0  0  0  0
  195.5440  174.0500  138.2950 C   0  0  0  0  0  0  0  0  0  0  0  0
  196.1790  174.0100  139.5320 O   0  0  0  0  0  1  0  0  0  0  0  0
  1  2  2  0  0  0  0
  2  3  1  0  0  0  0
  3  6  1  0  0  0  0
  4 24  1  1  0  0  0
  4  7  1  0  0  0  0
  5  8  1  1  0  0  0
  5  2  1  0  0  0  0
  5  4  1  0  0  0  0
  7  6  1  0  0  0  0
  8  9  1  1  0  0  0
 10 11  1  0  0  0  0
 11  8  1  0  0  0  0
 12 15  1  1  0  0  0
 12 13  1  0  0  0  0
 12 11  1  0  0  0  0
 13 14  1  0  0  0  0
 16 21  1  0  0  0  0
 17 22  1  0  0  0  0
 18 16  2  0  0  0  0
 19 17  1  0  0  0  0
 19 16  1  0  0  0  0
 21 22  1  0  0  0  0
 21 15  1  1  0  0  0
 22 20  2  6  0  0  0
 22 23  1  0  0  0  0
 24 28  1  0  0  0  0
 25 32  1  0  0  0  0
 25 40  2  0  0  0  0
 26 42  1  0  0  0  0
 26 36  2  0  0  0  0
 28 26  1  0  0  0  0
 29 39  1  0  0  0  0
 30 29  2  0  0  0  0
 30 34  1  0  0  0  0
 31 27  1  0  0  0  0
 31 41  1  0  0  0  0
 32 31  2  0  0  0  0
 34 38  1  0  0  0  0
 35 36  1  0  0  0  0
 37 34  2  0  0  0  0
 37 32  1  0  0  0  0
 38 33  1  0  0  0  0
 38 27  2  0  0  0  0
 39 33  2  0  0  0  0
 40 28  1  0  0  0  0
 40 41  1  0  0  0  0
 41 35  2  0  0  0  0
 42 49  1  0  0  0  0
 43 49  2  0  0  0  0
 43 46  1  0  0  0  0
 44 47  1  0  0  0  0
 44 48  1  1  0  0  0
 45 47  1  0  0  0  0
 46 44  1  0  0  0  0
 49 45  1  0  0  0  0
 50  1  1  0  0  0  0
 51 52  1  1  0  0  0
 51 54  1  0  0  0  0
 51 50  1  0  0  0  0
 52 53  1  0  0  0  0
 55 56  1  1  0  0  0
 55 54  1  0  0  0  0
 57 55  1  0  0  0  0
 57 60  1  0  0  0  0
 60 59  1  1  0  0  0
 60 61  1  0  0  0  0
 60 63  1  0  0  0  0
 61 63  1  0  0  0  0
 61 58  1  0  0  0  0
 62 61  1  0  0  0  0
 62 58  1  0  0  0  0
 63 65  1  1  0  0  0
 64 65  2  0  0  0  0
 65 66  1  0  0  0  0
M  END
>  <MODEL>
4

>  <REMARK>
 VINA RESULT:      -5.2      3.201     10.241
  Name = 
  18 active torsions:
  status: ('A' for Active; 'I' for Inactive)
    1  A    between atoms: C_1  and  C_36
    2  A    between atoms: C_1  and  N_62
    3  A    between atoms: O_2  and  C_25
    4  A    between atoms: O_2  and  C_39
    5  A    between atoms: C_6  and  O_12
    6  A    between atoms: C_11  and  C_23
    7  A    between atoms: C_11  and  C_25
    8  A    between atoms: O_12  and  C_53
    9  A    between atoms: C_13  and  C_19
   10  A    between atoms: C_14  and  C_39
   11  A    between atoms: C_14  and  C_49
   12  A    between atoms: C_19  and  C_41
   13  A    between atoms: C_19  and  N_62
   14  A    between atoms: N_20  and  C_33
   15  A    between atoms: C_21  and  C_25
   16  A    between atoms: C_32  and  C_33
   17  A    between atoms: C_41  and  C_58
   18  A    between atoms: C_60  and  C_64
                            x       y       z     vdW  Elec       q    Type
                         _______ _______ _______ _____ _____    ______ ____

>  <TORSDO>
F 18

$$$$
=
 OpenBabel11042409553D

 66 74  0  0  1  0  0  0  0  0999 V2000
  188.9980  178.1070  139.8790 C   0  0  0  0  0  3  0  0  0  0  0  0
  188.3900  178.4170  138.7220 C   0  0  0  0  0  0  0  0  0  0  0  0
  189.1050  179.4230  137.8690 C   0  0  0  0  0  2  0  0  0  0  0  0
  186.5390  178.2910  136.9270 C   0  0  1  0  0  3  0  0  0  0  0  0
  187.0230  177.8580  138.3210 C   0  0  2  0  0  3  0  0  0  0  0  0
  188.5270  179.5160  136.4650 C   0  0  0  0  0  2  0  0  0  0  0  0
  187.0730  179.5970  136.5240 N   0  0  0  0  0  2  0  0  0  0  0  0
  185.9420  178.1250  139.3880 C   0  0  1  0  0  3  0  0  0  0  0  0
  186.1420  179.3640  139.9970 O   0  0  0  0  0  1  0  0  0  0  0  0
  183.9230  176.7430  139.3300 C   0  0  0  0  0  1  0  0  0  0  0  0
  184.5380  178.0050  138.9270 N   0  0  0  0  0  0  0  0  0  0  0  0
  183.7090  179.0810  139.5010 C   0  0  1  0  0  3  0  0  0  0  0  0
  182.9390  179.8690  138.4360 C   0  0  0  0  0  2  0  0  0  0  0  0
  182.9380  181.2250  138.7520 O   0  0  0  0  0  1  0  0  0  0  0  0
  182.7490  178.5350  140.5600 C   0  0  0  0  0  2  0  0  0  0  0  0
  180.4460  177.4280  140.2740 C   0  0  0  0  0  0  0  0  0  0  0  0
  178.9390  178.8000  141.5940 O   0  0  0  0  0  0  0  0  0  0  0  0
  180.6790  176.3820  139.4830 C   0  0  0  0  0  2  0  0  0  0  0  0
  179.2000  177.4880  141.1180 C   0  0  0  0  0  2  0  0  0  0  0  0
  180.0470  181.2330  140.7320 O   0  0  0  0  0  0  0  0  0  0  0  0
  181.2550  178.6780  140.2090 C   0  0  1  0  0  3  0  0  0  0  0  0
  180.3700  179.6980  141.3770 P   0  0  2  0  0  0  0  0  0  0  0  0
  181.1080  179.8400  142.6840 O   0  0  0  0  0  1  0  0  0  0  0  0
  186.7880  177.2080  135.8600 C   0  0  0  0  0  2  0  0  0  0  0  0
  184.3640  175.3840  136.3490 C   0  0  0  0  0  3  0  0  0  0  0  0
  188.2580  175.3400  136.7250 C   0  0  0  0  0  0  0  0  0  0  0  0
  184.4320  171.6870  136.2460 C   0  0  0  0  0  3  0  0  0  0  0  0
  186.9350  175.8980  136.4950 N   0  0  0  0  0  0  0  0  0  0  0  0
  180.4550  170.6120  135.3730 C   0  0  0  0  0  3  0  0  0  0  0  0
  180.7770  171.9580  135.5800 C   0  0  0  0  0  3  0  0  0  0  0  0
  184.7230  173.0400  136.4060 C   0  0  0  0  0  0  0  0  0  0  0  0
  183.7570  174.0190  136.2740 C   0  0  0  0  0  0  0  0  0  0  0  0
  182.7670  169.9860  135.7510 C   0  0  0  0  0  3  0  0  0  0  0  0
  182.0950  172.3330  135.8680 C   0  0  0  0  0  0  0  0  0  0  0  0
  187.2950  173.1230  136.6580 N   0  0  0  0  0  0  0  0  0  0  0  0
  188.4270  174.0050  136.7620 C   0  0  0  0  0  3  0  0  0  0  0  0
  182.4270  173.6920  136.0070 C   0  0  0  0  0  3  0  0  0  0  0  0
  183.1030  171.3290  135.9680 C   0  0  0  0  0  0  0  0  0  0  0  0
  181.4460  169.6310  135.4510 C   0  0  0  0  0  3  0  0  0  0  0  0
  185.8090  175.0130  136.5390 C   0  0  0  0  0  0  0  0  0  0  0  0
  185.9910  173.7030  136.6000 C   0  0  0  0  0  0  0  0  0  0  0  0
  189.3740  176.1670  136.8880 O   0  0  0  0  0  0  0  0  0  0  0  0
  191.3050  175.8290  135.5360 C   0  0  0  0  0  3  0  0  0  0  0  0
  193.5110  175.2410  136.5950 C   0  0  1  0  0  3  0  0  0  0  0  0
  191.4320  175.2410  137.9500 C   0  0  0  0  0  2  0  0  0  0  0  0
  192.7170  175.3710  135.2930 C   0  0  0  0  0  2  0  0  0  0  0  0
  192.6910  174.4470  137.6020 C   0  0  0  0  0  2  0  0  0  0  0  0
  194.8140  174.5310  136.3200 C   0  0  0  0  0  1  0  0  0  0  0  0
  190.6940  175.7300  136.7280 C   0  0  0  0  0  0  0  0  0  0  0  0
  188.4170  177.2370  140.9560 C   0  0  0  0  0  2  0  0  0  0  0  0
  189.2880  177.1800  142.2150 C   0  0  2  0  0  3  0  0  0  0  0  0
  190.6960  176.6460  141.9440 C   0  0  0  0  0  2  0  0  0  0  0  0
  190.8430  175.3180  142.5300 N   0  0  0  0  0  1  0  0  0  0  0  0
  188.6230  176.4540  143.2260 O   0  0  0  0  0  0  0  0  0  0  0  0
  188.9590  176.9550  144.5140 C   0  0  1  0  0  3  0  0  0  0  0  0
  190.3360  177.1460  144.6140 O   0  0  0  0  0  1  0  0  0  0  0  0
  188.2050  178.2210  144.9560 C   0  0  0  0  0  2  0  0  0  0  0  0
  184.4870  179.0400  146.4580 C   0  0  0  0  0  2  0  0  0  0  0  0
  186.2990  176.6350  144.9720 O   0  0  0  0  0  1  0  0  0  0  0  0
  186.7080  177.9720  145.0440 C   0  0  1  0  0  0  0  0  0  0  0  0
  185.9590  178.9480  146.0030 C   0  0  0  0  0  0  0  0  0  0  0  0
  185.3180  177.9510  146.9870 C   0  0  0  0  0  2  0  0  0  0  0  0
  185.8110  178.9830  144.4290 C   0  0  2  0  0  3  0  0  0  0  0  0
  184.8110  177.7010  142.6030 O   0  0  0  0  0  0  0  0  0  0  0  0
  184.6500  178.3320  143.6920 C   0  0  0  0  0  0  0  0  0  0  0  0
  183.3570  178.5600  144.1520 O   0  0  0  0  0  1  0  0  0  0  0  0
  1 50  1  0  0  0  0
  2  1  2  0  0  0  0
  3  2  1  0  0  0  0
  4 24  1  6  0  0  0
  4  5  1  0  0  0  0
  5  2  1  0  0  0  0
  5  8  1  1  0  0  0
  6  7  1  0  0  0  0
  6  3  1  0  0  0  0
  7  4  1  0  0  0  0
  8  9  1  6  0  0  0
 11 10  1  0  0  0  0
 11  8  1  0  0  0  0
 11 12  1  0  0  0  0
 12 13  1  6  0  0  0
 12 15  1  0  0  0  0
 13 14  1  0  0  0  0
 16 19  1  0  0  0  0
 18 16  2  0  0  0  0
 19 17  1  0  0  0  0
 21 16  1  0  0  0  0
 21 15  1  1  0  0  0
 21 22  1  0  0  0  0
 22 20  2  6  0  0  0
 22 17  1  0  0  0  0
 22 23  1  0  0  0  0
 24 28  1  0  0  0  0
 25 40  2  0  0  0  0
 26 36  2  0  0  0  0
 26 42  1  0  0  0  0
 27 31  1  0  0  0  0
 28 40  1  0  0  0  0
 28 26  1  0  0  0  0
 29 39  1  0  0  0  0
 29 30  2  0  0  0  0
 30 34  1  0  0  0  0
 31 41  1  0  0  0  0
 32 25  1  0  0  0  0
 32 31  2  0  0  0  0
 33 38  1  0  0  0  0
 34 38  1  0  0  0  0
 34 37  2  0  0  0  0
 35 36  1  0  0  0  0
 37 32  1  0  0  0  0
 38 27  2  0  0  0  0
 39 33  2  0  0  0  0
 40 41  1  0  0  0  0
 41 35  2  0  0  0  0
 43 49  2  0  0  0  0
 44 48  1  6  0  0  0
 44 47  1  0  0  0  0
 46 43  1  0  0  0  0
 46 44  1  0  0  0  0
 47 45  1  0  0  0  0
 49 42  1  0  0  0  0
 49 45  1  0  0  0  0
 51 50  1  6  0  0  0
 51 54  1  0  0  0  0
 52 51  1  0  0  0  0
 52 53  1  0  0  0  0
 54 55  1  0  0  0  0
 55 56  1  6  0  0  0
 55 57  1  0  0  0  0
 57 60  1  0  0  0  0
 58 62  1  0  0  0  0
 60 59  1  6  0  0  0
 60 61  1  0  0  0  0
 61 58  1  0  0  0  0
 61 62  1  0  0  0  0
 63 65  1  1  0  0  0
 63 60  1  0  0  0  0
 63 61  1  0  0  0  0
 64 65  2  0  0  0  0
 65 66  1  0  0  0  0
M  END
>  <MODEL>
5

>  <REMARK>
 VINA RESULT:      -5.0      2.033      6.634
  Name = 
  18 active torsions:
  status: ('A' for Active; 'I' for Inactive)
    1  A    between atoms: C_1  and  C_36
    2  A    between atoms: C_1  and  N_62
    3  A    between atoms: O_2  and  C_25
    4  A    between atoms: O_2  and  C_39
    5  A    between atoms: C_6  and  O_12
    6  A    between atoms: C_11  and  C_23
    7  A    between atoms: C_11  and  C_25
    8  A    between atoms: O_12  and  C_53
    9  A    between atoms: C_13  and  C_19
   10  A    between atoms: C_14  and  C_39
   11  A    between atoms: C_14  and  C_49
   12  A    between atoms: C_19  and  C_41
   13  A    between atoms: C_19  and  N_62
   14  A    between atoms: N_20  and  C_33
   15  A    between atoms: C_21  and  C_25
   16  A    between atoms: C_32  and  C_33
   17  A    between atoms: C_41  and  C_58
   18  A    between atoms: C_60  and  C_64
                            x       y       z     vdW  Elec       q    Type
                         _______ _______ _______ _____ _____    ______ ____

>  <TORSDO>
F 18

$$$$
=
 OpenBabel11042409553D

 66 74  0  0  1  0  0  0  0  0999 V2000
  188.8640  177.8440  138.1500 C   0  0  0  0  0  3  0  0  0  0  0  0
  188.0040  178.0010  137.1300 C   0  0  0  0  0  0  0  0  0  0  0  0
  188.4000  179.0230  136.1060 C   0  0  0  0  0  2  0  0  0  0  0  0
  185.8660  177.5360  135.7600 C   0  0  1  0  0  3  0  0  0  0  0  0
  186.6680  177.2600  137.0420 C   0  0  2  0  0  3  0  0  0  0  0  0
  187.5480  178.9520  134.8480 C   0  0  0  0  0  2  0  0  0  0  0  0
  186.1370  178.8650  135.2010 N   0  0  0  0  0  2  0  0  0  0  0  0
  185.7950  177.4700  138.2960 C   0  0  1  0  0  3  0  0  0  0  0  0
  186.0330  178.7230  138.8620 O   0  0  0  0  0  1  0  0  0  0  0  0
  183.8660  176.0210  138.7140 C   0  0  0  0  0  1  0  0  0  0  0  0
  184.3390  177.2650  138.1090 N   0  0  0  0  0  0  0  0  0  0  0  0
  183.5750  178.3570  138.7400 C   0  0  1  0  0  3  0  0  0  0  0  0
  182.4860  178.9260  137.8240 C   0  0  0  0  0  2  0  0  0  0  0  0
  182.1850  178.0150  136.8150 O   0  0  0  0  0  1  0  0  0  0  0  0
  182.9720  177.9130  140.0750 C   0  0  0  0  0  2  0  0  0  0  0  0
  181.9870  178.8970  142.2370 C   0  0  0  0  0  0  0  0  0  0  0  0
  183.8620  178.9870  143.7780 O   0  0  0  0  0  0  0  0  0  0  0  0
  180.7000  179.0920  141.9540 C   0  0  0  0  0  2  0  0  0  0  0  0
  182.4560  178.8260  143.6670 C   0  0  0  0  0  2  0  0  0  0  0  0
  185.6760  179.9420  141.8570 O   0  0  0  0  0  0  0  0  0  0  0  0
  183.0550  178.9640  141.1990 C   0  0  1  0  0  3  0  0  0  0  0  0
  184.5090  178.7650  142.2170 P   0  0  2  0  0  0  0  0  0  0  0  0
  185.1130  177.3900  142.0860 O   0  0  0  0  0  1  0  0  0  0  0  0
  186.0340  176.4200  134.7130 C   0  0  0  0  0  2  0  0  0  0  0  0
  189.0230  175.7150  134.6050 C   0  0  0  0  0  3  0  0  0  0  0  0
  185.7040  174.4130  136.2170 C   0  0  0  0  0  0  0  0  0  0  0  0
  190.8900  173.9610  137.2730 C   0  0  0  0  0  3  0  0  0  0  0  0
  186.5560  175.2080  135.3460 N   0  0  0  0  0  0  0  0  0  0  0  0
  194.8880  175.1460  136.6760 C   0  0  0  0  0  3  0  0  0  0  0  0
  193.9030  175.5570  135.7700 C   0  0  0  0  0  3  0  0  0  0  0  0
  189.9310  174.4220  136.3740 C   0  0  0  0  0  0  0  0  0  0  0  0
  190.2530  175.2550  135.3200 C   0  0  0  0  0  0  0  0  0  0  0  0
  193.2200  173.9480  137.9670 C   0  0  0  0  0  3  0  0  0  0  0  0
  192.5680  175.1750  135.9560 C   0  0  0  0  0  0  0  0  0  0  0  0
  187.6810  173.6140  137.3590 N   0  0  0  0  0  0  0  0  0  0  0  0
  186.2520  173.6810  137.2060 C   0  0  0  0  0  3  0  0  0  0  0  0
  191.5720  175.6460  135.0840 C   0  0  0  0  0  3  0  0  0  0  0  0
  192.2250  174.3460  137.0650 C   0  0  0  0  0  0  0  0  0  0  0  0
  194.5480  174.3520  137.7730 C   0  0  0  0  0  3  0  0  0  0  0  0
  187.9740  175.0140  135.4230 C   0  0  0  0  0  0  0  0  0  0  0  0
  188.4950  174.2730  136.3870 C   0  0  0  0  0  0  0  0  0  0  0  0
  184.3150  174.4080  136.0620 O   0  0  0  0  0  0  0  0  0  0  0  0
  182.3160  173.2100  136.5560 C   0  0  0  0  0  3  0  0  0  0  0  0
  181.8680  170.9820  135.4770 C   0  0  1  0  0  3  0  0  0  0  0  0
  184.0930  172.0600  135.2490 C   0  0  0  0  0  2  0  0  0  0  0  0
  181.4390  171.9890  136.5470 C   0  0  0  0  0  2  0  0  0  0  0  0
  183.3700  170.7540  135.5810 C   0  0  0  0  0  2  0  0  0  0  0  0
  181.1360  169.6800  135.6890 C   0  0  0  0  0  1  0  0  0  0  0  0
  183.5440  173.2400  136.0130 C   0  0  0  0  0  0  0  0  0  0  0  0
  188.6250  176.9870  139.3600 C   0  0  0  0  0  2  0  0  0  0  0  0
  189.8120  176.9730  140.3280 C   0  0  2  0  0  3  0  0  0  0  0  0
  191.1640  177.0700  139.6160 C   0  0  0  0  0  2  0  0  0  0  0  0
  192.1820  177.5380  140.5510 N   0  0  0  0  0  1  0  0  0  0  0  0
  189.7290  175.8460  141.1730 O   0  0  0  0  0  0  0  0  0  0  0  0
  189.5300  176.2390  142.5250 C   0  0  1  0  0  3  0  0  0  0  0  0
  188.1970  176.0570  142.8890 O   0  0  0  0  0  1  0  0  0  0  0  0
  190.4660  175.5860  143.5560 C   0  0  0  0  0  2  0  0  0  0  0  0
  190.9530  179.3980  144.9640 C   0  0  0  0  0  2  0  0  0  0  0  0
  192.0220  176.2410  145.3720 O   0  0  0  0  0  1  0  0  0  0  0  0
  190.8840  176.5770  144.6300 C   0  0  1  0  0  0  0  0  0  0  0  0
  190.6360  178.0690  144.2460 C   0  0  0  0  0  0  0  0  0  0  0  0
  192.0620  178.6390  144.3710 C   0  0  0  0  0  2  0  0  0  0  0  0
  189.8030  177.2990  145.3490 C   0  0  2  0  0  3  0  0  0  0  0  0
  189.3990  178.1420  147.6080 O   0  0  0  0  0  1  0  0  0  0  0  0
  190.0960  177.4140  146.8380 C   0  0  0  0  0  0  0  0  0  0  0  0
  191.2480  176.8160  147.3380 O   0  0  0  0  0  0  0  0  0  0  0  0
  1 50  1  0  0  0  0
  2  1  2  0  0  0  0
  3  2  1  0  0  0  0
  4 24  1  6  0  0  0
  4  5  1  0  0  0  0
  5  2  1  0  0  0  0
  5  8  1  1  0  0  0
  6  7  1  0  0  0  0
  6  3  1  0  0  0  0
  7  4  1  0  0  0  0
  8  9  1  6  0  0  0
 11  8  1  0  0  0  0
 11 10  1  0  0  0  0
 11 12  1  0  0  0  0
 12 13  1  6  0  0  0
 12 15  1  0  0  0  0
 14 13  1  0  0  0  0
 16 19  1  0  0  0  0
 18 16  2  0  0  0  0
 19 17  1  0  0  0  0
 21 15  1  6  0  0  0
 21 22  1  0  0  0  0
 21 16  1  0  0  0  0
 22 20  2  6  0  0  0
 22 17  1  0  0  0  0
 23 22  1  0  0  0  0
 24 28  1  0  0  0  0
 25 32  1  0  0  0  0
 25 40  2  0  0  0  0
 26 36  2  0  0  0  0
 28 40  1  0  0  0  0
 28 26  1  0  0  0  0
 29 39  1  0  0  0  0
 30 34  1  0  0  0  0
 30 29  2  0  0  0  0
 31 41  1  0  0  0  0
 31 27  2  0  0  0  0
 32 31  1  0  0  0  0
 34 38  2  0  0  0  0
 36 35  1  0  0  0  0
 37 32  2  0  0  0  0
 37 34  1  0  0  0  0
 38 27  1  0  0  0  0
 38 33  1  0  0  0  0
 39 33  2  0  0  0  0
 40 41  1  0  0  0  0
 41 35  2  0  0  0  0
 42 26  1  0  0  0  0
 44 47  1  0  0  0  0
 44 48  1  1  0  0  0
 44 46  1  0  0  0  0
 45 47  1  0  0  0  0
 45 49  1  0  0  0  0
 46 43  1  0  0  0  0
 49 42  1  0  0  0  0
 49 43  2  0  0  0  0
 51 50  1  6  0  0  0
 51 54  1  0  0  0  0
 52 51  1  0  0  0  0
 52 53  1  0  0  0  0
 54 55  1  0  0  0  0
 55 56  1  1  0  0  0
 55 57  1  0  0  0  0
 57 60  1  0  0  0  0
 60 63  1  0  0  0  0
 60 59  1  1  0  0  0
 61 62  1  0  0  0  0
 61 60  1  0  0  0  0
 61 58  1  0  0  0  0
 61 63  1  0  0  0  0
 62 58  1  0  0  0  0
 63 65  1  1  0  0  0
 65 66  2  0  0  0  0
 65 64  1  0  0  0  0
M  END
>  <MODEL>
6

>  <REMARK>
 VINA RESULT:      -5.0      2.357      3.938
  Name = 
  18 active torsions:
  status: ('A' for Active; 'I' for Inactive)
    1  A    between atoms: C_1  and  C_36
    2  A    between atoms: C_1  and  N_62
    3  A    between atoms: O_2  and  C_25
    4  A    between atoms: O_2  and  C_39
    5  A    between atoms: C_6  and  O_12
    6  A    between atoms: C_11  and  C_23
    7  A    between atoms: C_11  and  C_25
    8  A    between atoms: O_12  and  C_53
    9  A    between atoms: C_13  and  C_19
   10  A    between atoms: C_14  and  C_39
   11  A    between atoms: C_14  and  C_49
   12  A    between atoms: C_19  and  C_41
   13  A    between atoms: C_19  and  N_62
   14  A    between atoms: N_20  and  C_33
   15  A    between atoms: C_21  and  C_25
   16  A    between atoms: C_32  and  C_33
   17  A    between atoms: C_41  and  C_58
   18  A    between atoms: C_60  and  C_64
                            x       y       z     vdW  Elec       q    Type
                         _______ _______ _______ _____ _____    ______ ____

>  <TORSDO>
F 18

$$$$
=
 OpenBabel11042409553D

 66 74  0  0  1  0  0  0  0  0999 V2000
  188.8110  177.5620  138.3610 C   0  0  0  0  0  3  0  0  0  0  0  0
  187.9850  177.7630  137.3200 C   0  0  0  0  0  0  0  0  0  0  0  0
  188.4770  178.7320  136.2860 C   0  0  0  0  0  2  0  0  0  0  0  0
  185.8450  177.4330  135.9150 C   0  0  1  0  0  3  0  0  0  0  0  0
  186.5990  177.1220  137.2180 C   0  0  2  0  0  3  0  0  0  0  0  0
  187.6470  178.7000  135.0120 C   0  0  0  0  0  2  0  0  0  0  0  0
  186.2260  178.7260  135.3370 N   0  0  0  0  0  2  0  0  0  0  0  0
  185.7200  177.4220  138.4500 C   0  0  1  0  0  3  0  0  0  0  0  0
  186.0470  178.6600  139.0020 O   0  0  0  0  0  1  0  0  0  0  0  0
  183.7130  176.0290  138.6140 C   0  0  0  0  0  1  0  0  0  0  0  0
  184.2560  177.3320  138.2340 N   0  0  0  0  0  0  0  0  0  0  0  0
  183.5480  178.3370  139.0460 C   0  0  1  0  0  3  0  0  0  0  0  0
  182.6110  179.2200  138.2140 C   0  0  0  0  0  2  0  0  0  0  0  0
  182.6430  180.5290  138.6850 O   0  0  0  0  0  1  0  0  0  0  0  0
  182.7810  177.6810  140.1970 C   0  0  0  0  0  2  0  0  0  0  0  0
  180.3780  176.7650  140.2130 C   0  0  0  0  0  0  0  0  0  0  0  0
  179.2930  177.9260  142.0500 O   0  0  0  0  0  0  0  0  0  0  0  0
  180.3550  175.8830  139.2160 C   0  0  0  0  0  2  0  0  0  0  0  0
  179.3370  176.7220  141.3010 C   0  0  0  0  0  2  0  0  0  0  0  0
  180.4180  180.4230  141.4230 O   0  0  0  0  0  0  0  0  0  0  0  0
  181.2660  177.9630  140.2040 C   0  0  1  0  0  3  0  0  0  0  0  0
  180.7270  178.7780  141.6970 P   0  0  2  0  0  0  0  0  0  0  0  0
  181.7200  178.6260  142.8210 O   0  0  0  0  0  1  0  0  0  0  0  0
  185.9500  176.2860  134.8920 C   0  0  0  0  0  2  0  0  0  0  0  0
  188.9430  175.6590  134.5950 C   0  0  0  0  0  3  0  0  0  0  0  0
  185.7800  174.3100  136.4620 C   0  0  0  0  0  0  0  0  0  0  0  0
  191.0370  174.0250  137.1690 C   0  0  0  0  0  3  0  0  0  0  0  0
  186.5470  175.1050  135.5160 N   0  0  0  0  0  0  0  0  0  0  0  0
  194.9490  175.3020  136.2710 C   0  0  0  0  0  3  0  0  0  0  0  0
  193.8930  175.6630  135.4260 C   0  0  0  0  0  3  0  0  0  0  0  0
  190.0060  174.4370  136.3270 C   0  0  0  0  0  0  0  0  0  0  0  0
  190.2320  175.2510  135.2340 C   0  0  0  0  0  0  0  0  0  0  0  0
  193.4080  174.0930  137.7010 C   0  0  0  0  0  3  0  0  0  0  0  0
  192.5860  175.2500  135.7110 C   0  0  0  0  0  0  0  0  0  0  0  0
  187.8520  173.5940  137.4840 N   0  0  0  0  0  0  0  0  0  0  0  0
  186.4150  173.6190  137.4280 C   0  0  0  0  0  3  0  0  0  0  0  0
  191.5190  175.6720  134.8990 C   0  0  0  0  0  3  0  0  0  0  0  0
  192.3430  174.4410  136.8600 C   0  0  0  0  0  0  0  0  0  0  0  0
  194.7070  174.5270  137.4070 C   0  0  0  0  0  3  0  0  0  0  0  0
  187.9720  174.9520  135.5000 C   0  0  0  0  0  0  0  0  0  0  0  0
  188.5790  174.2490  136.4430 C   0  0  0  0  0  0  0  0  0  0  0  0
  184.3840  174.2630  136.4030 O   0  0  0  0  0  0  0  0  0  0  0  0
  182.6070  172.7420  136.8510 C   0  0  0  0  0  3  0  0  0  0  0  0
  181.9660  170.9990  135.1520 C   0  0  1  0  0  3  0  0  0  0  0  0
  184.0320  172.3420  134.8510 C   0  0  0  0  0  2  0  0  0  0  0  0
  181.7900  171.5070  136.5860 C   0  0  0  0  0  2  0  0  0  0  0  0
  183.4520  170.9280  134.8280 C   0  0  0  0  0  2  0  0  0  0  0  0
  181.3470  169.6290  135.0250 C   0  0  0  0  0  1  0  0  0  0  0  0
  183.6590  173.1050  136.0980 C   0  0  0  0  0  0  0  0  0  0  0  0
  188.4840  176.7500  139.5810 C   0  0  0  0  0  2  0  0  0  0  0  0
  189.3220  177.1400  140.8020 C   0  0  2  0  0  3  0  0  0  0  0  0
  190.6010  177.8960  140.4330 C   0  0  0  0  0  2  0  0  0  0  0  0
  191.7610  177.0370  140.6450 N   0  0  0  0  0  1  0  0  0  0  0  0
  189.5800  176.0000  141.5920 O   0  0  0  0  0  0  0  0  0  0  0  0
  189.2520  176.2420  142.9540 C   0  0  1  0  0  3  0  0  0  0  0  0
  190.4080  176.2600  143.7330 O   0  0  0  0  0  1  0  0  0  0  0  0
  188.4000  177.4940  143.2240 C   0  0  0  0  0  2  0  0  0  0  0  0
  188.2100  178.0380  147.2770 C   0  0  0  0  0  2  0  0  0  0  0  0
  186.8920  176.2550  144.7550 O   0  0  0  0  0  1  0  0  0  0  0  0
  187.6800  177.3950  144.5600 C   0  0  1  0  0  0  0  0  0  0  0  0
  188.4900  177.9770  145.7600 C   0  0  0  0  0  0  0  0  0  0  0  0
  188.5670  176.7440  146.6810 C   0  0  0  0  0  2  0  0  0  0  0  0
  187.1920  178.6600  145.1670 C   0  0  2  0  0  3  0  0  0  0  0  0
  185.5380  177.5400  146.5750 O   0  0  0  0  0  1  0  0  0  0  0  0
  185.8120  178.4940  145.7850 C   0  0  0  0  0  0  0  0  0  0  0  0
  184.7850  179.3290  145.3570 O   0  0  0  0  0  0  0  0  0  0  0  0
  1 50  1  0  0  0  0
  2  1  2  0  0  0  0
  3  2  1  0  0  0  0
  4 24  1  6  0  0  0
  4  5  1  0  0  0  0
  5  2  1  0  0  0  0
  5  8  1  1  0  0  0
  6  7  1  0  0  0  0
  6  3  1  0  0  0  0
  7  4  1  0  0  0  0
  8  9  1  6  0  0  0
 11  8  1  0  0  0  0
 11 10  1  0  0  0  0
 11 12  1  0  0  0  0
 12 13  1  6  0  0  0
 12 15  1  0  0  0  0
 13 14  1  0  0  0  0
 16 19  1  0  0  0  0
 18 16  2  0  0  0  0
 19 17  1  0  0  0  0
 21 15  1  1  0  0  0
 21 16  1  0  0  0  0
 21 22  1  0  0  0  0
 22 20  2  6  0  0  0
 22 17  1  0  0  0  0
 22 23  1  0  0  0  0
 24 28  1  0  0  0  0
 25 32  1  0  0  0  0
 25 40  2  0  0  0  0
 26 36  2  0  0  0  0
 28 26  1  0  0  0  0
 29 39  1  0  0  0  0
 30 34  1  0  0  0  0
 30 29  2  0  0  0  0
 31 41  1  0  0  0  0
 31 27  2  0  0  0  0
 32 31  1  0  0  0  0
 34 38  2  0  0  0  0
 36 35  1  0  0  0  0
 37 32  2  0  0  0  0
 37 34  1  0  0  0  0
 38 27  1  0  0  0  0
 38 33  1  0  0  0  0
 39 33  2  0  0  0  0
 40 28  1  0  0  0  0
 40 41  1  0  0  0  0
 41 35  2  0  0  0  0
 42 26  1  0  0  0  0
 44 48  1  1  0  0  0
 44 46  1  0  0  0  0
 45 49  1  0  0  0  0
 46 43  1  0  0  0  0
 47 45  1  0  0  0  0
 47 44  1  0  0  0  0
 49 42  1  0  0  0  0
 49 43  2  0  0  0  0
 51 50  1  6  0  0  0
 51 54  1  0  0  0  0
 52 53  1  0  0  0  0
 52 51  1  0  0  0  0
 54 55  1  0  0  0  0
 55 57  1  0  0  0  0
 55 56  1  1  0  0  0
 57 60  1  0  0  0  0
 60 59  1  1  0  0  0
 60 63  1  0  0  0  0
 60 61  1  0  0  0  0
 61 62  1  0  0  0  0
 61 58  1  0  0  0  0
 62 58  1  0  0  0  0
 63 61  1  0  0  0  0
 63 65  1  1  0  0  0
 65 64  1  0  0  0  0
 66 65  2  0  0  0  0
M  END
>  <MODEL>
7

>  <REMARK>
 VINA RESULT:      -4.9      2.192      3.829
  Name = 
  18 active torsions:
  status: ('A' for Active; 'I' for Inactive)
    1  A    between atoms: C_1  and  C_36
    2  A    between atoms: C_1  and  N_62
    3  A    between atoms: O_2  and  C_25
    4  A    between atoms: O_2  and  C_39
    5  A    between atoms: C_6  and  O_12
    6  A    between atoms: C_11  and  C_23
    7  A    between atoms: C_11  and  C_25
    8  A    between atoms: O_12  and  C_53
    9  A    between atoms: C_13  and  C_19
   10  A    between atoms: C_14  and  C_39
   11  A    between atoms: C_14  and  C_49
   12  A    between atoms: C_19  and  C_41
   13  A    between atoms: C_19  and  N_62
   14  A    between atoms: N_20  and  C_33
   15  A    between atoms: C_21  and  C_25
   16  A    between atoms: C_32  and  C_33
   17  A    between atoms: C_41  and  C_58
   18  A    between atoms: C_60  and  C_64
                            x       y       z     vdW  Elec       q    Type
                         _______ _______ _______ _____ _____    ______ ____

>  <TORSDO>
F 18

$$$$
=
 OpenBabel11042409553D

 66 74  0  0  1  0  0  0  0  0999 V2000
  182.2450  179.0960  143.8300 C   0  0  0  0  0  3  0  0  0  0  0  0
  181.7040  178.6440  142.6860 C   0  0  0  0  0  0  0  0  0  0  0  0
  180.3670  177.9780  142.8250 C   0  0  0  0  0  2  0  0  0  0  0  0
  181.5980  178.2060  140.1440 C   0  0  1  0  0  3  0  0  0  0  0  0
  182.4220  178.7200  141.3360 C   0  0  2  0  0  3  0  0  0  0  0  0
  179.6850  177.7510  141.4840 C   0  0  0  0  0  2  0  0  0  0  0  0
  180.6270  177.1780  140.5310 N   0  0  0  0  0  2  0  0  0  0  0  0
  183.8140  178.0580  141.3720 C   0  0  1  0  0  3  0  0  0  0  0  0
  183.7530  176.7480  140.8960 O   0  0  0  0  0  1  0  0  0  0  0  0
  186.2160  178.5170  141.2470 C   0  0  0  0  0  1  0  0  0  0  0  0
  184.8980  178.8000  140.6830 N   0  0  0  0  0  0  0  0  0  0  0  0
  184.9600  178.4250  139.2590 C   0  0  1  0  0  3  0  0  0  0  0  0
  184.8980  179.6370  138.3230 C   0  0  0  0  0  2  0  0  0  0  0  0
  184.1000  180.6320  138.8800 O   0  0  0  0  0  1  0  0  0  0  0  0
  186.2020  177.5830  138.9600 C   0  0  0  0  0  2  0  0  0  0  0  0
  188.5860  178.1710  138.1960 C   0  0  0  0  0  0  0  0  0  0  0  0
  188.7910  177.1620  135.9970 O   0  0  0  0  0  0  0  0  0  0  0  0
  189.0950  178.8680  139.2110 C   0  0  0  0  0  2  0  0  0  0  0  0
  189.4910  177.5320  137.1750 C   0  0  0  0  0  2  0  0  0  0  0  0
  186.2290  177.9520  135.1560 O   0  0  0  0  0  0  0  0  0  0  0  0
  187.1300  178.1660  137.8770 C   0  0  1  0  0  3  0  0  0  0  0  0
  187.1300  177.1960  136.3780 P   0  0  2  0  0  0  0  0  0  0  0  0
  186.6120  175.7980  136.6030 O   0  0  0  0  0  1  0  0  0  0  0  0
  180.9460  179.3510  139.3470 C   0  0  0  0  0  2  0  0  0  0  0  0
  182.5620  177.0940  138.0290 C   0  0  0  0  0  3  0  0  0  0  0  0
  179.5020  179.4120  137.2700 C   0  0  0  0  0  0  0  0  0  0  0  0
  181.2280  174.6900  135.5550 C   0  0  0  0  0  3  0  0  0  0  0  0
  180.6760  178.9210  137.9740 N   0  0  0  0  0  0  0  0  0  0  0  0
  183.7580  171.3420  135.9120 C   0  0  0  0  0  3  0  0  0  0  0  0
  184.0350  172.4980  136.6500 C   0  0  0  0  0  3  0  0  0  0  0  0
  181.5120  175.8090  136.3350 C   0  0  0  0  0  0  0  0  0  0  0  0
  182.5750  175.8390  137.2170 C   0  0  0  0  0  0  0  0  0  0  0  0
  181.8120  172.4120  134.9380 C   0  0  0  0  0  3  0  0  0  0  0  0
  183.2030  173.6200  136.5460 C   0  0  0  0  0  0  0  0  0  0  0  0
  179.5290  177.4130  135.9080 N   0  0  0  0  0  0  0  0  0  0  0  0
  178.9360  178.6610  136.3060 C   0  0  0  0  0  3  0  0  0  0  0  0
  183.4430  174.7540  137.3400 C   0  0  0  0  0  3  0  0  0  0  0  0
  182.0810  173.5790  135.6650 C   0  0  0  0  0  0  0  0  0  0  0  0
  182.6490  171.2950  135.0650 C   0  0  0  0  0  3  0  0  0  0  0  0
  181.3320  177.7510  137.4670 C   0  0  0  0  0  0  0  0  0  0  0  0
  180.7730  177.0380  136.5020 C   0  0  0  0  0  0  0  0  0  0  0  0
  178.9310  180.6470  137.5900 O   0  0  0  0  0  0  0  0  0  0  0  0
  180.1510  181.9900  136.0470 C   0  0  0  0  0  3  0  0  0  0  0  0
  180.1580  184.4970  136.2710 C   0  0  1  0  0  3  0  0  0  0  0  0
  179.1950  183.0800  138.0680 C   0  0  0  0  0  2  0  0  0  0  0  0
  180.7690  183.2780  135.5760 C   0  0  0  0  0  2  0  0  0  0  0  0
  180.1320  184.2520  137.7740 C   0  0  0  0  0  2  0  0  0  0  0  0
  180.9880  185.7190  135.9650 C   0  0  0  0  0  1  0  0  0  0  0  0
  179.4750  181.8770  137.2030 C   0  0  0  0  0  0  0  0  0  0  0  0
  183.6250  179.6710  143.9670 C   0  0  0  0  0  2  0  0  0  0  0  0
  184.5870  178.7470  144.7190 C   0  0  2  0  0  3  0  0  0  0  0  0
  184.2440  178.6100  146.2050 C   0  0  0  0  0  2  0  0  0  0  0  0
  185.3010  179.2090  147.0130 N   0  0  0  0  0  1  0  0  0  0  0  0
  185.9180  179.1670  144.5110 O   0  0  0  0  0  0  0  0  0  0  0  0
  186.8040  178.0550  144.4930 C   0  0  1  0  0  3  0  0  0  0  0  0
  186.1580  176.9320  143.9770 O   0  0  0  0  0  1  0  0  0  0  0  0
  188.1460  178.2810  143.7770 C   0  0  0  0  0  2  0  0  0  0  0  0
  192.0950  177.6360  144.6430 C   0  0  0  0  0  2  0  0  0  0  0  0
  189.1180  176.0950  144.4320 O   0  0  0  0  0  1  0  0  0  0  0  0
  189.2640  177.4880  144.4340 C   0  0  1  0  0  0  0  0  0  0  0  0
  190.6830  178.1060  144.2320 C   0  0  0  0  0  0  0  0  0  0  0  0
  191.4130  176.9350  143.5470 C   0  0  0  0  0  2  0  0  0  0  0  0
  189.9240  178.0910  145.6200 C   0  0  2  0  0  3  0  0  0  0  0  0
  189.2600  176.4890  147.3430 O   0  0  0  0  0  1  0  0  0  0  0  0
  190.1960  177.0570  146.7020 C   0  0  0  0  0  0  0  0  0  0  0  0
  191.5120  176.8350  147.0960 O   0  0  0  0  0  0  0  0  0  0  0  0
  1 50  1  0  0  0  0
  2  3  1  0  0  0  0
  2  1  2  0  0  0  0
  4 24  1  1  0  0  0
  4  7  1  0  0  0  0
  4  5  1  0  0  0  0
  5  8  1  1  0  0  0
  5  2  1  0  0  0  0
  6  3  1  0  0  0  0
  7  6  1  0  0  0  0
  8  9  1  6  0  0  0
 11 10  1  0  0  0  0
 11  8  1  0  0  0  0
 12 13  1  6  0  0  0
 12 11  1  0  0  0  0
 13 14  1  0  0  0  0
 15 12  1  0  0  0  0
 16 18  2  0  0  0  0
 17 22  1  0  0  0  0
 17 19  1  0  0  0  0
 19 16  1  0  0  0  0
 21 16  1  0  0  0  0
 21 15  1  1  0  0  0
 22 20  2  6  0  0  0
 22 23  1  0  0  0  0
 22 21  1  0  0  0  0
 26 42  1  0  0  0  0
 26 28  1  0  0  0  0
 27 38  2  0  0  0  0
 27 31  1  0  0  0  0
 28 24  1  0  0  0  0
 29 30  2  0  0  0  0
 31 41  1  0  0  0  0
 31 32  2  0  0  0  0
 32 37  1  0  0  0  0
 32 25  1  0  0  0  0
 33 39  2  0  0  0  0
 33 38  1  0  0  0  0
 34 30  1  0  0  0  0
 34 37  2  0  0  0  0
 35 36  1  0  0  0  0
 35 41  2  0  0  0  0
 36 26  2  0  0  0  0
 38 34  1  0  0  0  0
 39 29  1  0  0  0  0
 40 28  1  0  0  0  0
 40 25  2  0  0  0  0
 41 40  1  0  0  0  0
 43 49  2  0  0  0  0
 44 48  1  1  0  0  0
 44 47  1  0  0  0  0
 46 43  1  0  0  0  0
 46 44  1  0  0  0  0
 47 45  1  0  0  0  0
 49 42  1  0  0  0  0
 49 45  1  0  0  0  0
 51 50  1  1  0  0  0
 51 52  1  0  0  0  0
 52 53  1  0  0  0  0
 54 51  1  0  0  0  0
 55 56  1  6  0  0  0
 55 54  1  0  0  0  0
 57 60  1  0  0  0  0
 57 55  1  0  0  0  0
 60 59  1  6  0  0  0
 60 63  1  0  0  0  0
 61 60  1  0  0  0  0
 61 58  1  0  0  0  0
 61 63  1  0  0  0  0
 62 61  1  0  0  0  0
 62 58  1  0  0  0  0
 63 65  1  1  0  0  0
 65 66  2  0  0  0  0
 65 64  1  0  0  0  0
M  END
>  <MODEL>
8

>  <REMARK>
 VINA RESULT:      -4.7      3.257      7.835
  Name = 
  18 active torsions:
  status: ('A' for Active; 'I' for Inactive)
    1  A    between atoms: C_1  and  C_36
    2  A    between atoms: C_1  and  N_62
    3  A    between atoms: O_2  and  C_25
    4  A    between atoms: O_2  and  C_39
    5  A    between atoms: C_6  and  O_12
    6  A    between atoms: C_11  and  C_23
    7  A    between atoms: C_11  and  C_25
    8  A    between atoms: O_12  and  C_53
    9  A    between atoms: C_13  and  C_19
   10  A    between atoms: C_14  and  C_39
   11  A    between atoms: C_14  and  C_49
   12  A    between atoms: C_19  and  C_41
   13  A    between atoms: C_19  and  N_62
   14  A    between atoms: N_20  and  C_33
   15  A    between atoms: C_21  and  C_25
   16  A    between atoms: C_32  and  C_33
   17  A    between atoms: C_41  and  C_58
   18  A    between atoms: C_60  and  C_64
                            x       y       z     vdW  Elec       q    Type
                         _______ _______ _______ _____ _____    ______ ____

>  <TORSDO>
F 18

$$$$
=
 OpenBabel11042409553D

 66 74  0  0  1  0  0  0  0  0999 V2000
  192.5540  176.3440  137.7940 C   0  0  0  0  0  3  0  0  0  0  0  0
  191.5120  176.5320  138.6200 C   0  0  0  0  0  0  0  0  0  0  0  0
  191.8210  176.4180  140.0840 C   0  0  0  0  0  2  0  0  0  0  0  0
  189.0530  177.0240  139.2340 C   0  0  1  0  0  3  0  0  0  0  0  0
  190.0830  176.7660  138.1230 C   0  0  2  0  0  3  0  0  0  0  0  0
  190.6860  176.9190  140.9630 C   0  0  0  0  0  2  0  0  0  0  0  0
  189.4140  176.3760  140.5000 N   0  0  0  0  0  2  0  0  0  0  0  0
  189.6030  175.6520  137.1700 C   0  0  1  0  0  3  0  0  0  0  0  0
  189.1040  174.5660  137.8900 O   0  0  0  0  0  1  0  0  0  0  0  0
  188.8430  177.4380  135.6780 C   0  0  0  0  0  1  0  0  0  0  0  0
  188.6260  176.0670  136.1350 N   0  0  0  0  0  0  0  0  0  0  0  0
  188.7330  175.2040  134.9440 C   0  0  1  0  0  3  0  0  0  0  0  0
  189.8880  174.2020  135.0390 C   0  0  0  0  0  2  0  0  0  0  0  0
  189.4740  172.9500  134.5940 O   0  0  0  0  0  1  0  0  0  0  0  0
  187.4160  174.4760  134.6680 C   0  0  0  0  0  2  0  0  0  0  0  0
  185.0660  175.4070  135.1450 C   0  0  0  0  0  0  0  0  0  0  0  0
  183.9340  173.6260  136.3460 O   0  0  0  0  0  0  0  0  0  0  0  0
  185.0770  176.6220  134.5990 C   0  0  0  0  0  2  0  0  0  0  0  0
  183.7640  174.7150  135.4520 C   0  0  0  0  0  2  0  0  0  0  0  0
  186.1480  173.0120  137.9630 O   0  0  0  0  0  1  0  0  0  0  0  0
  186.2960  174.7610  135.6870 C   0  0  1  0  0  3  0  0  0  0  0  0
  185.6000  173.2700  136.3790 P   0  0  2  0  0  0  0  0  0  0  0  0
  185.8970  172.0570  135.5340 O   0  0  0  0  0  0  0  0  0  0  0  0
  188.7490  178.5220  139.4140 C   0  0  0  0  0  2  0  0  0  0  0  0
  185.8780  178.6260  138.3270 C   0  0  0  0  0  3  0  0  0  0  0  0
  187.7770  178.6310  141.7470 C   0  0  0  0  0  0  0  0  0  0  0  0
  182.8860  177.3710  140.1030 C   0  0  0  0  0  3  0  0  0  0  0  0
  187.6020  178.7020  140.3050 N   0  0  0  0  0  0  0  0  0  0  0  0
  180.1320  176.5550  137.0220 C   0  0  0  0  0  3  0  0  0  0  0  0
  181.3630  177.1430  136.7100 C   0  0  0  0  0  3  0  0  0  0  0  0
  184.1170  177.9190  139.7500 C   0  0  0  0  0  0  0  0  0  0  0  0
  184.4540  178.1830  138.4360 C   0  0  0  0  0  0  0  0  0  0  0  0
  180.7300  176.5170  139.3720 C   0  0  0  0  0  3  0  0  0  0  0  0
  182.2920  177.4180  137.7220 C   0  0  0  0  0  0  0  0  0  0  0  0
  185.4630  177.9600  141.9580 N   0  0  0  0  0  0  0  0  0  0  0  0
  186.7540  178.2350  142.5280 C   0  0  0  0  0  3  0  0  0  0  0  0
  183.5540  177.9440  137.3970 C   0  0  0  0  0  3  0  0  0  0  0  0
  181.9630  177.1120  139.0760 C   0  0  0  0  0  0  0  0  0  0  0  0
  179.8190  176.2360  138.3460 C   0  0  0  0  0  3  0  0  0  0  0  0
  186.2780  178.5650  139.7750 C   0  0  0  0  0  0  0  0  0  0  0  0
  185.2780  178.1990  140.5610 C   0  0  0  0  0  0  0  0  0  0  0  0
  189.0010  178.9460  142.3440 O   0  0  0  0  0  0  0  0  0  0  0  0
  190.7490  178.4420  143.8820 C   0  0  0  0  0  3  0  0  0  0  0  0
  190.2090  177.5830  146.1840 C   0  0  1  0  0  3  0  0  0  0  0  0
  188.4270  177.7680  144.4660 C   0  0  0  0  0  2  0  0  0  0  0  0
  191.3020  177.8400  145.1440 C   0  0  0  0  0  2  0  0  0  0  0  0
  189.0510  176.8520  145.5190 C   0  0  0  0  0  2  0  0  0  0  0  0
  190.7700  176.7430  147.3060 C   0  0  0  0  0  1  0  0  0  0  0  0
  189.4520  178.3720  143.5390 C   0  0  0  0  0  0  0  0  0  0  0  0
  192.4700  176.2730  136.2970 C   0  0  0  0  0  2  0  0  0  0  0  0
  193.7610  175.7620  135.6480 C   0  0  2  0  0  3  0  0  0  0  0  0
  194.3590  176.7530  134.6470 C   0  0  0  0  0  2  0  0  0  0  0  0
  195.3290  177.6110  135.3200 N   0  0  0  0  0  1  0  0  0  0  0  0
  193.5410  174.4900  135.0790 O   0  0  0  0  0  0  0  0  0  0  0  0
  193.5560  173.4780  136.0790 C   0  0  1  0  0  3  0  0  0  0  0  0
  193.5600  172.2160  135.4880 O   0  0  0  0  0  1  0  0  0  0  0  0
  194.6780  173.5890  137.1250 C   0  0  0  0  0  2  0  0  0  0  0  0
  198.6290  174.5260  136.6050 C   0  0  0  0  0  2  0  0  0  0  0  0
  196.0470  172.9350  135.1620 O   0  0  0  0  0  1  0  0  0  0  0  0
  196.0430  173.3510  136.4990 C   0  0  1  0  0  0  0  0  0  0  0  0
  197.1470  174.3370  136.9940 C   0  0  0  0  0  0  0  0  0  0  0  0
  197.5930  174.9640  135.6600 C   0  0  0  0  0  2  0  0  0  0  0  0
  197.1090  172.8020  137.3760 C   0  0  2  0  0  3  0  0  0  0  0  0
  198.2560  170.6500  137.2070 O   0  0  0  0  0  1  0  0  0  0  0  0
  197.9420  171.7500  136.6590 C   0  0  0  0  0  0  0  0  0  0  0  0
  198.4940  172.0660  135.4220 O   0  0  0  0  0  0  0  0  0  0  0  0
  1  2  2  0  0  0  0
  2  3  1  0  0  0  0
  3  6  1  0  0  0  0
  4 24  1  1  0  0  0
  4  7  1  0  0  0  0
  5  8  1  1  0  0  0
  5  2  1  0  0  0  0
  5  4  1  0  0  0  0
  7  6  1  0  0  0  0
  8  9  1  1  0  0  0
 10 11  1  0  0  0  0
 11  8  1  0  0  0  0
 12 15  1  1  0  0  0
 12 13  1  0  0  0  0
 12 11  1  0  0  0  0
 14 13  1  0  0  0  0
 16 19  1  0  0  0  0
 16 21  1  0  0  0  0
 17 22  1  0  0  0  0
 18 16  2  0  0  0  0
 19 17  1  0  0  0  0
 21 15  1  6  0  0  0
 21 22  1  0  0  0  0
 22 23  2  6  0  0  0
 22 20  1  0  0  0  0
 24 28  1  0  0  0  0
 25 32  1  0  0  0  0
 25 40  2  0  0  0  0
 26 42  1  0  0  0  0
 26 36  2  0  0  0  0
 28 26  1  0  0  0  0
 29 39  1  0  0  0  0
 30 29  2  0  0  0  0
 30 34  1  0  0  0  0
 31 27  1  0  0  0  0
 31 41  1  0  0  0  0
 32 31  2  0  0  0  0
 34 38  1  0  0  0  0
 35 36  1  0  0  0  0
 37 34  2  0  0  0  0
 37 32  1  0  0  0  0
 38 33  1  0  0  0  0
 38 27  2  0  0  0  0
 39 33  2  0  0  0  0
 40 28  1  0  0  0  0
 40 41  1  0  0  0  0
 41 35  2  0  0  0  0
 42 49  1  0  0  0  0
 43 46  1  0  0  0  0
 44 48  1  1  0  0  0
 45 47  1  0  0  0  0
 46 44  1  0  0  0  0
 47 44  1  0  0  0  0
 49 43  2  0  0  0  0
 49 45  1  0  0  0  0
 50  1  1  0  0  0  0
 51 52  1  6  0  0  0
 51 50  1  0  0  0  0
 52 53  1  0  0  0  0
 54 51  1  0  0  0  0
 54 55  1  0  0  0  0
 55 56  1  6  0  0  0
 55 57  1  0  0  0  0
 58 61  1  0  0  0  0
 60 59  1  6  0  0  0
 60 61  1  0  0  0  0
 60 57  1  0  0  0  0
 60 63  1  0  0  0  0
 61 63  1  0  0  0  0
 62 58  1  0  0  0  0
 62 61  1  0  0  0  0
 63 65  1  6  0  0  0
 65 64  1  0  0  0  0
 66 65  2  0  0  0  0
M  END
>  <MODEL>
9

>  <REMARK>
 VINA RESULT:      -4.6      3.793     10.538
  Name = 
  18 active torsions:
  status: ('A' for Active; 'I' for Inactive)
    1  A    between atoms: C_1  and  C_36
    2  A    between atoms: C_1  and  N_62
    3  A    between atoms: O_2  and  C_25
    4  A    between atoms: O_2  and  C_39
    5  A    between atoms: C_6  and  O_12
    6  A    between atoms: C_11  and  C_23
    7  A    between atoms: C_11  and  C_25
    8  A    between atoms: O_12  and  C_53
    9  A    between atoms: C_13  and  C_19
   10  A    between atoms: C_14  and  C_39
   11  A    between atoms: C_14  and  C_49
   12  A    between atoms: C_19  and  C_41
   13  A    between atoms: C_19  and  N_62
   14  A    between atoms: N_20  and  C_33
   15  A    between atoms: C_21  and  C_25
   16  A    between atoms: C_32  and  C_33
   17  A    between atoms: C_41  and  C_58
   18  A    between atoms: C_60  and  C_64
                            x       y       z     vdW  Elec       q    Type
                         _______ _______ _______ _____ _____    ______ ____

>  <TORSDO>
F 18

$$$$
