=
 OpenBabel11042411213D

 25 30  0  0  1  0  0  0  0  0999 V2000
  190.3440  178.4040  144.8770 C   0  0  2  0  0  3  0  0  0  0  0  0
  185.3650  179.0020  145.8340 C   0  0  0  0  0  2  0  0  0  0  0  0
  187.9530  177.6880  142.1850 N   0  0  0  0  0  0  0  0  0  0  0  0
  189.2960  177.6330  144.2100 C   0  0  2  0  0  0  0  0  0  0  0  0
  189.1470  177.5930  142.6920 C   0  0  0  0  0  0  0  0  0  0  0  0
  190.2400  177.3110  141.8030 N   0  0  0  0  0  0  0  0  0  0  0  0
  191.1830  179.2180  143.8880 C   0  0  0  0  0  2  0  0  0  0  0  0
  184.5400  178.1000  143.7490 C   0  0  1  0  0  3  0  0  0  0  0  0
  183.9490  179.4670  144.0570 C   0  0  0  0  0  2  0  0  0  0  0  0
  192.0090  178.3870  143.0250 N   0  0  0  0  0  2  0  0  0  0  0  0
  192.4630  177.0910  140.9300 C   0  0  0  0  0  1  0  0  0  0  0  0
  185.4160  178.0520  142.4740 C   0  0  2  0  0  3  0  0  0  0  0  0
  186.8140  177.7110  144.3180 C   0  0  0  0  0  0  0  0  0  0  0  0
  191.5040  177.5850  141.9520 C   0  0  0  0  0  0  0  0  0  0  0  0
  185.4620  177.7940  144.9240 C   0  0  1  0  0  3  0  0  0  0  0  0
  188.0620  177.3340  145.0620 C   0  0  0  0  0  2  0  0  0  0  0  0
  190.4930  176.9410  144.6990 N   0  0  0  0  0  2  0  0  0  0  0  0
  184.1620  179.7360  145.4710 N   0  0  0  0  0  2  0  0  0  0  0  0
  186.7840  177.8400  143.0040 C   0  0  0  0  0  0  0  0  0  0  0  0
  185.3590  179.2880  141.7010 N   0  0  0  0  0  2  0  0  0  0  0  0
  182.8870  178.4390  139.3010 C   0  0  0  0  0  2  0  0  0  0  0  0
  183.7930  177.9690  140.3980 C   0  0  0  0  0  2  0  0  0  0  0  0
  183.6010  179.6390  138.7260 C   0  0  0  0  0  2  0  0  0  0  0  0
  184.5370  180.0910  139.6680 O   0  0  0  0  0  0  0  0  0  0  0  0
  184.9520  178.9380  140.3500 C   0  0  1  0  0  3  0  0  0  0  0  0
  1  7  1  6  0  0  0
  3  5  2  0  0  0  0
  3 19  1  0  0  0  0
  4 17  1  0  0  0  0
  4  1  1  0  0  0  0
  4 16  1  1  0  0  0
  5  4  1  0  0  0  0
  6 14  2  0  0  0  0
  6  5  1  0  0  0  0
  8  9  1  1  0  0  0
  8 15  1  0  0  0  0
  9 18  1  0  0  0  0
 10  7  1  0  0  0  0
 11 14  1  0  0  0  0
 12 20  1  1  0  0  0
 12 19  1  0  0  0  0
 12  8  1  0  0  0  0
 13 15  1  0  0  0  0
 13 16  1  0  0  0  0
 14 10  1  0  0  0  0
 15  2  1  1  0  0  0
 17  1  1  0  0  0  0
 18  2  1  0  0  0  0
 19 13  2  0  0  0  0
 21 22  1  0  0  0  0
 23 21  1  0  0  0  0
 23 24  1  0  0  0  0
 24 25  1  0  0  0  0
 25 22  1  0  0  0  0
 25 20  1  1  0  0  0
M  END
>  <MODEL>
1

>  <REMARK>
 VINA RESULT:      -8.3      0.000      0.000
  Name = 
  2 active torsions:
  status: ('A' for Active; 'I' for Inactive)
    1  A    between atoms: N_1  and  C_17
    2  A    between atoms: N_1  and  C_24
                            x       y       z     vdW  Elec       q    Type
                         _______ _______ _______ _____ _____    ______ ____

>  <TORSDO>
F 2

$$$$
=
 OpenBabel11042411213D

 25 30  0  0  1  0  0  0  0  0999 V2000
  188.4690  178.3310  148.1530 C   0  0  2  0  0  3  0  0  0  0  0  0
  184.8350  179.3990  144.7310 C   0  0  0  0  0  2  0  0  0  0  0  0
  188.7670  176.8940  144.7880 N   0  0  0  0  0  0  0  0  0  0  0  0
  188.0990  177.4310  147.0620 C   0  0  2  0  0  0  0  0  0  0  0  0
  189.1110  176.9170  146.0430 C   0  0  0  0  0  0  0  0  0  0  0  0
  190.3670  176.3260  146.4120 N   0  0  0  0  0  0  0  0  0  0  0  0
  189.9380  178.7560  148.0800 C   0  0  0  0  0  2  0  0  0  0  0  0
  185.6090  177.9150  142.9870 C   0  0  1  0  0  3  0  0  0  0  0  0
  185.3870  179.3320  142.4790 C   0  0  0  0  0  2  0  0  0  0  0  0
  190.8600  177.6630  148.3480 N   0  0  0  0  0  2  0  0  0  0  0  0
  192.3290  175.7520  147.6650 C   0  0  0  0  0  1  0  0  0  0  0  0
  187.0770  177.4310  142.9150 C   0  0  2  0  0  3  0  0  0  0  0  0
  186.4980  177.6380  145.1720 C   0  0  0  0  0  0  0  0  0  0  0  0
  191.1170  176.5830  147.4450 C   0  0  0  0  0  0  0  0  0  0  0  0
  185.2360  177.9610  144.4630 C   0  0  1  0  0  3  0  0  0  0  0  0
  186.6240  177.4660  146.6580 C   0  0  0  0  0  2  0  0  0  0  0  0
  188.2950  176.8820  148.4080 N   0  0  0  0  0  2  0  0  0  0  0  0
  184.5530  180.0270  143.4490 N   0  0  0  0  0  2  0  0  0  0  0  0
  187.4800  177.3440  144.3390 C   0  0  0  0  0  0  0  0  0  0  0  0
  187.9460  178.3600  142.2000 N   0  0  0  0  0  2  0  0  0  0  0  0
  189.4460  178.2400  138.9860 C   0  0  0  0  0  2  0  0  0  0  0  0
  188.1800  178.3060  139.7840 C   0  0  0  0  0  2  0  0  0  0  0  0
  190.4210  177.5430  139.9050 C   0  0  0  0  0  2  0  0  0  0  0  0
  189.9360  177.6330  141.2170 O   0  0  0  0  0  0  0  0  0  0  0  0
  188.5390  177.6330  141.0890 C   0  0  1  0  0  3  0  0  0  0  0  0
  1  7  1  6  0  0  0
  1 17  1  0  0  0  0
  3  5  2  0  0  0  0
  4 16  1  6  0  0  0
  4  1  1  0  0  0  0
  4 17  1  0  0  0  0
  5  6  1  0  0  0  0
  5  4  1  0  0  0  0
  6 14  2  0  0  0  0
  7 10  1  0  0  0  0
  8  9  1  1  0  0  0
  8 15  1  0  0  0  0
  9 18  1  0  0  0  0
 12 20  1  6  0  0  0
 12  8  1  0  0  0  0
 12 19  1  0  0  0  0
 13 16  1  0  0  0  0
 14 11  1  0  0  0  0
 14 10  1  0  0  0  0
 15  2  1  1  0  0  0
 15 13  1  0  0  0  0
 18  2  1  0  0  0  0
 19  3  1  0  0  0  0
 19 13  2  0  0  0  0
 21 22  1  0  0  0  0
 21 23  1  0  0  0  0
 22 25  1  0  0  0  0
 23 24  1  0  0  0  0
 25 24  1  0  0  0  0
 25 20  1  1  0  0  0
M  END
>  <MODEL>
2

>  <REMARK>
 VINA RESULT:      -8.0      2.678      4.060
  Name = 
  2 active torsions:
  status: ('A' for Active; 'I' for Inactive)
    1  A    between atoms: N_1  and  C_17
    2  A    between atoms: N_1  and  C_24
                            x       y       z     vdW  Elec       q    Type
                         _______ _______ _______ _____ _____    ______ ____

>  <TORSDO>
F 2

$$$$
=
 OpenBabel11042411213D

 25 30  0  0  1  0  0  0  0  0999 V2000
  191.6880  177.7040  143.8420 C   0  0  2  0  0  3  0  0  0  0  0  0
  188.6180  178.3150  147.8740 C   0  0  0  0  0  2  0  0  0  0  0  0
  188.1120  176.9800  143.4350 N   0  0  0  0  0  0  0  0  0  0  0  0
  190.4640  176.9320  144.0470 C   0  0  2  0  0  0  0  0  0  0  0  0
  189.3410  176.8850  143.0160 C   0  0  0  0  0  0  0  0  0  0  0  0
  189.5620  176.5980  141.6260 N   0  0  0  0  0  0  0  0  0  0  0  0
  191.6520  178.5130  142.5420 C   0  0  0  0  0  2  0  0  0  0  0  0
  186.6140  177.4040  146.8750 C   0  0  1  0  0  3  0  0  0  0  0  0
  186.3760  178.7740  147.4930 C   0  0  0  0  0  2  0  0  0  0  0  0
  191.6930  177.6770  141.3510 N   0  0  0  0  0  2  0  0  0  0  0  0
  190.6360  176.3700  139.4940 C   0  0  0  0  0  1  0  0  0  0  0  0
  186.4150  177.3490  145.3410 C   0  0  2  0  0  3  0  0  0  0  0  0
  188.6880  177.0150  145.7840 C   0  0  0  0  0  0  0  0  0  0  0  0
  190.6030  176.8710  140.8920 C   0  0  0  0  0  0  0  0  0  0  0  0
  188.0850  177.1030  147.1360 C   0  0  1  0  0  3  0  0  0  0  0  0
  190.1150  176.6390  145.5070 C   0  0  0  0  0  2  0  0  0  0  0  0
  191.6840  176.2400  143.6160 N   0  0  0  0  0  2  0  0  0  0  0  0
  187.4780  179.0490  148.4030 N   0  0  0  0  0  2  0  0  0  0  0  0
  187.7890  177.1380  144.8240 C   0  0  0  0  0  0  0  0  0  0  0  0
  185.8550  178.5830  144.7980 N   0  0  0  0  0  2  0  0  0  0  0  0
  182.6460  179.3190  143.4740 C   0  0  0  0  0  2  0  0  0  0  0  0
  183.4480  178.8630  144.6550 C   0  0  0  0  0  2  0  0  0  0  0  0
  183.4800  178.9070  142.2840 C   0  0  0  0  0  2  0  0  0  0  0  0
  184.7950  178.6880  142.7200 O   0  0  0  0  0  0  0  0  0  0  0  0
  184.6700  178.2220  144.0370 C   0  0  1  0  0  3  0  0  0  0  0  0
  1  7  1  6  0  0  0
  1  4  1  0  0  0  0
  2 18  1  0  0  0  0
  3 19  1  0  0  0  0
  4 16  1  1  0  0  0
  5  3  2  0  0  0  0
  5  4  1  0  0  0  0
  6  5  1  0  0  0  0
  8 15  1  0  0  0  0
  8  9  1  6  0  0  0
  9 18  1  0  0  0  0
 10  7  1  0  0  0  0
 11 14  1  0  0  0  0
 12 20  1  6  0  0  0
 12  8  1  0  0  0  0
 13 15  1  0  0  0  0
 14 10  1  0  0  0  0
 14  6  2  0  0  0  0
 15  2  1  1  0  0  0
 16 13  1  0  0  0  0
 17  1  1  0  0  0  0
 17  4  1  0  0  0  0
 19 12  1  0  0  0  0
 19 13  2  0  0  0  0
 21 22  1  0  0  0  0
 23 24  1  0  0  0  0
 23 21  1  0  0  0  0
 24 25  1  0  0  0  0
 25 22  1  0  0  0  0
 25 20  1  1  0  0  0
M  END
>  <MODEL>
3

>  <REMARK>
 VINA RESULT:      -7.7      1.972      2.957
  Name = 
  2 active torsions:
  status: ('A' for Active; 'I' for Inactive)
    1  A    between atoms: N_1  and  C_17
    2  A    between atoms: N_1  and  C_24
                            x       y       z     vdW  Elec       q    Type
                         _______ _______ _______ _____ _____    ______ ____

>  <TORSDO>
F 2

$$$$
=
 OpenBabel11042411213D

 25 30  0  0  1  0  0  0  0  0999 V2000
  188.0800  176.3110  137.1440 C   0  0  2  0  0  3  0  0  0  0  0  0
  184.1760  178.0240  139.9530 C   0  0  0  0  0  2  0  0  0  0  0  0
  188.8120  177.8220  140.4090 N   0  0  0  0  0  0  0  0  0  0  0  0
  188.1930  177.4170  138.0940 C   0  0  2  0  0  0  0  0  0  0  0  0
  189.2040  177.4170  139.2360 C   0  0  0  0  0  0  0  0  0  0  0  0
  190.6000  177.1300  139.0500 N   0  0  0  0  0  0  0  0  0  0  0  0
  189.0100  175.1470  137.4970 C   0  0  0  0  0  2  0  0  0  0  0  0
  185.4850  179.0560  141.7030 C   0  0  1  0  0  3  0  0  0  0  0  0
  184.4300  178.1100  142.2570 C   0  0  0  0  0  2  0  0  0  0  0  0
  190.4180  175.4710  137.3190 N   0  0  0  0  0  2  0  0  0  0  0  0
  192.6450  176.2940  138.1190 C   0  0  0  0  0  1  0  0  0  0  0  0
  186.9440  178.6290  141.9940 C   0  0  2  0  0  3  0  0  0  0  0  0
  186.5880  178.4430  139.6890 C   0  0  0  0  0  0  0  0  0  0  0  0
  191.1610  176.3400  138.1810 C   0  0  0  0  0  0  0  0  0  0  0  0
  185.3080  179.0030  140.1900 C   0  0  1  0  0  3  0  0  0  0  0  0
  186.9420  178.2830  138.2390 C   0  0  0  0  0  2  0  0  0  0  0  0
  188.8080  177.5440  136.7680 N   0  0  0  0  0  2  0  0  0  0  0  0
  183.4520  177.8700  141.2060 N   0  0  0  0  0  2  0  0  0  0  0  0
  187.4660  178.2540  140.6580 C   0  0  0  0  0  0  0  0  0  0  0  0
  187.0310  177.4940  142.9080 N   0  0  0  0  0  2  0  0  0  0  0  0
  187.5940  177.5020  146.4110 C   0  0  0  0  0  2  0  0  0  0  0  0
  186.8030  178.0460  145.2600 C   0  0  0  0  0  2  0  0  0  0  0  0
  188.9220  177.1280  145.7980 C   0  0  0  0  0  2  0  0  0  0  0  0
  188.7530  177.0130  144.4110 O   0  0  0  0  0  0  0  0  0  0  0  0
  187.7520  177.9420  144.0880 C   0  0  1  0  0  3  0  0  0  0  0  0
  1  7  1  1  0  0  0
  1  4  1  0  0  0  0
  2 18  1  0  0  0  0
  3 19  1  0  0  0  0
  4 16  1  1  0  0  0
  4  5  1  0  0  0  0
  5  3  2  0  0  0  0
  6  5  1  0  0  0  0
  8 12  1  0  0  0  0
  8  9  1  1  0  0  0
 10  7  1  0  0  0  0
 10 14  1  0  0  0  0
 11 14  1  0  0  0  0
 12 20  1  1  0  0  0
 13 15  1  0  0  0  0
 13 19  2  0  0  0  0
 14  6  2  0  0  0  0
 15  2  1  1  0  0  0
 15  8  1  0  0  0  0
 16 13  1  0  0  0  0
 17  1  1  0  0  0  0
 17  4  1  0  0  0  0
 18  9  1  0  0  0  0
 19 12  1  0  0  0  0
 22 21  1  0  0  0  0
 23 21  1  0  0  0  0
 24 23  1  0  0  0  0
 25 20  1  6  0  0  0
 25 24  1  0  0  0  0
 25 22  1  0  0  0  0
M  END
>  <MODEL>
4

>  <REMARK>
 VINA RESULT:      -7.0      3.168      5.560
  Name = 
  2 active torsions:
  status: ('A' for Active; 'I' for Inactive)
    1  A    between atoms: N_1  and  C_17
    2  A    between atoms: N_1  and  C_24
                            x       y       z     vdW  Elec       q    Type
                         _______ _______ _______ _____ _____    ______ ____

>  <TORSDO>
F 2

$$$$
=
 OpenBabel11042411213D

 25 30  0  0  1  0  0  0  0  0999 V2000
  189.0470  176.5540  137.9710 C   0  0  2  0  0  3  0  0  0  0  0  0
  186.9140  177.6580  142.4750 C   0  0  0  0  0  2  0  0  0  0  0  0
  191.2520  177.1290  140.8490 N   0  0  0  0  0  0  0  0  0  0  0  0
  189.7000  177.3690  138.9940 C   0  0  2  0  0  0  0  0  0  0  0  0
  191.0720  177.0240  139.5650 C   0  0  0  0  0  0  0  0  0  0  0  0
  192.2140  176.7310  138.7430 N   0  0  0  0  0  0  0  0  0  0  0  0
  189.8520  175.2970  137.6310 C   0  0  0  0  0  2  0  0  0  0  0  0
  188.9570  178.1370  143.6740 C   0  0  1  0  0  3  0  0  0  0  0  0
  188.0830  177.1310  144.4080 C   0  0  0  0  0  2  0  0  0  0  0  0
  191.1010  175.5890  136.9430 N   0  0  0  0  0  2  0  0  0  0  0  0
  193.5580  176.0710  136.8700 C   0  0  0  0  0  1  0  0  0  0  0  0
  190.3260  177.5820  143.2140 C   0  0  2  0  0  3  0  0  0  0  0  0
  189.0490  178.0190  141.3030 C   0  0  0  0  0  0  0  0  0  0  0  0
  192.2510  176.1680  137.5690 C   0  0  0  0  0  0  0  0  0  0  0  0
  188.1810  178.4880  142.4110 C   0  0  1  0  0  3  0  0  0  0  0  0
  188.7610  178.2250  139.8440 C   0  0  0  0  0  2  0  0  0  0  0  0
  189.7410  177.8080  137.5950 N   0  0  0  0  0  2  0  0  0  0  0  0
  186.7410  177.2180  143.8510 N   0  0  0  0  0  2  0  0  0  0  0  0
  190.2030  177.5430  141.7370 C   0  0  0  0  0  0  0  0  0  0  0  0
  190.6000  176.2460  143.7330 N   0  0  0  0  0  2  0  0  0  0  0  0
  191.5890  176.3780  147.1390 C   0  0  0  0  0  2  0  0  0  0  0  0
  191.0330  177.1140  145.9580 C   0  0  0  0  0  2  0  0  0  0  0  0
  192.4300  175.2840  146.5240 C   0  0  0  0  0  2  0  0  0  0  0  0
  192.0270  175.1110  145.1920 O   0  0  0  0  0  0  0  0  0  0  0  0
  191.6110  176.3820  144.7690 C   0  0  1  0  0  3  0  0  0  0  0  0
  1  7  1  6  0  0  0
  1  4  1  0  0  0  0
  2 18  1  0  0  0  0
  3 19  1  0  0  0  0
  4  5  1  0  0  0  0
  4 16  1  1  0  0  0
  5  3  2  0  0  0  0
  6  5  1  0  0  0  0
  8  9  1  6  0  0  0
 10 14  1  0  0  0  0
 10  7  1  0  0  0  0
 11 14  1  0  0  0  0
 12  8  1  0  0  0  0
 12 20  1  1  0  0  0
 13 19  2  0  0  0  0
 13 15  1  0  0  0  0
 14  6  2  0  0  0  0
 15  2  1  1  0  0  0
 15  8  1  0  0  0  0
 16 13  1  0  0  0  0
 17  1  1  0  0  0  0
 17  4  1  0  0  0  0
 18  9  1  0  0  0  0
 19 12  1  0  0  0  0
 22 21  1  0  0  0  0
 23 21  1  0  0  0  0
 24 23  1  0  0  0  0
 25 20  1  6  0  0  0
 25 24  1  0  0  0  0
 25 22  1  0  0  0  0
M  END
>  <MODEL>
5

>  <REMARK>
 VINA RESULT:      -7.0      3.579      6.601
  Name = 
  2 active torsions:
  status: ('A' for Active; 'I' for Inactive)
    1  A    between atoms: N_1  and  C_17
    2  A    between atoms: N_1  and  C_24
                            x       y       z     vdW  Elec       q    Type
                         _______ _______ _______ _____ _____    ______ ____

>  <TORSDO>
F 2

$$$$
=
 OpenBabel11042411213D

 25 30  0  0  1  0  0  0  0  0999 V2000
  183.3720  177.8840  142.0520 C   0  0  2  0  0  3  0  0  0  0  0  0
  188.0270  176.4670  143.5940 C   0  0  0  0  0  2  0  0  0  0  0  0
  186.2700  178.9990  140.0950 N   0  0  0  0  0  0  0  0  0  0  0  0
  184.5770  178.6740  141.8080 C   0  0  2  0  0  0  0  0  0  0  0  0
  185.0110  179.0970  140.4080 C   0  0  0  0  0  0  0  0  0  0  0  0
  184.1270  179.7320  139.4700 N   0  0  0  0  0  0  0  0  0  0  0  0
  182.6790  177.4660  140.7530 C   0  0  0  0  0  2  0  0  0  0  0  0
  189.2900  177.7850  142.0100 C   0  0  1  0  0  3  0  0  0  0  0  0
  189.7170  176.3240  142.0110 C   0  0  0  0  0  2  0  0  0  0  0  0
  182.0900  178.5880  140.0370 N   0  0  0  0  0  2  0  0  0  0  0  0
  182.1290  180.4380  138.3480 C   0  0  0  0  0  1  0  0  0  0  0  0
  188.6760  178.2730  140.6760 C   0  0  2  0  0  3  0  0  0  0  0  0
  186.9830  178.2760  142.2900 C   0  0  0  0  0  0  0  0  0  0  0  0
  182.8420  179.5800  139.3300 C   0  0  0  0  0  0  0  0  0  0  0  0
  188.1880  177.8760  143.0580 C   0  0  1  0  0  3  0  0  0  0  0  0
  185.6460  178.5880  142.8980 C   0  0  0  0  0  2  0  0  0  0  0  0
  183.3600  179.3490  142.2730 N   0  0  0  0  0  2  0  0  0  0  0  0
  189.2230  175.7180  143.2380 N   0  0  0  0  0  2  0  0  0  0  0  0
  187.2500  178.4970  141.0160 C   0  0  0  0  0  0  0  0  0  0  0  0
  188.7910  177.2880  139.6050 N   0  0  0  0  0  2  0  0  0  0  0  0
  189.0990  178.0360  136.1500 C   0  0  0  0  0  2  0  0  0  0  0  0
  189.3680  177.0630  137.2580 C   0  0  0  0  0  2  0  0  0  0  0  0
  189.0560  179.3770  136.8430 C   0  0  0  0  0  2  0  0  0  0  0  0
  188.8400  179.1610  138.2120 O   0  0  0  0  0  0  0  0  0  0  0  0
  189.4620  177.9350  138.4900 C   0  0  1  0  0  3  0  0  0  0  0  0
  1  7  1  6  0  0  0
  1 17  1  0  0  0  0
  3  5  2  0  0  0  0
  3 19  1  0  0  0  0
  4  1  1  0  0  0  0
  4 17  1  0  0  0  0
  4 16  1  1  0  0  0
  5  4  1  0  0  0  0
  6  5  1  0  0  0  0
  8  9  1  6  0  0  0
  8 15  1  0  0  0  0
  9 18  1  0  0  0  0
 10  7  1  0  0  0  0
 11 14  1  0  0  0  0
 12 20  1  6  0  0  0
 12 19  1  0  0  0  0
 12  8  1  0  0  0  0
 13 16  1  0  0  0  0
 13 15  1  0  0  0  0
 14  6  2  0  0  0  0
 14 10  1  0  0  0  0
 15  2  1  6  0  0  0
 18  2  1  0  0  0  0
 19 13  2  0  0  0  0
 21 23  1  0  0  0  0
 21 22  1  0  0  0  0
 22 25  1  0  0  0  0
 23 24  1  0  0  0  0
 24 25  1  0  0  0  0
 25 20  1  1  0  0  0
M  END
>  <MODEL>
6

>  <REMARK>
 VINA RESULT:      -7.0      2.777      6.351
  Name = 
  2 active torsions:
  status: ('A' for Active; 'I' for Inactive)
    1  A    between atoms: N_1  and  C_17
    2  A    between atoms: N_1  and  C_24
                            x       y       z     vdW  Elec       q    Type
                         _______ _______ _______ _____ _____    ______ ____

>  <TORSDO>
F 2

$$$$
=
 OpenBabel11042411213D

 25 30  0  0  1  0  0  0  0  0999 V2000
  190.3990  176.3780  141.9590 C   0  0  2  0  0  3  0  0  0  0  0  0
  189.9940  176.7520  136.8840 C   0  0  0  0  0  2  0  0  0  0  0  0
  187.5260  178.1920  140.5690 N   0  0  0  0  0  0  0  0  0  0  0  0
  189.7420  177.4950  141.2820 C   0  0  2  0  0  0  0  0  0  0  0  0
  188.3000  177.8970  141.5730 C   0  0  0  0  0  0  0  0  0  0  0  0
  187.7940  178.1040  142.9010 N   0  0  0  0  0  0  0  0  0  0  0  0
  189.4470  175.6260  142.8930 C   0  0  0  0  0  2  0  0  0  0  0  0
  188.0980  178.2510  136.8360 C   0  0  1  0  0  3  0  0  0  0  0  0
  187.8820  177.0230  135.9630 C   0  0  0  0  0  2  0  0  0  0  0  0
  189.0520  176.4100  144.0540 N   0  0  0  0  0  2  0  0  0  0  0  0
  187.5460  177.9900  145.2830 C   0  0  0  0  0  1  0  0  0  0  0  0
  187.1180  178.3700  138.0280 C   0  0  2  0  0  3  0  0  0  0  0  0
  189.2550  177.9700  138.8920 C   0  0  0  0  0  0  0  0  0  0  0  0
  188.1490  177.5200  144.0090 C   0  0  0  0  0  0  0  0  0  0  0  0
  189.4900  178.0730  137.4310 C   0  0  1  0  0  3  0  0  0  0  0  0
  190.3380  177.8790  139.9270 C   0  0  0  0  0  2  0  0  0  0  0  0
  190.6610  177.7700  142.3930 N   0  0  0  0  0  2  0  0  0  0  0  0
  189.1810  176.4120  135.7260 N   0  0  0  0  0  2  0  0  0  0  0  0
  187.9850  178.1400  139.2090 C   0  0  0  0  0  0  0  0  0  0  0  0
  186.0490  177.3780  137.9850 N   0  0  0  0  0  2  0  0  0  0  0  0
  183.0760  178.4650  139.5890 C   0  0  0  0  0  2  0  0  0  0  0  0
  183.7810  177.3680  138.8500 C   0  0  0  0  0  2  0  0  0  0  0  0
  183.7430  179.7260  139.0940 C   0  0  0  0  0  2  0  0  0  0  0  0
  184.9780  179.3810  138.5260 O   0  0  0  0  0  0  0  0  0  0  0  0
  184.7870  178.0990  137.9900 C   0  0  1  0  0  3  0  0  0  0  0  0
  1 17  1  0  0  0  0
  1  7  1  1  0  0  0
  3  5  2  0  0  0  0
  4 16  1  6  0  0  0
  4  5  1  0  0  0  0
  4  1  1  0  0  0  0
  4 17  1  0  0  0  0
  5  6  1  0  0  0  0
  6 14  2  0  0  0  0
  7 10  1  0  0  0  0
  8  9  1  6  0  0  0
  8 15  1  0  0  0  0
  8 12  1  0  0  0  0
 12 20  1  6  0  0  0
 12 19  1  0  0  0  0
 13 19  2  0  0  0  0
 13 16  1  0  0  0  0
 14 10  1  0  0  0  0
 14 11  1  0  0  0  0
 15  2  1  6  0  0  0
 15 13  1  0  0  0  0
 18  9  1  0  0  0  0
 18  2  1  0  0  0  0
 19  3  1  0  0  0  0
 22 21  1  0  0  0  0
 23 21  1  0  0  0  0
 24 23  1  0  0  0  0
 25 20  1  1  0  0  0
 25 24  1  0  0  0  0
 25 22  1  0  0  0  0
M  END
>  <MODEL>
7

>  <REMARK>
 VINA RESULT:      -6.8      3.009      5.379
  Name = 
  2 active torsions:
  status: ('A' for Active; 'I' for Inactive)
    1  A    between atoms: N_1  and  C_17
    2  A    between atoms: N_1  and  C_24
                            x       y       z     vdW  Elec       q    Type
                         _______ _______ _______ _____ _____    ______ ____

>  <TORSDO>
F 2

$$$$
=
 OpenBabel11042411213D

 25 30  0  0  1  0  0  0  0  0999 V2000
  185.8410  176.5860  136.9470 C   0  0  2  0  0  3  0  0  0  0  0  0
  184.1050  178.3910  141.3950 C   0  0  0  0  0  2  0  0  0  0  0  0
  188.2830  177.7600  139.4240 N   0  0  0  0  0  0  0  0  0  0  0  0
  186.5420  177.5980  137.7350 C   0  0  2  0  0  0  0  0  0  0  0  0
  187.9830  177.4190  138.2040 C   0  0  0  0  0  0  0  0  0  0  0  0
  189.0520  177.0310  137.3270 N   0  0  0  0  0  0  0  0  0  0  0  0
  186.6820  175.3230  136.7460 C   0  0  0  0  0  2  0  0  0  0  0  0
  186.2250  179.1630  142.2620 C   0  0  1  0  0  3  0  0  0  0  0  0
  185.4900  178.2680  143.2510 C   0  0  0  0  0  2  0  0  0  0  0  0
  187.8360  175.5390  135.8860 N   0  0  0  0  0  2  0  0  0  0  0  0
  190.2400  176.1020  135.4630 C   0  0  0  0  0  1  0  0  0  0  0  0
  187.5720  178.5910  141.7600 C   0  0  2  0  0  3  0  0  0  0  0  0
  186.0870  178.6240  139.9520 C   0  0  0  0  0  0  0  0  0  0  0  0
  189.0060  176.2680  136.2720 C   0  0  0  0  0  0  0  0  0  0  0  0
  185.3060  179.2480  141.0490 C   0  0  1  0  0  3  0  0  0  0  0  0
  185.6420  178.5530  138.5200 C   0  0  0  0  0  2  0  0  0  0  0  0
  186.4170  177.7800  136.2850 N   0  0  0  0  0  2  0  0  0  0  0  0
  184.0970  178.1980  142.8370 N   0  0  0  0  0  2  0  0  0  0  0  0
  187.3040  178.2820  140.3340 C   0  0  0  0  0  0  0  0  0  0  0  0
  187.9760  177.3830  142.4710 N   0  0  0  0  0  2  0  0  0  0  0  0
  190.3680  177.1060  145.0780 C   0  0  0  0  0  2  0  0  0  0  0  0
  189.1880  177.8450  144.5230 C   0  0  0  0  0  2  0  0  0  0  0  0
  191.0440  176.5270  143.8570 C   0  0  0  0  0  2  0  0  0  0  0  0
  190.1200  176.5170  142.8020 O   0  0  0  0  0  0  0  0  0  0  0  0
  189.2960  177.6290  143.0310 C   0  0  1  0  0  3  0  0  0  0  0  0
  1  7  1  6  0  0  0
  1  4  1  0  0  0  0
  2 18  1  0  0  0  0
  3 19  1  0  0  0  0
  4  5  1  0  0  0  0
  4 16  1  1  0  0  0
  5  3  2  0  0  0  0
  6  5  1  0  0  0  0
  8  9  1  1  0  0  0
 10 14  1  0  0  0  0
 10  7  1  0  0  0  0
 11 14  1  0  0  0  0
 12  8  1  0  0  0  0
 12 20  1  1  0  0  0
 13 19  2  0  0  0  0
 13 15  1  0  0  0  0
 14  6  2  0  0  0  0
 15  2  1  1  0  0  0
 15  8  1  0  0  0  0
 16 13  1  0  0  0  0
 17  1  1  0  0  0  0
 17  4  1  0  0  0  0
 18  9  1  0  0  0  0
 19 12  1  0  0  0  0
 22 21  1  0  0  0  0
 23 21  1  0  0  0  0
 24 25  1  0  0  0  0
 24 23  1  0  0  0  0
 25 20  1  1  0  0  0
 25 22  1  0  0  0  0
M  END
>  <MODEL>
8

>  <REMARK>
 VINA RESULT:      -6.7      3.648      6.253
  Name = 
  2 active torsions:
  status: ('A' for Active; 'I' for Inactive)
    1  A    between atoms: N_1  and  C_17
    2  A    between atoms: N_1  and  C_24
                            x       y       z     vdW  Elec       q    Type
                         _______ _______ _______ _____ _____    ______ ____

>  <TORSDO>
F 2

$$$$
=
 OpenBabel11042411213D

 25 30  0  0  1  0  0  0  0  0999 V2000
  191.7400  176.8090  142.8040 C   0  0  2  0  0  3  0  0  0  0  0  0
  193.9300  175.6280  138.3470 C   0  0  0  0  0  2  0  0  0  0  0  0
  189.5990  176.5030  139.8380 N   0  0  0  0  0  0  0  0  0  0  0  0
  191.2080  177.2280  141.5090 C   0  0  2  0  0  0  0  0  0  0  0  0
  189.7860  176.9040  141.0620 C   0  0  0  0  0  0  0  0  0  0  0  0
  188.6300  177.1560  141.8760 N   0  0  0  0  0  0  0  0  0  0  0  0
  190.7470  175.9440  143.5860 C   0  0  0  0  0  2  0  0  0  0  0  0
  191.9680  175.8950  136.9600 C   0  0  1  0  0  3  0  0  0  0  0  0
  192.6490  174.5520  136.7400 C   0  0  0  0  0  2  0  0  0  0  0  0
  189.5780  176.6860  144.0350 N   0  0  0  0  0  2  0  0  0  0  0  0
  187.2360  177.5400  143.7890 C   0  0  0  0  0  1  0  0  0  0  0  0
  190.5360  175.8000  137.5400 C   0  0  2  0  0  3  0  0  0  0  0  0
  191.9080  176.7690  139.1690 C   0  0  0  0  0  0  0  0  0  0  0  0
  188.5260  177.1340  143.1740 C   0  0  0  0  0  0  0  0  0  0  0  0
  192.8180  176.6010  138.0090 C   0  0  1  0  0  3  0  0  0  0  0  0
  192.2570  177.5030  140.4310 C   0  0  0  0  0  2  0  0  0  0  0  0
  191.2700  178.2000  142.6060 N   0  0  0  0  0  2  0  0  0  0  0  0
  193.9980  174.6440  137.2770 N   0  0  0  0  0  2  0  0  0  0  0  0
  190.6830  176.3470  138.9100 C   0  0  0  0  0  0  0  0  0  0  0  0
  190.0350  174.4300  137.5940 N   0  0  0  0  0  2  0  0  0  0  0  0
  186.7670  173.2460  136.8820 C   0  0  0  0  0  2  0  0  0  0  0  0
  188.2420  172.9860  136.8260 C   0  0  0  0  0  2  0  0  0  0  0  0
  186.6600  174.7520  136.8440 C   0  0  0  0  0  2  0  0  0  0  0  0
  187.9000  175.2940  137.2090 O   0  0  0  0  0  0  0  0  0  0  0  0
  188.8500  174.3680  136.7540 C   0  0  1  0  0  3  0  0  0  0  0  0
  1  7  1  1  0  0  0
  3  5  2  0  0  0  0
  4 16  1  6  0  0  0
  4 17  1  0  0  0  0
  4  1  1  0  0  0  0
  5  4  1  0  0  0  0
  5  6  1  0  0  0  0
  6 14  2  0  0  0  0
  7 10  1  0  0  0  0
  8  9  1  1  0  0  0
  8 12  1  0  0  0  0
  8 15  1  0  0  0  0
  9 18  1  0  0  0  0
 12 20  1  1  0  0  0
 12 19  1  0  0  0  0
 13 16  1  0  0  0  0
 14 11  1  0  0  0  0
 14 10  1  0  0  0  0
 15  2  1  1  0  0  0
 15 13  1  0  0  0  0
 17  1  1  0  0  0  0
 18  2  1  0  0  0  0
 19 13  2  0  0  0  0
 19  3  1  0  0  0  0
 22 21  1  0  0  0  0
 23 21  1  0  0  0  0
 23 24  1  0  0  0  0
 25 22  1  0  0  0  0
 25 24  1  0  0  0  0
 25 20  1  1  0  0  0
M  END
>  <MODEL>
9

>  <REMARK>
 VINA RESULT:      -6.6      3.910      7.152
  Name = 
  2 active torsions:
  status: ('A' for Active; 'I' for Inactive)
    1  A    between atoms: N_1  and  C_17
    2  A    between atoms: N_1  and  C_24
                            x       y       z     vdW  Elec       q    Type
                         _______ _______ _______ _____ _____    ______ ____

>  <TORSDO>
F 2

$$$$
