=
 OpenBabel11042411513D

 35 38  0  0  1  0  0  0  0  0999 V2000
  195.5860  175.0330  137.2090 N   0  0  0  0  0  2  0  0  0  0  0  0
  189.2670  174.0010  135.1160 C   0  0  0  0  0  3  0  0  0  0  0  0
  192.6690  174.8170  135.3570 C   0  0  0  0  0  0  0  0  0  0  0  0
  187.0030  177.5610  137.5640 N   0  0  0  0  0  0  0  0  0  0  0  0
  191.7600  174.0310  134.8690 N   0  0  0  0  0  0  0  0  0  0  0  0
  193.9840  174.3660  135.6150 N   0  0  0  0  0  2  0  0  0  0  0  0
  188.1670  174.5990  135.7500 C   0  0  0  0  0  3  0  0  0  0  0  0
  189.6360  176.1860  136.8880 C   0  0  0  0  0  0  0  0  0  0  0  0
  190.7140  175.5650  136.2470 C   0  0  0  0  0  0  0  0  0  0  0  0
  189.8910  177.3250  137.8280 C   0  0  1  0  0  3  0  0  0  0  0  0
  194.3460  174.8380  136.9050 C   0  0  0  0  0  0  0  0  0  0  0  0
  193.0220  175.6280  137.8340 S   0  0  0  0  0  0  0  0  0  0  0  0
  187.8370  178.6290  137.0870 C   0  0  0  0  0  0  0  0  0  0  0  0
  188.3320  175.6980  136.6170 C   0  0  0  0  0  0  0  0  0  0  0  0
  187.1820  176.2330  137.2100 O   0  0  0  0  0  0  0  0  0  0  0  0
  189.3270  178.6170  137.2450 C   0  0  0  0  0  2  0  0  0  0  0  0
  187.3050  179.6520  136.5790 O   0  0  0  0  0  0  0  0  0  0  0  0
  185.7500  177.9080  138.2140 C   0  0  0  0  0  1  0  0  0  0  0  0
  190.5290  174.5280  135.3680 C   0  0  0  0  0  0  0  0  0  0  0  0
  192.1640  175.9050  136.2500 C   0  0  1  0  0  3  0  0  0  0  0  0
  189.4500  177.0460  139.2790 C   0  0  1  0  0  3  0  0  0  0  0  0
  190.5970  176.4580  140.0910 C   0  0  0  0  0  2  0  0  0  0  0  0
  191.7000  177.4850  140.2710 C   0  0  0  0  0  1  0  0  0  0  0  0
  188.9750  178.3280  139.9540 C   0  0  0  0  0  2  0  0  0  0  0  0
  189.1250  178.3230  142.3460 O   0  0  0  0  0  1  0  0  0  0  0  0
  188.2820  178.0210  141.2730 C   0  0  1  0  0  3  0  0  0  0  0  0
  186.9980  178.7810  141.3940 C   0  0  0  0  0  3  0  0  0  0  0  0
  185.9480  178.2960  142.0610 C   0  0  0  0  0  3  0  0  0  0  0  0
  184.6830  179.0840  142.1600 C   0  0  0  0  0  2  0  0  0  0  0  0
  183.9330  178.6840  143.3440 N   0  0  0  0  0  0  0  0  0  0  0  0
  182.5130  178.8550  143.0610 C   0  0  0  0  0  2  0  0  0  0  0  0
  181.7710  178.6240  144.2200 O   0  0  0  0  0  1  0  0  0  0  0  0
  184.3230  179.5210  144.4870 C   0  0  0  0  0  2  0  0  0  0  0  0
  186.2900  178.4660  145.5790 C   0  0  0  0  0  1  0  0  0  0  0  0
  184.8020  178.7190  145.6970 C   0  0  0  0  0  2  0  0  0  0  0  0
  2 19  2  0  0  0  0
  2  7  1  0  0  0  0
  3  6  1  0  0  0  0
  4 18  1  0  0  0  0
  5  3  2  0  0  0  0
  5 19  1  0  0  0  0
  6 11  1  0  0  0  0
  7 14  2  0  0  0  0
  8 10  1  0  0  0  0
  9 20  1  0  0  0  0
  9  8  2  0  0  0  0
 10 21  1  1  0  0  0
 11  1  2  0  0  0  0
 11 12  1  0  0  0  0
 13 16  1  0  0  0  0
 13  4  1  0  0  0  0
 14  8  1  0  0  0  0
 14 15  1  0  0  0  0
 15  4  1  0  0  0  0
 16 10  1  0  0  0  0
 17 13  2  0  0  0  0
 19  9  1  0  0  0  0
 20  3  1  6  0  0  0
 20 12  1  0  0  0  0
 21 24  1  1  0  0  0
 21 22  1  0  0  0  0
 22 23  1  0  0  0  0
 24 26  1  0  0  0  0
 26 27  1  0  0  0  0
 26 25  1  1  0  0  0
 27 28  2  0  0  0  0
 28 29  1  0  0  0  0
 29 30  1  0  0  0  0
 30 33  1  0  0  0  0
 31 30  1  0  0  0  0
 31 32  1  0  0  0  0
 33 35  1  0  0  0  0
 34 35  1  0  0  0  0
M  END
>  <MODEL>
1

>  <REMARK>
 VINA RESULT:      -6.6      0.000      0.000
  Name = 
  10 active torsions:
  status: ('A' for Active; 'I' for Inactive)
    1  A    between atoms: C_1  and  C_20
    2  A    between atoms: C_2  and  C_13
    3  A    between atoms: C_2  and  N_17
    4  A    between atoms: C_4  and  C_33
    5  A    between atoms: C_6  and  C_20
    6  A    between atoms: C_6  and  C_33
    7  A    between atoms: C_10  and  N_17
    8  A    between atoms: N_17  and  C_21
    9  A    between atoms: C_21  and  C_27
   10  A    between atoms: C_22  and  C_33
                            x       y       z     vdW  Elec       q    Type
                         _______ _______ _______ _____ _____    ______ ____

>  <TORSDO>
F 10

$$$$
=
 OpenBabel11042411513D

 35 38  0  0  1  0  0  0  0  0999 V2000
  189.5890  177.9060  139.3780 N   0  0  0  0  0  2  0  0  0  0  0  0
  184.3940  176.7070  135.2610 C   0  0  0  0  0  3  0  0  0  0  0  0
  187.3250  177.9170  136.7600 C   0  0  0  0  0  0  0  0  0  0  0  0
  180.7950  178.6940  137.8860 N   0  0  0  0  0  0  0  0  0  0  0  0
  186.7830  177.2300  135.8020 N   0  0  0  0  0  0  0  0  0  0  0  0
  188.6170  177.6220  137.2500 N   0  0  0  0  0  2  0  0  0  0  0  0
  183.0630  176.8410  135.6850 C   0  0  0  0  0  3  0  0  0  0  0  0
  183.7760  178.1130  137.6470 C   0  0  0  0  0  0  0  0  0  0  0  0
  185.0940  177.9560  137.2030 C   0  0  0  0  0  0  0  0  0  0  0  0
  183.5090  178.8500  138.9240 C   0  0  1  0  0  3  0  0  0  0  0  0
  188.5440  177.6380  138.6680 C   0  0  0  0  0  0  0  0  0  0  0  0
  186.8860  177.8030  139.3510 S   0  0  0  0  0  0  0  0  0  0  0  0
  181.4110  179.9830  138.0390 C   0  0  0  0  0  0  0  0  0  0  0  0
  182.7390  177.5540  136.8580 C   0  0  0  0  0  0  0  0  0  0  0  0
  181.3860  177.6380  137.2100 O   0  0  0  0  0  0  0  0  0  0  0  0
  182.7780  180.1560  138.6280 C   0  0  0  0  0  2  0  0  0  0  0  0
  180.7620  181.0200  137.7370 O   0  0  0  0  0  0  0  0  0  0  0  0
  179.3820  178.5680  138.2010 C   0  0  0  0  0  1  0  0  0  0  0  0
  185.3870  177.3010  136.0330 C   0  0  0  0  0  0  0  0  0  0  0  0
  186.3670  178.5010  137.7480 C   0  0  1  0  0  3  0  0  0  0  0  0
  182.8390  177.9880  140.0120 C   0  0  1  0  0  3  0  0  0  0  0  0
  183.0440  176.5040  139.7340 C   0  0  0  0  0  2  0  0  0  0  0  0
  181.7330  175.7530  139.8640 C   0  0  0  0  0  1  0  0  0  0  0  0
  183.4120  178.3150  141.3870 C   0  0  0  0  0  2  0  0  0  0  0  0
  181.1210  178.4340  142.0830 O   0  0  0  0  0  1  0  0  0  0  0  0
  182.3770  179.0230  142.2500 C   0  0  1  0  0  3  0  0  0  0  0  0
  182.7740  178.9950  143.6940 C   0  0  0  0  0  3  0  0  0  0  0  0
  184.0060  178.6580  144.0820 C   0  0  0  0  0  3  0  0  0  0  0  0
  184.3660  178.6410  145.5320 C   0  0  0  0  0  2  0  0  0  0  0  0
  185.6070  177.9050  145.7340 N   0  0  0  0  0  0  0  0  0  0  0  0
  186.3270  178.5230  146.8410 C   0  0  0  0  0  2  0  0  0  0  0  0
  185.6460  179.6650  147.2640 O   0  0  0  0  0  1  0  0  0  0  0  0
  186.4220  177.9590  144.5120 C   0  0  0  0  0  2  0  0  0  0  0  0
  188.1160  176.3850  143.6020 C   0  0  0  0  0  1  0  0  0  0  0  0
  187.8320  177.3960  144.6930 C   0  0  0  0  0  2  0  0  0  0  0  0
  2  7  2  0  0  0  0
  2 19  1  0  0  0  0
  3  6  1  0  0  0  0
  4 13  1  0  0  0  0
  4 18  1  0  0  0  0
  5 19  1  0  0  0  0
  5  3  2  0  0  0  0
  6 11  1  0  0  0  0
  7 14  1  0  0  0  0
  8 10  1  0  0  0  0
  9  8  1  0  0  0  0
  9 20  1  0  0  0  0
 10 21  1  1  0  0  0
 11 12  1  0  0  0  0
 11  1  2  0  0  0  0
 13 16  1  0  0  0  0
 14 15  1  0  0  0  0
 14  8  2  0  0  0  0
 15  4  1  0  0  0  0
 16 10  1  0  0  0  0
 17 13  2  0  0  0  0
 19  9  2  0  0  0  0
 20  3  1  6  0  0  0
 20 12  1  0  0  0  0
 21 22  1  6  0  0  0
 21 24  1  0  0  0  0
 22 23  1  0  0  0  0
 24 26  1  0  0  0  0
 26 25  1  1  0  0  0
 26 27  1  0  0  0  0
 27 28  2  0  0  0  0
 28 29  1  0  0  0  0
 29 30  1  0  0  0  0
 30 31  1  0  0  0  0
 31 32  1  0  0  0  0
 33 35  1  0  0  0  0
 33 30  1  0  0  0  0
 34 35  1  0  0  0  0
M  END
>  <MODEL>
2

>  <REMARK>
 VINA RESULT:      -6.5      3.943      6.049
  Name = 
  10 active torsions:
  status: ('A' for Active; 'I' for Inactive)
    1  A    between atoms: C_1  and  C_20
    2  A    between atoms: C_2  and  C_13
    3  A    between atoms: C_2  and  N_17
    4  A    between atoms: C_4  and  C_33
    5  A    between atoms: C_6  and  C_20
    6  A    between atoms: C_6  and  C_33
    7  A    between atoms: C_10  and  N_17
    8  A    between atoms: N_17  and  C_21
    9  A    between atoms: C_21  and  C_27
   10  A    between atoms: C_22  and  C_33
                            x       y       z     vdW  Elec       q    Type
                         _______ _______ _______ _____ _____    ______ ____

>  <TORSDO>
F 10

$$$$
=
 OpenBabel11042411513D

 35 38  0  0  1  0  0  0  0  0999 V2000
  195.8880  175.7010  136.4720 N   0  0  0  0  0  2  0  0  0  0  0  0
  189.8920  172.8590  135.3110 C   0  0  0  0  0  3  0  0  0  0  0  0
  193.0380  174.3820  135.0160 C   0  0  0  0  0  0  0  0  0  0  0  0
  186.9740  176.4320  136.8960 N   0  0  0  0  0  0  0  0  0  0  0  0
  192.3090  173.3220  134.8430 N   0  0  0  0  0  0  0  0  0  0  0  0
  194.4260  174.2980  135.2680 N   0  0  0  0  0  2  0  0  0  0  0  0
  188.7070  173.3760  135.8550 C   0  0  0  0  0  3  0  0  0  0  0  0
  189.8240  175.4840  136.3840 C   0  0  0  0  0  0  0  0  0  0  0  0
  190.9930  174.9390  135.8420 C   0  0  0  0  0  0  0  0  0  0  0  0
  189.8490  176.8700  136.9540 C   0  0  1  0  0  3  0  0  0  0  0  0
  194.7140  175.1800  136.3440 C   0  0  0  0  0  0  0  0  0  0  0  0
  193.2760  175.9160  137.1390 S   0  0  0  0  0  0  0  0  0  0  0  0
  187.5390  177.4670  136.0740 C   0  0  0  0  0  0  0  0  0  0  0  0
  188.6520  174.6860  136.3740 C   0  0  0  0  0  0  0  0  0  0  0  0
  187.4300  175.1230  136.9000 O   0  0  0  0  0  0  0  0  0  0  0  0
  188.9990  177.8020  136.0950 C   0  0  0  0  0  2  0  0  0  0  0  0
  186.7800  178.1730  135.3570 O   0  0  0  0  0  0  0  0  0  0  0  0
  185.6950  176.6870  137.5360 C   0  0  0  0  0  1  0  0  0  0  0  0
  191.0150  173.6800  135.2960 C   0  0  0  0  0  0  0  0  0  0  0  0
  192.3320  175.5520  135.6220 C   0  0  1  0  0  3  0  0  0  0  0  0
  189.5230  176.9320  138.4590 C   0  0  1  0  0  3  0  0  0  0  0  0
  190.5720  176.1850  139.2730 C   0  0  0  0  0  2  0  0  0  0  0  0
  191.5530  177.1610  139.8960 C   0  0  0  0  0  1  0  0  0  0  0  0
  189.4650  178.3780  138.9390 C   0  0  0  0  0  2  0  0  0  0  0  0
  187.1140  178.6290  139.3330 O   0  0  0  0  0  1  0  0  0  0  0  0
  188.3580  178.5620  139.9670 C   0  0  1  0  0  3  0  0  0  0  0  0
  188.3680  177.4510  140.9710 C   0  0  0  0  0  3  0  0  0  0  0  0
  188.4890  177.6820  142.2800 C   0  0  0  0  0  3  0  0  0  0  0  0
  188.4950  176.5470  143.2520 C   0  0  0  0  0  2  0  0  0  0  0  0
  188.8740  177.0220  144.5770 N   0  0  0  0  0  0  0  0  0  0  0  0
  187.6710  177.4980  145.2500 C   0  0  0  0  0  2  0  0  0  0  0  0
  187.9670  177.8130  146.5760 O   0  0  0  0  0  1  0  0  0  0  0  0
  189.8480  178.1150  144.4540 C   0  0  0  0  0  2  0  0  0  0  0  0
  191.2750  176.7960  146.0030 C   0  0  0  0  0  1  0  0  0  0  0  0
  191.2810  177.6970  144.7860 C   0  0  0  0  0  2  0  0  0  0  0  0
  2  7  1  0  0  0  0
  3  6  1  0  0  0  0
  4 15  1  0  0  0  0
  4 18  1  0  0  0  0
  5  3  2  0  0  0  0
  5 19  1  0  0  0  0
  6 11  1  0  0  0  0
  7 14  2  0  0  0  0
  8 10  1  0  0  0  0
  9  8  2  0  0  0  0
 10 21  1  1  0  0  0
 11  1  2  0  0  0  0
 11 12  1  0  0  0  0
 13 16  1  0  0  0  0
 13  4  1  0  0  0  0
 14  8  1  0  0  0  0
 14 15  1  0  0  0  0
 16 10  1  0  0  0  0
 17 13  2  0  0  0  0
 19  2  2  0  0  0  0
 19  9  1  0  0  0  0
 20  3  1  6  0  0  0
 20  9  1  0  0  0  0
 20 12  1  0  0  0  0
 21 24  1  1  0  0  0
 21 22  1  0  0  0  0
 22 23  1  0  0  0  0
 24 26  1  0  0  0  0
 26 25  1  6  0  0  0
 26 27  1  0  0  0  0
 27 28  2  0  0  0  0
 28 29  1  0  0  0  0
 29 30  1  0  0  0  0
 30 31  1  0  0  0  0
 31 32  1  0  0  0  0
 33 30  1  0  0  0  0
 33 35  1  0  0  0  0
 35 34  1  0  0  0  0
M  END
>  <MODEL>
3

>  <REMARK>
 VINA RESULT:      -6.4      2.401      2.868
  Name = 
  10 active torsions:
  status: ('A' for Active; 'I' for Inactive)
    1  A    between atoms: C_1  and  C_20
    2  A    between atoms: C_2  and  C_13
    3  A    between atoms: C_2  and  N_17
    4  A    between atoms: C_4  and  C_33
    5  A    between atoms: C_6  and  C_20
    6  A    between atoms: C_6  and  C_33
    7  A    between atoms: C_10  and  N_17
    8  A    between atoms: N_17  and  C_21
    9  A    between atoms: C_21  and  C_27
   10  A    between atoms: C_22  and  C_33
                            x       y       z     vdW  Elec       q    Type
                         _______ _______ _______ _____ _____    ______ ____

>  <TORSDO>
F 10

$$$$
=
 OpenBabel11042411513D

 35 38  0  0  1  0  0  0  0  0999 V2000
  185.1870  173.2890  137.1540 N   0  0  0  0  0  2  0  0  0  0  0  0
  180.8030  177.8330  134.8070 C   0  0  0  0  0  3  0  0  0  0  0  0
  183.6180  175.8260  135.3980 C   0  0  0  0  0  0  0  0  0  0  0  0
  180.6990  180.9010  138.5960 N   0  0  0  0  0  0  0  0  0  0  0  0
  182.6410  176.1420  134.6060 N   0  0  0  0  0  0  0  0  0  0  0  0
  184.1630  174.5220  135.4270 N   0  0  0  0  0  2  0  0  0  0  0  0
  180.2110  178.7930  135.6400 C   0  0  0  0  0  3  0  0  0  0  0  0
  181.8780  178.3710  137.3760 C   0  0  0  0  0  0  0  0  0  0  0  0
  182.4420  177.4130  136.5260 C   0  0  0  0  0  0  0  0  0  0  0  0
  182.4760  178.6020  138.7310 C   0  0  1  0  0  3  0  0  0  0  0  0
  184.2970  174.1510  136.7910 C   0  0  0  0  0  0  0  0  0  0  0  0
  183.5750  175.3000  137.9750 S   0  0  0  0  0  0  0  0  0  0  0  0
  182.1180  181.1190  138.6560 C   0  0  0  0  0  0  0  0  0  0  0  0
  180.7450  179.0860  136.9120 C   0  0  0  0  0  0  0  0  0  0  0  0
  180.0910  180.0570  137.6800 O   0  0  0  0  0  0  0  0  0  0  0  0
  183.0980  179.9940  138.7950 C   0  0  0  0  0  2  0  0  0  0  0  0
  182.5650  182.2970  138.6650 O   0  0  0  0  0  0  0  0  0  0  0  0
  179.8350  181.8110  139.3300 C   0  0  0  0  0  1  0  0  0  0  0  0
  181.9370  177.1770  135.2720 C   0  0  0  0  0  0  0  0  0  0  0  0
  183.6690  176.5850  136.6860 C   0  0  1  0  0  3  0  0  0  0  0  0
  181.5180  178.2880  139.8970 C   0  0  1  0  0  3  0  0  0  0  0  0
  180.7910  176.9700  139.6640 C   0  0  0  0  0  2  0  0  0  0  0  0
  179.2890  177.1740  139.7270 C   0  0  0  0  0  1  0  0  0  0  0  0
  182.2830  178.2020  141.2140 C   0  0  0  0  0  2  0  0  0  0  0  0
  180.4880  178.2350  142.8030 O   0  0  0  0  0  1  0  0  0  0  0  0
  181.5640  178.9780  142.3080 C   0  0  1  0  0  3  0  0  0  0  0  0
  182.5030  179.3310  143.4200 C   0  0  0  0  0  3  0  0  0  0  0  0
  183.6680  178.7000  143.5890 C   0  0  0  0  0  3  0  0  0  0  0  0
  184.5790  179.0810  144.7100 C   0  0  0  0  0  2  0  0  0  0  0  0
  185.4140  177.9460  145.0860 N   0  0  0  0  0  0  0  0  0  0  0  0
  185.8820  178.1600  146.4510 C   0  0  0  0  0  2  0  0  0  0  0  0
  185.4580  179.4100  146.9020 O   0  0  0  0  0  1  0  0  0  0  0  0
  186.5590  177.8470  144.1720 C   0  0  0  0  0  2  0  0  0  0  0  0
  188.8300  176.9040  143.8050 C   0  0  0  0  0  1  0  0  0  0  0  0
  187.8470  177.3810  144.8530 C   0  0  0  0  0  2  0  0  0  0  0  0
  2 19  2  0  0  0  0
  2  7  1  0  0  0  0
  3  6  1  0  0  0  0
  4 13  1  0  0  0  0
  4 18  1  0  0  0  0
  5 19  1  0  0  0  0
  5  3  2  0  0  0  0
  6 11  1  0  0  0  0
  7 14  2  0  0  0  0
  8 10  1  0  0  0  0
  9 20  1  0  0  0  0
  9  8  2  0  0  0  0
 10 16  1  0  0  0  0
 10 21  1  1  0  0  0
 11  1  2  0  0  0  0
 11 12  1  0  0  0  0
 13 17  2  0  0  0  0
 13 16  1  0  0  0  0
 14  8  1  0  0  0  0
 14 15  1  0  0  0  0
 15  4  1  0  0  0  0
 19  9  1  0  0  0  0
 20  3  1  6  0  0  0
 20 12  1  0  0  0  0
 21 22  1  6  0  0  0
 21 24  1  0  0  0  0
 22 23  1  0  0  0  0
 24 26  1  0  0  0  0
 26 25  1  1  0  0  0
 26 27  1  0  0  0  0
 27 28  2  0  0  0  0
 28 29  1  0  0  0  0
 29 30  1  0  0  0  0
 30 31  1  0  0  0  0
 31 32  1  0  0  0  0
 33 35  1  0  0  0  0
 33 30  1  0  0  0  0
 34 35  1  0  0  0  0
M  END
>  <MODEL>
4

>  <REMARK>
 VINA RESULT:      -6.3      5.602      7.646
  Name = 
  10 active torsions:
  status: ('A' for Active; 'I' for Inactive)
    1  A    between atoms: C_1  and  C_20
    2  A    between atoms: C_2  and  C_13
    3  A    between atoms: C_2  and  N_17
    4  A    between atoms: C_4  and  C_33
    5  A    between atoms: C_6  and  C_20
    6  A    between atoms: C_6  and  C_33
    7  A    between atoms: C_10  and  N_17
    8  A    between atoms: N_17  and  C_21
    9  A    between atoms: C_21  and  C_27
   10  A    between atoms: C_22  and  C_33
                            x       y       z     vdW  Elec       q    Type
                         _______ _______ _______ _____ _____    ______ ____

>  <TORSDO>
F 10

$$$$
=
 OpenBabel11042411513D

 35 38  0  0  1  0  0  0  0  0999 V2000
  178.9310  182.4170  140.1280 N   0  0  0  0  0  2  0  0  0  0  0  0
  181.4790  179.0830  134.8580 C   0  0  0  0  0  3  0  0  0  0  0  0
  179.3700  180.5520  137.2450 C   0  0  0  0  0  0  0  0  0  0  0  0
  183.4360  175.2640  137.1760 N   0  0  0  0  0  0  0  0  0  0  0  0
  179.8110  180.5440  136.0250 N   0  0  0  0  0  0  0  0  0  0  0  0
  178.9310  181.7410  137.8700 N   0  0  0  0  0  2  0  0  0  0  0  0
  182.3970  178.0340  135.0160 C   0  0  0  0  0  3  0  0  0  0  0  0
  181.8360  177.8480  137.3870 C   0  0  0  0  0  0  0  0  0  0  0  0
  180.9330  178.9010  137.2010 C   0  0  0  0  0  0  0  0  0  0  0  0
  181.9970  177.2440  138.7490 C   0  0  1  0  0  3  0  0  0  0  0  0
  179.5060  181.7720  139.1690 C   0  0  0  0  0  0  0  0  0  0  0  0
  180.7100  180.4770  139.5070 S   0  0  0  0  0  0  0  0  0  0  0  0
  182.2370  174.8720  137.8650 C   0  0  0  0  0  0  0  0  0  0  0  0
  182.5710  177.3970  136.2620 C   0  0  0  0  0  0  0  0  0  0  0  0
  183.5110  176.3610  136.3320 O   0  0  0  0  0  0  0  0  0  0  0  0
  181.4740  175.8110  138.7490 C   0  0  0  0  0  2  0  0  0  0  0  0
  181.8390  173.6780  137.7870 O   0  0  0  0  0  0  0  0  0  0  0  0
  184.5400  174.3200  137.1310 C   0  0  0  0  0  1  0  0  0  0  0  0
  180.7410  179.4760  135.9700 C   0  0  0  0  0  0  0  0  0  0  0  0
  179.9640  179.5190  138.1470 C   0  0  1  0  0  3  0  0  0  0  0  0
  183.4160  177.3940  139.3340 C   0  0  1  0  0  3  0  0  0  0  0  0
  184.0100  178.7510  138.9770 C   0  0  0  0  0  2  0  0  0  0  0  0
  185.3820  178.5820  138.3510 C   0  0  0  0  0  1  0  0  0  0  0  0
  183.3920  177.2520  140.8520 C   0  0  0  0  0  2  0  0  0  0  0  0
  181.9910  178.6410  142.2130 O   0  0  0  0  0  1  0  0  0  0  0  0
  183.2040  178.6060  141.5190 C   0  0  1  0  0  3  0  0  0  0  0  0
  184.3400  178.9090  142.4470 C   0  0  0  0  0  3  0  0  0  0  0  0
  185.2710  177.9990  142.7440 C   0  0  0  0  0  3  0  0  0  0  0  0
  186.3900  178.3370  143.6740 C   0  0  0  0  0  2  0  0  0  0  0  0
  186.0580  177.9220  145.0320 N   0  0  0  0  0  0  0  0  0  0  0  0
  185.4900  179.0690  145.7310 C   0  0  0  0  0  2  0  0  0  0  0  0
  184.1540  178.8140  146.0410 O   0  0  0  0  0  1  0  0  0  0  0  0
  187.2710  177.4640  145.7220 C   0  0  0  0  0  2  0  0  0  0  0  0
  189.7350  177.1390  145.6790 C   0  0  0  0  0  1  0  0  0  0  0  0
  188.5240  177.5000  144.8450 C   0  0  0  0  0  2  0  0  0  0  0  0
  2  7  2  0  0  0  0
  2 19  1  0  0  0  0
  3  6  1  0  0  0  0
  3 20  1  0  0  0  0
  4 13  1  0  0  0  0
  5  3  2  0  0  0  0
  6 11  1  0  0  0  0
  7 14  1  0  0  0  0
  8 10  1  0  0  0  0
  9  8  1  0  0  0  0
 10 16  1  0  0  0  0
 10 21  1  6  0  0  0
 11 12  1  0  0  0  0
 11  1  2  0  0  0  0
 13 16  1  0  0  0  0
 14 15  1  0  0  0  0
 14  8  2  0  0  0  0
 15  4  1  0  0  0  0
 17 13  2  0  0  0  0
 18  4  1  0  0  0  0
 19  5  1  0  0  0  0
 19  9  2  0  0  0  0
 20  9  1  6  0  0  0
 20 12  1  0  0  0  0
 21 22  1  1  0  0  0
 21 24  1  0  0  0  0
 23 22  1  0  0  0  0
 24 26  1  0  0  0  0
 26 25  1  1  0  0  0
 26 27  1  0  0  0  0
 27 28  2  0  0  0  0
 28 29  1  0  0  0  0
 29 30  1  0  0  0  0
 30 33  1  0  0  0  0
 30 31  1  0  0  0  0
 31 32  1  0  0  0  0
 35 34  1  0  0  0  0
 35 33  1  0  0  0  0
M  END
>  <MODEL>
5

>  <REMARK>
 VINA RESULT:      -6.2      5.799      8.837
  Name = 
  10 active torsions:
  status: ('A' for Active; 'I' for Inactive)
    1  A    between atoms: C_1  and  C_20
    2  A    between atoms: C_2  and  C_13
    3  A    between atoms: C_2  and  N_17
    4  A    between atoms: C_4  and  C_33
    5  A    between atoms: C_6  and  C_20
    6  A    between atoms: C_6  and  C_33
    7  A    between atoms: C_10  and  N_17
    8  A    between atoms: N_17  and  C_21
    9  A    between atoms: C_21  and  C_27
   10  A    between atoms: C_22  and  C_33
                            x       y       z     vdW  Elec       q    Type
                         _______ _______ _______ _____ _____    ______ ____

>  <TORSDO>
F 10

$$$$
=
 OpenBabel11042411513D

 35 38  0  0  1  0  0  0  0  0999 V2000
  187.7570  175.3570  136.7820 N   0  0  0  0  0  2  0  0  0  0  0  0
  181.4290  176.8670  135.0380 C   0  0  0  0  0  3  0  0  0  0  0  0
  184.9200  176.5960  135.2340 C   0  0  0  0  0  0  0  0  0  0  0  0
  180.2460  179.8230  138.7330 N   0  0  0  0  0  0  0  0  0  0  0  0
  183.8300  176.3060  134.5940 N   0  0  0  0  0  0  0  0  0  0  0  0
  186.0490  175.7450  135.2070 N   0  0  0  0  0  2  0  0  0  0  0  0
  180.5380  177.4800  135.9320 C   0  0  0  0  0  3  0  0  0  0  0  0
  182.3860  178.1120  137.4010 C   0  0  0  0  0  0  0  0  0  0  0  0
  183.2490  177.4860  136.4950 C   0  0  0  0  0  0  0  0  0  0  0  0
  182.9440  178.7380  138.6430 C   0  0  1  0  0  3  0  0  0  0  0  0
  186.5170  175.6230  136.5420 C   0  0  0  0  0  0  0  0  0  0  0  0
  185.4630  176.3670  137.7980 S   0  0  0  0  0  0  0  0  0  0  0  0
  181.3550  180.7230  138.5700 C   0  0  0  0  0  0  0  0  0  0  0  0
  181.0000  178.1200  137.1000 C   0  0  0  0  0  0  0  0  0  0  0  0
  180.0430  178.7050  137.9390 O   0  0  0  0  0  0  0  0  0  0  0  0
  182.7780  180.2540  138.5810 C   0  0  0  0  0  2  0  0  0  0  0  0
  181.1410  181.9620  138.4850 O   0  0  0  0  0  0  0  0  0  0  0  0
  179.1370  180.2470  139.5710 C   0  0  0  0  0  1  0  0  0  0  0  0
  182.7860  176.9110  135.3380 C   0  0  0  0  0  0  0  0  0  0  0  0
  184.7350  177.3980  136.4820 C   0  0  1  0  0  3  0  0  0  0  0  0
  182.4270  178.1030  139.9480 C   0  0  1  0  0  3  0  0  0  0  0  0
  182.6930  176.6030  139.9650 C   0  0  0  0  0  2  0  0  0  0  0  0
  181.3960  175.8320  139.8070 C   0  0  0  0  0  1  0  0  0  0  0  0
  183.1020  178.7360  141.1600 C   0  0  0  0  0  2  0  0  0  0  0  0
  185.2830  179.6260  140.7160 O   0  0  0  0  0  1  0  0  0  0  0  0
  184.6020  178.4810  141.1380 C   0  0  1  0  0  3  0  0  0  0  0  0
  185.0930  178.0550  142.4870 C   0  0  0  0  0  3  0  0  0  0  0  0
  186.3890  178.0750  142.8070 C   0  0  0  0  0  3  0  0  0  0  0  0
  186.8420  177.6420  144.1630 C   0  0  0  0  0  2  0  0  0  0  0  0
  188.2690  177.3450  144.1460 N   0  0  0  0  0  0  0  0  0  0  0  0
  188.4850  176.2090  143.2570 C   0  0  0  0  0  2  0  0  0  0  0  0
  189.8530  175.9830  143.1080 O   0  0  0  0  0  1  0  0  0  0  0  0
  188.7240  177.0140  145.5040 C   0  0  0  0  0  2  0  0  0  0  0  0
  188.0520  177.1790  147.8900 C   0  0  0  0  0  1  0  0  0  0  0  0
  188.1480  177.9340  146.5820 C   0  0  0  0  0  2  0  0  0  0  0  0
  2 19  2  0  0  0  0
  2  7  1  0  0  0  0
  4 18  1  0  0  0  0
  5  3  2  0  0  0  0
  5 19  1  0  0  0  0
  6  3  1  0  0  0  0
  6 11  1  0  0  0  0
  7 14  2  0  0  0  0
  8 10  1  0  0  0  0
  9  8  2  0  0  0  0
 10 21  1  1  0  0  0
 11  1  2  0  0  0  0
 11 12  1  0  0  0  0
 13 16  1  0  0  0  0
 13  4  1  0  0  0  0
 14  8  1  0  0  0  0
 14 15  1  0  0  0  0
 15  4  1  0  0  0  0
 16 10  1  0  0  0  0
 17 13  2  0  0  0  0
 19  9  1  0  0  0  0
 20  3  1  6  0  0  0
 20  9  1  0  0  0  0
 20 12  1  0  0  0  0
 21 22  1  6  0  0  0
 21 24  1  0  0  0  0
 23 22  1  0  0  0  0
 26 25  1  1  0  0  0
 26 24  1  0  0  0  0
 26 27  1  0  0  0  0
 27 28  2  0  0  0  0
 28 29  1  0  0  0  0
 30 29  1  0  0  0  0
 30 33  1  0  0  0  0
 31 30  1  0  0  0  0
 32 31  1  0  0  0  0
 33 35  1  0  0  0  0
 35 34  1  0  0  0  0
M  END
>  <MODEL>
6

>  <REMARK>
 VINA RESULT:      -6.2      4.273      6.893
  Name = 
  10 active torsions:
  status: ('A' for Active; 'I' for Inactive)
    1  A    between atoms: C_1  and  C_20
    2  A    between atoms: C_2  and  C_13
    3  A    between atoms: C_2  and  N_17
    4  A    between atoms: C_4  and  C_33
    5  A    between atoms: C_6  and  C_20
    6  A    between atoms: C_6  and  C_33
    7  A    between atoms: C_10  and  N_17
    8  A    between atoms: N_17  and  C_21
    9  A    between atoms: C_21  and  C_27
   10  A    between atoms: C_22  and  C_33
                            x       y       z     vdW  Elec       q    Type
                         _______ _______ _______ _____ _____    ______ ____

>  <TORSDO>
F 10

$$$$
=
 OpenBabel11042411513D

 35 38  0  0  1  0  0  0  0  0999 V2000
  189.1200  178.2320  142.3640 N   0  0  0  0  0  2  0  0  0  0  0  0
  182.6190  179.2500  143.8040 C   0  0  0  0  0  3  0  0  0  0  0  0
  185.9180  178.0670  143.6680 C   0  0  0  0  0  0  0  0  0  0  0  0
  180.6040  177.6650  139.6540 N   0  0  0  0  0  0  0  0  0  0  0  0
  184.9980  178.6830  144.3450 N   0  0  0  0  0  0  0  0  0  0  0  0
  187.2910  178.3540  143.8440 N   0  0  0  0  0  2  0  0  0  0  0  0
  181.6240  179.2100  142.8160 C   0  0  0  0  0  3  0  0  0  0  0  0
  183.1530  178.1000  141.2660 C   0  0  0  0  0  0  0  0  0  0  0  0
  184.1270  178.1610  142.2680 C   0  0  0  0  0  0  0  0  0  0  0  0
  183.4950  177.4970  139.9370 C   0  0  1  0  0  3  0  0  0  0  0  0
  187.8660  178.4740  142.5510 C   0  0  0  0  0  0  0  0  0  0  0  0
  186.6950  178.4410  141.1830 S   0  0  0  0  0  0  0  0  0  0  0  0
  181.2310  176.3720  139.6640 C   0  0  0  0  0  0  0  0  0  0  0  0
  181.8680  178.6240  141.5570 C   0  0  0  0  0  0  0  0  0  0  0  0
  180.8200  178.6290  140.6270 O   0  0  0  0  0  0  0  0  0  0  0  0
  182.7180  176.2000  139.7380 C   0  0  0  0  0  2  0  0  0  0  0  0
  180.5220  175.3380  139.5360 O   0  0  0  0  0  0  0  0  0  0  0  0
  179.4840  177.8770  138.7530 C   0  0  0  0  0  1  0  0  0  0  0  0
  183.8570  178.6910  143.5050 C   0  0  0  0  0  0  0  0  0  0  0  0
  185.5130  177.6180  142.3010 C   0  0  1  0  0  3  0  0  0  0  0  0
  183.3830  178.4840  138.7580 C   0  0  1  0  0  3  0  0  0  0  0  0
  183.4490  179.9250  139.2470 C   0  0  0  0  0  2  0  0  0  0  0  0
  182.3740  180.7620  138.5780 C   0  0  0  0  0  1  0  0  0  0  0  0
  184.5070  178.2530  137.7540 C   0  0  0  0  0  2  0  0  0  0  0  0
  183.3990  177.4080  135.8040 O   0  0  0  0  0  1  0  0  0  0  0  0
  184.2120  177.0430  136.8800 C   0  0  1  0  0  3  0  0  0  0  0  0
  185.4790  176.4190  136.3820 C   0  0  0  0  0  3  0  0  0  0  0  0
  186.4460  176.0240  137.2140 C   0  0  0  0  0  3  0  0  0  0  0  0
  187.6980  175.4060  136.6810 C   0  0  0  0  0  2  0  0  0  0  0  0
  188.8380  176.2760  136.9390 N   0  0  0  0  0  0  0  0  0  0  0  0
  190.0550  175.4860  136.7910 C   0  0  0  0  0  2  0  0  0  0  0  0
  190.3830  174.8960  138.0110 O   0  0  0  0  0  1  0  0  0  0  0  0
  188.7520  176.8170  138.3020 C   0  0  0  0  0  2  0  0  0  0  0  0
  188.9180  179.0320  137.1870 C   0  0  0  0  0  1  0  0  0  0  0  0
  189.2840  178.2450  138.4280 C   0  0  0  0  0  2  0  0  0  0  0  0
  1 11  2  0  0  0  0
  3  6  1  0  0  0  0
  3  5  2  0  0  0  0
  4 13  1  0  0  0  0
  4 15  1  0  0  0  0
  7  2  2  0  0  0  0
  8 14  2  0  0  0  0
  8  9  1  0  0  0  0
  9 20  1  0  0  0  0
  9 19  2  0  0  0  0
 10 21  1  6  0  0  0
 10  8  1  0  0  0  0
 11  6  1  0  0  0  0
 12 11  1  0  0  0  0
 13 16  1  0  0  0  0
 14  7  1  0  0  0  0
 15 14  1  0  0  0  0
 16 10  1  0  0  0  0
 17 13  2  0  0  0  0
 18  4  1  0  0  0  0
 19  2  1  0  0  0  0
 19  5  1  0  0  0  0
 20 12  1  6  0  0  0
 20  3  1  0  0  0  0
 21 24  1  6  0  0  0
 21 22  1  0  0  0  0
 23 22  1  0  0  0  0
 26 25  1  6  0  0  0
 26 24  1  0  0  0  0
 27 26  1  0  0  0  0
 27 28  2  0  0  0  0
 29 30  1  0  0  0  0
 29 28  1  0  0  0  0
 30 33  1  0  0  0  0
 31 30  1  0  0  0  0
 31 32  1  0  0  0  0
 33 35  1  0  0  0  0
 34 35  1  0  0  0  0
M  END
>  <MODEL>
7

>  <REMARK>
 VINA RESULT:      -6.2      3.187      8.758
  Name = 
  10 active torsions:
  status: ('A' for Active; 'I' for Inactive)
    1  A    between atoms: C_1  and  C_20
    2  A    between atoms: C_2  and  C_13
    3  A    between atoms: C_2  and  N_17
    4  A    between atoms: C_4  and  C_33
    5  A    between atoms: C_6  and  C_20
    6  A    between atoms: C_6  and  C_33
    7  A    between atoms: C_10  and  N_17
    8  A    between atoms: N_17  and  C_21
    9  A    between atoms: C_21  and  C_27
   10  A    between atoms: C_22  and  C_33
                            x       y       z     vdW  Elec       q    Type
                         _______ _______ _______ _____ _____    ______ ____

>  <TORSDO>
F 10

$$$$
=
 OpenBabel11042411513D

 35 38  0  0  1  0  0  0  0  0999 V2000
  181.9860  184.8930  137.6800 N   0  0  0  0  0  2  0  0  0  0  0  0
  179.1920  179.0090  135.9620 C   0  0  0  0  0  3  0  0  0  0  0  0
  179.7860  182.3270  136.9320 C   0  0  0  0  0  0  0  0  0  0  0  0
  180.3240  176.3820  139.9130 N   0  0  0  0  0  0  0  0  0  0  0  0
  179.3560  181.5080  136.0220 N   0  0  0  0  0  0  0  0  0  0  0  0
  180.3550  183.5770  136.6010 N   0  0  0  0  0  2  0  0  0  0  0  0
  179.4780  177.8210  136.6510 C   0  0  0  0  0  3  0  0  0  0  0  0
  180.4320  179.0860  138.5120 C   0  0  0  0  0  0  0  0  0  0  0  0
  180.1420  180.2530  137.7980 C   0  0  0  0  0  0  0  0  0  0  0  0
  181.1050  179.1840  139.8480 C   0  0  1  0  0  3  0  0  0  0  0  0
  181.5380  183.7210  137.3750 C   0  0  0  0  0  0  0  0  0  0  0  0
  182.0240  182.2630  138.3130 S   0  0  0  0  0  0  0  0  0  0  0  0
  179.7510  177.2890  140.8690 C   0  0  0  0  0  0  0  0  0  0  0  0
  180.0760  177.8440  137.9280 C   0  0  0  0  0  0  0  0  0  0  0  0
  180.3290  176.6120  138.5460 O   0  0  0  0  0  0  0  0  0  0  0  0
  180.1490  178.7320  140.9470 C   0  0  0  0  0  2  0  0  0  0  0  0
  178.9350  176.8530  141.7240 O   0  0  0  0  0  0  0  0  0  0  0  0
  180.6590  175.0400  140.3570 C   0  0  0  0  0  1  0  0  0  0  0  0
  179.5150  180.2130  136.5770 C   0  0  0  0  0  0  0  0  0  0  0  0
  180.3010  181.6830  138.1800 C   0  0  1  0  0  3  0  0  0  0  0  0
  182.4880  178.5060  139.9010 C   0  0  1  0  0  3  0  0  0  0  0  0
  183.3200  178.8730  138.6790 C   0  0  0  0  0  2  0  0  0  0  0  0
  183.7850  177.6210  137.9580 C   0  0  0  0  0  1  0  0  0  0  0  0
  183.2460  178.9250  141.1560 C   0  0  0  0  0  2  0  0  0  0  0  0
  185.4590  179.7720  140.7950 O   0  0  0  0  0  1  0  0  0  0  0  0
  184.7280  178.6040  141.0250 C   0  0  1  0  0  3  0  0  0  0  0  0
  185.2350  177.9090  142.2510 C   0  0  0  0  0  3  0  0  0  0  0  0
  186.5370  177.8520  142.5430 C   0  0  0  0  0  3  0  0  0  0  0  0
  187.0060  177.1490  143.7760 C   0  0  0  0  0  2  0  0  0  0  0  0
  186.8390  178.0110  144.9400 N   0  0  0  0  0  0  0  0  0  0  0  0
  188.0700  177.9630  145.7200 C   0  0  0  0  0  2  0  0  0  0  0  0
  187.8850  177.1540  146.8410 O   0  0  0  0  0  1  0  0  0  0  0  0
  185.7100  177.5370  145.7520 C   0  0  0  0  0  2  0  0  0  0  0  0
  183.7580  178.9330  145.1080 C   0  0  0  0  0  1  0  0  0  0  0  0
  184.7680  178.6550  146.2000 C   0  0  0  0  0  2  0  0  0  0  0  0
  2 19  2  0  0  0  0
  2  7  1  0  0  0  0
  4 18  1  0  0  0  0
  4 13  1  0  0  0  0
  5 19  1  0  0  0  0
  5  3  2  0  0  0  0
  6  3  1  0  0  0  0
  6 11  1  0  0  0  0
  7 14  2  0  0  0  0
  8 10  1  0  0  0  0
  9 20  1  0  0  0  0
  9  8  2  0  0  0  0
 10 21  1  6  0  0  0
 10 16  1  0  0  0  0
 11  1  2  0  0  0  0
 11 12  1  0  0  0  0
 13 16  1  0  0  0  0
 13 17  2  0  0  0  0
 14  8  1  0  0  0  0
 14 15  1  0  0  0  0
 15  4  1  0  0  0  0
 19  9  1  0  0  0  0
 20  3  1  6  0  0  0
 20 12  1  0  0  0  0
 21 22  1  6  0  0  0
 21 24  1  0  0  0  0
 23 22  1  0  0  0  0
 26 25  1  1  0  0  0
 26 24  1  0  0  0  0
 26 27  1  0  0  0  0
 27 28  2  0  0  0  0
 28 29  1  0  0  0  0
 29 30  1  0  0  0  0
 30 31  1  0  0  0  0
 30 33  1  0  0  0  0
 31 32  1  0  0  0  0
 33 35  1  0  0  0  0
 34 35  1  0  0  0  0
M  END
>  <MODEL>
8

>  <REMARK>
 VINA RESULT:      -6.1      6.502      9.461
  Name = 
  10 active torsions:
  status: ('A' for Active; 'I' for Inactive)
    1  A    between atoms: C_1  and  C_20
    2  A    between atoms: C_2  and  C_13
    3  A    between atoms: C_2  and  N_17
    4  A    between atoms: C_4  and  C_33
    5  A    between atoms: C_6  and  C_20
    6  A    between atoms: C_6  and  C_33
    7  A    between atoms: C_10  and  N_17
    8  A    between atoms: N_17  and  C_21
    9  A    between atoms: C_21  and  C_27
   10  A    between atoms: C_22  and  C_33
                            x       y       z     vdW  Elec       q    Type
                         _______ _______ _______ _____ _____    ______ ____

>  <TORSDO>
F 10

$$$$
=
 OpenBabel11042411513D

 35 38  0  0  1  0  0  0  0  0999 V2000
  189.1280  177.8840  137.3450 N   0  0  0  0  0  2  0  0  0  0  0  0
  184.3500  173.4400  135.6760 C   0  0  0  0  0  3  0  0  0  0  0  0
  187.0060  175.7300  135.6610 C   0  0  0  0  0  0  0  0  0  0  0  0
  180.3890  176.2010  136.3640 N   0  0  0  0  0  0  0  0  0  0  0  0
  186.6130  174.5020  135.5150 N   0  0  0  0  0  0  0  0  0  0  0  0
  188.3040  176.0460  136.1230 N   0  0  0  0  0  2  0  0  0  0  0  0
  182.9960  173.6570  135.9730 C   0  0  0  0  0  3  0  0  0  0  0  0
  183.4300  176.0250  136.3970 C   0  0  0  0  0  0  0  0  0  0  0  0
  184.7750  175.7760  136.1030 C   0  0  0  0  0  0  0  0  0  0  0  0
  183.0020  177.4070  136.7890 C   0  0  1  0  0  3  0  0  0  0  0  0
  188.1660  177.0560  137.1120 C   0  0  0  0  0  0  0  0  0  0  0  0
  186.4720  177.4360  137.5910 S   0  0  0  0  0  0  0  0  0  0  0  0
  180.8060  177.2820  135.5130 C   0  0  0  0  0  0  0  0  0  0  0  0
  182.5200  174.9410  136.3130 C   0  0  0  0  0  0  0  0  0  0  0  0
  181.1540  175.0700  136.5970 O   0  0  0  0  0  0  0  0  0  0  0  0
  182.1060  178.0010  135.7070 C   0  0  0  0  0  2  0  0  0  0  0  0
  180.0290  177.6960  134.6120 O   0  0  0  0  0  0  0  0  0  0  0  0
  178.9950  176.1510  136.7740 C   0  0  0  0  0  1  0  0  0  0  0  0
  185.2110  174.5300  135.7260 C   0  0  0  0  0  0  0  0  0  0  0  0
  185.9310  176.7090  136.0090 C   0  0  1  0  0  3  0  0  0  0  0  0
  182.4140  177.4970  138.2110 C   0  0  1  0  0  3  0  0  0  0  0  0
  183.0290  176.4410  139.1210 C   0  0  0  0  0  2  0  0  0  0  0  0
  181.9440  175.6900  139.8700 C   0  0  0  0  0  1  0  0  0  0  0  0
  182.6690  178.8750  138.8130 C   0  0  0  0  0  2  0  0  0  0  0  0
  184.6990  179.9410  139.5130 O   0  0  0  0  0  1  0  0  0  0  0  0
  183.8690  178.8420  139.7490 C   0  0  1  0  0  3  0  0  0  0  0  0
  183.4310  178.8230  141.1810 C   0  0  0  0  0  3  0  0  0  0  0  0
  184.2940  178.6300  142.1820 C   0  0  0  0  0  3  0  0  0  0  0  0
  183.8200  178.6170  143.5980 C   0  0  0  0  0  2  0  0  0  0  0  0
  184.8770  178.1340  144.4780 N   0  0  0  0  0  0  0  0  0  0  0  0
  184.9760  179.0460  145.6120 C   0  0  0  0  0  2  0  0  0  0  0  0
  184.5790  178.3910  146.7780 O   0  0  0  0  0  1  0  0  0  0  0  0
  186.1520  178.0980  143.7490 C   0  0  0  0  0  2  0  0  0  0  0  0
  188.5440  177.5550  144.1520 C   0  0  0  0  0  1  0  0  0  0  0  0
  187.1250  177.0400  144.2730 C   0  0  0  0  0  2  0  0  0  0  0  0
  2 19  2  0  0  0  0
  2  7  1  0  0  0  0
  3  6  1  0  0  0  0
  4 15  1  0  0  0  0
  4 18  1  0  0  0  0
  5  3  2  0  0  0  0
  5 19  1  0  0  0  0
  6 11  1  0  0  0  0
  7 14  2  0  0  0  0
  8 10  1  0  0  0  0
  9  8  2  0  0  0  0
 10 21  1  1  0  0  0
 11  1  2  0  0  0  0
 11 12  1  0  0  0  0
 13 16  1  0  0  0  0
 13  4  1  0  0  0  0
 14  8  1  0  0  0  0
 14 15  1  0  0  0  0
 16 10  1  0  0  0  0
 17 13  2  0  0  0  0
 19  9  1  0  0  0  0
 20  3  1  1  0  0  0
 20  9  1  0  0  0  0
 20 12  1  0  0  0  0
 21 24  1  1  0  0  0
 21 22  1  0  0  0  0
 22 23  1  0  0  0  0
 24 26  1  0  0  0  0
 26 25  1  1  0  0  0
 26 27  1  0  0  0  0
 27 28  2  0  0  0  0
 28 29  1  0  0  0  0
 29 30  1  0  0  0  0
 30 31  1  0  0  0  0
 31 32  1  0  0  0  0
 33 35  1  0  0  0  0
 33 30  1  0  0  0  0
 34 35  1  0  0  0  0
M  END
>  <MODEL>
9

>  <REMARK>
 VINA RESULT:      -6.0      3.960      5.835
  Name = 
  10 active torsions:
  status: ('A' for Active; 'I' for Inactive)
    1  A    between atoms: C_1  and  C_20
    2  A    between atoms: C_2  and  C_13
    3  A    between atoms: C_2  and  N_17
    4  A    between atoms: C_4  and  C_33
    5  A    between atoms: C_6  and  C_20
    6  A    between atoms: C_6  and  C_33
    7  A    between atoms: C_10  and  N_17
    8  A    between atoms: N_17  and  C_21
    9  A    between atoms: C_21  and  C_27
   10  A    between atoms: C_22  and  C_33
                            x       y       z     vdW  Elec       q    Type
                         _______ _______ _______ _____ _____    ______ ____

>  <TORSDO>
F 10

$$$$
