=
 OpenBabel11032420223D

 53 59  0  0  1  0  0  0  0  0999 V2000
  181.5810  177.4820  139.7120 C   0  0  1  0  0  3  0  0  0  0  0  0
  183.3650  178.7220  144.2740 C   0  0  0  0  0  2  0  0  0  0  0  0
  181.8610  178.9820  139.6050 C   0  0  1  0  0  3  0  0  0  0  0  0
  180.6470  178.8930  141.8030 C   0  0  2  0  0  3  0  0  0  0  0  0
  182.8420  179.1810  142.9260 C   0  0  2  0  0  3  0  0  0  0  0  0
  186.6570  178.6120  143.6760 C   0  0  0  0  0  2  0  0  0  0  0  0
  181.3480  179.5040  143.0160 C   0  0  0  0  0  2  0  0  0  0  0  0
  184.3680  177.8550  141.2780 C   0  0  0  0  0  2  0  0  0  0  0  0
  184.5710  179.3730  144.5500 O   0  0  0  0  0  0  0  0  0  0  0  0
  179.8000  177.8760  142.2450 O   0  0  0  0  0  1  0  0  0  0  0  0
  185.5240  178.3570  144.6640 C   0  0  2  0  0  3  0  0  0  0  0  0
  185.2910  178.8100  141.7160 O   0  0  0  0  0  0  0  0  0  0  0  0
  182.9760  178.0780  141.8890 C   0  0  2  0  0  3  0  0  0  0  0  0
  181.7780  178.3080  140.9790 C   0  0  1  0  0  0  0  0  0  0  0  0
  186.3170  178.0640  142.2990 C   0  0  0  0  0  2  0  0  0  0  0  0
  183.2240  179.1910  139.0430 C   0  0  0  0  0  3  0  0  0  0  0  0
  183.7560  178.2890  138.2320 C   0  0  0  0  0  3  0  0  0  0  0  0
  185.0840  178.5120  137.6750 C   0  0  0  0  0  3  0  0  0  0  0  0
  185.6810  177.5550  136.9820 C   0  0  0  0  0  3  0  0  0  0  0  0
  187.0320  177.7890  136.4080 C   0  0  0  0  0  2  0  0  0  0  0  0
  187.8730  178.5750  137.3950 C   0  0  0  0  0  2  0  0  0  0  0  0
  189.1960  178.0660  139.5110 C   0  0  0  0  0  2  0  0  0  0  0  0
  188.2440  177.0480  139.2740 O   0  0  0  0  0  0  0  0  0  0  0  0
  188.8190  177.6560  138.1490 C   0  0  1  0  0  0  0  0  0  0  0  0
  191.5540  176.8530  137.8690 O   0  0  0  0  0  1  0  0  0  0  0  0
  189.9970  176.5860  137.2650 P   0  0  0  0  0  0  0  0  0  0  0  0
  189.6280  175.1330  137.4600 O   0  0  0  0  0  1  0  0  0  0  0  0
  189.9680  176.9510  135.6140 O   0  0  0  0  0  0  0  0  0  0  0  0
  180.1150  177.2130  139.4000 C   0  0  0  0  0  2  0  0  0  0  0  0
  179.8740  174.7620  138.8100 C   0  0  0  0  0  0  0  0  0  0  0  0
  179.8990  174.4400  140.0310 O   0  0  0  0  0  0  0  0  0  0  0  0
  179.9970  176.1360  138.4300 N   0  0  0  0  0  2  0  0  0  0  0  0
  179.7250  173.7200  137.7790 C   0  0  0  0  0  0  0  0  0  0  0  0
  179.2550  170.4930  134.5940 Cl  0  0  0  0  0  0  0  0  0  0  0  0
  178.9840  173.0320  135.5670 C   0  0  0  0  0  3  0  0  0  0  0  0
  179.4340  171.7330  135.8180 C   0  0  0  0  0  0  0  0  0  0  0  0
  179.1300  174.0230  136.5440 C   0  0  0  0  0  3  0  0  0  0  0  0
  180.0250  171.4220  137.0460 C   0  0  0  0  0  3  0  0  0  0  0  0
  180.1680  172.4110  138.0240 C   0  0  0  0  0  3  0  0  0  0  0  0
  186.0700  178.3500  146.0810 C   0  0  0  0  0  2  0  0  0  0  0  0
  186.9290  177.2630  146.2600 O   0  0  0  0  0  0  0  0  0  0  0  0
  187.9400  176.7450  148.7210 C   0  0  0  0  0  1  0  0  0  0  0  0
  189.4350  178.7340  148.3880 C   0  0  0  0  0  1  0  0  0  0  0  0
  190.8320  175.9370  147.5370 O   0  0  0  0  0  0  0  0  0  0  0  0
  188.8270  177.5030  147.7390 C   0  0  0  0  0  0  0  0  0  0  0  0
  189.8920  176.6040  147.1370 C   0  0  0  0  0  0  0  0  0  0  0  0
  188.2000  177.8310  146.4050 C   0  0  1  0  0  3  0  0  0  0  0  0
  189.2270  176.9180  145.7990 C   0  0  1  0  0  3  0  0  0  0  0  0
  190.1330  177.6600  144.7970 C   0  0  0  0  0  0  0  0  0  0  0  0
  189.8770  177.2680  143.3560 C   0  0  0  0  0  2  0  0  0  0  0  0
  191.5650  177.1640  144.6900 C   0  0  0  0  0  2  0  0  0  0  0  0
  191.3120  176.7820  143.2400 C   0  0  0  0  0  2  0  0  0  0  0  0
  190.0800  179.0330  144.9570 F   0  0  0  0  0  0  0  0  0  0  0  0
  1 29  1  1  0  0  0
  1 14  1  0  0  0  0
  2  9  1  0  0  0  0
  3 16  1  6  0  0  0
  3  1  1  0  0  0  0
  3 14  1  0  0  0  0
  4 10  1  1  0  0  0
  4  7  1  0  0  0  0
  5  7  1  1  0  0  0
  5  2  1  0  0  0  0
  6 11  1  0  0  0  0
  8 12  1  0  0  0  0
  9 11  1  0  0  0  0
 11 40  1  1  0  0  0
 12 15  1  0  0  0  0
 13  8  1  6  0  0  0
 13  5  1  0  0  0  0
 14  4  1  0  0  0  0
 14 13  1  0  0  0  0
 15  6  1  0  0  0  0
 17 16  2  0  0  0  0
 18 17  1  0  0  0  0
 19 18  2  0  0  0  0
 20 19  1  0  0  0  0
 20 21  1  0  0  0  0
 21 24  1  0  0  0  0
 23 22  1  0  0  0  0
 24 23  1  0  0  0  0
 24 22  1  0  0  0  0
 26 27  1  0  0  0  0
 26 25  1  0  0  0  0
 26 24  1  0  0  0  0
 28 26  2  0  0  0  0
 30 31  2  0  0  0  0
 32 30  1  0  0  0  0
 32 29  1  0  0  0  0
 33 39  1  0  0  0  0
 33 30  1  0  0  0  0
 34 36  1  0  0  0  0
 35 36  2  0  0  0  0
 35 37  1  0  0  0  0
 36 38  1  0  0  0  0
 37 33  2  0  0  0  0
 38 39  2  0  0  0  0
 40 41  1  0  0  0  0
 41 47  1  0  0  0  0
 45 43  1  0  0  0  0
 45 42  1  0  0  0  0
 46 44  2  0  0  0  0
 46 45  1  0  0  0  0
 47 45  1  0  0  0  0
 48 47  1  0  0  0  0
 48 46  1  0  0  0  0
 49 53  1  0  0  0  0
 49 48  1  0  0  0  0
 50 49  1  0  0  0  0
 51 49  1  0  0  0  0
 52 50  1  0  0  0  0
 52 51  1  0  0  0  0
M  END
>  <MODEL>
1

>  <REMARK>
 VINA RESULT:      -8.0      0.000      0.000
  Name = 
  13 active torsions:
  status: ('A' for Active; 'I' for Inactive)
    1  A    between atoms: C_3  and  C_17
    2  A    between atoms: C_4  and  C_10
    3  A    between atoms: C_5  and  C_26
    4  A    between atoms: C_6  and  C_53
    5  A    between atoms: P_8  and  C_48
    6  A    between atoms: C_14  and  C_33
    7  A    between atoms: C_18  and  C_50
    8  A    between atoms: C_26  and  N_43
    9  A    between atoms: C_30  and  C_37
   10  A    between atoms: C_30  and  O_52
   11  A    between atoms: C_47  and  C_48
   12  A    between atoms: C_47  and  C_50
   13  A    between atoms: C_49  and  O_52
                            x       y       z     vdW  Elec       q    Type
                         _______ _______ _______ _____ _____    ______ ____

>  <TORSDO>
F 13

$$$$
=
 OpenBabel11032420223D

 53 59  0  0  1  0  0  0  0  0999 V2000
  187.4750  178.1370  138.0540 C   0  0  1  0  0  3  0  0  0  0  0  0
  190.7290  174.8210  136.0660 C   0  0  0  0  0  2  0  0  0  0  0  0
  187.4690  176.9720  139.0460 C   0  0  1  0  0  3  0  0  0  0  0  0
  187.2590  175.7310  136.8710 C   0  0  2  0  0  3  0  0  0  0  0  0
  189.6520  175.1130  137.0940 C   0  0  2  0  0  3  0  0  0  0  0  0
  193.4890  175.5800  137.8040 C   0  0  0  0  0  2  0  0  0  0  0  0
  188.2880  174.6380  136.5850 C   0  0  0  0  0  2  0  0  0  0  0  0
  190.5700  177.2700  138.2370 C   0  0  0  0  0  2  0  0  0  0  0  0
  191.8370  174.2550  136.7030 O   0  0  0  0  0  0  0  0  0  0  0  0
  186.8150  176.2530  135.6550 O   0  0  0  0  0  1  0  0  0  0  0  0
  192.8930  175.1400  136.4710 C   0  0  2  0  0  3  0  0  0  0  0  0
  191.4420  176.3320  138.8000 O   0  0  0  0  0  0  0  0  0  0  0  0
  189.5200  176.6080  137.3320 C   0  0  2  0  0  3  0  0  0  0  0  0
  188.0390  176.7840  137.6350 C   0  0  1  0  0  0  0  0  0  0  0  0
  192.7110  176.7470  138.3940 C   0  0  0  0  0  2  0  0  0  0  0  0
  188.4490  177.2440  140.1330 C   0  0  0  0  0  3  0  0  0  0  0  0
  188.1970  178.1740  141.0410 C   0  0  0  0  0  3  0  0  0  0  0  0
  189.1560  178.4200  142.1100 C   0  0  0  0  0  3  0  0  0  0  0  0
  189.9560  177.4490  142.5200 C   0  0  0  0  0  3  0  0  0  0  0  0
  190.9390  177.7070  143.6050 C   0  0  0  0  0  2  0  0  0  0  0  0
  190.3020  178.5790  144.6690 C   0  0  0  0  0  2  0  0  0  0  0  0
  188.0720  177.9010  145.6960 C   0  0  0  0  0  2  0  0  0  0  0  0
  188.6840  176.7860  145.0810 O   0  0  0  0  0  0  0  0  0  0  0  0
  189.5330  177.7330  145.6700 C   0  0  1  0  0  0  0  0  0  0  0  0
  189.6910  175.6340  147.6130 O   0  0  0  0  0  1  0  0  0  0  0  0
  190.3150  177.1540  147.2100 P   0  0  0  0  0  0  0  0  0  0  0  0
  191.8120  177.0470  147.0250 O   0  0  0  0  0  0  0  0  0  0  0  0
  189.9840  178.2440  148.4600 O   0  0  0  0  0  1  0  0  0  0  0  0
  186.0630  178.3780  137.5400 C   0  0  0  0  0  2  0  0  0  0  0  0
  184.3600  179.3140  139.1640 C   0  0  0  0  0  0  0  0  0  0  0  0
  184.5560  180.4840  138.7320 O   0  0  0  0  0  0  0  0  0  0  0  0
  185.1000  178.2170  138.6180 N   0  0  0  0  0  2  0  0  0  0  0  0
  183.3760  179.0810  140.2350 C   0  0  0  0  0  0  0  0  0  0  0  0
  180.3280  178.3480  143.5440 Cl  0  0  0  0  0  0  0  0  0  0  0  0
  182.8660  178.5890  142.5620 C   0  0  0  0  0  3  0  0  0  0  0  0
  181.4990  178.6280  142.2730 C   0  0  0  0  0  0  0  0  0  0  0  0
  183.8020  178.8170  141.5460 C   0  0  0  0  0  3  0  0  0  0  0  0
  181.0670  178.8880  140.9690 C   0  0  0  0  0  3  0  0  0  0  0  0
  182.0010  179.1110  139.9540 C   0  0  0  0  0  3  0  0  0  0  0  0
  193.9530  174.4370  135.6420 C   0  0  0  0  0  2  0  0  0  0  0  0
  193.8110  173.0520  135.7560 O   0  0  0  0  0  0  0  0  0  0  0  0
  193.8130  170.3580  136.0610 C   0  0  0  0  0  1  0  0  0  0  0  0
  195.3970  170.7020  137.9780 C   0  0  0  0  0  1  0  0  0  0  0  0
  196.9060  170.1000  135.1730 O   0  0  0  0  0  0  0  0  0  0  0  0
  195.0300  171.1270  136.5670 C   0  0  0  0  0  0  0  0  0  0  0  0
  196.2070  170.9970  135.6180 C   0  0  0  0  0  0  0  0  0  0  0  0
  194.9570  172.6290  136.4400 C   0  0  1  0  0  3  0  0  0  0  0  0
  196.1010  172.5130  135.4740 C   0  0  1  0  0  3  0  0  0  0  0  0
  197.3420  173.2870  135.9600 C   0  0  0  0  0  0  0  0  0  0  0  0
  197.0170  174.6730  136.4790 C   0  0  0  0  0  2  0  0  0  0  0  0
  198.2260  173.8870  134.8790 C   0  0  0  0  0  2  0  0  0  0  0  0
  197.9100  175.2760  135.4080 C   0  0  0  0  0  2  0  0  0  0  0  0
  198.0810  172.5690  136.8830 F   0  0  0  0  0  0  0  0  0  0  0  0
  1 29  1  6  0  0  0
  1  3  1  0  0  0  0
  2  9  1  0  0  0  0
  3 16  1  1  0  0  0
  4 10  1  6  0  0  0
  4 14  1  0  0  0  0
  5  2  1  6  0  0  0
  5 13  1  0  0  0  0
  6 15  1  0  0  0  0
  7  4  1  0  0  0  0
  7  5  1  0  0  0  0
  8 12  1  0  0  0  0
 11 40  1  6  0  0  0
 11  9  1  0  0  0  0
 11  6  1  0  0  0  0
 13 14  1  0  0  0  0
 13  8  1  1  0  0  0
 14  1  1  0  0  0  0
 14  3  1  0  0  0  0
 15 12  1  0  0  0  0
 16 17  2  0  0  0  0
 17 18  1  0  0  0  0
 18 19  2  0  0  0  0
 19 20  1  0  0  0  0
 20 21  1  0  0  0  0
 21 24  1  0  0  0  0
 23 24  1  0  0  0  0
 23 22  1  0  0  0  0
 24 22  1  0  0  0  0
 24 26  1  0  0  0  0
 26 25  1  0  0  0  0
 26 28  1  0  0  0  0
 27 26  2  0  0  0  0
 29 32  1  0  0  0  0
 30 33  1  0  0  0  0
 31 30  2  0  0  0  0
 32 30  1  0  0  0  0
 33 37  1  0  0  0  0
 36 35  1  0  0  0  0
 36 34  1  0  0  0  0
 37 35  2  0  0  0  0
 38 36  2  0  0  0  0
 39 33  2  0  0  0  0
 39 38  1  0  0  0  0
 40 41  1  0  0  0  0
 41 47  1  0  0  0  0
 42 45  1  0  0  0  0
 44 46  2  0  0  0  0
 45 43  1  0  0  0  0
 46 45  1  0  0  0  0
 47 45  1  0  0  0  0
 48 46  1  0  0  0  0
 48 49  1  0  0  0  0
 48 47  1  0  0  0  0
 49 50  1  0  0  0  0
 49 53  1  0  0  0  0
 51 52  1  0  0  0  0
 51 49  1  0  0  0  0
 52 50  1  0  0  0  0
M  END
>  <MODEL>
2

>  <REMARK>
 VINA RESULT:      -7.2      5.607     10.012
  Name = 
  13 active torsions:
  status: ('A' for Active; 'I' for Inactive)
    1  A    between atoms: C_3  and  C_17
    2  A    between atoms: C_4  and  C_10
    3  A    between atoms: C_5  and  C_26
    4  A    between atoms: C_6  and  C_53
    5  A    between atoms: P_8  and  C_48
    6  A    between atoms: C_14  and  C_33
    7  A    between atoms: C_18  and  C_50
    8  A    between atoms: C_26  and  N_43
    9  A    between atoms: C_30  and  C_37
   10  A    between atoms: C_30  and  O_52
   11  A    between atoms: C_47  and  C_48
   12  A    between atoms: C_47  and  C_50
   13  A    between atoms: C_49  and  O_52
                            x       y       z     vdW  Elec       q    Type
                         _______ _______ _______ _____ _____    ______ ____

>  <TORSDO>
F 13

$$$$
=
 OpenBabel11032420223D

 53 59  0  0  1  0  0  0  0  0999 V2000
  189.3700  176.8390  140.4060 C   0  0  1  0  0  3  0  0  0  0  0  0
  193.6720  175.6060  138.0600 C   0  0  0  0  0  2  0  0  0  0  0  0
  189.7180  178.0870  139.5930 C   0  0  1  0  0  3  0  0  0  0  0  0
  191.9450  177.5770  140.6400 C   0  0  2  0  0  3  0  0  0  0  0  0
  192.6750  176.6840  138.4420 C   0  0  2  0  0  3  0  0  0  0  0  0
  192.4760  174.6590  135.0800 C   0  0  0  0  0  2  0  0  0  0  0  0
  193.1410  177.4190  139.7020 C   0  0  0  0  0  2  0  0  0  0  0  0
  190.4280  175.6580  137.6050 C   0  0  0  0  0  2  0  0  0  0  0  0
  193.9210  175.6710  136.6860 O   0  0  0  0  0  0  0  0  0  0  0  0
  192.1710  176.8060  141.7810 O   0  0  0  0  0  1  0  0  0  0  0  0
  193.5130  174.4370  136.1750 C   0  0  2  0  0  3  0  0  0  0  0  0
  190.9820  176.0180  136.3710 O   0  0  0  0  0  0  0  0  0  0  0  0
  191.3230  176.0760  138.7800 C   0  0  2  0  0  3  0  0  0  0  0  0
  190.7790  177.0110  139.8520 C   0  0  1  0  0  0  0  0  0  0  0  0
  191.0820  174.8160  135.6690 C   0  0  0  0  0  2  0  0  0  0  0  0
  189.0180  178.0340  138.2800 C   0  0  0  0  0  3  0  0  0  0  0  0
  187.7140  177.8060  138.2290 C   0  0  0  0  0  3  0  0  0  0  0  0
  187.0350  177.7730  136.9400 C   0  0  0  0  0  3  0  0  0  0  0  0
  186.3020  176.7230  136.6040 C   0  0  0  0  0  3  0  0  0  0  0  0
  185.6040  176.6970  135.2920 C   0  0  0  0  0  2  0  0  0  0  0  0
  184.2020  177.2490  135.4530 C   0  0  0  0  0  2  0  0  0  0  0  0
  182.6440  175.2330  135.4460 C   0  0  0  0  0  2  0  0  0  0  0  0
  183.7960  174.9570  136.2180 O   0  0  0  0  0  0  0  0  0  0  0  0
  183.3250  176.2780  136.2270 C   0  0  1  0  0  0  0  0  0  0  0  0
  183.6320  177.6900  138.7000 O   0  0  0  0  0  1  0  0  0  0  0  0
  182.5430  176.7620  137.7980 P   0  0  0  0  0  0  0  0  0  0  0  0
  181.2960  177.5740  137.5300 O   0  0  0  0  0  0  0  0  0  0  0  0
  182.1280  175.3770  138.6760 O   0  0  0  0  0  1  0  0  0  0  0  0
  189.2610  177.2030  141.8800 C   0  0  0  0  0  2  0  0  0  0  0  0
  187.4730  177.8610  143.5480 C   0  0  0  0  0  0  0  0  0  0  0  0
  188.3180  177.8710  144.4860 O   0  0  0  0  0  0  0  0  0  0  0  0
  187.8820  177.5140  142.2210 N   0  0  0  0  0  2  0  0  0  0  0  0
  186.0650  178.1970  143.8230 C   0  0  0  0  0  0  0  0  0  0  0  0
  181.7070  179.2260  144.6730 Cl  0  0  0  0  0  0  0  0  0  0  0  0
  184.2850  178.6940  145.4040 C   0  0  0  0  0  3  0  0  0  0  0  0
  183.3810  178.8290  144.3470 C   0  0  0  0  0  0  0  0  0  0  0  0
  185.6240  178.3810  145.1430 C   0  0  0  0  0  3  0  0  0  0  0  0
  183.8120  178.6450  143.0300 C   0  0  0  0  0  3  0  0  0  0  0  0
  185.1480  178.3270  142.7690 C   0  0  0  0  0  3  0  0  0  0  0  0
  194.7200  173.7170  135.6000 C   0  0  0  0  0  2  0  0  0  0  0  0
  194.5470  172.3340  135.6990 O   0  0  0  0  0  0  0  0  0  0  0  0
  194.6770  169.6300  135.8270 C   0  0  0  0  0  1  0  0  0  0  0  0
  195.5860  169.9090  138.1490 C   0  0  0  0  0  1  0  0  0  0  0  0
  197.9040  169.6290  135.9010 O   0  0  0  0  0  0  0  0  0  0  0  0
  195.6220  170.4250  136.7220 C   0  0  0  0  0  0  0  0  0  0  0  0
  197.0340  170.4430  136.1670 C   0  0  0  0  0  0  0  0  0  0  0  0
  195.4680  171.9260  136.6700 C   0  0  1  0  0  3  0  0  0  0  0  0
  196.8530  171.9570  136.0900 C   0  0  1  0  0  3  0  0  0  0  0  0
  197.8270  172.7610  136.9740 C   0  0  0  0  0  0  0  0  0  0  0  0
  197.1270  173.7370  137.8980 C   0  0  0  0  0  2  0  0  0  0  0  0
  198.5590  173.9080  136.2980 C   0  0  0  0  0  2  0  0  0  0  0  0
  197.8670  174.8860  137.2330 C   0  0  0  0  0  2  0  0  0  0  0  0
  198.6950  171.9450  137.6750 F   0  0  0  0  0  0  0  0  0  0  0  0
  1 29  1  1  0  0  0
  3 16  1  6  0  0  0
  3 14  1  0  0  0  0
  3  1  1  0  0  0  0
  4 10  1  1  0  0  0
  5  2  1  1  0  0  0
  5 13  1  0  0  0  0
  5  7  1  0  0  0  0
  6 15  1  0  0  0  0
  6 11  1  0  0  0  0
  7  4  1  0  0  0  0
  9  2  1  0  0  0  0
 11 40  1  6  0  0  0
 11  9  1  0  0  0  0
 12  8  1  0  0  0  0
 13  8  1  6  0  0  0
 13 14  1  0  0  0  0
 14  1  1  0  0  0  0
 14  4  1  0  0  0  0
 15 12  1  0  0  0  0
 17 16  2  0  0  0  0
 18 17  1  0  0  0  0
 19 18  2  0  0  0  0
 20 21  1  0  0  0  0
 20 19  1  0  0  0  0
 21 24  1  0  0  0  0
 22 23  1  0  0  0  0
 22 24  1  0  0  0  0
 23 24  1  0  0  0  0
 24 26  1  0  0  0  0
 26 28  1  0  0  0  0
 26 25  1  0  0  0  0
 27 26  2  0  0  0  0
 29 32  1  0  0  0  0
 30 33  1  0  0  0  0
 30 31  2  0  0  0  0
 32 30  1  0  0  0  0
 33 37  1  0  0  0  0
 36 34  1  0  0  0  0
 36 35  1  0  0  0  0
 37 35  2  0  0  0  0
 38 36  2  0  0  0  0
 39 38  1  0  0  0  0
 39 33  2  0  0  0  0
 40 41  1  0  0  0  0
 41 47  1  0  0  0  0
 42 45  1  0  0  0  0
 44 46  2  0  0  0  0
 45 43  1  0  0  0  0
 46 45  1  0  0  0  0
 47 45  1  0  0  0  0
 48 46  1  0  0  0  0
 48 47  1  0  0  0  0
 48 49  1  0  0  0  0
 49 53  1  0  0  0  0
 49 50  1  0  0  0  0
 51 49  1  0  0  0  0
 51 52  1  0  0  0  0
 52 50  1  0  0  0  0
M  END
>  <MODEL>
3

>  <REMARK>
 VINA RESULT:      -7.0      6.088     10.563
  Name = 
  13 active torsions:
  status: ('A' for Active; 'I' for Inactive)
    1  A    between atoms: C_3  and  C_17
    2  A    between atoms: C_4  and  C_10
    3  A    between atoms: C_5  and  C_26
    4  A    between atoms: C_6  and  C_53
    5  A    between atoms: P_8  and  C_48
    6  A    between atoms: C_14  and  C_33
    7  A    between atoms: C_18  and  C_50
    8  A    between atoms: C_26  and  N_43
    9  A    between atoms: C_30  and  C_37
   10  A    between atoms: C_30  and  O_52
   11  A    between atoms: C_47  and  C_48
   12  A    between atoms: C_47  and  C_50
   13  A    between atoms: C_49  and  O_52
                            x       y       z     vdW  Elec       q    Type
                         _______ _______ _______ _____ _____    ______ ____

>  <TORSDO>
F 13

$$$$
=
 OpenBabel11032420223D

 53 59  0  0  1  0  0  0  0  0999 V2000
  187.8980  178.2890  137.5800 C   0  0  1  0  0  3  0  0  0  0  0  0
  191.4320  175.1570  135.7810 C   0  0  0  0  0  2  0  0  0  0  0  0
  187.7370  177.0250  138.4260 C   0  0  1  0  0  3  0  0  0  0  0  0
  187.8760  176.0290  136.1230 C   0  0  2  0  0  3  0  0  0  0  0  0
  190.2050  175.3520  136.6520 C   0  0  2  0  0  3  0  0  0  0  0  0
  193.8800  175.6810  138.0040 C   0  0  0  0  0  2  0  0  0  0  0  0
  188.9390  174.9570  135.8860 C   0  0  0  0  0  2  0  0  0  0  0  0
  190.9260  177.3600  138.1530 C   0  0  0  0  0  2  0  0  0  0  0  0
  192.4250  174.5080  136.5200 O   0  0  0  0  0  0  0  0  0  0  0  0
  187.6290  176.6850  134.9170 O   0  0  0  0  0  1  0  0  0  0  0  0
  193.5030  175.3970  136.5540 C   0  0  2  0  0  3  0  0  0  0  0  0
  191.7000  176.3530  138.7410 O   0  0  0  0  0  0  0  0  0  0  0  0
  190.0340  176.8160  137.0270 C   0  0  2  0  0  3  0  0  0  0  0  0
  188.5230  176.9800  137.1110 C   0  0  1  0  0  0  0  0  0  0  0  0
  193.0170  176.7900  138.5870 C   0  0  0  0  0  2  0  0  0  0  0  0
  188.5320  177.1620  139.6770 C   0  0  0  0  0  3  0  0  0  0  0  0
  188.1450  178.0040  140.6240 C   0  0  0  0  0  3  0  0  0  0  0  0
  188.9220  178.1180  141.8510 C   0  0  0  0  0  3  0  0  0  0  0  0
  188.3140  178.0880  143.0270 C   0  0  0  0  0  3  0  0  0  0  0  0
  189.1120  178.1970  144.2770 C   0  0  0  0  0  2  0  0  0  0  0  0
  188.4650  177.3610  145.3640 C   0  0  0  0  0  2  0  0  0  0  0  0
  189.0220  177.6150  147.8360 C   0  0  0  0  0  2  0  0  0  0  0  0
  188.9500  176.2460  147.4910 O   0  0  0  0  0  0  0  0  0  0  0  0
  189.4330  177.1260  146.5110 C   0  0  1  0  0  0  0  0  0  0  0  0
  191.5050  175.7240  145.1160 O   0  0  0  0  0  0  0  0  0  0  0  0
  191.2240  176.9760  146.2170 P   0  0  0  0  0  0  0  0  0  0  0  0
  191.7680  178.2700  145.6540 O   0  0  0  0  0  1  0  0  0  0  0  0
  192.0110  176.6280  147.6730 O   0  0  0  0  0  1  0  0  0  0  0  0
  186.5840  178.6060  136.8790 C   0  0  0  0  0  2  0  0  0  0  0  0
  184.6310  178.8590  138.4700 C   0  0  0  0  0  0  0  0  0  0  0  0
  184.8700  180.0910  138.6070 O   0  0  0  0  0  0  0  0  0  0  0  0
  185.4670  178.0570  137.6320 N   0  0  0  0  0  2  0  0  0  0  0  0
  183.4940  178.2480  139.1820 C   0  0  0  0  0  0  0  0  0  0  0  0
  179.9700  176.3660  141.3760 Cl  0  0  0  0  0  0  0  0  0  0  0  0
  181.8860  176.4410  139.4300 C   0  0  0  0  0  3  0  0  0  0  0  0
  181.3230  177.0900  140.5320 C   0  0  0  0  0  0  0  0  0  0  0  0
  182.9700  177.0180  138.7580 C   0  0  0  0  0  3  0  0  0  0  0  0
  181.8370  178.3170  140.9590 C   0  0  0  0  0  3  0  0  0  0  0  0
  182.9170  178.8960  140.2850 C   0  0  0  0  0  3  0  0  0  0  0  0
  194.6830  174.7700  135.8310 C   0  0  0  0  0  2  0  0  0  0  0  0
  195.4740  174.0560  136.7320 O   0  0  0  0  0  0  0  0  0  0  0  0
  197.9770  173.3920  137.5350 C   0  0  0  0  0  1  0  0  0  0  0  0
  198.2690  172.2940  135.2970 C   0  0  0  0  0  1  0  0  0  0  0  0
  197.2910  170.2390  137.6050 O   0  0  0  0  0  0  0  0  0  0  0  0
  197.3260  172.5220  136.4650 C   0  0  0  0  0  0  0  0  0  0  0  0
  196.8190  171.2130  137.0410 C   0  0  0  0  0  0  0  0  0  0  0  0
  195.9610  172.9680  135.9980 C   0  0  1  0  0  3  0  0  0  0  0  0
  195.4400  171.6910  136.5920 C   0  0  1  0  0  3  0  0  0  0  0  0
  194.7700  170.7960  135.5310 C   0  0  0  0  0  0  0  0  0  0  0  0
  193.5870  171.4570  134.8520 C   0  0  0  0  0  2  0  0  0  0  0  0
  193.8670  169.6920  136.0540 C   0  0  0  0  0  2  0  0  0  0  0  0
  192.6830  170.3480  135.3630 C   0  0  0  0  0  2  0  0  0  0  0  0
  195.6750  170.3170  134.6010 F   0  0  0  0  0  0  0  0  0  0  0  0
  1 29  1  6  0  0  0
  1  3  1  0  0  0  0
  2  9  1  0  0  0  0
  3 16  1  1  0  0  0
  4 10  1  6  0  0  0
  4 14  1  0  0  0  0
  5  2  1  6  0  0  0
  5 13  1  0  0  0  0
  6 15  1  0  0  0  0
  7  4  1  0  0  0  0
  7  5  1  0  0  0  0
  8 12  1  0  0  0  0
  9 11  1  0  0  0  0
 11 40  1  6  0  0  0
 11  6  1  0  0  0  0
 13 14  1  0  0  0  0
 13  8  1  1  0  0  0
 14  1  1  0  0  0  0
 14  3  1  0  0  0  0
 15 12  1  0  0  0  0
 16 17  2  0  0  0  0
 17 18  1  0  0  0  0
 18 19  2  0  0  0  0
 19 20  1  0  0  0  0
 20 21  1  0  0  0  0
 21 24  1  0  0  0  0
 23 22  1  0  0  0  0
 24 23  1  0  0  0  0
 24 22  1  0  0  0  0
 25 26  2  0  0  0  0
 26 24  1  0  0  0  0
 26 28  1  0  0  0  0
 27 26  1  0  0  0  0
 29 32  1  0  0  0  0
 30 31  2  0  0  0  0
 30 33  1  0  0  0  0
 32 30  1  0  0  0  0
 33 39  1  0  0  0  0
 35 36  2  0  0  0  0
 36 38  1  0  0  0  0
 36 34  1  0  0  0  0
 37 33  2  0  0  0  0
 37 35  1  0  0  0  0
 39 38  2  0  0  0  0
 40 41  1  0  0  0  0
 43 45  1  0  0  0  0
 45 46  1  0  0  0  0
 45 42  1  0  0  0  0
 46 44  2  0  0  0  0
 47 45  1  0  0  0  0
 47 48  1  0  0  0  0
 47 41  1  0  0  0  0
 48 46  1  0  0  0  0
 49 51  1  0  0  0  0
 49 48  1  0  0  0  0
 50 52  1  0  0  0  0
 50 49  1  0  0  0  0
 52 51  1  0  0  0  0
 53 49  1  0  0  0  0
M  END
>  <MODEL>
4

>  <REMARK>
 VINA RESULT:      -6.6      5.611      9.992
  Name = 
  13 active torsions:
  status: ('A' for Active; 'I' for Inactive)
    1  A    between atoms: C_3  and  C_17
    2  A    between atoms: C_4  and  C_10
    3  A    between atoms: C_5  and  C_26
    4  A    between atoms: C_6  and  C_53
    5  A    between atoms: P_8  and  C_48
    6  A    between atoms: C_14  and  C_33
    7  A    between atoms: C_18  and  C_50
    8  A    between atoms: C_26  and  N_43
    9  A    between atoms: C_30  and  C_37
   10  A    between atoms: C_30  and  O_52
   11  A    between atoms: C_47  and  C_48
   12  A    between atoms: C_47  and  C_50
   13  A    between atoms: C_49  and  O_52
                            x       y       z     vdW  Elec       q    Type
                         _______ _______ _______ _____ _____    ______ ____

>  <TORSDO>
F 13

$$$$
=
 OpenBabel11032420223D

 53 59  0  0  1  0  0  0  0  0999 V2000
  191.7550  176.6440  137.7930 C   0  0  1  0  0  3  0  0  0  0  0  0
  187.6780  178.2810  140.2890 C   0  0  0  0  0  2  0  0  0  0  0  0
  191.1000  175.3630  138.3120 C   0  0  1  0  0  3  0  0  0  0  0  0
  191.0370  176.7890  140.3800 C   0  0  2  0  0  3  0  0  0  0  0  0
  188.6150  177.1340  139.9630 C   0  0  2  0  0  3  0  0  0  0  0  0
  185.3350  177.8790  137.9310 C   0  0  0  0  0  2  0  0  0  0  0  0
  189.6800  176.9890  141.0540 C   0  0  0  0  0  2  0  0  0  0  0  0
  188.6080  177.1590  137.3540 C   0  0  0  0  0  2  0  0  0  0  0  0
  186.3570  177.8720  140.0880 O   0  0  0  0  0  0  0  0  0  0  0  0
  191.8340  177.9040  140.6470 O   0  0  0  0  0  1  0  0  0  0  0  0
  185.8520  178.7170  139.0960 C   0  0  2  0  0  3  0  0  0  0  0  0
  187.3390  176.6130  137.5750 O   0  0  0  0  0  0  0  0  0  0  0  0
  189.3670  177.3990  138.6680 C   0  0  2  0  0  3  0  0  0  0  0  0
  190.7110  176.7240  138.9010 C   0  0  1  0  0  0  0  0  0  0  0  0
  186.4600  177.5160  136.9750 C   0  0  0  0  0  2  0  0  0  0  0  0
  190.2020  174.8060  137.2640 C   0  0  0  0  0  3  0  0  0  0  0  0
  190.3800  173.5700  136.8220 C   0  0  0  0  0  3  0  0  0  0  0  0
  189.4850  173.0290  135.8070 C   0  0  0  0  0  3  0  0  0  0  0  0
  188.4570  172.2750  136.1620 C   0  0  0  0  0  3  0  0  0  0  0  0
  187.5420  171.7330  135.1240 C   0  0  0  0  0  2  0  0  0  0  0  0
  186.4160  172.7180  134.8770 C   0  0  0  0  0  2  0  0  0  0  0  0
  184.2130  171.4520  134.7040 C   0  0  0  0  0  2  0  0  0  0  0  0
  185.0440  170.8530  135.6790 O   0  0  0  0  0  0  0  0  0  0  0  0
  185.1310  172.2460  135.5350 C   0  0  1  0  0  0  0  0  0  0  0  0
  185.2740  172.8720  138.3270 O   0  0  0  0  0  1  0  0  0  0  0  0
  184.3870  173.1680  136.9180 P   0  0  0  0  0  0  0  0  0  0  0  0
  184.3990  174.6510  136.6210 O   0  0  0  0  0  0  0  0  0  0  0  0
  182.7900  172.6590  137.1460 O   0  0  0  0  0  1  0  0  0  0  0  0
  193.1830  176.7350  138.3130 C   0  0  0  0  0  2  0  0  0  0  0  0
  195.0040  175.0080  138.6490 C   0  0  0  0  0  0  0  0  0  0  0  0
  195.3130  175.5160  139.7630 O   0  0  0  0  0  0  0  0  0  0  0  0
  193.9560  175.5870  137.8660 N   0  0  0  0  0  2  0  0  0  0  0  0
  195.7290  173.8250  138.1540 C   0  0  0  0  0  0  0  0  0  0  0  0
  197.9650  170.1650  136.6110 Cl  0  0  0  0  0  0  0  0  0  0  0  0
  197.7050  172.8330  137.1410 C   0  0  0  0  0  3  0  0  0  0  0  0
  197.1060  171.5720  137.2020 C   0  0  0  0  0  0  0  0  0  0  0  0
  197.0190  173.9560  137.6170 C   0  0  0  0  0  3  0  0  0  0  0  0
  195.8200  171.4330  137.7320 C   0  0  0  0  0  3  0  0  0  0  0  0
  195.1330  172.5550  138.2040 C   0  0  0  0  0  3  0  0  0  0  0  0
  184.7180  179.5410  139.6790 C   0  0  0  0  0  2  0  0  0  0  0  0
  183.6940  179.6820  138.7400 O   0  0  0  0  0  0  0  0  0  0  0  0
  181.5360  181.1870  138.0850 C   0  0  0  0  0  1  0  0  0  0  0  0
  180.4750  180.3640  140.2060 C   0  0  0  0  0  1  0  0  0  0  0  0
  179.6720  178.5950  137.6110 O   0  0  0  0  0  0  0  0  0  0  0  0
  181.3080  179.9840  138.9940 C   0  0  0  0  0  0  0  0  0  0  0  0
  180.6970  178.8190  138.2370 C   0  0  0  0  0  0  0  0  0  0  0  0
  182.5450  179.2150  139.3890 C   0  0  1  0  0  3  0  0  0  0  0  0
  181.9680  178.0640  138.6160 C   0  0  1  0  0  3  0  0  0  0  0  0
  181.7330  176.8320  139.5120 C   0  0  0  0  0  0  0  0  0  0  0  0
  181.3620  175.5870  138.7310 C   0  0  0  0  0  2  0  0  0  0  0  0
  180.4060  176.7790  140.2490 C   0  0  0  0  0  2  0  0  0  0  0  0
  180.0390  175.5240  139.4760 C   0  0  0  0  0  2  0  0  0  0  0  0
  182.7980  176.5890  140.3600 F   0  0  0  0  0  0  0  0  0  0  0  0
  1  3  1  0  0  0  0
  1 29  1  1  0  0  0
  1 14  1  0  0  0  0
  3 16  1  6  0  0  0
  3 14  1  0  0  0  0
  4 10  1  6  0  0  0
  4  7  1  0  0  0  0
  5  2  1  1  0  0  0
  5  7  1  0  0  0  0
  6 11  1  0  0  0  0
  8 12  1  0  0  0  0
  9  2  1  0  0  0  0
 11 40  1  1  0  0  0
 11  9  1  0  0  0  0
 13  8  1  6  0  0  0
 13 14  1  0  0  0  0
 13  5  1  0  0  0  0
 14  4  1  0  0  0  0
 15 12  1  0  0  0  0
 15  6  1  0  0  0  0
 17 16  2  0  0  0  0
 18 19  2  0  0  0  0
 18 17  1  0  0  0  0
 20 19  1  0  0  0  0
 21 20  1  0  0  0  0
 21 24  1  0  0  0  0
 22 24  1  0  0  0  0
 22 23  1  0  0  0  0
 24 23  1  0  0  0  0
 24 26  1  0  0  0  0
 26 28  1  0  0  0  0
 26 25  1  0  0  0  0
 27 26  2  0  0  0  0
 30 31  2  0  0  0  0
 32 29  1  0  0  0  0
 32 30  1  0  0  0  0
 33 39  1  0  0  0  0
 33 30  1  0  0  0  0
 34 36  1  0  0  0  0
 35 36  2  0  0  0  0
 35 37  1  0  0  0  0
 36 38  1  0  0  0  0
 37 33  2  0  0  0  0
 38 39  2  0  0  0  0
 41 47  1  0  0  0  0
 41 40  1  0  0  0  0
 42 45  1  0  0  0  0
 44 46  2  0  0  0  0
 45 47  1  0  0  0  0
 45 43  1  0  0  0  0
 46 48  1  0  0  0  0
 46 45  1  0  0  0  0
 48 47  1  0  0  0  0
 48 49  1  0  0  0  0
 49 51  1  0  0  0  0
 49 53  1  0  0  0  0
 50 52  1  0  0  0  0
 50 49  1  0  0  0  0
 52 51  1  0  0  0  0
M  END
>  <MODEL>
5

>  <REMARK>
 VINA RESULT:      -6.4      5.582     10.903
  Name = 
  13 active torsions:
  status: ('A' for Active; 'I' for Inactive)
    1  A    between atoms: C_3  and  C_17
    2  A    between atoms: C_4  and  C_10
    3  A    between atoms: C_5  and  C_26
    4  A    between atoms: C_6  and  C_53
    5  A    between atoms: P_8  and  C_48
    6  A    between atoms: C_14  and  C_33
    7  A    between atoms: C_18  and  C_50
    8  A    between atoms: C_26  and  N_43
    9  A    between atoms: C_30  and  C_37
   10  A    between atoms: C_30  and  O_52
   11  A    between atoms: C_47  and  C_48
   12  A    between atoms: C_47  and  C_50
   13  A    between atoms: C_49  and  O_52
                            x       y       z     vdW  Elec       q    Type
                         _______ _______ _______ _____ _____    ______ ____

>  <TORSDO>
F 13

$$$$
=
 OpenBabel11032420223D

 53 59  0  0  1  0  0  0  0  0999 V2000
  183.0050  178.3780  138.2050 C   0  0  1  0  0  3  0  0  0  0  0  0
  186.9100  176.5130  135.5960 C   0  0  0  0  0  2  0  0  0  0  0  0
  183.4270  177.1430  139.0030 C   0  0  1  0  0  3  0  0  0  0  0  0
  183.4070  176.2050  136.6720 C   0  0  2  0  0  3  0  0  0  0  0  0
  185.8870  176.3200  136.6990 C   0  0  2  0  0  3  0  0  0  0  0  0
  189.4610  177.8310  137.3190 C   0  0  0  0  0  2  0  0  0  0  0  0
  184.6850  175.5270  136.1780 C   0  0  0  0  0  2  0  0  0  0  0  0
  186.2220  178.4770  138.1270 C   0  0  0  0  0  2  0  0  0  0  0  0
  188.1850  176.2290  136.0930 O   0  0  0  0  0  0  0  0  0  0  0  0
  182.7280  176.7280  135.5710 O   0  0  0  0  0  1  0  0  0  0  0  0
  188.9100  177.4170  135.9590 C   0  0  2  0  0  3  0  0  0  0  0  0
  187.3760  177.7810  138.5010 O   0  0  0  0  0  0  0  0  0  0  0  0
  185.3410  177.6580  137.1720 C   0  0  2  0  0  3  0  0  0  0  0  0
  183.9050  177.3310  137.5590 C   0  0  1  0  0  0  0  0  0  0  0  0
  188.4270  178.6140  138.1130 C   0  0  0  0  0  2  0  0  0  0  0  0
  184.3730  177.5490  140.0790 C   0  0  0  0  0  3  0  0  0  0  0  0
  183.9310  178.1970  141.1460 C   0  0  0  0  0  3  0  0  0  0  0  0
  184.8620  178.5760  142.2000 C   0  0  0  0  0  3  0  0  0  0  0  0
  185.9440  177.8460  142.4220 C   0  0  0  0  0  3  0  0  0  0  0  0
  186.8970  178.2410  143.4930 C   0  0  0  0  0  2  0  0  0  0  0  0
  187.4940  176.9970  144.1220 C   0  0  0  0  0  2  0  0  0  0  0  0
  189.4740  175.6930  143.1910 C   0  0  0  0  0  2  0  0  0  0  0  0
  189.3120  176.9050  142.4820 O   0  0  0  0  0  0  0  0  0  0  0  0
  188.9860  176.9170  143.8460 C   0  0  1  0  0  0  0  0  0  0  0  0
  190.5220  179.3150  144.1500 O   0  0  0  0  0  0  0  0  0  0  0  0
  190.1850  177.8240  144.8730 P   0  0  0  0  0  0  0  0  0  0  0  0
  189.6170  178.0550  146.2550 O   0  0  0  0  0  1  0  0  0  0  0  0
  191.6140  176.9290  145.0020 O   0  0  0  0  0  1  0  0  0  0  0  0
  181.5460  178.2450  137.7920 C   0  0  0  0  0  2  0  0  0  0  0  0
  180.9270  180.7010  137.7540 C   0  0  0  0  0  0  0  0  0  0  0  0
  181.1110  180.7910  138.9990 O   0  0  0  0  0  0  0  0  0  0  0  0
  181.1100  179.4440  137.0930 N   0  0  0  0  0  2  0  0  0  0  0  0
  180.5150  181.8870  136.9830 C   0  0  0  0  0  0  0  0  0  0  0  0
  179.2510  185.5580  134.5940 Cl  0  0  0  0  0  0  0  0  0  0  0  0
  179.3320  182.8740  135.1010 C   0  0  0  0  0  3  0  0  0  0  0  0
  179.7370  184.1470  135.5110 C   0  0  0  0  0  0  0  0  0  0  0  0
  179.7180  181.7470  135.8360 C   0  0  0  0  0  3  0  0  0  0  0  0
  180.5330  184.2950  136.6500 C   0  0  0  0  0  3  0  0  0  0  0  0
  180.9230  183.1690  137.3820 C   0  0  0  0  0  3  0  0  0  0  0  0
  190.0560  177.1890  134.9880 C   0  0  0  0  0  2  0  0  0  0  0  0
  190.4590  175.8520  135.0260 O   0  0  0  0  0  0  0  0  0  0  0  0
  190.0740  173.6790  136.5990 C   0  0  0  0  0  1  0  0  0  0  0  0
  191.3690  174.8910  138.3750 C   0  0  0  0  0  1  0  0  0  0  0  0
  193.2100  172.9160  136.5850 O   0  0  0  0  0  0  0  0  0  0  0  0
  191.2830  174.5600  136.8960 C   0  0  0  0  0  0  0  0  0  0  0  0
  192.5690  173.9350  136.3870 C   0  0  0  0  0  0  0  0  0  0  0  0
  191.4210  175.7960  136.0410 C   0  0  1  0  0  3  0  0  0  0  0  0
  192.6780  175.1750  135.5030 C   0  0  1  0  0  3  0  0  0  0  0  0
  193.9150  176.0510  135.7850 C   0  0  0  0  0  0  0  0  0  0  0  0
  194.3400  176.8860  134.5940 C   0  0  0  0  0  2  0  0  0  0  0  0
  195.2580  175.3400  135.7810 C   0  0  0  0  0  2  0  0  0  0  0  0
  195.6890  176.1870  134.5940 C   0  0  0  0  0  2  0  0  0  0  0  0
  193.7570  176.8350  136.9140 F   0  0  0  0  0  0  0  0  0  0  0  0
  1 29  1  6  0  0  0
  1  3  1  0  0  0  0
  2  9  1  0  0  0  0
  3 16  1  1  0  0  0
  4 10  1  6  0  0  0
  4 14  1  0  0  0  0
  5  2  1  6  0  0  0
  5 13  1  0  0  0  0
  6 15  1  0  0  0  0
  7  4  1  0  0  0  0
  7  5  1  0  0  0  0
  8 12  1  0  0  0  0
 11 40  1  6  0  0  0
 11  9  1  0  0  0  0
 11  6  1  0  0  0  0
 13 14  1  0  0  0  0
 13  8  1  1  0  0  0
 14  1  1  0  0  0  0
 14  3  1  0  0  0  0
 15 12  1  0  0  0  0
 16 17  2  0  0  0  0
 17 18  1  0  0  0  0
 18 19  2  0  0  0  0
 19 20  1  0  0  0  0
 20 21  1  0  0  0  0
 22 24  1  0  0  0  0
 23 22  1  0  0  0  0
 23 24  1  0  0  0  0
 24 21  1  0  0  0  0
 24 26  1  0  0  0  0
 25 26  2  0  0  0  0
 26 28  1  0  0  0  0
 26 27  1  0  0  0  0
 30 31  2  0  0  0  0
 32 30  1  0  0  0  0
 32 29  1  0  0  0  0
 33 39  1  0  0  0  0
 33 30  1  0  0  0  0
 34 36  1  0  0  0  0
 35 36  2  0  0  0  0
 35 37  1  0  0  0  0
 36 38  1  0  0  0  0
 37 33  2  0  0  0  0
 38 39  2  0  0  0  0
 40 41  1  0  0  0  0
 41 47  1  0  0  0  0
 42 45  1  0  0  0  0
 45 43  1  0  0  0  0
 46 44  2  0  0  0  0
 46 45  1  0  0  0  0
 47 45  1  0  0  0  0
 48 49  1  0  0  0  0
 48 47  1  0  0  0  0
 48 46  1  0  0  0  0
 49 53  1  0  0  0  0
 50 49  1  0  0  0  0
 51 49  1  0  0  0  0
 52 50  1  0  0  0  0
 52 51  1  0  0  0  0
M  END
>  <MODEL>
6

>  <REMARK>
 VINA RESULT:      -6.4      4.528      8.496
  Name = 
  13 active torsions:
  status: ('A' for Active; 'I' for Inactive)
    1  A    between atoms: C_3  and  C_17
    2  A    between atoms: C_4  and  C_10
    3  A    between atoms: C_5  and  C_26
    4  A    between atoms: C_6  and  C_53
    5  A    between atoms: P_8  and  C_48
    6  A    between atoms: C_14  and  C_33
    7  A    between atoms: C_18  and  C_50
    8  A    between atoms: C_26  and  N_43
    9  A    between atoms: C_30  and  C_37
   10  A    between atoms: C_30  and  O_52
   11  A    between atoms: C_47  and  C_48
   12  A    between atoms: C_47  and  C_50
   13  A    between atoms: C_49  and  O_52
                            x       y       z     vdW  Elec       q    Type
                         _______ _______ _______ _____ _____    ______ ____

>  <TORSDO>
F 13

$$$$
=
 OpenBabel11032420223D

 53 59  0  0  1  0  0  0  0  0999 V2000
  188.5360  176.6810  135.6170 C   0  0  1  0  0  3  0  0  0  0  0  0
  185.3500  178.6050  139.0340 C   0  0  0  0  0  2  0  0  0  0  0  0
  188.4820  175.6150  136.7130 C   0  0  1  0  0  3  0  0  0  0  0  0
  188.7860  177.6900  138.0970 C   0  0  2  0  0  3  0  0  0  0  0  0
  186.3780  177.5470  138.6830 C   0  0  2  0  0  3  0  0  0  0  0  0
  182.5160  177.0610  138.1430 C   0  0  0  0  0  2  0  0  0  0  0  0
  187.7610  177.9550  139.2000 C   0  0  0  0  0  2  0  0  0  0  0  0
  185.4280  176.5950  136.4480 C   0  0  0  0  0  2  0  0  0  0  0  0
  184.2070  177.9880  139.5490 O   0  0  0  0  0  0  0  0  0  0  0  0
  189.2940  178.9140  137.6610 O   0  0  0  0  0  1  0  0  0  0  0  0
  183.1730  178.3300  138.6740 C   0  0  2  0  0  3  0  0  0  0  0  0
  184.5200  176.0160  137.3410 O   0  0  0  0  0  0  0  0  0  0  0  0
  186.5140  177.4020  137.1760 C   0  0  2  0  0  3  0  0  0  0  0  0
  187.9800  177.0370  136.9910 C   0  0  1  0  0  0  0  0  0  0  0  0
  183.2760  176.5120  136.9450 C   0  0  0  0  0  2  0  0  0  0  0  0
  187.4520  174.5990  136.3630 C   0  0  0  0  0  3  0  0  0  0  0  0
  187.3300  173.4960  137.0880 C   0  0  0  0  0  3  0  0  0  0  0  0
  186.3080  172.5160  136.7460 C   0  0  0  0  0  3  0  0  0  0  0  0
  185.4920  172.7350  135.7270 C   0  0  0  0  0  3  0  0  0  0  0  0
  184.4570  171.7280  135.3760 C   0  0  0  0  0  2  0  0  0  0  0  0
  183.1490  172.4320  135.0700 C   0  0  0  0  0  2  0  0  0  0  0  0
  181.6110  170.4150  135.3080 C   0  0  0  0  0  2  0  0  0  0  0  0
  182.3580  170.6020  136.4930 O   0  0  0  0  0  0  0  0  0  0  0  0
  181.9920  171.7550  135.7840 C   0  0  1  0  0  0  0  0  0  0  0  0
  181.4000  173.7940  137.7060 O   0  0  0  0  0  1  0  0  0  0  0  0
  180.6890  172.7300  136.6010 P   0  0  0  0  0  0  0  0  0  0  0  0
  179.9100  173.5210  135.5740 O   0  0  0  0  0  0  0  0  0  0  0  0
  179.6350  171.6930  137.4220 O   0  0  0  0  0  1  0  0  0  0  0  0
  189.9750  177.1390  135.4210 C   0  0  0  0  0  2  0  0  0  0  0  0
  191.8330  175.8510  136.5630 C   0  0  0  0  0  0  0  0  0  0  0  0
  191.9350  176.7410  137.4530 O   0  0  0  0  0  0  0  0  0  0  0  0
  190.8800  176.0040  135.5060 N   0  0  0  0  0  2  0  0  0  0  0  0
  192.7000  174.6620  136.6100 C   0  0  0  0  0  0  0  0  0  0  0  0
  195.3880  170.9820  136.7440 Cl  0  0  0  0  0  0  0  0  0  0  0  0
  194.7980  173.6040  137.2410 C   0  0  0  0  0  3  0  0  0  0  0  0
  194.3560  172.3970  136.6920 C   0  0  0  0  0  0  0  0  0  0  0  0
  193.9710  174.7320  137.2020 C   0  0  0  0  0  3  0  0  0  0  0  0
  193.0940  172.3180  136.0980 C   0  0  0  0  0  3  0  0  0  0  0  0
  192.2700  173.4470  136.0550 C   0  0  0  0  0  3  0  0  0  0  0  0
  182.1470  179.1630  139.4230 C   0  0  0  0  0  2  0  0  0  0  0  0
  181.4890  178.3760  140.3710 O   0  0  0  0  0  0  0  0  0  0  0  0
  178.9310  178.4950  141.2610 C   0  0  0  0  0  1  0  0  0  0  0  0
  179.5620  180.6380  142.4070 C   0  0  0  0  0  1  0  0  0  0  0  0
  179.8110  178.0440  144.3340 O   0  0  0  0  0  0  0  0  0  0  0  0
  179.9960  179.2210  142.0760 C   0  0  0  0  0  0  0  0  0  0  0  0
  180.3710  178.4440  143.3250 C   0  0  0  0  0  0  0  0  0  0  0  0
  181.3950  179.1860  141.5080 C   0  0  1  0  0  3  0  0  0  0  0  0
  181.7730  178.3890  142.7230 C   0  0  1  0  0  3  0  0  0  0  0  0
  182.8540  179.0990  143.5610 C   0  0  0  0  0  0  0  0  0  0  0  0
  184.2110  179.1250  142.8870 C   0  0  0  0  0  2  0  0  0  0  0  0
  183.4330  178.3070  144.7210 C   0  0  0  0  0  2  0  0  0  0  0  0
  184.7970  178.3440  144.0520 C   0  0  0  0  0  2  0  0  0  0  0  0
  182.4670  180.3670  143.9520 F   0  0  0  0  0  0  0  0  0  0  0  0
  1 29  1  1  0  0  0
  1  3  1  0  0  0  0
  1 14  1  0  0  0  0
  2  9  1  0  0  0  0
  3 16  1  6  0  0  0
  3 14  1  0  0  0  0
  4 10  1  6  0  0  0
  4  7  1  0  0  0  0
  5  2  1  6  0  0  0
  5  7  1  0  0  0  0
  6 11  1  0  0  0  0
  8 12  1  0  0  0  0
 11 40  1  1  0  0  0
 11  9  1  0  0  0  0
 13  8  1  1  0  0  0
 13  5  1  0  0  0  0
 14 13  1  0  0  0  0
 14  4  1  0  0  0  0
 15 12  1  0  0  0  0
 15  6  1  0  0  0  0
 16 17  2  0  0  0  0
 18 17  1  0  0  0  0
 19 18  2  0  0  0  0
 20 19  1  0  0  0  0
 21 20  1  0  0  0  0
 21 24  1  0  0  0  0
 22 24  1  0  0  0  0
 22 23  1  0  0  0  0
 24 23  1  0  0  0  0
 24 26  1  0  0  0  0
 26 28  1  0  0  0  0
 26 25  1  0  0  0  0
 27 26  2  0  0  0  0
 29 32  1  0  0  0  0
 30 33  1  0  0  0  0
 30 31  2  0  0  0  0
 32 30  1  0  0  0  0
 33 37  1  0  0  0  0
 36 34  1  0  0  0  0
 36 35  1  0  0  0  0
 37 35  2  0  0  0  0
 38 36  2  0  0  0  0
 39 38  1  0  0  0  0
 39 33  2  0  0  0  0
 40 41  1  0  0  0  0
 41 47  1  0  0  0  0
 42 45  1  0  0  0  0
 45 43  1  0  0  0  0
 45 46  1  0  0  0  0
 46 44  2  0  0  0  0
 47 45  1  0  0  0  0
 47 48  1  0  0  0  0
 48 46  1  0  0  0  0
 48 49  1  0  0  0  0
 49 53  1  0  0  0  0
 49 51  1  0  0  0  0
 50 49  1  0  0  0  0
 50 52  1  0  0  0  0
 52 51  1  0  0  0  0
M  END
>  <MODEL>
7

>  <REMARK>
 VINA RESULT:      -6.3      4.773      9.647
  Name = 
  13 active torsions:
  status: ('A' for Active; 'I' for Inactive)
    1  A    between atoms: C_3  and  C_17
    2  A    between atoms: C_4  and  C_10
    3  A    between atoms: C_5  and  C_26
    4  A    between atoms: C_6  and  C_53
    5  A    between atoms: P_8  and  C_48
    6  A    between atoms: C_14  and  C_33
    7  A    between atoms: C_18  and  C_50
    8  A    between atoms: C_26  and  N_43
    9  A    between atoms: C_30  and  C_37
   10  A    between atoms: C_30  and  O_52
   11  A    between atoms: C_47  and  C_48
   12  A    between atoms: C_47  and  C_50
   13  A    between atoms: C_49  and  O_52
                            x       y       z     vdW  Elec       q    Type
                         _______ _______ _______ _____ _____    ______ ____

>  <TORSDO>
F 13

$$$$
=
 OpenBabel11032420223D

 53 59  0  0  1  0  0  0  0  0999 V2000
  186.7140  176.4870  135.8800 C   0  0  1  0  0  3  0  0  0  0  0  0
  186.9550  178.0070  140.6940 C   0  0  0  0  0  2  0  0  0  0  0  0
  187.3800  177.8620  135.8010 C   0  0  1  0  0  3  0  0  0  0  0  0
  185.4650  178.3610  137.3510 C   0  0  2  0  0  3  0  0  0  0  0  0
  187.0940  178.3540  139.2230 C   0  0  2  0  0  3  0  0  0  0  0  0
  190.0990  177.1270  141.4390 C   0  0  0  0  0  2  0  0  0  0  0  0
  185.8020  178.9900  138.7020 C   0  0  0  0  0  2  0  0  0  0  0  0
  188.7330  176.5060  138.3870 C   0  0  0  0  0  2  0  0  0  0  0  0
  188.0980  178.4270  141.3790 O   0  0  0  0  0  0  0  0  0  0  0  0
  184.2900  177.6210  137.4860 O   0  0  0  0  0  1  0  0  0  0  0  0
  188.6580  177.2660  141.9180 C   0  0  2  0  0  3  0  0  0  0  0  0
  189.6400  177.3040  139.0930 O   0  0  0  0  0  0  0  0  0  0  0  0
  187.3180  177.1030  138.3890 C   0  0  2  0  0  3  0  0  0  0  0  0
  186.6340  177.4360  137.0710 C   0  0  1  0  0  0  0  0  0  0  0  0
  190.1600  176.4590  140.0740 C   0  0  0  0  0  2  0  0  0  0  0  0
  188.8590  177.6950  135.8060 C   0  0  0  0  0  3  0  0  0  0  0  0
  189.4430  176.8950  134.9270 C   0  0  0  0  0  3  0  0  0  0  0  0
  190.8930  176.7530  134.9300 C   0  0  0  0  0  3  0  0  0  0  0  0
  191.4850  176.0180  135.8580 C   0  0  0  0  0  3  0  0  0  0  0  0
  192.9640  175.8680  135.8530 C   0  0  0  0  0  2  0  0  0  0  0  0
  193.4290  175.3860  137.2130 C   0  0  0  0  0  2  0  0  0  0  0  0
  194.6280  173.4900  136.0070 C   0  0  0  0  0  2  0  0  0  0  0  0
  195.3690  174.6880  135.8890 O   0  0  0  0  0  0  0  0  0  0  0  0
  194.6530  174.4960  137.0800 C   0  0  1  0  0  0  0  0  0  0  0  0
  195.4730  175.3130  139.7000 O   0  0  0  0  0  1  0  0  0  0  0  0
  195.7120  174.1300  138.5160 P   0  0  0  0  0  0  0  0  0  0  0  0
  195.3650  172.7740  139.0860 O   0  0  0  0  0  1  0  0  0  0  0  0
  197.3350  174.1350  138.0400 O   0  0  0  0  0  0  0  0  0  0  0  0
  185.4460  176.4830  135.0370 C   0  0  0  0  0  2  0  0  0  0  0  0
  183.3130  175.1210  135.1170 C   0  0  0  0  0  0  0  0  0  0  0  0
  182.6160  176.1570  134.9290 O   0  0  0  0  0  0  0  0  0  0  0  0
  184.7380  175.2230  135.1990 N   0  0  0  0  0  2  0  0  0  0  0  0
  182.6570  173.8090  135.2580 C   0  0  0  0  0  0  0  0  0  0  0  0
  180.6310  169.7500  135.7070 Cl  0  0  0  0  0  0  0  0  0  0  0  0
  180.6580  172.4830  135.6600 C   0  0  0  0  0  3  0  0  0  0  0  0
  181.4090  171.3100  135.5360 C   0  0  0  0  0  0  0  0  0  0  0  0
  181.2800  173.7280  135.5190 C   0  0  0  0  0  3  0  0  0  0  0  0
  182.7810  171.3820  135.2790 C   0  0  0  0  0  3  0  0  0  0  0  0
  183.4030  172.6260  135.1430 C   0  0  0  0  0  3  0  0  0  0  0  0
  188.6270  177.3610  143.4330 C   0  0  0  0  0  2  0  0  0  0  0  0
  187.3420  177.0850  143.9060 O   0  0  0  0  0  0  0  0  0  0  0  0
  184.8100  177.9650  143.5060 C   0  0  0  0  0  1  0  0  0  0  0  0
  185.5320  180.1320  144.5470 C   0  0  0  0  0  1  0  0  0  0  0  0
  184.1820  178.0880  146.6700 O   0  0  0  0  0  0  0  0  0  0  0  0
  185.6150  178.6180  144.6250 C   0  0  0  0  0  0  0  0  0  0  0  0
  185.1960  178.1020  145.9890 C   0  0  0  0  0  0  0  0  0  0  0  0
  187.0420  178.1460  144.7680 C   0  0  1  0  0  3  0  0  0  0  0  0
  186.6330  177.6020  146.1070 C   0  0  1  0  0  3  0  0  0  0  0  0
  187.4380  178.2420  147.2550 C   0  0  0  0  0  0  0  0  0  0  0  0
  188.9070  178.4200  146.9280 C   0  0  0  0  0  2  0  0  0  0  0  0
  187.7950  177.3300  148.4160 C   0  0  0  0  0  2  0  0  0  0  0  0
  189.2690  177.5180  148.0970 C   0  0  0  0  0  2  0  0  0  0  0  0
  186.8770  179.4280  147.6920 F   0  0  0  0  0  0  0  0  0  0  0  0
  1 29  1  6  0  0  0
  1 14  1  0  0  0  0
  2  9  1  0  0  0  0
  3 16  1  1  0  0  0
  3  1  1  0  0  0  0
  3 14  1  0  0  0  0
  4 10  1  1  0  0  0
  4  7  1  0  0  0  0
  5  7  1  6  0  0  0
  5  2  1  0  0  0  0
  6 11  1  0  0  0  0
  8 12  1  0  0  0  0
  9 11  1  0  0  0  0
 11 40  1  1  0  0  0
 12 15  1  0  0  0  0
 13  8  1  6  0  0  0
 13  5  1  0  0  0  0
 14  4  1  0  0  0  0
 14 13  1  0  0  0  0
 15  6  1  0  0  0  0
 17 18  1  0  0  0  0
 17 16  2  0  0  0  0
 18 19  2  0  0  0  0
 20 19  1  0  0  0  0
 20 21  1  0  0  0  0
 22 24  1  0  0  0  0
 23 22  1  0  0  0  0
 23 24  1  0  0  0  0
 24 21  1  0  0  0  0
 24 26  1  0  0  0  0
 26 27  1  0  0  0  0
 26 25  1  0  0  0  0
 28 26  2  0  0  0  0
 29 32  1  0  0  0  0
 30 32  1  0  0  0  0
 30 33  1  0  0  0  0
 31 30  2  0  0  0  0
 33 37  1  0  0  0  0
 36 35  1  0  0  0  0
 36 34  1  0  0  0  0
 37 35  2  0  0  0  0
 38 36  2  0  0  0  0
 39 33  2  0  0  0  0
 39 38  1  0  0  0  0
 40 41  1  0  0  0  0
 41 47  1  0  0  0  0
 42 45  1  0  0  0  0
 43 45  1  0  0  0  0
 45 47  1  0  0  0  0
 45 46  1  0  0  0  0
 46 48  1  0  0  0  0
 46 44  2  0  0  0  0
 47 48  1  0  0  0  0
 48 49  1  0  0  0  0
 49 53  1  0  0  0  0
 49 51  1  0  0  0  0
 50 49  1  0  0  0  0
 50 52  1  0  0  0  0
 52 51  1  0  0  0  0
M  END
>  <MODEL>
8

>  <REMARK>
 VINA RESULT:      -6.3      3.366      5.475
  Name = 
  13 active torsions:
  status: ('A' for Active; 'I' for Inactive)
    1  A    between atoms: C_3  and  C_17
    2  A    between atoms: C_4  and  C_10
    3  A    between atoms: C_5  and  C_26
    4  A    between atoms: C_6  and  C_53
    5  A    between atoms: P_8  and  C_48
    6  A    between atoms: C_14  and  C_33
    7  A    between atoms: C_18  and  C_50
    8  A    between atoms: C_26  and  N_43
    9  A    between atoms: C_30  and  C_37
   10  A    between atoms: C_30  and  O_52
   11  A    between atoms: C_47  and  C_48
   12  A    between atoms: C_47  and  C_50
   13  A    between atoms: C_49  and  O_52
                            x       y       z     vdW  Elec       q    Type
                         _______ _______ _______ _____ _____    ______ ____

>  <TORSDO>
F 13

$$$$
=
 OpenBabel11032420223D

 53 59  0  0  1  0  0  0  0  0999 V2000
  182.3080  179.4580  140.4310 C   0  0  1  0  0  3  0  0  0  0  0  0
  184.9160  176.7820  137.0290 C   0  0  0  0  0  2  0  0  0  0  0  0
  182.7770  178.2280  141.2090 C   0  0  1  0  0  3  0  0  0  0  0  0
  181.9080  177.1490  139.1120 C   0  0  2  0  0  3  0  0  0  0  0  0
  184.2650  176.8420  138.3980 C   0  0  2  0  0  3  0  0  0  0  0  0
  188.0320  177.7630  137.7610 C   0  0  0  0  0  2  0  0  0  0  0  0
  182.8620  176.2310  138.3480 C   0  0  0  0  0  2  0  0  0  0  0  0
  185.3240  179.0040  139.4020 C   0  0  0  0  0  2  0  0  0  0  0  0
  186.2290  176.3210  137.1590 O   0  0  0  0  0  0  0  0  0  0  0  0
  181.0030  177.7020  138.2050 O   0  0  0  0  0  1  0  0  0  0  0  0
  187.0370  177.3560  136.6810 C   0  0  2  0  0  3  0  0  0  0  0  0
  186.4280  178.1500  139.5000 O   0  0  0  0  0  0  0  0  0  0  0  0
  184.0860  178.2830  138.8500 C   0  0  2  0  0  3  0  0  0  0  0  0
  182.8080  178.2320  139.6760 C   0  0  1  0  0  0  0  0  0  0  0  0
  187.4150  178.7640  138.7270 C   0  0  0  0  0  2  0  0  0  0  0  0
  184.0550  178.5400  141.9050 C   0  0  0  0  0  3  0  0  0  0  0  0
  184.2700  178.0990  143.1350 C   0  0  0  0  0  3  0  0  0  0  0  0
  185.5310  178.3970  143.8010 C   0  0  0  0  0  3  0  0  0  0  0  0
  186.0370  177.5440  144.6770 C   0  0  0  0  0  3  0  0  0  0  0  0
  187.3280  177.8480  145.3480 C   0  0  0  0  0  2  0  0  0  0  0  0
  188.2960  176.7030  145.1230 C   0  0  0  0  0  2  0  0  0  0  0  0
  189.1660  176.9020  142.7370 C   0  0  0  0  0  2  0  0  0  0  0  0
  189.0680  178.1820  143.3290 O   0  0  0  0  0  0  0  0  0  0  0  0
  189.4080  177.1140  144.1730 C   0  0  1  0  0  0  0  0  0  0  0  0
  191.9490  178.4180  143.9540 O   0  0  0  0  0  0  0  0  0  0  0  0
  191.1470  177.1360  144.7110 P   0  0  0  0  0  0  0  0  0  0  0  0
  191.2260  177.3140  146.2110 O   0  0  0  0  0  1  0  0  0  0  0  0
  191.8930  175.6800  144.2830 O   0  0  0  0  0  1  0  0  0  0  0  0
  180.7890  179.5470  140.4820 C   0  0  0  0  0  2  0  0  0  0  0  0
  181.1900  181.2730  138.6720 C   0  0  0  0  0  0  0  0  0  0  0  0
  182.4380  181.0980  138.7470 O   0  0  0  0  0  0  0  0  0  0  0  0
  180.3110  180.5380  139.5300 N   0  0  0  0  0  2  0  0  0  0  0  0
  180.6400  182.2400  137.7050 C   0  0  0  0  0  0  0  0  0  0  0  0
  178.9320  185.2360  134.7240 Cl  0  0  0  0  0  0  0  0  0  0  0  0
  180.7490  184.3960  136.5850 C   0  0  0  0  0  3  0  0  0  0  0  0
  179.5880  184.0850  135.8710 C   0  0  0  0  0  0  0  0  0  0  0  0
  181.2740  183.4750  137.4980 C   0  0  0  0  0  3  0  0  0  0  0  0
  178.9490  182.8590  136.0730 C   0  0  0  0  0  3  0  0  0  0  0  0
  179.4710  181.9410  136.9880 C   0  0  0  0  0  3  0  0  0  0  0  0
  187.7830  176.8710  135.4510 C   0  0  0  0  0  2  0  0  0  0  0  0
  189.1530  176.8030  135.7160 O   0  0  0  0  0  0  0  0  0  0  0  0
  191.7600  176.3460  136.3010 C   0  0  0  0  0  1  0  0  0  0  0  0
  191.6910  174.5070  134.5940 C   0  0  0  0  0  1  0  0  0  0  0  0
  191.1280  173.4650  137.6100 O   0  0  0  0  0  0  0  0  0  0  0  0
  190.9510  175.1850  135.7330 C   0  0  0  0  0  0  0  0  0  0  0  0
  190.5590  174.1950  136.8140 C   0  0  0  0  0  0  0  0  0  0  0  0
  189.5230  175.5010  135.3570 C   0  0  1  0  0  3  0  0  0  0  0  0
  189.1200  174.5490  136.4460 C   0  0  1  0  0  3  0  0  0  0  0  0
  188.2950  173.3680  135.8980 C   0  0  0  0  0  0  0  0  0  0  0  0
  186.9110  173.7730  135.4310 C   0  0  0  0  0  2  0  0  0  0  0  0
  187.6860  172.4360  136.9320 C   0  0  0  0  0  2  0  0  0  0  0  0
  186.2980  172.8320  136.4540 C   0  0  0  0  0  2  0  0  0  0  0  0
  188.9690  172.6680  134.9140 F   0  0  0  0  0  0  0  0  0  0  0  0
  1 29  1  6  0  0  0
  1  3  1  0  0  0  0
  2  9  1  0  0  0  0
  3 16  1  1  0  0  0
  4 10  1  6  0  0  0
  4 14  1  0  0  0  0
  5  2  1  6  0  0  0
  5 13  1  0  0  0  0
  6 15  1  0  0  0  0
  7  5  1  0  0  0  0
  7  4  1  0  0  0  0
  8 12  1  0  0  0  0
 11 40  1  6  0  0  0
 11  9  1  0  0  0  0
 11  6  1  0  0  0  0
 13  8  1  1  0  0  0
 13 14  1  0  0  0  0
 14  1  1  0  0  0  0
 14  3  1  0  0  0  0
 15 12  1  0  0  0  0
 16 17  2  0  0  0  0
 17 18  1  0  0  0  0
 18 19  2  0  0  0  0
 19 20  1  0  0  0  0
 21 20  1  0  0  0  0
 22 23  1  0  0  0  0
 22 24  1  0  0  0  0
 23 24  1  0  0  0  0
 24 26  1  0  0  0  0
 24 21  1  0  0  0  0
 25 26  2  0  0  0  0
 26 27  1  0  0  0  0
 28 26  1  0  0  0  0
 30 31  2  0  0  0  0
 30 32  1  0  0  0  0
 32 29  1  0  0  0  0
 33 30  1  0  0  0  0
 34 36  1  0  0  0  0
 35 37  2  0  0  0  0
 36 38  2  0  0  0  0
 36 35  1  0  0  0  0
 37 33  1  0  0  0  0
 38 39  1  0  0  0  0
 39 33  2  0  0  0  0
 40 41  1  0  0  0  0
 43 45  1  0  0  0  0
 45 42  1  0  0  0  0
 45 46  1  0  0  0  0
 46 44  2  0  0  0  0
 47 41  1  0  0  0  0
 47 45  1  0  0  0  0
 47 48  1  0  0  0  0
 48 46  1  0  0  0  0
 49 48  1  0  0  0  0
 49 51  1  0  0  0  0
 50 49  1  0  0  0  0
 50 52  1  0  0  0  0
 52 51  1  0  0  0  0
 53 49  1  0  0  0  0
M  END
>  <MODEL>
9

>  <REMARK>
 VINA RESULT:      -6.3      4.258      8.375
  Name = 
  13 active torsions:
  status: ('A' for Active; 'I' for Inactive)
    1  A    between atoms: C_3  and  C_17
    2  A    between atoms: C_4  and  C_10
    3  A    between atoms: C_5  and  C_26
    4  A    between atoms: C_6  and  C_53
    5  A    between atoms: P_8  and  C_48
    6  A    between atoms: C_14  and  C_33
    7  A    between atoms: C_18  and  C_50
    8  A    between atoms: C_26  and  N_43
    9  A    between atoms: C_30  and  C_37
   10  A    between atoms: C_30  and  O_52
   11  A    between atoms: C_47  and  C_48
   12  A    between atoms: C_47  and  C_50
   13  A    between atoms: C_49  and  O_52
                            x       y       z     vdW  Elec       q    Type
                         _______ _______ _______ _____ _____    ______ ____

>  <TORSDO>
F 13

$$$$
