=
 OpenBabel11042413093D

 32 36  0  0  1  0  0  0  0  0999 V2000
  186.8910  178.3490  140.3640 C   0  0  0  0  0  0  0  0  0  0  0  0
  188.7460  176.9820  142.9880 C   0  0  0  0  0  2  0  0  0  0  0  0
  184.6000  178.6120  142.2260 C   0  0  0  0  0  0  0  0  0  0  0  0
  188.3510  178.2290  142.3340 N   0  0  0  0  0  0  0  0  0  0  0  0
  185.3500  178.4920  139.6570 S   0  0  0  0  0  0  0  0  0  0  0  0
  187.4730  176.7210  145.2730 C   0  0  1  0  0  3  0  0  0  0  0  0
  188.5500  178.0490  148.7340 C   0  0  0  0  0  1  0  0  0  0  0  0
  184.2030  178.6360  140.8600 C   0  0  0  0  0  0  0  0  0  0  0  0
  188.7340  177.5920  147.3030 C   0  0  1  0  0  3  0  0  0  0  0  0
  187.0340  178.3760  141.7810 C   0  0  0  0  0  0  0  0  0  0  0  0
  189.5850  178.3130  145.0450 C   0  0  2  0  0  3  0  0  0  0  0  0
  187.4020  177.1060  146.7570 C   0  0  0  0  0  2  0  0  0  0  0  0
  189.3380  179.2760  142.1200 C   0  0  0  0  0  1  0  0  0  0  0  0
  182.3890  178.7250  141.9900 N   0  0  0  0  0  0  0  0  0  0  0  0
  182.8730  178.7000  140.7520 N   0  0  0  0  0  0  0  0  0  0  0  0
  186.2260  177.0630  144.5850 N   0  0  0  0  0  2  0  0  0  0  0  0
  185.9340  178.5290  142.6850 C   0  0  0  0  0  0  0  0  0  0  0  0
  185.3680  179.3230  145.0510 C   0  0  0  0  0  1  0  0  0  0  0  0
  189.1940  178.7630  146.4550 C   0  0  0  0  0  2  0  0  0  0  0  0
  183.3940  178.6690  142.9020 C   0  0  0  0  0  3  0  0  0  0  0  0
  186.2430  178.4560  144.1580 C   0  0  1  0  0  3  0  0  0  0  0  0
  188.7830  177.1040  144.5220 C   0  0  2  0  0  3  0  0  0  0  0  0
  189.0770  177.2620  138.9350 C   0  0  0  0  0  2  0  0  0  0  0  0
  188.0140  178.1380  139.5100 N   0  0  0  0  0  0  0  0  0  0  0  0
  189.0500  178.5790  138.5290 C   0  0  0  0  0  2  0  0  0  0  0  0
  191.0740  177.9880  144.9920 C   0  0  0  0  0  2  0  0  0  0  0  0
  191.3350  176.6450  145.4910 N   0  0  0  0  0  0  0  0  0  0  0  0
  191.9810  174.7930  143.8400 N   0  0  0  0  0  0  0  0  0  0  0  0
  191.6890  175.6290  144.5850 C   0  0  0  0  0  0  0  0  0  0  0  0
  191.2930  176.4440  146.9420 C   0  0  0  0  0  2  0  0  0  0  0  0
  193.0740  176.1590  148.5830 N   0  0  0  0  0  1  0  0  0  0  0  0
  192.3930  175.5260  147.4660 C   0  0  0  0  0  2  0  0  0  0  0  0
  1 10  2  0  0  0  0
  3 17  2  0  0  0  0
  3 20  1  0  0  0  0
  4  2  1  0  0  0  0
  5  1  1  0  0  0  0
  5  8  1  0  0  0  0
  6 12  1  1  0  0  0
  8  3  1  0  0  0  0
  9  7  1  1  0  0  0
 10  4  1  0  0  0  0
 10 17  1  0  0  0  0
 11 26  1  1  0  0  0
 11 19  1  0  0  0  0
 12  9  1  0  0  0  0
 13  4  1  0  0  0  0
 14 20  2  0  0  0  0
 15  8  2  0  0  0  0
 15 14  1  0  0  0  0
 16  6  1  0  0  0  0
 17 21  1  0  0  0  0
 19  9  1  0  0  0  0
 21 16  1  0  0  0  0
 21 18  1  1  0  0  0
 22  2  1  6  0  0  0
 22 11  1  0  0  0  0
 22  6  1  0  0  0  0
 23 24  1  0  0  0  0
 24  1  1  0  0  0  0
 25 23  1  0  0  0  0
 25 24  1  0  0  0  0
 26 27  1  0  0  0  0
 27 30  1  0  0  0  0
 28 29  3  0  0  0  0
 29 27  1  0  0  0  0
 30 32  1  0  0  0  0
 32 31  1  0  0  0  0
M  END
>  <MODEL>
1

>  <REMARK>
 VINA RESULT:      -6.9      0.000      0.000
  Name = 
  6 active torsions:
  status: ('A' for Active; 'I' for Inactive)
    1  A    between atoms: C_1  and  N_20
    2  A    between atoms: C_13  and  C_24
    3  A    between atoms: C_17  and  C_30
    4  A    between atoms: C_24  and  N_27
    5  A    between atoms: N_27  and  C_30
    6  A    between atoms: N_27  and  C_31
                            x       y       z     vdW  Elec       q    Type
                         _______ _______ _______ _____ _____    ______ ____

>  <TORSDO>
F 6

$$$$
=
 OpenBabel11042413093D

 32 36  0  0  1  0  0  0  0  0999 V2000
  185.1700  178.5380  140.6600 C   0  0  0  0  0  0  0  0  0  0  0  0
  187.8490  177.0110  142.3000 C   0  0  0  0  0  2  0  0  0  0  0  0
  183.7860  178.7360  143.2730 C   0  0  0  0  0  0  0  0  0  0  0  0
  187.2740  178.2950  141.9030 N   0  0  0  0  0  0  0  0  0  0  0  0
  183.4820  178.7390  140.6110 S   0  0  0  0  0  0  0  0  0  0  0  0
  187.5500  176.6490  144.8850 C   0  0  1  0  0  3  0  0  0  0  0  0
  189.9240  177.7810  147.7120 C   0  0  0  0  0  1  0  0  0  0  0  0
  182.8940  178.8370  142.1700 C   0  0  0  0  0  0  0  0  0  0  0  0
  189.5250  177.3960  146.3030 C   0  0  1  0  0  3  0  0  0  0  0  0
  185.8510  178.4900  141.9100 C   0  0  0  0  0  0  0  0  0  0  0  0
  189.4610  178.2210  143.9240 C   0  0  2  0  0  3  0  0  0  0  0  0
  188.0710  176.9580  146.2960 C   0  0  0  0  0  2  0  0  0  0  0  0
  188.1350  179.3390  141.3670 C   0  0  0  0  0  1  0  0  0  0  0  0
  181.6610  178.8920  143.9170 N   0  0  0  0  0  0  0  0  0  0  0  0
  181.6280  178.9240  142.5880 N   0  0  0  0  0  0  0  0  0  0  0  0
  186.1460  177.0440  144.7500 N   0  0  0  0  0  2  0  0  0  0  0  0
  185.1910  178.6110  143.1760 C   0  0  0  0  0  0  0  0  0  0  0  0
  185.6100  179.2890  145.6070 C   0  0  0  0  0  1  0  0  0  0  0  0
  189.6600  178.6040  145.3940 C   0  0  0  0  0  2  0  0  0  0  0  0
  182.9380  178.7750  144.3650 C   0  0  0  0  0  3  0  0  0  0  0  0
  186.0430  178.4570  144.4090 C   0  0  1  0  0  3  0  0  0  0  0  0
  188.4800  177.0530  143.7020 C   0  0  2  0  0  3  0  0  0  0  0  0
  187.1230  178.1170  138.6570 C   0  0  0  0  0  2  0  0  0  0  0  0
  185.8690  178.3560  139.4290 N   0  0  0  0  0  0  0  0  0  0  0  0
  185.9560  178.2720  137.9410 C   0  0  0  0  0  2  0  0  0  0  0  0
  190.8020  177.8790  143.2850 C   0  0  0  0  0  2  0  0  0  0  0  0
  190.7240  176.6290  142.5430 N   0  0  0  0  0  0  0  0  0  0  0  0
  190.5380  176.6950  139.9860 N   0  0  0  0  0  0  0  0  0  0  0  0
  190.6220  176.6660  141.1390 C   0  0  0  0  0  0  0  0  0  0  0  0
  190.8410  175.3820  143.3030 C   0  0  0  0  0  2  0  0  0  0  0  0
  192.4010  174.0670  144.6370 N   0  0  0  0  0  1  0  0  0  0  0  0
  191.9300  175.4150  144.3720 C   0  0  0  0  0  2  0  0  0  0  0  0
  1 10  2  0  0  0  0
  3 20  1  0  0  0  0
  4 10  1  0  0  0  0
  4  2  1  0  0  0  0
  5  1  1  0  0  0  0
  5  8  1  0  0  0  0
  6 12  1  1  0  0  0
  8 15  2  0  0  0  0
  8  3  1  0  0  0  0
  9  7  1  1  0  0  0
 10 17  1  0  0  0  0
 11 26  1  1  0  0  0
 11 19  1  0  0  0  0
 12  9  1  0  0  0  0
 13  4  1  0  0  0  0
 14 20  2  0  0  0  0
 15 14  1  0  0  0  0
 16  6  1  0  0  0  0
 17  3  2  0  0  0  0
 17 21  1  0  0  0  0
 19  9  1  0  0  0  0
 21 16  1  0  0  0  0
 21 18  1  1  0  0  0
 22  2  1  6  0  0  0
 22 11  1  0  0  0  0
 22  6  1  0  0  0  0
 23 24  1  0  0  0  0
 24  1  1  0  0  0  0
 25 23  1  0  0  0  0
 25 24  1  0  0  0  0
 27 26  1  0  0  0  0
 27 30  1  0  0  0  0
 28 29  3  0  0  0  0
 29 27  1  0  0  0  0
 30 32  1  0  0  0  0
 32 31  1  0  0  0  0
M  END
>  <MODEL>
2

>  <REMARK>
 VINA RESULT:      -6.5      1.682      2.176
  Name = 
  6 active torsions:
  status: ('A' for Active; 'I' for Inactive)
    1  A    between atoms: C_1  and  N_20
    2  A    between atoms: C_13  and  C_24
    3  A    between atoms: C_17  and  C_30
    4  A    between atoms: C_24  and  N_27
    5  A    between atoms: N_27  and  C_30
    6  A    between atoms: N_27  and  C_31
                            x       y       z     vdW  Elec       q    Type
                         _______ _______ _______ _____ _____    ______ ____

>  <TORSDO>
F 6

$$$$
=
 OpenBabel11042413093D

 32 36  0  0  1  0  0  0  0  0999 V2000
  181.9390  173.3970  137.2770 C   0  0  0  0  0  0  0  0  0  0  0  0
  183.1200  176.6360  136.7160 C   0  0  0  0  0  2  0  0  0  0  0  0
  184.5290  172.3640  136.2740 C   0  0  0  0  0  0  0  0  0  0  0  0
  183.0640  175.5410  137.6840 N   0  0  0  0  0  0  0  0  0  0  0  0
  181.9560  171.7820  136.7430 S   0  0  0  0  0  0  0  0  0  0  0  0
  185.5340  176.8100  135.6920 C   0  0  1  0  0  3  0  0  0  0  0  0
  188.5340  178.8150  137.0640 C   0  0  0  0  0  1  0  0  0  0  0  0
  183.4940  171.3890  136.2280 C   0  0  0  0  0  0  0  0  0  0  0  0
  187.0770  178.4510  136.8730 C   0  0  1  0  0  3  0  0  0  0  0  0
  183.1310  174.1750  137.2450 C   0  0  0  0  0  0  0  0  0  0  0  0
  184.9830  177.7810  138.1000 C   0  0  2  0  0  3  0  0  0  0  0  0
  186.9720  177.3150  135.8690 C   0  0  0  0  0  2  0  0  0  0  0  0
  182.8010  175.8290  139.0860 C   0  0  0  0  0  1  0  0  0  0  0  0
  185.2090  170.4520  135.3590 N   0  0  0  0  0  0  0  0  0  0  0  0
  183.9320  170.2560  135.6700 N   0  0  0  0  0  0  0  0  0  0  0  0
  185.5130  175.3630  135.4690 N   0  0  0  0  0  2  0  0  0  0  0  0
  184.3920  173.6740  136.7860 C   0  0  0  0  0  0  0  0  0  0  0  0
  186.9120  174.0530  137.0140 C   0  0  0  0  0  1  0  0  0  0  0  0
  186.5000  177.9720  138.1910 C   0  0  0  0  0  2  0  0  0  0  0  0
  185.6030  171.7060  135.7010 C   0  0  0  0  0  3  0  0  0  0  0  0
  185.5400  174.6490  136.7380 C   0  0  1  0  0  3  0  0  0  0  0  0
  184.4820  177.3490  136.7080 C   0  0  2  0  0  3  0  0  0  0  0  0
  179.5720  174.0860  138.6650 C   0  0  0  0  0  2  0  0  0  0  0  0
  180.6960  173.9620  137.6910 N   0  0  0  0  0  0  0  0  0  0  0  0
  179.5050  174.8460  137.5180 C   0  0  0  0  0  2  0  0  0  0  0  0
  184.2680  179.0610  138.5170 C   0  0  0  0  0  2  0  0  0  0  0  0
  183.8970  179.0200  139.9240 N   0  0  0  0  0  0  0  0  0  0  0  0
  185.7350  179.0810  141.7110 N   0  0  0  0  0  0  0  0  0  0  0  0
  184.9060  179.0540  140.9050 C   0  0  0  0  0  0  0  0  0  0  0  0
  182.4680  179.0280  140.2480 C   0  0  0  0  0  2  0  0  0  0  0  0
  180.9310  179.3150  142.1180 N   0  0  0  0  0  1  0  0  0  0  0  0
  182.1650  178.6730  141.7010 C   0  0  0  0  0  2  0  0  0  0  0  0
  1 24  1  0  0  0  0
  2  4  1  0  0  0  0
  3 17  2  0  0  0  0
  4 13  1  0  0  0  0
  5  1  1  0  0  0  0
  6 12  1  1  0  0  0
  6 22  1  0  0  0  0
  8  3  1  0  0  0  0
  8  5  1  0  0  0  0
  9  7  1  1  0  0  0
  9 19  1  0  0  0  0
 10  1  2  0  0  0  0
 10  4  1  0  0  0  0
 11 19  1  0  0  0  0
 11 26  1  6  0  0  0
 12  9  1  0  0  0  0
 14 15  1  0  0  0  0
 14 20  2  0  0  0  0
 15  8  2  0  0  0  0
 16  6  1  0  0  0  0
 16 21  1  0  0  0  0
 17 10  1  0  0  0  0
 20  3  1  0  0  0  0
 21 17  1  0  0  0  0
 21 18  1  6  0  0  0
 22  2  1  1  0  0  0
 22 11  1  0  0  0  0
 24 23  1  0  0  0  0
 25 24  1  0  0  0  0
 25 23  1  0  0  0  0
 26 27  1  0  0  0  0
 27 30  1  0  0  0  0
 27 29  1  0  0  0  0
 29 28  3  0  0  0  0
 30 32  1  0  0  0  0
 32 31  1  0  0  0  0
M  END
>  <MODEL>
3

>  <REMARK>
 VINA RESULT:      -6.1      5.810      9.543
  Name = 
  6 active torsions:
  status: ('A' for Active; 'I' for Inactive)
    1  A    between atoms: C_1  and  N_20
    2  A    between atoms: C_13  and  C_24
    3  A    between atoms: C_17  and  C_30
    4  A    between atoms: C_24  and  N_27
    5  A    between atoms: N_27  and  C_30
    6  A    between atoms: N_27  and  C_31
                            x       y       z     vdW  Elec       q    Type
                         _______ _______ _______ _____ _____    ______ ____

>  <TORSDO>
F 6

$$$$
=
 OpenBabel11042413093D

 32 36  0  0  1  0  0  0  0  0999 V2000
  186.4940  178.3900  140.5840 C   0  0  0  0  0  0  0  0  0  0  0  0
  188.6460  177.0520  142.9880 C   0  0  0  0  0  2  0  0  0  0  0  0
  184.4090  178.5980  142.6800 C   0  0  0  0  0  0  0  0  0  0  0  0
  188.1580  178.2930  142.3870 N   0  0  0  0  0  0  0  0  0  0  0  0
  184.8850  178.5030  140.0450 S   0  0  0  0  0  0  0  0  0  0  0  0
  187.6290  176.7570  145.3930 C   0  0  1  0  0  3  0  0  0  0  0  0
  189.0410  178.0940  148.7280 C   0  0  0  0  0  1  0  0  0  0  0  0
  183.8690  178.6190  141.3640 C   0  0  0  0  0  0  0  0  0  0  0  0
  189.0810  177.6470  147.2820 C   0  0  1  0  0  3  0  0  0  0  0  0
  186.7870  178.4150  141.9780 C   0  0  0  0  0  0  0  0  0  0  0  0
  189.6720  178.3930  144.9510 C   0  0  2  0  0  3  0  0  0  0  0  0
  187.7080  177.1350  146.8780 C   0  0  0  0  0  2  0  0  0  0  0  0
  189.0950  179.3620  142.0750 C   0  0  0  0  0  1  0  0  0  0  0  0
  182.1840  178.6660  142.6810 N   0  0  0  0  0  0  0  0  0  0  0  0
  182.5340  178.6550  141.3980 N   0  0  0  0  0  0  0  0  0  0  0  0
  186.3090  177.0750  144.8440 N   0  0  0  0  0  2  0  0  0  0  0  0
  185.7860  178.5420  142.9940 C   0  0  0  0  0  0  0  0  0  0  0  0
  185.4600  179.3150  145.4120 C   0  0  0  0  0  1  0  0  0  0  0  0
  189.4230  178.8300  146.3970 C   0  0  0  0  0  2  0  0  0  0  0  0
  183.2820  178.6280  143.4800 C   0  0  0  0  0  3  0  0  0  0  0  0
  186.2520  178.4690  144.4260 C   0  0  1  0  0  3  0  0  0  0  0  0
  188.8430  177.1700  144.5090 C   0  0  2  0  0  3  0  0  0  0  0  0
  188.6770  178.7120  138.8140 C   0  0  0  0  0  2  0  0  0  0  0  0
  187.5240  178.2050  139.6140 N   0  0  0  0  0  0  0  0  0  0  0  0
  188.2840  177.4080  138.6060 C   0  0  0  0  0  2  0  0  0  0  0  0
  191.1530  178.1000  144.7390 C   0  0  0  0  0  2  0  0  0  0  0  0
  191.4160  176.6690  144.7950 N   0  0  0  0  0  0  0  0  0  0  0  0
  191.8980  175.5680  147.0610 N   0  0  0  0  0  0  0  0  0  0  0  0
  191.6800  176.0640  146.0390 C   0  0  0  0  0  0  0  0  0  0  0  0
  191.3080  175.9110  143.5460 C   0  0  0  0  0  2  0  0  0  0  0  0
  191.0050  176.3830  141.1730 N   0  0  0  0  0  1  0  0  0  0  0  0
  191.8430  176.6580  142.3270 C   0  0  0  0  0  2  0  0  0  0  0  0
  1 10  2  0  0  0  0
  3 17  2  0  0  0  0
  3 20  1  0  0  0  0
  4  2  1  0  0  0  0
  5  1  1  0  0  0  0
  5  8  1  0  0  0  0
  6 12  1  1  0  0  0
  8 15  2  0  0  0  0
  8  3  1  0  0  0  0
  9  7  1  1  0  0  0
 10  4  1  0  0  0  0
 10 17  1  0  0  0  0
 11 26  1  1  0  0  0
 11 19  1  0  0  0  0
 12  9  1  0  0  0  0
 13  4  1  0  0  0  0
 14 20  2  0  0  0  0
 15 14  1  0  0  0  0
 16  6  1  0  0  0  0
 17 21  1  0  0  0  0
 19  9  1  0  0  0  0
 21 16  1  0  0  0  0
 21 18  1  1  0  0  0
 22  2  1  6  0  0  0
 22 11  1  0  0  0  0
 22  6  1  0  0  0  0
 23 24  1  0  0  0  0
 24  1  1  0  0  0  0
 25 23  1  0  0  0  0
 25 24  1  0  0  0  0
 26 27  1  0  0  0  0
 27 29  1  0  0  0  0
 29 28  3  0  0  0  0
 30 27  1  0  0  0  0
 31 32  1  0  0  0  0
 32 30  1  0  0  0  0
M  END
>  <MODEL>
4

>  <REMARK>
 VINA RESULT:      -5.9      0.946      1.946
  Name = 
  6 active torsions:
  status: ('A' for Active; 'I' for Inactive)
    1  A    between atoms: C_1  and  N_20
    2  A    between atoms: C_13  and  C_24
    3  A    between atoms: C_17  and  C_30
    4  A    between atoms: C_24  and  N_27
    5  A    between atoms: N_27  and  C_30
    6  A    between atoms: N_27  and  C_31
                            x       y       z     vdW  Elec       q    Type
                         _______ _______ _______ _____ _____    ______ ____

>  <TORSDO>
F 6

$$$$
=
 OpenBabel11042413093D

 32 36  0  0  1  0  0  0  0  0999 V2000
  187.9090  177.7000  139.2370 C   0  0  0  0  0  0  0  0  0  0  0  0
  188.3330  176.2130  142.3690 C   0  0  0  0  0  2  0  0  0  0  0  0
  185.4580  179.0030  140.2760 C   0  0  0  0  0  0  0  0  0  0  0  0
  188.6200  177.4020  141.5680 N   0  0  0  0  0  0  0  0  0  0  0  0
  186.7870  178.2410  138.0780 S   0  0  0  0  0  0  0  0  0  0  0  0
  186.4780  176.7520  144.1500 C   0  0  1  0  0  3  0  0  0  0  0  0
  186.9700  178.1600  147.7110 C   0  0  0  0  0  1  0  0  0  0  0  0
  185.4900  178.9470  138.8550 C   0  0  0  0  0  0  0  0  0  0  0  0
  187.3600  177.4530  146.4310 C   0  0  1  0  0  3  0  0  0  0  0  0
  187.6560  177.8970  140.6250 C   0  0  0  0  0  0  0  0  0  0  0  0
  189.0010  177.4860  144.5220 C   0  0  2  0  0  3  0  0  0  0  0  0
  186.1480  177.3640  145.5190 C   0  0  0  0  0  2  0  0  0  0  0  0
  189.9410  178.0110  141.6260 C   0  0  0  0  0  1  0  0  0  0  0  0
  183.6000  179.8140  139.3550 N   0  0  0  0  0  0  0  0  0  0  0  0
  184.3620  179.4360  138.3330 N   0  0  0  0  0  0  0  0  0  0  0  0
  185.6850  177.3830  143.0930 N   0  0  0  0  0  2  0  0  0  0  0  0
  186.4860  178.5490  141.1320 C   0  0  0  0  0  0  0  0  0  0  0  0
  185.6250  179.8430  143.1640 C   0  0  0  0  0  1  0  0  0  0  0  0
  188.4310  178.2550  145.7170 C   0  0  0  0  0  2  0  0  0  0  0  0
  184.2220  179.5660  140.5380 C   0  0  0  0  0  3  0  0  0  0  0  0
  186.3290  178.6050  142.6300 C   0  0  1  0  0  3  0  0  0  0  0  0
  187.9890  176.5520  143.8300 C   0  0  2  0  0  3  0  0  0  0  0  0
  189.7380  175.7480  138.3160 C   0  0  0  0  0  2  0  0  0  0  0  0
  189.0640  176.9930  138.7880 N   0  0  0  0  0  0  0  0  0  0  0  0
  190.5110  176.8820  138.4390 C   0  0  0  0  0  2  0  0  0  0  0  0
  190.2190  176.6750  144.9520 C   0  0  0  0  0  2  0  0  0  0  0  0
  191.2580  177.5400  145.4950 N   0  0  0  0  0  0  0  0  0  0  0  0
  192.0560  179.5580  144.1280 N   0  0  0  0  0  0  0  0  0  0  0  0
  191.6960  178.6470  144.7450 C   0  0  0  0  0  0  0  0  0  0  0  0
  191.7390  177.2520  146.8480 C   0  0  0  0  0  2  0  0  0  0  0  0
  192.8060  175.6280  148.3220 N   0  0  0  0  0  1  0  0  0  0  0  0
  192.0560  175.7780  147.0860 C   0  0  0  0  0  2  0  0  0  0  0  0
  1 10  2  0  0  0  0
  3 20  1  0  0  0  0
  3 17  2  0  0  0  0
  4 13  1  0  0  0  0
  4  2  1  0  0  0  0
  5  8  1  0  0  0  0
  5  1  1  0  0  0  0
  6 12  1  1  0  0  0
  8  3  1  0  0  0  0
  9  7  1  1  0  0  0
 10 17  1  0  0  0  0
 10  4  1  0  0  0  0
 11 26  1  1  0  0  0
 11 19  1  0  0  0  0
 12  9  1  0  0  0  0
 14 20  2  0  0  0  0
 15  8  2  0  0  0  0
 15 14  1  0  0  0  0
 16  6  1  0  0  0  0
 17 21  1  0  0  0  0
 19  9  1  0  0  0  0
 21 16  1  0  0  0  0
 21 18  1  6  0  0  0
 22  2  1  6  0  0  0
 22  6  1  0  0  0  0
 22 11  1  0  0  0  0
 23 25  1  0  0  0  0
 23 24  1  0  0  0  0
 24  1  1  0  0  0  0
 25 24  1  0  0  0  0
 26 27  1  0  0  0  0
 27 30  1  0  0  0  0
 28 29  3  0  0  0  0
 29 27  1  0  0  0  0
 30 32  1  0  0  0  0
 32 31  1  0  0  0  0
M  END
>  <MODEL>
5

>  <REMARK>
 VINA RESULT:      -5.9      1.577      1.976
  Name = 
  6 active torsions:
  status: ('A' for Active; 'I' for Inactive)
    1  A    between atoms: C_1  and  N_20
    2  A    between atoms: C_13  and  C_24
    3  A    between atoms: C_17  and  C_30
    4  A    between atoms: C_24  and  N_27
    5  A    between atoms: N_27  and  C_30
    6  A    between atoms: N_27  and  C_31
                            x       y       z     vdW  Elec       q    Type
                         _______ _______ _______ _____ _____    ______ ____

>  <TORSDO>
F 6

$$$$
=
 OpenBabel11042413093D

 32 36  0  0  1  0  0  0  0  0999 V2000
  181.3750  176.5220  137.4420 C   0  0  0  0  0  0  0  0  0  0  0  0
  184.4380  176.8270  135.7910 C   0  0  0  0  0  2  0  0  0  0  0  0
  181.6340  173.5780  137.2110 C   0  0  0  0  0  0  0  0  0  0  0  0
  183.8020  176.6640  137.0980 N   0  0  0  0  0  0  0  0  0  0  0  0
  179.9400  175.6200  137.5870 S   0  0  0  0  0  0  0  0  0  0  0  0
  185.5660  174.5720  135.0500 C   0  0  1  0  0  3  0  0  0  0  0  0
  189.1420  173.3550  135.8450 C   0  0  0  0  0  1  0  0  0  0  0  0
  180.2930  173.9960  137.4370 C   0  0  0  0  0  0  0  0  0  0  0  0
  188.0270  174.3610  135.6540 C   0  0  1  0  0  3  0  0  0  0  0  0
  182.6200  175.8600  137.2380 C   0  0  0  0  0  0  0  0  0  0  0  0
  186.7280  176.1820  136.8110 C   0  0  2  0  0  3  0  0  0  0  0  0
  186.7800  173.6410  135.1700 C   0  0  0  0  0  2  0  0  0  0  0  0
  184.2870  177.4270  138.2380 C   0  0  0  0  0  1  0  0  0  0  0  0
  180.2040  171.8730  137.1960 N   0  0  0  0  0  0  0  0  0  0  0  0
  179.4600  172.9520  137.4180 N   0  0  0  0  0  0  0  0  0  0  0  0
  184.3320  173.8690  135.4090 N   0  0  0  0  0  2  0  0  0  0  0  0
  182.7550  174.4370  137.1510 C   0  0  0  0  0  0  0  0  0  0  0  0
  184.4530  172.5530  137.4860 C   0  0  0  0  0  1  0  0  0  0  0  0
  187.7080  175.0170  136.9840 C   0  0  0  0  0  2  0  0  0  0  0  0
  181.5130  172.2090  137.0610 C   0  0  0  0  0  3  0  0  0  0  0  0
  184.1300  173.8970  136.8510 C   0  0  1  0  0  3  0  0  0  0  0  0
  185.7270  176.0000  135.6530 C   0  0  2  0  0  3  0  0  0  0  0  0
  181.0710  179.2340  138.1850 C   0  0  0  0  0  2  0  0  0  0  0  0
  181.2880  177.9460  137.4650 N   0  0  0  0  0  0  0  0  0  0  0  0
  181.3150  179.2970  136.8310 C   0  0  0  0  0  2  0  0  0  0  0  0
  187.4930  177.4860  136.6130 C   0  0  0  0  0  2  0  0  0  0  0  0
  188.3950  177.7380  137.7280 N   0  0  0  0  0  0  0  0  0  0  0  0
  187.4260  178.4580  139.9910 N   0  0  0  0  0  0  0  0  0  0  0  0
  187.8630  178.1330  138.9700 C   0  0  0  0  0  0  0  0  0  0  0  0
  189.8220  177.4820  137.5150 C   0  0  0  0  0  2  0  0  0  0  0  0
  190.8820  175.5050  138.4710 N   0  0  0  0  0  1  0  0  0  0  0  0
  190.5280  176.8900  138.7310 C   0  0  0  0  0  2  0  0  0  0  0  0
  1 24  1  0  0  0  0
  1  5  1  0  0  0  0
  2  4  1  0  0  0  0
  3  8  1  0  0  0  0
  4 10  1  0  0  0  0
  4 13  1  0  0  0  0
  6 12  1  1  0  0  0
  6 16  1  0  0  0  0
  6 22  1  0  0  0  0
  8  5  1  0  0  0  0
  9  7  1  1  0  0  0
  9 19  1  0  0  0  0
 10  1  2  0  0  0  0
 11 26  1  6  0  0  0
 11 19  1  0  0  0  0
 12  9  1  0  0  0  0
 14 15  1  0  0  0  0
 15  8  2  0  0  0  0
 16 21  1  0  0  0  0
 17  3  2  0  0  0  0
 17 10  1  0  0  0  0
 20 14  2  0  0  0  0
 20  3  1  0  0  0  0
 21 17  1  0  0  0  0
 21 18  1  6  0  0  0
 22  2  1  1  0  0  0
 22 11  1  0  0  0  0
 24 23  1  0  0  0  0
 25 24  1  0  0  0  0
 25 23  1  0  0  0  0
 26 27  1  0  0  0  0
 27 29  1  0  0  0  0
 29 28  3  0  0  0  0
 30 27  1  0  0  0  0
 30 32  1  0  0  0  0
 31 32  1  0  0  0  0
M  END
>  <MODEL>
6

>  <REMARK>
 VINA RESULT:      -5.8      5.900      8.907
  Name = 
  6 active torsions:
  status: ('A' for Active; 'I' for Inactive)
    1  A    between atoms: C_1  and  N_20
    2  A    between atoms: C_13  and  C_24
    3  A    between atoms: C_17  and  C_30
    4  A    between atoms: C_24  and  N_27
    5  A    between atoms: N_27  and  C_30
    6  A    between atoms: N_27  and  C_31
                            x       y       z     vdW  Elec       q    Type
                         _______ _______ _______ _____ _____    ______ ____

>  <TORSDO>
F 6

$$$$
=
 OpenBabel11042413093D

 32 36  0  0  1  0  0  0  0  0999 V2000
  180.5520  174.5040  138.4300 C   0  0  0  0  0  0  0  0  0  0  0  0
  182.4380  177.3480  137.6860 C   0  0  0  0  0  2  0  0  0  0  0  0
  182.2350  172.9850  136.5220 C   0  0  0  0  0  0  0  0  0  0  0  0
  182.3540  176.1670  138.5450 N   0  0  0  0  0  0  0  0  0  0  0  0
  179.8970  173.0550  137.8280 S   0  0  0  0  0  0  0  0  0  0  0  0
  184.3320  177.0260  135.8930 C   0  0  1  0  0  3  0  0  0  0  0  0
  188.0770  177.8920  136.2430 C   0  0  0  0  0  1  0  0  0  0  0  0
  180.9900  172.3490  136.7840 C   0  0  0  0  0  0  0  0  0  0  0  0
  186.5980  177.9720  136.5530 C   0  0  1  0  0  3  0  0  0  0  0  0
  181.8520  174.9250  138.0290 C   0  0  0  0  0  0  0  0  0  0  0  0
  184.9020  177.7040  138.3950 C   0  0  2  0  0  3  0  0  0  0  0  0
  185.8340  177.0870  135.5840 C   0  0  0  0  0  2  0  0  0  0  0  0
  182.6520  176.2840  139.9650 C   0  0  0  0  0  1  0  0  0  0  0  0
  181.9610  171.1360  135.3130 N   0  0  0  0  0  0  0  0  0  0  0  0
  180.8540  171.2460  136.0410 N   0  0  0  0  0  0  0  0  0  0  0  0
  183.7930  175.6950  135.6050 N   0  0  0  0  0  2  0  0  0  0  0  0
  182.6810  174.1820  137.1280 C   0  0  0  0  0  0  0  0  0  0  0  0
  185.1300  173.8210  136.4790 C   0  0  0  0  0  1  0  0  0  0  0  0
  186.3500  177.4600  137.9590 C   0  0  0  0  0  2  0  0  0  0  0  0
  182.8120  172.1630  135.5710 C   0  0  0  0  0  3  0  0  0  0  0  0
  183.9980  174.8040  136.7390 C   0  0  1  0  0  3  0  0  0  0  0  0
  183.8780  177.6570  137.2430 C   0  0  2  0  0  3  0  0  0  0  0  0
  178.9310  176.5320  139.5540 C   0  0  0  0  0  2  0  0  0  0  0  0
  179.7450  175.3100  139.2880 N   0  0  0  0  0  0  0  0  0  0  0  0
  179.0720  175.6260  140.5830 C   0  0  0  0  0  2  0  0  0  0  0  0
  184.7900  179.0450  139.1120 C   0  0  0  0  0  2  0  0  0  0  0  0
  185.0700  178.9030  140.5340 N   0  0  0  0  0  0  0  0  0  0  0  0
  187.4970  178.6280  141.3160 N   0  0  0  0  0  0  0  0  0  0  0  0
  186.4020  178.7520  140.9630 C   0  0  0  0  0  0  0  0  0  0  0  0
  183.9400  179.0100  141.4600 C   0  0  0  0  0  2  0  0  0  0  0  0
  183.2880  178.9910  143.8090 N   0  0  0  0  0  1  0  0  0  0  0  0
  184.2260  178.4410  142.8470 C   0  0  0  0  0  2  0  0  0  0  0  0
  1 24  1  0  0  0  0
  2  4  1  0  0  0  0
  3  8  1  0  0  0  0
  3 17  2  0  0  0  0
  4 13  1  0  0  0  0
  5  1  1  0  0  0  0
  6 12  1  1  0  0  0
  6 22  1  0  0  0  0
  8  5  1  0  0  0  0
  9  7  1  6  0  0  0
  9 19  1  0  0  0  0
 10  1  2  0  0  0  0
 10  4  1  0  0  0  0
 11 26  1  6  0  0  0
 12  9  1  0  0  0  0
 14 20  2  0  0  0  0
 14 15  1  0  0  0  0
 15  8  2  0  0  0  0
 16  6  1  0  0  0  0
 16 21  1  0  0  0  0
 17 10  1  0  0  0  0
 19 11  1  0  0  0  0
 20  3  1  0  0  0  0
 21 18  1  6  0  0  0
 21 17  1  0  0  0  0
 22  2  1  1  0  0  0
 22 11  1  0  0  0  0
 23 25  1  0  0  0  0
 24 23  1  0  0  0  0
 24 25  1  0  0  0  0
 26 27  1  0  0  0  0
 27 29  1  0  0  0  0
 27 30  1  0  0  0  0
 29 28  3  0  0  0  0
 30 32  1  0  0  0  0
 32 31  1  0  0  0  0
M  END
>  <MODEL>
7

>  <REMARK>
 VINA RESULT:      -5.7      5.191      9.131
  Name = 
  6 active torsions:
  status: ('A' for Active; 'I' for Inactive)
    1  A    between atoms: C_1  and  N_20
    2  A    between atoms: C_13  and  C_24
    3  A    between atoms: C_17  and  C_30
    4  A    between atoms: C_24  and  N_27
    5  A    between atoms: N_27  and  C_30
    6  A    between atoms: N_27  and  C_31
                            x       y       z     vdW  Elec       q    Type
                         _______ _______ _______ _____ _____    ______ ____

>  <TORSDO>
F 6

$$$$
=
 OpenBabel11042413093D

 32 36  0  0  1  0  0  0  0  0999 V2000
  185.9860  178.6060  141.0920 C   0  0  0  0  0  0  0  0  0  0  0  0
  183.1310  176.9250  139.9870 C   0  0  0  0  0  2  0  0  0  0  0  0
  187.3040  177.8830  138.5380 C   0  0  0  0  0  0  0  0  0  0  0  0
  183.8330  178.2080  139.9810 N   0  0  0  0  0  0  0  0  0  0  0  0
  187.6870  178.6480  141.0760 S   0  0  0  0  0  0  0  0  0  0  0  0
  183.3180  175.7840  137.6280 C   0  0  1  0  0  3  0  0  0  0  0  0
  180.9740  176.2460  134.5950 C   0  0  0  0  0  1  0  0  0  0  0  0
  188.2340  178.2210  139.5590 C   0  0  0  0  0  0  0  0  0  0  0  0
  181.3780  176.2620  136.0540 C   0  0  1  0  0  3  0  0  0  0  0  0
  185.2670  178.2540  139.9140 C   0  0  0  0  0  0  0  0  0  0  0  0
  181.5890  177.7470  138.0770 C   0  0  2  0  0  3  0  0  0  0  0  0
  182.7860  175.7080  136.1900 C   0  0  0  0  0  2  0  0  0  0  0  0
  183.0880  179.4420  140.1810 C   0  0  0  0  0  1  0  0  0  0  0  0
  189.4140  177.6350  137.8740 N   0  0  0  0  0  0  0  0  0  0  0  0
  189.4900  178.0580  139.1320 N   0  0  0  0  0  0  0  0  0  0  0  0
  184.7560  176.0640  137.6370 N   0  0  0  0  0  2  0  0  0  0  0  0
  185.8970  177.9290  138.6700 C   0  0  0  0  0  0  0  0  0  0  0  0
  185.4690  177.8900  136.1470 C   0  0  0  0  0  1  0  0  0  0  0  0
  181.3820  177.6920  136.5610 C   0  0  0  0  0  2  0  0  0  0  0  0
  188.1190  177.5140  137.4830 C   0  0  0  0  0  3  0  0  0  0  0  0
  184.9980  177.4970  137.5400 C   0  0  1  0  0  3  0  0  0  0  0  0
  182.4650  176.6090  138.6370 C   0  0  2  0  0  3  0  0  0  0  0  0
  184.8960  179.7880  143.4190 C   0  0  0  0  0  2  0  0  0  0  0  0
  185.3110  178.8660  142.3220 N   0  0  0  0  0  0  0  0  0  0  0  0
  184.5050  178.4700  143.5150 C   0  0  0  0  0  2  0  0  0  0  0  0
  180.2420  177.7410  138.7910 C   0  0  0  0  0  2  0  0  0  0  0  0
  179.9190  179.0620  139.3100 N   0  0  0  0  0  0  0  0  0  0  0  0
  180.1070  181.1010  137.7650 N   0  0  0  0  0  0  0  0  0  0  0  0
  180.0220  180.1810  138.4620 C   0  0  0  0  0  0  0  0  0  0  0  0
  179.4180  179.1450  140.6840 C   0  0  0  0  0  2  0  0  0  0  0  0
  180.4240  180.3070  142.5780 N   0  0  0  0  0  1  0  0  0  0  0  0
  179.6710  180.4950  141.3500 C   0  0  0  0  0  2  0  0  0  0  0  0
  1 24  1  0  0  0  0
  3 17  2  0  0  0  0
  3  8  1  0  0  0  0
  4  2  1  0  0  0  0
  4 13  1  0  0  0  0
  5  1  1  0  0  0  0
  6 12  1  6  0  0  0
  6 16  1  0  0  0  0
  6 22  1  0  0  0  0
  8  5  1  0  0  0  0
  9  7  1  6  0  0  0
  9 12  1  0  0  0  0
  9 19  1  0  0  0  0
 10  4  1  0  0  0  0
 10  1  2  0  0  0  0
 11 22  1  0  0  0  0
 11 26  1  1  0  0  0
 14 15  1  0  0  0  0
 15  8  2  0  0  0  0
 17 10  1  0  0  0  0
 19 11  1  0  0  0  0
 20 14  2  0  0  0  0
 20  3  1  0  0  0  0
 21 18  1  6  0  0  0
 21 16  1  0  0  0  0
 21 17  1  0  0  0  0
 22  2  1  1  0  0  0
 23 25  1  0  0  0  0
 24 23  1  0  0  0  0
 24 25  1  0  0  0  0
 26 27  1  0  0  0  0
 27 30  1  0  0  0  0
 28 29  3  0  0  0  0
 29 27  1  0  0  0  0
 30 32  1  0  0  0  0
 32 31  1  0  0  0  0
M  END
>  <MODEL>
8

>  <REMARK>
 VINA RESULT:      -5.5      4.646      9.685
  Name = 
  6 active torsions:
  status: ('A' for Active; 'I' for Inactive)
    1  A    between atoms: C_1  and  N_20
    2  A    between atoms: C_13  and  C_24
    3  A    between atoms: C_17  and  C_30
    4  A    between atoms: C_24  and  N_27
    5  A    between atoms: N_27  and  C_30
    6  A    between atoms: N_27  and  C_31
                            x       y       z     vdW  Elec       q    Type
                         _______ _______ _______ _____ _____    ______ ____

>  <TORSDO>
F 6

$$$$
=
 OpenBabel11042413093D

 32 36  0  0  1  0  0  0  0  0999 V2000
  188.0530  177.9050  144.6780 C   0  0  0  0  0  0  0  0  0  0  0  0
  188.6510  178.6480  141.3180 C   0  0  0  0  0  2  0  0  0  0  0  0
  185.1710  178.3910  144.1910 C   0  0  0  0  0  0  0  0  0  0  0  0
  188.3070  177.5810  142.2570 N   0  0  0  0  0  0  0  0  0  0  0  0
  187.0990  178.2440  146.0440 S   0  0  0  0  0  0  0  0  0  0  0  0
  186.5400  179.3180  139.9030 C   0  0  1  0  0  3  0  0  0  0  0  0
  185.3370  177.7540  136.5850 C   0  0  0  0  0  1  0  0  0  0  0  0
  185.5180  178.4790  145.5670 C   0  0  0  0  0  0  0  0  0  0  0  0
  186.3260  178.1160  137.6720 C   0  0  1  0  0  3  0  0  0  0  0  0
  187.4590  177.8480  143.3850 C   0  0  0  0  0  0  0  0  0  0  0  0
  187.9500  177.1420  139.3320 C   0  0  2  0  0  3  0  0  0  0  0  0
  185.6370  178.9890  138.7060 C   0  0  0  0  0  2  0  0  0  0  0  0
  188.9360  176.2750  142.1290 C   0  0  0  0  0  1  0  0  0  0  0  0
  183.4390  178.9740  145.4630 N   0  0  0  0  0  0  0  0  0  0  0  0
  184.4600  178.8340  146.3030 N   0  0  0  0  0  0  0  0  0  0  0  0
  185.7630  179.3760  141.1430 N   0  0  0  0  0  2  0  0  0  0  0  0
  186.0620  178.0570  143.1460 C   0  0  0  0  0  0  0  0  0  0  0  0
  184.2010  177.5040  141.4800 C   0  0  0  0  0  1  0  0  0  0  0  0
  186.8020  176.8510  138.3610 C   0  0  0  0  0  2  0  0  0  0  0  0
  183.8270  178.7210  144.1860 C   0  0  0  0  0  3  0  0  0  0  0  0
  185.6040  178.0440  141.7100 C   0  0  1  0  0  3  0  0  0  0  0  0
  187.8850  178.5360  139.9890 C   0  0  2  0  0  3  0  0  0  0  0  0
  190.6370  177.0130  145.4070 C   0  0  0  0  0  2  0  0  0  0  0  0
  189.4600  177.7450  144.8540 N   0  0  0  0  0  0  0  0  0  0  0  0
  190.8850  178.1510  144.6710 C   0  0  0  0  0  2  0  0  0  0  0  0
  189.2900  176.9840  138.6220 C   0  0  0  0  0  2  0  0  0  0  0  0
  189.1390  176.2390  137.3800 N   0  0  0  0  0  0  0  0  0  0  0  0
  189.1700  177.4980  135.1470 N   0  0  0  0  0  0  0  0  0  0  0  0
  189.1560  176.9300  136.1550 C   0  0  0  0  0  0  0  0  0  0  0  0
  189.0590  174.7780  137.4730 C   0  0  0  0  0  2  0  0  0  0  0  0
  191.4070  174.1300  137.5930 N   0  0  0  0  0  1  0  0  0  0  0  0
  190.2080  174.0550  136.7760 C   0  0  0  0  0  2  0  0  0  0  0  0
  1 24  1  0  0  0  0
  1  5  1  0  0  0  0
  2  4  1  0  0  0  0
  3  8  1  0  0  0  0
  4 10  1  0  0  0  0
  6 12  1  6  0  0  0
  6 22  1  0  0  0  0
  6 16  1  0  0  0  0
  8  5  1  0  0  0  0
  8 15  2  0  0  0  0
  9  7  1  6  0  0  0
  9 19  1  0  0  0  0
  9 12  1  0  0  0  0
 10  1  2  0  0  0  0
 11 26  1  6  0  0  0
 11 22  1  0  0  0  0
 13  4  1  0  0  0  0
 14 15  1  0  0  0  0
 16 21  1  0  0  0  0
 17 10  1  0  0  0  0
 17  3  2  0  0  0  0
 19 11  1  0  0  0  0
 20  3  1  0  0  0  0
 20 14  2  0  0  0  0
 21 18  1  1  0  0  0
 21 17  1  0  0  0  0
 22  2  1  1  0  0  0
 24 23  1  0  0  0  0
 25 24  1  0  0  0  0
 25 23  1  0  0  0  0
 27 30  1  0  0  0  0
 27 26  1  0  0  0  0
 28 29  3  0  0  0  0
 29 27  1  0  0  0  0
 32 30  1  0  0  0  0
 32 31  1  0  0  0  0
M  END
>  <MODEL>
9

>  <REMARK>
 VINA RESULT:      -5.4      2.670      6.728
  Name = 
  6 active torsions:
  status: ('A' for Active; 'I' for Inactive)
    1  A    between atoms: C_1  and  N_20
    2  A    between atoms: C_13  and  C_24
    3  A    between atoms: C_17  and  C_30
    4  A    between atoms: C_24  and  N_27
    5  A    between atoms: N_27  and  C_30
    6  A    between atoms: N_27  and  C_31
                            x       y       z     vdW  Elec       q    Type
                         _______ _______ _______ _____ _____    ______ ____

>  <TORSDO>
F 6

$$$$
