=
 OpenBabel11042411193D

 48 51  0  0  1  0  0  0  0  0999 V2000
  186.8220  175.8580  136.9160 C   0  0  0  0  0  0  0  0  0  0  0  0
  188.1650  176.1900  136.3460 C   0  0  0  0  0  2  0  0  0  0  0  0
  189.2890  175.5920  137.1240 C   0  0  0  0  0  0  0  0  0  0  0  0
  189.4370  174.2620  137.2360 C   0  0  0  0  0  3  0  0  0  0  0  0
  187.1590  173.3850  136.6540 C   0  0  0  0  0  3  0  0  0  0  0  0
  188.4810  173.2350  136.7870 C   0  0  0  0  0  3  0  0  0  0  0  0
  186.3720  174.5990  136.9320 C   0  0  0  0  0  3  0  0  0  0  0  0
  190.3470  176.5160  137.6470 C   0  0  2  0  0  3  0  0  0  0  0  0
  192.7040  176.6370  138.4360 C   0  0  0  0  0  2  0  0  0  0  0  0
  192.6810  175.8940  137.1580 N   0  0  0  0  0  0  0  0  0  0  0  0
  191.5840  175.7480  138.1400 C   0  0  2  0  0  3  0  0  0  0  0  0
  193.4760  174.6720  137.2700 C   0  0  0  0  0  2  0  0  0  0  0  0
  194.8660  174.9280  137.8830 C   0  0  0  0  0  2  0  0  0  0  0  0
  195.9230  174.8960  136.8800 N   0  0  0  0  0  0  0  0  0  0  0  0
  195.8390  176.0810  136.2320 O   0  0  0  0  0  1  0  0  0  0  0  0
  196.9420  174.3540  138.8690 C   0  0  0  0  0  1  0  0  0  0  0  0
  197.1640  174.8990  137.5410 N   0  0  0  0  0  2  0  0  0  0  0  0
  189.7880  177.4410  138.6930 C   0  0  0  0  0  0  0  0  0  0  0  0
  189.5180  178.6410  138.4070 O   0  0  0  0  0  0  0  0  0  0  0  0
  189.5130  176.9230  139.9980 N   0  0  0  0  0  2  0  0  0  0  0  0
  188.7150  177.6370  140.9840 C   0  0  0  0  0  2  0  0  0  0  0  0
  189.4110  177.6390  142.3040 C   0  0  0  0  0  3  0  0  0  0  0  0
  187.8190  176.1480  143.2310 O   0  0  0  0  0  1  0  0  0  0  0  0
  188.9650  176.9340  143.3520 C   0  0  0  0  0  0  0  0  0  0  0  0
  189.7350  176.9130  144.6570 C   0  0  2  0  0  3  0  0  0  0  0  0
  188.5400  177.8040  146.5520 C   0  0  0  0  0  1  0  0  0  0  0  0
  189.5030  178.0990  145.4880 N   0  0  0  0  0  2  0  0  0  0  0  0
  191.2240  176.5160  144.6200 C   0  0  0  0  0  2  0  0  0  0  0  0
  191.7270  175.6800  145.7960 C   0  0  0  0  0  3  0  0  0  0  0  0
  192.4150  176.4960  146.6730 F   0  0  0  0  0  0  0  0  0  0  0  0
  192.5720  174.6730  145.3660 F   0  0  0  0  0  0  0  0  0  0  0  0
  185.8920  176.9190  137.1630 N   0  0  0  0  0  0  0  0  0  0  0  0
  186.3900  178.1840  137.6860 C   0  0  0  0  0  2  0  0  0  0  0  0
  185.3900  178.8090  138.5410 N   0  0  0  0  0  2  0  0  0  0  0  0
  183.0300  178.6760  144.0640 C   0  0  0  0  0  3  0  0  0  0  0  0
  185.4420  178.8090  144.3860 C   0  0  0  0  0  3  0  0  0  0  0  0
  185.6350  178.8590  143.0000 C   0  0  0  0  0  3  0  0  0  0  0  0
  183.9670  178.6450  146.2560 F   0  0  0  0  0  0  0  0  0  0  0  0
  185.4640  178.7800  139.9480 N   0  0  0  0  0  2  0  0  0  0  0  0
  183.2400  178.7400  142.6870 C   0  0  0  0  0  0  0  0  0  0  0  0
  184.4310  178.8570  140.7370 C   0  0  0  0  0  0  0  0  0  0  0  0
  182.1980  178.7260  141.6200 C   0  0  0  0  0  3  0  0  0  0  0  0
  184.5080  178.8170  142.1750 C   0  0  0  0  0  0  0  0  0  0  0  0
  182.9940  178.8390  140.3090 C   0  0  0  0  0  3  0  0  0  0  0  0
  184.1420  178.7110  144.9130 C   0  0  2  0  0  3  0  0  0  0  0  0
  184.4930  176.5960  137.4310 C   0  0  0  0  0  2  0  0  0  0  0  0
  183.7480  176.4010  136.1540 C   0  0  0  0  0  3  0  0  0  0  0  0
  183.9930  177.1950  135.1170 C   0  0  0  0  0  2  0  0  0  0  0  0
  1  7  2  0  0  0  0
  1 32  1  0  0  0  0
  2  1  1  0  0  0  0
  2  3  1  0  0  0  0
  3  4  2  0  0  0  0
  3  8  1  0  0  0  0
  5  6  2  0  0  0  0
  5  7  1  0  0  0  0
  6  4  1  0  0  0  0
  8 18  1  1  0  0  0
 10 12  1  0  0  0  0
 10 11  1  0  0  0  0
 10  9  1  0  0  0  0
 11  8  1  6  0  0  0
 11  9  1  0  0  0  0
 12 13  1  0  0  0  0
 14 17  1  0  0  0  0
 14 13  1  0  0  0  0
 15 14  1  0  0  0  0
 17 16  1  0  0  0  0
 18 20  1  0  0  0  0
 19 18  2  0  0  0  0
 20 21  1  0  0  0  0
 21 22  1  0  0  0  0
 22 24  2  0  0  0  0
 23 24  1  0  0  0  0
 24 25  1  0  0  0  0
 25 28  1  6  0  0  0
 25 27  1  0  0  0  0
 27 26  1  0  0  0  0
 28 29  1  0  0  0  0
 29 30  1  0  0  0  0
 31 29  1  0  0  0  0
 32 46  1  0  0  0  0
 32 33  1  0  0  0  0
 33 34  1  0  0  0  0
 34 39  1  0  0  0  0
 35 45  1  0  0  0  0
 36 45  1  0  0  0  0
 37 36  2  0  0  0  0
 39 41  1  0  0  0  0
 40 35  2  0  0  0  0
 41 43  2  0  0  0  0
 42 40  1  0  0  0  0
 43 40  1  0  0  0  0
 43 37  1  0  0  0  0
 44 41  1  0  0  0  0
 44 42  2  0  0  0  0
 45 38  1  6  0  0  0
 47 46  1  0  0  0  0
 48 47  2  0  0  0  0
M  END
>  <MODEL>
1

>  <REMARK>
 VINA RESULT:      -7.7      0.000      0.000
  Name = 
  19 active torsions:
  status: ('A' for Active; 'I' for Inactive)
    1  A    between atoms: N_2  and  N_16
    2  A    between atoms: N_2  and  C_31
    3  A    between atoms: C_3  and  C_43
    4  A    between atoms: C_4  and  C_29
    5  A    between atoms: C_6  and  C_29
    6  A    between atoms: C_6  and  N_37
    7  A    between atoms: C_6  and  C_46
    8  A    between atoms: C_7  and  N_25
    9  A    between atoms: C_9  and  C_42
   10  A    between atoms: C_13  and  C_28
   11  A    between atoms: N_17  and  C_19
   12  A    between atoms: N_17  and  N_30
   13  A    between atoms: C_19  and  C_35
   14  A    between atoms: N_25  and  C_28
   15  A    between atoms: N_25  and  C_31
   16  A    between atoms: N_32  and  C_35
   17  A    between atoms: C_34  and  C_43
   18  A    between atoms: C_39  and  C_43
   19  A    between atoms: N_41  and  C_42
                            x       y       z     vdW  Elec       q    Type
                         _______ _______ _______ _____ _____    ______ ____

>  <TORSDO>
F 19

$$$$
=
 OpenBabel11042411193D

 48 51  0  0  1  0  0  0  0  0999 V2000
  189.3720  177.5210  142.2660 C   0  0  0  0  0  0  0  0  0  0  0  0
  189.7490  176.4240  141.3190 C   0  0  0  0  0  2  0  0  0  0  0  0
  190.6330  176.8930  140.2120 C   0  0  0  0  0  0  0  0  0  0  0  0
  191.8590  177.3860  140.4530 C   0  0  0  0  0  3  0  0  0  0  0  0
  191.7560  178.0070  142.8830 C   0  0  0  0  0  3  0  0  0  0  0  0
  192.4350  177.6920  141.7740 C   0  0  0  0  0  3  0  0  0  0  0  0
  190.2940  178.1240  143.0230 C   0  0  0  0  0  3  0  0  0  0  0  0
  190.1810  176.6480  138.8050 C   0  0  2  0  0  3  0  0  0  0  0  0
  190.9800  176.1700  136.4970 C   0  0  0  0  0  2  0  0  0  0  0  0
  191.7200  175.2960  137.4340 N   0  0  0  0  0  0  0  0  0  0  0  0
  191.3550  176.6800  137.8130 C   0  0  2  0  0  3  0  0  0  0  0  0
  193.1510  175.3340  137.1360 C   0  0  0  0  0  2  0  0  0  0  0  0
  193.8530  173.9990  137.4490 C   0  0  0  0  0  2  0  0  0  0  0  0
  195.1670  174.1960  138.0470 N   0  0  0  0  0  0  0  0  0  0  0  0
  195.0320  175.2630  138.8700 O   0  0  0  0  0  1  0  0  0  0  0  0
  195.5240  171.9250  138.0220 C   0  0  0  0  0  1  0  0  0  0  0  0
  195.4480  173.0960  138.8780 N   0  0  0  0  0  2  0  0  0  0  0  0
  189.0770  177.5940  138.4200 C   0  0  0  0  0  0  0  0  0  0  0  0
  189.3060  178.8300  138.3030 O   0  0  0  0  0  0  0  0  0  0  0  0
  187.7800  177.0640  138.1300 N   0  0  0  0  0  2  0  0  0  0  0  0
  186.7330  177.8360  137.4780 C   0  0  0  0  0  2  0  0  0  0  0  0
  185.4850  177.0240  137.3750 C   0  0  0  0  0  3  0  0  0  0  0  0
  186.3350  175.8120  135.5250 O   0  0  0  0  0  1  0  0  0  0  0  0
  185.3170  176.0800  136.4400 C   0  0  0  0  0  0  0  0  0  0  0  0
  184.0590  175.2350  136.4080 C   0  0  2  0  0  3  0  0  0  0  0  0
  181.8410  175.7230  137.2170 C   0  0  0  0  0  1  0  0  0  0  0  0
  182.8390  176.0180  136.1860 N   0  0  0  0  0  2  0  0  0  0  0  0
  183.8690  174.1660  137.5010 C   0  0  0  0  0  2  0  0  0  0  0  0
  184.6370  172.8600  137.3060 C   0  0  0  0  0  3  0  0  0  0  0  0
  183.7970  171.7950  137.5650 F   0  0  0  0  0  0  0  0  0  0  0  0
  185.7240  172.7880  138.1590 F   0  0  0  0  0  0  0  0  0  0  0  0
  187.9900  177.7140  142.5870 N   0  0  0  0  0  0  0  0  0  0  0  0
  187.3620  178.9860  142.2560 C   0  0  0  0  0  2  0  0  0  0  0  0
  186.6190  178.8770  141.0080 N   0  0  0  0  0  0  0  0  0  0  0  0
  181.0970  178.9410  143.3710 C   0  0  0  0  0  3  0  0  0  0  0  0
  180.8300  178.0760  141.1080 C   0  0  0  0  0  3  0  0  0  0  0  0
  182.2130  178.1600  140.9020 C   0  0  0  0  0  3  0  0  0  0  0  0
  178.9350  178.4060  142.5210 F   0  0  0  0  0  0  0  0  0  0  0  0
  185.2230  178.6940  140.9650 N   0  0  0  0  0  0  0  0  0  0  0  0
  182.4730  179.0040  143.1530 C   0  0  0  0  0  0  0  0  0  0  0  0
  184.4370  178.8120  141.9960 C   0  0  0  0  0  0  0  0  0  0  0  0
  183.5130  179.4620  144.1190 C   0  0  0  0  0  2  0  0  0  0  0  0
  183.0080  178.6350  141.9480 C   0  0  0  0  0  0  0  0  0  0  0  0
  184.8390  179.3010  143.3560 C   0  0  0  0  0  3  0  0  0  0  0  0
  180.2760  178.4740  142.3380 C   0  0  0  0  0  0  0  0  0  0  0  0
  187.3950  176.9450  143.6770 C   0  0  0  0  0  2  0  0  0  0  0  0
  187.7440  177.5510  144.9950 C   0  0  0  0  0  3  0  0  0  0  0  0
  186.8540  177.5470  145.9810 C   0  0  0  0  0  2  0  0  0  0  0  0
  1 32  1  0  0  0  0
  1  7  2  0  0  0  0
  2  1  1  0  0  0  0
  3  4  2  0  0  0  0
  3  2  1  0  0  0  0
  4  6  1  0  0  0  0
  5  7  1  0  0  0  0
  6  5  2  0  0  0  0
  8 18  1  6  0  0  0
  8  3  1  0  0  0  0
  9 10  1  0  0  0  0
  9 11  1  0  0  0  0
 10 11  1  0  0  0  0
 11  8  1  1  0  0  0
 12 10  1  0  0  0  0
 12 13  1  0  0  0  0
 13 14  1  0  0  0  0
 14 15  1  0  0  0  0
 14 17  1  0  0  0  0
 16 17  1  0  0  0  0
 19 18  2  0  0  0  0
 20 18  1  0  0  0  0
 21 20  1  0  0  0  0
 22 21  1  0  0  0  0
 23 24  1  0  0  0  0
 24 22  2  0  0  0  0
 25 24  1  0  0  0  0
 25 28  1  1  0  0  0
 27 25  1  0  0  0  0
 27 26  1  0  0  0  0
 29 28  1  0  0  0  0
 29 30  1  0  0  0  0
 29 31  1  0  0  0  0
 32 46  1  0  0  0  0
 33 32  1  0  0  0  0
 34 33  1  0  0  0  0
 36 45  1  0  0  0  0
 37 36  2  0  0  0  0
 37 43  1  0  0  0  0
 39 34  2  0  0  0  0
 39 41  1  0  0  0  0
 40 35  1  0  0  0  0
 40 42  1  0  0  0  0
 41 44  2  0  0  0  0
 43 41  1  0  0  0  0
 43 40  2  0  0  0  0
 44 42  1  0  0  0  0
 45 38  1  0  0  0  0
 45 35  2  0  0  0  0
 46 47  1  0  0  0  0
 47 48  2  0  0  0  0
M  END
>  <MODEL>
2

>  <REMARK>
 VINA RESULT:      -6.8      3.098      6.310
  Name = 
  19 active torsions:
  status: ('A' for Active; 'I' for Inactive)
    1  A    between atoms: N_2  and  N_16
    2  A    between atoms: N_2  and  C_31
    3  A    between atoms: C_3  and  C_43
    4  A    between atoms: C_4  and  C_29
    5  A    between atoms: C_6  and  C_29
    6  A    between atoms: C_6  and  N_37
    7  A    between atoms: C_6  and  C_46
    8  A    between atoms: C_7  and  N_25
    9  A    between atoms: C_9  and  C_42
   10  A    between atoms: C_13  and  C_28
   11  A    between atoms: N_17  and  C_19
   12  A    between atoms: N_17  and  N_30
   13  A    between atoms: C_19  and  C_35
   14  A    between atoms: N_25  and  C_28
   15  A    between atoms: N_25  and  C_31
   16  A    between atoms: N_32  and  C_35
   17  A    between atoms: C_34  and  C_43
   18  A    between atoms: C_39  and  C_43
   19  A    between atoms: N_41  and  C_42
                            x       y       z     vdW  Elec       q    Type
                         _______ _______ _______ _____ _____    ______ ____

>  <TORSDO>
F 19

$$$$
=
 OpenBabel11042411193D

 48 51  0  0  1  0  0  0  0  0999 V2000
  189.0210  176.9390  137.7220 C   0  0  0  0  0  0  0  0  0  0  0  0
  187.9050  175.9950  137.3980 C   0  0  0  0  0  2  0  0  0  0  0  0
  186.6920  176.6900  136.8770 C   0  0  0  0  0  0  0  0  0  0  0  0
  186.7180  177.3800  135.7240 C   0  0  0  0  0  3  0  0  0  0  0  0
  189.1660  177.8050  135.3700 C   0  0  0  0  0  3  0  0  0  0  0  0
  187.9110  177.6950  134.9200 C   0  0  0  0  0  3  0  0  0  0  0  0
  189.6250  177.6460  136.7610 C   0  0  0  0  0  3  0  0  0  0  0  0
  185.3950  176.4630  137.5920 C   0  0  2  0  0  3  0  0  0  0  0  0
  183.1980  175.3100  137.3970 C   0  0  0  0  0  2  0  0  0  0  0  0
  184.2410  174.4160  136.8480 N   0  0  0  0  0  0  0  0  0  0  0  0
  184.3210  175.8820  136.6580 C   0  0  2  0  0  3  0  0  0  0  0  0
  183.8150  173.8750  135.5580 C   0  0  0  0  0  2  0  0  0  0  0  0
  183.8050  172.3350  135.5410 C   0  0  0  0  0  2  0  0  0  0  0  0
  182.4880  171.7970  135.2280 N   0  0  0  0  0  0  0  0  0  0  0  0
  182.5620  170.4750  135.5140 O   0  0  0  0  0  1  0  0  0  0  0  0
  180.5290  171.3350  136.3400 C   0  0  0  0  0  1  0  0  0  0  0  0
  181.5580  172.3400  136.1330 N   0  0  0  0  0  2  0  0  0  0  0  0
  184.9360  177.7150  138.2880 C   0  0  0  0  0  0  0  0  0  0  0  0
  185.7300  178.6830  138.4520 O   0  0  0  0  0  0  0  0  0  0  0  0
  183.5710  177.8140  138.7070 N   0  0  0  0  0  2  0  0  0  0  0  0
  182.9550  179.0660  139.1200 C   0  0  0  0  0  2  0  0  0  0  0  0
  182.4040  178.9370  140.5000 C   0  0  0  0  0  3  0  0  0  0  0  0
  184.5560  179.1750  141.4640 O   0  0  0  0  0  1  0  0  0  0  0  0
  183.1790  178.9850  141.5910 C   0  0  0  0  0  0  0  0  0  0  0  0
  182.5730  178.9120  142.9780 C   0  0  2  0  0  3  0  0  0  0  0  0
  180.4890  178.3590  144.0570 C   0  0  0  0  0  1  0  0  0  0  0  0
  181.1240  179.1370  142.9910 N   0  0  0  0  0  2  0  0  0  0  0  0
  183.2830  179.6550  144.1250 C   0  0  0  0  0  2  0  0  0  0  0  0
  184.4080  178.8960  144.8260 C   0  0  0  0  0  3  0  0  0  0  0  0
  184.7240  177.7700  144.0900 F   0  0  0  0  0  0  0  0  0  0  0  0
  184.0310  178.5070  146.0980 F   0  0  0  0  0  0  0  0  0  0  0  0
  189.6470  176.8570  139.0060 N   0  0  0  0  0  0  0  0  0  0  0  0
  188.9230  177.3390  140.1750 C   0  0  0  0  0  2  0  0  0  0  0  0
  189.4290  176.7030  141.3840 N   0  0  0  0  0  2  0  0  0  0  0  0
  189.8700  177.3850  147.3360 C   0  0  0  0  0  3  0  0  0  0  0  0
  187.5150  177.7270  146.8110 C   0  0  0  0  0  3  0  0  0  0  0  0
  187.7690  177.4720  145.4580 C   0  0  0  0  0  3  0  0  0  0  0  0
  188.3150  177.9580  149.0490 F   0  0  0  0  0  0  0  0  0  0  0  0
  188.9190  176.9890  142.6660 N   0  0  0  0  0  2  0  0  0  0  0  0
  190.1020  177.1200  145.9870 C   0  0  0  0  0  0  0  0  0  0  0  0
  189.6010  176.8730  143.7690 C   0  0  0  0  0  0  0  0  0  0  0  0
  191.4060  176.7690  145.3540 C   0  0  0  0  0  3  0  0  0  0  0  0
  189.0810  177.1750  145.0770 C   0  0  0  0  0  0  0  0  0  0  0  0
  191.0660  176.5680  143.8670 C   0  0  0  0  0  3  0  0  0  0  0  0
  188.5670  177.6910  147.7440 C   0  0  2  0  0  3  0  0  0  0  0  0
  191.1060  176.8410  139.0920 C   0  0  0  0  0  2  0  0  0  0  0  0
  191.6650  175.7290  138.2690 C   0  0  0  0  0  3  0  0  0  0  0  0
  192.8520  175.8670  137.6890 C   0  0  0  0  0  2  0  0  0  0  0  0
  1 32  1  0  0  0  0
  2  1  1  0  0  0  0
  3  2  1  0  0  0  0
  3  8  1  0  0  0  0
  4  3  2  0  0  0  0
  5  7  1  0  0  0  0
  6  5  2  0  0  0  0
  6  4  1  0  0  0  0
  7  1  2  0  0  0  0
  8 18  1  6  0  0  0
 10  9  1  0  0  0  0
 11 10  1  0  0  0  0
 11  9  1  0  0  0  0
 11  8  1  1  0  0  0
 12 10  1  0  0  0  0
 13 12  1  0  0  0  0
 14 15  1  0  0  0  0
 14 13  1  0  0  0  0
 14 17  1  0  0  0  0
 17 16  1  0  0  0  0
 18 19  2  0  0  0  0
 18 20  1  0  0  0  0
 20 21  1  0  0  0  0
 21 22  1  0  0  0  0
 22 24  2  0  0  0  0
 23 24  1  0  0  0  0
 24 25  1  0  0  0  0
 25 27  1  0  0  0  0
 25 28  1  1  0  0  0
 27 26  1  0  0  0  0
 28 29  1  0  0  0  0
 29 31  1  0  0  0  0
 30 29  1  0  0  0  0
 32 46  1  0  0  0  0
 32 33  1  0  0  0  0
 33 34  1  0  0  0  0
 34 39  1  0  0  0  0
 35 45  1  0  0  0  0
 36 45  1  0  0  0  0
 37 36  2  0  0  0  0
 39 41  1  0  0  0  0
 40 35  2  0  0  0  0
 41 44  1  0  0  0  0
 41 43  2  0  0  0  0
 42 40  1  0  0  0  0
 43 37  1  0  0  0  0
 43 40  1  0  0  0  0
 44 42  2  0  0  0  0
 45 38  1  6  0  0  0
 47 46  1  0  0  0  0
 48 47  2  0  0  0  0
M  END
>  <MODEL>
3

>  <REMARK>
 VINA RESULT:      -6.8      3.110      7.896
  Name = 
  19 active torsions:
  status: ('A' for Active; 'I' for Inactive)
    1  A    between atoms: N_2  and  N_16
    2  A    between atoms: N_2  and  C_31
    3  A    between atoms: C_3  and  C_43
    4  A    between atoms: C_4  and  C_29
    5  A    between atoms: C_6  and  C_29
    6  A    between atoms: C_6  and  N_37
    7  A    between atoms: C_6  and  C_46
    8  A    between atoms: C_7  and  N_25
    9  A    between atoms: C_9  and  C_42
   10  A    between atoms: C_13  and  C_28
   11  A    between atoms: N_17  and  C_19
   12  A    between atoms: N_17  and  N_30
   13  A    between atoms: C_19  and  C_35
   14  A    between atoms: N_25  and  C_28
   15  A    between atoms: N_25  and  C_31
   16  A    between atoms: N_32  and  C_35
   17  A    between atoms: C_34  and  C_43
   18  A    between atoms: C_39  and  C_43
   19  A    between atoms: N_41  and  C_42
                            x       y       z     vdW  Elec       q    Type
                         _______ _______ _______ _____ _____    ______ ____

>  <TORSDO>
F 19

$$$$
=
 OpenBabel11042411193D

 48 51  0  0  1  0  0  0  0  0999 V2000
  183.9170  178.5580  141.8500 C   0  0  0  0  0  0  0  0  0  0  0  0
  185.0740  177.6090  141.8790 C   0  0  0  0  0  2  0  0  0  0  0  0
  186.3040  178.2130  142.4700 C   0  0  0  0  0  0  0  0  0  0  0  0
  186.3410  178.6220  143.7490 C   0  0  0  0  0  3  0  0  0  0  0  0
  183.9150  178.8620  144.3420 C   0  0  0  0  0  3  0  0  0  0  0  0
  185.1990  178.7000  144.6760 C   0  0  0  0  0  3  0  0  0  0  0  0
  183.3640  179.0050  142.9830 C   0  0  0  0  0  3  0  0  0  0  0  0
  187.5540  178.2050  141.6420 C   0  0  2  0  0  3  0  0  0  0  0  0
  188.4600  177.2590  139.5260 C   0  0  0  0  0  2  0  0  0  0  0  0
  188.0510  178.6580  139.2710 N   0  0  0  0  0  0  0  0  0  0  0  0
  187.2730  177.7940  140.1880 C   0  0  2  0  0  3  0  0  0  0  0  0
  187.2640  178.7370  138.0410 C   0  0  0  0  0  2  0  0  0  0  0  0
  188.1460  178.8060  136.7810 C   0  0  0  0  0  2  0  0  0  0  0  0
  187.6520  177.9450  135.7150 N   0  0  0  0  0  0  0  0  0  0  0  0
  188.7430  177.3040  135.2350 O   0  0  0  0  0  1  0  0  0  0  0  0
  187.0850  175.7220  135.5530 C   0  0  0  0  0  1  0  0  0  0  0  0
  186.8360  176.9510  136.2860 N   0  0  0  0  0  2  0  0  0  0  0  0
  188.6200  177.3600  142.2830 C   0  0  0  0  0  0  0  0  0  0  0  0
  188.3430  176.2130  142.7320 O   0  0  0  0  0  0  0  0  0  0  0  0
  189.9630  177.8510  142.3200 N   0  0  0  0  0  2  0  0  0  0  0  0
  191.1080  177.0140  142.6460 C   0  0  0  0  0  2  0  0  0  0  0  0
  191.0180  176.5480  144.0610 C   0  0  0  0  0  3  0  0  0  0  0  0
  192.0770  178.5140  144.8560 O   0  0  0  0  0  1  0  0  0  0  0  0
  191.4880  177.2700  145.0860 C   0  0  0  0  0  0  0  0  0  0  0  0
  191.3210  176.7900  146.5140 C   0  0  2  0  0  3  0  0  0  0  0  0
  192.6500  175.7890  148.2590 C   0  0  0  0  0  1  0  0  0  0  0  0
  192.2170  175.6830  146.8640 N   0  0  0  0  0  2  0  0  0  0  0  0
  189.8930  176.5680  147.0480 C   0  0  0  0  0  2  0  0  0  0  0  0
  189.0820  177.8280  147.3470 C   0  0  0  0  0  3  0  0  0  0  0  0
  188.0940  177.5250  148.2630 F   0  0  0  0  0  0  0  0  0  0  0  0
  188.4910  178.3250  146.2000 F   0  0  0  0  0  0  0  0  0  0  0  0
  183.2050  178.7460  140.6220 N   0  0  0  0  0  0  0  0  0  0  0  0
  183.9500  179.1170  139.4270 C   0  0  0  0  0  2  0  0  0  0  0  0
  183.4870  178.3480  138.2800 N   0  0  0  0  0  2  0  0  0  0  0  0
  182.3610  172.6100  136.9020 C   0  0  0  0  0  3  0  0  0  0  0  0
  184.7310  172.6940  137.4660 C   0  0  0  0  0  3  0  0  0  0  0  0
  184.6250  174.0620  137.7480 C   0  0  0  0  0  3  0  0  0  0  0  0
  183.7170  170.6550  136.7490 F   0  0  0  0  0  0  0  0  0  0  0  0
  183.8500  177.0030  138.0670 N   0  0  0  0  0  2  0  0  0  0  0  0
  182.2720  173.9690  137.2000 C   0  0  0  0  0  0  0  0  0  0  0  0
  183.0020  176.0440  137.8260 C   0  0  0  0  0  0  0  0  0  0  0  0
  181.0520  174.8240  137.1280 C   0  0  0  0  0  3  0  0  0  0  0  0
  183.3770  174.6720  137.5990 C   0  0  1  0  0  3  0  0  0  0  0  0
  181.5320  176.2130  137.5820 C   0  0  0  0  0  3  0  0  0  0  0  0
  183.6010  171.9740  137.0370 C   0  0  0  0  0  0  0  0  0  0  0  0
  181.7920  179.1150  140.6620 C   0  0  0  0  0  2  0  0  0  0  0  0
  180.9360  177.8950  140.7250 C   0  0  0  0  0  3  0  0  0  0  0  0
  179.9870  177.8000  141.6510 C   0  0  0  0  0  2  0  0  0  0  0  0
  1  2  1  0  0  0  0
  1  7  2  0  0  0  0
  2  3  1  0  0  0  0
  3  4  2  0  0  0  0
  4  6  1  0  0  0  0
  5  6  2  0  0  0  0
  7  5  1  0  0  0  0
  8 18  1  1  0  0  0
  8  3  1  0  0  0  0
  9 11  1  0  0  0  0
 10  9  1  0  0  0  0
 10 11  1  0  0  0  0
 11  8  1  1  0  0  0
 12 10  1  0  0  0  0
 13 12  1  0  0  0  0
 14 17  1  0  0  0  0
 14 13  1  0  0  0  0
 15 14  1  0  0  0  0
 16 17  1  0  0  0  0
 18 20  1  0  0  0  0
 18 19  2  0  0  0  0
 20 21  1  0  0  0  0
 21 22  1  0  0  0  0
 22 24  2  0  0  0  0
 23 24  1  0  0  0  0
 24 25  1  0  0  0  0
 25 27  1  0  0  0  0
 25 28  1  6  0  0  0
 27 26  1  0  0  0  0
 28 29  1  0  0  0  0
 29 30  1  0  0  0  0
 31 29  1  0  0  0  0
 32 46  1  0  0  0  0
 32  1  1  0  0  0  0
 33 32  1  0  0  0  0
 34 33  1  0  0  0  0
 35 45  2  0  0  0  0
 35 40  1  0  0  0  0
 36 37  2  0  0  0  0
 38 45  1  0  0  0  0
 39 34  1  0  0  0  0
 40 43  1  0  0  0  0
 41 39  1  0  0  0  0
 42 40  2  0  0  0  0
 42 44  1  0  0  0  0
 43 37  1  1  0  0  0
 43 41  1  0  0  0  0
 44 41  2  0  0  0  0
 45 36  1  0  0  0  0
 46 47  1  0  0  0  0
 47 48  2  0  0  0  0
M  END
>  <MODEL>
4

>  <REMARK>
 VINA RESULT:      -6.8      3.550      6.573
  Name = 
  19 active torsions:
  status: ('A' for Active; 'I' for Inactive)
    1  A    between atoms: N_2  and  N_16
    2  A    between atoms: N_2  and  C_31
    3  A    between atoms: C_3  and  C_43
    4  A    between atoms: C_4  and  C_29
    5  A    between atoms: C_6  and  C_29
    6  A    between atoms: C_6  and  N_37
    7  A    between atoms: C_6  and  C_46
    8  A    between atoms: C_7  and  N_25
    9  A    between atoms: C_9  and  C_42
   10  A    between atoms: C_13  and  C_28
   11  A    between atoms: N_17  and  C_19
   12  A    between atoms: N_17  and  N_30
   13  A    between atoms: C_19  and  C_35
   14  A    between atoms: N_25  and  C_28
   15  A    between atoms: N_25  and  C_31
   16  A    between atoms: N_32  and  C_35
   17  A    between atoms: C_34  and  C_43
   18  A    between atoms: C_39  and  C_43
   19  A    between atoms: N_41  and  C_42
                            x       y       z     vdW  Elec       q    Type
                         _______ _______ _______ _____ _____    ______ ____

>  <TORSDO>
F 19

$$$$
=
 OpenBabel11042411193D

 48 51  0  0  1  0  0  0  0  0999 V2000
  188.5300  177.7150  142.5120 C   0  0  0  0  0  0  0  0  0  0  0  0
  189.0850  176.5790  141.7100 C   0  0  0  0  0  2  0  0  0  0  0  0
  190.2310  176.9870  140.8440 C   0  0  0  0  0  0  0  0  0  0  0  0
  191.3780  177.4480  141.3680 C   0  0  0  0  0  3  0  0  0  0  0  0
  190.7070  178.1430  143.6850 C   0  0  0  0  0  3  0  0  0  0  0  0
  191.6240  177.7750  142.7830 C   0  0  0  0  0  3  0  0  0  0  0  0
  189.2610  178.3100  143.4600 C   0  0  0  0  0  3  0  0  0  0  0  0
  190.1270  176.7150  139.3740 C   0  0  2  0  0  3  0  0  0  0  0  0
  191.3850  176.6410  137.2280 C   0  0  0  0  0  2  0  0  0  0  0  0
  191.9650  175.6320  138.1400 N   0  0  0  0  0  0  0  0  0  0  0  0
  191.4700  176.9280  138.6580 C   0  0  2  0  0  3  0  0  0  0  0  0
  193.4240  175.7370  138.1470 C   0  0  0  0  0  2  0  0  0  0  0  0
  194.1070  174.4770  137.5810 C   0  0  0  0  0  2  0  0  0  0  0  0
  194.7030  174.7160  136.2730 N   0  0  0  0  0  0  0  0  0  0  0  0
  195.1010  176.0100  136.2890 O   0  0  0  0  0  1  0  0  0  0  0  0
  196.9870  174.8190  136.5210 C   0  0  0  0  0  1  0  0  0  0  0  0
  195.8780  173.9490  136.1720 N   0  0  0  0  0  2  0  0  0  0  0  0
  189.0120  177.5120  138.7540 C   0  0  0  0  0  0  0  0  0  0  0  0
  189.0230  178.7730  138.8050 O   0  0  0  0  0  0  0  0  0  0  0  0
  187.9720  176.8210  138.0550 N   0  0  0  0  0  2  0  0  0  0  0  0
  187.0180  177.4910  137.1850 C   0  0  0  0  0  2  0  0  0  0  0  0
  186.2900  176.4900  136.3520 C   0  0  0  0  0  3  0  0  0  0  0  0
  184.1860  177.3480  137.0210 O   0  0  0  0  0  1  0  0  0  0  0  0
  184.9540  176.4370  136.2960 C   0  0  0  0  0  0  0  0  0  0  0  0
  184.2530  175.4440  135.3900 C   0  0  2  0  0  3  0  0  0  0  0  0
  181.8900  175.0170  135.1800 C   0  0  0  0  0  1  0  0  0  0  0  0
  182.9800  175.9410  134.8580 N   0  0  0  0  0  2  0  0  0  0  0  0
  184.1540  173.9780  135.8520 C   0  0  0  0  0  2  0  0  0  0  0  0
  184.4000  173.7210  137.3380 C   0  0  0  0  0  3  0  0  0  0  0  0
  184.2530  172.3720  137.5960 F   0  0  0  0  0  0  0  0  0  0  0  0
  183.5040  174.4260  138.1210 F   0  0  0  0  0  0  0  0  0  0  0  0
  187.1200  177.9610  142.4800 N   0  0  0  0  0  0  0  0  0  0  0  0
  186.6300  179.1640  141.8210 C   0  0  0  0  0  2  0  0  0  0  0  0
  186.1260  178.8460  140.4910 N   0  0  0  0  0  2  0  0  0  0  0  0
  180.2590  179.3340  139.2980 C   0  0  0  0  0  3  0  0  0  0  0  0
  181.3160  181.2130  138.1630 C   0  0  0  0  0  3  0  0  0  0  0  0
  182.5750  180.7800  138.5970 C   0  0  0  0  0  3  0  0  0  0  0  0
  178.9460  180.9300  138.1110 F   0  0  0  0  0  0  0  0  0  0  0  0
  184.9970  179.4770  139.9330 N   0  0  0  0  0  2  0  0  0  0  0  0
  181.5220  178.9100  139.7110 C   0  0  0  0  0  0  0  0  0  0  0  0
  183.7970  178.9710  139.9400 C   0  0  0  0  0  0  0  0  0  0  0  0
  181.8400  177.7060  140.5320 C   0  0  0  0  0  2  0  0  0  0  0  0
  182.6430  179.6230  139.3770 C   0  0  0  0  0  0  0  0  0  0  0  0
  183.3730  177.7260  140.6590 C   0  0  0  0  0  3  0  0  0  0  0  0
  180.1620  180.4930  138.5200 C   0  0  0  0  0  0  0  0  0  0  0  0
  186.2690  177.3800  143.5150 C   0  0  0  0  0  2  0  0  0  0  0  0
  185.3180  178.4010  144.0440 C   0  0  0  0  0  3  0  0  0  0  0  0
  185.4190  178.8080  145.3040 C   0  0  0  0  0  2  0  0  0  0  0  0
  1  7  2  0  0  0  0
  2  1  1  0  0  0  0
  3  4  2  0  0  0  0
  3  2  1  0  0  0  0
  4  6  1  0  0  0  0
  6  5  2  0  0  0  0
  7  5  1  0  0  0  0
  8 18  1  6  0  0  0
  8  3  1  0  0  0  0
  9 10  1  0  0  0  0
  9 11  1  0  0  0  0
 10 12  1  0  0  0  0
 10 11  1  0  0  0  0
 11  8  1  1  0  0  0
 13 12  1  0  0  0  0
 14 15  1  0  0  0  0
 14 13  1  0  0  0  0
 17 14  1  0  0  0  0
 17 16  1  0  0  0  0
 18 19  2  0  0  0  0
 20 18  1  0  0  0  0
 21 20  1  0  0  0  0
 22 21  1  0  0  0  0
 24 22  2  0  0  0  0
 24 23  1  0  0  0  0
 25 28  1  1  0  0  0
 25 24  1  0  0  0  0
 27 26  1  0  0  0  0
 27 25  1  0  0  0  0
 28 29  1  0  0  0  0
 29 30  1  0  0  0  0
 29 31  1  0  0  0  0
 32  1  1  0  0  0  0
 32 46  1  0  0  0  0
 33 32  1  0  0  0  0
 34 33  1  0  0  0  0
 35 40  1  0  0  0  0
 36 45  1  0  0  0  0
 36 37  2  0  0  0  0
 37 43  1  0  0  0  0
 38 45  1  0  0  0  0
 39 41  1  0  0  0  0
 39 34  1  0  0  0  0
 40 42  1  0  0  0  0
 41 44  2  0  0  0  0
 42 44  1  0  0  0  0
 43 40  2  0  0  0  0
 43 41  1  0  0  0  0
 45 35  2  0  0  0  0
 46 47  1  0  0  0  0
 47 48  2  0  0  0  0
M  END
>  <MODEL>
5

>  <REMARK>
 VINA RESULT:      -6.6      3.426      6.694
  Name = 
  19 active torsions:
  status: ('A' for Active; 'I' for Inactive)
    1  A    between atoms: N_2  and  N_16
    2  A    between atoms: N_2  and  C_31
    3  A    between atoms: C_3  and  C_43
    4  A    between atoms: C_4  and  C_29
    5  A    between atoms: C_6  and  C_29
    6  A    between atoms: C_6  and  N_37
    7  A    between atoms: C_6  and  C_46
    8  A    between atoms: C_7  and  N_25
    9  A    between atoms: C_9  and  C_42
   10  A    between atoms: C_13  and  C_28
   11  A    between atoms: N_17  and  C_19
   12  A    between atoms: N_17  and  N_30
   13  A    between atoms: C_19  and  C_35
   14  A    between atoms: N_25  and  C_28
   15  A    between atoms: N_25  and  C_31
   16  A    between atoms: N_32  and  C_35
   17  A    between atoms: C_34  and  C_43
   18  A    between atoms: C_39  and  C_43
   19  A    between atoms: N_41  and  C_42
                            x       y       z     vdW  Elec       q    Type
                         _______ _______ _______ _____ _____    ______ ____

>  <TORSDO>
F 19

$$$$
=
 OpenBabel11042411193D

 48 51  0  0  1  0  0  0  0  0999 V2000
  180.8100  178.7870  140.6780 C   0  0  0  0  0  0  0  0  0  0  0  0
  182.0350  178.0920  141.1840 C   0  0  0  0  0  2  0  0  0  0  0  0
  182.6670  178.7960  142.3380 C   0  0  0  0  0  0  0  0  0  0  0  0
  182.0210  178.9510  143.5060 C   0  0  0  0  0  3  0  0  0  0  0  0
  179.6170  178.6010  142.8790 C   0  0  0  0  0  3  0  0  0  0  0  0
  180.6100  178.6280  143.7740 C   0  0  0  0  0  3  0  0  0  0  0  0
  179.7150  178.8930  141.4380 C   0  0  0  0  0  3  0  0  0  0  0  0
  184.1080  179.1880  142.2130 C   0  0  2  0  0  3  0  0  0  0  0  0
  186.2280  178.7610  140.9820 C   0  0  0  0  0  2  0  0  0  0  0  0
  185.1990  179.1710  140.0030 N   0  0  0  0  0  0  0  0  0  0  0  0
  184.8450  178.3320  141.1700 C   0  0  2  0  0  3  0  0  0  0  0  0
  185.2050  178.2660  138.8550 C   0  0  0  0  0  2  0  0  0  0  0  0
  186.5610  178.2520  138.1240 C   0  0  0  0  0  2  0  0  0  0  0  0
  186.5470  177.3810  136.9560 N   0  0  0  0  0  0  0  0  0  0  0  0
  186.6890  176.1250  137.4410 O   0  0  0  0  0  1  0  0  0  0  0  0
  185.4240  177.1210  134.9660 C   0  0  0  0  0  1  0  0  0  0  0  0
  185.2660  177.4320  136.3770 N   0  0  0  0  0  2  0  0  0  0  0  0
  184.7900  179.1740  143.5540 C   0  0  0  0  0  0  0  0  0  0  0  0
  184.7090  180.1730  144.3220 O   0  0  0  0  0  0  0  0  0  0  0  0
  185.4780  177.9900  143.9680 N   0  0  0  0  0  2  0  0  0  0  0  0
  185.9170  177.7640  145.3370 C   0  0  0  0  0  2  0  0  0  0  0  0
  187.3550  178.1350  145.4840 C   0  0  0  0  0  3  0  0  0  0  0  0
  188.0320  176.3950  144.0240 O   0  0  0  0  0  1  0  0  0  0  0  0
  188.3360  177.4700  144.8610 C   0  0  0  0  0  0  0  0  0  0  0  0
  189.7780  177.9170  144.9880 C   0  0  2  0  0  3  0  0  0  0  0  0
  191.6810  178.9950  143.9720 C   0  0  0  0  0  1  0  0  0  0  0  0
  190.2830  178.5970  143.7910 N   0  0  0  0  0  2  0  0  0  0  0  0
  190.8040  176.9200  145.5610 C   0  0  0  0  0  2  0  0  0  0  0  0
  190.7410  176.6810  147.0690 C   0  0  0  0  0  3  0  0  0  0  0  0
  190.0040  177.6890  147.6580 F   0  0  0  0  0  0  0  0  0  0  0  0
  192.0070  176.6690  147.6250 F   0  0  0  0  0  0  0  0  0  0  0  0
  180.7000  179.0670  139.2790 N   0  0  0  0  0  0  0  0  0  0  0  0
  179.8050  178.2540  138.4660 C   0  0  0  0  0  2  0  0  0  0  0  0
  179.9760  176.8420  138.7810 N   0  0  0  0  0  2  0  0  0  0  0  0
  182.5860  171.8150  136.7790 C   0  0  0  0  0  3  0  0  0  0  0  0
  184.3750  173.4630  136.9380 C   0  0  0  0  0  3  0  0  0  0  0  0
  183.4710  174.4110  137.4340 C   0  0  0  0  0  3  0  0  0  0  0  0
  184.8070  171.2660  136.1100 F   0  0  0  0  0  0  0  0  0  0  0  0
  181.0670  176.0830  138.3130 N   0  0  0  0  0  2  0  0  0  0  0  0
  181.7040  172.7680  137.2860 C   0  0  0  0  0  0  0  0  0  0  0  0
  181.0220  174.8020  138.0790 C   0  0  0  0  0  0  0  0  0  0  0  0
  180.2470  172.5890  137.5510 C   0  0  0  0  0  3  0  0  0  0  0  0
  182.1360  174.0310  137.5920 C   0  0  1  0  0  3  0  0  0  0  0  0
  179.7930  173.9450  138.1170 C   0  0  0  0  0  3  0  0  0  0  0  0
  183.9290  172.1710  136.6060 C   0  0  0  0  0  0  0  0  0  0  0  0
  181.8120  179.7170  138.5900 C   0  0  0  0  0  2  0  0  0  0  0  0
  181.6180  181.1960  138.5660 C   0  0  0  0  0  3  0  0  0  0  0  0
  180.9410  181.7590  137.5720 C   0  0  0  0  0  2  0  0  0  0  0  0
  1  2  1  0  0  0  0
  1  7  2  0  0  0  0
  2  3  1  0  0  0  0
  3  4  2  0  0  0  0
  4  6  1  0  0  0  0
  5  6  2  0  0  0  0
  7  5  1  0  0  0  0
  8  3  1  0  0  0  0
  8 18  1  1  0  0  0
  9 11  1  0  0  0  0
 10  9  1  0  0  0  0
 10 11  1  0  0  0  0
 11  8  1  1  0  0  0
 12 10  1  0  0  0  0
 13 12  1  0  0  0  0
 14 15  1  0  0  0  0
 14 13  1  0  0  0  0
 16 17  1  0  0  0  0
 17 14  1  0  0  0  0
 18 20  1  0  0  0  0
 18 19  2  0  0  0  0
 20 21  1  0  0  0  0
 21 22  1  0  0  0  0
 23 24  1  0  0  0  0
 24 25  1  0  0  0  0
 24 22  2  0  0  0  0
 25 28  1  6  0  0  0
 27 26  1  0  0  0  0
 27 25  1  0  0  0  0
 28 29  1  0  0  0  0
 29 31  1  0  0  0  0
 29 30  1  0  0  0  0
 32  1  1  0  0  0  0
 33 34  1  0  0  0  0
 33 32  1  0  0  0  0
 35 40  1  0  0  0  0
 36 37  2  0  0  0  0
 38 45  1  0  0  0  0
 39 34  1  0  0  0  0
 40 42  2  0  0  0  0
 40 43  1  0  0  0  0
 41 44  2  0  0  0  0
 41 39  1  0  0  0  0
 42 44  1  0  0  0  0
 43 37  1  1  0  0  0
 43 41  1  0  0  0  0
 45 35  2  0  0  0  0
 45 36  1  0  0  0  0
 46 32  1  0  0  0  0
 47 46  1  0  0  0  0
 48 47  2  0  0  0  0
M  END
>  <MODEL>
6

>  <REMARK>
 VINA RESULT:      -6.5      4.191      7.633
  Name = 
  19 active torsions:
  status: ('A' for Active; 'I' for Inactive)
    1  A    between atoms: N_2  and  N_16
    2  A    between atoms: N_2  and  C_31
    3  A    between atoms: C_3  and  C_43
    4  A    between atoms: C_4  and  C_29
    5  A    between atoms: C_6  and  C_29
    6  A    between atoms: C_6  and  N_37
    7  A    between atoms: C_6  and  C_46
    8  A    between atoms: C_7  and  N_25
    9  A    between atoms: C_9  and  C_42
   10  A    between atoms: C_13  and  C_28
   11  A    between atoms: N_17  and  C_19
   12  A    between atoms: N_17  and  N_30
   13  A    between atoms: C_19  and  C_35
   14  A    between atoms: N_25  and  C_28
   15  A    between atoms: N_25  and  C_31
   16  A    between atoms: N_32  and  C_35
   17  A    between atoms: C_34  and  C_43
   18  A    between atoms: C_39  and  C_43
   19  A    between atoms: N_41  and  C_42
                            x       y       z     vdW  Elec       q    Type
                         _______ _______ _______ _____ _____    ______ ____

>  <TORSDO>
F 19

$$$$
=
 OpenBabel11042411193D

 48 51  0  0  1  0  0  0  0  0999 V2000
  186.1030  178.2930  143.4550 C   0  0  0  0  0  0  0  0  0  0  0  0
  185.2220  179.1020  142.5540 C   0  0  0  0  0  2  0  0  0  0  0  0
  183.8100  178.6200  142.5390 C   0  0  0  0  0  0  0  0  0  0  0  0
  183.0480  178.6420  143.6460 C   0  0  0  0  0  3  0  0  0  0  0  0
  184.7350  178.8070  145.4960 C   0  0  0  0  0  3  0  0  0  0  0  0
  183.4980  178.9610  145.0110 C   0  0  0  0  0  3  0  0  0  0  0  0
  185.9090  178.2810  144.7780 C   0  0  0  0  0  3  0  0  0  0  0  0
  183.2090  178.2590  141.2150 C   0  0  2  0  0  3  0  0  0  0  0  0
  183.2240  178.7830  138.7820 C   0  0  0  0  0  2  0  0  0  0  0  0
  184.4120  177.9570  139.0850 N   0  0  0  0  0  0  0  0  0  0  0  0
  183.9230  178.9660  140.0520 C   0  0  2  0  0  3  0  0  0  0  0  0
  185.6040  178.5430  138.4740 C   0  0  0  0  0  2  0  0  0  0  0  0
  186.5490  177.4770  137.8870 C   0  0  0  0  0  2  0  0  0  0  0  0
  187.2680  177.9640  136.7170 N   0  0  0  0  0  0  0  0  0  0  0  0
  186.3670  177.9450  135.7070 O   0  0  0  0  0  1  0  0  0  0  0  0
  189.0140  179.3740  137.2210 C   0  0  0  0  0  1  0  0  0  0  0  0
  187.5930  179.3170  136.9240 N   0  0  0  0  0  2  0  0  0  0  0  0
  181.7240  178.5020  141.2110 C   0  0  0  0  0  0  0  0  0  0  0  0
  181.2570  179.6130  141.5880 O   0  0  0  0  0  0  0  0  0  0  0  0
  180.8560  177.4770  140.7180 N   0  0  0  0  0  2  0  0  0  0  0  0
  179.4550  177.7060  140.4020 C   0  0  0  0  0  2  0  0  0  0  0  0
  179.3340  178.6910  139.2870 C   0  0  0  0  0  3  0  0  0  0  0  0
  179.7870  177.0260  137.6640 O   0  0  0  0  0  1  0  0  0  0  0  0
  179.5020  178.3490  138.0040 C   0  0  0  0  0  0  0  0  0  0  0  0
  179.3100  179.3660  136.8970 C   0  0  2  0  0  3  0  0  0  0  0  0
  179.7560  179.9440  134.6000 C   0  0  0  0  0  1  0  0  0  0  0  0
  180.1980  179.1520  135.7510 N   0  0  0  0  0  2  0  0  0  0  0  0
  179.2120  180.8550  137.2830 C   0  0  0  0  0  2  0  0  0  0  0  0
  180.5080  181.5160  137.7490 C   0  0  0  0  0  3  0  0  0  0  0  0
  180.2220  182.4150  138.7580 F   0  0  0  0  0  0  0  0  0  0  0  0
  181.1250  182.1910  136.7110 F   0  0  0  0  0  0  0  0  0  0  0  0
  187.3360  177.7800  142.9400 N   0  0  0  0  0  0  0  0  0  0  0  0
  187.7140  178.1010  141.5700 C   0  0  0  0  0  2  0  0  0  0  0  0
  189.0910  177.6980  141.3160 N   0  0  0  0  0  0  0  0  0  0  0  0
  193.2030  175.9430  137.3040 C   0  0  0  0  0  3  0  0  0  0  0  0
  191.0440  175.4840  136.2720 C   0  0  0  0  0  3  0  0  0  0  0  0
  190.3860  176.0150  137.3880 C   0  0  0  0  0  3  0  0  0  0  0  0
  193.0770  174.9100  135.1600 F   0  0  0  0  0  0  0  0  0  0  0  0
  189.5060  177.1270  140.0960 N   0  0  0  0  0  0  0  0  0  0  0  0
  192.5320  176.4810  138.4010 C   0  0  0  0  0  0  0  0  0  0  0  0
  190.7410  177.0960  139.6840 C   0  0  0  0  0  0  0  0  0  0  0  0
  193.1440  177.0690  139.6280 C   0  0  0  0  0  2  0  0  0  0  0  0
  191.1630  176.5030  138.4420 C   0  0  0  0  0  0  0  0  0  0  0  0
  191.9420  177.5150  140.4770 C   0  0  0  0  0  3  0  0  0  0  0  0
  192.4500  175.4430  136.2360 C   0  0  0  0  0  0  0  0  0  0  0  0
  187.8990  176.5610  143.5140 C   0  0  0  0  0  2  0  0  0  0  0  0
  188.7380  176.8840  144.7050 C   0  0  0  0  0  3  0  0  0  0  0  0
  189.5880  177.9040  144.6590 C   0  0  0  0  0  2  0  0  0  0  0  0
  1  7  2  0  0  0  0
  2  1  1  0  0  0  0
  3  2  1  0  0  0  0
  3  4  2  0  0  0  0
  4  6  1  0  0  0  0
  6  5  2  0  0  0  0
  7  5  1  0  0  0  0
  8 18  1  1  0  0  0
  8  3  1  0  0  0  0
  9 10  1  0  0  0  0
  9 11  1  0  0  0  0
 10 11  1  0  0  0  0
 11  8  1  1  0  0  0
 12 10  1  0  0  0  0
 13 12  1  0  0  0  0
 14 17  1  0  0  0  0
 14 13  1  0  0  0  0
 15 14  1  0  0  0  0
 17 16  1  0  0  0  0
 18 19  2  0  0  0  0
 20 18  1  0  0  0  0
 21 20  1  0  0  0  0
 22 21  1  0  0  0  0
 23 24  1  0  0  0  0
 24 22  2  0  0  0  0
 25 28  1  1  0  0  0
 25 24  1  0  0  0  0
 26 27  1  0  0  0  0
 27 25  1  0  0  0  0
 28 29  1  0  0  0  0
 29 30  1  0  0  0  0
 31 29  1  0  0  0  0
 32  1  1  0  0  0  0
 32 46  1  0  0  0  0
 33 32  1  0  0  0  0
 34 33  1  0  0  0  0
 35 40  1  0  0  0  0
 36 37  2  0  0  0  0
 37 43  1  0  0  0  0
 38 45  1  0  0  0  0
 39 34  2  0  0  0  0
 40 43  2  0  0  0  0
 40 42  1  0  0  0  0
 41 39  1  0  0  0  0
 41 44  2  0  0  0  0
 42 44  1  0  0  0  0
 43 41  1  0  0  0  0
 45 36  1  0  0  0  0
 45 35  2  0  0  0  0
 46 47  1  0  0  0  0
 48 47  2  0  0  0  0
M  END
>  <MODEL>
7

>  <REMARK>
 VINA RESULT:      -6.5      4.096     10.308
  Name = 
  19 active torsions:
  status: ('A' for Active; 'I' for Inactive)
    1  A    between atoms: N_2  and  N_16
    2  A    between atoms: N_2  and  C_31
    3  A    between atoms: C_3  and  C_43
    4  A    between atoms: C_4  and  C_29
    5  A    between atoms: C_6  and  C_29
    6  A    between atoms: C_6  and  N_37
    7  A    between atoms: C_6  and  C_46
    8  A    between atoms: C_7  and  N_25
    9  A    between atoms: C_9  and  C_42
   10  A    between atoms: C_13  and  C_28
   11  A    between atoms: N_17  and  C_19
   12  A    between atoms: N_17  and  N_30
   13  A    between atoms: C_19  and  C_35
   14  A    between atoms: N_25  and  C_28
   15  A    between atoms: N_25  and  C_31
   16  A    between atoms: N_32  and  C_35
   17  A    between atoms: C_34  and  C_43
   18  A    between atoms: C_39  and  C_43
   19  A    between atoms: N_41  and  C_42
                            x       y       z     vdW  Elec       q    Type
                         _______ _______ _______ _____ _____    ______ ____

>  <TORSDO>
F 19

$$$$
=
 OpenBabel11042411193D

 48 51  0  0  1  0  0  0  0  0999 V2000
  191.1360  176.6940  139.7580 C   0  0  0  0  0  0  0  0  0  0  0  0
  190.4230  175.7040  138.8910 C   0  0  0  0  0  2  0  0  0  0  0  0
  190.2840  176.1640  137.4790 C   0  0  0  0  0  0  0  0  0  0  0  0
  191.3580  176.3830  136.7020 C   0  0  0  0  0  3  0  0  0  0  0  0
  193.2210  176.6360  138.3630 C   0  0  0  0  0  3  0  0  0  0  0  0
  192.7660  176.3740  137.1330 C   0  0  0  0  0  3  0  0  0  0  0  0
  192.4210  176.9960  139.5460 C   0  0  0  0  0  3  0  0  0  0  0  0
  188.9040  176.2230  136.8960 C   0  0  2  0  0  3  0  0  0  0  0  0
  186.5100  176.2650  137.5720 C   0  0  0  0  0  2  0  0  0  0  0  0
  186.9430  177.6560  137.3150 N   0  0  0  0  0  0  0  0  0  0  0  0
  187.8640  176.6750  137.9330 C   0  0  2  0  0  3  0  0  0  0  0  0
  186.5090  178.5290  138.4050 C   0  0  0  0  0  2  0  0  0  0  0  0
  184.9770  178.6780  138.4640 C   0  0  0  0  0  2  0  0  0  0  0  0
  184.5630  179.7290  139.3850 N   0  0  0  0  0  0  0  0  0  0  0  0
  183.2090  179.7160  139.3590 O   0  0  0  0  0  1  0  0  0  0  0  0
  183.9650  178.3620  141.1350 C   0  0  0  0  0  1  0  0  0  0  0  0
  184.9310  179.3510  140.6880 N   0  0  0  0  0  2  0  0  0  0  0  0
  188.5370  174.9180  136.2440 C   0  0  0  0  0  0  0  0  0  0  0  0
  188.9560  173.8260  136.7200 O   0  0  0  0  0  0  0  0  0  0  0  0
  187.6590  174.9310  135.1150 N   0  0  0  0  0  2  0  0  0  0  0  0
  187.0160  173.7340  134.5940 C   0  0  0  0  0  2  0  0  0  0  0  0
  185.6010  173.6660  135.0620 C   0  0  0  0  0  3  0  0  0  0  0  0
  186.1940  172.2860  136.8950 O   0  0  0  0  0  1  0  0  0  0  0  0
  185.2360  172.9700  136.1470 C   0  0  0  0  0  0  0  0  0  0  0  0
  183.7980  172.9770  136.6250 C   0  0  2  0  0  3  0  0  0  0  0  0
  182.6110  171.0590  135.7730 C   0  0  0  0  0  1  0  0  0  0  0  0
  183.2830  171.6400  136.9370 N   0  0  0  0  0  2  0  0  0  0  0  0
  182.7730  173.8230  135.8460 C   0  0  0  0  0  2  0  0  0  0  0  0
  181.9410  174.8020  136.6720 C   0  0  0  0  0  3  0  0  0  0  0  0
  182.1800  174.5830  138.0140 F   0  0  0  0  0  0  0  0  0  0  0  0
  180.5890  174.6400  136.4260 F   0  0  0  0  0  0  0  0  0  0  0  0
  190.5370  177.0860  140.9980 N   0  0  0  0  0  0  0  0  0  0  0  0
  189.1830  177.6240  140.9870 C   0  0  0  0  0  2  0  0  0  0  0  0
  188.3480  176.9170  141.9500 N   0  0  0  0  0  2  0  0  0  0  0  0
  186.8150  178.2490  147.6040 C   0  0  0  0  0  3  0  0  0  0  0  0
  189.0910  177.3870  147.7290 C   0  0  0  0  0  3  0  0  0  0  0  0
  189.1210  177.2350  146.3370 C   0  0  0  0  0  3  0  0  0  0  0  0
  187.9110  178.0130  149.7070 F   0  0  0  0  0  0  0  0  0  0  0  0
  188.5700  176.9780  143.3410 N   0  0  0  0  0  2  0  0  0  0  0  0
  186.8670  178.1030  146.2180 C   0  0  0  0  0  0  0  0  0  0  0  0
  187.7610  177.5470  144.1870 C   0  0  0  0  0  0  0  0  0  0  0  0
  185.7910  178.4360  145.2400 C   0  0  0  0  0  3  0  0  0  0  0  0
  187.9850  177.5990  145.6090 C   0  0  0  0  0  0  0  0  0  0  0  0
  186.4020  178.0960  143.8710 C   0  0  0  0  0  3  0  0  0  0  0  0
  187.9370  177.8860  148.3590 C   0  0  2  0  0  3  0  0  0  0  0  0
  191.3940  177.4740  142.1160 C   0  0  0  0  0  2  0  0  0  0  0  0
  190.8990  178.7350  142.7410 C   0  0  0  0  0  3  0  0  0  0  0  0
  191.2800  179.0570  143.9720 C   0  0  0  0  0  2  0  0  0  0  0  0
  1 32  1  0  0  0  0
  2  1  1  0  0  0  0
  3  2  1  0  0  0  0
  4  6  1  0  0  0  0
  4  3  2  0  0  0  0
  5  7  1  0  0  0  0
  6  5  2  0  0  0  0
  7  1  2  0  0  0  0
  8 18  1  1  0  0  0
  8  3  1  0  0  0  0
  9 11  1  0  0  0  0
 10  9  1  0  0  0  0
 10 11  1  0  0  0  0
 10 12  1  0  0  0  0
 11  8  1  6  0  0  0
 12 13  1  0  0  0  0
 13 14  1  0  0  0  0
 14 17  1  0  0  0  0
 15 14  1  0  0  0  0
 17 16  1  0  0  0  0
 18 19  2  0  0  0  0
 20 18  1  0  0  0  0
 21 22  1  0  0  0  0
 21 20  1  0  0  0  0
 22 24  2  0  0  0  0
 24 25  1  0  0  0  0
 24 23  1  0  0  0  0
 25 28  1  6  0  0  0
 25 27  1  0  0  0  0
 26 27  1  0  0  0  0
 28 29  1  0  0  0  0
 29 30  1  0  0  0  0
 31 29  1  0  0  0  0
 32 46  1  0  0  0  0
 33 32  1  0  0  0  0
 33 34  1  0  0  0  0
 34 39  1  0  0  0  0
 35 45  1  0  0  0  0
 36 45  1  0  0  0  0
 37 36  2  0  0  0  0
 39 41  1  0  0  0  0
 40 35  2  0  0  0  0
 41 43  2  0  0  0  0
 42 40  1  0  0  0  0
 43 40  1  0  0  0  0
 43 37  1  0  0  0  0
 44 41  1  0  0  0  0
 44 42  2  0  0  0  0
 45 38  1  1  0  0  0
 46 47  1  0  0  0  0
 47 48  2  0  0  0  0
M  END
>  <MODEL>
8

>  <REMARK>
 VINA RESULT:      -6.5      3.371      8.401
  Name = 
  19 active torsions:
  status: ('A' for Active; 'I' for Inactive)
    1  A    between atoms: N_2  and  N_16
    2  A    between atoms: N_2  and  C_31
    3  A    between atoms: C_3  and  C_43
    4  A    between atoms: C_4  and  C_29
    5  A    between atoms: C_6  and  C_29
    6  A    between atoms: C_6  and  N_37
    7  A    between atoms: C_6  and  C_46
    8  A    between atoms: C_7  and  N_25
    9  A    between atoms: C_9  and  C_42
   10  A    between atoms: C_13  and  C_28
   11  A    between atoms: N_17  and  C_19
   12  A    between atoms: N_17  and  N_30
   13  A    between atoms: C_19  and  C_35
   14  A    between atoms: N_25  and  C_28
   15  A    between atoms: N_25  and  C_31
   16  A    between atoms: N_32  and  C_35
   17  A    between atoms: C_34  and  C_43
   18  A    between atoms: C_39  and  C_43
   19  A    between atoms: N_41  and  C_42
                            x       y       z     vdW  Elec       q    Type
                         _______ _______ _______ _____ _____    ______ ____

>  <TORSDO>
F 19

$$$$
=
 OpenBabel11042411193D

 48 51  0  0  1  0  0  0  0  0999 V2000
  190.4480  176.1770  137.8050 C   0  0  0  0  0  0  0  0  0  0  0  0
  189.4000  175.1120  137.7080 C   0  0  0  0  0  2  0  0  0  0  0  0
  188.9460  174.8710  136.3080 C   0  0  0  0  0  0  0  0  0  0  0  0
  189.7880  174.4170  135.3640 C   0  0  0  0  0  3  0  0  0  0  0  0
  192.0490  174.9410  136.3180 C   0  0  0  0  0  3  0  0  0  0  0  0
  191.2450  174.2560  135.4970 C   0  0  0  0  0  3  0  0  0  0  0  0
  191.6560  176.0050  137.2570 C   0  0  0  0  0  3  0  0  0  0  0  0
  187.4810  174.9970  136.0160 C   0  0  2  0  0  3  0  0  0  0  0  0
  185.3420  175.5000  137.1840 C   0  0  0  0  0  2  0  0  0  0  0  0
  185.7460  176.7000  136.4200 N   0  0  0  0  0  0  0  0  0  0  0  0
  186.7580  175.8420  137.0770 C   0  0  2  0  0  3  0  0  0  0  0  0
  185.6370  177.8930  137.2600 C   0  0  0  0  0  2  0  0  0  0  0  0
  184.3000  177.9560  138.0210 C   0  0  0  0  0  2  0  0  0  0  0  0
  184.4890  178.2000  139.4450 N   0  0  0  0  0  0  0  0  0  0  0  0
  185.3370  179.2520  139.5210 O   0  0  0  0  0  1  0  0  0  0  0  0
  182.4260  179.0400  138.8740 C   0  0  0  0  0  1  0  0  0  0  0  0
  183.2700  178.6420  139.9880 N   0  0  0  0  0  2  0  0  0  0  0  0
  186.8500  173.6450  135.8300 C   0  0  0  0  0  0  0  0  0  0  0  0
  187.1120  172.7010  136.6270 O   0  0  0  0  0  0  0  0  0  0  0  0
  185.9030  173.4620  134.7730 N   0  0  0  0  0  2  0  0  0  0  0  0
  185.0290  172.3020  134.6800 C   0  0  0  0  0  2  0  0  0  0  0  0
  183.6300  172.6840  135.0330 C   0  0  0  0  0  3  0  0  0  0  0  0
  183.9850  172.1720  137.3190 O   0  0  0  0  0  1  0  0  0  0  0  0
  183.1580  172.6070  136.2830 C   0  0  0  0  0  0  0  0  0  0  0  0
  181.7500  173.0630  136.6110 C   0  0  2  0  0  3  0  0  0  0  0  0
  179.9210  171.4920  136.6520 C   0  0  0  0  0  1  0  0  0  0  0  0
  180.7210  172.3890  135.8130 N   0  0  0  0  0  2  0  0  0  0  0  0
  181.4830  174.5750  136.7390 C   0  0  0  0  0  2  0  0  0  0  0  0
  181.0330  175.0660  138.1140 C   0  0  0  0  0  3  0  0  0  0  0  0
  182.0820  175.7210  138.7280 F   0  0  0  0  0  0  0  0  0  0  0  0
  180.6340  174.0110  138.9140 F   0  0  0  0  0  0  0  0  0  0  0  0
  190.2670  177.2440  138.7410 N   0  0  0  0  0  0  0  0  0  0  0  0
  191.0380  177.2340  139.9770 C   0  0  0  0  0  2  0  0  0  0  0  0
  190.5000  176.2470  140.9040 N   0  0  0  0  0  2  0  0  0  0  0  0
  188.0810  177.5960  146.2350 C   0  0  0  0  0  3  0  0  0  0  0  0
  190.4310  177.1310  146.6810 C   0  0  0  0  0  3  0  0  0  0  0  0
  190.6580  176.9140  145.3160 C   0  0  0  0  0  3  0  0  0  0  0  0
  188.9290  177.6540  148.4610 F   0  0  0  0  0  0  0  0  0  0  0  0
  190.5340  176.4160  142.3020 N   0  0  0  0  0  2  0  0  0  0  0  0
  188.3280  177.3890  144.8780 C   0  0  0  0  0  0  0  0  0  0  0  0
  189.5450  176.8850  143.0080 C   0  0  0  0  0  0  0  0  0  0  0  0
  187.3440  177.4880  143.7620 C   0  0  0  0  0  3  0  0  0  0  0  0
  189.5790  177.0470  144.4390 C   0  0  0  0  0  0  0  0  0  0  0  0
  188.1670  177.1840  142.4990 C   0  0  0  0  0  3  0  0  0  0  0  0
  189.1430  177.4640  147.1370 C   0  0  2  0  0  3  0  0  0  0  0  0
  189.0040  177.9780  138.7540 C   0  0  0  0  0  2  0  0  0  0  0  0
  189.0010  179.0310  137.6980 C   0  0  0  0  0  3  0  0  0  0  0  0
  189.0250  178.6820  136.4160 C   0  0  0  0  0  2  0  0  0  0  0  0
  1 32  1  0  0  0  0
  2  1  1  0  0  0  0
  3  2  1  0  0  0  0
  4  6  1  0  0  0  0
  4  3  2  0  0  0  0
  5  7  1  0  0  0  0
  6  5  2  0  0  0  0
  7  1  2  0  0  0  0
  8 18  1  1  0  0  0
  8  3  1  0  0  0  0
 10 11  1  0  0  0  0
 10  9  1  0  0  0  0
 10 12  1  0  0  0  0
 11  8  1  6  0  0  0
 11  9  1  0  0  0  0
 12 13  1  0  0  0  0
 13 14  1  0  0  0  0
 14 15  1  0  0  0  0
 14 17  1  0  0  0  0
 16 17  1  0  0  0  0
 18 19  2  0  0  0  0
 20 18  1  0  0  0  0
 21 20  1  0  0  0  0
 21 22  1  0  0  0  0
 22 24  2  0  0  0  0
 24 25  1  0  0  0  0
 24 23  1  0  0  0  0
 25 28  1  6  0  0  0
 27 25  1  0  0  0  0
 27 26  1  0  0  0  0
 28 29  1  0  0  0  0
 29 30  1  0  0  0  0
 29 31  1  0  0  0  0
 32 46  1  0  0  0  0
 32 33  1  0  0  0  0
 33 34  1  0  0  0  0
 34 39  1  0  0  0  0
 35 45  1  0  0  0  0
 36 45  1  0  0  0  0
 37 36  2  0  0  0  0
 39 41  1  0  0  0  0
 40 35  2  0  0  0  0
 41 43  2  0  0  0  0
 42 40  1  0  0  0  0
 43 40  1  0  0  0  0
 43 37  1  0  0  0  0
 44 41  1  0  0  0  0
 44 42  2  0  0  0  0
 45 38  1  1  0  0  0
 47 46  1  0  0  0  0
 48 47  2  0  0  0  0
M  END
>  <MODEL>
9

>  <REMARK>
 VINA RESULT:      -6.4      3.403      8.457
  Name = 
  19 active torsions:
  status: ('A' for Active; 'I' for Inactive)
    1  A    between atoms: N_2  and  N_16
    2  A    between atoms: N_2  and  C_31
    3  A    between atoms: C_3  and  C_43
    4  A    between atoms: C_4  and  C_29
    5  A    between atoms: C_6  and  C_29
    6  A    between atoms: C_6  and  N_37
    7  A    between atoms: C_6  and  C_46
    8  A    between atoms: C_7  and  N_25
    9  A    between atoms: C_9  and  C_42
   10  A    between atoms: C_13  and  C_28
   11  A    between atoms: N_17  and  C_19
   12  A    between atoms: N_17  and  N_30
   13  A    between atoms: C_19  and  C_35
   14  A    between atoms: N_25  and  C_28
   15  A    between atoms: N_25  and  C_31
   16  A    between atoms: N_32  and  C_35
   17  A    between atoms: C_34  and  C_43
   18  A    between atoms: C_39  and  C_43
   19  A    between atoms: N_41  and  C_42
                            x       y       z     vdW  Elec       q    Type
                         _______ _______ _______ _____ _____    ______ ____

>  <TORSDO>
F 19

$$$$
