=
 OpenBabel11032420443D

 45 50  0  0  1  0  0  0  0  0999 V2000
  190.3580  177.7090  140.4410 C   0  0  2  0  0  3  0  0  0  0  0  0
  192.8340  177.7470  139.7160 C   0  0  0  0  0  2  0  0  0  0  0  0
  191.5420  175.7280  137.9110 C   0  0  2  0  0  3  0  0  0  0  0  0
  189.7610  176.8650  139.2770 C   0  0  1  0  0  3  0  0  0  0  0  0
  190.9000  175.4360  136.5470 C   0  0  0  0  0  2  0  0  0  0  0  0
  188.3820  177.1270  139.0430 O   0  0  0  0  0  0  0  0  0  0  0  0
  188.7070  176.6030  136.5300 N   0  0  0  0  0  2  0  0  0  0  0  0
  190.6800  176.9670  138.0260 C   0  0  2  0  0  3  0  0  0  0  0  0
  188.1240  177.9260  136.7870 C   0  0  2  0  0  3  0  0  0  0  0  0
  188.2460  178.2970  138.2690 C   0  0  0  0  0  2  0  0  0  0  0  0
  192.9400  176.1670  137.7740 N   0  0  0  0  0  0  0  0  0  0  0  0
  191.8110  177.2820  140.7540 C   0  0  0  0  0  2  0  0  0  0  0  0
  193.4830  176.5040  139.0980 C   0  0  0  0  0  2  0  0  0  0  0  0
  190.1530  176.7540  136.6080 C   0  0  1  0  0  3  0  0  0  0  0  0
  186.4190  176.3490  145.3540 F   0  0  0  0  0  0  0  0  0  0  0  0
  188.1390  177.8430  141.6530 C   0  0  0  0  0  3  0  0  0  0  0  0
  187.9440  177.6070  144.0620 C   0  0  0  0  0  0  0  0  0  0  0  0
  189.3400  177.4010  144.1430 C   0  0  0  0  0  0  0  0  0  0  0  0
  187.8870  177.7460  146.6030 C   0  0  0  0  0  0  0  0  0  0  0  0
  186.0310  178.6760  145.1900 C   0  0  0  0  0  1  0  0  0  0  0  0
  187.0750  177.5640  145.3090 C   0  0  2  0  0  0  0  0  0  0  0  0
  189.9910  177.0300  145.4420 C   0  0  0  0  0  2  0  0  0  0  0  0
  189.2120  177.5270  146.6230 C   0  0  0  0  0  3  0  0  0  0  0  0
  189.5390  177.7040  141.7330 C   0  0  0  0  0  0  0  0  0  0  0  0
  190.1180  177.4430  142.9870 C   0  0  0  0  0  3  0  0  0  0  0  0
  187.3520  177.7960  142.8010 C   0  0  0  0  0  3  0  0  0  0  0  0
  187.9230  177.9870  149.0960 C   0  0  0  0  0  1  0  0  0  0  0  0
  187.2820  178.0920  147.8260 O   0  0  0  0  0  0  0  0  0  0  0  0
  186.6790  177.9740  136.2930 C   0  0  1  0  0  3  0  0  0  0  0  0
  186.6480  178.0740  134.8950 O   0  0  0  0  0  1  0  0  0  0  0  0
  185.9080  176.7460  136.7770 C   0  0  0  0  0  2  0  0  0  0  0  0
  183.6360  176.2920  137.5550 N   0  0  0  0  0  1  0  0  0  0  0  0
  184.8440  177.0560  137.8330 C   0  0  2  0  0  3  0  0  0  0  0  0
  184.4360  179.2470  139.0810 C   0  0  0  0  0  0  0  0  0  0  0  0
  184.6830  178.6130  140.4080 C   0  0  0  0  0  1  0  0  0  0  0  0
  184.5480  178.4880  137.8650 N   0  0  0  0  0  2  0  0  0  0  0  0
  184.1370  180.4720  139.0240 O   0  0  0  0  0  0  0  0  0  0  0  0
  193.7140  175.0170  137.3190 C   0  0  0  0  0  2  0  0  0  0  0  0
  194.7970  175.4810  136.4020 C   0  0  0  0  0  0  0  0  0  0  0  0
  195.5550  176.8810  134.5940 C   0  0  0  0  0  3  0  0  0  0  0  0
  197.1060  175.5100  135.8290 C   0  0  0  0  0  0  0  0  0  0  0  0
  198.3720  175.0860  136.0640 F   0  0  0  0  0  0  0  0  0  0  0  0
  196.0710  175.0520  136.5930 N   0  0  0  0  0  0  0  0  0  0  0  0
  194.5100  176.4020  135.3900 C   0  0  0  0  0  3  0  0  0  0  0  0
  196.8620  176.4360  134.8120 C   0  0  0  0  0  3  0  0  0  0  0  0
  1 12  1  0  0  0  0
  1 24  1  1  0  0  0
  2 12  1  0  0  0  0
  3  5  1  6  0  0  0
  3  8  1  0  0  0  0
  4  6  1  6  0  0  0
  4  1  1  0  0  0  0
  5 14  1  0  0  0  0
  7 14  1  0  0  0  0
  7  9  1  0  0  0  0
  8  4  1  0  0  0  0
  9 10  1  0  0  0  0
 10  6  1  0  0  0  0
 11  3  1  0  0  0  0
 11 13  1  0  0  0  0
 13  2  1  0  0  0  0
 14  8  1  0  0  0  0
 16 24  2  0  0  0  0
 16 26  1  0  0  0  0
 17 18  1  0  0  0  0
 17 21  1  0  0  0  0
 18 22  1  0  0  0  0
 19 23  2  0  0  0  0
 19 28  1  0  0  0  0
 20 21  1  0  0  0  0
 21 15  1  0  0  0  0
 21 19  1  0  0  0  0
 22 23  1  0  0  0  0
 24 25  1  0  0  0  0
 25 18  2  0  0  0  0
 26 17  2  0  0  0  0
 28 27  1  0  0  0  0
 29 31  1  0  0  0  0
 29  9  1  0  0  0  0
 30 29  1  0  0  0  0
 31 33  1  0  0  0  0
 32 33  1  0  0  0  0
 33 36  1  0  0  0  0
 34 35  1  0  0  0  0
 36 34  1  0  0  0  0
 37 34  2  0  0  0  0
 38 11  1  0  0  0  0
 39 43  1  0  0  0  0
 39 38  1  0  0  0  0
 40 45  2  0  0  0  0
 40 44  1  0  0  0  0
 41 42  1  0  0  0  0
 41 43  2  0  0  0  0
 44 39  2  0  0  0  0
 45 41  1  0  0  0  0
M  END
>  <MODEL>
1

>  <REMARK>
 VINA RESULT:      -9.4      0.000      0.000
  Name = 
  8 active torsions:
  status: ('A' for Active; 'I' for Inactive)
    1  A    between atoms: C_3  and  C_19
    2  A    between atoms: C_4  and  C_36
    3  A    between atoms: C_12  and  C_34
    4  A    between atoms: C_12  and  C_41
    5  A    between atoms: C_18  and  C_34
    6  A    between atoms: C_19  and  N_25
    7  A    between atoms: C_22  and  O_38
    8  A    between atoms: N_32  and  C_41
                            x       y       z     vdW  Elec       q    Type
                         _______ _______ _______ _____ _____    ______ ____

>  <TORSDO>
F 8

$$$$
=
 OpenBabel11032420443D

 45 50  0  0  1  0  0  0  0  0999 V2000
  184.6520  178.9590  139.9390 C   0  0  2  0  0  3  0  0  0  0  0  0
  182.5180  180.1650  139.1310 C   0  0  0  0  0  2  0  0  0  0  0  0
  181.5980  178.4200  141.3920 C   0  0  2  0  0  3  0  0  0  0  0  0
  184.1080  178.3260  141.2540 C   0  0  1  0  0  3  0  0  0  0  0  0
  181.2570  178.3120  142.8860 C   0  0  0  0  0  2  0  0  0  0  0  0
  185.1230  178.0870  142.2230 O   0  0  0  0  0  0  0  0  0  0  0  0
  183.4070  178.4840  144.1190 N   0  0  0  0  0  2  0  0  0  0  0  0
  182.8810  179.1360  141.7610 C   0  0  2  0  0  3  0  0  0  0  0  0
  184.5970  179.3410  144.2100 C   0  0  2  0  0  3  0  0  0  0  0  0
  185.4110  179.2820  142.9120 C   0  0  0  0  0  2  0  0  0  0  0  0
  180.7290  179.3880  140.7040 N   0  0  0  0  0  0  0  0  0  0  0  0
  183.5420  179.0600  138.8670 C   0  0  0  0  0  2  0  0  0  0  0  0
  181.1430  179.5090  139.2980 C   0  0  0  0  0  2  0  0  0  0  0  0
  182.4690  179.1560  143.2320 C   0  0  1  0  0  3  0  0  0  0  0  0
  189.7650  177.1910  136.4410 F   0  0  0  0  0  0  0  0  0  0  0  0
  185.7630  177.6640  138.0680 C   0  0  0  0  0  3  0  0  0  0  0  0
  188.1080  177.0400  138.1190 C   0  0  0  0  0  0  0  0  0  0  0  0
  188.2440  177.6950  139.3630 C   0  0  0  0  0  0  0  0  0  0  0  0
  190.4500  176.0950  138.4390 C   0  0  0  0  0  0  0  0  0  0  0  0
  188.8190  175.0590  136.8360 C   0  0  0  0  0  1  0  0  0  0  0  0
  189.3020  176.3730  137.4540 C   0  0  2  0  0  0  0  0  0  0  0  0
  189.5860  177.8450  140.0150 C   0  0  0  0  0  2  0  0  0  0  0  0
  190.5330  176.7560  139.6060 C   0  0  0  0  0  3  0  0  0  0  0  0
  185.8740  178.2620  139.3400 C   0  0  0  0  0  0  0  0  0  0  0  0
  187.1370  178.3030  139.9540 C   0  0  0  0  0  3  0  0  0  0  0  0
  186.8630  177.0600  137.4660 C   0  0  0  0  0  3  0  0  0  0  0  0
  192.6590  175.5210  137.4060 C   0  0  0  0  0  1  0  0  0  0  0  0
  191.4870  175.1880  138.1480 O   0  0  0  0  0  0  0  0  0  0  0  0
  185.4290  178.9640  145.4350 C   0  0  1  0  0  3  0  0  0  0  0  0
  184.6350  179.0040  146.5910 O   0  0  0  0  0  1  0  0  0  0  0  0
  186.0620  177.5860  145.2480 C   0  0  0  0  0  2  0  0  0  0  0  0
  187.4750  177.9270  147.2130 N   0  0  0  0  0  1  0  0  0  0  0  0
  187.4720  177.4640  145.8320 C   0  0  2  0  0  3  0  0  0  0  0  0
  189.0500  177.7230  143.8400 C   0  0  0  0  0  0  0  0  0  0  0  0
  188.6950  176.3780  143.3010 C   0  0  0  0  0  1  0  0  0  0  0  0
  188.4300  178.2300  145.0340 N   0  0  0  0  0  2  0  0  0  0  0  0
  189.8980  178.4310  143.2310 O   0  0  0  0  0  0  0  0  0  0  0  0
  179.3870  178.8150  140.6640 C   0  0  0  0  0  2  0  0  0  0  0  0
  179.4760  177.3720  140.2920 C   0  0  0  0  0  0  0  0  0  0  0  0
  180.0830  175.6450  138.7250 C   0  0  0  0  0  3  0  0  0  0  0  0
  179.3120  175.0890  140.9400 C   0  0  0  0  0  0  0  0  0  0  0  0
  179.0280  174.1620  141.8890 F   0  0  0  0  0  0  0  0  0  0  0  0
  179.1700  176.4190  141.2100 N   0  0  0  0  0  0  0  0  0  0  0  0
  179.9340  177.0030  139.0240 C   0  0  0  0  0  3  0  0  0  0  0  0
  179.7730  174.6790  139.6870 C   0  0  0  0  0  3  0  0  0  0  0  0
  1 24  1  6  0  0  0
  1  4  1  0  0  0  0
  2 13  1  0  0  0  0
  3  8  1  0  0  0  0
  3  5  1  1  0  0  0
  4  8  1  0  0  0  0
  4  6  1  1  0  0  0
  5 14  1  0  0  0  0
  6 10  1  0  0  0  0
  7  9  1  0  0  0  0
  8 14  1  0  0  0  0
  9 29  1  0  0  0  0
 10  9  1  0  0  0  0
 11  3  1  0  0  0  0
 12  2  1  0  0  0  0
 12  1  1  0  0  0  0
 13 11  1  0  0  0  0
 14  7  1  0  0  0  0
 15 21  1  0  0  0  0
 16 24  1  0  0  0  0
 17 18  2  0  0  0  0
 18 25  1  0  0  0  0
 18 22  1  0  0  0  0
 19 23  2  0  0  0  0
 20 21  1  0  0  0  0
 21 17  1  0  0  0  0
 21 19  1  0  0  0  0
 23 22  1  0  0  0  0
 24 25  2  0  0  0  0
 26 16  2  0  0  0  0
 26 17  1  0  0  0  0
 27 28  1  0  0  0  0
 28 19  1  0  0  0  0
 29 30  1  0  0  0  0
 31 29  1  0  0  0  0
 31 33  1  0  0  0  0
 33 32  1  0  0  0  0
 34 36  1  0  0  0  0
 35 34  1  0  0  0  0
 36 33  1  0  0  0  0
 37 34  2  0  0  0  0
 38 11  1  0  0  0  0
 39 38  1  0  0  0  0
 39 43  1  0  0  0  0
 40 44  1  0  0  0  0
 40 45  2  0  0  0  0
 41 43  2  0  0  0  0
 41 42  1  0  0  0  0
 44 39  2  0  0  0  0
 45 41  1  0  0  0  0
M  END
>  <MODEL>
2

>  <REMARK>
 VINA RESULT:      -8.2      4.103     10.661
  Name = 
  8 active torsions:
  status: ('A' for Active; 'I' for Inactive)
    1  A    between atoms: C_3  and  C_19
    2  A    between atoms: C_4  and  C_36
    3  A    between atoms: C_12  and  C_34
    4  A    between atoms: C_12  and  C_41
    5  A    between atoms: C_18  and  C_34
    6  A    between atoms: C_19  and  N_25
    7  A    between atoms: C_22  and  O_38
    8  A    between atoms: N_32  and  C_41
                            x       y       z     vdW  Elec       q    Type
                         _______ _______ _______ _____ _____    ______ ____

>  <TORSDO>
F 8

$$$$
=
 OpenBabel11032420443D

 45 50  0  0  1  0  0  0  0  0999 V2000
  184.7890  178.9160  143.0410 C   0  0  2  0  0  3  0  0  0  0  0  0
  185.4840  179.3800  145.4830 C   0  0  0  0  0  2  0  0  0  0  0  0
  187.2100  177.0810  144.6220 C   0  0  2  0  0  3  0  0  0  0  0  0
  185.9200  177.9270  142.6340 C   0  0  1  0  0  3  0  0  0  0  0  0
  188.5670  176.6170  144.0730 C   0  0  0  0  0  2  0  0  0  0  0  0
  186.1830  177.9190  141.2360 O   0  0  0  0  0  0  0  0  0  0  0  0
  188.6650  177.3560  141.7040 N   0  0  0  0  0  2  0  0  0  0  0  0
  187.1630  178.1440  143.5440 C   0  0  2  0  0  3  0  0  0  0  0  0
  188.4770  178.5590  140.8810 C   0  0  2  0  0  3  0  0  0  0  0  0
  187.0110  179.0090  140.9030 C   0  0  0  0  0  2  0  0  0  0  0  0
  187.3500  177.7650  145.9170 N   0  0  0  0  0  0  0  0  0  0  0  0
  184.4390  178.7800  144.5410 C   0  0  0  0  0  2  0  0  0  0  0  0
  186.0360  178.2530  146.3620 C   0  0  0  0  0  2  0  0  0  0  0  0
  188.5760  177.7760  143.0950 C   0  0  1  0  0  3  0  0  0  0  0  0
  179.1070  179.8570  140.1530 F   0  0  0  0  0  0  0  0  0  0  0  0
  182.2760  178.6560  142.8750 C   0  0  0  0  0  3  0  0  0  0  0  0
  181.0880  178.7210  140.7590 C   0  0  0  0  0  0  0  0  0  0  0  0
  182.3130  178.9480  140.0910 C   0  0  0  0  0  0  0  0  0  0  0  0
  179.9870  178.4050  138.4850 C   0  0  0  0  0  0  0  0  0  0  0  0
  178.9310  177.5400  140.5920 C   0  0  0  0  0  1  0  0  0  0  0  0
  179.7790  178.6610  139.9880 C   0  0  2  0  0  0  0  0  0  0  0  0
  182.3490  179.2410  138.6210 C   0  0  0  0  0  2  0  0  0  0  0  0
  181.1730  178.6480  137.9020 C   0  0  0  0  0  3  0  0  0  0  0  0
  183.5080  178.8160  142.2110 C   0  0  0  0  0  0  0  0  0  0  0  0
  183.5020  179.0010  140.8170 C   0  0  0  0  0  3  0  0  0  0  0  0
  181.0820  178.6080  142.1600 C   0  0  0  0  0  3  0  0  0  0  0  0
  179.1450  177.3680  136.3660 C   0  0  0  0  0  1  0  0  0  0  0  0
  178.9460  177.9640  137.6470 O   0  0  0  0  0  0  0  0  0  0  0  0
  188.9900  178.3170  139.4630 C   0  0  1  0  0  3  0  0  0  0  0  0
  190.2980  177.8130  139.5000 O   0  0  0  0  0  1  0  0  0  0  0  0
  188.0550  177.3710  138.7110 C   0  0  0  0  0  2  0  0  0  0  0  0
  188.0170  179.2960  137.2050 N   0  0  0  0  0  1  0  0  0  0  0  0
  187.5340  177.9340  137.3860 C   0  0  2  0  0  3  0  0  0  0  0  0
  185.3210  177.0140  136.5020 C   0  0  0  0  0  0  0  0  0  0  0  0
  186.0080  176.0100  135.6390 C   0  0  0  0  0  1  0  0  0  0  0  0
  186.0720  177.9010  137.3490 N   0  0  0  0  0  2  0  0  0  0  0  0
  184.0610  177.0750  136.4980 O   0  0  0  0  0  0  0  0  0  0  0  0
  187.7420  176.7590  146.9000 C   0  0  0  0  0  2  0  0  0  0  0  0
  189.1230  177.0530  147.3840 C   0  0  0  0  0  0  0  0  0  0  0  0
  190.6220  178.2530  148.8380 C   0  0  0  0  0  3  0  0  0  0  0  0
  191.4340  176.4880  147.4120 C   0  0  0  0  0  0  0  0  0  0  0  0
  192.4500  175.7070  146.9680 F   0  0  0  0  0  0  0  0  0  0  0  0
  190.1670  176.3080  146.9370 N   0  0  0  0  0  0  0  0  0  0  0  0
  189.3310  178.0490  148.3430 C   0  0  0  0  0  3  0  0  0  0  0  0
  191.6830  177.4690  148.3740 C   0  0  0  0  0  3  0  0  0  0  0  0
  1 24  1  6  0  0  0
  1 12  1  0  0  0  0
  2 13  1  0  0  0  0
  3  5  1  6  0  0  0
  3 11  1  0  0  0  0
  4  6  1  6  0  0  0
  4  1  1  0  0  0  0
  4  8  1  0  0  0  0
  7 14  1  0  0  0  0
  8  3  1  0  0  0  0
  9 10  1  0  0  0  0
  9  7  1  0  0  0  0
 10  6  1  0  0  0  0
 11 13  1  0  0  0  0
 11 38  1  0  0  0  0
 12  2  1  0  0  0  0
 14  8  1  0  0  0  0
 14  5  1  0  0  0  0
 17 26  1  0  0  0  0
 18 17  2  0  0  0  0
 18 25  1  0  0  0  0
 19 21  1  0  0  0  0
 21 15  1  0  0  0  0
 21 20  1  0  0  0  0
 21 17  1  0  0  0  0
 22 18  1  0  0  0  0
 23 19  2  0  0  0  0
 23 22  1  0  0  0  0
 24 16  1  0  0  0  0
 25 24  2  0  0  0  0
 26 16  2  0  0  0  0
 27 28  1  0  0  0  0
 28 19  1  0  0  0  0
 29 30  1  0  0  0  0
 29  9  1  0  0  0  0
 31 29  1  0  0  0  0
 32 33  1  0  0  0  0
 33 31  1  0  0  0  0
 34 36  1  0  0  0  0
 35 34  1  0  0  0  0
 36 33  1  0  0  0  0
 37 34  2  0  0  0  0
 38 39  1  0  0  0  0
 39 44  1  0  0  0  0
 41 45  2  0  0  0  0
 42 41  1  0  0  0  0
 43 39  2  0  0  0  0
 43 41  1  0  0  0  0
 44 40  2  0  0  0  0
 45 40  1  0  0  0  0
M  END
>  <MODEL>
3

>  <REMARK>
 VINA RESULT:      -8.0      4.529      8.951
  Name = 
  8 active torsions:
  status: ('A' for Active; 'I' for Inactive)
    1  A    between atoms: C_3  and  C_19
    2  A    between atoms: C_4  and  C_36
    3  A    between atoms: C_12  and  C_34
    4  A    between atoms: C_12  and  C_41
    5  A    between atoms: C_18  and  C_34
    6  A    between atoms: C_19  and  N_25
    7  A    between atoms: C_22  and  O_38
    8  A    between atoms: N_32  and  C_41
                            x       y       z     vdW  Elec       q    Type
                         _______ _______ _______ _____ _____    ______ ____

>  <TORSDO>
F 8

$$$$
=
 OpenBabel11032420443D

 45 50  0  0  1  0  0  0  0  0999 V2000
  186.4470  178.5470  140.2100 C   0  0  2  0  0  3  0  0  0  0  0  0
  188.0970  178.7490  138.2360 C   0  0  0  0  0  2  0  0  0  0  0  0
  185.9900  176.8410  137.2750 C   0  0  2  0  0  3  0  0  0  0  0  0
  185.2900  177.7820  139.5010 C   0  0  1  0  0  3  0  0  0  0  0  0
  184.6920  176.6420  136.4780 C   0  0  0  0  0  2  0  0  0  0  0  0
  184.0180  178.0060  140.1000 O   0  0  0  0  0  0  0  0  0  0  0  0
  182.8790  177.7140  137.7960 N   0  0  0  0  0  2  0  0  0  0  0  0
  185.3550  178.0300  137.9670 C   0  0  2  0  0  3  0  0  0  0  0  0
  182.5560  178.9850  138.4580 C   0  0  2  0  0  3  0  0  0  0  0  0
  183.4910  179.2320  139.6480 C   0  0  0  0  0  2  0  0  0  0  0  0
  187.0780  177.3480  136.4250 N   0  0  0  0  0  0  0  0  0  0  0  0
  187.8200  178.1550  139.6180 C   0  0  0  0  0  2  0  0  0  0  0  0
  188.2740  177.5920  137.2470 C   0  0  0  0  0  2  0  0  0  0  0  0
  184.1240  177.9180  137.0700 C   0  0  1  0  0  3  0  0  0  0  0  0
  185.5760  176.8400  146.3600 F   0  0  0  0  0  0  0  0  0  0  0  0
  185.3680  178.7990  142.4870 C   0  0  0  0  0  3  0  0  0  0  0  0
  186.4440  178.0630  144.5350 C   0  0  0  0  0  0  0  0  0  0  0  0
  187.5420  177.5970  143.7780 C   0  0  0  0  0  0  0  0  0  0  0  0
  187.8030  177.6320  146.6440 C   0  0  0  0  0  0  0  0  0  0  0  0
  185.8230  179.1750  146.6450 C   0  0  0  0  0  1  0  0  0  0  0  0
  186.4100  177.8960  146.0460 C   0  0  2  0  0  0  0  0  0  0  0  0
  188.6560  176.8310  144.4250 C   0  0  0  0  0  2  0  0  0  0  0  0
  188.8090  177.1800  145.8760 C   0  0  0  0  0  3  0  0  0  0  0  0
  186.4880  178.3970  141.7310 C   0  0  0  0  0  0  0  0  0  0  0  0
  187.5510  177.7590  142.3930 C   0  0  0  0  0  3  0  0  0  0  0  0
  185.3460  178.6360  143.8690 C   0  0  0  0  0  3  0  0  0  0  0  0
  189.2830  178.3510  148.5330 C   0  0  0  0  0  1  0  0  0  0  0  0
  188.0750  177.7950  148.0150 O   0  0  0  0  0  0  0  0  0  0  0  0
  181.0830  179.0150  138.8590 C   0  0  1  0  0  3  0  0  0  0  0  0
  180.2910  179.3980  137.7670 O   0  0  0  0  0  1  0  0  0  0  0  0
  180.6500  177.6550  139.4050 C   0  0  0  0  0  2  0  0  0  0  0  0
  179.2780  176.6910  141.1840 N   0  0  0  0  0  1  0  0  0  0  0  0
  180.3270  177.6610  140.9020 C   0  0  2  0  0  3  0  0  0  0  0  0
  180.4860  179.6630  142.4800 C   0  0  0  0  0  0  0  0  0  0  0  0
  181.5910  179.0410  143.2640 C   0  0  0  0  0  1  0  0  0  0  0  0
  179.9200  178.9970  141.3390 N   0  0  0  0  0  2  0  0  0  0  0  0
  180.0510  180.7990  142.8160 O   0  0  0  0  0  0  0  0  0  0  0  0
  187.4510  176.2750  135.5090 C   0  0  0  0  0  2  0  0  0  0  0  0
  188.7460  175.6760  135.9500 C   0  0  0  0  0  0  0  0  0  0  0  0
  189.9740  173.9620  137.1150 C   0  0  0  0  0  3  0  0  0  0  0  0
  191.1200  175.6300  135.8060 C   0  0  0  0  0  0  0  0  0  0  0  0
  192.2700  176.1500  135.3090 F   0  0  0  0  0  0  0  0  0  0  0  0
  189.9160  176.1920  135.4930 N   0  0  0  0  0  0  0  0  0  0  0  0
  188.7510  174.5510  136.7780 C   0  0  0  0  0  3  0  0  0  0  0  0
  191.1680  174.5000  136.6260 C   0  0  0  0  0  3  0  0  0  0  0  0
  1 24  1  1  0  0  0
  2 12  1  0  0  0  0
  3  5  1  6  0  0  0
  3  8  1  0  0  0  0
  4  6  1  1  0  0  0
  4  1  1  0  0  0  0
  5 14  1  0  0  0  0
  7  9  1  0  0  0  0
  8  4  1  0  0  0  0
  9 29  1  0  0  0  0
  9 10  1  0  0  0  0
 10  6  1  0  0  0  0
 11 13  1  0  0  0  0
 11  3  1  0  0  0  0
 12  1  1  0  0  0  0
 13  2  1  0  0  0  0
 14  7  1  0  0  0  0
 14  8  1  0  0  0  0
 16 26  1  0  0  0  0
 17 21  1  0  0  0  0
 18 22  1  0  0  0  0
 18 17  1  0  0  0  0
 19 28  1  0  0  0  0
 21 15  1  0  0  0  0
 21 19  1  0  0  0  0
 21 20  1  0  0  0  0
 22 23  1  0  0  0  0
 23 19  2  0  0  0  0
 24 25  1  0  0  0  0
 24 16  2  0  0  0  0
 25 18  2  0  0  0  0
 26 17  2  0  0  0  0
 28 27  1  0  0  0  0
 29 31  1  0  0  0  0
 30 29  1  0  0  0  0
 31 33  1  0  0  0  0
 33 32  1  0  0  0  0
 33 36  1  0  0  0  0
 34 37  2  0  0  0  0
 34 35  1  0  0  0  0
 36 34  1  0  0  0  0
 38 39  1  0  0  0  0
 38 11  1  0  0  0  0
 39 44  1  0  0  0  0
 41 45  2  0  0  0  0
 42 41  1  0  0  0  0
 43 41  1  0  0  0  0
 43 39  2  0  0  0  0
 44 40  2  0  0  0  0
 45 40  1  0  0  0  0
M  END
>  <MODEL>
4

>  <REMARK>
 VINA RESULT:      -8.0      2.990      4.889
  Name = 
  8 active torsions:
  status: ('A' for Active; 'I' for Inactive)
    1  A    between atoms: C_3  and  C_19
    2  A    between atoms: C_4  and  C_36
    3  A    between atoms: C_12  and  C_34
    4  A    between atoms: C_12  and  C_41
    5  A    between atoms: C_18  and  C_34
    6  A    between atoms: C_19  and  N_25
    7  A    between atoms: C_22  and  O_38
    8  A    between atoms: N_32  and  C_41
                            x       y       z     vdW  Elec       q    Type
                         _______ _______ _______ _____ _____    ______ ____

>  <TORSDO>
F 8

$$$$
=
 OpenBabel11032420443D

 45 50  0  0  1  0  0  0  0  0999 V2000
  191.0290  177.3190  140.0300 C   0  0  2  0  0  3  0  0  0  0  0  0
  193.1560  177.1280  138.5800 C   0  0  0  0  0  2  0  0  0  0  0  0
  191.1880  175.2650  137.2930 C   0  0  2  0  0  3  0  0  0  0  0  0
  190.0270  176.5500  139.1180 C   0  0  1  0  0  3  0  0  0  0  0  0
  190.1340  175.0530  136.1960 C   0  0  0  0  0  2  0  0  0  0  0  0
  188.6740  176.9450  139.3130 O   0  0  0  0  0  0  0  0  0  0  0  0
  188.1620  176.4240  136.8310 N   0  0  0  0  0  2  0  0  0  0  0  0
  190.5230  176.5800  137.6450 C   0  0  2  0  0  3  0  0  0  0  0  0
  187.8140  177.7940  137.2310 C   0  0  2  0  0  3  0  0  0  0  0  0
  188.4190  178.1330  138.5980 C   0  0  0  0  0  2  0  0  0  0  0  0
  192.5110  175.5700  136.7270 N   0  0  0  0  0  0  0  0  0  0  0  0
  192.4600  176.7510  139.8890 C   0  0  0  0  0  2  0  0  0  0  0  0
  193.4640  175.8370  137.8160 C   0  0  0  0  0  2  0  0  0  0  0  0
  189.5700  176.4360  136.4600 C   0  0  1  0  0  3  0  0  0  0  0  0
  189.9260  178.9930  146.1520 F   0  0  0  0  0  0  0  0  0  0  0  0
  191.6720  177.4740  142.4730 C   0  0  0  0  0  3  0  0  0  0  0  0
  190.0290  177.5860  144.2570 C   0  0  0  0  0  0  0  0  0  0  0  0
  188.9970  177.5550  143.2930 C   0  0  0  0  0  0  0  0  0  0  0  0
  188.2570  177.2980  146.0620 C   0  0  0  0  0  0  0  0  0  0  0  0
  190.6750  176.7760  146.4930 C   0  0  0  0  0  1  0  0  0  0  0  0
  189.7090  177.6920  145.7390 C   0  0  2  0  0  0  0  0  0  0  0  0
  187.5620  177.7320  143.6910 C   0  0  0  0  0  2  0  0  0  0  0  0
  187.3150  177.2950  145.1050 C   0  0  0  0  0  3  0  0  0  0  0  0
  190.6490  177.3760  141.5100 C   0  0  0  0  0  0  0  0  0  0  0  0
  189.3130  177.4590  141.9380 C   0  0  0  0  0  3  0  0  0  0  0  0
  191.3680  177.5770  143.8280 C   0  0  0  0  0  3  0  0  0  0  0  0
  187.6450  177.9410  148.4050 C   0  0  0  0  0  1  0  0  0  0  0  0
  187.8380  176.9800  147.3680 O   0  0  0  0  0  0  0  0  0  0  0  0
  186.2990  177.9860  137.2020 C   0  0  1  0  0  3  0  0  0  0  0  0
  185.6810  176.8760  136.6070 O   0  0  0  0  0  1  0  0  0  0  0  0
  185.7640  178.2240  138.6140 C   0  0  0  0  0  2  0  0  0  0  0  0
  184.3370  180.1480  139.1030 N   0  0  0  0  0  1  0  0  0  0  0  0
  184.3310  178.7640  138.6530 C   0  0  2  0  0  3  0  0  0  0  0  0
  182.0810  177.7630  139.3320 C   0  0  0  0  0  0  0  0  0  0  0  0
  181.3850  178.3640  138.1580 C   0  0  0  0  0  1  0  0  0  0  0  0
  183.4940  177.9440  139.5300 N   0  0  0  0  0  2  0  0  0  0  0  0
  181.4210  177.0730  140.1580 O   0  0  0  0  0  0  0  0  0  0  0  0
  192.9960  174.3570  136.0770 C   0  0  0  0  0  2  0  0  0  0  0  0
  194.4190  174.5490  135.6690 C   0  0  0  0  0  0  0  0  0  0  0  0
  196.1330  175.8600  134.5970 C   0  0  0  0  0  3  0  0  0  0  0  0
  196.6900  173.8560  135.8150 C   0  0  0  0  0  0  0  0  0  0  0  0
  197.6160  172.9830  136.2830 F   0  0  0  0  0  0  0  0  0  0  0  0
  195.3670  173.6760  136.0970 N   0  0  0  0  0  0  0  0  0  0  0  0
  194.7830  175.6600  134.9020 C   0  0  0  0  0  3  0  0  0  0  0  0
  197.0960  174.9570  135.0560 C   0  0  0  0  0  3  0  0  0  0  0  0
  1 24  1  1  0  0  0
  2 12  1  0  0  0  0
  3  5  1  6  0  0  0
  3  8  1  0  0  0  0
  4  6  1  6  0  0  0
  4  1  1  0  0  0  0
  5 14  1  0  0  0  0
  7  9  1  0  0  0  0
  8  4  1  0  0  0  0
  9 10  1  0  0  0  0
 10  6  1  0  0  0  0
 11  3  1  0  0  0  0
 11 13  1  0  0  0  0
 12  1  1  0  0  0  0
 13  2  1  0  0  0  0
 14  7  1  0  0  0  0
 14  8  1  0  0  0  0
 16 26  1  0  0  0  0
 17 21  1  0  0  0  0
 18 22  1  0  0  0  0
 18 17  1  0  0  0  0
 19 28  1  0  0  0  0
 21 19  1  0  0  0  0
 21 15  1  0  0  0  0
 21 20  1  0  0  0  0
 22 23  1  0  0  0  0
 23 19  2  0  0  0  0
 24 25  1  0  0  0  0
 24 16  2  0  0  0  0
 25 18  2  0  0  0  0
 26 17  2  0  0  0  0
 28 27  1  0  0  0  0
 29  9  1  0  0  0  0
 29 31  1  0  0  0  0
 30 29  1  0  0  0  0
 31 33  1  0  0  0  0
 33 32  1  0  0  0  0
 33 36  1  0  0  0  0
 34 36  1  0  0  0  0
 34 37  2  0  0  0  0
 35 34  1  0  0  0  0
 38 11  1  0  0  0  0
 39 38  1  0  0  0  0
 39 43  1  0  0  0  0
 40 44  1  0  0  0  0
 40 45  2  0  0  0  0
 41 43  2  0  0  0  0
 41 42  1  0  0  0  0
 44 39  2  0  0  0  0
 45 41  1  0  0  0  0
M  END
>  <MODEL>
5

>  <REMARK>
 VINA RESULT:      -7.8      1.610      2.228
  Name = 
  8 active torsions:
  status: ('A' for Active; 'I' for Inactive)
    1  A    between atoms: C_3  and  C_19
    2  A    between atoms: C_4  and  C_36
    3  A    between atoms: C_12  and  C_34
    4  A    between atoms: C_12  and  C_41
    5  A    between atoms: C_18  and  C_34
    6  A    between atoms: C_19  and  N_25
    7  A    between atoms: C_22  and  O_38
    8  A    between atoms: N_32  and  C_41
                            x       y       z     vdW  Elec       q    Type
                         _______ _______ _______ _____ _____    ______ ____

>  <TORSDO>
F 8

$$$$
=
 OpenBabel11032420443D

 45 50  0  0  1  0  0  0  0  0999 V2000
  184.0260  179.1100  139.9630 C   0  0  2  0  0  3  0  0  0  0  0  0
  181.7220  180.1760  139.5000 C   0  0  0  0  0  2  0  0  0  0  0  0
  181.2410  178.2820  141.7760 C   0  0  2  0  0  3  0  0  0  0  0  0
  183.7110  178.3880  141.3060 C   0  0  1  0  0  3  0  0  0  0  0  0
  181.1130  178.0910  143.2950 C   0  0  0  0  0  2  0  0  0  0  0  0
  184.8610  178.1920  142.1220 O   0  0  0  0  0  0  0  0  0  0  0  0
  183.3910  178.3830  144.2430 N   0  0  0  0  0  2  0  0  0  0  0  0
  182.5080  179.0800  142.0080 C   0  0  2  0  0  3  0  0  0  0  0  0
  184.5180  179.3250  144.2180 C   0  0  2  0  0  3  0  0  0  0  0  0
  185.1520  179.3790  142.8240 C   0  0  0  0  0  2  0  0  0  0  0  0
  180.2210  179.2040  141.2550 N   0  0  0  0  0  0  0  0  0  0  0  0
  182.7790  179.1650  139.0520 C   0  0  0  0  0  2  0  0  0  0  0  0
  180.4330  179.4100  139.8140 C   0  0  0  0  0  2  0  0  0  0  0  0
  182.2960  179.0130  143.5190 C   0  0  1  0  0  3  0  0  0  0  0  0
  189.0030  175.6550  137.7740 F   0  0  0  0  0  0  0  0  0  0  0  0
  186.5000  178.6240  139.7240 C   0  0  0  0  0  3  0  0  0  0  0  0
  187.4200  177.4070  137.8360 C   0  0  0  0  0  0  0  0  0  0  0  0
  186.1160  177.2540  137.3140 C   0  0  0  0  0  0  0  0  0  0  0  0
  188.3310  176.4820  135.6460 C   0  0  0  0  0  0  0  0  0  0  0  0
  189.7670  177.8210  137.2110 C   0  0  0  0  0  1  0  0  0  0  0  0
  188.6220  176.8110  137.1210 C   0  0  2  0  0  0  0  0  0  0  0  0
  185.8650  176.4120  136.0980 C   0  0  0  0  0  2  0  0  0  0  0  0
  187.0690  176.3390  135.2070 C   0  0  0  0  0  3  0  0  0  0  0  0
  185.2040  178.5330  139.1770 C   0  0  0  0  0  0  0  0  0  0  0  0
  185.0270  177.8060  137.9870 C   0  0  0  0  0  3  0  0  0  0  0  0
  187.5930  178.0700  139.0640 C   0  0  0  0  0  3  0  0  0  0  0  0
  190.1890  175.1030  134.6860 C   0  0  0  0  0  1  0  0  0  0  0  0
  189.3580  176.2630  134.7090 O   0  0  0  0  0  0  0  0  0  0  0  0
  185.5300  178.9680  145.3040 C   0  0  1  0  0  3  0  0  0  0  0  0
  184.9510  179.1110  146.5740 O   0  0  0  0  0  1  0  0  0  0  0  0
  186.0600  177.5490  145.0960 C   0  0  0  0  0  2  0  0  0  0  0  0
  187.6760  176.5140  143.5820 N   0  0  0  0  0  1  0  0  0  0  0  0
  187.5240  177.4900  144.6510 C   0  0  2  0  0  3  0  0  0  0  0  0
  189.7920  177.4850  145.8250 C   0  0  0  0  0  0  0  0  0  0  0  0
  190.4360  178.2620  144.7270 C   0  0  0  0  0  1  0  0  0  0  0  0
  188.3940  177.1550  145.7790 N   0  0  0  0  0  2  0  0  0  0  0  0
  190.4840  177.1230  146.8160 O   0  0  0  0  0  0  0  0  0  0  0  0
  178.9310  178.5300  141.3630 C   0  0  0  0  0  2  0  0  0  0  0  0
  178.9920  177.2240  140.6440 C   0  0  0  0  0  0  0  0  0  0  0  0
  179.0770  175.9630  138.5920 C   0  0  0  0  0  3  0  0  0  0  0  0
  179.3020  174.8670  140.7270 C   0  0  0  0  0  0  0  0  0  0  0  0
  179.5010  173.7410  141.4560 F   0  0  0  0  0  0  0  0  0  0  0  0
  179.1620  176.0750  141.3470 N   0  0  0  0  0  0  0  0  0  0  0  0
  178.9400  177.1910  139.2470 C   0  0  0  0  0  3  0  0  0  0  0  0
  179.2620  174.7920  139.3320 C   0  0  0  0  0  3  0  0  0  0  0  0
  1 24  1  6  0  0  0
  1  4  1  0  0  0  0
  2 13  1  0  0  0  0
  3  8  1  0  0  0  0
  3  5  1  1  0  0  0
  4  8  1  0  0  0  0
  4  6  1  1  0  0  0
  5 14  1  0  0  0  0
  6 10  1  0  0  0  0
  8 14  1  0  0  0  0
  9  7  1  0  0  0  0
  9 29  1  0  0  0  0
 10  9  1  0  0  0  0
 11 38  1  0  0  0  0
 11  3  1  0  0  0  0
 12  2  1  0  0  0  0
 12  1  1  0  0  0  0
 13 11  1  0  0  0  0
 14  7  1  0  0  0  0
 17 26  1  0  0  0  0
 18 17  2  0  0  0  0
 18 25  1  0  0  0  0
 19 21  1  0  0  0  0
 21 20  1  0  0  0  0
 21 15  1  0  0  0  0
 21 17  1  0  0  0  0
 22 18  1  0  0  0  0
 23 19  2  0  0  0  0
 23 22  1  0  0  0  0
 24 16  1  0  0  0  0
 25 24  2  0  0  0  0
 26 16  2  0  0  0  0
 27 28  1  0  0  0  0
 28 19  1  0  0  0  0
 29 30  1  0  0  0  0
 31 29  1  0  0  0  0
 32 33  1  0  0  0  0
 33 31  1  0  0  0  0
 33 36  1  0  0  0  0
 34 37  2  0  0  0  0
 35 34  1  0  0  0  0
 36 34  1  0  0  0  0
 39 43  1  0  0  0  0
 39 38  1  0  0  0  0
 40 44  1  0  0  0  0
 40 45  2  0  0  0  0
 41 43  2  0  0  0  0
 41 42  1  0  0  0  0
 44 39  2  0  0  0  0
 45 41  1  0  0  0  0
M  END
>  <MODEL>
6

>  <REMARK>
 VINA RESULT:      -7.5      4.318     11.240
  Name = 
  8 active torsions:
  status: ('A' for Active; 'I' for Inactive)
    1  A    between atoms: C_3  and  C_19
    2  A    between atoms: C_4  and  C_36
    3  A    between atoms: C_12  and  C_34
    4  A    between atoms: C_12  and  C_41
    5  A    between atoms: C_18  and  C_34
    6  A    between atoms: C_19  and  N_25
    7  A    between atoms: C_22  and  O_38
    8  A    between atoms: N_32  and  C_41
                            x       y       z     vdW  Elec       q    Type
                         _______ _______ _______ _____ _____    ______ ____

>  <TORSDO>
F 8

$$$$
=
 OpenBabel11032420443D

 45 50  0  0  1  0  0  0  0  0999 V2000
  190.6570  177.0120  138.0710 C   0  0  2  0  0  3  0  0  0  0  0  0
  189.1540  178.6970  136.8210 C   0  0  0  0  0  2  0  0  0  0  0  0
  187.4430  177.6660  139.0600 C   0  0  2  0  0  3  0  0  0  0  0  0
  189.7800  176.7730  139.3360 C   0  0  1  0  0  3  0  0  0  0  0  0
  186.9080  177.8810  140.4840 C   0  0  0  0  0  2  0  0  0  0  0  0
  190.5330  176.3690  140.4730 O   0  0  0  0  0  0  0  0  0  0  0  0
  188.8290  177.5450  142.0230 N   0  0  0  0  0  2  0  0  0  0  0  0
  188.8360  177.9890  139.5610 C   0  0  2  0  0  3  0  0  0  0  0  0
  190.2140  177.9910  142.2230 C   0  0  2  0  0  3  0  0  0  0  0  0
  191.1140  177.4980  141.0840 C   0  0  0  0  0  2  0  0  0  0  0  0
  187.0320  178.7490  138.1540 N   0  0  0  0  0  0  0  0  0  0  0  0
  189.7810  177.3020  136.8300 C   0  0  0  0  0  2  0  0  0  0  0  0
  187.6300  178.5350  136.8270 C   0  0  0  0  0  2  0  0  0  0  0  0
  188.2790  178.3440  140.9380 C   0  0  1  0  0  3  0  0  0  0  0  0
  194.9720  173.0530  135.3870 F   0  0  0  0  0  0  0  0  0  0  0  0
  191.3090  174.9580  136.7420 C   0  0  0  0  0  3  0  0  0  0  0  0
  193.4510  173.8480  137.0100 C   0  0  0  0  0  0  0  0  0  0  0  0
  193.8210  174.8190  137.9690 C   0  0  0  0  0  0  0  0  0  0  0  0
  195.5370  172.5320  137.6400 C   0  0  0  0  0  0  0  0  0  0  0  0
  193.6020  171.4510  136.4600 C   0  0  0  0  0  1  0  0  0  0  0  0
  194.4120  172.7400  136.6110 C   0  0  2  0  0  0  0  0  0  0  0  0
  195.2060  174.8490  138.5420 C   0  0  0  0  0  2  0  0  0  0  0  0
  195.8510  173.4950  138.5230 C   0  0  0  0  0  3  0  0  0  0  0  0
  191.6440  175.8910  137.7440 C   0  0  0  0  0  0  0  0  0  0  0  0
  192.9250  175.8280  138.3180 C   0  0  0  0  0  3  0  0  0  0  0  0
  192.1980  173.9500  136.3800 C   0  0  0  0  0  3  0  0  0  0  0  0
  197.3020  171.0270  136.6940 C   0  0  0  0  0  1  0  0  0  0  0  0
  196.3180  171.3610  137.6720 O   0  0  0  0  0  0  0  0  0  0  0  0
  190.7200  177.5500  143.5950 C   0  0  1  0  0  3  0  0  0  0  0  0
  192.0550  177.9430  143.7690 O   0  0  0  0  0  1  0  0  0  0  0  0
  189.8290  178.1160  144.7000 C   0  0  0  0  0  2  0  0  0  0  0  0
  188.1300  177.1420  146.1640 N   0  0  0  0  0  1  0  0  0  0  0  0
  189.5490  177.1320  145.8400 C   0  0  2  0  0  3  0  0  0  0  0  0
  191.5280  176.7470  147.4090 C   0  0  0  0  0  0  0  0  0  0  0  0
  192.0560  175.6290  146.5760 C   0  0  0  0  0  1  0  0  0  0  0  0
  190.3460  177.4680  147.0200 N   0  0  0  0  0  2  0  0  0  0  0  0
  192.1360  177.0740  148.4650 O   0  0  0  0  0  0  0  0  0  0  0  0
  185.5920  178.6240  137.9530 C   0  0  0  0  0  2  0  0  0  0  0  0
  185.3050  177.3700  137.1960 C   0  0  0  0  0  0  0  0  0  0  0  0
  185.4180  176.0730  135.1680 C   0  0  0  0  0  3  0  0  0  0  0  0
  184.5830  175.1030  137.2110 C   0  0  0  0  0  0  0  0  0  0  0  0
  184.0950  174.0380  137.8940 F   0  0  0  0  0  0  0  0  0  0  0  0
  184.7880  176.2940  137.8450 N   0  0  0  0  0  0  0  0  0  0  0  0
  185.6250  177.2840  135.8380 C   0  0  0  0  0  3  0  0  0  0  0  0
  184.8960  174.9730  135.8560 C   0  0  0  0  0  3  0  0  0  0  0  0
  1 24  1  6  0  0  0
  1  4  1  0  0  0  0
  2 13  1  0  0  0  0
  2 12  1  0  0  0  0
  3  8  1  0  0  0  0
  3  5  1  1  0  0  0
  4  8  1  0  0  0  0
  4  6  1  1  0  0  0
  5 14  1  0  0  0  0
  6 10  1  0  0  0  0
  7  9  1  0  0  0  0
  8 14  1  0  0  0  0
  9 29  1  0  0  0  0
 10  9  1  0  0  0  0
 11  3  1  0  0  0  0
 12  1  1  0  0  0  0
 13 11  1  0  0  0  0
 14  7  1  0  0  0  0
 15 21  1  0  0  0  0
 16 24  1  0  0  0  0
 17 18  2  0  0  0  0
 18 25  1  0  0  0  0
 18 22  1  0  0  0  0
 19 28  1  0  0  0  0
 19 23  2  0  0  0  0
 20 21  1  0  0  0  0
 21 17  1  0  0  0  0
 21 19  1  0  0  0  0
 23 22  1  0  0  0  0
 24 25  2  0  0  0  0
 26 16  2  0  0  0  0
 26 17  1  0  0  0  0
 27 28  1  0  0  0  0
 29 30  1  0  0  0  0
 29 31  1  0  0  0  0
 31 33  1  0  0  0  0
 33 32  1  0  0  0  0
 33 36  1  0  0  0  0
 34 37  2  0  0  0  0
 35 34  1  0  0  0  0
 36 34  1  0  0  0  0
 38 11  1  0  0  0  0
 39 43  1  0  0  0  0
 39 38  1  0  0  0  0
 40 44  1  0  0  0  0
 40 45  2  0  0  0  0
 41 43  2  0  0  0  0
 41 42  1  0  0  0  0
 44 39  2  0  0  0  0
 45 41  1  0  0  0  0
M  END
>  <MODEL>
7

>  <REMARK>
 VINA RESULT:      -7.4      3.593      9.446
  Name = 
  8 active torsions:
  status: ('A' for Active; 'I' for Inactive)
    1  A    between atoms: C_3  and  C_19
    2  A    between atoms: C_4  and  C_36
    3  A    between atoms: C_12  and  C_34
    4  A    between atoms: C_12  and  C_41
    5  A    between atoms: C_18  and  C_34
    6  A    between atoms: C_19  and  N_25
    7  A    between atoms: C_22  and  O_38
    8  A    between atoms: N_32  and  C_41
                            x       y       z     vdW  Elec       q    Type
                         _______ _______ _______ _____ _____    ______ ____

>  <TORSDO>
F 8

$$$$
=
 OpenBabel11032420443D

 45 50  0  0  1  0  0  0  0  0999 V2000
  184.7580  178.9890  142.8540 C   0  0  2  0  0  3  0  0  0  0  0  0
  185.4470  179.4820  145.2920 C   0  0  0  0  0  2  0  0  0  0  0  0
  187.0970  177.1050  144.5000 C   0  0  2  0  0  3  0  0  0  0  0  0
  185.8570  177.9510  142.4810 C   0  0  1  0  0  3  0  0  0  0  0  0
  188.4430  176.5810  143.9750 C   0  0  0  0  0  2  0  0  0  0  0  0
  186.1330  177.9020  141.0850 O   0  0  0  0  0  0  0  0  0  0  0  0
  188.5880  177.2620  141.5910 N   0  0  0  0  0  2  0  0  0  0  0  0
  187.0980  178.1440  143.3980 C   0  0  2  0  0  3  0  0  0  0  0  0
  188.4500  178.4520  140.7400 C   0  0  2  0  0  3  0  0  0  0  0  0
  187.0020  178.9540  140.7370 C   0  0  0  0  0  2  0  0  0  0  0  0
  187.2500  177.8120  145.7810 N   0  0  0  0  0  0  0  0  0  0  0  0
  184.3900  178.8980  144.3530 C   0  0  0  0  0  2  0  0  0  0  0  0
  185.9500  178.3570  146.2020 C   0  0  0  0  0  2  0  0  0  0  0  0
  188.5010  177.7160  142.9710 C   0  0  1  0  0  3  0  0  0  0  0  0
  179.0760  180.0030  139.9940 F   0  0  0  0  0  0  0  0  0  0  0  0
  182.2490  178.7030  142.6630 C   0  0  0  0  0  3  0  0  0  0  0  0
  181.0700  178.8640  140.5470 C   0  0  0  0  0  0  0  0  0  0  0  0
  182.2940  179.1420  139.8990 C   0  0  0  0  0  0  0  0  0  0  0  0
  179.9830  178.6540  138.2550 C   0  0  0  0  0  0  0  0  0  0  0  0
  178.9310  177.6640  140.3080 C   0  0  0  0  0  1  0  0  0  0  0  0
  179.7650  178.8270  139.7680 C   0  0  2  0  0  0  0  0  0  0  0  0
  182.3310  179.5140  138.4460 C   0  0  0  0  0  2  0  0  0  0  0  0
  181.1680  178.9440  137.6910 C   0  0  0  0  0  3  0  0  0  0  0  0
  183.4830  178.9150  142.0140 C   0  0  0  0  0  0  0  0  0  0  0  0
  183.4790  179.1740  140.6320 C   0  0  0  0  0  3  0  0  0  0  0  0
  181.0590  178.6770  141.9410 C   0  0  0  0  0  3  0  0  0  0  0  0
  179.1300  177.3400  136.3000 C   0  0  0  0  0  1  0  0  0  0  0  0
  178.9510  178.2440  137.3890 O   0  0  0  0  0  0  0  0  0  0  0  0
  188.9680  178.1600  139.3330 C   0  0  1  0  0  3  0  0  0  0  0  0
  189.0110  179.3410  138.5770 O   0  0  0  0  0  1  0  0  0  0  0  0
  190.3420  177.4940  139.3960 C   0  0  0  0  0  2  0  0  0  0  0  0
  189.6720  176.0140  137.5700 N   0  0  0  0  0  1  0  0  0  0  0  0
  190.7680  176.8210  138.0890 C   0  0  2  0  0  3  0  0  0  0  0  0
  192.3620  174.9480  137.3970 C   0  0  0  0  0  0  0  0  0  0  0  0
  191.6050  174.6800  136.1400 C   0  0  0  0  0  1  0  0  0  0  0  0
  191.9580  175.9950  138.2960 N   0  0  0  0  0  2  0  0  0  0  0  0
  193.3790  174.2530  137.6680 O   0  0  0  0  0  0  0  0  0  0  0  0
  187.5970  176.8160  146.7890 C   0  0  0  0  0  2  0  0  0  0  0  0
  188.9430  177.1290  147.3520 C   0  0  0  0  0  0  0  0  0  0  0  0
  190.3290  178.2780  148.9540 C   0  0  0  0  0  3  0  0  0  0  0  0
  191.2750  176.6630  147.4350 C   0  0  0  0  0  0  0  0  0  0  0  0
  192.3420  175.9620  146.9760 F   0  0  0  0  0  0  0  0  0  0  0  0
  190.0360  176.4660  146.8950 N   0  0  0  0  0  0  0  0  0  0  0  0
  189.0690  178.0570  148.3910 C   0  0  0  0  0  3  0  0  0  0  0  0
  191.4410  177.5770  148.4780 C   0  0  0  0  0  3  0  0  0  0  0  0
  1 24  1  6  0  0  0
  1 12  1  0  0  0  0
  2 13  1  0  0  0  0
  3  5  1  6  0  0  0
  3 11  1  0  0  0  0
  4  6  1  6  0  0  0
  4  1  1  0  0  0  0
  4  8  1  0  0  0  0
  7 14  1  0  0  0  0
  8  3  1  0  0  0  0
  9  7  1  0  0  0  0
 10  9  1  0  0  0  0
 10  6  1  0  0  0  0
 11 13  1  0  0  0  0
 11 38  1  0  0  0  0
 12  2  1  0  0  0  0
 14  8  1  0  0  0  0
 14  5  1  0  0  0  0
 17 26  1  0  0  0  0
 18 17  2  0  0  0  0
 18 25  1  0  0  0  0
 19 21  1  0  0  0  0
 21 15  1  0  0  0  0
 21 20  1  0  0  0  0
 21 17  1  0  0  0  0
 22 18  1  0  0  0  0
 23 19  2  0  0  0  0
 23 22  1  0  0  0  0
 24 16  1  0  0  0  0
 25 24  2  0  0  0  0
 26 16  2  0  0  0  0
 27 28  1  0  0  0  0
 28 19  1  0  0  0  0
 29 31  1  0  0  0  0
 29  9  1  0  0  0  0
 30 29  1  0  0  0  0
 32 33  1  0  0  0  0
 33 36  1  0  0  0  0
 33 31  1  0  0  0  0
 34 37  2  0  0  0  0
 34 36  1  0  0  0  0
 35 34  1  0  0  0  0
 38 39  1  0  0  0  0
 39 44  1  0  0  0  0
 41 45  2  0  0  0  0
 42 41  1  0  0  0  0
 43 39  2  0  0  0  0
 43 41  1  0  0  0  0
 44 40  2  0  0  0  0
 45 40  1  0  0  0  0
M  END
>  <MODEL>
8

>  <REMARK>
 VINA RESULT:      -7.3      3.780      9.404
  Name = 
  8 active torsions:
  status: ('A' for Active; 'I' for Inactive)
    1  A    between atoms: C_3  and  C_19
    2  A    between atoms: C_4  and  C_36
    3  A    between atoms: C_12  and  C_34
    4  A    between atoms: C_12  and  C_41
    5  A    between atoms: C_18  and  C_34
    6  A    between atoms: C_19  and  N_25
    7  A    between atoms: C_22  and  O_38
    8  A    between atoms: N_32  and  C_41
                            x       y       z     vdW  Elec       q    Type
                         _______ _______ _______ _____ _____    ______ ____

>  <TORSDO>
F 8

$$$$
=
 OpenBabel11032420443D

 45 50  0  0  1  0  0  0  0  0999 V2000
  182.4800  178.6740  141.8580 C   0  0  2  0  0  3  0  0  0  0  0  0
  180.0610  179.5320  141.5850 C   0  0  0  0  0  2  0  0  0  0  0  0
  181.5320  180.6300  139.2110 C   0  0  2  0  0  3  0  0  0  0  0  0
  183.0500  179.0600  140.4610 C   0  0  1  0  0  3  0  0  0  0  0  0
  181.8960  180.4700  137.7280 C   0  0  0  0  0  2  0  0  0  0  0  0
  184.1450  178.2460  140.0560 O   0  0  0  0  0  0  0  0  0  0  0  0
  183.4500  178.5380  137.5820 N   0  0  0  0  0  2  0  0  0  0  0  0
  181.8900  179.1750  139.4320 C   0  0  2  0  0  3  0  0  0  0  0  0
  183.5580  177.1350  138.0030 C   0  0  2  0  0  3  0  0  0  0  0  0
  183.6630  177.0310  139.5290 C   0  0  0  0  0  2  0  0  0  0  0  0
  180.0800  180.7680  139.4050 N   0  0  0  0  0  0  0  0  0  0  0  0
  181.3970  179.6780  142.3170 C   0  0  0  0  0  2  0  0  0  0  0  0
  179.7790  180.8420  140.8430 C   0  0  0  0  0  2  0  0  0  0  0  0
  182.1090  178.9830  137.9320 C   0  0  1  0  0  3  0  0  0  0  0  0
  185.9970  176.8370  146.9330 F   0  0  0  0  0  0  0  0  0  0  0  0
  183.1580  178.8020  144.2940 C   0  0  0  0  0  3  0  0  0  0  0  0
  185.3630  178.1540  145.0770 C   0  0  0  0  0  0  0  0  0  0  0  0
  185.7160  177.8010  143.7560 C   0  0  0  0  0  0  0  0  0  0  0  0
  187.8000  177.8340  145.7400 C   0  0  0  0  0  0  0  0  0  0  0  0
  186.2170  179.1820  147.1480 C   0  0  0  0  0  1  0  0  0  0  0  0
  186.3450  177.9700  146.2230 C   0  0  2  0  0  0  0  0  0  0  0  0
  187.0280  177.1380  143.4570 C   0  0  0  0  0  2  0  0  0  0  0  0
  188.0760  177.4870  144.4720 C   0  0  0  0  0  3  0  0  0  0  0  0
  183.5250  178.5150  142.9640 C   0  0  0  0  0  0  0  0  0  0  0  0
  184.7990  177.9750  142.7200 C   0  0  0  0  0  3  0  0  0  0  0  0
  184.0640  178.6250  145.3370 C   0  0  0  0  0  3  0  0  0  0  0  0
  188.9360  177.5510  147.9550 C   0  0  0  0  0  1  0  0  0  0  0  0
  188.8970  178.0100  146.6040 O   0  0  0  0  0  0  0  0  0  0  0  0
  184.7290  176.4570  137.2930 C   0  0  1  0  0  3  0  0  0  0  0  0
  184.2560  175.6060  136.2830 O   0  0  0  0  0  1  0  0  0  0  0  0
  185.6900  177.5030  136.7290 C   0  0  0  0  0  2  0  0  0  0  0  0
  187.6260  176.0820  137.1840 N   0  0  0  0  0  1  0  0  0  0  0  0
  187.1010  177.4330  137.3190 C   0  0  2  0  0  3  0  0  0  0  0  0
  188.2920  178.0390  139.4960 C   0  0  0  0  0  0  0  0  0  0  0  0
  189.6400  177.8940  138.8750 C   0  0  0  0  0  1  0  0  0  0  0  0
  187.0950  177.8430  138.7240 N   0  0  0  0  0  2  0  0  0  0  0  0
  188.2010  178.3520  140.7150 O   0  0  0  0  0  0  0  0  0  0  0  0
  179.6900  182.0640  138.8600 C   0  0  0  0  0  2  0  0  0  0  0  0
  179.7140  182.0020  137.3690 C   0  0  0  0  0  0  0  0  0  0  0  0
  178.9310  181.0500  135.2990 C   0  0  0  0  0  3  0  0  0  0  0  0
  180.4150  182.9500  135.3030 C   0  0  0  0  0  0  0  0  0  0  0  0
  181.1140  183.8990  134.6320 F   0  0  0  0  0  0  0  0  0  0  0  0
  180.4270  182.9200  136.6680 N   0  0  0  0  0  0  0  0  0  0  0  0
  178.9530  181.0400  136.6970 C   0  0  0  0  0  3  0  0  0  0  0  0
  179.6630  182.0100  134.5940 C   0  0  0  0  0  3  0  0  0  0  0  0
  1 12  1  0  0  0  0
  1 24  1  1  0  0  0
  2 12  1  0  0  0  0
  3  5  1  6  0  0  0
  3 11  1  0  0  0  0
  3  8  1  0  0  0  0
  4  6  1  6  0  0  0
  4  1  1  0  0  0  0
  5 14  1  0  0  0  0
  7 14  1  0  0  0  0
  7  9  1  0  0  0  0
  8  4  1  0  0  0  0
  9 10  1  0  0  0  0
 10  6  1  0  0  0  0
 11 13  1  0  0  0  0
 13  2  1  0  0  0  0
 14  8  1  0  0  0  0
 16 26  1  0  0  0  0
 17 26  2  0  0  0  0
 17 21  1  0  0  0  0
 18 17  1  0  0  0  0
 19 21  1  0  0  0  0
 19 28  1  0  0  0  0
 21 15  1  0  0  0  0
 21 20  1  0  0  0  0
 22 18  1  0  0  0  0
 22 23  1  0  0  0  0
 23 19  2  0  0  0  0
 24 16  2  0  0  0  0
 25 24  1  0  0  0  0
 25 18  2  0  0  0  0
 28 27  1  0  0  0  0
 29  9  1  0  0  0  0
 30 29  1  0  0  0  0
 31 29  1  0  0  0  0
 31 33  1  0  0  0  0
 32 33  1  0  0  0  0
 33 36  1  0  0  0  0
 34 37  2  0  0  0  0
 35 34  1  0  0  0  0
 36 34  1  0  0  0  0
 38 11  1  0  0  0  0
 39 38  1  0  0  0  0
 40 44  2  0  0  0  0
 41 43  1  0  0  0  0
 42 41  1  0  0  0  0
 43 39  2  0  0  0  0
 44 39  1  0  0  0  0
 45 40  1  0  0  0  0
 45 41  2  0  0  0  0
M  END
>  <MODEL>
9

>  <REMARK>
 VINA RESULT:      -7.2      4.299      9.437
  Name = 
  8 active torsions:
  status: ('A' for Active; 'I' for Inactive)
    1  A    between atoms: C_3  and  C_19
    2  A    between atoms: C_4  and  C_36
    3  A    between atoms: C_12  and  C_34
    4  A    between atoms: C_12  and  C_41
    5  A    between atoms: C_18  and  C_34
    6  A    between atoms: C_19  and  N_25
    7  A    between atoms: C_22  and  O_38
    8  A    between atoms: N_32  and  C_41
                            x       y       z     vdW  Elec       q    Type
                         _______ _______ _______ _____ _____    ______ ____

>  <TORSDO>
F 8

$$$$
