=
 OpenBabel11042410483D

 31 34  0  0  1  0  0  0  0  0999 V2000
  184.4480  179.1720  139.3660 C   0  0  0  0  0  1  0  0  0  0  0  0
  186.1560  177.9200  144.7700 C   0  0  0  0  0  1  0  0  0  0  0  0
  190.1280  178.7700  143.2750 O   0  0  0  0  0  1  0  0  0  0  0  0
  189.3770  177.7760  142.6440 C   0  0  2  0  0  0  0  0  0  0  0  0
  188.9820  178.0790  141.3390 C   0  0  0  0  0  0  0  0  0  0  0  0
  184.9490  178.8450  140.7330 C   0  0  0  0  0  0  0  0  0  0  0  0
  183.4080  178.5050  144.0580 N   0  0  0  0  0  1  0  0  0  0  0  0
  185.7480  178.2410  143.3670 C   0  0  0  0  0  0  0  0  0  0  0  0
  186.3070  178.5800  140.9710 C   0  0  0  0  0  0  0  0  0  0  0  0
  187.2840  178.6140  139.8740 C   0  0  0  0  0  3  0  0  0  0  0  0
  188.0190  178.0350  142.4410 C   0  0  0  0  0  0  0  0  0  0  0  0
  188.6900  178.3610  140.0390 C   0  0  0  0  0  0  0  0  0  0  0  0
  184.0570  178.8080  141.7630 N   0  0  0  0  0  0  0  0  0  0  0  0
  186.6830  178.2730  142.3320 C   0  0  0  0  0  0  0  0  0  0  0  0
  184.4110  178.5200  143.0470 C   0  0  0  0  0  0  0  0  0  0  0  0
  188.6530  175.3560  136.9050 C   0  0  1  0  0  3  0  0  0  0  0  0
  190.3440  175.7080  138.7470 C   0  0  0  0  0  2  0  0  0  0  0  0
  190.9830  174.4780  136.6930 C   0  0  0  0  0  1  0  0  0  0  0  0
  189.1220  178.2720  137.5350 N   0  0  0  0  0  2  0  0  0  0  0  0
  187.7550  177.7470  137.4640 C   0  0  2  0  0  3  0  0  0  0  0  0
  189.6750  178.3570  138.8990 C   0  0  2  0  0  3  0  0  0  0  0  0
  187.6750  176.2320  137.7060 C   0  0  0  0  0  2  0  0  0  0  0  0
  188.4390  175.5060  135.5340 O   0  0  0  0  0  1  0  0  0  0  0  0
  187.1280  178.1190  136.1350 C   0  0  0  0  0  1  0  0  0  0  0  0
  191.1490  177.2920  139.1420 S   0  0  0  0  0  0  0  0  0  0  0  0
  190.1250  175.5990  137.2460 C   0  0  1  0  0  3  0  0  0  0  0  0
  189.7720  176.3900  142.8520 N   0  0  0  0  0  2  0  0  0  0  0  0
  191.2260  176.3180  142.8330 C   0  0  0  0  0  2  0  0  0  0  0  0
  191.7200  175.8270  144.1470 C   0  0  0  0  0  0  0  0  0  0  0  0
  192.1360  174.6100  144.2620 N   0  0  0  0  0  2  0  0  0  0  0  0
  191.5710  176.6360  145.3090 N   0  0  0  0  0  1  0  0  0  0  0  0
  1  6  1  0  0  0  0
  4 27  1  0  0  0  0
  4  3  1  1  0  0  0
  5 11  1  0  0  0  0
  5  4  1  0  0  0  0
  6  9  1  0  0  0  0
  6 13  2  0  0  0  0
  8  2  1  0  0  0  0
  9 14  1  0  0  0  0
 10 12  1  0  0  0  0
 10  9  2  0  0  0  0
 11  4  1  0  0  0  0
 12  5  2  0  0  0  0
 13 15  1  0  0  0  0
 14 11  2  0  0  0  0
 14  8  1  0  0  0  0
 15  8  2  0  0  0  0
 15  7  1  0  0  0  0
 16 23  1  6  0  0  0
 16 26  1  0  0  0  0
 16 22  1  0  0  0  0
 17 25  1  0  0  0  0
 19 21  1  0  0  0  0
 20 24  1  6  0  0  0
 20 19  1  0  0  0  0
 20 22  1  0  0  0  0
 21 25  1  0  0  0  0
 21 12  1  1  0  0  0
 26 18  1  1  0  0  0
 26 17  1  0  0  0  0
 28 27  1  0  0  0  0
 28 29  1  0  0  0  0
 29 30  2  0  0  0  0
 29 31  1  0  0  0  0
M  END
>  <MODEL>
1

>  <REMARK>
 VINA RESULT:      -7.9      0.000      0.000
  Name = 
  4 active torsions:
  status: ('A' for Active; 'I' for Inactive)
    1  A    between atoms: C_5  and  N_14
    2  A    between atoms: C_7  and  C_31
    3  A    between atoms: N_14  and  C_31
    4  A    between atoms: C_19  and  C_25
                            x       y       z     vdW  Elec       q    Type
                         _______ _______ _______ _____ _____    ______ ____

>  <TORSDO>
F 4

$$$$
=
 OpenBabel11042410483D

 31 34  0  0  1  0  0  0  0  0999 V2000
  180.0220  178.4450  143.9650 C   0  0  0  0  0  1  0  0  0  0  0  0
  185.7160  179.1570  143.1000 C   0  0  0  0  0  1  0  0  0  0  0  0
  184.5550  180.2390  139.0730 O   0  0  0  0  0  1  0  0  0  0  0  0
  184.1810  178.9850  139.5600 C   0  0  2  0  0  0  0  0  0  0  0  0
  182.8070  178.8160  139.7530 C   0  0  0  0  0  0  0  0  0  0  0  0
  181.4750  178.6280  143.6780 C   0  0  0  0  0  0  0  0  0  0  0  0
  184.5070  179.0010  145.7290 N   0  0  0  0  0  1  0  0  0  0  0  0
  184.2440  178.9750  143.2900 C   0  0  0  0  0  0  0  0  0  0  0  0
  181.9570  178.6950  142.3610 C   0  0  0  0  0  0  0  0  0  0  0  0
  181.0420  178.5830  141.2170 C   0  0  0  0  0  3  0  0  0  0  0  0
  183.7330  178.9230  140.8830 C   0  0  0  0  0  0  0  0  0  0  0  0
  181.4590  178.6490  139.8430 C   0  0  0  0  0  0  0  0  0  0  0  0
  182.3390  178.7320  144.7270 N   0  0  0  0  0  0  0  0  0  0  0  0
  183.3820  178.8720  142.1970 C   0  0  0  0  0  0  0  0  0  0  0  0
  183.6820  178.9010  144.5730 C   0  0  0  0  0  0  0  0  0  0  0  0
  181.6010  175.2520  137.1410 C   0  0  1  0  0  3  0  0  0  0  0  0
  182.2100  177.6610  136.6950 C   0  0  0  0  0  2  0  0  0  0  0  0
  181.6310  176.1580  134.8130 C   0  0  0  0  0  1  0  0  0  0  0  0
  179.7960  177.2090  138.5670 N   0  0  0  0  0  2  0  0  0  0  0  0
  180.4080  176.1010  139.3080 C   0  0  2  0  0  3  0  0  0  0  0  0
  180.5160  178.4910  138.6780 C   0  0  2  0  0  3  0  0  0  0  0  0
  181.6860  175.5630  138.6450 C   0  0  0  0  0  2  0  0  0  0  0  0
  180.6370  174.2740  136.8940 O   0  0  0  0  0  1  0  0  0  0  0  0
  179.3920  174.9940  139.5100 C   0  0  0  0  0  1  0  0  0  0  0  0
  181.1530  179.0960  137.0680 S   0  0  0  0  0  0  0  0  0  0  0  0
  181.3500  176.4830  136.2670 C   0  0  1  0  0  3  0  0  0  0  0  0
  184.8670  177.8160  139.0290 N   0  0  0  0  0  2  0  0  0  0  0  0
  185.7710  178.2530  137.9750 C   0  0  0  0  0  2  0  0  0  0  0  0
  187.1660  177.8720  138.3210 C   0  0  0  0  0  0  0  0  0  0  0  0
  187.8630  178.6280  139.1020 N   0  0  0  0  0  1  0  0  0  0  0  0
  187.7880  176.7770  137.6570 N   0  0  0  0  0  2  0  0  0  0  0  0
  2  8  1  0  0  0  0
  4  3  1  6  0  0  0
  4  5  1  0  0  0  0
  4 11  1  0  0  0  0
  5 12  2  0  0  0  0
  5 11  1  0  0  0  0
  6  1  1  0  0  0  0
  6 13  2  0  0  0  0
  8 15  2  0  0  0  0
  9  6  1  0  0  0  0
 10  9  2  0  0  0  0
 11 14  2  0  0  0  0
 12 10  1  0  0  0  0
 14  9  1  0  0  0  0
 14  8  1  0  0  0  0
 15 13  1  0  0  0  0
 15  7  1  0  0  0  0
 16 23  1  1  0  0  0
 16 22  1  0  0  0  0
 17 25  1  0  0  0  0
 19 21  1  0  0  0  0
 19 20  1  0  0  0  0
 20 24  1  6  0  0  0
 21 12  1  1  0  0  0
 22 20  1  0  0  0  0
 25 21  1  0  0  0  0
 26 18  1  6  0  0  0
 26 17  1  0  0  0  0
 26 16  1  0  0  0  0
 27  4  1  0  0  0  0
 28 29  1  0  0  0  0
 28 27  1  0  0  0  0
 29 30  1  0  0  0  0
 31 29  2  0  0  0  0
M  END
>  <MODEL>
2

>  <REMARK>
 VINA RESULT:      -7.5      4.374      6.899
  Name = 
  4 active torsions:
  status: ('A' for Active; 'I' for Inactive)
    1  A    between atoms: C_5  and  N_14
    2  A    between atoms: C_7  and  C_31
    3  A    between atoms: N_14  and  C_31
    4  A    between atoms: C_19  and  C_25
                            x       y       z     vdW  Elec       q    Type
                         _______ _______ _______ _____ _____    ______ ____

>  <TORSDO>
F 4

$$$$
=
 OpenBabel11042410483D

 31 34  0  0  1  0  0  0  0  0999 V2000
  183.1570  178.9310  144.5730 C   0  0  0  0  0  1  0  0  0  0  0  0
  188.7820  177.5030  144.5700 C   0  0  0  0  0  1  0  0  0  0  0  0
  188.8270  179.3370  140.6510 O   0  0  0  0  0  1  0  0  0  0  0  0
  187.9450  178.2790  140.8810 C   0  0  2  0  0  0  0  0  0  0  0  0
  186.5930  178.6280  140.8660 C   0  0  0  0  0  0  0  0  0  0  0  0
  184.6040  178.5750  144.5080 C   0  0  0  0  0  0  0  0  0  0  0  0
  187.1490  177.5600  146.9650 N   0  0  0  0  0  1  0  0  0  0  0  0
  187.3340  177.8770  144.5380 C   0  0  0  0  0  0  0  0  0  0  0  0
  185.3050  178.5830  143.2910 C   0  0  0  0  0  0  0  0  0  0  0  0
  184.6310  178.9420  142.0360 C   0  0  0  0  0  3  0  0  0  0  0  0
  187.2770  178.2620  142.1080 C   0  0  0  0  0  0  0  0  0  0  0  0
  185.2810  178.9790  140.7540 C   0  0  0  0  0  0  0  0  0  0  0  0
  185.2460  178.2380  145.6620 N   0  0  0  0  0  0  0  0  0  0  0  0
  186.7030  178.2190  143.3420 C   0  0  0  0  0  0  0  0  0  0  0  0
  186.5640  177.8970  145.7110 C   0  0  0  0  0  0  0  0  0  0  0  0
  182.5340  176.2310  138.8150 C   0  0  1  0  0  3  0  0  0  0  0  0
  184.8310  176.9690  138.0700 C   0  0  0  0  0  2  0  0  0  0  0  0
  183.2200  176.0660  136.4190 C   0  0  0  0  0  1  0  0  0  0  0  0
  183.1060  179.1290  139.4470 N   0  0  0  0  0  2  0  0  0  0  0  0
  182.5860  178.2390  140.4900 C   0  0  2  0  0  3  0  0  0  0  0  0
  184.5690  179.3070  139.4680 C   0  0  2  0  0  3  0  0  0  0  0  0
  182.8780  176.7550  140.2200 C   0  0  0  0  0  2  0  0  0  0  0  0
  181.1700  176.3750  138.5570 O   0  0  0  0  0  1  0  0  0  0  0  0
  181.1000  178.4760  140.6760 C   0  0  0  0  0  1  0  0  0  0  0  0
  185.3870  178.6980  137.9430 S   0  0  0  0  0  0  0  0  0  0  0  0
  183.3610  176.8700  137.6970 C   0  0  1  0  0  3  0  0  0  0  0  0
  188.2470  176.9960  140.2640 N   0  0  0  0  0  2  0  0  0  0  0  0
  189.0020  177.2380  139.0430 C   0  0  0  0  0  2  0  0  0  0  0  0
  190.3250  176.5630  139.1290 C   0  0  0  0  0  0  0  0  0  0  0  0
  191.2870  177.1160  139.7880 N   0  0  0  0  0  1  0  0  0  0  0  0
  190.5810  175.4030  138.3440 N   0  0  0  0  0  2  0  0  0  0  0  0
  4  3  1  6  0  0  0
  4 11  1  0  0  0  0
  5  4  1  0  0  0  0
  5 11  1  0  0  0  0
  6  1  1  0  0  0  0
  6 13  2  0  0  0  0
  8  2  1  0  0  0  0
  8 15  2  0  0  0  0
  9 14  1  0  0  0  0
  9  6  1  0  0  0  0
 10  9  2  0  0  0  0
 11 14  2  0  0  0  0
 12  5  2  0  0  0  0
 12 10  1  0  0  0  0
 13 15  1  0  0  0  0
 14  8  1  0  0  0  0
 15  7  1  0  0  0  0
 16 23  1  6  0  0  0
 16 22  1  0  0  0  0
 19 21  1  0  0  0  0
 19 20  1  0  0  0  0
 20 24  1  6  0  0  0
 21 12  1  1  0  0  0
 22 20  1  0  0  0  0
 25 17  1  0  0  0  0
 25 21  1  0  0  0  0
 26 18  1  6  0  0  0
 26 17  1  0  0  0  0
 26 16  1  0  0  0  0
 27  4  1  0  0  0  0
 28 29  1  0  0  0  0
 28 27  1  0  0  0  0
 29 30  1  0  0  0  0
 31 29  2  0  0  0  0
M  END
>  <MODEL>
3

>  <REMARK>
 VINA RESULT:      -7.5      2.958      4.983
  Name = 
  4 active torsions:
  status: ('A' for Active; 'I' for Inactive)
    1  A    between atoms: C_5  and  N_14
    2  A    between atoms: C_7  and  C_31
    3  A    between atoms: N_14  and  C_31
    4  A    between atoms: C_19  and  C_25
                            x       y       z     vdW  Elec       q    Type
                         _______ _______ _______ _____ _____    ______ ____

>  <TORSDO>
F 4

$$$$
=
 OpenBabel11042410483D

 31 34  0  0  1  0  0  0  0  0999 V2000
  184.4440  178.6290  144.5030 C   0  0  0  0  0  1  0  0  0  0  0  0
  189.8720  177.1230  143.1070 C   0  0  0  0  0  1  0  0  0  0  0  0
  189.0380  179.1430  139.3720 O   0  0  0  0  0  1  0  0  0  0  0  0
  188.2090  178.0880  139.7580 C   0  0  2  0  0  0  0  0  0  0  0  0
  186.9010  178.4570  140.0790 C   0  0  0  0  0  0  0  0  0  0  0  0
  185.8250  178.2560  144.0810 C   0  0  0  0  0  0  0  0  0  0  0  0
  188.8520  177.0870  145.8200 N   0  0  0  0  0  1  0  0  0  0  0  0
  188.4670  177.5190  143.4350 C   0  0  0  0  0  0  0  0  0  0  0  0
  186.2200  178.3120  142.7350 C   0  0  0  0  0  0  0  0  0  0  0  0
  185.2780  178.7410  141.6920 C   0  0  0  0  0  3  0  0  0  0  0  0
  187.8480  178.0210  141.1060 C   0  0  0  0  0  0  0  0  0  0  0  0
  185.6090  178.8310  140.2950 C   0  0  0  0  0  0  0  0  0  0  0  0
  186.7120  177.8540  145.0350 N   0  0  0  0  0  0  0  0  0  0  0  0
  187.5810  177.9270  142.4380 C   0  0  0  0  0  0  0  0  0  0  0  0
  187.9960  177.4930  144.7560 C   0  0  0  0  0  0  0  0  0  0  0  0
  182.1930  176.3810  139.2100 C   0  0  1  0  0  3  0  0  0  0  0  0
  184.2770  176.8790  137.8750 C   0  0  0  0  0  2  0  0  0  0  0  0
  182.2090  176.1470  136.7230 C   0  0  0  0  0  1  0  0  0  0  0  0
  183.1940  179.2040  139.5940 N   0  0  0  0  0  2  0  0  0  0  0  0
  182.8780  178.3720  140.7590 C   0  0  2  0  0  3  0  0  0  0  0  0
  184.6220  179.2310  139.2300 C   0  0  2  0  0  3  0  0  0  0  0  0
  182.9410  176.8660  140.4620 C   0  0  0  0  0  2  0  0  0  0  0  0
  180.8300  176.6640  139.3100 O   0  0  0  0  0  1  0  0  0  0  0  0
  181.5240  178.7600  141.3190 C   0  0  0  0  0  1  0  0  0  0  0  0
  184.9490  178.5410  137.5610 S   0  0  0  0  0  0  0  0  0  0  0  0
  182.7580  176.9310  137.8980 C   0  0  1  0  0  3  0  0  0  0  0  0
  188.3250  176.8320  139.0310 N   0  0  0  0  0  2  0  0  0  0  0  0
  189.3660  176.9770  138.0240 C   0  0  0  0  0  2  0  0  0  0  0  0
  190.5240  176.1110  138.3730 C   0  0  0  0  0  0  0  0  0  0  0  0
  191.5830  176.6350  138.8930 N   0  0  0  0  0  1  0  0  0  0  0  0
  190.5340  174.7450  137.9720 N   0  0  0  0  0  2  0  0  0  0  0  0
  2  8  1  0  0  0  0
  4  3  1  6  0  0  0
  4  5  1  0  0  0  0
  4 11  1  0  0  0  0
  5 12  2  0  0  0  0
  5 11  1  0  0  0  0
  6  1  1  0  0  0  0
  6 13  2  0  0  0  0
  8 15  2  0  0  0  0
  9  6  1  0  0  0  0
 10  9  2  0  0  0  0
 11 14  2  0  0  0  0
 12 10  1  0  0  0  0
 14  9  1  0  0  0  0
 14  8  1  0  0  0  0
 15 13  1  0  0  0  0
 15  7  1  0  0  0  0
 16 23  1  1  0  0  0
 16 22  1  0  0  0  0
 17 26  1  0  0  0  0
 19 20  1  0  0  0  0
 20 24  1  6  0  0  0
 21 19  1  0  0  0  0
 21 12  1  1  0  0  0
 22 20  1  0  0  0  0
 25 17  1  0  0  0  0
 25 21  1  0  0  0  0
 26 18  1  6  0  0  0
 26 16  1  0  0  0  0
 27  4  1  0  0  0  0
 28 29  1  0  0  0  0
 28 27  1  0  0  0  0
 29 30  1  0  0  0  0
 31 29  2  0  0  0  0
M  END
>  <MODEL>
4

>  <REMARK>
 VINA RESULT:      -7.3      3.005      5.359
  Name = 
  4 active torsions:
  status: ('A' for Active; 'I' for Inactive)
    1  A    between atoms: C_5  and  N_14
    2  A    between atoms: C_7  and  C_31
    3  A    between atoms: N_14  and  C_31
    4  A    between atoms: C_19  and  C_25
                            x       y       z     vdW  Elec       q    Type
                         _______ _______ _______ _____ _____    ______ ____

>  <TORSDO>
F 4

$$$$
=
 OpenBabel11042410483D

 31 34  0  0  1  0  0  0  0  0999 V2000
  189.4800  177.7870  141.7860 C   0  0  0  0  0  1  0  0  0  0  0  0
  183.8980  178.6080  143.1450 C   0  0  0  0  0  1  0  0  0  0  0  0
  183.1800  177.7950  138.9560 O   0  0  0  0  0  1  0  0  0  0  0  0
  184.0350  178.8460  139.2930 C   0  0  2  0  0  0  0  0  0  0  0  0
  185.3740  178.6470  138.9510 C   0  0  0  0  0  0  0  0  0  0  0  0
  188.0320  178.0040  142.0710 C   0  0  0  0  0  0  0  0  0  0  0  0
  185.9690  178.1280  145.1160 N   0  0  0  0  0  1  0  0  0  0  0  0
  185.3290  178.3980  142.7630 C   0  0  0  0  0  0  0  0  0  0  0  0
  187.1070  178.2250  141.0370 C   0  0  0  0  0  0  0  0  0  0  0  0
  187.5400  178.2530  139.6340 C   0  0  0  0  0  3  0  0  0  0  0  0
  184.9290  178.6290  140.3450 C   0  0  0  0  0  0  0  0  0  0  0  0
  186.6540  178.4660  138.5220 C   0  0  0  0  0  0  0  0  0  0  0  0
  187.6120  177.9820  143.3680 N   0  0  0  0  0  0  0  0  0  0  0  0
  185.7300  178.4240  141.4260 C   0  0  0  0  0  0  0  0  0  0  0  0
  186.3130  178.1680  143.7350 C   0  0  0  0  0  0  0  0  0  0  0  0
  187.8540  174.9580  136.2630 C   0  0  1  0  0  3  0  0  0  0  0  0
  189.2790  176.8580  137.1190 C   0  0  0  0  0  2  0  0  0  0  0  0
  190.0720  175.4640  135.2300 C   0  0  0  0  0  1  0  0  0  0  0  0
  186.4590  177.6330  136.1280 N   0  0  0  0  0  2  0  0  0  0  0  0
  185.7830  176.4830  136.7360 C   0  0  2  0  0  3  0  0  0  0  0  0
  187.1170  178.5350  137.0900 C   0  0  2  0  0  3  0  0  0  0  0  0
  186.7580  175.4070  137.2420 C   0  0  0  0  0  2  0  0  0  0  0  0
  187.2900  174.4090  135.1100 O   0  0  0  0  0  1  0  0  0  0  0  0
  184.7840  175.8950  135.7590 C   0  0  0  0  0  1  0  0  0  0  0  0
  188.9350  178.6270  136.8580 S   0  0  0  0  0  0  0  0  0  0  0  0
  188.8490  176.0620  135.8970 C   0  0  1  0  0  3  0  0  0  0  0  0
  183.5530  180.2050  139.0930 N   0  0  0  0  0  2  0  0  0  0  0  0
  182.3070  180.1460  138.3420 C   0  0  0  0  0  2  0  0  0  0  0  0
  181.4480  181.3050  138.7030 C   0  0  0  0  0  0  0  0  0  0  0  0
  180.5040  181.1580  139.5710 N   0  0  0  0  0  1  0  0  0  0  0  0
  181.5510  182.5210  137.9690 N   0  0  0  0  0  2  0  0  0  0  0  0
  1  6  1  0  0  0  0
  4  3  1  6  0  0  0
  4 11  1  0  0  0  0
  5  4  1  0  0  0  0
  5 11  1  0  0  0  0
  6 13  2  0  0  0  0
  8  2  1  0  0  0  0
  8 15  2  0  0  0  0
  9 14  1  0  0  0  0
  9  6  1  0  0  0  0
 10  9  2  0  0  0  0
 11 14  2  0  0  0  0
 12  5  2  0  0  0  0
 12 10  1  0  0  0  0
 13 15  1  0  0  0  0
 14  8  1  0  0  0  0
 15  7  1  0  0  0  0
 16 23  1  6  0  0  0
 16 22  1  0  0  0  0
 19 20  1  0  0  0  0
 19 21  1  0  0  0  0
 20 24  1  6  0  0  0
 20 22  1  0  0  0  0
 21 12  1  1  0  0  0
 25 21  1  0  0  0  0
 25 17  1  0  0  0  0
 26 18  1  1  0  0  0
 26 16  1  0  0  0  0
 26 17  1  0  0  0  0
 27  4  1  0  0  0  0
 28 29  1  0  0  0  0
 28 27  1  0  0  0  0
 29 30  1  0  0  0  0
 31 29  2  0  0  0  0
M  END
>  <MODEL>
5

>  <REMARK>
 VINA RESULT:      -7.1      2.669      5.779
  Name = 
  4 active torsions:
  status: ('A' for Active; 'I' for Inactive)
    1  A    between atoms: C_5  and  N_14
    2  A    between atoms: C_7  and  C_31
    3  A    between atoms: N_14  and  C_31
    4  A    between atoms: C_19  and  C_25
                            x       y       z     vdW  Elec       q    Type
                         _______ _______ _______ _____ _____    ______ ____

>  <TORSDO>
F 4

$$$$
=
 OpenBabel11042410483D

 31 34  0  0  1  0  0  0  0  0999 V2000
  183.0580  178.6290  145.2100 C   0  0  0  0  0  1  0  0  0  0  0  0
  187.5580  178.1460  141.5760 C   0  0  0  0  0  1  0  0  0  0  0  0
  184.9260  180.0450  138.7130 O   0  0  0  0  0  1  0  0  0  0  0  0
  184.5130  178.8520  139.3090 C   0  0  2  0  0  0  0  0  0  0  0  0
  183.4210  178.9730  140.1710 C   0  0  0  0  0  0  0  0  0  0  0  0
  184.1740  178.5170  144.2260 C   0  0  0  0  0  0  0  0  0  0  0  0
  187.7920  177.8830  144.4530 N   0  0  0  0  0  1  0  0  0  0  0  0
  186.3780  178.2770  142.4870 C   0  0  0  0  0  0  0  0  0  0  0  0
  183.9520  178.6650  142.8470 C   0  0  0  0  0  0  0  0  0  0  0  0
  182.6050  178.9350  142.3270 C   0  0  0  0  0  3  0  0  0  0  0  0
  184.7680  178.6980  140.6740 C   0  0  0  0  0  0  0  0  0  0  0  0
  182.2990  179.1060  140.9320 C   0  0  0  0  0  0  0  0  0  0  0  0
  185.4310  178.2660  144.6900 N   0  0  0  0  0  0  0  0  0  0  0  0
  185.1030  178.5360  141.9840 C   0  0  0  0  0  0  0  0  0  0  0  0
  186.5170  178.1450  143.8770 C   0  0  0  0  0  0  0  0  0  0  0  0
  180.4650  176.5820  137.9120 C   0  0  1  0  0  3  0  0  0  0  0  0
  181.2530  178.9730  137.7180 C   0  0  0  0  0  2  0  0  0  0  0  0
  179.5640  178.0890  136.1350 C   0  0  0  0  0  1  0  0  0  0  0  0
  179.9820  178.1920  140.4210 N   0  0  0  0  0  2  0  0  0  0  0  0
  180.6390  176.8830  140.5040 C   0  0  2  0  0  3  0  0  0  0  0  0
  180.9060  179.3400  140.4080 C   0  0  2  0  0  3  0  0  0  0  0  0
  181.3130  176.4610  139.1890 C   0  0  0  0  0  2  0  0  0  0  0  0
  179.3270  175.7790  137.9990 O   0  0  0  0  0  1  0  0  0  0  0  0
  179.6450  175.8350  140.9660 C   0  0  0  0  0  1  0  0  0  0  0  0
  180.8070  180.3200  138.8590 S   0  0  0  0  0  0  0  0  0  0  0  0
  180.0780  178.0200  137.5600 C   0  0  1  0  0  3  0  0  0  0  0  0
  184.5070  177.6480  138.4890 N   0  0  0  0  0  2  0  0  0  0  0  0
  185.3430  177.8840  137.3200 C   0  0  0  0  0  2  0  0  0  0  0  0
  186.7220  177.3930  137.5840 C   0  0  0  0  0  0  0  0  0  0  0  0
  187.6510  178.2300  137.9050 N   0  0  0  0  0  1  0  0  0  0  0  0
  187.0560  176.0360  137.3120 N   0  0  0  0  0  2  0  0  0  0  0  0
  2  8  1  0  0  0  0
  4  3  1  6  0  0  0
  4  5  1  0  0  0  0
  4 11  1  0  0  0  0
  5 11  2  0  0  0  0
  5 12  1  0  0  0  0
  6 13  1  0  0  0  0
  6  1  1  0  0  0  0
  8 15  1  0  0  0  0
  9  6  2  0  0  0  0
 10  9  1  0  0  0  0
 11 14  1  0  0  0  0
 12 10  2  0  0  0  0
 14  8  2  0  0  0  0
 14  9  1  0  0  0  0
 15  7  1  0  0  0  0
 15 13  2  0  0  0  0
 16 23  1  1  0  0  0
 16 22  1  0  0  0  0
 17 25  1  0  0  0  0
 19 20  1  0  0  0  0
 20 24  1  6  0  0  0
 21 19  1  0  0  0  0
 21 12  1  6  0  0  0
 22 20  1  0  0  0  0
 25 21  1  0  0  0  0
 26 18  1  6  0  0  0
 26 17  1  0  0  0  0
 26 16  1  0  0  0  0
 27  4  1  0  0  0  0
 28 29  1  0  0  0  0
 28 27  1  0  0  0  0
 29 30  1  0  0  0  0
 31 29  2  0  0  0  0
M  END
>  <MODEL>
6

>  <REMARK>
 VINA RESULT:      -7.0      4.088      7.268
  Name = 
  4 active torsions:
  status: ('A' for Active; 'I' for Inactive)
    1  A    between atoms: C_5  and  N_14
    2  A    between atoms: C_7  and  C_31
    3  A    between atoms: N_14  and  C_31
    4  A    between atoms: C_19  and  C_25
                            x       y       z     vdW  Elec       q    Type
                         _______ _______ _______ _____ _____    ______ ____

>  <TORSDO>
F 4

$$$$
=
 OpenBabel11042410483D

 31 34  0  0  1  0  0  0  0  0999 V2000
  187.5710  178.3280  141.5760 C   0  0  0  0  0  1  0  0  0  0  0  0
  182.4910  178.7870  144.3440 C   0  0  0  0  0  1  0  0  0  0  0  0
  180.8060  177.2970  140.6470 O   0  0  0  0  0  1  0  0  0  0  0  0
  181.5690  178.4650  140.6070 C   0  0  2  0  0  0  0  0  0  0  0  0
  182.7840  178.3510  139.9280 C   0  0  0  0  0  0  0  0  0  0  0  0
  186.2350  178.4410  142.2290 C   0  0  0  0  0  0  0  0  0  0  0  0
  185.0550  178.8100  145.6960 N   0  0  0  0  0  1  0  0  0  0  0  0
  183.7840  178.6650  143.6010 C   0  0  0  0  0  0  0  0  0  0  0  0
  185.0490  178.4140  141.4780 C   0  0  0  0  0  0  0  0  0  0  0  0
  185.0860  178.2770  140.0160 C   0  0  0  0  0  3  0  0  0  0  0  0
  182.7300  178.4950  141.3840 C   0  0  0  0  0  0  0  0  0  0  0  0
  183.9170  178.2350  139.1810 C   0  0  0  0  0  0  0  0  0  0  0  0
  186.1810  178.5700  143.5850 N   0  0  0  0  0  0  0  0  0  0  0  0
  183.8100  178.5330  142.2130 C   0  0  0  0  0  0  0  0  0  0  0  0
  185.0130  178.6800  144.2780 C   0  0  0  0  0  0  0  0  0  0  0  0
  184.1640  174.4460  137.0760 C   0  0  1  0  0  3  0  0  0  0  0  0
  185.9160  176.2490  137.3090 C   0  0  0  0  0  2  0  0  0  0  0  0
  186.0430  174.6280  135.4400 C   0  0  0  0  0  1  0  0  0  0  0  0
  183.0030  177.2330  137.0300 N   0  0  0  0  0  2  0  0  0  0  0  0
  182.4320  176.2150  137.9180 C   0  0  2  0  0  3  0  0  0  0  0  0
  183.9700  178.1370  137.6780 C   0  0  2  0  0  3  0  0  0  0  0  0
  183.4200  175.0870  138.2580 C   0  0  0  0  0  2  0  0  0  0  0  0
  183.2620  173.8660  136.1820 O   0  0  0  0  0  1  0  0  0  0  0  0
  181.1590  175.6570  137.3130 C   0  0  0  0  0  1  0  0  0  0  0  0
  185.6540  178.0160  136.9610 S   0  0  0  0  0  0  0  0  0  0  0  0
  185.1030  175.4050  136.3410 C   0  0  1  0  0  3  0  0  0  0  0  0
  180.8720  179.7260  140.3960 N   0  0  0  0  0  2  0  0  0  0  0  0
  179.4940  179.5700  140.8410 C   0  0  0  0  0  2  0  0  0  0  0  0
  179.4130  179.8000  142.3090 C   0  0  0  0  0  0  0  0  0  0  0  0
  179.9270  180.8680  142.8200 N   0  0  0  0  0  2  0  0  0  0  0  0
  178.9310  178.7690  143.1630 N   0  0  0  0  0  1  0  0  0  0  0  0
  1  6  1  0  0  0  0
  4  3  1  1  0  0  0
  4 11  1  0  0  0  0
  5  4  1  0  0  0  0
  5 11  1  0  0  0  0
  6 13  2  0  0  0  0
  8 15  2  0  0  0  0
  8  2  1  0  0  0  0
  9 14  1  0  0  0  0
  9  6  1  0  0  0  0
 10  9  2  0  0  0  0
 11 14  2  0  0  0  0
 12  5  2  0  0  0  0
 12 10  1  0  0  0  0
 13 15  1  0  0  0  0
 14  8  1  0  0  0  0
 15  7  1  0  0  0  0
 16 23  1  6  0  0  0
 16 22  1  0  0  0  0
 19 21  1  0  0  0  0
 19 20  1  0  0  0  0
 20 24  1  6  0  0  0
 20 22  1  0  0  0  0
 21 12  1  1  0  0  0
 25 17  1  0  0  0  0
 25 21  1  0  0  0  0
 26 18  1  1  0  0  0
 26 16  1  0  0  0  0
 26 17  1  0  0  0  0
 27  4  1  0  0  0  0
 27 28  1  0  0  0  0
 28 29  1  0  0  0  0
 29 30  2  0  0  0  0
 29 31  1  0  0  0  0
M  END
>  <MODEL>
7

>  <REMARK>
 VINA RESULT:      -6.9      3.985      6.789
  Name = 
  4 active torsions:
  status: ('A' for Active; 'I' for Inactive)
    1  A    between atoms: C_5  and  N_14
    2  A    between atoms: C_7  and  C_31
    3  A    between atoms: N_14  and  C_31
    4  A    between atoms: C_19  and  C_25
                            x       y       z     vdW  Elec       q    Type
                         _______ _______ _______ _____ _____    ______ ____

>  <TORSDO>
F 4

$$$$
=
 OpenBabel11042410483D

 31 34  0  0  1  0  0  0  0  0999 V2000
  182.2760  178.8030  138.8490 C   0  0  0  0  0  1  0  0  0  0  0  0
  185.5740  178.4050  143.6070 C   0  0  0  0  0  1  0  0  0  0  0  0
  188.8320  179.3970  140.9370 O   0  0  0  0  0  1  0  0  0  0  0  0
  188.0590  178.2700  140.6540 C   0  0  2  0  0  0  0  0  0  0  0  0
  187.2780  178.3670  139.5000 C   0  0  0  0  0  0  0  0  0  0  0  0
  183.1770  178.6980  140.0330 C   0  0  0  0  0  0  0  0  0  0  0  0
  182.6870  178.6550  143.6800 N   0  0  0  0  0  1  0  0  0  0  0  0
  184.7510  178.5070  142.3620 C   0  0  0  0  0  0  0  0  0  0  0  0
  184.5680  178.5840  139.8860 C   0  0  0  0  0  0  0  0  0  0  0  0
  185.1850  178.5620  138.5530 C   0  0  0  0  0  3  0  0  0  0  0  0
  186.6770  178.3820  140.8350 C   0  0  0  0  0  0  0  0  0  0  0  0
  186.6000  178.4540  138.3220 C   0  0  0  0  0  0  0  0  0  0  0  0
  182.6220  178.7160  141.2780 N   0  0  0  0  0  0  0  0  0  0  0  0
  185.3460  178.4870  141.1000 C   0  0  0  0  0  0  0  0  0  0  0  0
  183.3550  178.6270  142.4230 C   0  0  0  0  0  0  0  0  0  0  0  0
  188.2010  174.7900  136.6290 C   0  0  1  0  0  3  0  0  0  0  0  0
  189.4350  176.8520  137.4040 C   0  0  0  0  0  2  0  0  0  0  0  0
  190.4960  175.3040  135.7860 C   0  0  0  0  0  1  0  0  0  0  0  0
  186.7130  177.3500  136.0350 N   0  0  0  0  0  2  0  0  0  0  0  0
  186.0240  176.2380  136.6980 C   0  0  2  0  0  3  0  0  0  0  0  0
  187.2170  178.3900  136.9490 C   0  0  2  0  0  3  0  0  0  0  0  0
  186.9830  175.2820  137.4270 C   0  0  0  0  0  2  0  0  0  0  0  0
  187.7950  174.0850  135.4950 O   0  0  0  0  0  1  0  0  0  0  0  0
  185.1680  175.4880  135.6960 C   0  0  0  0  0  1  0  0  0  0  0  0
  189.0440  178.5580  136.9030 S   0  0  0  0  0  0  0  0  0  0  0  0
  189.1800  175.9020  136.2450 C   0  0  1  0  0  3  0  0  0  0  0  0
  188.6590  176.9610  140.8710 N   0  0  0  0  0  2  0  0  0  0  0  0
  189.9080  177.1430  141.5960 C   0  0  0  0  0  2  0  0  0  0  0  0
  189.8570  176.3910  142.8790 C   0  0  0  0  0  0  0  0  0  0  0  0
  190.8430  175.6300  143.2160 N   0  0  0  0  0  2  0  0  0  0  0  0
  188.6560  176.3740  143.6430 N   0  0  0  0  0  1  0  0  0  0  0  0
  1  6  1  0  0  0  0
  4 11  1  0  0  0  0
  4 27  1  0  0  0  0
  4  3  1  1  0  0  0
  5  4  1  0  0  0  0
  5 11  1  0  0  0  0
  6 13  2  0  0  0  0
  8 15  2  0  0  0  0
  8  2  1  0  0  0  0
  9  6  1  0  0  0  0
  9 14  1  0  0  0  0
 10  9  2  0  0  0  0
 11 14  2  0  0  0  0
 12 10  1  0  0  0  0
 12  5  2  0  0  0  0
 13 15  1  0  0  0  0
 14  8  1  0  0  0  0
 15  7  1  0  0  0  0
 16 23  1  6  0  0  0
 16 22  1  0  0  0  0
 19 20  1  0  0  0  0
 19 21  1  0  0  0  0
 20 24  1  6  0  0  0
 20 22  1  0  0  0  0
 21 12  1  1  0  0  0
 25 21  1  0  0  0  0
 25 17  1  0  0  0  0
 26 18  1  1  0  0  0
 26 16  1  0  0  0  0
 26 17  1  0  0  0  0
 27 28  1  0  0  0  0
 28 29  1  0  0  0  0
 29 30  2  0  0  0  0
 29 31  1  0  0  0  0
M  END
>  <MODEL>
8

>  <REMARK>
 VINA RESULT:      -6.8      1.647      2.210
  Name = 
  4 active torsions:
  status: ('A' for Active; 'I' for Inactive)
    1  A    between atoms: C_5  and  N_14
    2  A    between atoms: C_7  and  C_31
    3  A    between atoms: N_14  and  C_31
    4  A    between atoms: C_19  and  C_25
                            x       y       z     vdW  Elec       q    Type
                         _______ _______ _______ _____ _____    ______ ____

>  <TORSDO>
F 4

$$$$
=
 OpenBabel11042410483D

 31 34  0  0  1  0  0  0  0  0999 V2000
  187.4600  178.2510  142.1610 C   0  0  0  0  0  1  0  0  0  0  0  0
  181.9820  178.8830  143.9700 C   0  0  0  0  0  1  0  0  0  0  0  0
  180.9430  177.5950  139.9710 O   0  0  0  0  0  1  0  0  0  0  0  0
  181.7510  178.7230  140.1180 C   0  0  2  0  0  0  0  0  0  0  0  0
  183.0640  178.5680  139.6680 C   0  0  0  0  0  0  0  0  0  0  0  0
  186.0320  178.4120  142.5630 C   0  0  0  0  0  0  0  0  0  0  0  0
  184.2510  178.7350  145.7670 N   0  0  0  0  0  1  0  0  0  0  0  0
  183.3830  178.7180  143.4720 C   0  0  0  0  0  0  0  0  0  0  0  0
  185.0050  178.4690  141.6080 C   0  0  0  0  0  0  0  0  0  0  0  0
  185.3050  178.3740  140.1730 C   0  0  0  0  0  3  0  0  0  0  0  0
  182.7500  178.6700  141.0940 C   0  0  0  0  0  0  0  0  0  0  0  0
  184.3090  178.4180  139.1360 C   0  0  0  0  0  0  0  0  0  0  0  0
  185.7350  178.5020  143.8900 N   0  0  0  0  0  0  0  0  0  0  0  0
  183.6580  178.6280  142.1070 C   0  0  0  0  0  0  0  0  0  0  0  0
  184.4650  178.6500  144.3620 C   0  0  0  0  0  0  0  0  0  0  0  0
  184.8680  174.6880  136.9860 C   0  0  1  0  0  3  0  0  0  0  0  0
  186.5800  176.4400  137.5950 C   0  0  0  0  0  2  0  0  0  0  0  0
  187.0170  174.8740  135.7260 C   0  0  0  0  0  1  0  0  0  0  0  0
  183.7850  177.5020  136.8230 N   0  0  0  0  0  2  0  0  0  0  0  0
  183.0440  176.4720  137.5570 C   0  0  2  0  0  3  0  0  0  0  0  0
  184.6340  178.3630  137.6660 C   0  0  2  0  0  3  0  0  0  0  0  0
  183.9320  175.3120  138.0340 C   0  0  0  0  0  2  0  0  0  0  0  0
  184.1330  174.1570  135.9240 O   0  0  0  0  0  1  0  0  0  0  0  0
  181.8920  175.9640  136.7120 C   0  0  0  0  0  1  0  0  0  0  0  0
  186.4190  178.2230  137.2640 S   0  0  0  0  0  0  0  0  0  0  0  0
  185.9420  175.6450  136.4660 C   0  0  1  0  0  3  0  0  0  0  0  0
  181.1620  180.0240  139.8330 N   0  0  0  0  0  2  0  0  0  0  0  0
  181.6470  180.4740  138.5360 C   0  0  0  0  0  2  0  0  0  0  0  0
  180.6140  180.2170  137.4980 C   0  0  0  0  0  0  0  0  0  0  0  0
  180.9070  179.5020  136.4640 N   0  0  0  0  0  2  0  0  0  0  0  0
  179.3660  180.9010  137.5540 N   0  0  0  0  0  1  0  0  0  0  0  0
  1  6  1  0  0  0  0
  4  3  1  6  0  0  0
  4 11  1  0  0  0  0
  5  4  1  0  0  0  0
  5 11  1  0  0  0  0
  6 13  2  0  0  0  0
  8  2  1  0  0  0  0
  8 15  2  0  0  0  0
  9 14  1  0  0  0  0
  9  6  1  0  0  0  0
 10  9  2  0  0  0  0
 11 14  2  0  0  0  0
 12  5  2  0  0  0  0
 12 10  1  0  0  0  0
 13 15  1  0  0  0  0
 14  8  1  0  0  0  0
 15  7  1  0  0  0  0
 16 23  1  6  0  0  0
 16 22  1  0  0  0  0
 19 20  1  0  0  0  0
 19 21  1  0  0  0  0
 20 24  1  6  0  0  0
 20 22  1  0  0  0  0
 21 12  1  1  0  0  0
 25 17  1  0  0  0  0
 25 21  1  0  0  0  0
 26 18  1  1  0  0  0
 26 16  1  0  0  0  0
 26 17  1  0  0  0  0
 27  4  1  0  0  0  0
 28 27  1  0  0  0  0
 29 31  1  0  0  0  0
 29 28  1  0  0  0  0
 30 29  2  0  0  0  0
M  END
>  <MODEL>
9

>  <REMARK>
 VINA RESULT:      -6.6      3.808      6.757
  Name = 
  4 active torsions:
  status: ('A' for Active; 'I' for Inactive)
    1  A    between atoms: C_5  and  N_14
    2  A    between atoms: C_7  and  C_31
    3  A    between atoms: N_14  and  C_31
    4  A    between atoms: C_19  and  C_25
                            x       y       z     vdW  Elec       q    Type
                         _______ _______ _______ _____ _____    ______ ____

>  <TORSDO>
F 4

$$$$
