=
 OpenBabel11032420123D

 36 39  0  0  1  0  0  0  0  0999 V2000
  189.8220  175.6190  137.9040 C   0  0  0  0  0  0  0  0  0  0  0  0
  187.7570  176.8940  137.7100 C   0  0  0  0  0  0  0  0  0  0  0  0
  189.2070  174.5300  137.2900 C   0  0  0  0  0  3  0  0  0  0  0  0
  187.8770  174.6020  136.8800 C   0  0  0  0  0  0  0  0  0  0  0  0
  187.1580  175.7850  137.0900 C   0  0  0  0  0  3  0  0  0  0  0  0
  191.1620  175.5210  138.2700 O   0  0  0  0  0  1  0  0  0  0  0  0
  189.1080  176.8080  138.1280 C   0  0  0  0  0  0  0  0  0  0  0  0
  185.6840  178.1680  137.9370 C   0  0  0  0  0  0  0  0  0  0  0  0
  186.9900  178.1340  137.9170 C   0  0  0  0  0  3  0  0  0  0  0  0
  184.3830  178.1760  137.9780 C   0  0  0  0  0  3  0  0  0  0  0  0
  183.7200  178.6160  141.7170 C   0  0  0  0  0  2  0  0  0  0  0  0
  184.2710  178.7640  140.4040 O   0  0  0  0  0  0  0  0  0  0  0  0
  181.7160  177.7980  140.5770 N   0  0  0  0  0  2  0  0  0  0  0  0
  183.6700  178.1970  139.2640 C   0  0  0  0  0  0  0  0  0  0  0  0
  182.1940  178.6720  141.6510 C   0  0  0  0  0  2  0  0  0  0  0  0
  182.4370  177.6960  139.3410 C   0  0  0  0  0  3  0  0  0  0  0  0
  189.8070  177.9490  138.8260 C   0  0  0  0  0  2  0  0  0  0  0  0
  189.9400  177.7180  140.3050 C   0  0  0  0  0  0  0  0  0  0  0  0
  187.5980  178.4610  140.9590 C   0  0  0  0  0  1  0  0  0  0  0  0
  191.5670  177.9200  143.2810 N   0  0  0  0  0  0  0  0  0  0  0  0
  190.4360  177.0990  145.3250 C   0  0  0  0  0  0  0  0  0  0  0  0
  191.4360  177.9140  144.5750 C   0  0  0  0  0  3  0  0  0  0  0  0
  189.1870  176.8740  144.8850 C   0  0  0  0  0  3  0  0  0  0  0  0
  191.0690  177.4090  140.9450 C   0  0  0  0  0  0  0  0  0  0  0  0
  189.3580  177.3690  142.4680 C   0  0  0  0  0  0  0  0  0  0  0  0
  190.8150  177.0490  142.3840 C   0  0  2  0  0  3  0  0  0  0  0  0
  188.6270  177.2560  143.5740 C   0  0  0  0  0  3  0  0  0  0  0  0
  188.8340  177.7310  141.1930 N   0  0  0  0  0  0  0  0  0  0  0  0
  192.3490  177.3470  140.3140 N   0  0  0  0  0  1  0  0  0  0  0  0
  190.7620  176.5880  146.5800 O   0  0  0  0  0  0  0  0  0  0  0  0
  192.0120  175.9730  146.8580 C   0  0  0  0  0  1  0  0  0  0  0  0
  187.2930  173.4760  136.2200 N   0  0  0  0  0  2  0  0  0  0  0  0
  184.5010  173.8270  135.9370 N   0  0  0  0  0  1  0  0  0  0  0  0
  185.6030  171.4270  136.0830 O   0  0  0  0  0  0  0  0  0  0  0  0
  185.5630  172.8140  138.1290 O   0  0  0  0  0  0  0  0  0  0  0  0
  185.7310  172.8250  136.6300 S   0  0  0  0  0  0  0  0  0  0  0  0
  1  7  1  0  0  0  0
  1  6  1  0  0  0  0
  2  9  1  0  0  0  0
  2  7  2  0  0  0  0
  3  1  2  0  0  0  0
  4  5  2  0  0  0  0
  4  3  1  0  0  0  0
  5  2  1  0  0  0  0
  7 17  1  0  0  0  0
  8 10  2  0  0  0  0
  9  8  2  0  0  0  0
 10 14  1  0  0  0  0
 12 11  1  0  0  0  0
 13 15  1  0  0  0  0
 14 16  2  0  0  0  0
 14 12  1  0  0  0  0
 15 11  1  0  0  0  0
 16 13  1  0  0  0  0
 17 18  1  0  0  0  0
 18 24  2  0  0  0  0
 18 28  1  0  0  0  0
 19 28  1  0  0  0  0
 20 22  2  0  0  0  0
 21 30  1  0  0  0  0
 22 21  1  0  0  0  0
 23 21  2  0  0  0  0
 25 27  2  0  0  0  0
 26 24  1  6  0  0  0
 26 25  1  0  0  0  0
 26 20  1  0  0  0  0
 27 23  1  0  0  0  0
 28 25  1  0  0  0  0
 29 24  1  0  0  0  0
 30 31  1  0  0  0  0
 32 36  1  0  0  0  0
 32  4  1  0  0  0  0
 33 36  1  0  0  0  0
 34 36  2  0  0  0  0
 36 35  2  0  0  0  0
M  END
>  <MODEL>
1

>  <REMARK>
 VINA RESULT:      -7.9      0.000      0.000
  Name = 
  7 active torsions:
  status: ('A' for Active; 'I' for Inactive)
    1  A    between atoms: C_1  and  C_13
    2  A    between atoms: O_3  and  C_5
    3  A    between atoms: C_13  and  C_33
    4  A    between atoms: C_16  and  C_31
    5  A    between atoms: C_20  and  C_22
    6  A    between atoms: N_21  and  C_25
    7  A    between atoms: N_21  and  S_35
                            x       y       z     vdW  Elec       q    Type
                         _______ _______ _______ _____ _____    ______ ____

>  <TORSDO>
F 7

$$$$
=
 OpenBabel11032420123D

 36 39  0  0  1  0  0  0  0  0999 V2000
  189.3170  177.3650  138.7150 C   0  0  0  0  0  0  0  0  0  0  0  0
  188.0520  178.2200  140.6100 C   0  0  0  0  0  0  0  0  0  0  0  0
  190.1940  176.7250  139.5880 C   0  0  0  0  0  3  0  0  0  0  0  0
  190.0180  176.8190  140.9680 C   0  0  0  0  0  0  0  0  0  0  0  0
  188.9460  177.5640  141.4730 C   0  0  0  0  0  3  0  0  0  0  0  0
  189.5050  177.2210  137.3420 O   0  0  0  0  0  1  0  0  0  0  0  0
  188.2430  178.1220  139.2100 C   0  0  0  0  0  0  0  0  0  0  0  0
  186.0310  178.4800  141.9600 C   0  0  0  0  0  0  0  0  0  0  0  0
  186.9240  178.9950  141.1570 C   0  0  0  0  0  3  0  0  0  0  0  0
  185.1660  177.9540  142.7780 C   0  0  0  0  0  3  0  0  0  0  0  0
  186.5440  177.8300  146.3430 C   0  0  0  0  0  2  0  0  0  0  0  0
  186.4610  177.8460  144.9130 O   0  0  0  0  0  0  0  0  0  0  0  0
  184.3920  178.9930  146.2900 N   0  0  0  0  0  2  0  0  0  0  0  0
  185.2740  178.1720  144.2290 C   0  0  0  0  0  0  0  0  0  0  0  0
  185.7120  178.9720  146.9250 C   0  0  0  0  0  2  0  0  0  0  0  0
  184.2480  178.7040  144.8930 C   0  0  0  0  0  3  0  0  0  0  0  0
  187.3390  178.8240  138.2250 C   0  0  0  0  0  2  0  0  0  0  0  0
  186.0190  178.1240  138.0630 C   0  0  0  0  0  0  0  0  0  0  0  0
  186.8280  176.2630  136.5300 C   0  0  0  0  0  1  0  0  0  0  0  0
  182.6670  178.0420  137.5120 N   0  0  0  0  0  0  0  0  0  0  0  0
  181.5280  175.8470  137.3720 C   0  0  0  0  0  0  0  0  0  0  0  0
  181.6650  177.3120  137.1190 C   0  0  0  0  0  3  0  0  0  0  0  0
  182.5640  174.9940  137.3430 C   0  0  0  0  0  3  0  0  0  0  0  0
  184.8400  178.5790  138.4900 C   0  0  0  0  0  0  0  0  0  0  0  0
  184.5160  176.4870  137.6130 C   0  0  0  0  0  0  0  0  0  0  0  0
  183.7570  177.5450  138.3460 C   0  0  2  0  0  3  0  0  0  0  0  0
  183.9920  175.3370  137.1990 C   0  0  0  0  0  3  0  0  0  0  0  0
  185.8930  176.8340  137.4870 N   0  0  0  0  0  0  0  0  0  0  0  0
  184.6530  179.8620  139.0880 N   0  0  0  0  0  1  0  0  0  0  0  0
  180.2650  175.2970  137.5830 O   0  0  0  0  0  0  0  0  0  0  0  0
  179.7060  175.1320  138.8790 C   0  0  0  0  0  1  0  0  0  0  0  0
  190.9170  176.1180  141.8310 N   0  0  0  0  0  2  0  0  0  0  0  0
  191.7620  178.0430  143.7230 N   0  0  0  0  0  1  0  0  0  0  0  0
  189.7320  176.4140  144.1930 O   0  0  0  0  0  0  0  0  0  0  0  0
  192.0100  175.4530  144.1640 O   0  0  0  0  0  0  0  0  0  0  0  0
  191.0830  176.4620  143.5290 S   0  0  0  0  0  0  0  0  0  0  0  0
  1  7  2  0  0  0  0
  1  3  1  0  0  0  0
  2  9  1  0  0  0  0
  2  5  2  0  0  0  0
  3  4  2  0  0  0  0
  4  5  1  0  0  0  0
  4 32  1  0  0  0  0
  6  1  1  0  0  0  0
  7  2  1  0  0  0  0
  8 10  2  0  0  0  0
  9  8  2  0  0  0  0
 10 14  1  0  0  0  0
 11 15  1  0  0  0  0
 12 11  1  0  0  0  0
 13 15  1  0  0  0  0
 14 16  2  0  0  0  0
 14 12  1  0  0  0  0
 16 13  1  0  0  0  0
 17  7  1  0  0  0  0
 18 17  1  0  0  0  0
 18 24  2  0  0  0  0
 19 28  1  0  0  0  0
 21 30  1  0  0  0  0
 22 21  1  0  0  0  0
 22 20  2  0  0  0  0
 23 21  2  0  0  0  0
 24 29  1  0  0  0  0
 25 26  1  0  0  0  0
 26 20  1  6  0  0  0
 26 24  1  0  0  0  0
 27 23  1  0  0  0  0
 27 25  2  0  0  0  0
 28 25  1  0  0  0  0
 28 18  1  0  0  0  0
 30 31  1  0  0  0  0
 32 36  1  0  0  0  0
 36 33  1  0  0  0  0
 36 35  2  0  0  0  0
 36 34  2  0  0  0  0
M  END
>  <MODEL>
2

>  <REMARK>
 VINA RESULT:      -7.5      3.293      7.626
  Name = 
  7 active torsions:
  status: ('A' for Active; 'I' for Inactive)
    1  A    between atoms: C_1  and  C_13
    2  A    between atoms: O_3  and  C_5
    3  A    between atoms: C_13  and  C_33
    4  A    between atoms: C_16  and  C_31
    5  A    between atoms: C_20  and  C_22
    6  A    between atoms: N_21  and  C_25
    7  A    between atoms: N_21  and  S_35
                            x       y       z     vdW  Elec       q    Type
                         _______ _______ _______ _____ _____    ______ ____

>  <TORSDO>
F 7

$$$$
=
 OpenBabel11032420123D

 36 39  0  0  1  0  0  0  0  0999 V2000
  188.0970  177.9800  139.5230 C   0  0  0  0  0  0  0  0  0  0  0  0
  190.0530  176.9050  138.5510 C   0  0  0  0  0  0  0  0  0  0  0  0
  188.7340  178.0200  140.7620 C   0  0  0  0  0  3  0  0  0  0  0  0
  190.0230  177.5120  140.9150 C   0  0  0  0  0  0  0  0  0  0  0  0
  190.6780  176.9600  139.8070 C   0  0  0  0  0  3  0  0  0  0  0  0
  186.8220  178.5260  139.4020 O   0  0  0  0  0  1  0  0  0  0  0  0
  188.7410  177.4200  138.4080 C   0  0  0  0  0  0  0  0  0  0  0  0
  192.0590  176.3440  137.2720 C   0  0  0  0  0  0  0  0  0  0  0  0
  190.7580  176.3270  137.3930 C   0  0  0  0  0  3  0  0  0  0  0  0
  193.3570  176.3490  137.1830 C   0  0  0  0  0  3  0  0  0  0  0  0
  195.9200  174.1060  138.9210 C   0  0  0  0  0  2  0  0  0  0  0  0
  194.9780  175.1540  138.6630 O   0  0  0  0  0  0  0  0  0  0  0  0
  194.7320  172.8670  137.1780 N   0  0  0  0  0  0  0  0  0  0  0  0
  194.1400  175.1540  137.5320 C   0  0  1  0  0  3  0  0  0  0  0  0
  195.3250  172.7590  138.5130 C   0  0  0  0  0  2  0  0  0  0  0  0
  194.0330  174.0550  136.7830 C   0  0  0  0  0  3  0  0  0  0  0  0
  187.9970  177.3690  137.0950 C   0  0  0  0  0  2  0  0  0  0  0  0
  186.9390  176.3020  137.0790 C   0  0  0  0  0  0  0  0  0  0  0  0
  188.4840  174.3230  136.6780 C   0  0  0  0  0  1  0  0  0  0  0  0
  183.9350  175.0100  136.1550 N   0  0  0  0  0  0  0  0  0  0  0  0
  183.3530  172.7070  136.8560 C   0  0  0  0  0  0  0  0  0  0  0  0
  183.2430  173.9210  135.9940 C   0  0  0  0  0  3  0  0  0  0  0  0
  184.5150  172.2640  137.3610 C   0  0  0  0  0  3  0  0  0  0  0  0
  185.6220  176.5130  137.0840 C   0  0  0  0  0  0  0  0  0  0  0  0
  185.9760  174.2530  137.2050 C   0  0  0  0  0  0  0  0  0  0  0  0
  184.8510  175.2340  137.2690 C   0  0  2  0  0  3  0  0  0  0  0  0
  185.8280  172.9330  137.2820 C   0  0  0  0  0  3  0  0  0  0  0  0
  187.2360  174.9160  137.1330 N   0  0  0  0  0  0  0  0  0  0  0  0
  185.0240  177.8080  137.0090 N   0  0  0  0  0  1  0  0  0  0  0  0
  182.2210  171.9350  137.1100 O   0  0  0  0  0  0  0  0  0  0  0  0
  180.9070  172.4750  137.1110 C   0  0  0  0  0  1  0  0  0  0  0  0
  190.6590  177.6060  142.1920 N   0  0  0  0  0  2  0  0  0  0  0  0
  189.0080  176.8360  144.3560 N   0  0  0  0  0  1  0  0  0  0  0  0
  190.2860  175.0610  142.8690 O   0  0  0  0  0  0  0  0  0  0  0  0
  191.6210  176.4730  144.3990 O   0  0  0  0  0  0  0  0  0  0  0  0
  190.4370  176.4370  143.4630 S   0  0  0  0  0  0  0  0  0  0  0  0
  1  3  1  0  0  0  0
  2  5  2  0  0  0  0
  3  4  2  0  0  0  0
  4 32  1  0  0  0  0
  5  4  1  0  0  0  0
  6  1  1  0  0  0  0
  7  2  1  0  0  0  0
  7  1  2  0  0  0  0
  8  9  2  0  0  0  0
  9  2  1  0  0  0  0
 10  8  2  0  0  0  0
 12 11  1  0  0  0  0
 13 15  1  0  0  0  0
 14 10  1  1  0  0  0
 14 12  1  0  0  0  0
 15 11  1  0  0  0  0
 16 13  2  0  0  0  0
 16 14  1  0  0  0  0
 17  7  1  0  0  0  0
 18 24  2  0  0  0  0
 18 17  1  0  0  0  0
 18 28  1  0  0  0  0
 19 28  1  0  0  0  0
 21 30  1  0  0  0  0
 21 23  2  0  0  0  0
 22 20  2  0  0  0  0
 22 21  1  0  0  0  0
 24 26  1  0  0  0  0
 25 26  1  0  0  0  0
 25 27  2  0  0  0  0
 26 20  1  6  0  0  0
 27 23  1  0  0  0  0
 28 25  1  0  0  0  0
 29 24  1  0  0  0  0
 30 31  1  0  0  0  0
 32 36  1  0  0  0  0
 34 36  2  0  0  0  0
 36 33  1  0  0  0  0
 36 35  2  0  0  0  0
M  END
>  <MODEL>
3

>  <REMARK>
 VINA RESULT:      -7.4      3.615      9.133
  Name = 
  7 active torsions:
  status: ('A' for Active; 'I' for Inactive)
    1  A    between atoms: C_1  and  C_13
    2  A    between atoms: O_3  and  C_5
    3  A    between atoms: C_13  and  C_33
    4  A    between atoms: C_16  and  C_31
    5  A    between atoms: C_20  and  C_22
    6  A    between atoms: N_21  and  C_25
    7  A    between atoms: N_21  and  S_35
                            x       y       z     vdW  Elec       q    Type
                         _______ _______ _______ _____ _____    ______ ____

>  <TORSDO>
F 7

$$$$
=
 OpenBabel11032420123D

 36 39  0  0  1  0  0  0  0  0999 V2000
  187.4710  177.3390  137.4660 C   0  0  0  0  0  0  0  0  0  0  0  0
  189.3580  175.8290  137.7580 C   0  0  0  0  0  0  0  0  0  0  0  0
  186.8160  176.3740  136.7040 C   0  0  0  0  0  3  0  0  0  0  0  0
  187.4110  175.1370  136.4590 C   0  0  0  0  0  0  0  0  0  0  0  0
  188.6780  174.8690  136.9900 C   0  0  0  0  0  3  0  0  0  0  0  0
  186.8310  178.5510  137.7160 O   0  0  0  0  0  1  0  0  0  0  0  0
  188.7460  177.0850  137.9960 C   0  0  0  0  0  0  0  0  0  0  0  0
  191.6000  174.8620  137.6600 C   0  0  0  0  0  0  0  0  0  0  0  0
  190.6880  175.5300  138.3160 C   0  0  0  0  0  3  0  0  0  0  0  0
  192.5030  174.2160  136.9810 C   0  0  0  0  0  3  0  0  0  0  0  0
  195.5590  174.8690  134.7780 C   0  0  0  0  0  2  0  0  0  0  0  0
  194.3650  174.2890  135.3150 O   0  0  0  0  0  0  0  0  0  0  0  0
  194.8080  176.9380  135.8450 N   0  0  0  0  0  0  0  0  0  0  0  0
  193.5850  174.9360  136.2930 C   0  0  1  0  0  3  0  0  0  0  0  0
  195.3790  176.3780  134.6180 C   0  0  0  0  0  2  0  0  0  0  0  0
  193.8090  176.2190  136.5810 C   0  0  0  0  0  3  0  0  0  0  0  0
  189.4300  178.1730  138.7870 C   0  0  0  0  0  2  0  0  0  0  0  0
  189.3710  177.9260  140.2680 C   0  0  0  0  0  0  0  0  0  0  0  0
  186.9660  178.6710  140.6240 C   0  0  0  0  0  1  0  0  0  0  0  0
  190.6020  178.0890  143.4310 N   0  0  0  0  0  0  0  0  0  0  0  0
  189.2150  177.2490  145.3030 C   0  0  0  0  0  0  0  0  0  0  0  0
  190.3050  178.0690  144.6970 C   0  0  0  0  0  3  0  0  0  0  0  0
  188.0330  177.0350  144.7040 C   0  0  0  0  0  3  0  0  0  0  0  0
  190.4070  177.6050  141.0450 C   0  0  0  0  0  0  0  0  0  0  0  0
  188.5150  177.5550  142.3350 C   0  0  0  0  0  0  0  0  0  0  0  0
  189.9700  177.2300  142.4350 C   0  0  2  0  0  3  0  0  0  0  0  0
  187.6480  177.4330  143.3360 C   0  0  0  0  0  3  0  0  0  0  0  0
  188.1600  177.9340  141.0070 N   0  0  0  0  0  0  0  0  0  0  0  0
  191.7570  177.5450  140.5830 N   0  0  0  0  0  1  0  0  0  0  0  0
  189.3750  176.7230  146.5840 O   0  0  0  0  0  0  0  0  0  0  0  0
  189.3310  177.5270  147.7550 C   0  0  0  0  0  1  0  0  0  0  0  0
  186.6910  174.1590  135.7040 N   0  0  0  0  0  2  0  0  0  0  0  0
  184.0480  173.2460  136.1260 N   0  0  0  0  0  1  0  0  0  0  0  0
  186.0760  171.5750  135.8300 O   0  0  0  0  0  0  0  0  0  0  0  0
  185.9490  172.8890  137.9200 O   0  0  0  0  0  0  0  0  0  0  0  0
  185.7190  172.9100  136.4290 S   0  0  0  0  0  0  0  0  0  0  0  0
  1  6  1  0  0  0  0
  1  7  1  0  0  0  0
  2  7  2  0  0  0  0
  2  9  1  0  0  0  0
  3  1  2  0  0  0  0
  4  3  1  0  0  0  0
  4  5  2  0  0  0  0
  5  2  1  0  0  0  0
  7 17  1  0  0  0  0
  8  9  2  0  0  0  0
 10  8  2  0  0  0  0
 11 12  1  0  0  0  0
 12 14  1  0  0  0  0
 13 16  2  0  0  0  0
 14 16  1  0  0  0  0
 14 10  1  6  0  0  0
 15 11  1  0  0  0  0
 15 13  1  0  0  0  0
 17 18  1  0  0  0  0
 18 28  1  0  0  0  0
 18 24  2  0  0  0  0
 19 28  1  0  0  0  0
 20 22  2  0  0  0  0
 21 30  1  0  0  0  0
 22 21  1  0  0  0  0
 23 21  2  0  0  0  0
 25 26  1  0  0  0  0
 25 27  2  0  0  0  0
 26 24  1  6  0  0  0
 26 20  1  0  0  0  0
 27 23  1  0  0  0  0
 28 25  1  0  0  0  0
 29 24  1  0  0  0  0
 30 31  1  0  0  0  0
 32 36  1  0  0  0  0
 32  4  1  0  0  0  0
 33 36  1  0  0  0  0
 34 36  2  0  0  0  0
 36 35  2  0  0  0  0
M  END
>  <MODEL>
4

>  <REMARK>
 VINA RESULT:      -7.4      2.466      5.912
  Name = 
  7 active torsions:
  status: ('A' for Active; 'I' for Inactive)
    1  A    between atoms: C_1  and  C_13
    2  A    between atoms: O_3  and  C_5
    3  A    between atoms: C_13  and  C_33
    4  A    between atoms: C_16  and  C_31
    5  A    between atoms: C_20  and  C_22
    6  A    between atoms: N_21  and  C_25
    7  A    between atoms: N_21  and  S_35
                            x       y       z     vdW  Elec       q    Type
                         _______ _______ _______ _____ _____    ______ ____

>  <TORSDO>
F 7

$$$$
=
 OpenBabel11032420123D

 36 39  0  0  1  0  0  0  0  0999 V2000
  188.1720  177.0660  136.8430 C   0  0  0  0  0  0  0  0  0  0  0  0
  188.5360  177.6260  139.1840 C   0  0  0  0  0  0  0  0  0  0  0  0
  189.2470  176.1810  136.8870 C   0  0  0  0  0  3  0  0  0  0  0  0
  189.9750  176.0040  138.0630 C   0  0  0  0  0  0  0  0  0  0  0  0
  189.6140  176.7250  139.2070 C   0  0  0  0  0  3  0  0  0  0  0  0
  187.4490  177.1920  135.6590 O   0  0  0  0  0  1  0  0  0  0  0  0
  187.8070  177.8020  137.9820 C   0  0  0  0  0  0  0  0  0  0  0  0
  188.0660  177.8130  141.5750 C   0  0  0  0  0  0  0  0  0  0  0  0
  188.1640  178.3720  140.3980 C   0  0  0  0  0  3  0  0  0  0  0  0
  187.9980  177.2410  142.7420 C   0  0  0  0  0  3  0  0  0  0  0  0
  189.8940  177.2850  146.0620 C   0  0  0  0  0  2  0  0  0  0  0  0
  188.9260  176.9890  145.0490 O   0  0  0  0  0  0  0  0  0  0  0  0
  191.3950  177.8150  144.2050 N   0  0  0  0  0  2  0  0  0  0  0  0
  189.1070  177.3560  143.7020 C   0  0  0  0  0  0  0  0  0  0  0  0
  191.3040  177.1290  145.4960 C   0  0  0  0  0  2  0  0  0  0  0  0
  190.2970  177.7880  143.2840 C   0  0  0  0  0  3  0  0  0  0  0  0
  186.6560  178.7730  137.8760 C   0  0  0  0  0  2  0  0  0  0  0  0
  185.3580  178.1740  138.3390 C   0  0  0  0  0  0  0  0  0  0  0  0
  184.7290  177.0420  136.1500 C   0  0  0  0  0  1  0  0  0  0  0  0
  182.3600  178.2710  139.9340 N   0  0  0  0  0  0  0  0  0  0  0  0
  180.8880  176.2820  139.8440 C   0  0  0  0  0  0  0  0  0  0  0  0
  181.1790  177.7340  140.0260 C   0  0  0  0  0  3  0  0  0  0  0  0
  181.5070  175.5130  138.9340 C   0  0  0  0  0  3  0  0  0  0  0  0
  184.7600  178.4200  139.5050 C   0  0  0  0  0  0  0  0  0  0  0  0
  183.5450  176.8140  138.4130 C   0  0  0  0  0  0  0  0  0  0  0  0
  183.5870  177.5060  139.7360 C   0  0  2  0  0  3  0  0  0  0  0  0
  182.6400  175.9010  138.0710 C   0  0  0  0  0  3  0  0  0  0  0  0
  184.6480  177.1970  137.5950 N   0  0  0  0  0  0  0  0  0  0  0  0
  185.2320  179.3780  140.4530 N   0  0  0  0  0  1  0  0  0  0  0  0
  179.8780  175.6790  140.5930 O   0  0  0  0  0  0  0  0  0  0  0  0
  179.6270  174.2810  140.5580 C   0  0  0  0  0  1  0  0  0  0  0  0
  191.0470  175.0590  138.0790 N   0  0  0  0  0  2  0  0  0  0  0  0
  193.2600  176.7520  138.5650 N   0  0  0  0  0  1  0  0  0  0  0  0
  193.5620  174.2420  137.7890 O   0  0  0  0  0  0  0  0  0  0  0  0
  192.6870  175.8680  136.1460 O   0  0  0  0  0  0  0  0  0  0  0  0
  192.6750  175.4430  137.5940 S   0  0  0  0  0  0  0  0  0  0  0  0
  1  3  2  0  0  0  0
  1  7  1  0  0  0  0
  2  5  1  0  0  0  0
  2  9  1  0  0  0  0
  3  4  1  0  0  0  0
  4 32  1  0  0  0  0
  4  5  2  0  0  0  0
  6  1  1  0  0  0  0
  7  2  2  0  0  0  0
  8 10  2  0  0  0  0
  9  8  2  0  0  0  0
 10 14  1  0  0  0  0
 12 11  1  0  0  0  0
 13 15  1  0  0  0  0
 14 12  1  0  0  0  0
 15 11  1  0  0  0  0
 16 14  2  0  0  0  0
 16 13  1  0  0  0  0
 17  7  1  0  0  0  0
 17 18  1  0  0  0  0
 18 24  2  0  0  0  0
 19 28  1  0  0  0  0
 20 22  2  0  0  0  0
 21 22  1  0  0  0  0
 21 30  1  0  0  0  0
 23 21  2  0  0  0  0
 24 26  1  0  0  0  0
 24 29  1  0  0  0  0
 26 25  1  6  0  0  0
 26 20  1  0  0  0  0
 27 25  2  0  0  0  0
 27 23  1  0  0  0  0
 28 18  1  0  0  0  0
 28 25  1  0  0  0  0
 31 30  1  0  0  0  0
 35 36  2  0  0  0  0
 36 34  2  0  0  0  0
 36 32  1  0  0  0  0
 36 33  1  0  0  0  0
M  END
>  <MODEL>
5

>  <REMARK>
 VINA RESULT:      -7.2      2.723      7.517
  Name = 
  7 active torsions:
  status: ('A' for Active; 'I' for Inactive)
    1  A    between atoms: C_1  and  C_13
    2  A    between atoms: O_3  and  C_5
    3  A    between atoms: C_13  and  C_33
    4  A    between atoms: C_16  and  C_31
    5  A    between atoms: C_20  and  C_22
    6  A    between atoms: N_21  and  C_25
    7  A    between atoms: N_21  and  S_35
                            x       y       z     vdW  Elec       q    Type
                         _______ _______ _______ _____ _____    ______ ____

>  <TORSDO>
F 7

$$$$
=
 OpenBabel11032420123D

 36 39  0  0  1  0  0  0  0  0999 V2000
  185.6000  178.4460  143.1540 C   0  0  0  0  0  0  0  0  0  0  0  0
  187.3360  178.2920  141.4550 C   0  0  0  0  0  0  0  0  0  0  0  0
  186.4320  177.7930  144.0620 C   0  0  0  0  0  3  0  0  0  0  0  0
  187.7120  177.3850  143.6890 C   0  0  0  0  0  0  0  0  0  0  0  0
  188.1590  177.6400  142.3870 C   0  0  0  0  0  3  0  0  0  0  0  0
  184.3410  178.8670  143.5740 O   0  0  0  0  0  1  0  0  0  0  0  0
  186.0350  178.6980  141.8430 C   0  0  0  0  0  0  0  0  0  0  0  0
  188.8930  177.9940  139.5940 C   0  0  0  0  0  0  0  0  0  0  0  0
  187.8240  178.5590  140.0900 C   0  0  0  0  0  3  0  0  0  0  0  0
  189.9460  177.4020  139.1100 C   0  0  0  0  0  3  0  0  0  0  0  0
  190.8270  174.1980  137.2190 C   0  0  0  0  0  2  0  0  0  0  0  0
  190.7940  175.2300  138.2120 O   0  0  0  0  0  0  0  0  0  0  0  0
  188.5750  174.9530  136.6340 N   0  0  0  0  0  0  0  0  0  0  0  0
  189.8120  176.2390  138.2200 C   0  0  1  0  0  3  0  0  0  0  0  0
  189.4040  173.7680  136.8680 C   0  0  0  0  0  2  0  0  0  0  0  0
  188.7400  176.1300  137.4350 C   0  0  0  0  0  3  0  0  0  0  0  0
  185.0870  179.3780  140.8860 C   0  0  0  0  0  2  0  0  0  0  0  0
  184.1630  178.4050  140.2090 C   0  0  0  0  0  0  0  0  0  0  0  0
  185.5030  178.1290  138.0650 C   0  0  0  0  0  1  0  0  0  0  0  0
  181.1060  177.2800  139.2430 N   0  0  0  0  0  0  0  0  0  0  0  0
  180.9650  175.2440  137.8410 C   0  0  0  0  0  0  0  0  0  0  0  0
  180.4590  176.5320  138.3980 C   0  0  0  0  0  3  0  0  0  0  0  0
  182.2510  175.0330  137.5190 C   0  0  0  0  0  3  0  0  0  0  0  0
  182.9530  178.0500  140.6430 C   0  0  0  0  0  0  0  0  0  0  0  0
  183.4300  176.8020  138.7820 C   0  0  0  0  0  0  0  0  0  0  0  0
  182.3840  176.9100  139.8430 C   0  0  2  0  0  3  0  0  0  0  0  0
  183.3870  175.9420  137.7690 C   0  0  0  0  0  3  0  0  0  0  0  0
  184.5210  177.6830  139.0410 N   0  0  0  0  0  0  0  0  0  0  0  0
  182.3170  178.6280  141.7840 N   0  0  0  0  0  1  0  0  0  0  0  0
  180.0700  174.2110  137.5650 O   0  0  0  0  0  0  0  0  0  0  0  0
  180.4590  172.8450  137.5380 C   0  0  0  0  0  1  0  0  0  0  0  0
  188.5490  176.7530  144.6600 N   0  0  0  0  0  2  0  0  0  0  0  0
  191.2490  176.3580  143.9180 N   0  0  0  0  0  1  0  0  0  0  0  0
  190.3470  178.7120  144.7180 O   0  0  0  0  0  0  0  0  0  0  0  0
  190.5540  176.9130  146.4020 O   0  0  0  0  0  0  0  0  0  0  0  0
  190.1920  177.2350  144.9720 S   0  0  0  0  0  0  0  0  0  0  0  0
  1  6  1  0  0  0  0
  1  3  1  0  0  0  0
  2  7  1  0  0  0  0
  2  5  2  0  0  0  0
  4  3  2  0  0  0  0
  4 32  1  0  0  0  0
  5  4  1  0  0  0  0
  7  1  2  0  0  0  0
  8  9  2  0  0  0  0
  9  2  1  0  0  0  0
 10  8  2  0  0  0  0
 11 12  1  0  0  0  0
 12 14  1  0  0  0  0
 13 15  1  0  0  0  0
 13 16  2  0  0  0  0
 14 10  1  1  0  0  0
 15 11  1  0  0  0  0
 16 14  1  0  0  0  0
 17  7  1  0  0  0  0
 18 24  2  0  0  0  0
 18 17  1  0  0  0  0
 19 28  1  0  0  0  0
 20 26  1  0  0  0  0
 21 22  1  0  0  0  0
 22 20  2  0  0  0  0
 23 27  1  0  0  0  0
 23 21  2  0  0  0  0
 24 29  1  0  0  0  0
 25 28  1  0  0  0  0
 26 25  1  6  0  0  0
 26 24  1  0  0  0  0
 27 25  2  0  0  0  0
 28 18  1  0  0  0  0
 30 21  1  0  0  0  0
 31 30  1  0  0  0  0
 32 36  1  0  0  0  0
 33 36  1  0  0  0  0
 34 36  2  0  0  0  0
 36 35  2  0  0  0  0
M  END
>  <MODEL>
6

>  <REMARK>
 VINA RESULT:      -7.2      3.090      8.808
  Name = 
  7 active torsions:
  status: ('A' for Active; 'I' for Inactive)
    1  A    between atoms: C_1  and  C_13
    2  A    between atoms: O_3  and  C_5
    3  A    between atoms: C_13  and  C_33
    4  A    between atoms: C_16  and  C_31
    5  A    between atoms: C_20  and  C_22
    6  A    between atoms: N_21  and  C_25
    7  A    between atoms: N_21  and  S_35
                            x       y       z     vdW  Elec       q    Type
                         _______ _______ _______ _____ _____    ______ ____

>  <TORSDO>
F 7

$$$$
=
 OpenBabel11032420123D

 36 39  0  0  1  0  0  0  0  0999 V2000
  187.7220  176.4290  137.7570 C   0  0  0  0  0  0  0  0  0  0  0  0
  185.6240  177.6370  138.0080 C   0  0  0  0  0  0  0  0  0  0  0  0
  187.0510  175.3990  137.1020 C   0  0  0  0  0  3  0  0  0  0  0  0
  185.6750  175.4690  136.8900 C   0  0  0  0  0  0  0  0  0  0  0  0
  184.9680  176.5890  137.3420 C   0  0  0  0  0  3  0  0  0  0  0  0
  189.1020  176.3390  137.9210 O   0  0  0  0  0  1  0  0  0  0  0  0
  187.0220  177.5540  138.2230 C   0  0  0  0  0  0  0  0  0  0  0  0
  183.5710  178.9220  138.3410 C   0  0  0  0  0  0  0  0  0  0  0  0
  184.8670  178.8140  138.4710 C   0  0  0  0  0  3  0  0  0  0  0  0
  182.2780  178.9990  138.2250 C   0  0  0  0  0  3  0  0  0  0  0  0
  180.0340  177.0370  140.6210 C   0  0  0  0  0  2  0  0  0  0  0  0
  181.0510  177.3680  139.6670 O   0  0  0  0  0  0  0  0  0  0  0  0
  180.1700  179.3850  141.2940 N   0  0  0  0  0  2  0  0  0  0  0  0
  181.4000  178.6980  139.3660 C   0  0  0  0  0  0  0  0  0  0  0  0
  180.0870  178.0120  141.7960 C   0  0  0  0  0  2  0  0  0  0  0  0
  180.9540  179.6930  140.1330 C   0  0  0  0  0  3  0  0  0  0  0  0
  187.7870  178.6290  138.9560 C   0  0  0  0  0  2  0  0  0  0  0  0
  187.9830  178.3000  140.4090 C   0  0  0  0  0  0  0  0  0  0  0  0
  185.8000  179.2880  141.2590 C   0  0  0  0  0  1  0  0  0  0  0  0
  189.8070  178.1320  143.2710 N   0  0  0  0  0  0  0  0  0  0  0  0
  188.7120  177.3430  145.3470 C   0  0  0  0  0  0  0  0  0  0  0  0
  189.7580  178.0690  144.5690 C   0  0  0  0  0  3  0  0  0  0  0  0
  187.4200  177.2990  144.9850 C   0  0  0  0  0  3  0  0  0  0  0  0
  189.1020  177.8190  140.9530 C   0  0  0  0  0  0  0  0  0  0  0  0
  187.5000  177.9040  142.5890 C   0  0  0  0  0  0  0  0  0  0  0  0
  188.8960  177.4120  142.3870 C   0  0  2  0  0  3  0  0  0  0  0  0
  186.8320  177.8200  143.7350 C   0  0  0  0  0  3  0  0  0  0  0  0
  186.9460  178.4000  141.3720 N   0  0  0  0  0  0  0  0  0  0  0  0
  190.3210  177.6350  140.2330 N   0  0  0  0  0  1  0  0  0  0  0  0
  189.0490  176.7260  146.5500 O   0  0  0  0  0  0  0  0  0  0  0  0
  190.2070  177.0770  147.2960 C   0  0  0  0  0  1  0  0  0  0  0  0
  185.0290  174.4090  136.1800 N   0  0  0  0  0  2  0  0  0  0  0  0
  186.5500  172.0390  135.9230 N   0  0  0  0  0  1  0  0  0  0  0  0
  185.2390  172.6270  138.1430 O   0  0  0  0  0  0  0  0  0  0  0  0
  183.9220  171.9900  136.1500 O   0  0  0  0  0  0  0  0  0  0  0  0
  185.1380  172.7350  136.6440 S   0  0  0  0  0  0  0  0  0  0  0  0
  1  6  1  0  0  0  0
  1  7  1  0  0  0  0
  2  7  2  0  0  0  0
  2  9  1  0  0  0  0
  3  1  2  0  0  0  0
  4  3  1  0  0  0  0
  4  5  2  0  0  0  0
  5  2  1  0  0  0  0
  7 17  1  0  0  0  0
  8  9  2  0  0  0  0
 10  8  2  0  0  0  0
 10 14  1  0  0  0  0
 11 15  1  0  0  0  0
 12 11  1  0  0  0  0
 13 15  1  0  0  0  0
 14 12  1  0  0  0  0
 14 16  2  0  0  0  0
 16 13  1  0  0  0  0
 17 18  1  0  0  0  0
 18 24  2  0  0  0  0
 18 28  1  0  0  0  0
 19 28  1  0  0  0  0
 20 22  2  0  0  0  0
 21 30  1  0  0  0  0
 22 21  1  0  0  0  0
 23 21  2  0  0  0  0
 25 27  2  0  0  0  0
 26 24  1  6  0  0  0
 26 25  1  0  0  0  0
 26 20  1  0  0  0  0
 27 23  1  0  0  0  0
 28 25  1  0  0  0  0
 29 24  1  0  0  0  0
 30 31  1  0  0  0  0
 32 36  1  0  0  0  0
 32  4  1  0  0  0  0
 33 36  1  0  0  0  0
 35 36  2  0  0  0  0
 36 34  2  0  0  0  0
M  END
>  <MODEL>
7

>  <REMARK>
 VINA RESULT:      -7.0      1.659      2.286
  Name = 
  7 active torsions:
  status: ('A' for Active; 'I' for Inactive)
    1  A    between atoms: C_1  and  C_13
    2  A    between atoms: O_3  and  C_5
    3  A    between atoms: C_13  and  C_33
    4  A    between atoms: C_16  and  C_31
    5  A    between atoms: C_20  and  C_22
    6  A    between atoms: N_21  and  C_25
    7  A    between atoms: N_21  and  S_35
                            x       y       z     vdW  Elec       q    Type
                         _______ _______ _______ _____ _____    ______ ____

>  <TORSDO>
F 7

$$$$
=
 OpenBabel11032420123D

 36 39  0  0  1  0  0  0  0  0999 V2000
  180.0370  180.9790  139.6060 C   0  0  0  0  0  0  0  0  0  0  0  0
  180.9680  179.3350  138.0710 C   0  0  0  0  0  0  0  0  0  0  0  0
  180.1720  181.9660  138.6310 C   0  0  0  0  0  3  0  0  0  0  0  0
  180.7000  181.6590  137.3780 C   0  0  0  0  0  0  0  0  0  0  0  0
  181.0930  180.3440  137.1020 C   0  0  0  0  0  3  0  0  0  0  0  0
  179.4750  181.3160  140.8350 O   0  0  0  0  0  1  0  0  0  0  0  0
  180.4360  179.6580  139.3440 C   0  0  0  0  0  0  0  0  0  0  0  0
  182.2200  177.6580  136.8090 C   0  0  0  0  0  0  0  0  0  0  0  0
  181.3790  177.9530  137.7640 C   0  0  0  0  0  3  0  0  0  0  0  0
  183.0790  177.3870  135.8690 C   0  0  0  0  0  3  0  0  0  0  0  0
  186.4920  177.6670  137.5690 C   0  0  0  0  0  2  0  0  0  0  0  0
  185.0800  177.7060  137.3310 O   0  0  0  0  0  0  0  0  0  0  0  0
  186.5550  176.0030  135.7760 N   0  0  0  0  0  0  0  0  0  0  0  0
  184.4900  177.1280  136.1910 C   0  0  1  0  0  3  0  0  0  0  0  0
  187.0590  176.3230  137.1140 C   0  0  0  0  0  2  0  0  0  0  0  0
  185.2060  176.3190  135.4090 C   0  0  0  0  0  3  0  0  0  0  0  0
  180.3000  178.6320  140.4420 C   0  0  0  0  0  2  0  0  0  0  0  0
  181.4150  178.7170  141.4460 C   0  0  0  0  0  0  0  0  0  0  0  0
  183.0530  177.1950  140.2360 C   0  0  0  0  0  1  0  0  0  0  0  0
  182.6770  178.6960  144.6010 N   0  0  0  0  0  0  0  0  0  0  0  0
  185.1280  178.8670  144.9130 C   0  0  0  0  0  0  0  0  0  0  0  0
  183.7390  178.5080  145.3260 C   0  0  0  0  0  3  0  0  0  0  0  0
  185.5820  178.7310  143.6580 C   0  0  0  0  0  3  0  0  0  0  0  0
  181.3380  179.2930  142.6470 C   0  0  0  0  0  0  0  0  0  0  0  0
  183.5000  178.6060  142.3290 C   0  0  0  0  0  0  0  0  0  0  0  0
  182.6850  179.3820  143.3120 C   0  0  2  0  0  3  0  0  0  0  0  0
  184.7980  178.3480  142.4670 C   0  0  0  0  0  3  0  0  0  0  0  0
  182.7280  178.2480  141.1860 N   0  0  0  0  0  0  0  0  0  0  0  0
  180.1340  179.8340  143.1930 N   0  0  0  0  0  1  0  0  0  0  0  0
  186.0430  179.3040  145.8700 O   0  0  0  0  0  0  0  0  0  0  0  0
  186.2560  178.6200  147.0970 C   0  0  0  0  0  1  0  0  0  0  0  0
  180.7880  182.6910  136.3920 N   0  0  0  0  0  2  0  0  0  0  0  0
  179.7140  184.9630  137.6880 N   0  0  0  0  0  1  0  0  0  0  0  0
  182.3170  184.5050  137.5940 O   0  0  0  0  0  0  0  0  0  0  0  0
  181.1780  185.1680  135.5020 O   0  0  0  0  0  0  0  0  0  0  0  0
  181.0600  184.3670  136.7760 S   0  0  0  0  0  0  0  0  0  0  0  0
  1  6  1  0  0  0  0
  2  7  2  0  0  0  0
  3  1  2  0  0  0  0
  4  3  1  0  0  0  0
  5  4  2  0  0  0  0
  5  2  1  0  0  0  0
  7  1  1  0  0  0  0
  7 17  1  0  0  0  0
  8  9  2  0  0  0  0
  9  2  1  0  0  0  0
 10  8  2  0  0  0  0
 12 11  1  0  0  0  0
 13 15  1  0  0  0  0
 14 10  1  1  0  0  0
 14 12  1  0  0  0  0
 15 11  1  0  0  0  0
 16 13  2  0  0  0  0
 16 14  1  0  0  0  0
 17 18  1  0  0  0  0
 18 24  2  0  0  0  0
 19 28  1  0  0  0  0
 20 22  2  0  0  0  0
 21 22  1  0  0  0  0
 21 30  1  0  0  0  0
 23 21  2  0  0  0  0
 24 29  1  0  0  0  0
 24 26  1  0  0  0  0
 25 27  2  0  0  0  0
 26 25  1  6  0  0  0
 26 20  1  0  0  0  0
 27 23  1  0  0  0  0
 28 18  1  0  0  0  0
 28 25  1  0  0  0  0
 30 31  1  0  0  0  0
 32 36  1  0  0  0  0
 32  4  1  0  0  0  0
 35 36  2  0  0  0  0
 36 34  2  0  0  0  0
 36 33  1  0  0  0  0
M  END
>  <MODEL>
8

>  <REMARK>
 VINA RESULT:      -6.9      4.666      8.562
  Name = 
  7 active torsions:
  status: ('A' for Active; 'I' for Inactive)
    1  A    between atoms: C_1  and  C_13
    2  A    between atoms: O_3  and  C_5
    3  A    between atoms: C_13  and  C_33
    4  A    between atoms: C_16  and  C_31
    5  A    between atoms: C_20  and  C_22
    6  A    between atoms: N_21  and  C_25
    7  A    between atoms: N_21  and  S_35
                            x       y       z     vdW  Elec       q    Type
                         _______ _______ _______ _____ _____    ______ ____

>  <TORSDO>
F 7

$$$$
=
 OpenBabel11032420123D

 36 39  0  0  1  0  0  0  0  0999 V2000
  189.0570  176.3950  137.6690 C   0  0  0  0  0  0  0  0  0  0  0  0
  186.7100  177.0420  137.6950 C   0  0  0  0  0  0  0  0  0  0  0  0
  188.7350  175.2580  136.9310 C   0  0  0  0  0  3  0  0  0  0  0  0
  187.4150  174.9960  136.5660 C   0  0  0  0  0  0  0  0  0  0  0  0
  186.4090  175.8910  136.9480 C   0  0  0  0  0  3  0  0  0  0  0  0
  190.3900  176.6390  137.9860 O   0  0  0  0  0  1  0  0  0  0  0  0
  188.0540  177.2950  138.0650 C   0  0  0  0  0  0  0  0  0  0  0  0
  184.4140  177.8760  137.6460 C   0  0  0  0  0  0  0  0  0  0  0  0
  185.6410  177.9780  138.0830 C   0  0  0  0  0  3  0  0  0  0  0  0
  183.1920  177.7430  137.2180 C   0  0  0  0  0  3  0  0  0  0  0  0
  180.9370  175.0610  138.7480 C   0  0  0  0  0  2  0  0  0  0  0  0
  182.0480  175.7130  138.1230 O   0  0  0  0  0  0  0  0  0  0  0  0
  180.4120  177.2620  139.6780 N   0  0  0  0  0  2  0  0  0  0  0  0
  182.1640  177.1150  138.0620 C   0  0  0  0  0  0  0  0  0  0  0  0
  180.5130  175.8350  139.9950 C   0  0  0  0  0  2  0  0  0  0  0  0
  181.3540  177.8820  138.7930 C   0  0  0  0  0  3  0  0  0  0  0  0
  188.4470  178.4950  138.8910 C   0  0  0  0  0  2  0  0  0  0  0  0
  188.4800  178.1910  140.3620 C   0  0  0  0  0  0  0  0  0  0  0  0
  186.1270  178.9880  140.9080 C   0  0  0  0  0  1  0  0  0  0  0  0
  189.9220  178.1930  143.4380 N   0  0  0  0  0  0  0  0  0  0  0  0
  188.6380  177.3190  145.3670 C   0  0  0  0  0  0  0  0  0  0  0  0
  189.7100  178.1310  144.7200 C   0  0  0  0  0  3  0  0  0  0  0  0
  187.4120  177.1620  144.8410 C   0  0  0  0  0  3  0  0  0  0  0  0
  189.5550  177.8110  141.0540 C   0  0  0  0  0  0  0  0  0  0  0  0
  187.7520  177.7620  142.4660 C   0  0  0  0  0  0  0  0  0  0  0  0
  189.1990  177.3930  142.4550 C   0  0  2  0  0  3  0  0  0  0  0  0
  186.9490  177.6250  143.5180 C   0  0  0  0  0  3  0  0  0  0  0  0
  187.3210  178.2030  141.1810 N   0  0  0  0  0  0  0  0  0  0  0  0
  190.8690  177.7310  140.5000 N   0  0  0  0  0  1  0  0  0  0  0  0
  188.8660  176.7380  146.6130 O   0  0  0  0  0  0  0  0  0  0  0  0
  190.1470  176.7210  147.2290 C   0  0  0  0  0  1  0  0  0  0  0  0
  187.1310  173.8380  135.7770 N   0  0  0  0  0  2  0  0  0  0  0  0
  189.3660  172.1630  135.3360 N   0  0  0  0  0  1  0  0  0  0  0  0
  187.9670  172.0700  137.5780 O   0  0  0  0  0  0  0  0  0  0  0  0
  186.9160  171.1990  135.5160 O   0  0  0  0  0  0  0  0  0  0  0  0
  187.8120  172.2680  136.0930 S   0  0  0  0  0  0  0  0  0  0  0  0
  1  6  1  0  0  0  0
  1  7  1  0  0  0  0
  2  7  2  0  0  0  0
  2  9  1  0  0  0  0
  3  1  2  0  0  0  0
  4  3  1  0  0  0  0
  4  5  2  0  0  0  0
  5  2  1  0  0  0  0
  7 17  1  0  0  0  0
  8  9  2  0  0  0  0
 10  8  2  0  0  0  0
 10 14  1  0  0  0  0
 11 15  1  0  0  0  0
 12 11  1  0  0  0  0
 13 15  1  0  0  0  0
 14 12  1  0  0  0  0
 14 16  2  0  0  0  0
 16 13  1  0  0  0  0
 17 18  1  0  0  0  0
 18 24  2  0  0  0  0
 18 28  1  0  0  0  0
 19 28  1  0  0  0  0
 20 22  2  0  0  0  0
 21 30  1  0  0  0  0
 22 21  1  0  0  0  0
 23 21  2  0  0  0  0
 25 27  2  0  0  0  0
 26 24  1  6  0  0  0
 26 25  1  0  0  0  0
 26 20  1  0  0  0  0
 27 23  1  0  0  0  0
 28 25  1  0  0  0  0
 29 24  1  0  0  0  0
 30 31  1  0  0  0  0
 32 36  1  0  0  0  0
 32  4  1  0  0  0  0
 33 36  1  0  0  0  0
 35 36  2  0  0  0  0
 36 34  2  0  0  0  0
M  END
>  <MODEL>
9

>  <REMARK>
 VINA RESULT:      -6.7      1.704      2.232
  Name = 
  7 active torsions:
  status: ('A' for Active; 'I' for Inactive)
    1  A    between atoms: C_1  and  C_13
    2  A    between atoms: O_3  and  C_5
    3  A    between atoms: C_13  and  C_33
    4  A    between atoms: C_16  and  C_31
    5  A    between atoms: C_20  and  C_22
    6  A    between atoms: N_21  and  C_25
    7  A    between atoms: N_21  and  S_35
                            x       y       z     vdW  Elec       q    Type
                         _______ _______ _______ _____ _____    ______ ____

>  <TORSDO>
F 7

$$$$
