=
 OpenBabel11032420493D

 51 59  0  0  1  0  0  0  0  0999 V2000
  188.9040  176.7050  136.8950 C   0  0  0  0  0  0  0  0  0  0  0  0
  183.3550  172.1960  137.5330 C   0  0  0  0  0  2  0  0  0  0  0  0
  185.4370  177.9590  139.8510 C   0  0  0  0  0  2  0  0  0  0  0  0
  183.1090  177.0650  139.6630 C   0  0  0  0  0  2  0  0  0  0  0  0
  189.7480  175.2210  135.1690 C   0  0  0  0  0  3  0  0  0  0  0  0
  184.2200  171.5680  136.4470 C   0  0  1  0  0  3  0  0  0  0  0  0
  181.9780  171.8150  135.5960 C   0  0  2  0  0  3  0  0  0  0  0  0
  181.7470  177.1710  138.9460 C   0  0  1  0  0  3  0  0  0  0  0  0
  189.7210  176.4810  135.7800 C   0  0  0  0  0  3  0  0  0  0  0  0
  187.6110  178.7750  136.8950 C   0  0  0  0  0  2  0  0  0  0  0  0
  188.9870  178.3210  138.8360 C   0  0  1  0  0  3  0  0  0  0  0  0
  186.5290  178.6100  139.1220 N   0  0  1  0  0  0  0  0  0  0  0  0
  181.9580  179.5660  139.6790 C   0  0  1  0  0  3  0  0  0  0  0  0
  188.9380  174.1880  135.6560 C   0  0  0  0  0  0  0  0  0  0  0  0
  182.0440  172.6210  136.8870 C   0  0  2  0  0  3  0  0  0  0  0  0
  179.7860  180.5900  139.3390 C   0  0  2  0  0  3  0  0  0  0  0  0
  188.1400  174.4090  136.7840 C   0  0  0  0  0  3  0  0  0  0  0  0
  188.7420  178.0320  137.4220 N   0  0  0  0  0  0  0  0  0  0  0  0
  183.4100  171.6080  135.1610 C   0  0  0  0  0  2  0  0  0  0  0  0
  186.4510  171.9070  135.6130 C   0  0  0  0  0  0  0  0  0  0  0  0
  187.7550  172.1090  135.1040 N   0  0  0  0  0  0  0  0  0  0  0  0
  188.1240  175.6560  137.4000 C   0  0  0  0  0  3  0  0  0  0  0  0
  183.4960  179.5920  139.5910 C   0  0  1  0  0  3  0  0  0  0  0  0
  184.0550  178.1980  139.2470 C   0  0  1  0  0  3  0  0  0  0  0  0
  185.4400  172.3430  136.2940 N   0  0  0  0  0  0  0  0  0  0  0  0
  182.0570  174.1280  136.6340 C   0  0  0  0  0  2  0  0  0  0  0  0
  181.2450  172.4620  134.5970 O   0  0  0  0  0  1  0  0  0  0  0  0
  188.8750  172.9400  134.9640 N   0  0  0  0  0  2  0  0  0  0  0  0
  187.7400  177.9520  139.6410 C   0  0  0  0  0  2  0  0  0  0  0  0
  181.2720  180.8960  139.4970 C   0  0  0  0  0  2  0  0  0  0  0  0
  181.3650  178.6300  138.6490 C   0  0  2  0  0  3  0  0  0  0  0  0
  181.7820  176.3810  137.6450 C   0  0  0  0  0  2  0  0  0  0  0  0
  179.5740  178.9010  138.6650 S   0  0  0  0  0  0  0  0  0  0  0  0
  186.3730  178.3450  137.6780 C   0  0  0  0  0  2  0  0  0  0  0  0
  187.0720  170.9090  134.8240 N   0  0  0  0  0  2  0  0  0  0  0  0
  183.9240  180.5040  138.6240 O   0  0  0  0  0  1  0  0  0  0  0  0
  181.8170  174.8880  137.9260 C   0  0  0  0  0  2  0  0  0  0  0  0
  179.8510  182.4980  137.9390 C   0  0  0  0  0  2  0  0  0  0  0  0
  179.1670  181.5460  138.4580 N   0  0  0  0  0  0  0  0  0  0  0  0
  190.2100  177.5940  139.3790 C   0  0  0  0  0  2  0  0  0  0  0  0
  189.9360  177.0850  140.7850 C   0  0  0  0  0  2  0  0  0  0  0  0
  191.1210  177.3690  141.6930 C   0  0  0  0  0  2  0  0  0  0  0  0
  189.5400  177.4730  144.8270 C   0  0  0  0  0  0  0  0  0  0  0  0
  190.7520  177.1100  145.1930 C   0  0  0  0  0  0  0  0  0  0  0  0
  191.9990  176.4770  147.1050 N   0  0  0  0  0  1  0  0  0  0  0  0
  189.7420  177.0380  147.2790 N   0  0  0  0  0  0  0  0  0  0  0  0
  189.4180  177.6440  143.5100 N   0  0  0  0  0  0  0  0  0  0  0  0
  190.7020  177.3640  143.1240 C   0  0  0  0  0  0  0  0  0  0  0  0
  188.5600  177.5010  146.1660 S   0  0  0  0  0  0  0  0  0  0  0  0
  190.8940  176.8620  146.5600 C   0  0  0  0  0  0  0  0  0  0  0  0
  191.5610  177.0150  144.1330 N   0  0  0  0  0  2  0  0  0  0  0  0
  1 22  1  0  0  0  0
  1 18  1  0  0  0  0
  5 14  2  0  0  0  0
  5  9  1  0  0  0  0
  6 19  1  6  0  0  0
  6  2  1  0  0  0  0
  7 27  1  6  0  0  0
  7 15  1  0  0  0  0
  8 32  1  6  0  0  0
  8  4  1  0  0  0  0
  9  1  2  0  0  0  0
 10 18  1  0  0  0  0
 10 34  1  0  0  0  0
 11 40  1  1  0  0  0
 11 29  1  0  0  0  0
 12 34  1  6  0  0  0
 12 29  1  0  0  0  0
 12  3  1  0  0  0  0
 13 30  1  6  0  0  0
 14 17  1  0  0  0  0
 15 26  1  6  0  0  0
 15  2  1  0  0  0  0
 16 39  1  6  0  0  0
 16 30  1  0  0  0  0
 17 22  2  0  0  0  0
 18 11  1  0  0  0  0
 19  7  1  0  0  0  0
 20 25  2  0  0  0  0
 21 20  1  0  0  0  0
 23 36  1  6  0  0  0
 23 13  1  0  0  0  0
 24 23  1  0  0  0  0
 24  4  1  1  0  0  0
 24  3  1  0  0  0  0
 25  6  1  0  0  0  0
 26 37  1  0  0  0  0
 28 21  1  0  0  0  0
 28 14  1  0  0  0  0
 31 33  1  1  0  0  0
 31  8  1  0  0  0  0
 31 13  1  0  0  0  0
 32 37  1  0  0  0  0
 33 16  1  0  0  0  0
 35 21  1  0  0  0  0
 35 20  1  0  0  0  0
 38 39  2  0  0  0  0
 40 41  1  0  0  0  0
 41 42  1  0  0  0  0
 42 48  1  0  0  0  0
 43 44  2  0  0  0  0
 43 49  1  0  0  0  0
 44 50  1  0  0  0  0
 47 43  1  0  0  0  0
 48 47  2  0  0  0  0
 48 51  1  0  0  0  0
 49 46  1  0  0  0  0
 50 45  1  0  0  0  0
 50 46  2  0  0  0  0
 51 44  1  0  0  0  0
M  END
>  <MODEL>
1

>  <REMARK>
 VINA RESULT:      -9.0      0.000      0.000
  Name = 
  5 active torsions:
  status: ('A' for Active; 'I' for Inactive)
    1  A    between atoms: C_12  and  C_35
    2  A    between atoms: C_15  and  C_35
    3  A    between atoms: C_15  and  C_36
    4  A    between atoms: C_20  and  N_51
    5  A    between atoms: C_34  and  C_36
                            x       y       z     vdW  Elec       q    Type
                         _______ _______ _______ _____ _____    ______ ____

>  <TORSDO>
F 5

$$$$
=
 OpenBabel11032420493D

 51 59  0  0  1  0  0  0  0  0999 V2000
  183.8400  177.8610  138.0230 C   0  0  0  0  0  0  0  0  0  0  0  0
  188.5990  176.2330  143.1440 C   0  0  0  0  0  2  0  0  0  0  0  0
  187.5050  175.1500  136.7770 C   0  0  0  0  0  2  0  0  0  0  0  0
  189.6550  175.1110  138.0520 C   0  0  0  0  0  2  0  0  0  0  0  0
  182.7450  179.2720  139.6660 C   0  0  0  0  0  3  0  0  0  0  0  0
  187.6290  177.1870  143.8290 C   0  0  1  0  0  3  0  0  0  0  0  0
  189.8700  178.0280  144.1200 C   0  0  2  0  0  3  0  0  0  0  0  0
  191.0070  175.8090  138.3110 C   0  0  1  0  0  3  0  0  0  0  0  0
  182.9830  178.9240  138.3300 C   0  0  0  0  0  3  0  0  0  0  0  0
  185.4500  178.2490  136.2290 C   0  0  0  0  0  2  0  0  0  0  0  0
  184.0450  176.2830  136.0590 C   0  0  1  0  0  3  0  0  0  0  0  0
  186.5220  176.0140  136.1170 N   0  0  1  0  0  0  0  0  0  0  0  0
  191.1950  175.5720  135.8170 C   0  0  1  0  0  3  0  0  0  0  0  0
  183.3840  178.5740  140.6980 C   0  0  0  0  0  0  0  0  0  0  0  0
  189.9520  176.9250  143.0740 C   0  0  2  0  0  3  0  0  0  0  0  0
  193.4980  176.0680  135.2430 C   0  0  2  0  0  3  0  0  0  0  0  0
  184.2240  177.4970  140.3870 C   0  0  0  0  0  3  0  0  0  0  0  0
  184.2210  177.6060  136.6610 N   0  0  0  0  0  0  0  0  0  0  0  0
  188.4180  178.4400  144.1780 C   0  0  0  0  0  2  0  0  0  0  0  0
  185.4710  178.1140  143.3100 C   0  0  0  0  0  0  0  0  0  0  0  0
  184.2100  178.6780  143.0070 N   0  0  0  0  0  0  0  0  0  0  0  0
  184.4480  177.1420  139.0610 C   0  0  0  0  0  3  0  0  0  0  0  0
  189.6790  175.6920  135.5620 C   0  0  1  0  0  3  0  0  0  0  0  0
  188.8990  175.7620  136.8880 C   0  0  1  0  0  3  0  0  0  0  0  0
  186.5480  177.5150  142.9150 N   0  0  0  0  0  0  0  0  0  0  0  0
  190.1790  177.4730  141.6650 C   0  0  0  0  0  2  0  0  0  0  0  0
  190.6840  179.1220  143.8130 O   0  0  0  0  0  1  0  0  0  0  0  0
  183.2360  179.0010  142.0520 N   0  0  0  0  0  2  0  0  0  0  0  0
  185.2280  175.3970  136.4550 C   0  0  0  0  0  2  0  0  0  0  0  0
  192.0840  176.0020  134.6770 C   0  0  0  0  0  2  0  0  0  0  0  0
  191.6150  176.3830  137.0220 C   0  0  2  0  0  3  0  0  0  0  0  0
  190.8270  176.9270  139.3300 C   0  0  0  0  0  2  0  0  0  0  0  0
  193.4260  176.3880  137.0450 S   0  0  0  0  0  0  0  0  0  0  0  0
  186.6130  177.3730  136.6870 C   0  0  0  0  0  2  0  0  0  0  0  0
  184.6870  178.7000  144.3320 N   0  0  0  0  0  2  0  0  0  0  0  0
  189.3910  176.8300  134.8050 O   0  0  0  0  0  1  0  0  0  0  0  0
  190.5560  176.3540  140.7110 C   0  0  0  0  0  2  0  0  0  0  0  0
  195.4470  177.3840  134.9690 C   0  0  0  0  0  2  0  0  0  0  0  0
  194.2510  177.1100  134.5950 N   0  0  0  0  0  0  0  0  0  0  0  0
  182.7300  175.6290  136.4570 C   0  0  0  0  0  2  0  0  0  0  0  0
  181.5650  176.3390  135.7870 C   0  0  0  0  0  2  0  0  0  0  0  0
  180.2730  175.5740  136.0170 C   0  0  0  0  0  2  0  0  0  0  0  0
  179.5390  174.7640  139.3550 C   0  0  0  0  0  0  0  0  0  0  0  0
  179.6550  176.0720  139.4560 C   0  0  0  0  0  0  0  0  0  0  0  0
  179.6250  177.8170  141.0580 N   0  0  0  0  0  1  0  0  0  0  0  0
  179.2970  175.5980  141.6970 N   0  0  0  0  0  0  0  0  0  0  0  0
  179.7300  174.3130  138.1140 N   0  0  0  0  0  0  0  0  0  0  0  0
  179.9540  175.5040  137.4720 C   0  0  0  0  0  0  0  0  0  0  0  0
  179.2750  174.1290  140.8650 S   0  0  0  0  0  0  0  0  0  0  0  0
  179.5220  176.5660  140.7560 C   0  0  0  0  0  0  0  0  0  0  0  0
  179.9300  176.6190  138.2680 N   0  0  0  0  0  2  0  0  0  0  0  0
  1  9  2  0  0  0  0
  1 22  1  0  0  0  0
  5 14  2  0  0  0  0
  6  2  1  6  0  0  0
  6 19  1  0  0  0  0
  7 27  1  6  0  0  0
  7 19  1  0  0  0  0
  8  4  1  6  0  0  0
  8 32  1  0  0  0  0
  9  5  1  0  0  0  0
 10 18  1  0  0  0  0
 10 34  1  0  0  0  0
 11 29  1  0  0  0  0
 11 40  1  1  0  0  0
 11 18  1  0  0  0  0
 12 29  1  1  0  0  0
 12 34  1  0  0  0  0
 12  3  1  0  0  0  0
 13 30  1  6  0  0  0
 13 31  1  0  0  0  0
 14 28  1  0  0  0  0
 15 26  1  6  0  0  0
 15  2  1  0  0  0  0
 15  7  1  0  0  0  0
 16 39  1  6  0  0  0
 16 33  1  0  0  0  0
 17 14  1  0  0  0  0
 18  1  1  0  0  0  0
 20 35  1  0  0  0  0
 21 20  1  0  0  0  0
 21 35  1  0  0  0  0
 22 17  2  0  0  0  0
 23 36  1  6  0  0  0
 23 13  1  0  0  0  0
 23 24  1  0  0  0  0
 24  3  1  6  0  0  0
 24  4  1  0  0  0  0
 25 20  2  0  0  0  0
 25  6  1  0  0  0  0
 28 21  1  0  0  0  0
 30 16  1  0  0  0  0
 31 33  1  1  0  0  0
 31  8  1  0  0  0  0
 32 37  1  0  0  0  0
 37 26  1  0  0  0  0
 39 38  2  0  0  0  0
 41 42  1  0  0  0  0
 41 40  1  0  0  0  0
 42 48  1  0  0  0  0
 43 44  2  0  0  0  0
 43 49  1  0  0  0  0
 44 50  1  0  0  0  0
 47 43  1  0  0  0  0
 48 47  2  0  0  0  0
 48 51  1  0  0  0  0
 49 46  1  0  0  0  0
 50 45  1  0  0  0  0
 50 46  2  0  0  0  0
 51 44  1  0  0  0  0
M  END
>  <MODEL>
2

>  <REMARK>
 VINA RESULT:      -7.1      3.722     10.340
  Name = 
  5 active torsions:
  status: ('A' for Active; 'I' for Inactive)
    1  A    between atoms: C_12  and  C_35
    2  A    between atoms: C_15  and  C_35
    3  A    between atoms: C_15  and  C_36
    4  A    between atoms: C_20  and  N_51
    5  A    between atoms: C_34  and  C_36
                            x       y       z     vdW  Elec       q    Type
                         _______ _______ _______ _____ _____    ______ ____

>  <TORSDO>
F 5

$$$$
=
 OpenBabel11032420493D

 51 59  0  0  1  0  0  0  0  0999 V2000
  189.7850  175.5210  137.3440 C   0  0  0  0  0  0  0  0  0  0  0  0
  184.9290  179.5680  140.7450 C   0  0  0  0  0  2  0  0  0  0  0  0
  185.7110  176.3450  135.0950 C   0  0  0  0  0  2  0  0  0  0  0  0
  183.6070  176.9730  136.2930 C   0  0  0  0  0  2  0  0  0  0  0  0
  191.1230  175.6520  139.3650 C   0  0  0  0  0  3  0  0  0  0  0  0
  186.0520  179.4040  141.7620 C   0  0  1  0  0  3  0  0  0  0  0  0
  183.9800  178.7200  142.7880 C   0  0  2  0  0  3  0  0  0  0  0  0
  182.3900  176.4720  137.0980 C   0  0  1  0  0  3  0  0  0  0  0  0
  190.8070  175.0170  138.1570 C   0  0  0  0  0  3  0  0  0  0  0  0
  188.2230  173.8850  136.4260 C   0  0  0  0  0  2  0  0  0  0  0  0
  189.2920  175.4010  134.8680 C   0  0  1  0  0  3  0  0  0  0  0  0
  186.8060  175.3730  135.0340 N   0  0  1  0  0  0  0  0  0  0  0  0
  182.1180  175.0020  135.0780 C   0  0  1  0  0  3  0  0  0  0  0  0
  190.4010  176.7800  139.7740 C   0  0  0  0  0  0  0  0  0  0  0  0
  183.7020  178.8560  141.2970 C   0  0  2  0  0  3  0  0  0  0  0  0
  179.9120  174.0060  135.2350 C   0  0  2  0  0  3  0  0  0  0  0  0
  189.3950  177.2940  138.9480 C   0  0  0  0  0  3  0  0  0  0  0  0
  189.3420  174.7820  136.1940 N   0  0  0  0  0  0  0  0  0  0  0  0
  185.4800  178.6060  142.9230 C   0  0  0  0  0  2  0  0  0  0  0  0
  188.3190  178.6030  141.7070 C   0  0  0  0  0  0  0  0  0  0  0  0
  189.6480  178.1190  141.6890 N   0  0  0  0  0  0  0  0  0  0  0  0
  189.0910  176.6710  137.7410 C   0  0  0  0  0  3  0  0  0  0  0  0
  183.6280  174.9100  134.7820 C   0  0  1  0  0  3  0  0  0  0  0  0
  184.4350  175.8070  135.7390 C   0  0  1  0  0  3  0  0  0  0  0  0
  187.1530  178.6790  141.1510 N   0  0  0  0  0  0  0  0  0  0  0  0
  183.5380  177.5010  140.6080 C   0  0  0  0  0  2  0  0  0  0  0  0
  183.3460  177.6110  143.3540 O   0  0  0  0  0  1  0  0  0  0  0  0
  190.6430  177.3590  141.0570 N   0  0  0  0  0  2  0  0  0  0  0  0
  187.9910  176.1960  134.7410 C   0  0  0  0  0  2  0  0  0  0  0  0
  181.2870  173.8400  134.5950 C   0  0  0  0  0  2  0  0  0  0  0  0
  181.8560  175.1350  136.5610 C   0  0  2  0  0  3  0  0  0  0  0  0
  182.7660  176.3170  138.5650 C   0  0  0  0  0  2  0  0  0  0  0  0
  180.0690  174.9500  136.7970 S   0  0  0  0  0  0  0  0  0  0  0  0
  186.9440  174.7150  136.3480 C   0  0  0  0  0  2  0  0  0  0  0  0
  189.2070  178.9150  142.7640 N   0  0  0  0  0  2  0  0  0  0  0  0
  184.0790  173.5940  134.9040 O   0  0  0  0  0  1  0  0  0  0  0  0
  182.9690  177.6770  139.2120 C   0  0  0  0  0  2  0  0  0  0  0  0
  179.3890  172.1990  136.6720 C   0  0  0  0  0  2  0  0  0  0  0  0
  179.3220  172.7200  135.5020 N   0  0  0  0  0  0  0  0  0  0  0  0
  190.4940  176.2940  134.5940 C   0  0  0  0  0  2  0  0  0  0  0  0
  191.7720  175.4710  134.5940 C   0  0  0  0  0  2  0  0  0  0  0  0
  192.8890  176.2240  135.2960 C   0  0  0  0  0  2  0  0  0  0  0  0
  194.5280  173.6590  137.0480 C   0  0  0  0  0  0  0  0  0  0  0  0
  194.7540  174.6720  137.8600 C   0  0  0  0  0  0  0  0  0  0  0  0
  195.8980  175.2270  139.8580 N   0  0  0  0  0  1  0  0  0  0  0  0
  195.9600  173.0570  139.0060 N   0  0  0  0  0  0  0  0  0  0  0  0
  193.8170  173.9960  135.9710 N   0  0  0  0  0  0  0  0  0  0  0  0
  193.6200  175.3260  136.2370 C   0  0  0  0  0  0  0  0  0  0  0  0
  195.3070  172.3170  137.6360 S   0  0  0  0  0  0  0  0  0  0  0  0
  195.5510  174.3630  138.9640 C   0  0  0  0  0  0  0  0  0  0  0  0
  194.1950  175.7920  137.3900 N   0  0  0  0  0  2  0  0  0  0  0  0
  1 22  2  0  0  0  0
  1  9  1  0  0  0  0
  2 15  1  0  0  0  0
  5 14  1  0  0  0  0
  6  2  1  6  0  0  0
  6 19  1  0  0  0  0
  7 19  1  0  0  0  0
  7 27  1  6  0  0  0
  8  4  1  6  0  0  0
  8 32  1  0  0  0  0
  9  5  2  0  0  0  0
 11 40  1  1  0  0  0
 11 18  1  0  0  0  0
 12 29  1  1  0  0  0
 12  3  1  0  0  0  0
 12 34  1  0  0  0  0
 13 30  1  1  0  0  0
 13 31  1  0  0  0  0
 14 28  1  0  0  0  0
 15 26  1  6  0  0  0
 15  7  1  0  0  0  0
 16 39  1  1  0  0  0
 16 33  1  0  0  0  0
 17 14  2  0  0  0  0
 18 10  1  0  0  0  0
 18  1  1  0  0  0  0
 20 35  1  0  0  0  0
 21 20  1  0  0  0  0
 21 35  1  0  0  0  0
 22 17  1  0  0  0  0
 23 36  1  1  0  0  0
 23 13  1  0  0  0  0
 23 24  1  0  0  0  0
 24  3  1  6  0  0  0
 24  4  1  0  0  0  0
 25 20  2  0  0  0  0
 25  6  1  0  0  0  0
 28 21  1  0  0  0  0
 29 11  1  0  0  0  0
 30 16  1  0  0  0  0
 31 33  1  6  0  0  0
 31  8  1  0  0  0  0
 32 37  1  0  0  0  0
 34 10  1  0  0  0  0
 37 26  1  0  0  0  0
 39 38  2  0  0  0  0
 40 41  1  0  0  0  0
 41 42  1  0  0  0  0
 42 48  1  0  0  0  0
 43 49  1  0  0  0  0
 43 44  2  0  0  0  0
 44 50  1  0  0  0  0
 47 48  2  0  0  0  0
 47 43  1  0  0  0  0
 48 51  1  0  0  0  0
 49 46  1  0  0  0  0
 50 46  2  0  0  0  0
 50 45  1  0  0  0  0
 51 44  1  0  0  0  0
M  END
>  <MODEL>
3

>  <REMARK>
 VINA RESULT:      -6.2      3.683      7.287
  Name = 
  5 active torsions:
  status: ('A' for Active; 'I' for Inactive)
    1  A    between atoms: C_12  and  C_35
    2  A    between atoms: C_15  and  C_35
    3  A    between atoms: C_15  and  C_36
    4  A    between atoms: C_20  and  N_51
    5  A    between atoms: C_34  and  C_36
                            x       y       z     vdW  Elec       q    Type
                         _______ _______ _______ _____ _____    ______ ____

>  <TORSDO>
F 5

$$$$
=
 OpenBabel11032420493D

 51 59  0  0  1  0  0  0  0  0999 V2000
  184.4740  178.4190  138.5460 C   0  0  0  0  0  0  0  0  0  0  0  0
  189.2860  176.0500  143.3150 C   0  0  0  0  0  2  0  0  0  0  0  0
  187.8610  175.5400  136.9420 C   0  0  0  0  0  2  0  0  0  0  0  0
  190.0500  175.2410  138.1130 C   0  0  0  0  0  2  0  0  0  0  0  0
  183.5600  179.7810  140.3350 C   0  0  0  0  0  3  0  0  0  0  0  0
  188.4230  177.0200  144.1110 C   0  0  1  0  0  3  0  0  0  0  0  0
  190.7330  177.6640  144.3610 C   0  0  2  0  0  3  0  0  0  0  0  0
  191.4610  175.8130  138.3610 C   0  0  1  0  0  3  0  0  0  0  0  0
  183.7160  179.5180  138.9680 C   0  0  0  0  0  3  0  0  0  0  0  0
  186.0370  178.8190  136.7150 C   0  0  0  0  0  2  0  0  0  0  0  0
  184.4760  176.9840  136.4660 C   0  0  1  0  0  3  0  0  0  0  0  0
  186.9240  176.5240  136.3920 N   0  0  1  0  0  0  0  0  0  0  0  0
  191.5320  175.7520  135.8500 C   0  0  1  0  0  3  0  0  0  0  0  0
  184.1820  178.9600  141.2830 C   0  0  0  0  0  0  0  0  0  0  0  0
  190.6870  176.6410  143.2350 C   0  0  2  0  0  3  0  0  0  0  0  0
  193.8430  176.1140  135.2100 C   0  0  2  0  0  3  0  0  0  0  0  0
  184.9200  177.8490  140.8580 C   0  0  0  0  0  3  0  0  0  0  0  0
  184.7800  178.2410  137.1530 N   0  0  0  0  0  0  0  0  0  0  0  0
  189.3220  178.1800  144.5140 C   0  0  0  0  0  2  0  0  0  0  0  0
  186.3270  178.1450  143.7590 C   0  0  0  0  0  0  0  0  0  0  0  0
  185.1030  178.8250  143.5550 N   0  0  0  0  0  0  0  0  0  0  0  0
  185.0630  177.5800  139.5000 C   0  0  0  0  0  3  0  0  0  0  0  0
  190.0220  176.0060  135.6730 C   0  0  1  0  0  3  0  0  0  0  0  0
  189.3020  176.0340  137.0350 C   0  0  1  0  0  3  0  0  0  0  0  0
  187.3360  177.4980  143.2730 N   0  0  0  0  0  0  0  0  0  0  0  0
  190.9010  177.2750  141.8610 C   0  0  0  0  0  2  0  0  0  0  0  0
  191.6180  178.7130  144.0980 O   0  0  0  0  0  1  0  0  0  0  0  0
  184.1210  179.2930  142.6710 N   0  0  0  0  0  2  0  0  0  0  0  0
  185.6000  175.9840  136.7430 C   0  0  0  0  0  2  0  0  0  0  0  0
  192.4060  176.1990  134.7050 C   0  0  0  0  0  2  0  0  0  0  0  0
  192.0620  176.4350  137.0910 C   0  0  2  0  0  3  0  0  0  0  0  0
  191.4110  176.8600  139.4650 C   0  0  0  0  0  2  0  0  0  0  0  0
  193.8680  176.3000  137.0320 S   0  0  0  0  0  0  0  0  0  0  0  0
  187.1450  177.8250  137.0540 C   0  0  0  0  0  2  0  0  0  0  0  0
  185.6320  178.7100  144.8550 N   0  0  0  0  0  2  0  0  0  0  0  0
  189.7950  177.2160  135.0140 O   0  0  0  0  0  1  0  0  0  0  0  0
  191.1500  176.2070  140.8120 C   0  0  0  0  0  2  0  0  0  0  0  0
  195.4600  177.8390  135.3140 C   0  0  0  0  0  2  0  0  0  0  0  0
  194.6500  177.1420  134.6060 N   0  0  0  0  0  0  0  0  0  0  0  0
  183.1300  176.4030  136.8740 C   0  0  0  0  0  2  0  0  0  0  0  0
  182.1340  176.5310  135.7320 C   0  0  0  0  0  2  0  0  0  0  0  0
  180.7470  176.8420  136.2700 C   0  0  0  0  0  2  0  0  0  0  0  0
  180.7770  180.2660  137.0510 C   0  0  0  0  0  0  0  0  0  0  0  0
  180.3910  179.7700  138.2090 C   0  0  0  0  0  0  0  0  0  0  0  0
  179.6900  180.4380  140.3700 N   0  0  0  0  0  1  0  0  0  0  0  0
  180.2690  182.0200  138.7570 N   0  0  0  0  0  0  0  0  0  0  0  0
  180.9880  179.3320  136.1220 N   0  0  0  0  0  0  0  0  0  0  0  0
  180.7050  178.2120  136.8590 C   0  0  0  0  0  0  0  0  0  0  0  0
  180.7760  181.9230  137.1500 S   0  0  0  0  0  0  0  0  0  0  0  0
  180.1020  180.7290  139.1820 C   0  0  0  0  0  0  0  0  0  0  0  0
  180.3180  178.4370  138.1540 N   0  0  0  0  0  2  0  0  0  0  0  0
  1  9  2  0  0  0  0
  1 22  1  0  0  0  0
  5 14  2  0  0  0  0
  6  2  1  6  0  0  0
  6 19  1  0  0  0  0
  7 27  1  6  0  0  0
  7 19  1  0  0  0  0
  8  4  1  6  0  0  0
  8 32  1  0  0  0  0
  9  5  1  0  0  0  0
 10 34  1  0  0  0  0
 10 18  1  0  0  0  0
 11 29  1  0  0  0  0
 11 40  1  1  0  0  0
 11 18  1  0  0  0  0
 12 29  1  1  0  0  0
 12  3  1  0  0  0  0
 12 34  1  0  0  0  0
 13 30  1  6  0  0  0
 13 31  1  0  0  0  0
 14 28  1  0  0  0  0
 15 26  1  6  0  0  0
 15  2  1  0  0  0  0
 15  7  1  0  0  0  0
 16 39  1  6  0  0  0
 16 33  1  0  0  0  0
 17 14  1  0  0  0  0
 18  1  1  0  0  0  0
 20 35  1  0  0  0  0
 21 20  1  0  0  0  0
 21 35  1  0  0  0  0
 22 17  2  0  0  0  0
 23 36  1  1  0  0  0
 23 13  1  0  0  0  0
 23 24  1  0  0  0  0
 24  3  1  6  0  0  0
 24  4  1  0  0  0  0
 25 20  2  0  0  0  0
 25  6  1  0  0  0  0
 28 21  1  0  0  0  0
 30 16  1  0  0  0  0
 31 33  1  1  0  0  0
 31  8  1  0  0  0  0
 32 37  1  0  0  0  0
 37 26  1  0  0  0  0
 39 38  2  0  0  0  0
 41 42  1  0  0  0  0
 41 40  1  0  0  0  0
 42 48  1  0  0  0  0
 43 49  1  0  0  0  0
 43 44  2  0  0  0  0
 44 50  1  0  0  0  0
 46 50  2  0  0  0  0
 47 48  2  0  0  0  0
 47 43  1  0  0  0  0
 48 51  1  0  0  0  0
 49 46  1  0  0  0  0
 50 45  1  0  0  0  0
 51 44  1  0  0  0  0
M  END
>  <MODEL>
4

>  <REMARK>
 VINA RESULT:      -6.1      3.616     10.574
  Name = 
  5 active torsions:
  status: ('A' for Active; 'I' for Inactive)
    1  A    between atoms: C_12  and  C_35
    2  A    between atoms: C_15  and  C_35
    3  A    between atoms: C_15  and  C_36
    4  A    between atoms: C_20  and  N_51
    5  A    between atoms: C_34  and  C_36
                            x       y       z     vdW  Elec       q    Type
                         _______ _______ _______ _____ _____    ______ ____

>  <TORSDO>
F 5

$$$$
=
 OpenBabel11032420493D

 51 59  0  0  1  0  0  0  0  0999 V2000
  188.4660  175.7500  136.3240 C   0  0  0  0  0  0  0  0  0  0  0  0
  182.2970  172.2570  137.4510 C   0  0  0  0  0  2  0  0  0  0  0  0
  185.4160  177.6890  139.3690 C   0  0  0  0  0  2  0  0  0  0  0  0
  182.9670  177.1870  139.3360 C   0  0  0  0  0  2  0  0  0  0  0  0
  188.9600  174.0730  134.6390 C   0  0  0  0  0  3  0  0  0  0  0  0
  182.9870  171.4470  136.3610 C   0  0  1  0  0  3  0  0  0  0  0  0
  180.7720  172.0260  135.6030 C   0  0  2  0  0  3  0  0  0  0  0  0
  181.6040  177.4860  138.6780 C   0  0  1  0  0  3  0  0  0  0  0  0
  189.1730  175.3460  135.1860 C   0  0  0  0  0  3  0  0  0  0  0  0
  187.5310  178.0040  136.2770 C   0  0  0  0  0  2  0  0  0  0  0  0
  188.9180  177.4130  138.1730 C   0  0  1  0  0  3  0  0  0  0  0  0
  186.5590  178.1180  138.5580 N   0  0  1  0  0  0  0  0  0  0  0  0
  182.2430  179.8420  139.2760 C   0  0  1  0  0  3  0  0  0  0  0  0
  188.0200  173.2110  135.2170 C   0  0  0  0  0  0  0  0  0  0  0  0
  181.0400  172.8640  136.8460 C   0  0  2  0  0  3  0  0  0  0  0  0
  180.2530  181.1970  138.9850 C   0  0  2  0  0  3  0  0  0  0  0  0
  187.3310  173.6100  136.3680 C   0  0  0  0  0  3  0  0  0  0  0  0
  188.5520  177.1070  136.7880 N   0  0  0  0  0  0  0  0  0  0  0  0
  182.1250  171.5650  135.1130 C   0  0  0  0  0  2  0  0  0  0  0  0
  185.1940  171.3750  135.4080 C   0  0  0  0  0  0  0  0  0  0  0  0
  186.4840  171.3350  134.8280 N   0  0  0  0  0  0  0  0  0  0  0  0
  187.5530  174.8680  136.9190 C   0  0  0  0  0  3  0  0  0  0  0  0
  183.7570  179.6080  139.1160 C   0  0  1  0  0  3  0  0  0  0  0  0
  184.0610  178.1270  138.8190 C   0  0  1  0  0  3  0  0  0  0  0  0
  184.3070  172.0010  136.1110 N   0  0  0  0  0  0  0  0  0  0  0  0
  181.2850  174.3370  136.5150 C   0  0  0  0  0  2  0  0  0  0  0  0
  180.1020  172.7410  134.6070 O   0  0  0  0  0  1  0  0  0  0  0  0
  187.7160  171.9610  134.5940 N   0  0  0  0  0  2  0  0  0  0  0  0
  187.6720  177.2910  139.0530 C   0  0  0  0  0  2  0  0  0  0  0  0
  181.7750  181.2590  139.0580 C   0  0  0  0  0  2  0  0  0  0  0  0
  181.4490  178.9740  138.3250 C   0  0  2  0  0  3  0  0  0  0  0  0
  181.4380  176.6450  137.4200 C   0  0  0  0  0  2  0  0  0  0  0  0
  179.7300  179.5390  138.4100 S   0  0  0  0  0  0  0  0  0  0  0  0
  186.2830  177.8200  137.1380 C   0  0  0  0  0  2  0  0  0  0  0  0
  185.6000  170.2550  134.6430 N   0  0  0  0  0  2  0  0  0  0  0  0
  184.2760  180.3940  138.0840 O   0  0  0  0  0  1  0  0  0  0  0  0
  181.2430  175.1810  137.7760 C   0  0  0  0  0  2  0  0  0  0  0  0
  180.3980  182.5130  137.0230 C   0  0  0  0  0  2  0  0  0  0  0  0
  179.7510  182.2030  138.0860 N   0  0  0  0  0  0  0  0  0  0  0  0
  190.0320  176.5170  138.6960 C   0  0  0  0  0  2  0  0  0  0  0  0
  191.3880  177.1430  138.4100 C   0  0  0  0  0  2  0  0  0  0  0  0
  192.0080  176.5230  137.1700 C   0  0  0  0  0  2  0  0  0  0  0  0
  194.3950  173.9750  137.5490 C   0  0  0  0  0  0  0  0  0  0  0  0
  194.8350  174.8360  138.4430 C   0  0  0  0  0  0  0  0  0  0  0  0
  196.6140  175.1770  139.9700 N   0  0  0  0  0  1  0  0  0  0  0  0
  196.5130  173.2510  138.6580 N   0  0  0  0  0  0  0  0  0  0  0  0
  193.2980  174.3910  136.9130 N   0  0  0  0  0  0  0  0  0  0  0  0
  193.1140  175.5940  137.5410 C   0  0  0  0  0  0  0  0  0  0  0  0
  195.4440  172.6910  137.4780 S   0  0  0  0  0  0  0  0  0  0  0  0
  196.0180  174.4560  139.0800 C   0  0  0  0  0  0  0  0  0  0  0  0
  194.0510  175.9180  138.4880 N   0  0  0  0  0  2  0  0  0  0  0  0
  1 18  1  0  0  0  0
  1 22  1  0  0  0  0
  5  9  1  0  0  0  0
  5 14  2  0  0  0  0
  6 19  1  6  0  0  0
  6  2  1  0  0  0  0
  7 27  1  6  0  0  0
  7 15  1  0  0  0  0
  8 32  1  6  0  0  0
  8  4  1  0  0  0  0
  9  1  2  0  0  0  0
 10 18  1  0  0  0  0
 10 34  1  0  0  0  0
 11 40  1  1  0  0  0
 11 29  1  0  0  0  0
 12 34  1  6  0  0  0
 12 29  1  0  0  0  0
 12  3  1  0  0  0  0
 13 30  1  6  0  0  0
 14 17  1  0  0  0  0
 15 26  1  6  0  0  0
 15  2  1  0  0  0  0
 16 39  1  6  0  0  0
 16 30  1  0  0  0  0
 17 22  2  0  0  0  0
 18 11  1  0  0  0  0
 19  7  1  0  0  0  0
 20 25  2  0  0  0  0
 21 20  1  0  0  0  0
 23 36  1  6  0  0  0
 23 13  1  0  0  0  0
 24 23  1  0  0  0  0
 24  4  1  1  0  0  0
 24  3  1  0  0  0  0
 25  6  1  0  0  0  0
 26 37  1  0  0  0  0
 28 21  1  0  0  0  0
 28 14  1  0  0  0  0
 31 33  1  1  0  0  0
 31  8  1  0  0  0  0
 31 13  1  0  0  0  0
 32 37  1  0  0  0  0
 33 16  1  0  0  0  0
 35 21  1  0  0  0  0
 35 20  1  0  0  0  0
 38 39  2  0  0  0  0
 41 40  1  0  0  0  0
 42 48  1  0  0  0  0
 42 41  1  0  0  0  0
 43 44  2  0  0  0  0
 44 51  1  0  0  0  0
 44 50  1  0  0  0  0
 46 50  2  0  0  0  0
 47 48  2  0  0  0  0
 47 43  1  0  0  0  0
 48 51  1  0  0  0  0
 49 43  1  0  0  0  0
 49 46  1  0  0  0  0
 50 45  1  0  0  0  0
M  END
>  <MODEL>
5

>  <REMARK>
 VINA RESULT:      -6.0      3.398      4.011
  Name = 
  5 active torsions:
  status: ('A' for Active; 'I' for Inactive)
    1  A    between atoms: C_12  and  C_35
    2  A    between atoms: C_15  and  C_35
    3  A    between atoms: C_15  and  C_36
    4  A    between atoms: C_20  and  N_51
    5  A    between atoms: C_34  and  C_36
                            x       y       z     vdW  Elec       q    Type
                         _______ _______ _______ _____ _____    ______ ____

>  <TORSDO>
F 5

$$$$
