=
 OpenBabel11032419193D

 25 28  0  0  1  0  0  0  0  0999 V2000
  186.2240  177.9990  142.4450 N   0  0  0  0  0  0  0  0  0  0  0  0
  187.4860  177.9030  146.3960 C   0  0  0  0  0  3  0  0  0  0  0  0
  186.6190  177.9730  143.7430 C   0  0  0  0  0  0  0  0  0  0  0  0
  184.4010  178.6870  144.3840 C   0  0  0  0  0  0  0  0  0  0  0  0
  183.4040  179.0540  145.3330 N   0  0  0  0  0  1  0  0  0  0  0  0
  184.5570  178.3750  140.6750 C   0  0  0  0  0  1  0  0  0  0  0  0
  188.3720  177.5600  145.3710 C   0  0  0  0  0  0  0  0  0  0  0  0
  186.1690  178.2800  146.1210 C   0  0  0  0  0  0  0  0  0  0  0  0
  184.9620  178.3550  142.1050 C   0  0  0  0  0  0  0  0  0  0  0  0
  184.0690  178.6930  143.0670 N   0  0  0  0  0  0  0  0  0  0  0  0
  187.9300  177.6000  144.0460 C   0  0  0  0  0  3  0  0  0  0  0  0
  185.3130  178.6220  147.2940 C   0  0  0  0  0  1  0  0  0  0  0  0
  185.7130  178.3200  144.7760 C   0  0  0  0  0  0  0  0  0  0  0  0
  191.6900  175.2170  146.3170 N   0  0  0  0  0  2  0  0  0  0  0  0
  189.7600  177.1660  145.6830 C   0  0  0  0  0  0  0  0  0  0  0  0
  190.7990  176.8270  144.6750 C   0  0  2  0  0  3  0  0  0  0  0  0
  192.0010  176.4250  145.5340 C   0  0  1  0  0  3  0  0  0  0  0  0
  190.1730  176.9890  146.8890 N   0  0  0  0  0  0  0  0  0  0  0  0
  191.5600  176.5500  146.9320 C   0  0  1  0  0  3  0  0  0  0  0  0
  191.1440  178.0140  143.8200 C   0  0  0  0  0  0  0  0  0  0  0  0
  191.5330  179.0870  144.3540 O   0  0  0  0  0  0  0  0  0  0  0  0
  191.0220  177.9490  142.3980 N   0  0  0  0  0  2  0  0  0  0  0  0
  190.5750  176.7510  141.7060 C   0  0  0  0  0  2  0  0  0  0  0  0
  188.8170  177.4020  139.8760 N   0  0  0  0  0  0  0  0  0  0  0  0
  189.5930  177.1150  140.6840 C   0  0  0  0  0  0  0  0  0  0  0  0
  1  3  1  0  0  0  0
  3 11  2  0  0  0  0
  3 13  1  0  0  0  0
  4 13  1  0  0  0  0
  4  5  1  0  0  0  0
  6  9  1  0  0  0  0
  7 15  1  0  0  0  0
  7  2  2  0  0  0  0
  8  2  1  0  0  0  0
  8 12  1  0  0  0  0
  9  1  2  0  0  0  0
  9 10  1  0  0  0  0
 10  4  2  0  0  0  0
 11  7  1  0  0  0  0
 13  8  2  0  0  0  0
 15 18  2  0  0  0  0
 16 20  1  1  0  0  0
 16 17  1  0  0  0  0
 16 15  1  0  0  0  0
 17 14  1  6  0  0  0
 17 19  1  0  0  0  0
 18 19  1  0  0  0  0
 19 14  1  6  0  0  0
 20 21  2  0  0  0  0
 22 20  1  0  0  0  0
 23 22  1  0  0  0  0
 24 25  3  0  0  0  0
 25 23  1  0  0  0  0
M  END
>  <MODEL>
1

>  <REMARK>
 VINA RESULT:      -8.6      0.000      0.000
  Name = 
  4 active torsions:
  status: ('A' for Active; 'I' for Inactive)
    1  A    between atoms: C_4  and  C_11
    2  A    between atoms: C_5  and  C_10
    3  A    between atoms: C_12  and  C_22
    4  A    between atoms: C_12  and  N_23
                            x       y       z     vdW  Elec       q    Type
                         _______ _______ _______ _____ _____    ______ ____

>  <TORSDO>
F 4

$$$$
=
 OpenBabel11032419193D

 25 28  0  0  1  0  0  0  0  0999 V2000
  184.3300  178.5390  143.2080 N   0  0  0  0  0  0  0  0  0  0  0  0
  188.1840  177.6230  144.4390 C   0  0  0  0  0  3  0  0  0  0  0  0
  185.5860  178.2420  143.6290 C   0  0  0  0  0  0  0  0  0  0  0  0
  184.8550  178.5910  145.9060 C   0  0  0  0  0  0  0  0  0  0  0  0
  185.0530  178.6380  147.3160 N   0  0  0  0  0  1  0  0  0  0  0  0
  181.9870  179.1760  143.6020 C   0  0  0  0  0  1  0  0  0  0  0  0
  187.8640  177.6090  143.0790 C   0  0  0  0  0  0  0  0  0  0  0  0
  187.2280  177.9400  145.4070 C   0  0  0  0  0  0  0  0  0  0  0  0
  183.3530  178.8540  144.0910 C   0  0  0  0  0  0  0  0  0  0  0  0
  183.6190  178.8780  145.4200 N   0  0  0  0  0  0  0  0  0  0  0  0
  186.5610  177.9210  142.6820 C   0  0  0  0  0  3  0  0  0  0  0  0
  187.6840  177.9210  146.8280 C   0  0  0  0  0  1  0  0  0  0  0  0
  185.9010  178.2560  145.0110 C   0  0  0  0  0  0  0  0  0  0  0  0
  190.8400  178.0280  140.1860 N   0  0  0  0  0  2  0  0  0  0  0  0
  188.8900  177.2730  142.0710 C   0  0  0  0  0  0  0  0  0  0  0  0
  190.3210  177.0010  142.3670 C   0  0  2  0  0  3  0  0  0  0  0  0
  190.9310  176.7910  140.9800 C   0  0  1  0  0  3  0  0  0  0  0  0
  188.6450  177.2770  140.8080 N   0  0  0  0  0  0  0  0  0  0  0  0
  189.8290  176.9680  140.0210 C   0  0  1  0  0  3  0  0  0  0  0  0
  190.4840  175.7610  143.2020 C   0  0  0  0  0  0  0  0  0  0  0  0
  190.0540  174.6540  142.7800 O   0  0  0  0  0  0  0  0  0  0  0  0
  191.1120  175.8210  144.4830 N   0  0  0  0  0  2  0  0  0  0  0  0
  191.6300  177.0590  145.0420 C   0  0  0  0  0  2  0  0  0  0  0  0
  191.6290  176.9060  147.6580 N   0  0  0  0  0  0  0  0  0  0  0  0
  191.6290  176.9740  146.5020 C   0  0  0  0  0  0  0  0  0  0  0  0
  1  3  1  0  0  0  0
  1  9  2  0  0  0  0
  2  8  1  0  0  0  0
  3 13  1  0  0  0  0
  4  5  1  0  0  0  0
  6  9  1  0  0  0  0
  7  2  2  0  0  0  0
  8 12  1  0  0  0  0
  9 10  1  0  0  0  0
 10  4  2  0  0  0  0
 11  7  1  0  0  0  0
 11  3  2  0  0  0  0
 13  8  2  0  0  0  0
 13  4  1  0  0  0  0
 15 16  1  0  0  0  0
 15  7  1  0  0  0  0
 16 20  1  1  0  0  0
 17 14  1  6  0  0  0
 17 16  1  0  0  0  0
 18 15  2  0  0  0  0
 19 14  1  6  0  0  0
 19 18  1  0  0  0  0
 19 17  1  0  0  0  0
 20 22  1  0  0  0  0
 21 20  2  0  0  0  0
 22 23  1  0  0  0  0
 23 25  1  0  0  0  0
 25 24  3  0  0  0  0
M  END
>  <MODEL>
2

>  <REMARK>
 VINA RESULT:      -8.2      1.667      4.007
  Name = 
  4 active torsions:
  status: ('A' for Active; 'I' for Inactive)
    1  A    between atoms: C_4  and  C_11
    2  A    between atoms: C_5  and  C_10
    3  A    between atoms: C_12  and  C_22
    4  A    between atoms: C_12  and  N_23
                            x       y       z     vdW  Elec       q    Type
                         _______ _______ _______ _____ _____    ______ ____

>  <TORSDO>
F 4

$$$$
=
 OpenBabel11032419193D

 25 28  0  0  1  0  0  0  0  0999 V2000
  187.9770  177.5820  144.4410 N   0  0  0  0  0  0  0  0  0  0  0  0
  184.6980  178.7260  142.1710 C   0  0  0  0  0  3  0  0  0  0  0  0
  186.8940  177.9590  143.7150 C   0  0  0  0  0  0  0  0  0  0  0  0
  185.6810  178.2870  145.7790 C   0  0  0  0  0  0  0  0  0  0  0  0
  184.5280  178.6390  146.5380 N   0  0  0  0  0  1  0  0  0  0  0  0
  189.1350  177.1340  146.5650 C   0  0  0  0  0  1  0  0  0  0  0  0
  185.8910  178.3600  141.5410 C   0  0  0  0  0  0  0  0  0  0  0  0
  184.5810  178.7180  143.5630 C   0  0  0  0  0  0  0  0  0  0  0  0
  187.9340  177.5510  145.7950 C   0  0  0  0  0  0  0  0  0  0  0  0
  186.7990  177.9010  146.4470 N   0  0  0  0  0  0  0  0  0  0  0  0
  186.9840  177.9760  142.3220 C   0  0  0  0  0  3  0  0  0  0  0  0
  183.2610  179.1310  144.1240 C   0  0  0  0  0  1  0  0  0  0  0  0
  185.6900  178.3310  144.3620 C   0  0  0  0  0  0  0  0  0  0  0  0
  186.4170  177.0670  137.6100 N   0  0  0  0  0  2  0  0  0  0  0  0
  185.9940  178.3730  140.0680 C   0  0  0  0  0  0  0  0  0  0  0  0
  184.8510  178.2160  139.1310 C   0  0  2  0  0  3  0  0  0  0  0  0
  185.5230  178.2280  137.7550 C   0  0  1  0  0  3  0  0  0  0  0  0
  187.1240  178.4320  139.4550 N   0  0  0  0  0  0  0  0  0  0  0  0
  186.9650  178.3750  138.0100 C   0  0  1  0  0  3  0  0  0  0  0  0
  183.8820  179.3590  139.2470 C   0  0  0  0  0  0  0  0  0  0  0  0
  184.2670  180.5400  139.0330 O   0  0  0  0  0  0  0  0  0  0  0  0
  182.5210  179.1280  139.6150 N   0  0  0  0  0  2  0  0  0  0  0  0
  182.0000  177.7970  139.8840 C   0  0  0  0  0  2  0  0  0  0  0  0
  179.9850  177.9660  141.5490 N   0  0  0  0  0  0  0  0  0  0  0  0
  180.8750  177.8920  140.8140 C   0  0  0  0  0  0  0  0  0  0  0  0
  1  9  2  0  0  0  0
  2  8  1  0  0  0  0
  3 13  1  0  0  0  0
  3  1  1  0  0  0  0
  4 10  2  0  0  0  0
  4  5  1  0  0  0  0
  7  2  2  0  0  0  0
  7 11  1  0  0  0  0
  8 12  1  0  0  0  0
  8 13  2  0  0  0  0
  9 10  1  0  0  0  0
  9  6  1  0  0  0  0
 11  3  2  0  0  0  0
 13  4  1  0  0  0  0
 15  7  1  0  0  0  0
 16 20  1  6  0  0  0
 16 15  1  0  0  0  0
 17 14  1  1  0  0  0
 17 19  1  0  0  0  0
 17 16  1  0  0  0  0
 18 15  2  0  0  0  0
 19 14  1  1  0  0  0
 19 18  1  0  0  0  0
 20 22  1  0  0  0  0
 21 20  2  0  0  0  0
 22 23  1  0  0  0  0
 23 25  1  0  0  0  0
 25 24  3  0  0  0  0
M  END
>  <MODEL>
3

>  <REMARK>
 VINA RESULT:      -7.7      3.015      6.823
  Name = 
  4 active torsions:
  status: ('A' for Active; 'I' for Inactive)
    1  A    between atoms: C_4  and  C_11
    2  A    between atoms: C_5  and  C_10
    3  A    between atoms: C_12  and  C_22
    4  A    between atoms: C_12  and  N_23
                            x       y       z     vdW  Elec       q    Type
                         _______ _______ _______ _____ _____    ______ ____

>  <TORSDO>
F 4

$$$$
=
 OpenBabel11032419193D

 25 28  0  0  1  0  0  0  0  0999 V2000
  188.7840  177.1590  145.0760 N   0  0  0  0  0  0  0  0  0  0  0  0
  187.3070  177.9870  141.2890 C   0  0  0  0  0  3  0  0  0  0  0  0
  188.2850  177.4360  143.8450 C   0  0  0  0  0  0  0  0  0  0  0  0
  186.2470  178.2000  144.8950 C   0  0  0  0  0  0  0  0  0  0  0  0
  184.9270  178.7370  144.8790 N   0  0  0  0  0  1  0  0  0  0  0  0
  188.6270  177.0740  147.5300 C   0  0  0  0  0  1  0  0  0  0  0  0
  188.5930  177.4590  141.4370 C   0  0  0  0  0  0  0  0  0  0  0  0
  186.4980  178.2490  142.3970 C   0  0  0  0  0  0  0  0  0  0  0  0
  188.0550  177.3870  146.1940 C   0  0  0  0  0  0  0  0  0  0  0  0
  186.8040  177.9010  146.0970 N   0  0  0  0  0  0  0  0  0  0  0  0
  189.0730  177.1850  142.7210 C   0  0  0  0  0  3  0  0  0  0  0  0
  185.1450  178.8140  142.1180 C   0  0  0  0  0  1  0  0  0  0  0  0
  186.9810  177.9740  143.7050 C   0  0  0  0  0  0  0  0  0  0  0  0
  190.6710  175.4080  138.4590 N   0  0  0  0  0  2  0  0  0  0  0  0
  189.4320  177.1890  140.2530 C   0  0  0  0  0  0  0  0  0  0  0  0
  188.9360  177.1150  138.8540 C   0  0  2  0  0  3  0  0  0  0  0  0
  190.1890  176.7400  138.0580 C   0  0  1  0  0  3  0  0  0  0  0  0
  190.6810  176.8960  140.3440 N   0  0  0  0  0  0  0  0  0  0  0  0
  191.2740  176.6180  139.0450 C   0  0  1  0  0  3  0  0  0  0  0  0
  188.4010  178.4410  138.3890 C   0  0  0  0  0  0  0  0  0  0  0  0
  189.0910  179.4870  138.5310 O   0  0  0  0  0  0  0  0  0  0  0  0
  187.1060  178.5380  137.7960 N   0  0  0  0  0  2  0  0  0  0  0  0
  186.2470  177.3820  137.6010 C   0  0  0  0  0  2  0  0  0  0  0  0
  183.8230  177.9420  138.4240 N   0  0  0  0  0  0  0  0  0  0  0  0
  184.8940  177.6950  138.0610 C   0  0  0  0  0  0  0  0  0  0  0  0
  1  9  2  0  0  0  0
  2  7  2  0  0  0  0
  2  8  1  0  0  0  0
  3  1  1  0  0  0  0
  4 10  2  0  0  0  0
  5  4  1  0  0  0  0
  7 11  1  0  0  0  0
  8 13  2  0  0  0  0
  9  6  1  0  0  0  0
 10  9  1  0  0  0  0
 11  3  2  0  0  0  0
 12  8  1  0  0  0  0
 13  3  1  0  0  0  0
 13  4  1  0  0  0  0
 15 18  2  0  0  0  0
 15  7  1  0  0  0  0
 16 20  1  6  0  0  0
 16 15  1  0  0  0  0
 17 14  1  1  0  0  0
 17 16  1  0  0  0  0
 17 19  1  0  0  0  0
 19 14  1  1  0  0  0
 19 18  1  0  0  0  0
 20 21  2  0  0  0  0
 22 20  1  0  0  0  0
 23 22  1  0  0  0  0
 23 25  1  0  0  0  0
 25 24  3  0  0  0  0
M  END
>  <MODEL>
4

>  <REMARK>
 VINA RESULT:      -7.6      2.598      5.379
  Name = 
  4 active torsions:
  status: ('A' for Active; 'I' for Inactive)
    1  A    between atoms: C_4  and  C_11
    2  A    between atoms: C_5  and  C_10
    3  A    between atoms: C_12  and  C_22
    4  A    between atoms: C_12  and  N_23
                            x       y       z     vdW  Elec       q    Type
                         _______ _______ _______ _____ _____    ______ ____

>  <TORSDO>
F 4

$$$$
=
 OpenBabel11032419193D

 25 28  0  0  1  0  0  0  0  0999 V2000
  188.2100  177.5040  145.2440 N   0  0  0  0  0  0  0  0  0  0  0  0
  186.0650  178.6090  141.8690 C   0  0  0  0  0  3  0  0  0  0  0  0
  187.4930  177.8690  144.1510 C   0  0  0  0  0  0  0  0  0  0  0  0
  185.5870  178.2520  145.5860 C   0  0  0  0  0  0  0  0  0  0  0  0
  184.2360  178.6270  145.8400 N   0  0  0  0  0  1  0  0  0  0  0  0
  188.4610  177.1010  147.6570 C   0  0  0  0  0  1  0  0  0  0  0  0
  187.4030  178.2230  141.7510 C   0  0  0  0  0  0  0  0  0  0  0  0
  185.4240  178.6350  143.1100 C   0  0  0  0  0  0  0  0  0  0  0  0
  187.6530  177.5060  146.4780 C   0  0  0  0  0  0  0  0  0  0  0  0
  186.3590  177.8760  146.6390 N   0  0  0  0  0  0  0  0  0  0  0  0
  188.1100  177.8520  142.8980 C   0  0  0  0  0  3  0  0  0  0  0  0
  183.9960  179.0670  143.1150 C   0  0  0  0  0  1  0  0  0  0  0  0
  186.1380  178.2620  144.2800 C   0  0  0  0  0  0  0  0  0  0  0  0
  189.0540  179.5100  138.1430 N   0  0  0  0  0  2  0  0  0  0  0  0
  188.0620  178.2010  140.4300 C   0  0  0  0  0  0  0  0  0  0  0  0
  189.5310  178.2460  140.2060 C   0  0  2  0  0  3  0  0  0  0  0  0
  189.6520  178.2760  138.6810 C   0  0  1  0  0  3  0  0  0  0  0  0
  187.3990  178.2340  139.3270 N   0  0  0  0  0  0  0  0  0  0  0  0
  188.2740  178.2600  138.1640 C   0  0  1  0  0  3  0  0  0  0  0  0
  190.2090  177.0230  140.7590 C   0  0  0  0  0  0  0  0  0  0  0  0
  190.0530  175.9060  140.1980 O   0  0  0  0  0  0  0  0  0  0  0  0
  191.0240  177.1070  141.9290 N   0  0  0  0  0  2  0  0  0  0  0  0
  191.2490  178.3560  142.6360 C   0  0  0  0  0  2  0  0  0  0  0  0
  191.6810  177.8610  145.1730 N   0  0  0  0  0  0  0  0  0  0  0  0
  191.4900  178.0800  144.0530 C   0  0  0  0  0  0  0  0  0  0  0  0
  1  9  2  0  0  0  0
  2  8  1  0  0  0  0
  3 13  1  0  0  0  0
  3  1  1  0  0  0  0
  4  5  1  0  0  0  0
  4 10  2  0  0  0  0
  7  2  2  0  0  0  0
  7 11  1  0  0  0  0
  8 12  1  0  0  0  0
  8 13  2  0  0  0  0
  9 10  1  0  0  0  0
  9  6  1  0  0  0  0
 11  3  2  0  0  0  0
 13  4  1  0  0  0  0
 15  7  1  0  0  0  0
 16 15  1  0  0  0  0
 16 20  1  6  0  0  0
 17 14  1  1  0  0  0
 17 16  1  0  0  0  0
 18 15  2  0  0  0  0
 19 14  1  1  0  0  0
 19 17  1  0  0  0  0
 19 18  1  0  0  0  0
 20 22  1  0  0  0  0
 21 20  2  0  0  0  0
 22 23  1  0  0  0  0
 23 25  1  0  0  0  0
 25 24  3  0  0  0  0
M  END
>  <MODEL>
5

>  <REMARK>
 VINA RESULT:      -7.6      2.066      5.120
  Name = 
  4 active torsions:
  status: ('A' for Active; 'I' for Inactive)
    1  A    between atoms: C_4  and  C_11
    2  A    between atoms: C_5  and  C_10
    3  A    between atoms: C_12  and  C_22
    4  A    between atoms: C_12  and  N_23
                            x       y       z     vdW  Elec       q    Type
                         _______ _______ _______ _____ _____    ______ ____

>  <TORSDO>
F 4

$$$$
=
 OpenBabel11032419193D

 25 28  0  0  1  0  0  0  0  0999 V2000
  185.6960  178.2490  142.8300 N   0  0  0  0  0  0  0  0  0  0  0  0
  189.6820  177.1020  142.8170 C   0  0  0  0  0  3  0  0  0  0  0  0
  187.0000  177.8740  142.8450 C   0  0  0  0  0  0  0  0  0  0  0  0
  186.9520  177.9710  145.2590 C   0  0  0  0  0  0  0  0  0  0  0  0
  187.5360  177.8460  146.5520 N   0  0  0  0  0  1  0  0  0  0  0  0
  183.5940  178.8920  143.9350 C   0  0  0  0  0  1  0  0  0  0  0  0
  188.9960  177.2550  141.6090 C   0  0  0  0  0  0  0  0  0  0  0  0
  189.0520  177.3250  144.0440 C   0  0  0  0  0  0  0  0  0  0  0  0
  185.0220  178.4820  143.9810 C   0  0  0  0  0  0  0  0  0  0  0  0
  185.6480  178.3430  145.1750 N   0  0  0  0  0  0  0  0  0  0  0  0
  187.6540  177.6440  141.6330 C   0  0  0  0  0  3  0  0  0  0  0  0
  189.8830  177.1280  145.2680 C   0  0  0  0  0  1  0  0  0  0  0  0
  187.6870  177.7180  144.0740 C   0  0  0  0  0  0  0  0  0  0  0  0
  190.6790  175.2800  138.3440 N   0  0  0  0  0  2  0  0  0  0  0  0
  189.6810  177.0150  140.3240 C   0  0  0  0  0  0  0  0  0  0  0  0
  189.0160  176.9810  138.9950 C   0  0  2  0  0  3  0  0  0  0  0  0
  190.1590  176.6250  138.0410 C   0  0  1  0  0  3  0  0  0  0  0  0
  190.9310  176.7170  140.2520 N   0  0  0  0  0  0  0  0  0  0  0  0
  191.3570  176.4730  138.8820 C   0  0  1  0  0  3  0  0  0  0  0  0
  188.4360  178.3210  138.6350 C   0  0  0  0  0  0  0  0  0  0  0  0
  189.0550  179.3780  138.9290 O   0  0  0  0  0  0  0  0  0  0  0  0
  187.1740  178.4150  137.9730 N   0  0  0  0  0  2  0  0  0  0  0  0
  186.3950  177.2440  137.6050 C   0  0  0  0  0  2  0  0  0  0  0  0
  183.8460  177.7440  137.9480 N   0  0  0  0  0  0  0  0  0  0  0  0
  184.9720  177.5230  137.7970 C   0  0  0  0  0  0  0  0  0  0  0  0
  1  3  1  0  0  0  0
  1  9  2  0  0  0  0
  2  8  1  0  0  0  0
  3 13  1  0  0  0  0
  4  5  1  0  0  0  0
  6  9  1  0  0  0  0
  7 11  1  0  0  0  0
  7  2  2  0  0  0  0
  8 13  2  0  0  0  0
  8 12  1  0  0  0  0
  9 10  1  0  0  0  0
 10  4  2  0  0  0  0
 11  3  2  0  0  0  0
 13  4  1  0  0  0  0
 15  7  1  0  0  0  0
 16 20  1  6  0  0  0
 16 15  1  0  0  0  0
 17 14  1  1  0  0  0
 17 19  1  0  0  0  0
 17 16  1  0  0  0  0
 18 15  2  0  0  0  0
 19 14  1  1  0  0  0
 19 18  1  0  0  0  0
 20 21  2  0  0  0  0
 22 20  1  0  0  0  0
 23 25  1  0  0  0  0
 23 22  1  0  0  0  0
 25 24  3  0  0  0  0
M  END
>  <MODEL>
6

>  <REMARK>
 VINA RESULT:      -7.6      2.529      5.026
  Name = 
  4 active torsions:
  status: ('A' for Active; 'I' for Inactive)
    1  A    between atoms: C_4  and  C_11
    2  A    between atoms: C_5  and  C_10
    3  A    between atoms: C_12  and  C_22
    4  A    between atoms: C_12  and  N_23
                            x       y       z     vdW  Elec       q    Type
                         _______ _______ _______ _____ _____    ______ ____

>  <TORSDO>
F 4

$$$$
=
 OpenBabel11032419193D

 25 28  0  0  1  0  0  0  0  0999 V2000
  186.9110  177.8790  144.0640 N   0  0  0  0  0  0  0  0  0  0  0  0
  190.0890  177.3470  141.4510 C   0  0  0  0  0  3  0  0  0  0  0  0
  187.9620  177.7000  143.2240 C   0  0  0  0  0  0  0  0  0  0  0  0
  189.3340  177.1420  145.1330 C   0  0  0  0  0  0  0  0  0  0  0  0
  190.5560  176.7610  145.7580 N   0  0  0  0  0  1  0  0  0  0  0  0
  185.8780  177.9030  146.2970 C   0  0  0  0  0  1  0  0  0  0  0  0
  188.8350  177.7190  140.9590 C   0  0  0  0  0  0  0  0  0  0  0  0
  190.3020  177.1450  142.8170 C   0  0  0  0  0  0  0  0  0  0  0  0
  187.0450  177.7000  145.4000 C   0  0  0  0  0  0  0  0  0  0  0  0
  188.2430  177.3370  145.9200 N   0  0  0  0  0  0  0  0  0  0  0  0
  187.7760  177.8950  141.8540 C   0  0  0  0  0  3  0  0  0  0  0  0
  191.6810  176.7470  143.2260 C   0  0  0  0  0  1  0  0  0  0  0  0
  189.2290  177.3200  143.7320 C   0  0  0  0  0  0  0  0  0  0  0  0
  188.7090  179.5600  137.2180 N   0  0  0  0  0  2  0  0  0  0  0  0
  188.6310  177.9290  139.5120 C   0  0  0  0  0  0  0  0  0  0  0  0
  189.6360  177.6390  138.4560 C   0  0  2  0  0  3  0  0  0  0  0  0
  188.9430  178.1060  137.1740 C   0  0  1  0  0  3  0  0  0  0  0  0
  187.5700  178.4820  139.0370 N   0  0  0  0  0  0  0  0  0  0  0  0
  187.6300  178.6270  137.5900 C   0  0  1  0  0  3  0  0  0  0  0  0
  189.9430  176.1690  138.3770 C   0  0  0  0  0  0  0  0  0  0  0  0
  189.0120  175.3380  138.2030 O   0  0  0  0  0  0  0  0  0  0  0  0
  191.2830  175.6950  138.5110 N   0  0  0  0  0  2  0  0  0  0  0  0
  192.4110  176.5880  138.7190 C   0  0  0  0  0  2  0  0  0  0  0  0
  194.0770  176.3780  136.7070 N   0  0  0  0  0  0  0  0  0  0  0  0
  193.3410  176.4710  137.5960 C   0  0  0  0  0  0  0  0  0  0  0  0
  1  9  2  0  0  0  0
  2  8  1  0  0  0  0
  3 13  1  0  0  0  0
  3  1  1  0  0  0  0
  4  5  1  0  0  0  0
  4 10  2  0  0  0  0
  7  2  2  0  0  0  0
  7 11  1  0  0  0  0
  8 12  1  0  0  0  0
  8 13  2  0  0  0  0
  9 10  1  0  0  0  0
  9  6  1  0  0  0  0
 11  3  2  0  0  0  0
 13  4  1  0  0  0  0
 15  7  1  0  0  0  0
 16 20  1  6  0  0  0
 16 15  1  0  0  0  0
 17 14  1  1  0  0  0
 17 19  1  0  0  0  0
 17 16  1  0  0  0  0
 18 15  2  0  0  0  0
 19 14  1  1  0  0  0
 19 18  1  0  0  0  0
 20 22  1  0  0  0  0
 21 20  2  0  0  0  0
 22 23  1  0  0  0  0
 24 25  3  0  0  0  0
 25 23  1  0  0  0  0
M  END
>  <MODEL>
7

>  <REMARK>
 VINA RESULT:      -7.5      3.015      6.214
  Name = 
  4 active torsions:
  status: ('A' for Active; 'I' for Inactive)
    1  A    between atoms: C_4  and  C_11
    2  A    between atoms: C_5  and  C_10
    3  A    between atoms: C_12  and  C_22
    4  A    between atoms: C_12  and  N_23
                            x       y       z     vdW  Elec       q    Type
                         _______ _______ _______ _____ _____    ______ ____

>  <TORSDO>
F 4

$$$$
=
 OpenBabel11032419193D

 25 28  0  0  1  0  0  0  0  0999 V2000
  186.6410  178.1390  142.0290 N   0  0  0  0  0  0  0  0  0  0  0  0
  183.5210  178.6280  144.7190 C   0  0  0  0  0  3  0  0  0  0  0  0
  185.6330  178.2960  142.9240 C   0  0  0  0  0  0  0  0  0  0  0  0
  187.2140  177.8960  144.7070 C   0  0  0  0  0  0  0  0  0  0  0  0
  187.5840  177.7570  146.0760 N   0  0  0  0  0  1  0  0  0  0  0  0
  188.9890  177.7010  141.4380 C   0  0  0  0  0  1  0  0  0  0  0  0
  183.2850  178.7430  143.3460 C   0  0  0  0  0  0  0  0  0  0  0  0
  184.7970  178.3510  145.2150 C   0  0  0  0  0  0  0  0  0  0  0  0
  187.9040  177.8680  142.4390 C   0  0  0  0  0  0  0  0  0  0  0  0
  188.1780  177.7500  143.7620 N   0  0  0  0  0  0  0  0  0  0  0  0
  184.3480  178.5740  142.4550 C   0  0  0  0  0  3  0  0  0  0  0  0
  184.9300  178.2530  146.6980 C   0  0  0  0  0  1  0  0  0  0  0  0
  185.8820  178.1790  144.3140 C   0  0  0  0  0  0  0  0  0  0  0  0
  179.8570  180.8430  142.2290 N   0  0  0  0  0  2  0  0  0  0  0  0
  181.9280  179.0360  142.8420 C   0  0  0  0  0  0  0  0  0  0  0  0
  181.5790  179.2740  141.4170 C   0  0  2  0  0  3  0  0  0  0  0  0
  180.0840  179.5990  141.4730 C   0  0  1  0  0  3  0  0  0  0  0  0
  180.9210  179.2040  143.6260 N   0  0  0  0  0  0  0  0  0  0  0  0
  179.7080  179.5360  142.8940 C   0  0  1  0  0  3  0  0  0  0  0  0
  181.8140  178.0470  140.5800 C   0  0  0  0  0  0  0  0  0  0  0  0
  181.2080  176.9750  140.8450 O   0  0  0  0  0  0  0  0  0  0  0  0
  182.7350  178.0750  139.4880 N   0  0  0  0  0  2  0  0  0  0  0  0
  183.4760  179.2700  139.1220 C   0  0  0  0  0  2  0  0  0  0  0  0
  185.9600  178.6280  138.5850 N   0  0  0  0  0  0  0  0  0  0  0  0
  184.8630  178.9110  138.8220 C   0  0  0  0  0  0  0  0  0  0  0  0
  1  9  2  0  0  0  0
  1  3  1  0  0  0  0
  2  8  1  0  0  0  0
  3 13  1  0  0  0  0
  4  5  1  0  0  0  0
  6  9  1  0  0  0  0
  7  2  2  0  0  0  0
  8 12  1  0  0  0  0
  9 10  1  0  0  0  0
 10  4  2  0  0  0  0
 11  3  2  0  0  0  0
 11  7  1  0  0  0  0
 13  4  1  0  0  0  0
 13  8  2  0  0  0  0
 15  7  1  0  0  0  0
 15 18  2  0  0  0  0
 16 20  1  6  0  0  0
 16 17  1  0  0  0  0
 16 15  1  0  0  0  0
 17 14  1  1  0  0  0
 17 19  1  0  0  0  0
 19 14  1  1  0  0  0
 19 18  1  0  0  0  0
 20 21  2  0  0  0  0
 22 20  1  0  0  0  0
 23 22  1  0  0  0  0
 24 25  3  0  0  0  0
 25 23  1  0  0  0  0
M  END
>  <MODEL>
8

>  <REMARK>
 VINA RESULT:      -7.4      3.434      7.346
  Name = 
  4 active torsions:
  status: ('A' for Active; 'I' for Inactive)
    1  A    between atoms: C_4  and  C_11
    2  A    between atoms: C_5  and  C_10
    3  A    between atoms: C_12  and  C_22
    4  A    between atoms: C_12  and  N_23
                            x       y       z     vdW  Elec       q    Type
                         _______ _______ _______ _____ _____    ______ ____

>  <TORSDO>
F 4

$$$$
=
 OpenBabel11032419193D

 25 28  0  0  1  0  0  0  0  0999 V2000
  190.3500  177.2080  143.8220 N   0  0  0  0  0  0  0  0  0  0  0  0
  186.9420  178.1530  141.6530 C   0  0  0  0  0  3  0  0  0  0  0  0
  189.2250  177.5170  143.1290 C   0  0  0  0  0  0  0  0  0  0  0  0
  188.0020  177.5410  145.2130 C   0  0  0  0  0  0  0  0  0  0  0  0
  186.8250  177.6980  145.9990 N   0  0  0  0  0  1  0  0  0  0  0  0
  191.5710  176.7250  145.9020 C   0  0  0  0  0  1  0  0  0  0  0  0
  188.1620  177.9760  140.9950 C   0  0  0  0  0  0  0  0  0  0  0  0
  186.8400  178.0210  143.0400 C   0  0  0  0  0  0  0  0  0  0  0  0
  190.3240  177.0640  145.1680 C   0  0  0  0  0  0  0  0  0  0  0  0
  189.1620  177.2300  145.8480 N   0  0  0  0  0  0  0  0  0  0  0  0
  189.2990  177.6560  141.7410 C   0  0  0  0  0  3  0  0  0  0  0  0
  185.4870  178.2350  143.6330 C   0  0  0  0  0  1  0  0  0  0  0  0
  187.9920  177.6980  143.8050 C   0  0  0  0  0  0  0  0  0  0  0  0
  188.7750  179.6470  137.2220 N   0  0  0  0  0  2  0  0  0  0  0  0
  188.2490  178.1180  139.5280 C   0  0  0  0  0  0  0  0  0  0  0  0
  189.4450  177.7950  138.7070 C   0  0  2  0  0  3  0  0  0  0  0  0
  189.0180  178.1960  137.2930 C   0  0  1  0  0  3  0  0  0  0  0  0
  187.3020  178.6360  138.8270 N   0  0  0  0  0  0  0  0  0  0  0  0
  187.6470  178.7180  137.4160 C   0  0  1  0  0  3  0  0  0  0  0  0
  189.7670  176.3270  138.7580 C   0  0  0  0  0  0  0  0  0  0  0  0
  188.8470  175.4740  138.6440 O   0  0  0  0  0  0  0  0  0  0  0  0
  191.1100  175.8810  138.9490 N   0  0  0  0  0  2  0  0  0  0  0  0
  192.2260  176.8010  139.0940 C   0  0  0  0  0  2  0  0  0  0  0  0
  193.9470  176.4010  137.1590 N   0  0  0  0  0  0  0  0  0  0  0  0
  193.1870  176.5770  138.0130 C   0  0  0  0  0  0  0  0  0  0  0  0
  1  9  2  0  0  0  0
  2  8  1  0  0  0  0
  3 13  1  0  0  0  0
  3  1  1  0  0  0  0
  4 10  2  0  0  0  0
  4  5  1  0  0  0  0
  7  2  2  0  0  0  0
  7 11  1  0  0  0  0
  8 12  1  0  0  0  0
  8 13  2  0  0  0  0
  9 10  1  0  0  0  0
  9  6  1  0  0  0  0
 11  3  2  0  0  0  0
 13  4  1  0  0  0  0
 15  7  1  0  0  0  0
 16 20  1  6  0  0  0
 16 15  1  0  0  0  0
 17 14  1  1  0  0  0
 17 19  1  0  0  0  0
 17 16  1  0  0  0  0
 18 15  2  0  0  0  0
 19 14  1  1  0  0  0
 19 18  1  0  0  0  0
 20 22  1  0  0  0  0
 21 20  2  0  0  0  0
 22 23  1  0  0  0  0
 24 25  3  0  0  0  0
 25 23  1  0  0  0  0
M  END
>  <MODEL>
9

>  <REMARK>
 VINA RESULT:      -7.3      2.951      6.037
  Name = 
  4 active torsions:
  status: ('A' for Active; 'I' for Inactive)
    1  A    between atoms: C_4  and  C_11
    2  A    between atoms: C_5  and  C_10
    3  A    between atoms: C_12  and  C_22
    4  A    between atoms: C_12  and  N_23
                            x       y       z     vdW  Elec       q    Type
                         _______ _______ _______ _____ _____    ______ ____

>  <TORSDO>
F 4

$$$$
