=
 OpenBabel11042412483D

 58 65  0  0  1  0  0  0  0  0999 V2000
  185.6360  178.4920  140.2390 C   0  0  0  0  0  0  0  0  0  0  0  0
  183.8990  177.2170  137.9610 C   0  0  0  0  0  0  0  0  0  0  0  0
  183.7060  177.1360  139.2930 C   0  0  0  0  0  0  0  0  0  0  0  0
  186.0250  178.6100  137.7530 C   0  0  0  0  0  0  0  0  0  0  0  0
  184.6070  177.6560  140.3250 C   0  0  0  0  0  3  0  0  0  0  0  0
  185.0630  177.8160  137.2950 C   0  0  0  0  0  3  0  0  0  0  0  0
  186.1160  179.0780  139.0680 O   0  0  0  0  0  0  0  0  0  0  0  0
  180.3390  179.2190  136.5050 C   0  0  0  0  0  3  0  0  0  0  0  0
  181.7770  177.2700  136.5660 C   0  0  0  0  0  0  0  0  0  0  0  0
  181.5120  178.5970  136.9290 C   0  0  0  0  0  3  0  0  0  0  0  0
  181.0510  175.2380  135.3850 C   0  0  0  0  0  0  0  0  0  0  0  0
  182.6850  173.2550  135.6770 C   0  0  1  0  0  3  0  0  0  0  0  0
  181.4800  172.3510  135.8390 C   0  0  0  0  0  2  0  0  0  0  0  0
  183.0970  175.2640  136.6310 C   0  0  0  0  0  0  0  0  0  0  0  0
  180.8240  176.5820  135.7540 C   0  0  0  0  0  0  0  0  0  0  0  0
  182.2400  174.6520  135.8050 C   0  0  0  0  0  0  0  0  0  0  0  0
  179.4280  178.5080  135.7220 C   0  0  0  0  0  3  0  0  0  0  0  0
  184.0110  174.3070  137.1090 N   0  0  0  0  0  2  0  0  0  0  0  0
  182.9330  176.5910  137.0330 C   0  0  0  0  0  0  0  0  0  0  0  0
  179.6840  177.2200  135.3690 N   0  0  0  0  0  0  0  0  0  0  0  0
  179.7590  174.2390  134.6000 S   0  0  0  0  0  0  0  0  0  0  0  0
  183.6600  173.0480  136.6990 O   0  0  0  0  0  0  0  0  0  0  0  0
  180.5580  172.5700  134.6410 C   0  0  2  0  0  3  0  0  0  0  0  0
  179.4980  171.4800  134.6150 C   0  0  0  0  0  2  0  0  0  0  0  0
  178.9570  171.1990  136.0080 C   0  0  0  0  0  2  0  0  0  0  0  0
  178.9310  169.7660  136.2550 N   0  0  0  0  0  1  0  0  0  0  0  0
  186.9790  179.0210  136.8160 O   0  0  0  0  0  0  0  0  0  0  0  0
  189.2080  179.7690  137.4430 O   0  0  0  0  0  1  0  0  0  0  0  0
  188.8330  177.6970  136.5590 O   0  0  0  0  0  0  0  0  0  0  0  0
  188.3560  178.8020  136.9250 C   0  0  0  0  0  0  0  0  0  0  0  0
  182.4950  176.4320  139.8440 C   0  0  0  0  0  2  0  0  0  0  0  0
  181.4100  177.3960  140.2070 C   0  0  0  0  0  0  0  0  0  0  0  0
  181.7420  178.6380  140.5870 C   0  0  0  0  0  3  0  0  0  0  0  0
  178.9310  182.4250  140.1640 O   0  0  0  0  0  0  0  0  0  0  0  0
  179.0920  180.8510  141.8830 O   0  0  0  0  0  0  0  0  0  0  0  0
  180.8130  179.6720  140.9480 N   0  0  0  0  0  0  0  0  0  0  0  0
  180.4850  180.6930  140.0920 O   0  0  0  0  0  0  0  0  0  0  0  0
  179.4610  181.4020  140.6690 C   0  0  0  0  0  0  0  0  0  0  0  0
  179.9230  179.7110  142.1120 C   0  0  0  0  0  2  0  0  0  0  0  0
  178.9640  176.5160  140.2380 N   0  0  0  0  0  0  0  0  0  0  0  0
  180.0530  176.9090  140.2210 C   0  0  0  0  0  0  0  0  0  0  0  0
  186.4500  178.9350  141.7690 S   0  0  0  0  0  0  0  0  0  0  0  0
  187.6950  177.6200  141.6000 C   0  0  0  0  0  2  0  0  0  0  0  0
  189.0910  178.2140  141.6540 C   0  0  0  0  0  2  0  0  0  0  0  0
  191.9650  176.0460  146.0040 F   0  0  0  0  0  0  0  0  0  0  0  0
  189.8450  177.6470  142.8070 C   0  0  0  0  0  0  0  0  0  0  0  0
  191.7290  176.4020  143.6770 C   0  0  0  0  0  3  0  0  0  0  0  0
  190.0570  177.2990  145.2040 C   0  0  0  0  0  0  0  0  0  0  0  0
  191.2540  176.5820  144.9800 C   0  0  0  0  0  0  0  0  0  0  0  0
  189.3650  177.8250  144.1060 C   0  0  0  0  0  3  0  0  0  0  0  0
  191.0270  176.9310  142.5920 C   0  0  0  0  0  3  0  0  0  0  0  0
  189.5120  177.5090  146.4770 O   0  0  0  0  0  0  0  0  0  0  0  0
  188.5590  176.6500  147.0900 C   0  0  0  0  0  2  0  0  0  0  0  0
  187.6690  177.4520  148.0220 C   0  0  0  0  0  2  0  0  0  0  0  0
  186.9350  178.5400  147.2520 C   0  0  0  0  0  2  0  0  0  0  0  0
  185.7220  178.0000  146.6590 N   0  0  0  0  0  0  0  0  0  0  0  0
  185.0570  179.1220  145.9780 C   0  0  0  0  0  2  0  0  0  0  0  0
  185.8450  178.1740  145.2030 C   0  0  0  0  0  2  0  0  0  0  0  0
  1  5  2  0  0  0  0
  1 42  1  0  0  0  0
  2  3  2  0  0  0  0
  3 31  1  0  0  0  0
  3  5  1  0  0  0  0
  4  7  1  0  0  0  0
  6  4  2  0  0  0  0
  6  2  1  0  0  0  0
  7  1  1  0  0  0  0
  8 10  1  0  0  0  0
  9 10  2  0  0  0  0
  9 19  1  0  0  0  0
 11 15  1  0  0  0  0
 11 16  2  0  0  0  0
 12 16  1  0  0  0  0
 12 13  1  1  0  0  0
 12 22  1  0  0  0  0
 14 19  2  0  0  0  0
 14 18  1  0  0  0  0
 15  9  1  0  0  0  0
 16 14  1  0  0  0  0
 17  8  2  0  0  0  0
 19  2  1  0  0  0  0
 20 17  1  0  0  0  0
 20 15  2  0  0  0  0
 21 23  1  0  0  0  0
 21 11  1  0  0  0  0
 22 18  1  0  0  0  0
 23 24  1  1  0  0  0
 23 13  1  0  0  0  0
 24 25  1  0  0  0  0
 25 26  1  0  0  0  0
 27 30  1  0  0  0  0
 27  4  1  0  0  0  0
 29 30  2  0  0  0  0
 30 28  1  0  0  0  0
 31 32  1  0  0  0  0
 32 41  1  0  0  0  0
 32 33  2  0  0  0  0
 33 36  1  0  0  0  0
 34 38  2  0  0  0  0
 35 39  1  0  0  0  0
 36 39  1  0  0  0  0
 37 38  1  0  0  0  0
 37 36  1  0  0  0  0
 38 35  1  0  0  0  0
 41 40  3  0  0  0  0
 43 44  1  0  0  0  0
 43 42  1  0  0  0  0
 44 46  1  0  0  0  0
 46 50  1  0  0  0  0
 47 49  2  0  0  0  0
 48 52  1  0  0  0  0
 49 48  1  0  0  0  0
 49 45  1  0  0  0  0
 50 48  2  0  0  0  0
 51 46  2  0  0  0  0
 51 47  1  0  0  0  0
 52 53  1  0  0  0  0
 53 54  1  0  0  0  0
 55 54  1  0  0  0  0
 56 55  1  0  0  0  0
 57 56  1  0  0  0  0
 58 57  1  0  0  0  0
 58 56  1  0  0  0  0
M  END
>  <MODEL>
1

>  <REMARK>
 VINA RESULT:      -6.3      0.000      0.000
  Name = 
  18 active torsions:
  status: ('A' for Active; 'I' for Inactive)
    1  A    between atoms: C_2  and  C_26
    2  A    between atoms: C_2  and  O_36
    3  A    between atoms: N_3  and  C_8
    4  A    between atoms: C_7  and  S_31
    5  A    between atoms: C_8  and  C_26
    6  A    between atoms: C_10  and  C_32
    7  A    between atoms: C_10  and  C_37
    8  A    between atoms: C_11  and  C_54
    9  A    between atoms: C_13  and  N_44
   10  A    between atoms: C_19  and  C_29
   11  A    between atoms: C_22  and  C_29
   12  A    between atoms: C_22  and  S_31
   13  A    between atoms: C_23  and  O_47
   14  A    between atoms: C_27  and  C_43
   15  A    between atoms: C_32  and  C_35
   16  A    between atoms: C_33  and  O_36
   17  A    between atoms: C_38  and  O_47
   18  A    between atoms: C_54  and  C_58
                            x       y       z     vdW  Elec       q    Type
                         _______ _______ _______ _____ _____    ______ ____

>  <TORSDO>
F 18

$$$$
=
 OpenBabel11042412483D

 58 65  0  0  1  0  0  0  0  0999 V2000
  188.2010  178.2400  140.6220 C   0  0  0  0  0  0  0  0  0  0  0  0
  189.9520  176.4270  138.7560 C   0  0  0  0  0  0  0  0  0  0  0  0
  189.0150  177.3270  138.3940 C   0  0  0  0  0  0  0  0  0  0  0  0
  189.9190  176.5300  141.3050 C   0  0  0  0  0  0  0  0  0  0  0  0
  188.1420  178.0720  139.3050 C   0  0  0  0  0  3  0  0  0  0  0  0
  190.2530  176.0050  140.1300 C   0  0  0  0  0  3  0  0  0  0  0  0
  189.1610  177.6930  141.4730 O   0  0  0  0  0  0  0  0  0  0  0  0
  188.4110  172.9970  136.5980 C   0  0  0  0  0  3  0  0  0  0  0  0
  190.1920  174.5830  137.0270 C   0  0  0  0  0  0  0  0  0  0  0  0
  188.8840  174.1330  137.2520 C   0  0  0  0  0  3  0  0  0  0  0  0
  192.3450  174.2700  135.8780 C   0  0  0  0  0  0  0  0  0  0  0  0
  194.1270  176.0120  136.5690 C   0  0  1  0  0  3  0  0  0  0  0  0
  195.1450  174.8900  136.5870 C   0  0  0  0  0  2  0  0  0  0  0  0
  192.0420  176.0580  137.4430 C   0  0  0  0  0  0  0  0  0  0  0  0
  191.0160  173.8550  136.1150 C   0  0  0  0  0  0  0  0  0  0  0  0
  192.7800  175.4190  136.5280 C   0  0  0  0  0  0  0  0  0  0  0  0
  189.2520  172.3070  135.7230 C   0  0  0  0  0  3  0  0  0  0  0  0
  192.8720  176.9640  138.1290 N   0  0  0  0  0  2  0  0  0  0  0  0
  190.7210  175.7010  137.7230 C   0  0  0  0  0  0  0  0  0  0  0  0
  190.5220  172.7420  135.5030 N   0  0  0  0  0  0  0  0  0  0  0  0
  193.5120  173.2350  134.9560 S   0  0  0  0  0  0  0  0  0  0  0  0
  194.1800  176.8110  137.7500 O   0  0  0  0  0  0  0  0  0  0  0  0
  195.0830  174.1710  135.2400 C   0  0  2  0  0  3  0  0  0  0  0  0
  196.2790  173.2410  135.1100 C   0  0  0  0  0  2  0  0  0  0  0  0
  196.1100  171.9970  135.9670 C   0  0  0  0  0  2  0  0  0  0  0  0
  196.0800  170.8100  135.1280 N   0  0  0  0  0  1  0  0  0  0  0  0
  190.4130  175.8680  142.4350 O   0  0  0  0  0  0  0  0  0  0  0  0
  191.9310  177.6240  143.1640 O   0  0  0  0  0  0  0  0  0  0  0  0
  192.0520  175.5000  143.9940 O   0  0  0  0  0  1  0  0  0  0  0  0
  191.4860  176.3090  143.2160 C   0  0  0  0  0  0  0  0  0  0  0  0
  188.7620  177.6170  136.9390 C   0  0  0  0  0  2  0  0  0  0  0  0
  187.3240  177.4220  136.5760 C   0  0  0  0  0  0  0  0  0  0  0  0
  186.6110  176.4870  137.2180 C   0  0  0  0  0  3  0  0  0  0  0  0
  181.8980  176.8270  137.5220 O   0  0  0  0  0  0  0  0  0  0  0  0
  183.2290  175.6070  136.0400 O   0  0  0  0  0  0  0  0  0  0  0  0
  185.2230  176.1990  136.9900 N   0  0  0  0  0  0  0  0  0  0  0  0
  184.2200  176.8260  137.6850 O   0  0  0  0  0  0  0  0  0  0  0  0
  183.0280  176.4540  137.1150 C   0  0  0  0  0  0  0  0  0  0  0  0
  184.6380  175.4170  135.8960 C   0  0  0  0  0  2  0  0  0  0  0  0
  186.3790  178.8130  134.5940 N   0  0  0  0  0  0  0  0  0  0  0  0
  186.7960  178.1920  135.4780 C   0  0  0  0  0  0  0  0  0  0  0  0
  186.9600  179.2960  141.3600 S   0  0  0  0  0  0  0  0  0  0  0  0
  185.5990  178.1780  140.9050 C   0  0  0  0  0  2  0  0  0  0  0  0
  184.3600  178.9810  140.5520 C   0  0  0  0  0  2  0  0  0  0  0  0
  180.6570  178.8640  144.8120 F   0  0  0  0  0  0  0  0  0  0  0  0
  183.3900  178.9480  141.6820 C   0  0  0  0  0  0  0  0  0  0  0  0
  181.1100  178.8890  142.4910 C   0  0  0  0  0  3  0  0  0  0  0  0
  182.9600  178.9240  144.0740 C   0  0  0  0  0  0  0  0  0  0  0  0
  181.5710  178.8890  143.8110 C   0  0  0  0  0  0  0  0  0  0  0  0
  183.8550  178.9530  142.9980 C   0  0  0  0  0  3  0  0  0  0  0  0
  182.0140  178.9190  141.4280 C   0  0  0  0  0  3  0  0  0  0  0  0
  183.4970  178.9410  145.3680 O   0  0  0  0  0  0  0  0  0  0  0  0
  184.5910  178.1370  145.7900 C   0  0  0  0  0  2  0  0  0  0  0  0
  185.6880  179.0200  146.3580 C   0  0  0  0  0  2  0  0  0  0  0  0
  186.9570  178.2130  146.5850 C   0  0  0  0  0  2  0  0  0  0  0  0
  187.7300  178.1400  145.3550 N   0  0  0  0  0  0  0  0  0  0  0  0
  189.1460  178.1900  145.7500 C   0  0  0  0  0  2  0  0  0  0  0  0
  188.5340  176.9080  145.4290 C   0  0  0  0  0  2  0  0  0  0  0  0
  1 42  1  0  0  0  0
  1  7  1  0  0  0  0
  2  6  1  0  0  0  0
  3  2  2  0  0  0  0
  3  5  1  0  0  0  0
  4  7  1  0  0  0  0
  4 27  1  0  0  0  0
  5  1  2  0  0  0  0
  6  4  2  0  0  0  0
  8 10  1  0  0  0  0
  9 10  2  0  0  0  0
  9 19  1  0  0  0  0
 11 15  1  0  0  0  0
 11 16  2  0  0  0  0
 12 13  1  1  0  0  0
 12 22  1  0  0  0  0
 14 19  2  0  0  0  0
 14 18  1  0  0  0  0
 15  9  1  0  0  0  0
 16 12  1  0  0  0  0
 16 14  1  0  0  0  0
 17  8  2  0  0  0  0
 19  2  1  0  0  0  0
 20 17  1  0  0  0  0
 20 15  2  0  0  0  0
 21 23  1  0  0  0  0
 21 11  1  0  0  0  0
 22 18  1  0  0  0  0
 23 24  1  1  0  0  0
 23 13  1  0  0  0  0
 24 25  1  0  0  0  0
 26 25  1  0  0  0  0
 27 30  1  0  0  0  0
 28 30  2  0  0  0  0
 30 29  1  0  0  0  0
 31  3  1  0  0  0  0
 32 31  1  0  0  0  0
 32 33  2  0  0  0  0
 35 38  1  0  0  0  0
 36 33  1  0  0  0  0
 36 37  1  0  0  0  0
 38 34  2  0  0  0  0
 38 37  1  0  0  0  0
 39 35  1  0  0  0  0
 39 36  1  0  0  0  0
 40 41  3  0  0  0  0
 41 32  1  0  0  0  0
 43 42  1  0  0  0  0
 44 43  1  0  0  0  0
 44 46  1  0  0  0  0
 46 50  1  0  0  0  0
 47 49  2  0  0  0  0
 48 52  1  0  0  0  0
 49 48  1  0  0  0  0
 49 45  1  0  0  0  0
 50 48  2  0  0  0  0
 51 46  2  0  0  0  0
 51 47  1  0  0  0  0
 52 53  1  0  0  0  0
 53 54  1  0  0  0  0
 54 55  1  0  0  0  0
 56 58  1  0  0  0  0
 56 57  1  0  0  0  0
 56 55  1  0  0  0  0
 58 57  1  0  0  0  0
M  END
>  <MODEL>
2

>  <REMARK>
 VINA RESULT:      -6.0      5.063      8.898
  Name = 
  18 active torsions:
  status: ('A' for Active; 'I' for Inactive)
    1  A    between atoms: C_2  and  C_26
    2  A    between atoms: C_2  and  O_36
    3  A    between atoms: N_3  and  C_8
    4  A    between atoms: C_7  and  S_31
    5  A    between atoms: C_8  and  C_26
    6  A    between atoms: C_10  and  C_32
    7  A    between atoms: C_10  and  C_37
    8  A    between atoms: C_11  and  C_54
    9  A    between atoms: C_13  and  N_44
   10  A    between atoms: C_19  and  C_29
   11  A    between atoms: C_22  and  C_29
   12  A    between atoms: C_22  and  S_31
   13  A    between atoms: C_23  and  O_47
   14  A    between atoms: C_27  and  C_43
   15  A    between atoms: C_32  and  C_35
   16  A    between atoms: C_33  and  O_36
   17  A    between atoms: C_38  and  O_47
   18  A    between atoms: C_54  and  C_58
                            x       y       z     vdW  Elec       q    Type
                         _______ _______ _______ _____ _____    ______ ____

>  <TORSDO>
F 18

$$$$
=
 OpenBabel11042412483D

 58 65  0  0  1  0  0  0  0  0999 V2000
  187.7880  177.9080  139.4140 C   0  0  0  0  0  0  0  0  0  0  0  0
  189.8290  176.1100  137.8530 C   0  0  0  0  0  0  0  0  0  0  0  0
  188.6260  176.5530  137.4330 C   0  0  0  0  0  0  0  0  0  0  0  0
  190.0140  177.0450  140.2180 C   0  0  0  0  0  0  0  0  0  0  0  0
  187.6570  177.3000  138.2390 C   0  0  0  0  0  3  0  0  0  0  0  0
  190.3790  176.2670  139.2050 C   0  0  0  0  0  3  0  0  0  0  0  0
  188.9490  177.9520  140.1850 O   0  0  0  0  0  0  0  0  0  0  0  0
  188.6740  172.2410  136.2690 C   0  0  0  0  0  3  0  0  0  0  0  0
  190.2790  174.0490  136.4380 C   0  0  0  0  0  0  0  0  0  0  0  0
  189.0210  173.5090  136.7340 C   0  0  0  0  0  3  0  0  0  0  0  0
  192.4690  173.7810  135.3490 C   0  0  0  0  0  0  0  0  0  0  0  0
  194.0550  175.7830  135.7520 C   0  0  1  0  0  3  0  0  0  0  0  0
  195.1810  174.7880  135.9450 C   0  0  0  0  0  2  0  0  0  0  0  0
  191.9640  175.7530  136.6110 C   0  0  0  0  0  0  0  0  0  0  0  0
  191.1860  173.2740  135.6510 C   0  0  0  0  0  0  0  0  0  0  0  0
  192.7760  175.0570  135.8080 C   0  0  0  0  0  0  0  0  0  0  0  0
  189.5930  171.5120  135.5130 C   0  0  0  0  0  3  0  0  0  0  0  0
  192.6880  176.8360  137.1430 N   0  0  0  0  0  2  0  0  0  0  0  0
  190.6820  175.3120  136.9470 C   0  0  0  0  0  0  0  0  0  0  0  0
  190.8150  172.0350  135.2250 N   0  0  0  0  0  0  0  0  0  0  0  0
  193.7480  172.7380  134.6010 S   0  0  0  0  0  0  0  0  0  0  0  0
  194.0100  176.7600  136.7910 O   0  0  0  0  0  0  0  0  0  0  0  0
  195.2120  173.8630  134.7300 C   0  0  2  0  0  3  0  0  0  0  0  0
  196.4980  173.0510  134.7470 C   0  0  0  0  0  2  0  0  0  0  0  0
  197.4990  173.6190  135.7390 C   0  0  0  0  0  2  0  0  0  0  0  0
  198.4740  172.6040  136.1050 N   0  0  0  0  0  1  0  0  0  0  0  0
  190.7970  176.9560  141.3740 O   0  0  0  0  0  0  0  0  0  0  0  0
  190.0100  177.4190  143.6300 O   0  0  0  0  0  1  0  0  0  0  0  0
  190.2030  175.2880  142.8300 O   0  0  0  0  0  0  0  0  0  0  0  0
  190.3370  176.5210  142.6220 C   0  0  0  0  0  0  0  0  0  0  0  0
  188.1550  176.2620  136.0340 C   0  0  0  0  0  2  0  0  0  0  0  0
  186.6840  175.9920  135.9880 C   0  0  0  0  0  0  0  0  0  0  0  0
  186.2040  174.8950  136.5900 C   0  0  0  0  0  3  0  0  0  0  0  0
  182.3090  172.2390  136.1470 O   0  0  0  0  0  0  0  0  0  0  0  0
  182.6320  174.2690  137.2570 O   0  0  0  0  0  0  0  0  0  0  0  0
  184.8200  174.5160  136.6430 N   0  0  0  0  0  0  0  0  0  0  0  0
  184.3640  173.3330  136.1190 O   0  0  0  0  0  0  0  0  0  0  0  0
  183.0470  173.2010  136.4820 C   0  0  0  0  0  0  0  0  0  0  0  0
  183.7460  175.1500  137.4130 C   0  0  0  0  0  2  0  0  0  0  0  0
  185.1920  177.6000  134.5940 N   0  0  0  0  0  0  0  0  0  0  0  0
  185.8600  176.8840  135.2120 C   0  0  0  0  0  0  0  0  0  0  0  0
  186.3570  178.7800  140.0390 S   0  0  0  0  0  0  0  0  0  0  0  0
  186.5100  178.0420  141.6950 C   0  0  0  0  0  2  0  0  0  0  0  0
  185.2460  178.2940  142.4970 C   0  0  0  0  0  2  0  0  0  0  0  0
  186.4520  178.6350  148.0030 F   0  0  0  0  0  0  0  0  0  0  0  0
  185.5700  178.3770  143.9490 C   0  0  0  0  0  0  0  0  0  0  0  0
  185.0800  179.2150  146.1660 C   0  0  0  0  0  3  0  0  0  0  0  0
  187.0010  177.7600  145.8150 C   0  0  0  0  0  0  0  0  0  0  0  0
  186.1860  178.5300  146.6770 C   0  0  0  0  0  0  0  0  0  0  0  0
  186.6780  177.6940  144.4540 C   0  0  0  0  0  3  0  0  0  0  0  0
  184.7710  179.1410  144.8060 C   0  0  0  0  0  3  0  0  0  0  0  0
  188.1330  177.0590  146.2500 O   0  0  0  0  0  0  0  0  0  0  0  0
  188.4630  176.8410  147.6150 C   0  0  0  0  0  2  0  0  0  0  0  0
  189.9300  177.1600  147.8450 C   0  0  0  0  0  2  0  0  0  0  0  0
  190.6730  177.2360  146.5200 C   0  0  0  0  0  2  0  0  0  0  0  0
  192.0540  176.8180  146.6970 N   0  0  0  0  0  0  0  0  0  0  0  0
  192.0400  175.7530  147.7110 C   0  0  0  0  0  2  0  0  0  0  0  0
  192.1260  175.4030  146.3000 C   0  0  0  0  0  2  0  0  0  0  0  0
  1 42  1  0  0  0  0
  1  7  1  0  0  0  0
  2  6  1  0  0  0  0
  3  2  2  0  0  0  0
  3  5  1  0  0  0  0
  4 27  1  0  0  0  0
  5  1  2  0  0  0  0
  6  4  2  0  0  0  0
  7  4  1  0  0  0  0
  8 10  1  0  0  0  0
  9 10  2  0  0  0  0
  9 19  1  0  0  0  0
 11 15  1  0  0  0  0
 11 16  2  0  0  0  0
 12 16  1  0  0  0  0
 12 13  1  1  0  0  0
 12 22  1  0  0  0  0
 14 19  2  0  0  0  0
 14 18  1  0  0  0  0
 15  9  1  0  0  0  0
 16 14  1  0  0  0  0
 17  8  2  0  0  0  0
 19  2  1  0  0  0  0
 20 17  1  0  0  0  0
 20 15  2  0  0  0  0
 21 23  1  0  0  0  0
 21 11  1  0  0  0  0
 22 18  1  0  0  0  0
 23 24  1  1  0  0  0
 23 13  1  0  0  0  0
 24 25  1  0  0  0  0
 25 26  1  0  0  0  0
 27 30  1  0  0  0  0
 30 29  2  0  0  0  0
 30 28  1  0  0  0  0
 31  3  1  0  0  0  0
 32 31  1  0  0  0  0
 32 33  2  0  0  0  0
 33 36  1  0  0  0  0
 34 38  2  0  0  0  0
 35 39  1  0  0  0  0
 36 39  1  0  0  0  0
 37 38  1  0  0  0  0
 37 36  1  0  0  0  0
 38 35  1  0  0  0  0
 40 41  3  0  0  0  0
 41 32  1  0  0  0  0
 42 43  1  0  0  0  0
 43 44  1  0  0  0  0
 44 46  1  0  0  0  0
 46 50  2  0  0  0  0
 46 51  1  0  0  0  0
 47 49  1  0  0  0  0
 48 52  1  0  0  0  0
 48 49  2  0  0  0  0
 49 45  1  0  0  0  0
 50 48  1  0  0  0  0
 51 47  2  0  0  0  0
 52 53  1  0  0  0  0
 53 54  1  0  0  0  0
 55 56  1  0  0  0  0
 55 54  1  0  0  0  0
 56 57  1  0  0  0  0
 58 56  1  0  0  0  0
 58 57  1  0  0  0  0
M  END
>  <MODEL>
3

>  <REMARK>
 VINA RESULT:      -5.9      5.074      8.898
  Name = 
  18 active torsions:
  status: ('A' for Active; 'I' for Inactive)
    1  A    between atoms: C_2  and  C_26
    2  A    between atoms: C_2  and  O_36
    3  A    between atoms: N_3  and  C_8
    4  A    between atoms: C_7  and  S_31
    5  A    between atoms: C_8  and  C_26
    6  A    between atoms: C_10  and  C_32
    7  A    between atoms: C_10  and  C_37
    8  A    between atoms: C_11  and  C_54
    9  A    between atoms: C_13  and  N_44
   10  A    between atoms: C_19  and  C_29
   11  A    between atoms: C_22  and  C_29
   12  A    between atoms: C_22  and  S_31
   13  A    between atoms: C_23  and  O_47
   14  A    between atoms: C_27  and  C_43
   15  A    between atoms: C_32  and  C_35
   16  A    between atoms: C_33  and  O_36
   17  A    between atoms: C_38  and  O_47
   18  A    between atoms: C_54  and  C_58
                            x       y       z     vdW  Elec       q    Type
                         _______ _______ _______ _____ _____    ______ ____

>  <TORSDO>
F 18

$$$$
=
 OpenBabel11042412483D

 58 65  0  0  1  0  0  0  0  0999 V2000
  186.0540  178.1090  141.1200 C   0  0  0  0  0  0  0  0  0  0  0  0
  183.8830  178.7150  138.9400 C   0  0  0  0  0  0  0  0  0  0  0  0
  183.7010  178.5460  140.2660 C   0  0  0  0  0  0  0  0  0  0  0  0
  186.3930  178.3800  138.6390 C   0  0  0  0  0  0  0  0  0  0  0  0
  184.7300  178.1540  141.2310 C   0  0  0  0  0  3  0  0  0  0  0  0
  185.1420  178.5090  138.2120 C   0  0  0  0  0  3  0  0  0  0  0  0
  186.7890  178.4310  139.9800 O   0  0  0  0  0  0  0  0  0  0  0  0
  182.3900  176.0950  135.8240 C   0  0  0  0  0  3  0  0  0  0  0  0
  182.2630  178.1750  137.0600 C   0  0  0  0  0  0  0  0  0  0  0  0
  182.8350  176.9120  136.8620 C   0  0  0  0  0  3  0  0  0  0  0  0
  180.6310  179.8700  136.3410 C   0  0  0  0  0  0  0  0  0  0  0  0
  180.7480  182.0460  137.7330 C   0  0  1  0  0  3  0  0  0  0  0  0
  180.5770  182.8220  136.4430 C   0  0  0  0  0  2  0  0  0  0  0  0
  182.1120  180.2980  138.1750 C   0  0  0  0  0  0  0  0  0  0  0  0
  181.2180  178.5960  136.1800 C   0  0  0  0  0  0  0  0  0  0  0  0
  181.0820  180.6530  137.3990 C   0  0  0  0  0  0  0  0  0  0  0  0
  181.3750  176.5480  134.9800 C   0  0  0  0  0  3  0  0  0  0  0  0
  182.5120  181.4220  138.9210 N   0  0  0  0  0  2  0  0  0  0  0  0
  182.7360  179.0520  138.0710 C   0  0  0  0  0  0  0  0  0  0  0  0
  180.8190  177.7740  135.1700 N   0  0  0  0  0  0  0  0  0  0  0  0
  179.5100  180.5610  135.0960 S   0  0  0  0  0  0  0  0  0  0  0  0
  181.8280  182.5410  138.5250 O   0  0  0  0  0  0  0  0  0  0  0  0
  179.3340  182.2910  135.7310 C   0  0  2  0  0  3  0  0  0  0  0  0
  178.9640  183.2320  134.5940 C   0  0  0  0  0  2  0  0  0  0  0  0
  179.2300  184.6820  134.9660 C   0  0  0  0  0  2  0  0  0  0  0  0
  180.6310  185.0050  134.7520 N   0  0  0  0  0  1  0  0  0  0  0  0
  187.3670  178.2220  137.6470 O   0  0  0  0  0  0  0  0  0  0  0  0
  189.7700  177.9970  137.9610 O   0  0  0  0  0  1  0  0  0  0  0  0
  188.7990  180.0030  137.4630 O   0  0  0  0  0  0  0  0  0  0  0  0
  188.6510  178.7750  137.6900 C   0  0  0  0  0  0  0  0  0  0  0  0
  182.3350  178.7250  140.8730 C   0  0  0  0  0  2  0  0  0  0  0  0
  181.3700  177.6940  140.3820 C   0  0  0  0  0  0  0  0  0  0  0  0
  181.7710  176.4190  140.2860 C   0  0  0  0  0  3  0  0  0  0  0  0
  180.2990  172.7360  137.6990 O   0  0  0  0  0  0  0  0  0  0  0  0
  179.5660  173.5060  139.7790 O   0  0  0  0  0  0  0  0  0  0  0  0
  180.9540  175.3220  139.8480 N   0  0  0  0  0  0  0  0  0  0  0  0
  181.2030  174.6430  138.6830 O   0  0  0  0  0  0  0  0  0  0  0  0
  180.3560  173.5630  138.6450 C   0  0  0  0  0  0  0  0  0  0  0  0
  179.9200  174.6140  140.6100 C   0  0  0  0  0  2  0  0  0  0  0  0
  179.0280  178.4950  139.5870 N   0  0  0  0  0  0  0  0  0  0  0  0
  180.0720  178.1420  139.9420 C   0  0  0  0  0  0  0  0  0  0  0  0
  186.9730  177.6310  142.5780 S   0  0  0  0  0  0  0  0  0  0  0  0
  188.3830  178.7020  142.1580 C   0  0  0  0  0  2  0  0  0  0  0  0
  189.6870  177.9500  142.3580 C   0  0  0  0  0  2  0  0  0  0  0  0
  190.2640  176.4080  147.7590 F   0  0  0  0  0  0  0  0  0  0  0  0
  189.8310  177.5470  143.7850 C   0  0  0  0  0  0  0  0  0  0  0  0
  191.1880  176.6990  145.6010 C   0  0  0  0  0  3  0  0  0  0  0  0
  188.8510  177.2610  145.9910 C   0  0  0  0  0  0  0  0  0  0  0  0
  190.0950  176.7900  146.4690 C   0  0  0  0  0  0  0  0  0  0  0  0
  188.7360  177.6360  144.6470 C   0  0  0  0  0  3  0  0  0  0  0  0
  191.0580  177.0750  144.2630 C   0  0  0  0  0  3  0  0  0  0  0  0
  187.7080  177.3670  146.7950 O   0  0  0  0  0  0  0  0  0  0  0  0
  187.5420  178.3310  147.8260 C   0  0  0  0  0  2  0  0  0  0  0  0
  186.2120  179.0440  147.6520 C   0  0  0  0  0  2  0  0  0  0  0  0
  185.3850  178.3720  146.5660 C   0  0  0  0  0  2  0  0  0  0  0  0
  184.4810  179.3350  145.9590 N   0  0  0  0  0  0  0  0  0  0  0  0
  184.7740  179.3300  144.5170 C   0  0  0  0  0  2  0  0  0  0  0  0
  183.6270  178.5870  145.0210 C   0  0  0  0  0  2  0  0  0  0  0  0
  1  5  2  0  0  0  0
  1 42  1  0  0  0  0
  2  3  2  0  0  0  0
  3 31  1  0  0  0  0
  3  5  1  0  0  0  0
  4  7  1  0  0  0  0
  6  4  2  0  0  0  0
  6  2  1  0  0  0  0
  7  1  1  0  0  0  0
  8 10  1  0  0  0  0
  9 19  1  0  0  0  0
 10  9  2  0  0  0  0
 11 16  2  0  0  0  0
 12 13  1  6  0  0  0
 12 22  1  0  0  0  0
 14 18  1  0  0  0  0
 15 11  1  0  0  0  0
 15  9  1  0  0  0  0
 16 12  1  0  0  0  0
 16 14  1  0  0  0  0
 17 20  1  0  0  0  0
 17  8  2  0  0  0  0
 19 14  2  0  0  0  0
 19  2  1  0  0  0  0
 20 15  2  0  0  0  0
 21 23  1  0  0  0  0
 21 11  1  0  0  0  0
 22 18  1  0  0  0  0
 23 24  1  6  0  0  0
 23 13  1  0  0  0  0
 24 25  1  0  0  0  0
 26 25  1  0  0  0  0
 27 30  1  0  0  0  0
 27  4  1  0  0  0  0
 29 30  2  0  0  0  0
 30 28  1  0  0  0  0
 32 31  1  0  0  0  0
 33 32  2  0  0  0  0
 34 38  2  0  0  0  0
 35 39  1  0  0  0  0
 36 33  1  0  0  0  0
 36 39  1  0  0  0  0
 37 36  1  0  0  0  0
 38 37  1  0  0  0  0
 38 35  1  0  0  0  0
 40 41  3  0  0  0  0
 41 32  1  0  0  0  0
 43 44  1  0  0  0  0
 43 42  1  0  0  0  0
 44 46  1  0  0  0  0
 46 51  2  0  0  0  0
 46 50  1  0  0  0  0
 47 49  2  0  0  0  0
 48 49  1  0  0  0  0
 48 52  1  0  0  0  0
 49 45  1  0  0  0  0
 50 48  2  0  0  0  0
 51 47  1  0  0  0  0
 52 53  1  0  0  0  0
 54 53  1  0  0  0  0
 55 54  1  0  0  0  0
 56 55  1  0  0  0  0
 57 58  1  0  0  0  0
 57 56  1  0  0  0  0
 58 56  1  0  0  0  0
M  END
>  <MODEL>
4

>  <REMARK>
 VINA RESULT:      -5.9      2.468      5.230
  Name = 
  18 active torsions:
  status: ('A' for Active; 'I' for Inactive)
    1  A    between atoms: C_2  and  C_26
    2  A    between atoms: C_2  and  O_36
    3  A    between atoms: N_3  and  C_8
    4  A    between atoms: C_7  and  S_31
    5  A    between atoms: C_8  and  C_26
    6  A    between atoms: C_10  and  C_32
    7  A    between atoms: C_10  and  C_37
    8  A    between atoms: C_11  and  C_54
    9  A    between atoms: C_13  and  N_44
   10  A    between atoms: C_19  and  C_29
   11  A    between atoms: C_22  and  C_29
   12  A    between atoms: C_22  and  S_31
   13  A    between atoms: C_23  and  O_47
   14  A    between atoms: C_27  and  C_43
   15  A    between atoms: C_32  and  C_35
   16  A    between atoms: C_33  and  O_36
   17  A    between atoms: C_38  and  O_47
   18  A    between atoms: C_54  and  C_58
                            x       y       z     vdW  Elec       q    Type
                         _______ _______ _______ _____ _____    ______ ____

>  <TORSDO>
F 18

$$$$
=
 OpenBabel11042412483D

 58 65  0  0  1  0  0  0  0  0999 V2000
  187.8750  178.0890  140.2190 C   0  0  0  0  0  0  0  0  0  0  0  0
  189.7820  176.3640  138.4250 C   0  0  0  0  0  0  0  0  0  0  0  0
  188.6730  177.0330  138.0490 C   0  0  0  0  0  0  0  0  0  0  0  0
  189.9210  176.8060  140.9330 C   0  0  0  0  0  0  0  0  0  0  0  0
  187.7500  177.7350  138.9440 C   0  0  0  0  0  3  0  0  0  0  0  0
  190.2570  176.1900  139.8030 C   0  0  0  0  0  3  0  0  0  0  0  0
  188.9790  177.8350  141.0320 O   0  0  0  0  0  0  0  0  0  0  0  0
  188.4710  172.7320  136.4520 C   0  0  0  0  0  3  0  0  0  0  0  0
  190.1370  174.4600  136.7820 C   0  0  0  0  0  0  0  0  0  0  0  0
  188.8680  173.9290  137.0450 C   0  0  0  0  0  3  0  0  0  0  0  0
  192.2960  174.2460  135.6200 C   0  0  0  0  0  0  0  0  0  0  0  0
  193.9540  176.1420  136.2040 C   0  0  1  0  0  3  0  0  0  0  0  0
  195.0500  175.0980  136.2610 C   0  0  0  0  0  2  0  0  0  0  0  0
  191.8800  176.0820  137.1030 C   0  0  0  0  0  0  0  0  0  0  0  0
  191.0030  173.7490  135.8940 C   0  0  0  0  0  0  0  0  0  0  0  0
  192.6540  175.4540  136.2100 C   0  0  0  0  0  0  0  0  0  0  0  0
  189.3500  172.0630  135.6000 C   0  0  0  0  0  3  0  0  0  0  0  0
  192.6500  177.0770  137.7340 N   0  0  0  0  0  2  0  0  0  0  0  0
  190.5910  175.6450  137.4170 C   0  0  0  0  0  0  0  0  0  0  0  0
  190.5830  172.5760  135.3430 N   0  0  0  0  0  0  0  0  0  0  0  0
  193.5250  173.2540  134.7330 S   0  0  0  0  0  0  0  0  0  0  0  0
  193.9610  176.9990  137.3450 O   0  0  0  0  0  0  0  0  0  0  0  0
  195.0270  174.3130  134.9520 C   0  0  2  0  0  3  0  0  0  0  0  0
  196.2860  173.4650  134.8500 C   0  0  0  0  0  2  0  0  0  0  0  0
  196.0340  172.0410  135.3170 C   0  0  0  0  0  2  0  0  0  0  0  0
  196.5040  171.8710  136.6830 N   0  0  0  0  0  1  0  0  0  0  0  0
  190.6090  176.3980  142.0810 O   0  0  0  0  0  0  0  0  0  0  0  0
  190.8130  176.5330  144.5020 O   0  0  0  0  0  1  0  0  0  0  0  0
  188.8290  176.0480  143.4810 O   0  0  0  0  0  0  0  0  0  0  0  0
  190.0520  176.3140  143.3610 C   0  0  0  0  0  0  0  0  0  0  0  0
  188.2650  177.0750  136.6010 C   0  0  0  0  0  2  0  0  0  0  0  0
  186.8270  176.7030  136.4190 C   0  0  0  0  0  0  0  0  0  0  0  0
  186.3210  175.6890  137.1350 C   0  0  0  0  0  3  0  0  0  0  0  0
  182.6150  172.8870  136.2230 O   0  0  0  0  0  0  0  0  0  0  0  0
  182.7660  174.8010  137.5540 O   0  0  0  0  0  0  0  0  0  0  0  0
  184.9610  175.2310  137.0790 N   0  0  0  0  0  0  0  0  0  0  0  0
  184.6000  174.0880  136.4120 O   0  0  0  0  0  0  0  0  0  0  0  0
  183.2780  173.8460  136.6930 C   0  0  0  0  0  0  0  0  0  0  0  0
  183.8180  175.7200  137.8560 C   0  0  0  0  0  2  0  0  0  0  0  0
  185.4640  177.9540  134.5940 N   0  0  0  0  0  0  0  0  0  0  0  0
  186.0740  177.3980  135.4060 C   0  0  0  0  0  0  0  0  0  0  0  0
  186.5220  179.0090  140.9410 S   0  0  0  0  0  0  0  0  0  0  0  0
  185.2870  178.2380  139.8490 C   0  0  0  0  0  2  0  0  0  0  0  0
  184.5890  179.3010  139.0200 C   0  0  0  0  0  2  0  0  0  0  0  0
  179.2650  179.9830  140.7730 F   0  0  0  0  0  0  0  0  0  0  0  0
  183.1850  179.4750  139.4880 C   0  0  0  0  0  0  0  0  0  0  0  0
  180.9710  180.4060  139.1910 C   0  0  0  0  0  3  0  0  0  0  0  0
  181.4540  179.0190  141.1330 C   0  0  0  0  0  0  0  0  0  0  0  0
  180.5480  179.7970  140.3770 C   0  0  0  0  0  0  0  0  0  0  0  0
  182.7680  178.8680  140.6750 C   0  0  0  0  0  3  0  0  0  0  0  0
  182.2860  180.2470  138.7470 C   0  0  0  0  0  3  0  0  0  0  0  0
  181.1090  178.3900  142.3370 O   0  0  0  0  0  0  0  0  0  0  0  0
  181.2890  178.9710  143.6220 C   0  0  0  0  0  2  0  0  0  0  0  0
  182.7300  179.4190  143.7870 C   0  0  0  0  0  2  0  0  0  0  0  0
  183.4730  178.4880  144.7330 C   0  0  0  0  0  2  0  0  0  0  0  0
  184.3310  179.2580  145.6190 N   0  0  0  0  0  0  0  0  0  0  0  0
  184.8240  178.3190  146.6390 C   0  0  0  0  0  2  0  0  0  0  0  0
  185.6800  178.6780  145.5170 C   0  0  0  0  0  2  0  0  0  0  0  0
  1 42  1  0  0  0  0
  1  7  1  0  0  0  0
  2  6  1  0  0  0  0
  3  2  2  0  0  0  0
  3  5  1  0  0  0  0
  4  7  1  0  0  0  0
  4 27  1  0  0  0  0
  5  1  2  0  0  0  0
  6  4  2  0  0  0  0
  8 10  1  0  0  0  0
  9 10  2  0  0  0  0
  9 19  1  0  0  0  0
 11 15  1  0  0  0  0
 11 16  2  0  0  0  0
 12 16  1  0  0  0  0
 12 13  1  1  0  0  0
 12 22  1  0  0  0  0
 14 19  2  0  0  0  0
 14 18  1  0  0  0  0
 15  9  1  0  0  0  0
 16 14  1  0  0  0  0
 17  8  2  0  0  0  0
 19  2  1  0  0  0  0
 20 17  1  0  0  0  0
 20 15  2  0  0  0  0
 21 23  1  0  0  0  0
 21 11  1  0  0  0  0
 22 18  1  0  0  0  0
 23 24  1  1  0  0  0
 23 13  1  0  0  0  0
 24 25  1  0  0  0  0
 25 26  1  0  0  0  0
 27 30  1  0  0  0  0
 30 29  2  0  0  0  0
 30 28  1  0  0  0  0
 31  3  1  0  0  0  0
 32 31  1  0  0  0  0
 32 33  2  0  0  0  0
 34 38  2  0  0  0  0
 35 39  1  0  0  0  0
 36 33  1  0  0  0  0
 36 39  1  0  0  0  0
 37 38  1  0  0  0  0
 37 36  1  0  0  0  0
 38 35  1  0  0  0  0
 40 41  3  0  0  0  0
 41 32  1  0  0  0  0
 43 42  1  0  0  0  0
 44 46  1  0  0  0  0
 44 43  1  0  0  0  0
 46 50  1  0  0  0  0
 47 49  2  0  0  0  0
 48 52  1  0  0  0  0
 49 45  1  0  0  0  0
 49 48  1  0  0  0  0
 50 48  2  0  0  0  0
 51 47  1  0  0  0  0
 51 46  2  0  0  0  0
 52 53  1  0  0  0  0
 53 54  1  0  0  0  0
 54 55  1  0  0  0  0
 55 56  1  0  0  0  0
 56 57  1  0  0  0  0
 58 56  1  0  0  0  0
 58 57  1  0  0  0  0
M  END
>  <MODEL>
5

>  <REMARK>
 VINA RESULT:      -5.6      5.067      9.306
  Name = 
  18 active torsions:
  status: ('A' for Active; 'I' for Inactive)
    1  A    between atoms: C_2  and  C_26
    2  A    between atoms: C_2  and  O_36
    3  A    between atoms: N_3  and  C_8
    4  A    between atoms: C_7  and  S_31
    5  A    between atoms: C_8  and  C_26
    6  A    between atoms: C_10  and  C_32
    7  A    between atoms: C_10  and  C_37
    8  A    between atoms: C_11  and  C_54
    9  A    between atoms: C_13  and  N_44
   10  A    between atoms: C_19  and  C_29
   11  A    between atoms: C_22  and  C_29
   12  A    between atoms: C_22  and  S_31
   13  A    between atoms: C_23  and  O_47
   14  A    between atoms: C_27  and  C_43
   15  A    between atoms: C_32  and  C_35
   16  A    between atoms: C_33  and  O_36
   17  A    between atoms: C_38  and  O_47
   18  A    between atoms: C_54  and  C_58
                            x       y       z     vdW  Elec       q    Type
                         _______ _______ _______ _____ _____    ______ ____

>  <TORSDO>
F 18

$$$$
=
 OpenBabel11042412483D

 58 65  0  0  1  0  0  0  0  0999 V2000
  188.2500  178.1590  140.1610 C   0  0  0  0  0  0  0  0  0  0  0  0
  190.0700  176.2810  138.4300 C   0  0  0  0  0  0  0  0  0  0  0  0
  189.0950  177.1110  138.0060 C   0  0  0  0  0  0  0  0  0  0  0  0
  190.0390  176.5770  140.9630 C   0  0  0  0  0  0  0  0  0  0  0  0
  188.1950  177.8880  138.8620 C   0  0  0  0  0  3  0  0  0  0  0  0
  190.3920  175.9770  139.8310 C   0  0  0  0  0  3  0  0  0  0  0  0
  189.2340  177.7180  141.0460 O   0  0  0  0  0  0  0  0  0  0  0  0
  188.5610  172.7940  136.3390 C   0  0  0  0  0  3  0  0  0  0  0  0
  190.3460  174.3730  136.7760 C   0  0  0  0  0  0  0  0  0  0  0  0
  189.0260  173.9470  136.9700 C   0  0  0  0  0  3  0  0  0  0  0  0
  192.5340  173.9940  135.7160 C   0  0  0  0  0  0  0  0  0  0  0  0
  194.3140  175.7370  136.4100 C   0  0  1  0  0  3  0  0  0  0  0  0
  195.3150  174.6050  136.5040 C   0  0  0  0  0  2  0  0  0  0  0  0
  192.2000  175.8400  137.2070 C   0  0  0  0  0  0  0  0  0  0  0  0
  191.1920  173.6030  135.9200 C   0  0  0  0  0  0  0  0  0  0  0  0
  192.9610  175.1600  136.3420 C   0  0  0  0  0  0  0  0  0  0  0  0
  189.4230  172.0650  135.5190 C   0  0  0  0  0  3  0  0  0  0  0  0
  193.0170  176.7600  137.8900 N   0  0  0  0  0  2  0  0  0  0  0  0
  190.8650  175.5090  137.4510 C   0  0  0  0  0  0  0  0  0  0  0  0
  190.7050  172.4760  135.3310 N   0  0  0  0  0  0  0  0  0  0  0  0
  193.7190  172.9130  134.8740 S   0  0  0  0  0  0  0  0  0  0  0  0
  194.3350  176.5770  137.5640 O   0  0  0  0  0  0  0  0  0  0  0  0
  195.2920  173.8400  135.1820 C   0  0  2  0  0  3  0  0  0  0  0  0
  196.4790  172.8910  135.1270 C   0  0  0  0  0  2  0  0  0  0  0  0
  196.4100  171.8520  136.2340 C   0  0  0  0  0  2  0  0  0  0  0  0
  196.6090  170.5200  135.6850 N   0  0  0  0  0  1  0  0  0  0  0  0
  190.5620  176.0250  142.1380 O   0  0  0  0  0  0  0  0  0  0  0  0
  191.8950  176.0760  144.1740 O   0  0  0  0  0  1  0  0  0  0  0  0
  191.8990  177.8060  142.6820 O   0  0  0  0  0  0  0  0  0  0  0  0
  191.4610  176.6690  142.9940 C   0  0  0  0  0  0  0  0  0  0  0  0
  188.8280  177.2780  136.5340 C   0  0  0  0  0  2  0  0  0  0  0  0
  187.3640  177.2290  136.2270 C   0  0  0  0  0  0  0  0  0  0  0  0
  186.6270  176.2260  136.7250 C   0  0  0  0  0  3  0  0  0  0  0  0
  181.9900  177.1770  136.8130 O   0  0  0  0  0  0  0  0  0  0  0  0
  183.1640  175.5020  135.6850 O   0  0  0  0  0  0  0  0  0  0  0  0
  185.2150  176.0580  136.5300 N   0  0  0  0  0  0  0  0  0  0  0  0
  184.2950  176.9410  137.0360 O   0  0  0  0  0  0  0  0  0  0  0  0
  183.0660  176.5910  136.5330 C   0  0  0  0  0  0  0  0  0  0  0  0
  184.5400  175.1200  135.6270 C   0  0  0  0  0  2  0  0  0  0  0  0
  186.4020  179.0110  134.5980 N   0  0  0  0  0  0  0  0  0  0  0  0
  186.8310  178.2200  135.3260 C   0  0  0  0  0  0  0  0  0  0  0  0
  186.9700  179.2170  140.8240 S   0  0  0  0  0  0  0  0  0  0  0  0
  187.2950  178.7010  142.5380 C   0  0  0  0  0  2  0  0  0  0  0  0
  186.3350  177.5950  142.9410 C   0  0  0  0  0  2  0  0  0  0  0  0
  181.0850  179.6310  143.3560 F   0  0  0  0  0  0  0  0  0  0  0  0
  184.9500  178.1330  143.0410 C   0  0  0  0  0  0  0  0  0  0  0  0
  183.1740  179.1310  144.3480 C   0  0  0  0  0  3  0  0  0  0  0  0
  182.8160  178.6350  141.9910 C   0  0  0  0  0  0  0  0  0  0  0  0
  182.3420  179.1390  143.2230 C   0  0  0  0  0  0  0  0  0  0  0  0
  184.1210  178.1360  141.9170 C   0  0  0  0  0  3  0  0  0  0  0  0
  184.4740  178.6290  144.2590 C   0  0  0  0  0  3  0  0  0  0  0  0
  182.0390  178.5960  140.8260 O   0  0  0  0  0  0  0  0  0  0  0  0
  182.3120  179.3570  139.6560 C   0  0  0  0  0  2  0  0  0  0  0  0
  181.0160  179.9080  139.0880 C   0  0  0  0  0  2  0  0  0  0  0  0
  181.1770  181.3760  138.7210 C   0  0  0  0  0  2  0  0  0  0  0  0
  180.2950  181.7140  137.6160 N   0  0  0  0  0  0  0  0  0  0  0  0
  179.6320  182.9740  137.9820 C   0  0  0  0  0  2  0  0  0  0  0  0
  180.7670  182.9970  137.0700 C   0  0  0  0  0  2  0  0  0  0  0  0
  1 42  1  0  0  0  0
  1  7  1  0  0  0  0
  2  6  1  0  0  0  0
  3  2  2  0  0  0  0
  3  5  1  0  0  0  0
  4  7  1  0  0  0  0
  4 27  1  0  0  0  0
  5  1  2  0  0  0  0
  6  4  2  0  0  0  0
  8 10  1  0  0  0  0
  9 10  2  0  0  0  0
  9 19  1  0  0  0  0
 11 15  1  0  0  0  0
 11 16  2  0  0  0  0
 12 13  1  1  0  0  0
 12 22  1  0  0  0  0
 14 19  2  0  0  0  0
 14 18  1  0  0  0  0
 15  9  1  0  0  0  0
 16 12  1  0  0  0  0
 16 14  1  0  0  0  0
 17  8  2  0  0  0  0
 19  2  1  0  0  0  0
 20 17  1  0  0  0  0
 20 15  2  0  0  0  0
 21 23  1  0  0  0  0
 21 11  1  0  0  0  0
 22 18  1  0  0  0  0
 23 24  1  1  0  0  0
 23 13  1  0  0  0  0
 24 25  1  0  0  0  0
 26 25  1  0  0  0  0
 27 30  1  0  0  0  0
 29 30  2  0  0  0  0
 30 28  1  0  0  0  0
 31  3  1  0  0  0  0
 32 31  1  0  0  0  0
 32 33  2  0  0  0  0
 35 38  1  0  0  0  0
 36 33  1  0  0  0  0
 36 37  1  0  0  0  0
 38 34  2  0  0  0  0
 38 37  1  0  0  0  0
 39 35  1  0  0  0  0
 39 36  1  0  0  0  0
 40 41  3  0  0  0  0
 41 32  1  0  0  0  0
 42 43  1  0  0  0  0
 43 44  1  0  0  0  0
 44 46  1  0  0  0  0
 46 51  1  0  0  0  0
 48 49  2  0  0  0  0
 49 45  1  0  0  0  0
 49 47  1  0  0  0  0
 50 48  1  0  0  0  0
 50 46  2  0  0  0  0
 51 47  2  0  0  0  0
 52 48  1  0  0  0  0
 53 52  1  0  0  0  0
 54 53  1  0  0  0  0
 55 54  1  0  0  0  0
 56 57  1  0  0  0  0
 56 55  1  0  0  0  0
 58 56  1  0  0  0  0
 58 57  1  0  0  0  0
M  END
>  <MODEL>
6

>  <REMARK>
 VINA RESULT:      -5.4      5.228      9.544
  Name = 
  18 active torsions:
  status: ('A' for Active; 'I' for Inactive)
    1  A    between atoms: C_2  and  C_26
    2  A    between atoms: C_2  and  O_36
    3  A    between atoms: N_3  and  C_8
    4  A    between atoms: C_7  and  S_31
    5  A    between atoms: C_8  and  C_26
    6  A    between atoms: C_10  and  C_32
    7  A    between atoms: C_10  and  C_37
    8  A    between atoms: C_11  and  C_54
    9  A    between atoms: C_13  and  N_44
   10  A    between atoms: C_19  and  C_29
   11  A    between atoms: C_22  and  C_29
   12  A    between atoms: C_22  and  S_31
   13  A    between atoms: C_23  and  O_47
   14  A    between atoms: C_27  and  C_43
   15  A    between atoms: C_32  and  C_35
   16  A    between atoms: C_33  and  O_36
   17  A    between atoms: C_38  and  O_47
   18  A    between atoms: C_54  and  C_58
                            x       y       z     vdW  Elec       q    Type
                         _______ _______ _______ _____ _____    ______ ____

>  <TORSDO>
F 18

$$$$
=
 OpenBabel11042412483D

 58 65  0  0  1  0  0  0  0  0999 V2000
  187.5590  178.3150  139.9800 C   0  0  0  0  0  0  0  0  0  0  0  0
  184.7870  177.8230  138.6000 C   0  0  0  0  0  0  0  0  0  0  0  0
  186.0150  177.6940  138.0590 C   0  0  0  0  0  0  0  0  0  0  0  0
  185.2650  178.5990  140.9820 C   0  0  0  0  0  0  0  0  0  0  0  0
  187.2810  178.0420  138.7100 C   0  0  0  0  0  3  0  0  0  0  0  0
  184.4850  178.3630  139.9320 C   0  0  0  0  0  3  0  0  0  0  0  0
  186.6400  178.3440  141.0290 O   0  0  0  0  0  0  0  0  0  0  0  0
  181.4680  180.5520  138.0170 C   0  0  0  0  0  3  0  0  0  0  0  0
  182.5150  178.4030  137.6220 C   0  0  0  0  0  0  0  0  0  0  0  0
  182.5590  179.6970  138.1580 C   0  0  0  0  0  3  0  0  0  0  0  0
  181.2500  176.6880  136.3930 C   0  0  0  0  0  0  0  0  0  0  0  0
  182.5180  174.4440  136.1860 C   0  0  1  0  0  3  0  0  0  0  0  0
  181.2090  173.7360  136.4700 C   0  0  0  0  0  2  0  0  0  0  0  0
  183.4380  176.2170  137.2460 C   0  0  0  0  0  0  0  0  0  0  0  0
  181.3350  177.9910  136.9310 C   0  0  0  0  0  0  0  0  0  0  0  0
  182.3630  175.8660  136.5320 C   0  0  0  0  0  0  0  0  0  0  0  0
  180.3290  180.1080  137.3440 C   0  0  0  0  0  3  0  0  0  0  0  0
  184.2260  175.0700  137.4540 N   0  0  0  0  0  2  0  0  0  0  0  0
  183.5870  177.4900  137.8020 C   0  0  0  0  0  0  0  0  0  0  0  0
  180.2850  178.8520  136.8230 N   0  0  0  0  0  0  0  0  0  0  0  0
  179.6880  176.0250  135.7570 S   0  0  0  0  0  0  0  0  0  0  0  0
  183.5890  173.9490  136.9890 O   0  0  0  0  0  0  0  0  0  0  0  0
  180.1640  174.2570  135.4870 C   0  0  2  0  0  3  0  0  0  0  0  0
  178.9310  173.3670  135.5430 C   0  0  0  0  0  2  0  0  0  0  0  0
  179.3080  171.8950  135.5050 C   0  0  0  0  0  2  0  0  0  0  0  0
  179.0140  171.2690  136.7840 N   0  0  0  0  0  1  0  0  0  0  0  0
  184.6260  179.1000  142.1210 O   0  0  0  0  0  0  0  0  0  0  0  0
  182.3230  178.5610  141.5450 O   0  0  0  0  0  0  0  0  0  0  0  0
  183.0130  178.7590  143.7130 O   0  0  0  0  0  1  0  0  0  0  0  0
  183.3090  178.8100  142.4920 C   0  0  0  0  0  0  0  0  0  0  0  0
  186.1760  177.1870  136.6510 C   0  0  0  0  0  2  0  0  0  0  0  0
  187.4930  176.5040  136.4540 C   0  0  0  0  0  0  0  0  0  0  0  0
  187.6520  175.2520  136.9030 C   0  0  0  0  0  3  0  0  0  0  0  0
  190.7900  172.2130  135.0770 O   0  0  0  0  0  0  0  0  0  0  0  0
  191.0130  173.7370  136.8330 O   0  0  0  0  0  0  0  0  0  0  0  0
  188.8480  174.4680  136.7720 N   0  0  0  0  0  0  0  0  0  0  0  0
  189.0080  173.5350  135.7790 O   0  0  0  0  0  0  0  0  0  0  0  0
  190.3060  173.0940  135.8330 C   0  0  0  0  0  0  0  0  0  0  0  0
  190.1240  174.6570  137.4690 C   0  0  0  0  0  2  0  0  0  0  0  0
  189.4340  177.8790  135.4060 N   0  0  0  0  0  0  0  0  0  0  0  0
  188.5670  177.2690  135.8710 C   0  0  0  0  0  0  0  0  0  0  0  0
  189.2720  178.6310  140.3850 S   0  0  0  0  0  0  0  0  0  0  0  0
  189.3090  177.3390  141.6660 C   0  0  0  0  0  2  0  0  0  0  0  0
  189.0960  177.9570  143.0360 C   0  0  0  0  0  2  0  0  0  0  0  0
  192.5110  175.4850  146.7930 F   0  0  0  0  0  0  0  0  0  0  0  0
  189.9950  177.3110  144.0330 C   0  0  0  0  0  0  0  0  0  0  0  0
  191.7470  175.7290  144.5680 C   0  0  0  0  0  3  0  0  0  0  0  0
  190.7570  177.0860  146.3310 C   0  0  0  0  0  0  0  0  0  0  0  0
  191.6800  176.1000  145.9140 C   0  0  0  0  0  0  0  0  0  0  0  0
  189.9220  177.6820  145.3780 C   0  0  0  0  0  3  0  0  0  0  0  0
  190.9070  176.3310  143.6280 C   0  0  0  0  0  3  0  0  0  0  0  0
  190.6210  177.5000  147.6620 O   0  0  0  0  0  0  0  0  0  0  0  0
  189.4400  178.0760  148.2040 C   0  0  0  0  0  2  0  0  0  0  0  0
  188.2230  177.3150  147.7090 C   0  0  0  0  0  2  0  0  0  0  0  0
  186.9900  178.2050  147.7370 C   0  0  0  0  0  2  0  0  0  0  0  0
  186.0650  177.8100  146.6880 N   0  0  0  0  0  0  0  0  0  0  0  0
  185.2710  179.0040  146.3610 C   0  0  0  0  0  2  0  0  0  0  0  0
  186.3870  178.6260  145.5050 C   0  0  0  0  0  2  0  0  0  0  0  0
  1 42  1  0  0  0  0
  1  7  1  0  0  0  0
  2  6  1  0  0  0  0
  3  2  2  0  0  0  0
  3  5  1  0  0  0  0
  4  7  1  0  0  0  0
  4 27  1  0  0  0  0
  5  1  2  0  0  0  0
  6  4  2  0  0  0  0
  8 10  1  0  0  0  0
  9 19  1  0  0  0  0
  9 10  2  0  0  0  0
 11 16  2  0  0  0  0
 11 15  1  0  0  0  0
 12 13  1  1  0  0  0
 12 16  1  0  0  0  0
 12 22  1  0  0  0  0
 14 18  1  0  0  0  0
 14 19  2  0  0  0  0
 15  9  1  0  0  0  0
 16 14  1  0  0  0  0
 17  8  2  0  0  0  0
 19  2  1  0  0  0  0
 20 15  2  0  0  0  0
 20 17  1  0  0  0  0
 21 11  1  0  0  0  0
 22 18  1  0  0  0  0
 23 24  1  1  0  0  0
 23 21  1  0  0  0  0
 23 13  1  0  0  0  0
 25 24  1  0  0  0  0
 25 26  1  0  0  0  0
 27 30  1  0  0  0  0
 28 30  2  0  0  0  0
 30 29  1  0  0  0  0
 31  3  1  0  0  0  0
 32 31  1  0  0  0  0
 32 33  2  0  0  0  0
 34 38  2  0  0  0  0
 35 39  1  0  0  0  0
 36 33  1  0  0  0  0
 36 39  1  0  0  0  0
 37 38  1  0  0  0  0
 37 36  1  0  0  0  0
 38 35  1  0  0  0  0
 40 41  3  0  0  0  0
 41 32  1  0  0  0  0
 42 43  1  0  0  0  0
 43 44  1  0  0  0  0
 44 46  1  0  0  0  0
 46 50  1  0  0  0  0
 47 49  2  0  0  0  0
 48 52  1  0  0  0  0
 49 48  1  0  0  0  0
 49 45  1  0  0  0  0
 50 48  2  0  0  0  0
 51 46  2  0  0  0  0
 51 47  1  0  0  0  0
 52 53  1  0  0  0  0
 54 55  1  0  0  0  0
 54 53  1  0  0  0  0
 56 55  1  0  0  0  0
 57 56  1  0  0  0  0
 58 57  1  0  0  0  0
 58 56  1  0  0  0  0
M  END
>  <MODEL>
7

>  <REMARK>
 VINA RESULT:      -5.3      2.476      5.637
  Name = 
  18 active torsions:
  status: ('A' for Active; 'I' for Inactive)
    1  A    between atoms: C_2  and  C_26
    2  A    between atoms: C_2  and  O_36
    3  A    between atoms: N_3  and  C_8
    4  A    between atoms: C_7  and  S_31
    5  A    between atoms: C_8  and  C_26
    6  A    between atoms: C_10  and  C_32
    7  A    between atoms: C_10  and  C_37
    8  A    between atoms: C_11  and  C_54
    9  A    between atoms: C_13  and  N_44
   10  A    between atoms: C_19  and  C_29
   11  A    between atoms: C_22  and  C_29
   12  A    between atoms: C_22  and  S_31
   13  A    between atoms: C_23  and  O_47
   14  A    between atoms: C_27  and  C_43
   15  A    between atoms: C_32  and  C_35
   16  A    between atoms: C_33  and  O_36
   17  A    between atoms: C_38  and  O_47
   18  A    between atoms: C_54  and  C_58
                            x       y       z     vdW  Elec       q    Type
                         _______ _______ _______ _____ _____    ______ ____

>  <TORSDO>
F 18

$$$$
=
 OpenBabel11042412483D

 58 65  0  0  1  0  0  0  0  0999 V2000
  185.9610  176.7710  136.8310 C   0  0  0  0  0  0  0  0  0  0  0  0
  188.0570  177.1130  139.1380 C   0  0  0  0  0  0  0  0  0  0  0  0
  186.9490  177.8470  138.9110 C   0  0  0  0  0  0  0  0  0  0  0  0
  188.0540  175.4260  137.2260 C   0  0  0  0  0  0  0  0  0  0  0  0
  186.0570  177.7210  137.7550 C   0  0  0  0  0  3  0  0  0  0  0  0
  188.5940  176.0700  138.2550 C   0  0  0  0  0  3  0  0  0  0  0  0
  186.7530  175.6250  136.7530 O   0  0  0  0  0  0  0  0  0  0  0  0
  192.3920  177.1320  139.0300 C   0  0  0  0  0  3  0  0  0  0  0  0
  190.3200  177.3960  140.2570 C   0  0  0  0  0  0  0  0  0  0  0  0
  190.9990  177.1800  139.0510 C   0  0  0  0  0  3  0  0  0  0  0  0
  190.4330  177.7700  142.6860 C   0  0  0  0  0  0  0  0  0  0  0  0
  188.1040  177.9140  143.8010 C   0  0  1  0  0  3  0  0  0  0  0  0
  188.6530  177.0820  144.9410 C   0  0  0  0  0  2  0  0  0  0  0  0
  188.3190  177.5970  141.5720 C   0  0  0  0  0  0  0  0  0  0  0  0
  191.0860  177.5680  141.4510 C   0  0  0  0  0  0  0  0  0  0  0  0
  189.0440  177.8350  142.6710 C   0  0  0  0  0  0  0  0  0  0  0  0
  193.1040  177.2920  140.2200 C   0  0  0  0  0  3  0  0  0  0  0  0
  186.9760  177.4270  141.9550 N   0  0  0  0  0  2  0  0  0  0  0  0
  188.9020  177.3920  140.3190 C   0  0  0  0  0  0  0  0  0  0  0  0
  192.4450  177.5020  141.3910 N   0  0  0  0  0  0  0  0  0  0  0  0
  191.3360  177.7140  144.2560 S   0  0  0  0  0  0  0  0  0  0  0  0
  186.8550  177.4190  143.3200 O   0  0  0  0  0  0  0  0  0  0  0  0
  189.9240  177.7570  145.4530 C   0  0  2  0  0  3  0  0  0  0  0  0
  190.3360  177.1230  146.7730 C   0  0  0  0  0  2  0  0  0  0  0  0
  191.6410  176.3550  146.6360 C   0  0  0  0  0  2  0  0  0  0  0  0
  192.3860  176.4070  147.8830 N   0  0  0  0  0  1  0  0  0  0  0  0
  188.8580  174.4540  136.6200 O   0  0  0  0  0  0  0  0  0  0  0  0
  190.9700  175.2590  135.7180 O   0  0  0  0  0  0  0  0  0  0  0  0
  190.8830  173.7530  137.4330 O   0  0  0  0  0  1  0  0  0  0  0  0
  190.2570  174.4660  136.6080 C   0  0  0  0  0  0  0  0  0  0  0  0
  186.5480  178.9360  139.8700 C   0  0  0  0  0  2  0  0  0  0  0  0
  185.0640  179.0050  140.0430 C   0  0  0  0  0  0  0  0  0  0  0  0
  184.4520  178.0810  140.7980 C   0  0  0  0  0  3  0  0  0  0  0  0
  180.2490  179.1780  142.6820 O   0  0  0  0  0  0  0  0  0  0  0  0
  180.7760  177.7970  140.8730 O   0  0  0  0  0  0  0  0  0  0  0  0
  183.0420  178.0300  141.0660 N   0  0  0  0  0  0  0  0  0  0  0  0
  182.4540  178.7930  142.0420 O   0  0  0  0  0  0  0  0  0  0  0  0
  181.0950  178.6360  141.9250 C   0  0  0  0  0  0  0  0  0  0  0  0
  182.0000  177.3840  140.2620 C   0  0  0  0  0  2  0  0  0  0  0  0
  183.7680  180.8270  138.7190 N   0  0  0  0  0  0  0  0  0  0  0  0
  184.3460  180.0140  139.3060 C   0  0  0  0  0  0  0  0  0  0  0  0
  184.6740  176.9610  135.6040 S   0  0  0  0  0  0  0  0  0  0  0  0
  184.3470  175.1730  135.5300 C   0  0  0  0  0  2  0  0  0  0  0  0
  182.9790  174.9180  134.9220 C   0  0  0  0  0  2  0  0  0  0  0  0
  178.9310  176.4400  138.5510 F   0  0  0  0  0  0  0  0  0  0  0  0
  181.9110  175.3280  135.8750 C   0  0  0  0  0  0  0  0  0  0  0  0
  180.6150  174.9220  137.8790 C   0  0  0  0  0  3  0  0  0  0  0  0
  180.1870  176.9090  136.5370 C   0  0  0  0  0  0  0  0  0  0  0  0
  179.8990  176.1040  137.6630 C   0  0  0  0  0  0  0  0  0  0  0  0
  181.1960  176.5060  135.6540 C   0  0  0  0  0  3  0  0  0  0  0  0
  181.6180  174.5330  136.9890 C   0  0  0  0  0  3  0  0  0  0  0  0
  179.5040  178.0970  136.2470 O   0  0  0  0  0  0  0  0  0  0  0  0
  179.9620  179.0770  135.3240 C   0  0  0  0  0  2  0  0  0  0  0  0
  180.6760  180.1910  136.0700 C   0  0  0  0  0  2  0  0  0  0  0  0
  180.7470  181.4460  135.2130 C   0  0  0  0  0  2  0  0  0  0  0  0
  179.9880  182.5180  135.8350 N   0  0  0  0  0  0  0  0  0  0  0  0
  180.7890  182.9880  136.9750 C   0  0  0  0  0  2  0  0  0  0  0  0
  180.8060  183.7380  135.7270 C   0  0  0  0  0  2  0  0  0  0  0  0
  1  5  2  0  0  0  0
  2 19  1  0  0  0  0
  3  2  2  0  0  0  0
  3 31  1  0  0  0  0
  4  6  2  0  0  0  0
  5  3  1  0  0  0  0
  6  2  1  0  0  0  0
  7  1  1  0  0  0  0
  7  4  1  0  0  0  0
  8 10  2  0  0  0  0
  8 17  1  0  0  0  0
  9 19  2  0  0  0  0
  9 15  1  0  0  0  0
 10  9  1  0  0  0  0
 11 21  1  0  0  0  0
 12 13  1  1  0  0  0
 13 23  1  0  0  0  0
 14 18  1  0  0  0  0
 14 16  2  0  0  0  0
 15 11  2  0  0  0  0
 16 11  1  0  0  0  0
 16 12  1  0  0  0  0
 17 20  2  0  0  0  0
 18 22  1  0  0  0  0
 19 14  1  0  0  0  0
 20 15  1  0  0  0  0
 21 23  1  0  0  0  0
 22 12  1  0  0  0  0
 23 24  1  1  0  0  0
 25 24  1  0  0  0  0
 25 26  1  0  0  0  0
 27  4  1  0  0  0  0
 28 30  2  0  0  0  0
 30 27  1  0  0  0  0
 30 29  1  0  0  0  0
 31 32  1  0  0  0  0
 32 33  2  0  0  0  0
 33 36  1  0  0  0  0
 35 38  1  0  0  0  0
 36 37  1  0  0  0  0
 38 37  1  0  0  0  0
 38 34  2  0  0  0  0
 39 35  1  0  0  0  0
 39 36  1  0  0  0  0
 40 41  3  0  0  0  0
 41 32  1  0  0  0  0
 42  1  1  0  0  0  0
 43 42  1  0  0  0  0
 44 43  1  0  0  0  0
 44 46  1  0  0  0  0
 46 51  1  0  0  0  0
 48 49  2  0  0  0  0
 49 47  1  0  0  0  0
 49 45  1  0  0  0  0
 50 46  2  0  0  0  0
 50 48  1  0  0  0  0
 51 47  2  0  0  0  0
 52 48  1  0  0  0  0
 53 54  1  0  0  0  0
 53 52  1  0  0  0  0
 55 56  1  0  0  0  0
 55 54  1  0  0  0  0
 56 57  1  0  0  0  0
 58 56  1  0  0  0  0
 58 57  1  0  0  0  0
M  END
>  <MODEL>
8

>  <REMARK>
 VINA RESULT:      -4.5      3.732     10.179
  Name = 
  18 active torsions:
  status: ('A' for Active; 'I' for Inactive)
    1  A    between atoms: C_2  and  C_26
    2  A    between atoms: C_2  and  O_36
    3  A    between atoms: N_3  and  C_8
    4  A    between atoms: C_7  and  S_31
    5  A    between atoms: C_8  and  C_26
    6  A    between atoms: C_10  and  C_32
    7  A    between atoms: C_10  and  C_37
    8  A    between atoms: C_11  and  C_54
    9  A    between atoms: C_13  and  N_44
   10  A    between atoms: C_19  and  C_29
   11  A    between atoms: C_22  and  C_29
   12  A    between atoms: C_22  and  S_31
   13  A    between atoms: C_23  and  O_47
   14  A    between atoms: C_27  and  C_43
   15  A    between atoms: C_32  and  C_35
   16  A    between atoms: C_33  and  O_36
   17  A    between atoms: C_38  and  O_47
   18  A    between atoms: C_54  and  C_58
                            x       y       z     vdW  Elec       q    Type
                         _______ _______ _______ _____ _____    ______ ____

>  <TORSDO>
F 18

$$$$
=
 OpenBabel11042412483D

 58 65  0  0  1  0  0  0  0  0999 V2000
  187.6690  178.0400  137.4520 C   0  0  0  0  0  0  0  0  0  0  0  0
  185.3630  176.2870  136.2520 C   0  0  0  0  0  0  0  0  0  0  0  0
  185.2630  177.2760  137.1620 C   0  0  0  0  0  0  0  0  0  0  0  0
  187.8670  176.1630  135.7840 C   0  0  0  0  0  0  0  0  0  0  0  0
  186.3820  177.9950  137.7770 C   0  0  0  0  0  3  0  0  0  0  0  0
  186.6140  175.7240  135.7280 C   0  0  0  0  0  3  0  0  0  0  0  0
  188.2690  177.3560  136.3950 O   0  0  0  0  0  0  0  0  0  0  0  0
  181.8090  178.3920  134.9330 C   0  0  0  0  0  3  0  0  0  0  0  0
  182.9970  176.3170  135.3290 C   0  0  0  0  0  0  0  0  0  0  0  0
  182.9710  177.7180  135.3040 C   0  0  0  0  0  3  0  0  0  0  0  0
  181.7970  174.1950  134.9950 C   0  0  0  0  0  0  0  0  0  0  0  0
  183.2240  172.1200  135.5810 C   0  0  1  0  0  3  0  0  0  0  0  0
  181.9960  171.5220  136.2360 C   0  0  0  0  0  2  0  0  0  0  0  0
  184.0650  174.2110  135.7680 C   0  0  0  0  0  0  0  0  0  0  0  0
  181.8120  175.6070  134.9640 C   0  0  0  0  0  0  0  0  0  0  0  0
  182.9790  173.5520  135.3480 C   0  0  0  0  0  0  0  0  0  0  0  0
  180.6700  177.6610  134.5940 C   0  0  0  0  0  3  0  0  0  0  0  0
  184.9530  173.2810  136.3420 N   0  0  0  0  0  2  0  0  0  0  0  0
  184.1460  175.6050  135.7600 C   0  0  0  0  0  0  0  0  0  0  0  0
  180.6920  176.3010  134.6180 N   0  0  0  0  0  0  0  0  0  0  0  0
  180.2570  173.2590  134.8140 S   0  0  0  0  0  0  0  0  0  0  0  0
  184.3790  172.0400  136.4170 O   0  0  0  0  0  0  0  0  0  0  0  0
  180.8530  171.5550  135.2230 C   0  0  2  0  0  3  0  0  0  0  0  0
  179.7010  170.7040  135.7350 C   0  0  0  0  0  2  0  0  0  0  0  0
  179.3570  171.0460  137.1750 C   0  0  0  0  0  2  0  0  0  0  0  0
  178.9300  172.4330  137.2730 N   0  0  0  0  0  1  0  0  0  0  0  0
  188.8240  175.3710  135.1390 O   0  0  0  0  0  0  0  0  0  0  0  0
  190.2170  173.3800  135.0110 O   0  0  0  0  0  0  0  0  0  0  0  0
  189.6870  174.3590  137.0060 O   0  0  0  0  0  1  0  0  0  0  0  0
  189.5760  174.3650  135.7530 C   0  0  0  0  0  0  0  0  0  0  0  0
  183.9120  177.7120  137.6650 C   0  0  0  0  0  2  0  0  0  0  0  0
  184.0160  178.4550  138.9600 C   0  0  0  0  0  0  0  0  0  0  0  0
  184.2550  177.7700  140.0870 C   0  0  0  0  0  3  0  0  0  0  0  0
  183.0910  179.2810  144.4200 O   0  0  0  0  0  0  0  0  0  0  0  0
  185.1910  178.9810  143.4420 O   0  0  0  0  0  0  0  0  0  0  0  0
  184.3960  178.3470  141.3940 N   0  0  0  0  0  0  0  0  0  0  0  0
  183.3200  178.5740  142.2140 O   0  0  0  0  0  0  0  0  0  0  0  0
  183.8070  178.9670  143.4360 C   0  0  0  0  0  0  0  0  0  0  0  0
  185.6340  178.5700  142.1470 C   0  0  0  0  0  2  0  0  0  0  0  0
  183.5550  181.0130  138.9290 N   0  0  0  0  0  0  0  0  0  0  0  0
  183.7570  179.8730  138.9450 C   0  0  0  0  0  0  0  0  0  0  0  0
  188.7160  179.1070  138.4330 S   0  0  0  0  0  0  0  0  0  0  0  0
  189.1020  177.7910  139.6290 C   0  0  0  0  0  2  0  0  0  0  0  0
  188.6830  178.2160  141.0250 C   0  0  0  0  0  2  0  0  0  0  0  0
  192.1250  175.8820  144.8440 F   0  0  0  0  0  0  0  0  0  0  0  0
  189.5890  177.6070  142.0390 C   0  0  0  0  0  0  0  0  0  0  0  0
  191.3110  176.0110  142.6270 C   0  0  0  0  0  3  0  0  0  0  0  0
  190.4030  177.5010  144.3270 C   0  0  0  0  0  0  0  0  0  0  0  0
  191.2890  176.4650  143.9500 C   0  0  0  0  0  0  0  0  0  0  0  0
  189.5610  178.0600  143.3590 C   0  0  0  0  0  3  0  0  0  0  0  0
  190.4640  176.5790  141.6730 C   0  0  0  0  0  3  0  0  0  0  0  0
  190.3130  177.9980  145.6330 O   0  0  0  0  0  0  0  0  0  0  0  0
  189.7540  177.2810  146.7250 C   0  0  0  0  0  2  0  0  0  0  0  0
  188.9760  178.2300  147.6190 C   0  0  0  0  0  2  0  0  0  0  0  0
  187.5140  177.8160  147.6920 C   0  0  0  0  0  2  0  0  0  0  0  0
  186.7160  178.6450  146.8030 N   0  0  0  0  0  0  0  0  0  0  0  0
  186.2310  177.7590  145.7330 C   0  0  0  0  0  2  0  0  0  0  0  0
  185.3450  178.1080  146.8360 C   0  0  0  0  0  2  0  0  0  0  0  0
  1  5  2  0  0  0  0
  1 42  1  0  0  0  0
  2  3  2  0  0  0  0
  3 31  1  0  0  0  0
  3  5  1  0  0  0  0
  4  7  1  0  0  0  0
  6  4  2  0  0  0  0
  6  2  1  0  0  0  0
  7  1  1  0  0  0  0
  8 10  1  0  0  0  0
  9 19  1  0  0  0  0
 10  9  2  0  0  0  0
 11 16  2  0  0  0  0
 12 13  1  1  0  0  0
 12 22  1  0  0  0  0
 14 18  1  0  0  0  0
 15 11  1  0  0  0  0
 15  9  1  0  0  0  0
 16 12  1  0  0  0  0
 16 14  1  0  0  0  0
 17 20  1  0  0  0  0
 17  8  2  0  0  0  0
 18 22  1  0  0  0  0
 19 14  2  0  0  0  0
 19  2  1  0  0  0  0
 20 15  2  0  0  0  0
 21 11  1  0  0  0  0
 21 23  1  0  0  0  0
 23 24  1  1  0  0  0
 23 13  1  0  0  0  0
 24 25  1  0  0  0  0
 25 26  1  0  0  0  0
 27 30  1  0  0  0  0
 27  4  1  0  0  0  0
 28 30  2  0  0  0  0
 30 29  1  0  0  0  0
 31 32  1  0  0  0  0
 32 33  2  0  0  0  0
 33 36  1  0  0  0  0
 36 39  1  0  0  0  0
 36 37  1  0  0  0  0
 37 38  1  0  0  0  0
 38 35  1  0  0  0  0
 38 34  2  0  0  0  0
 39 35  1  0  0  0  0
 40 41  3  0  0  0  0
 41 32  1  0  0  0  0
 42 43  1  0  0  0  0
 43 44  1  0  0  0  0
 44 46  1  0  0  0  0
 46 50  1  0  0  0  0
 47 49  2  0  0  0  0
 48 52  1  0  0  0  0
 49 48  1  0  0  0  0
 49 45  1  0  0  0  0
 50 48  2  0  0  0  0
 51 46  2  0  0  0  0
 51 47  1  0  0  0  0
 52 53  1  0  0  0  0
 53 54  1  0  0  0  0
 54 55  1  0  0  0  0
 56 58  1  0  0  0  0
 56 55  1  0  0  0  0
 57 56  1  0  0  0  0
 57 58  1  0  0  0  0
M  END
>  <MODEL>
9

>  <REMARK>
 VINA RESULT:      -4.4      2.317      3.087
  Name = 
  18 active torsions:
  status: ('A' for Active; 'I' for Inactive)
    1  A    between atoms: C_2  and  C_26
    2  A    between atoms: C_2  and  O_36
    3  A    between atoms: N_3  and  C_8
    4  A    between atoms: C_7  and  S_31
    5  A    between atoms: C_8  and  C_26
    6  A    between atoms: C_10  and  C_32
    7  A    between atoms: C_10  and  C_37
    8  A    between atoms: C_11  and  C_54
    9  A    between atoms: C_13  and  N_44
   10  A    between atoms: C_19  and  C_29
   11  A    between atoms: C_22  and  C_29
   12  A    between atoms: C_22  and  S_31
   13  A    between atoms: C_23  and  O_47
   14  A    between atoms: C_27  and  C_43
   15  A    between atoms: C_32  and  C_35
   16  A    between atoms: C_33  and  O_36
   17  A    between atoms: C_38  and  O_47
   18  A    between atoms: C_54  and  C_58
                            x       y       z     vdW  Elec       q    Type
                         _______ _______ _______ _____ _____    ______ ____

>  <TORSDO>
F 18

$$$$
