=
 OpenBabel11032420043D

 46 49  0  0  1  0  0  0  0  0999 V2000
  187.7610  178.6150  138.2220 N   0  0  0  0  0  2  0  0  0  0  0  0
  188.9230  178.4270  137.4440 C   0  0  0  0  0  0  0  0  0  0  0  0
  189.3220  177.2440  139.4560 C   0  0  2  0  0  3  0  0  0  0  0  0
  189.9330  177.5530  138.0820 C   0  0  1  0  0  3  0  0  0  0  0  0
  189.0870  178.9900  136.3310 O   0  0  0  0  0  0  0  0  0  0  0  0
  187.9000  177.8740  139.4630 C   0  0  1  0  0  3  0  0  0  0  0  0
  187.6920  178.7320  140.5460 O   0  0  0  0  0  1  0  0  0  0  0  0
  190.2270  177.7210  140.6060 C   0  0  2  0  0  3  0  0  0  0  0  0
  191.5620  177.3470  140.3890 O   0  0  0  0  0  1  0  0  0  0  0  0
  190.4900  175.9040  142.3550 C   0  0  0  0  0  1  0  0  0  0  0  0
  189.7350  177.1730  141.9500 C   0  0  1  0  0  3  0  0  0  0  0  0
  189.8610  178.2410  143.0270 C   0  0  0  0  0  2  0  0  0  0  0  0
  191.7770  178.9330  144.3670 N   0  0  0  0  0  1  0  0  0  0  0  0
  190.8690  177.8350  144.0880 C   0  0  1  0  0  3  0  0  0  0  0  0
  186.6690  177.9640  146.7760 N   0  0  0  0  0  2  0  0  0  0  0  0
  190.7720  176.7120  146.1940 O   0  0  0  0  0  0  0  0  0  0  0  0
  188.0280  177.5400  146.7080 C   0  0  0  0  0  0  0  0  0  0  0  0
  188.8230  177.8520  145.5560 N   0  0  0  0  0  2  0  0  0  0  0  0
  188.5170  176.8940  147.6720 O   0  0  0  0  0  0  0  0  0  0  0  0
  190.1710  177.4220  145.3390 C   0  0  0  0  0  0  0  0  0  0  0  0
  183.8800  179.1430  144.6770 C   0  0  0  0  0  2  0  0  0  0  0  0
  186.0230  178.7090  145.7060 C   0  0  1  0  0  3  0  0  0  0  0  0
  186.2010  177.8310  144.1190 S   0  0  0  0  0  0  0  0  0  0  0  0
  184.4550  178.8670  142.2820 C   0  0  0  0  0  1  0  0  0  0  0  0
  184.4800  178.2070  143.6450 C   0  0  2  0  0  3  0  0  0  0  0  0
  184.5460  178.8430  145.9980 C   0  0  0  0  0  2  0  0  0  0  0  0
  190.1510  176.3080  137.3340 N   0  0  0  0  0  0  0  0  0  0  0  0
  193.8480  175.9470  136.7090 C   0  0  0  0  0  3  0  0  0  0  0  0
  192.6770  175.8150  134.5970 C   0  0  0  0  0  3  0  0  0  0  0  0
  192.6280  176.1050  137.3720 C   0  0  0  0  0  3  0  0  0  0  0  0
  191.4170  176.1210  136.6570 C   0  0  0  0  0  0  0  0  0  0  0  0
  193.8790  175.8010  135.3170 C   0  0  0  0  0  0  0  0  0  0  0  0
  191.4560  175.9750  135.2590 C   0  0  0  0  0  3  0  0  0  0  0  0
  195.0840  175.6480  134.6180 O   0  0  0  0  0  0  0  0  0  0  0  0
  196.2060  176.5040  134.8280 C   0  0  0  0  0  1  0  0  0  0  0  0
  189.1590  175.2270  137.4500 C   0  0  2  0  0  3  0  0  0  0  0  0
  189.7980  173.8610  137.2520 C   0  0  0  0  0  1  0  0  0  0  0  0
  188.0060  175.4160  136.4740 C   0  0  0  0  0  2  0  0  0  0  0  0
  186.9180  173.4660  137.2730 O   0  0  0  0  0  0  0  0  0  0  0  0
  182.8610  176.3670  136.5620 C   0  0  0  0  0  2  0  0  0  0  0  0
  185.5110  175.3220  137.0200 N   0  0  0  0  0  0  0  0  0  0  0  0
  183.1650  175.4770  137.7670 C   0  0  0  0  0  2  0  0  0  0  0  0
  184.3470  174.5550  137.4830 C   0  0  0  0  0  2  0  0  0  0  0  0
  185.3820  176.7460  136.7170 C   0  0  0  0  0  2  0  0  0  0  0  0
  186.7940  174.6760  136.9390 C   0  0  0  0  0  0  0  0  0  0  0  0
  184.0970  177.0070  135.9310 C   0  0  0  0  0  2  0  0  0  0  0  0
  1  6  1  0  0  0  0
  2  4  1  0  0  0  0
  2  1  1  0  0  0  0
  3  6  1  0  0  0  0
  3  8  1  1  0  0  0
  4 27  1  6  0  0  0
  4  3  1  0  0  0  0
  5  2  2  0  0  0  0
  6  7  1  1  0  0  0
  8  9  1  6  0  0  0
  8 11  1  0  0  0  0
 11 10  1  1  0  0  0
 11 12  1  0  0  0  0
 12 14  1  0  0  0  0
 14 13  1  1  0  0  0
 14 20  1  0  0  0  0
 17 15  1  0  0  0  0
 17 19  2  0  0  0  0
 18 17  1  0  0  0  0
 20 18  1  0  0  0  0
 20 16  2  0  0  0  0
 21 26  1  0  0  0  0
 22 26  1  0  0  0  0
 22 15  1  1  0  0  0
 23 22  1  0  0  0  0
 25 24  1  6  0  0  0
 25 23  1  0  0  0  0
 25 21  1  0  0  0  0
 27 36  1  0  0  0  0
 28 30  1  0  0  0  0
 29 33  2  0  0  0  0
 29 32  1  0  0  0  0
 31 27  1  0  0  0  0
 31 30  2  0  0  0  0
 32 28  2  0  0  0  0
 33 31  1  0  0  0  0
 34 35  1  0  0  0  0
 34 32  1  0  0  0  0
 36 37  1  6  0  0  0
 38 45  1  0  0  0  0
 38 36  1  0  0  0  0
 40 42  1  0  0  0  0
 41 43  1  0  0  0  0
 43 42  1  0  0  0  0
 44 41  1  0  0  0  0
 45 41  1  0  0  0  0
 45 39  2  0  0  0  0
 46 40  1  0  0  0  0
 46 44  1  0  0  0  0
M  END
>  <MODEL>
1

>  <REMARK>
 VINA RESULT:      -8.4      0.000      0.000
  Name = 
  12 active torsions:
  status: ('A' for Active; 'I' for Inactive)
    1  A    between atoms: N_4  and  C_6
    2  A    between atoms: N_4  and  C_25
    3  A    between atoms: N_4  and  C_30
    4  A    between atoms: C_6  and  C_13
    5  A    between atoms: C_7  and  C_17
    6  A    between atoms: C_7  and  C_40
    7  A    between atoms: N_10  and  C_11
    8  A    between atoms: O_12  and  C_35
    9  A    between atoms: C_13  and  C_31
   10  A    between atoms: C_32  and  C_37
   11  A    between atoms: C_32  and  C_40
   12  A    between atoms: C_37  and  C_46
                            x       y       z     vdW  Elec       q    Type
                         _______ _______ _______ _____ _____    ______ ____

>  <TORSDO>
F 12

$$$$
=
 OpenBabel11032420043D

 46 49  0  0  1  0  0  0  0  0999 V2000
  191.3870  176.1420  139.1040 N   0  0  0  0  0  2  0  0  0  0  0  0
  191.2840  177.1760  140.0590 C   0  0  0  0  0  0  0  0  0  0  0  0
  189.2220  177.1950  138.8950 C   0  0  2  0  0  3  0  0  0  0  0  0
  189.9710  177.8600  140.0580 C   0  0  1  0  0  3  0  0  0  0  0  0
  192.2430  177.5010  140.8060 O   0  0  0  0  0  0  0  0  0  0  0  0
  190.1360  176.0490  138.3740 C   0  0  1  0  0  3  0  0  0  0  0  0
  190.3870  176.1360  137.0020 O   0  0  0  0  0  1  0  0  0  0  0  0
  188.8170  178.2150  137.8170 C   0  0  2  0  0  3  0  0  0  0  0  0
  189.0500  179.5300  138.2490 O   0  0  0  0  0  1  0  0  0  0  0  0
  187.1290  178.2580  135.9250 C   0  0  0  0  0  1  0  0  0  0  0  0
  187.3450  178.0400  137.4250 C   0  0  1  0  0  3  0  0  0  0  0  0
  186.8540  176.6620  137.8440 C   0  0  0  0  0  2  0  0  0  0  0  0
  187.4900  174.8050  136.3990 N   0  0  0  0  0  1  0  0  0  0  0  0
  186.4800  175.8210  136.6360 C   0  0  1  0  0  3  0  0  0  0  0  0
  181.8510  176.2580  138.4440 N   0  0  0  0  0  2  0  0  0  0  0  0
  184.9410  174.0090  136.4090 O   0  0  0  0  0  0  0  0  0  0  0  0
  182.8080  175.4140  137.8080 C   0  0  0  0  0  0  0  0  0  0  0  0
  184.1290  175.9010  137.5340 N   0  0  0  0  0  2  0  0  0  0  0  0
  182.4770  174.2400  137.4960 O   0  0  0  0  0  0  0  0  0  0  0  0
  185.1500  175.1780  136.8390 C   0  0  0  0  0  0  0  0  0  0  0  0
  181.2870  179.5090  140.0840 C   0  0  0  0  0  2  0  0  0  0  0  0
  182.1470  177.6290  138.8330 C   0  0  1  0  0  3  0  0  0  0  0  0
  181.7070  178.7820  137.4920 S   0  0  0  0  0  0  0  0  0  0  0  0
  181.6360  181.3440  138.4560 C   0  0  0  0  0  1  0  0  0  0  0  0
  181.0050  179.9840  138.6720 C   0  0  2  0  0  3  0  0  0  0  0  0
  181.3320  177.9990  140.0500 C   0  0  0  0  0  2  0  0  0  0  0  0
  189.2340  177.6620  141.3130 N   0  0  0  0  0  0  0  0  0  0  0  0
  191.0490  176.0230  144.1780 C   0  0  0  0  0  3  0  0  0  0  0  0
  191.0680  178.4200  144.5030 C   0  0  0  0  0  3  0  0  0  0  0  0
  190.3420  176.1940  142.9850 C   0  0  0  0  0  3  0  0  0  0  0  0
  189.9880  177.4780  142.5350 C   0  0  0  0  0  0  0  0  0  0  0  0
  191.4160  177.1360  144.9450 C   0  0  0  0  0  0  0  0  0  0  0  0
  190.3590  178.5920  143.3110 C   0  0  0  0  0  3  0  0  0  0  0  0
  192.1190  177.0020  146.1500 O   0  0  0  0  0  0  0  0  0  0  0  0
  191.8540  175.9530  147.0790 C   0  0  0  0  0  1  0  0  0  0  0  0
  187.7720  177.8400  141.3140 C   0  0  2  0  0  3  0  0  0  0  0  0
  187.3910  179.3090  141.4130 C   0  0  0  0  0  1  0  0  0  0  0  0
  187.1120  177.0470  142.4340 C   0  0  0  0  0  2  0  0  0  0  0  0
  185.3760  178.6430  142.6890 O   0  0  0  0  0  0  0  0  0  0  0  0
  187.0580  178.5780  147.4380 C   0  0  0  0  0  2  0  0  0  0  0  0
  186.3780  177.9760  144.6990 N   0  0  0  0  0  0  0  0  0  0  0  0
  185.6030  178.5550  146.9690 C   0  0  0  0  0  2  0  0  0  0  0  0
  185.5030  178.8630  145.4770 C   0  0  0  0  0  2  0  0  0  0  0  0
  187.3220  177.0910  145.3780 C   0  0  0  0  0  2  0  0  0  0  0  0
  186.2440  177.9340  143.2670 C   0  0  0  0  0  0  0  0  0  0  0  0
  188.0230  177.8350  146.5150 C   0  0  0  0  0  2  0  0  0  0  0  0
  1  2  1  0  0  0  0
  2  5  2  0  0  0  0
  3  8  1  6  0  0  0
  3  4  1  0  0  0  0
  4  2  1  0  0  0  0
  4 27  1  1  0  0  0
  6  7  1  6  0  0  0
  6  3  1  0  0  0  0
  6  1  1  0  0  0  0
  8  9  1  1  0  0  0
 11 10  1  6  0  0  0
 11  8  1  0  0  0  0
 11 12  1  0  0  0  0
 14 13  1  1  0  0  0
 14 20  1  0  0  0  0
 14 12  1  0  0  0  0
 16 20  2  0  0  0  0
 17 15  1  0  0  0  0
 18 17  1  0  0  0  0
 19 17  2  0  0  0  0
 20 18  1  0  0  0  0
 22 15  1  6  0  0  0
 22 26  1  0  0  0  0
 23 25  1  0  0  0  0
 23 22  1  0  0  0  0
 25 24  1  6  0  0  0
 25 21  1  0  0  0  0
 26 21  1  0  0  0  0
 27 36  1  0  0  0  0
 27 31  1  0  0  0  0
 28 32  1  0  0  0  0
 29 32  2  0  0  0  0
 30 28  2  0  0  0  0
 31 30  1  0  0  0  0
 31 33  2  0  0  0  0
 32 34  1  0  0  0  0
 33 29  1  0  0  0  0
 34 35  1  0  0  0  0
 36 37  1  1  0  0  0
 36 38  1  0  0  0  0
 38 45  1  0  0  0  0
 39 45  2  0  0  0  0
 41 44  1  0  0  0  0
 41 43  1  0  0  0  0
 42 40  1  0  0  0  0
 43 42  1  0  0  0  0
 44 46  1  0  0  0  0
 45 41  1  0  0  0  0
 46 40  1  0  0  0  0
M  END
>  <MODEL>
2

>  <REMARK>
 VINA RESULT:      -8.2      2.780      8.026
  Name = 
  12 active torsions:
  status: ('A' for Active; 'I' for Inactive)
    1  A    between atoms: N_4  and  C_6
    2  A    between atoms: N_4  and  C_25
    3  A    between atoms: N_4  and  C_30
    4  A    between atoms: C_6  and  C_13
    5  A    between atoms: C_7  and  C_17
    6  A    between atoms: C_7  and  C_40
    7  A    between atoms: N_10  and  C_11
    8  A    between atoms: O_12  and  C_35
    9  A    between atoms: C_13  and  C_31
   10  A    between atoms: C_32  and  C_37
   11  A    between atoms: C_32  and  C_40
   12  A    between atoms: C_37  and  C_46
                            x       y       z     vdW  Elec       q    Type
                         _______ _______ _______ _____ _____    ______ ____

>  <TORSDO>
F 12

$$$$
=
 OpenBabel11032420043D

 46 49  0  0  1  0  0  0  0  0999 V2000
  180.6790  178.5960  140.0360 N   0  0  0  0  0  2  0  0  0  0  0  0
  181.4110  178.7430  138.8380 C   0  0  0  0  0  0  0  0  0  0  0  0
  183.0210  178.2120  140.4900 C   0  0  2  0  0  3  0  0  0  0  0  0
  182.8590  178.4760  138.9870 C   0  0  1  0  0  3  0  0  0  0  0  0
  180.8730  179.1070  137.7600 O   0  0  0  0  0  0  0  0  0  0  0  0
  181.5910  178.2160  141.1000 C   0  0  1  0  0  3  0  0  0  0  0  0
  181.4590  179.1070  142.1680 O   0  0  0  0  0  1  0  0  0  0  0  0
  183.9880  179.2130  141.1470 C   0  0  2  0  0  3  0  0  0  0  0  0
  184.9120  179.7120  140.2150 O   0  0  0  0  0  1  0  0  0  0  0  0
  186.0120  177.8740  141.8830 C   0  0  0  0  0  1  0  0  0  0  0  0
  184.7220  178.5690  142.3280 C   0  0  1  0  0  3  0  0  0  0  0  0
  185.0140  179.6150  143.3940 C   0  0  0  0  0  2  0  0  0  0  0  0
  183.2340  178.3180  144.4390 N   0  0  0  0  0  1  0  0  0  0  0  0
  184.2620  179.3150  144.6790 C   0  0  1  0  0  3  0  0  0  0  0  0
  188.7910  177.5170  145.7460 N   0  0  0  0  0  2  0  0  0  0  0  0
  184.8420  178.8250  146.9440 O   0  0  0  0  0  0  0  0  0  0  0  0
  187.5050  177.8770  146.2420 C   0  0  0  0  0  0  0  0  0  0  0  0
  186.4990  178.3720  145.3460 N   0  0  0  0  0  2  0  0  0  0  0  0
  187.2650  177.7510  147.4720 O   0  0  0  0  0  0  0  0  0  0  0  0
  185.2010  178.8330  145.7330 C   0  0  0  0  0  0  0  0  0  0  0  0
  189.7030  176.3440  142.3740 C   0  0  0  0  0  2  0  0  0  0  0  0
  189.1540  177.6360  144.3410 C   0  0  1  0  0  3  0  0  0  0  0  0
  190.9350  177.9810  144.1690 S   0  0  0  0  0  0  0  0  0  0  0  0
  191.7220  177.5460  141.5830 C   0  0  0  0  0  1  0  0  0  0  0  0
  191.0860  176.8330  142.7600 C   0  0  2  0  0  3  0  0  0  0  0  0
  188.8640  176.3350  143.6300 C   0  0  0  0  0  2  0  0  0  0  0  0
  183.2960  177.3040  138.2170 N   0  0  0  0  0  0  0  0  0  0  0  0
  185.4420  177.2820  135.1210 C   0  0  0  0  0  3  0  0  0  0  0  0
  186.7970  177.9410  137.0130 C   0  0  0  0  0  3  0  0  0  0  0  0
  184.3310  177.1700  135.9610 C   0  0  0  0  0  3  0  0  0  0  0  0
  184.4370  177.4410  137.3370 C   0  0  0  0  0  0  0  0  0  0  0  0
  186.6820  177.6670  135.6430 C   0  0  0  0  0  0  0  0  0  0  0  0
  185.6870  177.8270  137.8540 C   0  0  0  0  0  3  0  0  0  0  0  0
  187.8200  177.7830  134.8320 O   0  0  0  0  0  0  0  0  0  0  0  0
  189.1350  177.5190  135.3160 C   0  0  0  0  0  1  0  0  0  0  0  0
  182.6820  175.9970  138.5040 C   0  0  2  0  0  3  0  0  0  0  0  0
  183.6620  174.8580  138.2690 C   0  0  0  0  0  1  0  0  0  0  0  0
  181.4160  175.7810  137.6850 C   0  0  0  0  0  2  0  0  0  0  0  0
  180.1860  174.5230  139.2760 O   0  0  0  0  0  0  0  0  0  0  0  0
  180.9500  170.8980  135.8620 C   0  0  0  0  0  2  0  0  0  0  0  0
  180.6030  173.3940  137.2660 N   0  0  0  0  0  0  0  0  0  0  0  0
  179.6500  171.2180  136.5990 C   0  0  0  0  0  2  0  0  0  0  0  0
  179.8960  172.1990  137.7430 C   0  0  0  0  0  2  0  0  0  0  0  0
  181.1280  173.4450  135.9030 C   0  0  0  0  0  2  0  0  0  0  0  0
  180.7070  174.5420  138.1270 C   0  0  0  0  0  0  0  0  0  0  0  0
  181.8080  172.1240  135.5470 C   0  0  0  0  0  2  0  0  0  0  0  0
  1  6  1  0  0  0  0
  2  4  1  0  0  0  0
  2  1  1  0  0  0  0
  3  6  1  0  0  0  0
  3  8  1  1  0  0  0
  4 27  1  6  0  0  0
  4  3  1  0  0  0  0
  5  2  2  0  0  0  0
  6  7  1  1  0  0  0
  8  9  1  6  0  0  0
  8 11  1  0  0  0  0
 11 10  1  6  0  0  0
 11 12  1  0  0  0  0
 12 14  1  0  0  0  0
 14 13  1  6  0  0  0
 14 20  1  0  0  0  0
 15 17  1  0  0  0  0
 17 19  2  0  0  0  0
 18 20  1  0  0  0  0
 18 17  1  0  0  0  0
 20 16  2  0  0  0  0
 21 25  1  0  0  0  0
 21 26  1  0  0  0  0
 22 15  1  1  0  0  0
 23 22  1  0  0  0  0
 25 24  1  6  0  0  0
 25 23  1  0  0  0  0
 26 22  1  0  0  0  0
 27 36  1  0  0  0  0
 28 32  2  0  0  0  0
 28 30  1  0  0  0  0
 29 33  2  0  0  0  0
 30 31  2  0  0  0  0
 31 33  1  0  0  0  0
 31 27  1  0  0  0  0
 32 29  1  0  0  0  0
 34 35  1  0  0  0  0
 34 32  1  0  0  0  0
 36 37  1  6  0  0  0
 38 45  1  0  0  0  0
 38 36  1  0  0  0  0
 40 42  1  0  0  0  0
 41 43  1  0  0  0  0
 41 45  1  0  0  0  0
 42 43  1  0  0  0  0
 44 41  1  0  0  0  0
 45 39  2  0  0  0  0
 46 40  1  0  0  0  0
 46 44  1  0  0  0  0
M  END
>  <MODEL>
3

>  <REMARK>
 VINA RESULT:      -8.2      3.396      6.319
  Name = 
  12 active torsions:
  status: ('A' for Active; 'I' for Inactive)
    1  A    between atoms: N_4  and  C_6
    2  A    between atoms: N_4  and  C_25
    3  A    between atoms: N_4  and  C_30
    4  A    between atoms: C_6  and  C_13
    5  A    between atoms: C_7  and  C_17
    6  A    between atoms: C_7  and  C_40
    7  A    between atoms: N_10  and  C_11
    8  A    between atoms: O_12  and  C_35
    9  A    between atoms: C_13  and  C_31
   10  A    between atoms: C_32  and  C_37
   11  A    between atoms: C_32  and  C_40
   12  A    between atoms: C_37  and  C_46
                            x       y       z     vdW  Elec       q    Type
                         _______ _______ _______ _____ _____    ______ ____

>  <TORSDO>
F 12

$$$$
=
 OpenBabel11032420043D

 46 49  0  0  1  0  0  0  0  0999 V2000
  191.0310  176.0800  138.8370 N   0  0  0  0  0  2  0  0  0  0  0  0
  191.0560  177.1350  139.7730 C   0  0  0  0  0  0  0  0  0  0  0  0
  188.9830  177.3490  138.6500 C   0  0  2  0  0  3  0  0  0  0  0  0
  189.8220  177.9520  139.7860 C   0  0  1  0  0  3  0  0  0  0  0  0
  192.0600  177.3710  140.4960 O   0  0  0  0  0  0  0  0  0  0  0  0
  189.7610  176.1050  138.1340 C   0  0  1  0  0  3  0  0  0  0  0  0
  189.9910  176.1430  136.7560 O   0  0  0  0  0  1  0  0  0  0  0  0
  188.6630  178.3880  137.5610 C   0  0  2  0  0  3  0  0  0  0  0  0
  189.0270  179.6800  137.9690 O   0  0  0  0  0  1  0  0  0  0  0  0
  186.9710  178.0490  135.7030 C   0  0  0  0  0  1  0  0  0  0  0  0
  187.1760  178.3490  137.1900 C   0  0  1  0  0  3  0  0  0  0  0  0
  186.4490  177.3260  138.0510 C   0  0  0  0  0  2  0  0  0  0  0  0
  185.1990  179.3350  138.6350 N   0  0  0  0  0  1  0  0  0  0  0  0
  185.1410  177.8850  138.5820 C   0  0  1  0  0  3  0  0  0  0  0  0
  183.2140  174.3290  135.6630 N   0  0  0  0  0  2  0  0  0  0  0  0
  182.9970  178.2050  137.5800 O   0  0  0  0  0  0  0  0  0  0  0  0
  183.0620  175.6380  136.2060 C   0  0  0  0  0  0  0  0  0  0  0  0
  184.0730  176.1850  137.0630 N   0  0  0  0  0  2  0  0  0  0  0  0
  182.0320  176.3040  135.9180 O   0  0  0  0  0  0  0  0  0  0  0  0
  184.0010  177.4530  137.7240 C   0  0  0  0  0  0  0  0  0  0  0  0
  185.9730  172.9330  137.6660 C   0  0  0  0  0  2  0  0  0  0  0  0
  184.3680  173.4890  135.9470 C   0  0  1  0  0  3  0  0  0  0  0  0
  185.8860  174.2440  135.2800 S   0  0  0  0  0  0  0  0  0  0  0  0
  188.0850  173.0340  136.3730 C   0  0  0  0  0  1  0  0  0  0  0  0
  186.8390  173.7980  136.7700 C   0  0  2  0  0  3  0  0  0  0  0  0
  184.5390  173.3490  137.4420 C   0  0  0  0  0  2  0  0  0  0  0  0
  189.0960  177.8530  141.0580 N   0  0  0  0  0  0  0  0  0  0  0  0
  191.0810  177.9210  144.2590 C   0  0  0  0  0  3  0  0  0  0  0  0
  190.7230  175.6210  143.6040 C   0  0  0  0  0  3  0  0  0  0  0  0
  190.3650  178.3480  143.1380 C   0  0  0  0  0  3  0  0  0  0  0  0
  189.8190  177.4190  142.2350 C   0  0  0  0  0  0  0  0  0  0  0  0
  191.2650  176.5540  144.4980 C   0  0  0  0  0  0  0  0  0  0  0  0
  190.0080  176.0470  142.4810 C   0  0  0  0  0  3  0  0  0  0  0  0
  191.9830  176.0900  145.6080 O   0  0  0  0  0  0  0  0  0  0  0  0
  191.6240  176.4230  146.9480 C   0  0  0  0  0  1  0  0  0  0  0  0
  187.7190  178.3710  141.1330 C   0  0  2  0  0  3  0  0  0  0  0  0
  187.6850  179.7800  141.7060 C   0  0  0  0  0  1  0  0  0  0  0  0
  186.8170  177.4510  141.9440 C   0  0  0  0  0  2  0  0  0  0  0  0
  185.0870  179.0150  142.3720 O   0  0  0  0  0  0  0  0  0  0  0  0
  186.7550  178.4110  147.0870 C   0  0  0  0  0  2  0  0  0  0  0  0
  186.0810  178.1230  144.2970 N   0  0  0  0  0  0  0  0  0  0  0  0
  185.3010  178.4470  146.6150 C   0  0  0  0  0  2  0  0  0  0  0  0
  185.2070  178.9210  145.1670 C   0  0  0  0  0  2  0  0  0  0  0  0
  187.0190  177.1640  144.8740 C   0  0  0  0  0  2  0  0  0  0  0  0
  185.9510  178.2420  142.8690 C   0  0  0  0  0  0  0  0  0  0  0  0
  187.7200  177.7720  146.0890 C   0  0  0  0  0  2  0  0  0  0  0  0
  1  2  1  0  0  0  0
  2  4  1  0  0  0  0
  2  5  2  0  0  0  0
  3  8  1  6  0  0  0
  3  4  1  0  0  0  0
  4 27  1  1  0  0  0
  6  7  1  6  0  0  0
  6  3  1  0  0  0  0
  6  1  1  0  0  0  0
  8  9  1  1  0  0  0
 11 10  1  6  0  0  0
 11  8  1  0  0  0  0
 11 12  1  0  0  0  0
 12 14  1  0  0  0  0
 14 13  1  6  0  0  0
 15 17  1  0  0  0  0
 16 20  2  0  0  0  0
 17 18  1  0  0  0  0
 18 20  1  0  0  0  0
 19 17  2  0  0  0  0
 20 14  1  0  0  0  0
 22 15  1  1  0  0  0
 22 26  1  0  0  0  0
 23 22  1  0  0  0  0
 23 25  1  0  0  0  0
 25 24  1  6  0  0  0
 25 21  1  0  0  0  0
 26 21  1  0  0  0  0
 27 36  1  0  0  0  0
 27 31  1  0  0  0  0
 28 32  1  0  0  0  0
 29 32  2  0  0  0  0
 30 28  2  0  0  0  0
 31 33  2  0  0  0  0
 31 30  1  0  0  0  0
 32 34  1  0  0  0  0
 33 29  1  0  0  0  0
 34 35  1  0  0  0  0
 36 37  1  1  0  0  0
 36 38  1  0  0  0  0
 38 45  1  0  0  0  0
 39 45  2  0  0  0  0
 41 44  1  0  0  0  0
 41 43  1  0  0  0  0
 42 40  1  0  0  0  0
 43 42  1  0  0  0  0
 44 46  1  0  0  0  0
 45 41  1  0  0  0  0
 46 40  1  0  0  0  0
M  END
>  <MODEL>
4

>  <REMARK>
 VINA RESULT:      -8.0      2.949      8.380
  Name = 
  12 active torsions:
  status: ('A' for Active; 'I' for Inactive)
    1  A    between atoms: N_4  and  C_6
    2  A    between atoms: N_4  and  C_25
    3  A    between atoms: N_4  and  C_30
    4  A    between atoms: C_6  and  C_13
    5  A    between atoms: C_7  and  C_17
    6  A    between atoms: C_7  and  C_40
    7  A    between atoms: N_10  and  C_11
    8  A    between atoms: O_12  and  C_35
    9  A    between atoms: C_13  and  C_31
   10  A    between atoms: C_32  and  C_37
   11  A    between atoms: C_32  and  C_40
   12  A    between atoms: C_37  and  C_46
                            x       y       z     vdW  Elec       q    Type
                         _______ _______ _______ _____ _____    ______ ____

>  <TORSDO>
F 12

$$$$
=
 OpenBabel11032420043D

 46 49  0  0  1  0  0  0  0  0999 V2000
  191.8870  176.1520  138.8580 N   0  0  0  0  0  2  0  0  0  0  0  0
  191.7850  177.2170  139.7780 C   0  0  0  0  0  0  0  0  0  0  0  0
  189.5640  176.7760  139.0870 C   0  0  2  0  0  3  0  0  0  0  0  0
  190.3940  177.6500  140.0380 C   0  0  1  0  0  3  0  0  0  0  0  0
  192.7960  177.7650  140.2890 O   0  0  0  0  0  0  0  0  0  0  0  0
  190.5540  175.7800  138.4200 C   0  0  1  0  0  3  0  0  0  0  0  0
  190.4960  175.8100  137.0240 O   0  0  0  0  0  1  0  0  0  0  0  0
  188.7560  177.6240  138.0890 C   0  0  2  0  0  3  0  0  0  0  0  0
  188.8850  178.9940  138.3660 O   0  0  0  0  0  1  0  0  0  0  0  0
  186.3780  178.3470  137.5890 C   0  0  0  0  0  1  0  0  0  0  0  0
  187.2780  177.2180  138.0990 C   0  0  1  0  0  3  0  0  0  0  0  0
  187.0780  175.9550  137.2750 C   0  0  0  0  0  2  0  0  0  0  0  0
  186.5660  175.9110  134.8920 N   0  0  0  0  0  1  0  0  0  0  0  0
  186.0130  176.1580  136.2110 C   0  0  1  0  0  3  0  0  0  0  0  0
  181.5690  175.5350  138.3900 N   0  0  0  0  0  2  0  0  0  0  0  0
  184.8340  174.0980  135.9370 O   0  0  0  0  0  0  0  0  0  0  0  0
  182.6070  174.9470  137.6110 C   0  0  0  0  0  0  0  0  0  0  0  0
  183.7810  175.7040  137.2850 N   0  0  0  0  0  2  0  0  0  0  0  0
  182.4800  173.7560  137.2200 O   0  0  0  0  0  0  0  0  0  0  0  0
  184.8540  175.2500  136.4540 C   0  0  0  0  0  0  0  0  0  0  0  0
  182.2130  178.2420  140.8060 C   0  0  0  0  0  2  0  0  0  0  0  0
  181.6320  176.9050  138.8780 C   0  0  1  0  0  3  0  0  0  0  0  0
  179.9890  177.4580  139.4410 S   0  0  0  0  0  0  0  0  0  0  0  0
  180.2380  179.7340  140.9430 C   0  0  0  0  0  1  0  0  0  0  0  0
  180.7000  178.2910  140.9000 C   0  0  2  0  0  3  0  0  0  0  0  0
  182.5750  176.9810  140.0560 C   0  0  0  0  0  2  0  0  0  0  0  0
  189.9840  177.4150  141.4290 N   0  0  0  0  0  0  0  0  0  0  0  0
  186.6230  179.0970  141.6810 C   0  0  0  0  0  3  0  0  0  0  0  0
  186.6260  177.1290  143.0870 C   0  0  0  0  0  3  0  0  0  0  0  0
  187.9380  178.8200  141.2970 C   0  0  0  0  0  3  0  0  0  0  0  0
  188.6140  177.6950  141.8030 C   0  0  0  0  0  0  0  0  0  0  0  0
  185.9590  178.2530  142.5800 C   0  0  0  0  0  0  0  0  0  0  0  0
  187.9410  176.8520  142.7060 C   0  0  0  0  0  3  0  0  0  0  0  0
  184.6440  178.5040  142.9920 O   0  0  0  0  0  0  0  0  0  0  0  0
  184.3370  179.3390  144.1070 C   0  0  0  0  0  1  0  0  0  0  0  0
  190.9200  176.7340  142.3390 C   0  0  2  0  0  3  0  0  0  0  0  0
  190.3310  175.4380  142.8760 C   0  0  0  0  0  1  0  0  0  0  0  0
  191.3410  177.6380  143.4900 C   0  0  0  0  0  2  0  0  0  0  0  0
  192.0560  175.9850  145.0330 O   0  0  0  0  0  0  0  0  0  0  0  0
  187.8860  177.5030  147.4180 C   0  0  0  0  0  2  0  0  0  0  0  0
  190.2410  177.2720  145.7680 N   0  0  0  0  0  0  0  0  0  0  0  0
  189.2610  177.2380  148.0320 C   0  0  0  0  0  2  0  0  0  0  0  0
  190.1790  176.5330  147.0360 C   0  0  0  0  0  2  0  0  0  0  0  0
  189.3510  178.4060  145.5310 C   0  0  0  0  0  2  0  0  0  0  0  0
  191.2380  176.9150  144.7940 C   0  0  0  0  0  0  0  0  0  0  0  0
  187.9350  178.0760  146.0010 C   0  0  0  0  0  2  0  0  0  0  0  0
  1  2  1  0  0  0  0
  2  4  1  0  0  0  0
  2  5  2  0  0  0  0
  3  8  1  6  0  0  0
  3  4  1  0  0  0  0
  4 27  1  1  0  0  0
  6  7  1  6  0  0  0
  6  1  1  0  0  0  0
  6  3  1  0  0  0  0
  8 11  1  0  0  0  0
  8  9  1  1  0  0  0
 11 10  1  6  0  0  0
 12 11  1  0  0  0  0
 14 13  1  6  0  0  0
 14 20  1  0  0  0  0
 14 12  1  0  0  0  0
 16 20  2  0  0  0  0
 17 15  1  0  0  0  0
 18 17  1  0  0  0  0
 19 17  2  0  0  0  0
 20 18  1  0  0  0  0
 21 25  1  0  0  0  0
 22 15  1  1  0  0  0
 22 23  1  0  0  0  0
 22 26  1  0  0  0  0
 23 25  1  0  0  0  0
 25 24  1  6  0  0  0
 26 21  1  0  0  0  0
 27 31  1  0  0  0  0
 27 36  1  0  0  0  0
 28 32  1  0  0  0  0
 30 28  2  0  0  0  0
 30 31  1  0  0  0  0
 31 33  2  0  0  0  0
 32 34  1  0  0  0  0
 32 29  2  0  0  0  0
 33 29  1  0  0  0  0
 34 35  1  0  0  0  0
 36 37  1  1  0  0  0
 36 38  1  0  0  0  0
 38 45  1  0  0  0  0
 40 42  1  0  0  0  0
 41 43  1  0  0  0  0
 43 42  1  0  0  0  0
 44 41  1  0  0  0  0
 44 46  1  0  0  0  0
 45 39  2  0  0  0  0
 45 41  1  0  0  0  0
 46 40  1  0  0  0  0
M  END
>  <MODEL>
5

>  <REMARK>
 VINA RESULT:      -8.0      2.746      8.579
  Name = 
  12 active torsions:
  status: ('A' for Active; 'I' for Inactive)
    1  A    between atoms: N_4  and  C_6
    2  A    between atoms: N_4  and  C_25
    3  A    between atoms: N_4  and  C_30
    4  A    between atoms: C_6  and  C_13
    5  A    between atoms: C_7  and  C_17
    6  A    between atoms: C_7  and  C_40
    7  A    between atoms: N_10  and  C_11
    8  A    between atoms: O_12  and  C_35
    9  A    between atoms: C_13  and  C_31
   10  A    between atoms: C_32  and  C_37
   11  A    between atoms: C_32  and  C_40
   12  A    between atoms: C_37  and  C_46
                            x       y       z     vdW  Elec       q    Type
                         _______ _______ _______ _____ _____    ______ ____

>  <TORSDO>
F 12

$$$$
=
 OpenBabel11032420043D

 46 49  0  0  1  0  0  0  0  0999 V2000
  188.0200  178.8580  138.7840 N   0  0  0  0  0  2  0  0  0  0  0  0
  189.0910  178.6070  137.8990 C   0  0  0  0  0  0  0  0  0  0  0  0
  189.5770  177.3420  139.8410 C   0  0  2  0  0  3  0  0  0  0  0  0
  190.0850  177.6440  138.4240 C   0  0  1  0  0  3  0  0  0  0  0  0
  189.1970  179.1870  136.7880 O   0  0  0  0  0  0  0  0  0  0  0  0
  188.2140  178.0740  139.9900 C   0  0  1  0  0  3  0  0  0  0  0  0
  188.1690  178.9150  141.1060 O   0  0  0  0  0  1  0  0  0  0  0  0
  190.6150  177.7190  140.9130 C   0  0  2  0  0  3  0  0  0  0  0  0
  191.8600  177.1280  140.6450 O   0  0  0  0  0  1  0  0  0  0  0  0
  189.3430  176.0020  142.2780 C   0  0  0  0  0  1  0  0  0  0  0  0
  190.1270  177.3170  142.3100 C   0  0  1  0  0  3  0  0  0  0  0  0
  191.3070  177.2180  143.2660 C   0  0  0  0  0  2  0  0  0  0  0  0
  192.2870  175.2730  144.3600 N   0  0  0  0  0  1  0  0  0  0  0  0
  191.1000  176.1050  144.2780 C   0  0  1  0  0  3  0  0  0  0  0  0
  187.5970  177.8950  147.3450 N   0  0  0  0  0  2  0  0  0  0  0  0
  191.6990  176.8160  146.4790 O   0  0  0  0  0  0  0  0  0  0  0  0
  188.9810  177.6200  147.1490 C   0  0  0  0  0  0  0  0  0  0  0  0
  189.4360  177.0580  145.9100 N   0  0  0  0  0  2  0  0  0  0  0  0
  189.7960  177.8810  148.0740 O   0  0  0  0  0  0  0  0  0  0  0  0
  190.7840  176.6720  145.6210 C   0  0  0  0  0  0  0  0  0  0  0  0
  185.9470  178.1340  144.0590 C   0  0  0  0  0  2  0  0  0  0  0  0
  186.5890  177.6200  146.3320 C   0  0  1  0  0  3  0  0  0  0  0  0
  185.1150  178.6580  146.6000 S   0  0  0  0  0  0  0  0  0  0  0  0
  183.5380  178.6290  144.3620 C   0  0  0  0  0  1  0  0  0  0  0  0
  184.9400  178.9810  144.8130 C   0  0  2  0  0  3  0  0  0  0  0  0
  187.1420  177.9460  144.9640 C   0  0  0  0  0  2  0  0  0  0  0  0
  190.1410  176.4070  137.6330 N   0  0  0  0  0  0  0  0  0  0  0  0
  193.6400  175.0370  137.3770 C   0  0  0  0  0  3  0  0  0  0  0  0
  192.9340  175.8040  135.1950 C   0  0  0  0  0  3  0  0  0  0  0  0
  192.4030  175.4150  137.9060 C   0  0  0  0  0  3  0  0  0  0  0  0
  191.4160  175.9920  137.0880 C   0  0  0  0  0  0  0  0  0  0  0  0
  193.9140  175.2310  136.0180 C   0  0  0  0  0  0  0  0  0  0  0  0
  191.6970  176.1840  135.7230 C   0  0  0  0  0  3  0  0  0  0  0  0
  195.1450  174.8710  135.4550 O   0  0  0  0  0  0  0  0  0  0  0  0
  196.3900  175.1570  136.0890 C   0  0  0  0  0  1  0  0  0  0  0  0
  188.9480  175.5450  137.5780 C   0  0  2  0  0  3  0  0  0  0  0  0
  189.3270  174.0810  137.4200 C   0  0  0  0  0  1  0  0  0  0  0  0
  188.0020  175.9680  136.4620 C   0  0  0  0  0  2  0  0  0  0  0  0
  186.0770  176.8320  137.5450 O   0  0  0  0  0  0  0  0  0  0  0  0
  184.4110  172.1650  136.6390 C   0  0  0  0  0  2  0  0  0  0  0  0
  185.7880  174.7010  136.6180 N   0  0  0  0  0  0  0  0  0  0  0  0
  183.6530  173.4770  136.4330 C   0  0  0  0  0  2  0  0  0  0  0  0
  184.3940  174.6450  137.0780 C   0  0  0  0  0  2  0  0  0  0  0  0
  186.3400  173.6180  135.8070 C   0  0  0  0  0  2  0  0  0  0  0  0
  186.5800  175.8660  136.9100 C   0  0  0  0  0  0  0  0  0  0  0  0
  185.9130  172.2630  136.3690 C   0  0  0  0  0  2  0  0  0  0  0  0
  1  6  1  0  0  0  0
  2  4  1  0  0  0  0
  2  1  1  0  0  0  0
  3  6  1  0  0  0  0
  3  8  1  1  0  0  0
  4 27  1  6  0  0  0
  4  3  1  0  0  0  0
  5  2  2  0  0  0  0
  6  7  1  1  0  0  0
  8  9  1  6  0  0  0
  8 11  1  0  0  0  0
 11 10  1  6  0  0  0
 11 12  1  0  0  0  0
 12 14  1  0  0  0  0
 14 13  1  1  0  0  0
 14 20  1  0  0  0  0
 17 15  1  0  0  0  0
 17 19  2  0  0  0  0
 18 17  1  0  0  0  0
 20 18  1  0  0  0  0
 20 16  2  0  0  0  0
 21 25  1  0  0  0  0
 21 26  1  0  0  0  0
 22 23  1  0  0  0  0
 22 15  1  1  0  0  0
 25 24  1  6  0  0  0
 25 23  1  0  0  0  0
 26 22  1  0  0  0  0
 28 30  1  0  0  0  0
 29 33  2  0  0  0  0
 29 32  1  0  0  0  0
 31 27  1  0  0  0  0
 31 30  2  0  0  0  0
 32 28  2  0  0  0  0
 33 31  1  0  0  0  0
 34 32  1  0  0  0  0
 34 35  1  0  0  0  0
 36 37  1  6  0  0  0
 36 27  1  0  0  0  0
 38 45  1  0  0  0  0
 38 36  1  0  0  0  0
 41 45  1  0  0  0  0
 41 43  1  0  0  0  0
 42 40  1  0  0  0  0
 42 43  1  0  0  0  0
 44 46  1  0  0  0  0
 44 41  1  0  0  0  0
 45 39  2  0  0  0  0
 46 40  1  0  0  0  0
M  END
>  <MODEL>
6

>  <REMARK>
 VINA RESULT:      -7.9      1.394      1.815
  Name = 
  12 active torsions:
  status: ('A' for Active; 'I' for Inactive)
    1  A    between atoms: N_4  and  C_6
    2  A    between atoms: N_4  and  C_25
    3  A    between atoms: N_4  and  C_30
    4  A    between atoms: C_6  and  C_13
    5  A    between atoms: C_7  and  C_17
    6  A    between atoms: C_7  and  C_40
    7  A    between atoms: N_10  and  C_11
    8  A    between atoms: O_12  and  C_35
    9  A    between atoms: C_13  and  C_31
   10  A    between atoms: C_32  and  C_37
   11  A    between atoms: C_32  and  C_40
   12  A    between atoms: C_37  and  C_46
                            x       y       z     vdW  Elec       q    Type
                         _______ _______ _______ _____ _____    ______ ____

>  <TORSDO>
F 12

$$$$
=
 OpenBabel11032420043D

 46 49  0  0  1  0  0  0  0  0999 V2000
  180.4790  175.4970  138.5940 N   0  0  0  0  0  2  0  0  0  0  0  0
  180.1880  176.7540  138.0220 C   0  0  0  0  0  0  0  0  0  0  0  0
  181.2250  177.2380  140.0940 C   0  0  2  0  0  3  0  0  0  0  0  0
  180.6520  177.9010  138.8340 C   0  0  1  0  0  3  0  0  0  0  0  0
  179.5560  176.8720  136.9400 O   0  0  0  0  0  0  0  0  0  0  0  0
  181.1690  175.7030  139.8550 C   0  0  1  0  0  3  0  0  0  0  0  0
  180.4970  175.0190  140.8720 O   0  0  0  0  0  1  0  0  0  0  0  0
  180.4980  177.7040  141.3680 C   0  0  2  0  0  3  0  0  0  0  0  0
  179.1120  177.7860  141.1600 O   0  0  0  0  0  1  0  0  0  0  0  0
  179.9610  180.1390  141.8290 C   0  0  0  0  0  1  0  0  0  0  0  0
  181.0430  179.0540  141.8450 C   0  0  1  0  0  3  0  0  0  0  0  0
  181.6430  178.9130  143.2360 C   0  0  0  0  0  2  0  0  0  0  0  0
  183.7630  179.0130  142.0380 N   0  0  0  0  0  1  0  0  0  0  0  0
  183.0760  178.4150  143.1680 C   0  0  1  0  0  3  0  0  0  0  0  0
  187.2750  177.9450  145.8200 N   0  0  0  0  0  2  0  0  0  0  0  0
  183.2430  179.4410  145.3190 O   0  0  0  0  0  0  0  0  0  0  0  0
  185.9410  178.4450  145.7790 C   0  0  0  0  0  0  0  0  0  0  0  0
  185.1240  178.2250  144.6210 N   0  0  0  0  0  2  0  0  0  0  0  0
  185.4910  179.0750  146.7730 O   0  0  0  0  0  0  0  0  0  0  0  0
  183.8010  178.7370  144.4320 C   0  0  0  0  0  0  0  0  0  0  0  0
  189.9720  176.7860  143.5930 C   0  0  0  0  0  2  0  0  0  0  0  0
  187.8740  177.2120  144.7150 C   0  0  1  0  0  3  0  0  0  0  0  0
  187.6330  178.1100  143.1480 S   0  0  0  0  0  0  0  0  0  0  0  0
  189.3000  177.0940  141.2280 C   0  0  0  0  0  1  0  0  0  0  0  0
  189.3320  177.7360  142.5990 C   0  0  2  0  0  3  0  0  0  0  0  0
  189.3610  177.0720  144.9450 C   0  0  0  0  0  2  0  0  0  0  0  0
  181.6930  178.6850  138.1560 N   0  0  0  0  0  0  0  0  0  0  0  0
  180.9810  182.3740  137.8890 C   0  0  0  0  0  3  0  0  0  0  0  0
  180.5990  181.3410  135.7350 C   0  0  0  0  0  3  0  0  0  0  0  0
  181.3450  181.1320  138.4160 C   0  0  0  0  0  3  0  0  0  0  0  0
  181.3400  179.9780  137.6120 C   0  0  0  0  0  0  0  0  0  0  0  0
  180.6040  182.4850  136.5450 C   0  0  0  0  0  0  0  0  0  0  0  0
  180.9600  180.0980  136.2620 C   0  0  0  0  0  3  0  0  0  0  0  0
  180.2270  183.7120  135.9840 O   0  0  0  0  0  0  0  0  0  0  0  0
  181.0210  184.8910  136.1130 C   0  0  0  0  0  1  0  0  0  0  0  0
  183.0870  178.2150  138.2160 C   0  0  2  0  0  3  0  0  0  0  0  0
  184.0320  179.3280  138.6430 C   0  0  0  0  0  1  0  0  0  0  0  0
  183.5370  177.6220  136.8880 C   0  0  0  0  0  2  0  0  0  0  0  0
  183.8200  175.3240  137.4020 O   0  0  0  0  0  0  0  0  0  0  0  0
  188.6640  176.7090  137.3940 C   0  0  0  0  0  2  0  0  0  0  0  0
  185.8180  176.4740  136.9840 N   0  0  0  0  0  0  0  0  0  0  0  0
  188.0560  175.4600  136.7570 C   0  0  0  0  0  2  0  0  0  0  0  0
  186.6130  175.2600  137.2120 C   0  0  0  0  0  2  0  0  0  0  0  0
  186.4690  177.7120  136.5600 C   0  0  0  0  0  2  0  0  0  0  0  0
  184.3860  176.4130  137.1100 C   0  0  0  0  0  0  0  0  0  0  0  0
  187.7530  177.9370  137.3570 C   0  0  0  0  0  2  0  0  0  0  0  0
  1  6  1  0  0  0  0
  2  1  1  0  0  0  0
  2  4  1  0  0  0  0
  3  8  1  1  0  0  0
  4 27  1  6  0  0  0
  4  3  1  0  0  0  0
  5  2  2  0  0  0  0
  6  3  1  0  0  0  0
  6  7  1  1  0  0  0
  8  9  1  6  0  0  0
  8 11  1  0  0  0  0
 11 10  1  1  0  0  0
 11 12  1  0  0  0  0
 14 13  1  6  0  0  0
 14 12  1  0  0  0  0
 14 20  1  0  0  0  0
 17 15  1  0  0  0  0
 17 19  2  0  0  0  0
 18 17  1  0  0  0  0
 20 18  1  0  0  0  0
 20 16  2  0  0  0  0
 21 26  1  0  0  0  0
 22 26  1  0  0  0  0
 22 15  1  1  0  0  0
 23 22  1  0  0  0  0
 25 24  1  6  0  0  0
 25 23  1  0  0  0  0
 25 21  1  0  0  0  0
 27 36  1  0  0  0  0
 28 30  1  0  0  0  0
 29 33  2  0  0  0  0
 29 32  1  0  0  0  0
 31 27  1  0  0  0  0
 31 30  2  0  0  0  0
 32 28  2  0  0  0  0
 33 31  1  0  0  0  0
 34 35  1  0  0  0  0
 34 32  1  0  0  0  0
 36 37  1  6  0  0  0
 38 45  1  0  0  0  0
 38 36  1  0  0  0  0
 41 45  1  0  0  0  0
 41 43  1  0  0  0  0
 42 43  1  0  0  0  0
 42 40  1  0  0  0  0
 44 41  1  0  0  0  0
 44 46  1  0  0  0  0
 45 39  2  0  0  0  0
 46 40  1  0  0  0  0
M  END
>  <MODEL>
7

>  <REMARK>
 VINA RESULT:      -7.9      4.308      8.550
  Name = 
  12 active torsions:
  status: ('A' for Active; 'I' for Inactive)
    1  A    between atoms: N_4  and  C_6
    2  A    between atoms: N_4  and  C_25
    3  A    between atoms: N_4  and  C_30
    4  A    between atoms: C_6  and  C_13
    5  A    between atoms: C_7  and  C_17
    6  A    between atoms: C_7  and  C_40
    7  A    between atoms: N_10  and  C_11
    8  A    between atoms: O_12  and  C_35
    9  A    between atoms: C_13  and  C_31
   10  A    between atoms: C_32  and  C_37
   11  A    between atoms: C_32  and  C_40
   12  A    between atoms: C_37  and  C_46
                            x       y       z     vdW  Elec       q    Type
                         _______ _______ _______ _____ _____    ______ ____

>  <TORSDO>
F 12

$$$$
=
 OpenBabel11032420043D

 46 49  0  0  1  0  0  0  0  0999 V2000
  187.7120  178.6150  138.0820 N   0  0  0  0  0  2  0  0  0  0  0  0
  188.8890  178.4630  137.3180 C   0  0  0  0  0  0  0  0  0  0  0  0
  189.2980  177.2900  139.3330 C   0  0  2  0  0  3  0  0  0  0  0  0
  189.9170  177.6190  137.9670 C   0  0  1  0  0  3  0  0  0  0  0  0
  189.0490  179.0330  136.2080 O   0  0  0  0  0  0  0  0  0  0  0  0
  187.8590  177.8760  139.3230 C   0  0  1  0  0  3  0  0  0  0  0  0
  187.6120  178.7270  140.4050 O   0  0  0  0  0  1  0  0  0  0  0  0
  190.1750  177.7910  140.4950 C   0  0  2  0  0  3  0  0  0  0  0  0
  191.5280  177.4880  140.2770 O   0  0  0  0  0  1  0  0  0  0  0  0
  190.5550  175.9900  142.2380 C   0  0  0  0  0  1  0  0  0  0  0  0
  189.7070  177.1970  141.8280 C   0  0  1  0  0  3  0  0  0  0  0  0
  189.7300  178.2650  142.9120 C   0  0  0  0  0  2  0  0  0  0  0  0
  191.5920  179.1720  144.1970 N   0  0  0  0  0  1  0  0  0  0  0  0
  190.8070  177.9770  143.9420 C   0  0  1  0  0  3  0  0  0  0  0  0
  186.7820  177.8810  146.8880 N   0  0  0  0  0  2  0  0  0  0  0  0
  190.8660  176.7530  145.9930 O   0  0  0  0  0  0  0  0  0  0  0  0
  188.1430  177.4920  146.7150 C   0  0  0  0  0  0  0  0  0  0  0  0
  188.8580  177.8770  145.5330 N   0  0  0  0  0  2  0  0  0  0  0  0
  188.7040  176.8130  147.6150 O   0  0  0  0  0  0  0  0  0  0  0  0
  190.1980  177.4890  145.2130 C   0  0  0  0  0  0  0  0  0  0  0  0
  183.8640  179.0040  144.9380 C   0  0  0  0  0  2  0  0  0  0  0  0
  186.0560  178.6610  145.8970 C   0  0  1  0  0  3  0  0  0  0  0  0
  186.2730  177.9450  144.2350 S   0  0  0  0  0  0  0  0  0  0  0  0
  184.4110  178.9880  142.5210 C   0  0  0  0  0  1  0  0  0  0  0  0
  184.5180  178.2150  143.8200 C   0  0  2  0  0  3  0  0  0  0  0  0
  184.5800  178.6440  146.2190 C   0  0  0  0  0  2  0  0  0  0  0  0
  190.1810  176.3830  137.2200 N   0  0  0  0  0  0  0  0  0  0  0  0
  187.0200  175.3490  135.4520 C   0  0  0  0  0  3  0  0  0  0  0  0
  187.7710  173.5250  136.8510 C   0  0  0  0  0  3  0  0  0  0  0  0
  188.1170  176.1110  135.8620 C   0  0  0  0  0  3  0  0  0  0  0  0
  189.0550  175.5910  136.7720 C   0  0  0  0  0  0  0  0  0  0  0  0
  186.8400  174.0510  135.9450 C   0  0  0  0  0  0  0  0  0  0  0  0
  188.8680  174.2860  137.2640 C   0  0  0  0  0  3  0  0  0  0  0  0
  185.7480  173.2610  135.5610 O   0  0  0  0  0  0  0  0  0  0  0  0
  185.0880  172.3760  136.4640 C   0  0  0  0  0  1  0  0  0  0  0  0
  191.5610  176.0900  136.7970 C   0  0  2  0  0  3  0  0  0  0  0  0
  191.6350  175.7960  135.3060 C   0  0  0  0  0  1  0  0  0  0  0  0
  192.1600  174.9380  137.5920 C   0  0  0  0  0  2  0  0  0  0  0  0
  193.9290  176.2830  138.4190 O   0  0  0  0  0  0  0  0  0  0  0  0
  196.6730  172.5900  136.3670 C   0  0  0  0  0  2  0  0  0  0  0  0
  194.6090  174.2100  137.5680 N   0  0  0  0  0  0  0  0  0  0  0  0
  196.8750  173.2470  137.7330 C   0  0  0  0  0  2  0  0  0  0  0  0
  196.0170  174.5010  137.8700 C   0  0  0  0  0  2  0  0  0  0  0  0
  194.2270  172.9070  137.0270 C   0  0  0  0  0  2  0  0  0  0  0  0
  193.6040  175.1900  137.8810 C   0  0  0  0  0  0  0  0  0  0  0  0
  195.2100  172.4750  135.9400 C   0  0  0  0  0  2  0  0  0  0  0  0
  1  6  1  0  0  0  0
  2  4  1  0  0  0  0
  2  1  1  0  0  0  0
  3  8  1  1  0  0  0
  4 27  1  6  0  0  0
  4  3  1  0  0  0  0
  5  2  2  0  0  0  0
  6  3  1  0  0  0  0
  6  7  1  1  0  0  0
  8  9  1  6  0  0  0
  8 11  1  0  0  0  0
 11 10  1  1  0  0  0
 11 12  1  0  0  0  0
 12 14  1  0  0  0  0
 14 13  1  1  0  0  0
 14 20  1  0  0  0  0
 17 15  1  0  0  0  0
 17 19  2  0  0  0  0
 18 17  1  0  0  0  0
 20 18  1  0  0  0  0
 20 16  2  0  0  0  0
 21 26  1  0  0  0  0
 22 26  1  0  0  0  0
 22 15  1  1  0  0  0
 23 22  1  0  0  0  0
 25 24  1  6  0  0  0
 25 23  1  0  0  0  0
 25 21  1  0  0  0  0
 28 30  2  0  0  0  0
 28 32  1  0  0  0  0
 29 33  1  0  0  0  0
 30 31  1  0  0  0  0
 31 27  1  0  0  0  0
 31 33  2  0  0  0  0
 32 29  2  0  0  0  0
 34 32  1  0  0  0  0
 34 35  1  0  0  0  0
 36 37  1  6  0  0  0
 36 27  1  0  0  0  0
 36 38  1  0  0  0  0
 38 45  1  0  0  0  0
 40 42  1  0  0  0  0
 41 43  1  0  0  0  0
 41 45  1  0  0  0  0
 42 43  1  0  0  0  0
 44 41  1  0  0  0  0
 45 39  2  0  0  0  0
 46 40  1  0  0  0  0
 46 44  1  0  0  0  0
M  END
>  <MODEL>
8

>  <REMARK>
 VINA RESULT:      -7.9      1.647      5.545
  Name = 
  12 active torsions:
  status: ('A' for Active; 'I' for Inactive)
    1  A    between atoms: N_4  and  C_6
    2  A    between atoms: N_4  and  C_25
    3  A    between atoms: N_4  and  C_30
    4  A    between atoms: C_6  and  C_13
    5  A    between atoms: C_7  and  C_17
    6  A    between atoms: C_7  and  C_40
    7  A    between atoms: N_10  and  C_11
    8  A    between atoms: O_12  and  C_35
    9  A    between atoms: C_13  and  C_31
   10  A    between atoms: C_32  and  C_37
   11  A    between atoms: C_32  and  C_40
   12  A    between atoms: C_37  and  C_46
                            x       y       z     vdW  Elec       q    Type
                         _______ _______ _______ _____ _____    ______ ____

>  <TORSDO>
F 12

$$$$
=
 OpenBabel11032420043D

 46 49  0  0  1  0  0  0  0  0999 V2000
  180.2790  175.2060  138.3780 N   0  0  0  0  0  2  0  0  0  0  0  0
  179.8370  176.3570  137.6910 C   0  0  0  0  0  0  0  0  0  0  0  0
  181.0220  177.1700  139.5720 C   0  0  2  0  0  3  0  0  0  0  0  0
  180.2820  177.6270  138.3070 C   0  0  1  0  0  3  0  0  0  0  0  0
  179.0990  176.2930  136.6740 O   0  0  0  0  0  0  0  0  0  0  0  0
  181.0650  175.6170  139.5270 C   0  0  1  0  0  3  0  0  0  0  0  0
  180.5480  175.0250  140.6820 O   0  0  0  0  0  1  0  0  0  0  0  0
  180.3820  177.7450  140.8490 C   0  0  2  0  0  3  0  0  0  0  0  0
  178.9980  177.9190  140.6890 O   0  0  0  0  0  1  0  0  0  0  0  0
  180.0850  180.2540  141.0580 C   0  0  0  0  0  1  0  0  0  0  0  0
  181.0410  179.0720  141.2400 C   0  0  1  0  0  3  0  0  0  0  0  0
  181.5430  179.0030  142.6750 C   0  0  0  0  0  2  0  0  0  0  0  0
  183.7670  178.9820  141.6750 N   0  0  0  0  0  1  0  0  0  0  0  0
  182.9480  178.4280  142.7380 C   0  0  1  0  0  3  0  0  0  0  0  0
  186.9540  177.9460  145.6710 N   0  0  0  0  0  2  0  0  0  0  0  0
  182.9330  179.3720  144.9320 O   0  0  0  0  0  0  0  0  0  0  0  0
  185.6140  178.4180  145.5510 C   0  0  0  0  0  0  0  0  0  0  0  0
  184.8890  178.2250  144.3280 N   0  0  0  0  0  2  0  0  0  0  0  0
  185.0780  178.9980  146.5330 O   0  0  0  0  0  0  0  0  0  0  0  0
  183.5710  178.7150  144.0620 C   0  0  0  0  0  0  0  0  0  0  0  0
  189.8410  176.8870  143.6420 C   0  0  0  0  0  2  0  0  0  0  0  0
  187.6500  177.2700  144.5860 C   0  0  1  0  0  3  0  0  0  0  0  0
  187.5610  178.2590  143.0580 S   0  0  0  0  0  0  0  0  0  0  0  0
  189.3940  177.3360  141.2460 C   0  0  0  0  0  1  0  0  0  0  0  0
  189.3020  177.8990  142.6490 C   0  0  2  0  0  3  0  0  0  0  0  0
  189.1080  177.1020  144.9450 C   0  0  0  0  0  2  0  0  0  0  0  0
  181.1900  178.3860  137.4370 N   0  0  0  0  0  0  0  0  0  0  0  0
  184.3920  176.6170  136.5390 C   0  0  0  0  0  3  0  0  0  0  0  0
  184.8610  178.2840  138.2270 C   0  0  0  0  0  3  0  0  0  0  0  0
  183.0450  176.9880  136.5510 C   0  0  0  0  0  3  0  0  0  0  0  0
  182.5870  178.0110  137.4010 C   0  0  0  0  0  0  0  0  0  0  0  0
  185.3080  177.2620  137.3780 C   0  0  0  0  0  0  0  0  0  0  0  0
  183.5130  178.6550  138.2420 C   0  0  0  0  0  3  0  0  0  0  0  0
  186.6640  176.9120  137.3980 O   0  0  0  0  0  0  0  0  0  0  0  0
  187.6540  177.7120  138.0420 C   0  0  0  0  0  1  0  0  0  0  0  0
  180.6190  179.3690  136.5010 C   0  0  2  0  0  3  0  0  0  0  0  0
  180.9550  179.0240  135.0580 C   0  0  0  0  0  1  0  0  0  0  0  0
  181.0780  180.7840  136.8250 C   0  0  0  0  0  2  0  0  0  0  0  0
  178.9740  180.9400  137.9070 O   0  0  0  0  0  0  0  0  0  0  0  0
  179.8420  185.8540  137.2160 C   0  0  0  0  0  2  0  0  0  0  0  0
  180.0420  182.9980  137.5710 N   0  0  0  0  0  0  0  0  0  0  0  0
  179.3160  185.1740  138.4800 C   0  0  0  0  0  2  0  0  0  0  0  0
  178.9310  183.7240  138.2030 C   0  0  0  0  0  2  0  0  0  0  0  0
  181.2360  183.7160  137.1330 C   0  0  0  0  0  2  0  0  0  0  0  0
  179.9730  181.5650  137.4590 C   0  0  0  0  0  0  0  0  0  0  0  0
  180.8460  185.0140  136.4260 C   0  0  0  0  0  2  0  0  0  0  0  0
  1  6  1  0  0  0  0
  2  4  1  0  0  0  0
  2  1  1  0  0  0  0
  3  8  1  1  0  0  0
  4 27  1  6  0  0  0
  4  3  1  0  0  0  0
  5  2  2  0  0  0  0
  6  3  1  0  0  0  0
  6  7  1  1  0  0  0
  8  9  1  6  0  0  0
  8 11  1  0  0  0  0
 11 10  1  1  0  0  0
 11 12  1  0  0  0  0
 12 14  1  0  0  0  0
 14 13  1  6  0  0  0
 14 20  1  0  0  0  0
 17 15  1  0  0  0  0
 17 19  2  0  0  0  0
 18 17  1  0  0  0  0
 20 18  1  0  0  0  0
 20 16  2  0  0  0  0
 21 26  1  0  0  0  0
 22 26  1  0  0  0  0
 22 15  1  1  0  0  0
 23 22  1  0  0  0  0
 25 24  1  6  0  0  0
 25 23  1  0  0  0  0
 25 21  1  0  0  0  0
 28 30  2  0  0  0  0
 28 32  1  0  0  0  0
 29 33  1  0  0  0  0
 30 31  1  0  0  0  0
 31 27  1  0  0  0  0
 31 33  2  0  0  0  0
 32 34  1  0  0  0  0
 32 29  2  0  0  0  0
 34 35  1  0  0  0  0
 36 37  1  6  0  0  0
 36 38  1  0  0  0  0
 36 27  1  0  0  0  0
 38 45  1  0  0  0  0
 40 42  1  0  0  0  0
 41 43  1  0  0  0  0
 43 42  1  0  0  0  0
 44 41  1  0  0  0  0
 45 41  1  0  0  0  0
 45 39  2  0  0  0  0
 46 44  1  0  0  0  0
 46 40  1  0  0  0  0
M  END
>  <MODEL>
9

>  <REMARK>
 VINA RESULT:      -7.6      4.974      8.467
  Name = 
  12 active torsions:
  status: ('A' for Active; 'I' for Inactive)
    1  A    between atoms: N_4  and  C_6
    2  A    between atoms: N_4  and  C_25
    3  A    between atoms: N_4  and  C_30
    4  A    between atoms: C_6  and  C_13
    5  A    between atoms: C_7  and  C_17
    6  A    between atoms: C_7  and  C_40
    7  A    between atoms: N_10  and  C_11
    8  A    between atoms: O_12  and  C_35
    9  A    between atoms: C_13  and  C_31
   10  A    between atoms: C_32  and  C_37
   11  A    between atoms: C_32  and  C_40
   12  A    between atoms: C_37  and  C_46
                            x       y       z     vdW  Elec       q    Type
                         _______ _______ _______ _____ _____    ______ ____

>  <TORSDO>
F 12

$$$$
