=
 OpenBabel11042411493D

 53 60  0  0  1  0  0  0  0  0999 V2000
  190.0940  178.0440  144.1410 C   0  0  0  0  0  0  0  0  0  0  0  0
  190.9100  179.0070  144.1040 O   0  0  0  0  0  0  0  0  0  0  0  0
  189.7150  177.3920  146.5400 C   0  0  0  0  0  3  0  0  0  0  0  0
  187.8500  178.1950  145.2260 C   0  0  0  0  0  3  0  0  0  0  0  0
  188.8660  177.2100  147.6340 C   0  0  0  0  0  3  0  0  0  0  0  0
  189.2140  177.8820  145.3230 C   0  0  0  0  0  0  0  0  0  0  0  0
  186.9890  178.0090  146.3170 C   0  0  0  0  0  0  0  0  0  0  0  0
  187.5070  177.5120  147.5220 C   0  0  0  0  0  3  0  0  0  0  0  0
  185.5510  178.3000  146.1900 C   0  0  0  0  0  0  0  0  0  0  0  0
  184.9570  178.4080  144.8950 N   0  0  0  0  0  2  0  0  0  0  0  0
  184.8470  178.4770  147.2260 O   0  0  0  0  0  0  0  0  0  0  0  0
  183.5650  178.7940  144.7190 C   0  0  0  0  0  2  0  0  0  0  0  0
  183.3260  179.1400  143.2590 C   0  0  0  0  0  2  0  0  0  0  0  0
  179.4170  178.1030  142.0000 C   0  0  0  0  0  2  0  0  0  0  0  0
  180.9190  178.8110  143.8880 C   0  0  0  0  0  2  0  0  0  0  0  0
  181.5970  179.2550  141.6010 O   0  0  0  0  0  0  0  0  0  0  0  0
  180.5100  178.5570  141.0110 C   0  0  1  0  0  3  0  0  0  0  0  0
  179.5130  178.9080  143.2940 C   0  0  0  0  0  2  0  0  0  0  0  0
  181.9820  178.6060  142.7940 C   0  0  1  0  0  3  0  0  0  0  0  0
  181.4770  174.3620  137.9080 O   0  0  0  0  0  1  0  0  0  0  0  0
  180.0650  176.2040  140.0870 C   0  0  0  0  0  2  0  0  0  0  0  0
  181.9860  175.6610  137.9110 C   0  0  1  0  0  3  0  0  0  0  0  0
  180.8490  176.6680  137.6710 C   0  0  0  0  0  2  0  0  0  0  0  0
  182.4840  177.2060  139.8860 C   0  0  0  0  0  2  0  0  0  0  0  0
  182.7990  175.8850  139.1880 C   0  0  0  0  0  2  0  0  0  0  0  0
  180.9790  177.4190  140.1080 C   0  0  2  0  0  0  0  0  0  0  0  0
  180.0770  177.1780  138.9080 C   0  0  2  0  0  3  0  0  0  0  0  0
  190.0590  177.1020  142.9680 C   0  0  2  0  0  3  0  0  0  0  0  0
  191.3640  176.3060  142.8330 C   0  0  2  0  0  3  0  0  0  0  0  0
  191.8460  175.8900  144.1390 N   0  0  0  0  0  1  0  0  0  0  0  0
  192.3400  177.0690  142.2120 F   0  0  0  0  0  0  0  0  0  0  0  0
  189.7590  177.8480  141.7500 N   0  0  0  0  0  2  0  0  0  0  0  0
  188.3740  177.5880  141.3680 C   0  0  1  0  0  3  0  0  0  0  0  0
  187.5570  178.8600  141.4930 C   0  0  0  0  0  1  0  0  0  0  0  0
  188.3220  177.1340  139.9850 N   0  0  0  0  0  2  0  0  0  0  0  0
  191.8910  175.4080  137.1020 C   0  0  2  0  0  3  0  0  0  0  0  0
  188.9700  178.7360  137.9310 S   0  0  0  0  0  0  0  0  0  0  0  0
  189.4990  177.6470  139.2990 C   0  0  2  0  0  3  0  0  0  0  0  0
  190.1020  176.5720  138.4100 C   0  0  1  0  0  0  0  0  0  0  0  0
  189.7600  176.8040  135.9760 C   0  0  0  0  0  2  0  0  0  0  0  0
  191.0050  175.8130  139.2330 O   0  0  0  0  0  0  0  0  0  0  0  0
  191.2960  175.9600  135.4380 S   0  0  0  0  0  0  0  0  0  0  0  0
  190.1290  177.5350  137.2430 C   0  0  1  0  0  3  0  0  0  0  0  0
  191.6120  176.4470  138.2130 C   0  0  1  0  0  3  0  0  0  0  0  0
  193.3110  175.0970  137.0420 N   0  0  0  0  0  2  0  0  0  0  0  0
  193.4230  173.6490  136.9750 C   0  0  0  0  0  2  0  0  0  0  0  0
  195.6690  173.6120  137.9690 C   0  0  0  0  0  0  0  0  0  0  0  0
  197.2350  176.1450  136.1270 O   0  0  0  0  0  0  0  0  0  0  0  0
  195.5480  172.9950  139.0600 O   0  0  0  0  0  0  0  0  0  0  0  0
  195.5530  174.2070  135.3540 S   0  0  0  0  0  0  0  0  0  0  0  0
  196.5860  174.6800  137.8250 N   0  0  0  0  0  2  0  0  0  0  0  0
  194.8710  173.2490  136.7630 C   0  0  2  0  0  3  0  0  0  0  0  0
  196.5730  175.1350  136.4870 C   0  0  0  0  0  0  0  0  0  0  0  0
  1  6  1  0  0  0  0
  2  1  2  0  0  0  0
  3  5  1  0  0  0  0
  4  6  1  0  0  0  0
  4  7  2  0  0  0  0
  6  3  2  0  0  0  0
  7  8  1  0  0  0  0
  8  5  2  0  0  0  0
  9  7  1  0  0  0  0
  9 11  2  0  0  0  0
 10  9  1  0  0  0  0
 12 10  1  0  0  0  0
 13 12  1  0  0  0  0
 14 18  1  0  0  0  0
 16 19  1  0  0  0  0
 17 16  1  0  0  0  0
 17 14  1  1  0  0  0
 18 15  1  0  0  0  0
 19 13  1  1  0  0  0
 19 15  1  0  0  0  0
 21 26  1  0  0  0  0
 22 20  1  1  0  0  0
 22 25  1  0  0  0  0
 23 22  1  0  0  0  0
 25 24  1  0  0  0  0
 26 24  1  6  0  0  0
 26 17  1  0  0  0  0
 27 23  1  6  0  0  0
 27 21  1  0  0  0  0
 27 26  1  0  0  0  0
 28 32  1  6  0  0  0
 28  1  1  0  0  0  0
 29 31  1  1  0  0  0
 29 28  1  0  0  0  0
 29 30  1  0  0  0  0
 33 34  1  6  0  0  0
 33 32  1  0  0  0  0
 35 33  1  0  0  0  0
 36 45  1  6  0  0  0
 36 44  1  0  0  0  0
 37 38  1  0  0  0  0
 38 35  1  6  0  0  0
 39 41  1  6  0  0  0
 39 38  1  0  0  0  0
 42 40  1  0  0  0  0
 42 36  1  0  0  0  0
 43 40  1  6  0  0  0
 43 37  1  0  0  0  0
 43 39  1  0  0  0  0
 44 39  1  0  0  0  0
 44 41  1  1  0  0  0
 46 45  1  0  0  0  0
 47 49  2  0  0  0  0
 48 53  2  0  0  0  0
 50 53  1  0  0  0  0
 50 52  1  0  0  0  0
 51 47  1  0  0  0  0
 52 46  1  1  0  0  0
 52 47  1  0  0  0  0
 53 51  1  0  0  0  0
M  END
>  <MODEL>
1

>  <REMARK>
 VINA RESULT:      -9.4      0.000      0.000
  Name = 
  15 active torsions:
  status: ('A' for Active; 'I' for Inactive)
    1  A    between atoms: C_2  and  N_4
    2  A    between atoms: C_2  and  N_9
    3  A    between atoms: C_3  and  N_51
    4  A    between atoms: N_4  and  C_13
    5  A    between atoms: N_9  and  C_18
    6  A    between atoms: C_13  and  C_17
    7  A    between atoms: C_13  and  C_39
    8  A    between atoms: C_20  and  C_39
    9  A    between atoms: C_21  and  C_27
   10  A    between atoms: N_29  and  C_52
   11  A    between atoms: C_34  and  C_35
   12  A    between atoms: C_37  and  C_44
   13  A    between atoms: C_44  and  C_52
   14  A    between atoms: C_48  and  C_53
   15  A    between atoms: N_51  and  C_53
                            x       y       z     vdW  Elec       q    Type
                         _______ _______ _______ _____ _____    ______ ____

>  <TORSDO>
F 15

$$$$
=
 OpenBabel11042411493D

 53 60  0  0  1  0  0  0  0  0999 V2000
  188.1690  176.8170  143.5260 C   0  0  0  0  0  0  0  0  0  0  0  0
  188.1360  175.5750  143.3000 O   0  0  0  0  0  0  0  0  0  0  0  0
  186.8480  177.8140  145.4200 C   0  0  0  0  0  3  0  0  0  0  0  0
  185.8940  177.7930  143.1970 C   0  0  0  0  0  3  0  0  0  0  0  0
  185.6880  178.4170  145.9120 C   0  0  0  0  0  3  0  0  0  0  0  0
  186.9610  177.4920  144.0580 C   0  0  0  0  0  0  0  0  0  0  0  0
  184.7230  178.3920  143.6840 C   0  0  0  0  0  0  0  0  0  0  0  0
  184.6270  178.7000  145.0490 C   0  0  0  0  0  3  0  0  0  0  0  0
  183.5930  178.6650  142.7790 C   0  0  0  0  0  0  0  0  0  0  0  0
  183.6370  178.2060  141.4260 N   0  0  0  0  0  2  0  0  0  0  0  0
  182.5970  179.3240  143.1920 O   0  0  0  0  0  0  0  0  0  0  0  0
  182.5920  178.5380  140.4700 C   0  0  0  0  0  2  0  0  0  0  0  0
  183.1080  179.6070  139.5220 C   0  0  0  0  0  2  0  0  0  0  0  0
  180.7360  179.1400  136.0430 C   0  0  0  0  0  2  0  0  0  0  0  0
  182.5750  178.2260  137.4950 C   0  0  0  0  0  2  0  0  0  0  0  0
  180.9710  179.7770  138.4470 O   0  0  0  0  0  0  0  0  0  0  0  0
  180.3100  180.0440  137.2180 C   0  0  1  0  0  3  0  0  0  0  0  0
  181.4080  177.8740  136.5720 C   0  0  0  0  0  2  0  0  0  0  0  0
  182.3470  179.5710  138.2070 C   0  0  1  0  0  3  0  0  0  0  0  0
  180.0960  185.3020  136.5340 O   0  0  0  0  0  1  0  0  0  0  0  0
  179.3310  182.3900  137.5690 C   0  0  0  0  0  2  0  0  0  0  0  0
  181.0720  184.3560  136.2180 C   0  0  1  0  0  3  0  0  0  0  0  0
  181.5720  183.6730  137.5020 C   0  0  0  0  0  2  0  0  0  0  0  0
  180.7980  181.9370  135.4380 C   0  0  0  0  0  2  0  0  0  0  0  0
  180.5340  183.4110  135.1410 C   0  0  0  0  0  2  0  0  0  0  0  0
  180.3540  181.5250  136.8500 C   0  0  2  0  0  0  0  0  0  0  0  0
  180.8020  182.4260  137.9900 C   0  0  2  0  0  3  0  0  0  0  0  0
  189.4490  177.5530  143.2390 C   0  0  2  0  0  3  0  0  0  0  0  0
  189.9090  178.3930  144.4390 C   0  0  2  0  0  3  0  0  0  0  0  0
  190.9360  179.3390  144.0360 N   0  0  0  0  0  1  0  0  0  0  0  0
  190.4110  177.5790  145.4420 F   0  0  0  0  0  0  0  0  0  0  0  0
  189.2840  178.3740  142.0430 N   0  0  0  0  0  2  0  0  0  0  0  0
  190.0550  177.7790  140.9550 C   0  0  1  0  0  3  0  0  0  0  0  0
  191.1180  176.8560  141.5200 C   0  0  0  0  0  1  0  0  0  0  0  0
  189.1730  177.0040  140.0940 N   0  0  0  0  0  2  0  0  0  0  0  0
  191.1310  174.2010  136.5800 C   0  0  2  0  0  3  0  0  0  0  0  0
  188.1990  177.4550  137.6330 S   0  0  0  0  0  0  0  0  0  0  0  0
  189.6350  177.1570  138.7220 C   0  0  2  0  0  3  0  0  0  0  0  0
  189.9930  175.8040  138.1310 C   0  0  1  0  0  0  0  0  0  0  0  0
  188.4230  174.8470  136.4840 C   0  0  0  0  0  2  0  0  0  0  0  0
  191.3640  175.5470  138.4840 O   0  0  0  0  0  0  0  0  0  0  0  0
  189.6490  173.8850  135.5170 S   0  0  0  0  0  0  0  0  0  0  0  0
  189.1470  176.0990  136.9110 C   0  0  1  0  0  3  0  0  0  0  0  0
  191.1590  175.6360  137.1570 C   0  0  1  0  0  3  0  0  0  0  0  0
  192.3470  173.9320  135.8280 N   0  0  0  0  0  2  0  0  0  0  0  0
  193.0060  172.8120  136.4790 C   0  0  0  0  0  2  0  0  0  0  0  0
  195.0840  172.2480  137.6620 C   0  0  0  0  0  0  0  0  0  0  0  0
  195.6010  175.1830  139.5010 O   0  0  0  0  0  0  0  0  0  0  0  0
  195.1910  170.9950  137.5860 O   0  0  0  0  0  0  0  0  0  0  0  0
  194.7890  174.8250  136.9710 S   0  0  0  0  0  0  0  0  0  0  0  0
  195.5300  172.9560  138.8030 N   0  0  0  0  0  2  0  0  0  0  0  0
  194.5010  173.0610  136.5560 C   0  0  2  0  0  3  0  0  0  0  0  0
  195.3650  174.3440  138.5900 C   0  0  0  0  0  0  0  0  0  0  0  0
  1  6  1  0  0  0  0
  2  1  2  0  0  0  0
  3  5  1  0  0  0  0
  4  7  2  0  0  0  0
  4  6  1  0  0  0  0
  6  3  2  0  0  0  0
  7  8  1  0  0  0  0
  8  5  2  0  0  0  0
  9 11  2  0  0  0  0
  9  7  1  0  0  0  0
 10  9  1  0  0  0  0
 12 10  1  0  0  0  0
 13 12  1  0  0  0  0
 14 18  1  0  0  0  0
 15 19  1  0  0  0  0
 17 14  1  6  0  0  0
 17 16  1  0  0  0  0
 18 15  1  0  0  0  0
 19 16  1  0  0  0  0
 19 13  1  1  0  0  0
 21 27  1  0  0  0  0
 22 20  1  1  0  0  0
 22 23  1  0  0  0  0
 25 24  1  0  0  0  0
 25 22  1  0  0  0  0
 26 24  1  6  0  0  0
 26 17  1  0  0  0  0
 26 21  1  0  0  0  0
 26 27  1  0  0  0  0
 27 23  1  6  0  0  0
 28 32  1  6  0  0  0
 28  1  1  0  0  0  0
 28 29  1  0  0  0  0
 29 30  1  6  0  0  0
 29 31  1  0  0  0  0
 33 34  1  1  0  0  0
 33 32  1  0  0  0  0
 35 33  1  0  0  0  0
 36 45  1  6  0  0  0
 36 44  1  0  0  0  0
 37 38  1  0  0  0  0
 38 35  1  1  0  0  0
 39 41  1  1  0  0  0
 39 38  1  0  0  0  0
 42 40  1  0  0  0  0
 42 36  1  0  0  0  0
 43 40  1  1  0  0  0
 43 37  1  0  0  0  0
 43 39  1  0  0  0  0
 44 39  1  0  0  0  0
 44 41  1  1  0  0  0
 45 46  1  0  0  0  0
 47 51  1  0  0  0  0
 49 47  2  0  0  0  0
 50 53  1  0  0  0  0
 52 46  1  1  0  0  0
 52 50  1  0  0  0  0
 52 47  1  0  0  0  0
 53 51  1  0  0  0  0
 53 48  2  0  0  0  0
M  END
>  <MODEL>
2

>  <REMARK>
 VINA RESULT:      -8.7      3.112      4.262
  Name = 
  15 active torsions:
  status: ('A' for Active; 'I' for Inactive)
    1  A    between atoms: C_2  and  N_4
    2  A    between atoms: C_2  and  N_9
    3  A    between atoms: C_3  and  N_51
    4  A    between atoms: N_4  and  C_13
    5  A    between atoms: N_9  and  C_18
    6  A    between atoms: C_13  and  C_17
    7  A    between atoms: C_13  and  C_39
    8  A    between atoms: C_20  and  C_39
    9  A    between atoms: C_21  and  C_27
   10  A    between atoms: N_29  and  C_52
   11  A    between atoms: C_34  and  C_35
   12  A    between atoms: C_37  and  C_44
   13  A    between atoms: C_44  and  C_52
   14  A    between atoms: C_48  and  C_53
   15  A    between atoms: N_51  and  C_53
                            x       y       z     vdW  Elec       q    Type
                         _______ _______ _______ _____ _____    ______ ____

>  <TORSDO>
F 15

$$$$
=
 OpenBabel11042411493D

 53 60  0  0  1  0  0  0  0  0999 V2000
  189.8780  176.6650  143.2780 C   0  0  0  0  0  0  0  0  0  0  0  0
  189.0330  175.7410  143.4380 O   0  0  0  0  0  0  0  0  0  0  0  0
  191.6840  177.0890  141.5800 C   0  0  0  0  0  3  0  0  0  0  0  0
  189.3680  177.3100  140.9190 C   0  0  0  0  0  3  0  0  0  0  0  0
  192.0860  177.4570  140.2940 C   0  0  0  0  0  3  0  0  0  0  0  0
  190.3210  177.0160  141.9070 C   0  0  0  0  0  0  0  0  0  0  0  0
  189.7620  177.6870  139.6270 C   0  0  0  0  0  0  0  0  0  0  0  0
  191.1290  177.7600  139.3220 C   0  0  0  0  0  3  0  0  0  0  0  0
  188.7530  178.0330  138.6120 C   0  0  0  0  0  0  0  0  0  0  0  0
  189.0250  177.7990  137.2290 N   0  0  0  0  0  2  0  0  0  0  0  0
  187.6580  178.5590  138.9620 O   0  0  0  0  0  0  0  0  0  0  0  0
  188.1020  178.2190  136.1850 C   0  0  0  0  0  2  0  0  0  0  0  0
  187.7710  177.0240  135.3060 C   0  0  0  0  0  2  0  0  0  0  0  0
  189.1350  173.2300  136.6040 C   0  0  0  0  0  2  0  0  0  0  0  0
  187.2000  174.8160  136.3530 C   0  0  0  0  0  2  0  0  0  0  0  0
  189.1580  175.1010  134.9490 O   0  0  0  0  0  0  0  0  0  0  0  0
  189.9190  174.0870  135.5900 C   0  0  1  0  0  3  0  0  0  0  0  0
  187.6340  173.3500  136.3430 C   0  0  0  0  0  2  0  0  0  0  0  0
  188.3390  175.7470  135.9000 C   0  0  1  0  0  3  0  0  0  0  0  0
  194.2620  175.6260  138.2220 O   0  0  0  0  0  1  0  0  0  0  0  0
  191.2970  174.5930  137.6950 C   0  0  0  0  0  2  0  0  0  0  0  0
  194.0420  175.3150  136.8790 C   0  0  1  0  0  3  0  0  0  0  0  0
  193.5840  173.8520  136.7510 C   0  0  0  0  0  2  0  0  0  0  0  0
  191.9790  175.7360  135.4300 C   0  0  0  0  0  2  0  0  0  0  0  0
  193.0990  176.3520  136.2640 C   0  0  0  0  0  2  0  0  0  0  0  0
  191.2200  174.6280  136.1770 C   0  0  2  0  0  0  0  0  0  0  0  0
  192.0700  173.5690  136.8620 C   0  0  2  0  0  3  0  0  0  0  0  0
  190.3960  177.3690  144.5020 C   0  0  2  0  0  3  0  0  0  0  0  0
  191.1020  176.4030  145.4640 C   0  0  2  0  0  3  0  0  0  0  0  0
  191.9720  177.1310  146.3720 N   0  0  0  0  0  1  0  0  0  0  0  0
  191.8550  175.4770  144.7590 F   0  0  0  0  0  0  0  0  0  0  0  0
  189.3010  178.0750  145.1620 N   0  0  0  0  0  2  0  0  0  0  0  0
  188.6520  177.1650  146.0990 C   0  0  1  0  0  3  0  0  0  0  0  0
  188.7820  177.7010  147.5130 C   0  0  0  0  0  1  0  0  0  0  0  0
  187.2370  177.0480  145.7730 N   0  0  0  0  0  2  0  0  0  0  0  0
  184.4050  178.5220  142.0530 C   0  0  2  0  0  3  0  0  0  0  0  0
  185.6850  179.1670  146.3240 S   0  0  0  0  0  0  0  0  0  0  0  0
  186.8090  178.3030  145.1730 C   0  0  2  0  0  3  0  0  0  0  0  0
  185.7610  178.0470  144.1030 C   0  0  1  0  0  0  0  0  0  0  0  0
  183.4260  178.6210  144.6580 C   0  0  0  0  0  2  0  0  0  0  0  0
  186.4730  177.7910  142.8790 O   0  0  0  0  0  0  0  0  0  0  0  0
  182.8630  179.0060  142.9550 S   0  0  0  0  0  0  0  0  0  0  0  0
  184.8570  179.0910  144.7210 C   0  0  1  0  0  3  0  0  0  0  0  0
  185.6930  178.8870  142.8280 C   0  0  1  0  0  3  0  0  0  0  0  0
  184.4180  179.1310  140.7320 N   0  0  0  0  0  2  0  0  0  0  0  0
  183.3520  178.5040  139.9680 C   0  0  0  0  0  2  0  0  0  0  0  0
  182.1960  178.8380  137.8260 C   0  0  0  0  0  0  0  0  0  0  0  0
  182.9400  175.8210  136.2100 O   0  0  0  0  0  0  0  0  0  0  0  0
  181.3840  179.7800  138.0200 O   0  0  0  0  0  0  0  0  0  0  0  0
  184.4730  177.4190  137.7220 S   0  0  0  0  0  0  0  0  0  0  0  0
  181.8890  177.7710  136.9490 N   0  0  0  0  0  2  0  0  0  0  0  0
  183.5310  178.7950  138.4890 C   0  0  2  0  0  3  0  0  0  0  0  0
  183.0000  176.9020  136.8570 C   0  0  0  0  0  0  0  0  0  0  0  0
  1  2  2  0  0  0  0
  3  6  1  0  0  0  0
  4  6  2  0  0  0  0
  5  3  2  0  0  0  0
  6  1  1  0  0  0  0
  7  4  1  0  0  0  0
  8  7  2  0  0  0  0
  8  5  1  0  0  0  0
  9 11  2  0  0  0  0
  9  7  1  0  0  0  0
 10  9  1  0  0  0  0
 12 10  1  0  0  0  0
 13 12  1  0  0  0  0
 16 17  1  0  0  0  0
 16 19  1  0  0  0  0
 17 26  1  0  0  0  0
 17 14  1  1  0  0  0
 18 15  1  0  0  0  0
 18 14  1  0  0  0  0
 19 13  1  6  0  0  0
 19 15  1  0  0  0  0
 22 20  1  1  0  0  0
 23 22  1  0  0  0  0
 24 25  1  0  0  0  0
 25 22  1  0  0  0  0
 26 24  1  6  0  0  0
 26 27  1  0  0  0  0
 26 21  1  0  0  0  0
 27 23  1  6  0  0  0
 27 21  1  0  0  0  0
 28  1  1  6  0  0  0
 28 32  1  0  0  0  0
 28 29  1  0  0  0  0
 29 31  1  6  0  0  0
 29 30  1  0  0  0  0
 32 33  1  0  0  0  0
 33 34  1  1  0  0  0
 35 33  1  0  0  0  0
 36 45  1  6  0  0  0
 36 44  1  0  0  0  0
 36 42  1  0  0  0  0
 38 35  1  1  0  0  0
 38 37  1  0  0  0  0
 39 41  1  6  0  0  0
 39 43  1  0  0  0  0
 39 38  1  0  0  0  0
 42 40  1  0  0  0  0
 43 40  1  1  0  0  0
 43 37  1  0  0  0  0
 44 41  1  6  0  0  0
 44 39  1  0  0  0  0
 46 45  1  0  0  0  0
 47 49  2  0  0  0  0
 47 52  1  0  0  0  0
 48 53  2  0  0  0  0
 50 52  1  0  0  0  0
 51 47  1  0  0  0  0
 52 46  1  1  0  0  0
 53 51  1  0  0  0  0
 53 50  1  0  0  0  0
M  END
>  <MODEL>
3

>  <REMARK>
 VINA RESULT:      -8.5      3.371      9.743
  Name = 
  15 active torsions:
  status: ('A' for Active; 'I' for Inactive)
    1  A    between atoms: C_2  and  N_4
    2  A    between atoms: C_2  and  N_9
    3  A    between atoms: C_3  and  N_51
    4  A    between atoms: N_4  and  C_13
    5  A    between atoms: N_9  and  C_18
    6  A    between atoms: C_13  and  C_17
    7  A    between atoms: C_13  and  C_39
    8  A    between atoms: C_20  and  C_39
    9  A    between atoms: C_21  and  C_27
   10  A    between atoms: N_29  and  C_52
   11  A    between atoms: C_34  and  C_35
   12  A    between atoms: C_37  and  C_44
   13  A    between atoms: C_44  and  C_52
   14  A    between atoms: C_48  and  C_53
   15  A    between atoms: N_51  and  C_53
                            x       y       z     vdW  Elec       q    Type
                         _______ _______ _______ _____ _____    ______ ____

>  <TORSDO>
F 15

$$$$
=
 OpenBabel11042411493D

 53 60  0  0  1  0  0  0  0  0999 V2000
  189.7010  176.7640  144.0750 C   0  0  0  0  0  0  0  0  0  0  0  0
  190.2500  175.6300  144.1580 O   0  0  0  0  0  0  0  0  0  0  0  0
  189.5010  177.3890  146.5030 C   0  0  0  0  0  3  0  0  0  0  0  0
  187.5800  177.6470  145.0550 C   0  0  0  0  0  3  0  0  0  0  0  0
  188.7450  177.8440  147.5860 C   0  0  0  0  0  3  0  0  0  0  0  0
  188.9240  177.2820  145.2270 C   0  0  0  0  0  0  0  0  0  0  0  0
  186.8120  178.0980  146.1380 C   0  0  0  0  0  0  0  0  0  0  0  0
  187.4040  178.1920  147.4060 C   0  0  0  0  0  3  0  0  0  0  0  0
  185.3910  178.4380  145.9540 C   0  0  0  0  0  0  0  0  0  0  0  0
  184.8890  178.7160  144.6460 N   0  0  0  0  0  2  0  0  0  0  0  0
  184.6220  178.5060  146.9560 O   0  0  0  0  0  0  0  0  0  0  0  0
  183.5180  179.1540  144.4280 C   0  0  0  0  0  2  0  0  0  0  0  0
  183.1660  178.9730  142.9610 C   0  0  0  0  0  2  0  0  0  0  0  0
  178.9330  178.9920  142.8170 C   0  0  0  0  0  2  0  0  0  0  0  0
  181.0100  178.2980  144.0520 C   0  0  0  0  0  2  0  0  0  0  0  0
  181.1260  180.1370  142.4750 O   0  0  0  0  0  0  0  0  0  0  0  0
  179.7910  179.9910  142.0130 C   0  0  1  0  0  3  0  0  0  0  0  0
  179.5560  178.7520  144.1900 C   0  0  0  0  0  2  0  0  0  0  0  0
  181.6610  178.8670  142.7800 C   0  0  1  0  0  3  0  0  0  0  0  0
  179.6210  179.7740  136.7140 O   0  0  0  0  0  1  0  0  0  0  0  0
  179.3740  180.9410  139.6650 C   0  0  0  0  0  2  0  0  0  0  0  0
  180.1610  178.9110  137.6690 C   0  0  1  0  0  3  0  0  0  0  0  0
  181.2560  179.6380  138.4680 C   0  0  0  0  0  2  0  0  0  0  0  0
  179.3050  178.3370  140.0080 C   0  0  0  0  0  2  0  0  0  0  0  0
  179.0300  178.3090  138.5070 C   0  0  0  0  0  2  0  0  0  0  0  0
  179.7260  179.7270  140.5110 C   0  0  2  0  0  0  0  0  0  0  0  0
  180.8160  180.4310  139.7180 C   0  0  2  0  0  3  0  0  0  0  0  0
  189.8670  177.5380  142.7960 C   0  0  2  0  0  3  0  0  0  0  0  0
  191.2280  178.2450  142.7250 C   0  0  2  0  0  3  0  0  0  0  0  0
  192.2640  177.3160  142.3080 N   0  0  0  0  0  1  0  0  0  0  0  0
  191.5660  178.7770  143.9600 F   0  0  0  0  0  0  0  0  0  0  0  0
  188.7640  178.4840  142.6490 N   0  0  0  0  0  2  0  0  0  0  0  0
  187.9150  178.0490  141.5440 C   0  0  1  0  0  3  0  0  0  0  0  0
  186.5680  178.7410  141.6270 C   0  0  0  0  0  1  0  0  0  0  0  0
  188.5410  178.3960  140.2760 N   0  0  0  0  0  2  0  0  0  0  0  0
  186.8620  177.6730  135.7280 C   0  0  2  0  0  3  0  0  0  0  0  0
  189.9790  176.6590  138.8180 S   0  0  0  0  0  0  0  0  0  0  0  0
  188.3480  177.2800  139.3600 C   0  0  2  0  0  3  0  0  0  0  0  0
  187.9190  177.7870  137.9940 C   0  0  1  0  0  0  0  0  0  0  0  0
  189.6070  177.7310  136.1930 C   0  0  0  0  0  2  0  0  0  0  0  0
  186.4860  177.9080  138.0280 O   0  0  0  0  0  0  0  0  0  0  0  0
  188.4490  177.5200  134.7870 S   0  0  0  0  0  0  0  0  0  0  0  0
  188.9960  176.9540  137.3330 C   0  0  1  0  0  3  0  0  0  0  0  0
  186.9280  177.0140  137.1250 C   0  0  1  0  0  3  0  0  0  0  0  0
  185.7690  177.1070  134.9510 N   0  0  0  0  0  2  0  0  0  0  0  0
  185.6010  175.7340  135.3980 C   0  0  0  0  0  2  0  0  0  0  0  0
  183.4870  175.6130  136.6430 C   0  0  0  0  0  0  0  0  0  0  0  0
  183.2640  172.1650  137.2110 O   0  0  0  0  0  0  0  0  0  0  0  0
  183.2610  176.7850  137.0460 O   0  0  0  0  0  0  0  0  0  0  0  0
  184.0200  173.5330  135.0330 S   0  0  0  0  0  0  0  0  0  0  0  0
  183.1180  174.4870  137.4150 N   0  0  0  0  0  2  0  0  0  0  0  0
  184.1370  175.3400  135.3290 C   0  0  2  0  0  3  0  0  0  0  0  0
  183.4120  173.3060  136.6950 C   0  0  0  0  0  0  0  0  0  0  0  0
  1  2  2  0  0  0  0
  1  6  1  0  0  0  0
  3  5  1  0  0  0  0
  4  6  1  0  0  0  0
  4  7  2  0  0  0  0
  6  3  2  0  0  0  0
  7  8  1  0  0  0  0
  8  5  2  0  0  0  0
  9  7  1  0  0  0  0
  9 11  2  0  0  0  0
 10  9  1  0  0  0  0
 12 10  1  0  0  0  0
 13 12  1  0  0  0  0
 14 18  1  0  0  0  0
 15 18  1  0  0  0  0
 16 19  1  0  0  0  0
 17 16  1  0  0  0  0
 17 14  1  1  0  0  0
 19 13  1  1  0  0  0
 19 15  1  0  0  0  0
 21 27  1  0  0  0  0
 22 20  1  6  0  0  0
 22 23  1  0  0  0  0
 22 25  1  0  0  0  0
 24 26  1  0  0  0  0
 25 24  1  0  0  0  0
 26 21  1  6  0  0  0
 26 17  1  0  0  0  0
 27 23  1  6  0  0  0
 27 26  1  0  0  0  0
 28 32  1  1  0  0  0
 28  1  1  0  0  0  0
 29 30  1  1  0  0  0
 29 28  1  0  0  0  0
 29 31  1  0  0  0  0
 33 34  1  1  0  0  0
 33 32  1  0  0  0  0
 35 33  1  0  0  0  0
 36 45  1  6  0  0  0
 36 44  1  0  0  0  0
 37 38  1  0  0  0  0
 38 35  1  1  0  0  0
 39 41  1  6  0  0  0
 39 38  1  0  0  0  0
 42 36  1  0  0  0  0
 42 40  1  0  0  0  0
 43 40  1  6  0  0  0
 43 39  1  0  0  0  0
 43 37  1  0  0  0  0
 44 39  1  0  0  0  0
 44 41  1  1  0  0  0
 45 46  1  0  0  0  0
 47 49  2  0  0  0  0
 47 51  1  0  0  0  0
 50 52  1  0  0  0  0
 50 53  1  0  0  0  0
 52 46  1  1  0  0  0
 52 47  1  0  0  0  0
 53 48  2  0  0  0  0
 53 51  1  0  0  0  0
M  END
>  <MODEL>
4

>  <REMARK>
 VINA RESULT:      -8.3      3.503      5.442
  Name = 
  15 active torsions:
  status: ('A' for Active; 'I' for Inactive)
    1  A    between atoms: C_2  and  N_4
    2  A    between atoms: C_2  and  N_9
    3  A    between atoms: C_3  and  N_51
    4  A    between atoms: N_4  and  C_13
    5  A    between atoms: N_9  and  C_18
    6  A    between atoms: C_13  and  C_17
    7  A    between atoms: C_13  and  C_39
    8  A    between atoms: C_20  and  C_39
    9  A    between atoms: C_21  and  C_27
   10  A    between atoms: N_29  and  C_52
   11  A    between atoms: C_34  and  C_35
   12  A    between atoms: C_37  and  C_44
   13  A    between atoms: C_44  and  C_52
   14  A    between atoms: C_48  and  C_53
   15  A    between atoms: N_51  and  C_53
                            x       y       z     vdW  Elec       q    Type
                         _______ _______ _______ _____ _____    ______ ____

>  <TORSDO>
F 15

$$$$
=
 OpenBabel11042411493D

 53 60  0  0  1  0  0  0  0  0999 V2000
  187.8670  176.8180  143.7770 C   0  0  0  0  0  0  0  0  0  0  0  0
  187.7270  175.6050  143.4540 O   0  0  0  0  0  0  0  0  0  0  0  0
  186.7150  177.8520  145.7590 C   0  0  0  0  0  3  0  0  0  0  0  0
  185.6270  177.9080  143.5990 C   0  0  0  0  0  3  0  0  0  0  0  0
  185.6180  178.5040  146.3280 C   0  0  0  0  0  3  0  0  0  0  0  0
  186.7280  177.5440  144.3890 C   0  0  0  0  0  0  0  0  0  0  0  0
  184.5200  178.5570  144.1640 C   0  0  0  0  0  0  0  0  0  0  0  0
  184.5220  178.8500  145.5350 C   0  0  0  0  0  3  0  0  0  0  0  0
  183.3520  178.8970  143.3320 C   0  0  0  0  0  0  0  0  0  0  0  0
  183.3110  178.4940  141.9620 N   0  0  0  0  0  2  0  0  0  0  0  0
  182.3980  179.5650  143.8250 O   0  0  0  0  0  0  0  0  0  0  0  0
  182.2270  178.8940  141.0780 C   0  0  0  0  0  2  0  0  0  0  0  0
  181.0330  177.9840  141.3120 C   0  0  0  0  0  2  0  0  0  0  0  0
  180.1570  175.4320  138.0460 C   0  0  0  0  0  2  0  0  0  0  0  0
  179.7110  176.0340  140.4470 C   0  0  0  0  0  2  0  0  0  0  0  0
  180.6550  177.7030  138.9600 O   0  0  0  0  0  0  0  0  0  0  0  0
  180.8090  176.8170  137.8600 C   0  0  1  0  0  3  0  0  0  0  0  0
  179.1040  175.4920  139.1510 C   0  0  0  0  0  2  0  0  0  0  0  0
  180.8750  177.0000  140.1650 C   0  0  1  0  0  3  0  0  0  0  0  0
  185.7270  177.0260  135.8780 O   0  0  0  0  0  1  0  0  0  0  0  0
  182.5860  177.4790  136.1300 C   0  0  0  0  0  2  0  0  0  0  0  0
  185.2370  176.6380  137.1250 C   0  0  1  0  0  3  0  0  0  0  0  0
  184.5270  177.8250  137.7990 C   0  0  0  0  0  2  0  0  0  0  0  0
  183.0580  175.4360  137.7120 C   0  0  0  0  0  2  0  0  0  0  0  0
  184.3900  175.3730  136.9670 C   0  0  0  0  0  2  0  0  0  0  0  0
  182.2620  176.7130  137.4030 C   0  0  2  0  0  0  0  0  0  0  0  0
  183.0270  178.0250  137.4900 C   0  0  2  0  0  3  0  0  0  0  0  0
  189.1990  177.4680  143.5210 C   0  0  2  0  0  3  0  0  0  0  0  0
  189.6740  178.2970  144.7230 C   0  0  2  0  0  3  0  0  0  0  0  0
  190.7370  179.2050  144.3280 N   0  0  0  0  0  1  0  0  0  0  0  0
  190.1350  177.4700  145.7350 F   0  0  0  0  0  0  0  0  0  0  0  0
  189.1240  178.2770  142.3080 N   0  0  0  0  0  2  0  0  0  0  0  0
  189.9760  177.6760  141.2870 C   0  0  1  0  0  3  0  0  0  0  0  0
  190.6100  176.4080  141.8260 C   0  0  0  0  0  1  0  0  0  0  0  0
  189.1780  177.3380  140.1160 N   0  0  0  0  0  2  0  0  0  0  0  0
  191.3750  174.7630  136.5700 C   0  0  2  0  0  3  0  0  0  0  0  0
  188.9430  178.3950  137.6600 S   0  0  0  0  0  0  0  0  0  0  0  0
  189.9840  177.6000  138.9330 C   0  0  2  0  0  3  0  0  0  0  0  0
  190.2140  176.3140  138.1560 C   0  0  1  0  0  0  0  0  0  0  0  0
  188.9460  176.0270  136.0580 C   0  0  0  0  0  2  0  0  0  0  0  0
  191.3820  175.6920  138.7210 O   0  0  0  0  0  0  0  0  0  0  0  0
  190.1680  174.9750  135.1830 S   0  0  0  0  0  0  0  0  0  0  0  0
  189.7650  176.9910  136.8790 C   0  0  1  0  0  3  0  0  0  0  0  0
  191.5310  176.0390  137.4300 C   0  0  1  0  0  3  0  0  0  0  0  0
  192.6650  174.3440  136.0450 N   0  0  0  0  0  2  0  0  0  0  0  0
  193.4300  173.8270  137.1680 C   0  0  0  0  0  2  0  0  0  0  0  0
  195.6390  172.9880  137.8400 C   0  0  0  0  0  0  0  0  0  0  0  0
  197.6850  175.6230  136.7770 O   0  0  0  0  0  0  0  0  0  0  0  0
  195.4150  172.0700  138.6740 O   0  0  0  0  0  0  0  0  0  0  0  0
  195.5770  174.4620  135.5980 S   0  0  0  0  0  0  0  0  0  0  0  0
  196.7710  173.8270  137.9570 N   0  0  0  0  0  2  0  0  0  0  0  0
  194.7390  173.2370  136.6770 C   0  0  2  0  0  3  0  0  0  0  0  0
  196.8200  174.7100  136.8540 C   0  0  0  0  0  0  0  0  0  0  0  0
  1  6  1  0  0  0  0
  2  1  2  0  0  0  0
  3  5  1  0  0  0  0
  4  7  2  0  0  0  0
  4  6  1  0  0  0  0
  6  3  2  0  0  0  0
  7  8  1  0  0  0  0
  8  5  2  0  0  0  0
  9 11  2  0  0  0  0
  9  7  1  0  0  0  0
 10  9  1  0  0  0  0
 12 13  1  0  0  0  0
 12 10  1  0  0  0  0
 14 18  1  0  0  0  0
 16 19  1  0  0  0  0
 17 14  1  1  0  0  0
 17 16  1  0  0  0  0
 18 15  1  0  0  0  0
 19 15  1  0  0  0  0
 19 13  1  1  0  0  0
 22 20  1  6  0  0  0
 22 23  1  0  0  0  0
 25 22  1  0  0  0  0
 25 24  1  0  0  0  0
 26 21  1  6  0  0  0
 26 27  1  0  0  0  0
 26 24  1  0  0  0  0
 26 17  1  0  0  0  0
 27 21  1  6  0  0  0
 27 23  1  0  0  0  0
 28 32  1  6  0  0  0
 28  1  1  0  0  0  0
 28 29  1  0  0  0  0
 29 30  1  6  0  0  0
 29 31  1  0  0  0  0
 33 34  1  1  0  0  0
 33 32  1  0  0  0  0
 35 33  1  0  0  0  0
 36 45  1  6  0  0  0
 36 44  1  0  0  0  0
 37 38  1  0  0  0  0
 38 35  1  1  0  0  0
 39 41  1  1  0  0  0
 39 38  1  0  0  0  0
 42 40  1  0  0  0  0
 42 36  1  0  0  0  0
 43 40  1  1  0  0  0
 43 37  1  0  0  0  0
 43 39  1  0  0  0  0
 44 39  1  0  0  0  0
 44 41  1  1  0  0  0
 45 46  1  0  0  0  0
 47 51  1  0  0  0  0
 47 49  2  0  0  0  0
 48 53  2  0  0  0  0
 50 52  1  0  0  0  0
 50 53  1  0  0  0  0
 52 46  1  1  0  0  0
 52 47  1  0  0  0  0
 53 51  1  0  0  0  0
M  END
>  <MODEL>
5

>  <REMARK>
 VINA RESULT:      -8.3      1.904      2.945
  Name = 
  15 active torsions:
  status: ('A' for Active; 'I' for Inactive)
    1  A    between atoms: C_2  and  N_4
    2  A    between atoms: C_2  and  N_9
    3  A    between atoms: C_3  and  N_51
    4  A    between atoms: N_4  and  C_13
    5  A    between atoms: N_9  and  C_18
    6  A    between atoms: C_13  and  C_17
    7  A    between atoms: C_13  and  C_39
    8  A    between atoms: C_20  and  C_39
    9  A    between atoms: C_21  and  C_27
   10  A    between atoms: N_29  and  C_52
   11  A    between atoms: C_34  and  C_35
   12  A    between atoms: C_37  and  C_44
   13  A    between atoms: C_44  and  C_52
   14  A    between atoms: C_48  and  C_53
   15  A    between atoms: N_51  and  C_53
                            x       y       z     vdW  Elec       q    Type
                         _______ _______ _______ _____ _____    ______ ____

>  <TORSDO>
F 15

$$$$
=
 OpenBabel11042411493D

 53 60  0  0  1  0  0  0  0  0999 V2000
  191.0390  178.1170  143.6380 C   0  0  0  0  0  0  0  0  0  0  0  0
  190.7090  179.2430  144.1040 O   0  0  0  0  0  0  0  0  0  0  0  0
  191.9990  177.5000  141.3960 C   0  0  0  0  0  3  0  0  0  0  0  0
  189.6400  178.0070  141.5720 C   0  0  0  0  0  3  0  0  0  0  0  0
  191.8520  177.2980  140.0220 C   0  0  0  0  0  3  0  0  0  0  0  0
  190.8940  177.8610  142.1850 C   0  0  0  0  0  0  0  0  0  0  0  0
  189.4860  177.8120  140.1920 C   0  0  0  0  0  0  0  0  0  0  0  0
  190.6020  177.4590  139.4210 C   0  0  0  0  0  3  0  0  0  0  0  0
  188.1730  178.0090  139.5540 C   0  0  0  0  0  0  0  0  0  0  0  0
  187.9440  177.5240  138.2290 N   0  0  0  0  0  2  0  0  0  0  0  0
  187.2570  178.6280  140.1690 O   0  0  0  0  0  0  0  0  0  0  0  0
  186.7000  177.7840  137.5220 C   0  0  0  0  0  2  0  0  0  0  0  0
  186.6260  176.8840  136.3000 C   0  0  0  0  0  2  0  0  0  0  0  0
  188.0640  172.9310  136.7980 C   0  0  0  0  0  2  0  0  0  0  0  0
  186.2180  174.5850  137.2200 C   0  0  0  0  0  2  0  0  0  0  0  0
  187.7720  174.9790  135.3990 O   0  0  0  0  0  0  0  0  0  0  0  0
  188.6130  173.8790  135.7130 C   0  0  1  0  0  3  0  0  0  0  0  0
  186.5560  173.1180  136.9440 C   0  0  0  0  0  2  0  0  0  0  0  0
  187.2550  175.5320  136.5910 C   0  0  1  0  0  3  0  0  0  0  0  0
  193.7030  175.3480  136.0160 O   0  0  0  0  0  1  0  0  0  0  0  0
  191.0370  174.0300  134.8810 C   0  0  0  0  0  2  0  0  0  0  0  0
  192.5780  175.7150  136.7530 C   0  0  1  0  0  3  0  0  0  0  0  0
  191.5420  176.3780  135.8290 C   0  0  0  0  0  2  0  0  0  0  0  0
  190.5600  174.3090  137.4490 C   0  0  0  0  0  2  0  0  0  0  0  0
  192.0710  174.5070  137.5440 C   0  0  0  0  0  2  0  0  0  0  0  0
  190.0480  174.3150  136.0000 C   0  0  2  0  0  0  0  0  0  0  0  0
  190.5310  175.4540  135.1170 C   0  0  2  0  0  3  0  0  0  0  0  0
  191.5680  177.0840  144.5940 C   0  0  2  0  0  3  0  0  0  0  0  0
  191.0720  175.6730  144.2460 C   0  0  2  0  0  3  0  0  0  0  0  0
  192.1890  174.8060  143.9160 N   0  0  0  0  0  1  0  0  0  0  0  0
  190.1970  175.7140  143.1720 F   0  0  0  0  0  0  0  0  0  0  0  0
  191.2120  177.4530  145.9610 N   0  0  0  0  0  2  0  0  0  0  0  0
  190.8090  176.2510  146.6840 C   0  0  1  0  0  3  0  0  0  0  0  0
  191.8370  175.9210  147.7500 C   0  0  0  0  0  1  0  0  0  0  0  0
  189.5220  176.4720  147.3290 N   0  0  0  0  0  2  0  0  0  0  0  0
  185.8980  178.0300  144.4180 C   0  0  2  0  0  3  0  0  0  0  0  0
  188.2070  178.6280  148.2410 S   0  0  0  0  0  0  0  0  0  0  0  0
  188.9910  177.7400  146.8500 C   0  0  2  0  0  3  0  0  0  0  0  0
  187.7050  177.5140  146.0720 C   0  0  1  0  0  0  0  0  0  0  0  0
  185.5940  178.1440  147.1840 C   0  0  0  0  0  2  0  0  0  0  0  0
  188.0870  177.2450  144.7110 O   0  0  0  0  0  0  0  0  0  0  0  0
  184.6390  178.5490  145.6720 S   0  0  0  0  0  0  0  0  0  0  0  0
  187.0080  178.5780  146.8920 C   0  0  1  0  0  3  0  0  0  0  0  0
  187.3460  178.3600  144.8510 C   0  0  1  0  0  3  0  0  0  0  0  0
  185.6000  178.6440  143.1340 N   0  0  0  0  0  2  0  0  0  0  0  0
  184.4490  177.9430  142.5880 C   0  0  0  0  0  2  0  0  0  0  0  0
  182.1910  178.8590  142.2790 C   0  0  0  0  0  0  0  0  0  0  0  0
  181.2230  177.2200  139.3400 O   0  0  0  0  0  0  0  0  0  0  0  0
  181.8650  179.3480  143.3930 O   0  0  0  0  0  0  0  0  0  0  0  0
  183.5610  178.3320  140.0320 S   0  0  0  0  0  0  0  0  0  0  0  0
  181.2310  178.2560  141.4320 N   0  0  0  0  0  2  0  0  0  0  0  0
  183.5950  178.8990  141.7770 C   0  0  2  0  0  3  0  0  0  0  0  0
  181.8490  177.8680  140.2210 C   0  0  0  0  0  0  0  0  0  0  0  0
  1  2  2  0  0  0  0
  3  6  1  0  0  0  0
  4  6  2  0  0  0  0
  5  3  2  0  0  0  0
  6  1  1  0  0  0  0
  7  4  1  0  0  0  0
  8  5  1  0  0  0  0
  8  7  2  0  0  0  0
  9 11  2  0  0  0  0
  9  7  1  0  0  0  0
 10  9  1  0  0  0  0
 12 10  1  0  0  0  0
 13 12  1  0  0  0  0
 14 18  1  0  0  0  0
 16 17  1  0  0  0  0
 16 19  1  0  0  0  0
 17 26  1  0  0  0  0
 17 14  1  1  0  0  0
 18 15  1  0  0  0  0
 19 13  1  6  0  0  0
 19 15  1  0  0  0  0
 22 20  1  6  0  0  0
 22 25  1  0  0  0  0
 23 22  1  0  0  0  0
 24 25  1  0  0  0  0
 26 21  1  6  0  0  0
 26 24  1  0  0  0  0
 27 21  1  6  0  0  0
 27 23  1  0  0  0  0
 27 26  1  0  0  0  0
 28  1  1  6  0  0  0
 28 32  1  0  0  0  0
 29 31  1  6  0  0  0
 29 28  1  0  0  0  0
 30 29  1  0  0  0  0
 32 33  1  0  0  0  0
 33 35  1  0  0  0  0
 33 34  1  1  0  0  0
 36 45  1  6  0  0  0
 36 44  1  0  0  0  0
 36 42  1  0  0  0  0
 38 35  1  1  0  0  0
 38 37  1  0  0  0  0
 39 41  1  1  0  0  0
 39 38  1  0  0  0  0
 39 43  1  0  0  0  0
 42 40  1  0  0  0  0
 43 40  1  1  0  0  0
 43 37  1  0  0  0  0
 44 41  1  6  0  0  0
 44 39  1  0  0  0  0
 46 45  1  0  0  0  0
 47 49  2  0  0  0  0
 48 53  2  0  0  0  0
 50 53  1  0  0  0  0
 50 52  1  0  0  0  0
 51 47  1  0  0  0  0
 52 47  1  0  0  0  0
 52 46  1  1  0  0  0
 53 51  1  0  0  0  0
M  END
>  <MODEL>
6

>  <REMARK>
 VINA RESULT:      -8.0      3.522      9.700
  Name = 
  15 active torsions:
  status: ('A' for Active; 'I' for Inactive)
    1  A    between atoms: C_2  and  N_4
    2  A    between atoms: C_2  and  N_9
    3  A    between atoms: C_3  and  N_51
    4  A    between atoms: N_4  and  C_13
    5  A    between atoms: N_9  and  C_18
    6  A    between atoms: C_13  and  C_17
    7  A    between atoms: C_13  and  C_39
    8  A    between atoms: C_20  and  C_39
    9  A    between atoms: C_21  and  C_27
   10  A    between atoms: N_29  and  C_52
   11  A    between atoms: C_34  and  C_35
   12  A    between atoms: C_37  and  C_44
   13  A    between atoms: C_44  and  C_52
   14  A    between atoms: C_48  and  C_53
   15  A    between atoms: N_51  and  C_53
                            x       y       z     vdW  Elec       q    Type
                         _______ _______ _______ _____ _____    ______ ____

>  <TORSDO>
F 15

$$$$
=
 OpenBabel11042411493D

 53 60  0  0  1  0  0  0  0  0999 V2000
  188.7420  176.7970  143.8270 C   0  0  0  0  0  0  0  0  0  0  0  0
  188.3880  175.7510  143.2150 O   0  0  0  0  0  0  0  0  0  0  0  0
  188.2510  177.4190  146.2150 C   0  0  0  0  0  3  0  0  0  0  0  0
  186.5780  177.8370  144.5180 C   0  0  0  0  0  3  0  0  0  0  0  0
  187.3870  177.9240  147.1900 C   0  0  0  0  0  3  0  0  0  0  0  0
  187.8530  177.3660  144.8690 C   0  0  0  0  0  0  0  0  0  0  0  0
  185.7030  178.3400  145.4910 C   0  0  0  0  0  0  0  0  0  0  0  0
  186.1160  178.3770  146.8310 C   0  0  0  0  0  3  0  0  0  0  0  0
  184.3520  178.7920  145.1160 C   0  0  0  0  0  0  0  0  0  0  0  0
  184.0310  179.0160  143.7420 N   0  0  0  0  0  2  0  0  0  0  0  0
  183.4850  179.0030  146.0120 O   0  0  0  0  0  0  0  0  0  0  0  0
  182.7450  179.5590  143.3340 C   0  0  0  0  0  2  0  0  0  0  0  0
  181.8290  178.4160  142.9290 C   0  0  0  0  0  2  0  0  0  0  0  0
  180.0590  179.7290  139.3110 C   0  0  0  0  0  2  0  0  0  0  0  0
  180.0570  179.8080  141.8250 C   0  0  0  0  0  2  0  0  0  0  0  0
  182.0810  179.1510  140.6600 O   0  0  0  0  0  0  0  0  0  0  0  0
  181.4870  179.1490  139.3690 C   0  0  1  0  0  3  0  0  0  0  0  0
  179.7950  180.5960  140.5400 C   0  0  0  0  0  2  0  0  0  0  0  0
  181.1320  178.7270  141.6160 C   0  0  1  0  0  3  0  0  0  0  0  0
  182.3430  174.6790  136.6400 O   0  0  0  0  0  1  0  0  0  0  0  0
  182.3280  177.7780  137.3690 C   0  0  0  0  0  2  0  0  0  0  0  0
  181.9430  174.9100  137.9560 C   0  0  1  0  0  3  0  0  0  0  0  0
  183.0400  175.6860  138.7060 C   0  0  0  0  0  2  0  0  0  0  0  0
  180.4550  176.7600  138.9030 C   0  0  0  0  0  2  0  0  0  0  0  0
  180.5590  175.5630  137.9610 C   0  0  0  0  0  2  0  0  0  0  0  0
  181.5820  177.7830  138.6940 C   0  0  2  0  0  0  0  0  0  0  0  0
  182.9970  177.2280  138.6300 C   0  0  2  0  0  3  0  0  0  0  0  0
  190.0630  177.4170  143.4620 C   0  0  2  0  0  3  0  0  0  0  0  0
  190.5650  178.3800  144.5480 C   0  0  2  0  0  3  0  0  0  0  0  0
  190.9440  179.6550  143.9650 N   0  0  0  0  0  1  0  0  0  0  0  0
  191.6570  177.8410  145.2110 F   0  0  0  0  0  0  0  0  0  0  0  0
  189.9500  178.0830  142.1680 N   0  0  0  0  0  2  0  0  0  0  0  0
  190.9250  177.4990  141.2520 C   0  0  1  0  0  3  0  0  0  0  0  0
  192.0400  176.8370  142.0390 C   0  0  0  0  0  1  0  0  0  0  0  0
  190.2780  176.4920  140.4220 N   0  0  0  0  0  2  0  0  0  0  0  0
  192.3250  175.0630  136.2030 C   0  0  2  0  0  3  0  0  0  0  0  0
  188.6890  176.7350  138.2720 S   0  0  0  0  0  0  0  0  0  0  0  0
  190.3330  176.9460  139.0400 C   0  0  2  0  0  3  0  0  0  0  0  0
  191.0370  175.9150  138.1730 C   0  0  1  0  0  0  0  0  0  0  0  0
  189.6250  174.5600  136.6680 C   0  0  0  0  0  2  0  0  0  0  0  0
  192.4450  176.2050  138.2450 O   0  0  0  0  0  0  0  0  0  0  0  0
  190.8780  174.2720  135.3610 S   0  0  0  0  0  0  0  0  0  0  0  0
  189.8950  175.9530  137.1800 C   0  0  1  0  0  3  0  0  0  0  0  0
  191.9340  176.3250  137.0060 C   0  0  1  0  0  3  0  0  0  0  0  0
  193.3540  175.3810  135.2250 N   0  0  0  0  0  2  0  0  0  0  0  0
  194.5080  174.5570  135.5450 C   0  0  0  0  0  2  0  0  0  0  0  0
  196.6340  175.7680  135.7720 C   0  0  0  0  0  0  0  0  0  0  0  0
  198.5550  173.3900  137.4820 O   0  0  0  0  0  0  0  0  0  0  0  0
  196.5840  176.7060  134.9340 O   0  0  0  0  0  0  0  0  0  0  0  0
  195.9960  174.1260  137.7980 S   0  0  0  0  0  0  0  0  0  0  0  0
  197.8540  175.1190  136.0770 N   0  0  0  0  0  2  0  0  0  0  0  0
  195.4240  175.2950  136.5040 C   0  0  2  0  0  3  0  0  0  0  0  0
  197.6380  174.1680  137.1010 C   0  0  0  0  0  0  0  0  0  0  0  0
  1  6  1  0  0  0  0
  2  1  2  0  0  0  0
  3  5  1  0  0  0  0
  4  6  1  0  0  0  0
  4  7  2  0  0  0  0
  6  3  2  0  0  0  0
  7  8  1  0  0  0  0
  8  5  2  0  0  0  0
  9  7  1  0  0  0  0
  9 11  2  0  0  0  0
 10  9  1  0  0  0  0
 12 10  1  0  0  0  0
 13 12  1  0  0  0  0
 14 18  1  0  0  0  0
 16 19  1  0  0  0  0
 17 14  1  1  0  0  0
 17 16  1  0  0  0  0
 18 15  1  0  0  0  0
 19 15  1  0  0  0  0
 19 13  1  1  0  0  0
 22 20  1  6  0  0  0
 22 25  1  0  0  0  0
 22 23  1  0  0  0  0
 25 24  1  0  0  0  0
 26 21  1  6  0  0  0
 26 24  1  0  0  0  0
 26 17  1  0  0  0  0
 27 21  1  6  0  0  0
 27 26  1  0  0  0  0
 27 23  1  0  0  0  0
 28 32  1  6  0  0  0
 28  1  1  0  0  0  0
 28 29  1  0  0  0  0
 29 30  1  6  0  0  0
 29 31  1  0  0  0  0
 33 34  1  1  0  0  0
 33 32  1  0  0  0  0
 35 33  1  0  0  0  0
 36 45  1  6  0  0  0
 36 44  1  0  0  0  0
 37 38  1  0  0  0  0
 38 35  1  1  0  0  0
 39 41  1  1  0  0  0
 39 38  1  0  0  0  0
 42 36  1  0  0  0  0
 42 40  1  0  0  0  0
 43 40  1  1  0  0  0
 43 39  1  0  0  0  0
 43 37  1  0  0  0  0
 44 39  1  0  0  0  0
 44 41  1  1  0  0  0
 45 46  1  0  0  0  0
 47 51  1  0  0  0  0
 47 52  1  0  0  0  0
 49 47  2  0  0  0  0
 51 53  1  0  0  0  0
 52 46  1  6  0  0  0
 52 50  1  0  0  0  0
 53 48  2  0  0  0  0
 53 50  1  0  0  0  0
M  END
>  <MODEL>
7

>  <REMARK>
 VINA RESULT:      -7.9      1.751      2.400
  Name = 
  15 active torsions:
  status: ('A' for Active; 'I' for Inactive)
    1  A    between atoms: C_2  and  N_4
    2  A    between atoms: C_2  and  N_9
    3  A    between atoms: C_3  and  N_51
    4  A    between atoms: N_4  and  C_13
    5  A    between atoms: N_9  and  C_18
    6  A    between atoms: C_13  and  C_17
    7  A    between atoms: C_13  and  C_39
    8  A    between atoms: C_20  and  C_39
    9  A    between atoms: C_21  and  C_27
   10  A    between atoms: N_29  and  C_52
   11  A    between atoms: C_34  and  C_35
   12  A    between atoms: C_37  and  C_44
   13  A    between atoms: C_44  and  C_52
   14  A    between atoms: C_48  and  C_53
   15  A    between atoms: N_51  and  C_53
                            x       y       z     vdW  Elec       q    Type
                         _______ _______ _______ _____ _____    ______ ____

>  <TORSDO>
F 15

$$$$
=
 OpenBabel11042411493D

 53 60  0  0  1  0  0  0  0  0999 V2000
  181.2910  180.0330  138.3550 C   0  0  0  0  0  0  0  0  0  0  0  0
  181.9910  181.0060  137.9590 O   0  0  0  0  0  0  0  0  0  0  0  0
  180.2000  179.6770  140.5930 C   0  0  0  0  0  3  0  0  0  0  0  0
  182.5630  179.2220  140.3460 C   0  0  0  0  0  3  0  0  0  0  0  0
  180.2750  179.3310  141.9440 C   0  0  0  0  0  3  0  0  0  0  0  0
  181.3450  179.6310  139.7810 C   0  0  0  0  0  0  0  0  0  0  0  0
  182.6480  178.8790  141.7030 C   0  0  0  0  0  0  0  0  0  0  0  0
  181.4950  178.9380  142.4980 C   0  0  0  0  0  3  0  0  0  0  0  0
  183.9410  178.4920  142.2940 C   0  0  0  0  0  0  0  0  0  0  0  0
  184.2820  178.9300  143.6100 N   0  0  0  0  0  2  0  0  0  0  0  0
  184.7570  177.7930  141.6270 O   0  0  0  0  0  0  0  0  0  0  0  0
  185.5860  178.6590  144.1940 C   0  0  0  0  0  2  0  0  0  0  0  0
  185.4620  178.6580  145.7090 C   0  0  0  0  0  2  0  0  0  0  0  0
  189.0130  177.7200  147.8210 C   0  0  0  0  0  2  0  0  0  0  0  0
  186.7970  178.9090  147.8190 C   0  0  0  0  0  2  0  0  0  0  0  0
  187.1520  177.0580  146.2910 O   0  0  0  0  0  0  0  0  0  0  0  0
  188.5240  176.8900  146.6160 C   0  0  1  0  0  3  0  0  0  0  0  0
  187.8230  178.1600  148.6710 C   0  0  0  0  0  2  0  0  0  0  0  0
  186.8170  178.4280  146.3580 C   0  0  1  0  0  3  0  0  0  0  0  0
  192.0590  177.8900  142.7870 O   0  0  0  0  0  1  0  0  0  0  0  0
  190.3540  178.2610  145.4490 C   0  0  0  0  0  2  0  0  0  0  0  0
  191.3160  176.7520  143.1000 C   0  0  1  0  0  3  0  0  0  0  0  0
  191.6870  176.2590  144.5090 C   0  0  0  0  0  2  0  0  0  0  0  0
  188.9400  176.5650  144.0260 C   0  0  0  0  0  2  0  0  0  0  0  0
  189.8290  177.0370  142.8770 C   0  0  0  0  0  2  0  0  0  0  0  0
  189.4290  177.0550  145.3980 C   0  0  2  0  0  0  0  0  0  0  0  0
  190.9060  176.8560  145.7000 C   0  0  2  0  0  3  0  0  0  0  0  0
  180.4300  179.3250  137.3450 C   0  0  2  0  0  3  0  0  0  0  0  0
  179.1010  180.0570  137.1100 C   0  0  2  0  0  3  0  0  0  0  0  0
  179.0090  180.5180  135.7350 N   0  0  0  0  0  1  0  0  0  0  0  0
  178.9860  181.1450  137.9620 F   0  0  0  0  0  0  0  0  0  0  0  0
  180.2120  177.9450  137.7690 N   0  0  0  0  0  2  0  0  0  0  0  0
  180.8670  177.0510  136.8180 C   0  0  1  0  0  3  0  0  0  0  0  0
  181.3180  177.8360  135.6010 C   0  0  0  0  0  1  0  0  0  0  0  0
  182.0340  176.4420  137.4390 N   0  0  0  0  0  2  0  0  0  0  0  0
  186.6730  175.3050  136.3330 C   0  0  2  0  0  3  0  0  0  0  0  0
  182.3990  173.9110  136.6220 S   0  0  0  0  0  0  0  0  0  0  0  0
  182.7480  175.6920  136.4160 C   0  0  2  0  0  3  0  0  0  0  0  0
  184.2240  175.5960  136.7640 C   0  0  1  0  0  0  0  0  0  0  0  0
  185.0470  173.4170  137.5790 C   0  0  0  0  0  2  0  0  0  0  0  0
  184.8520  176.7760  136.2310 O   0  0  0  0  0  0  0  0  0  0  0  0
  186.7690  173.5670  136.9640 S   0  0  0  0  0  0  0  0  0  0  0  0
  184.1920  174.1000  136.5410 C   0  0  1  0  0  3  0  0  0  0  0  0
  185.3070  175.6330  135.6860 C   0  0  1  0  0  3  0  0  0  0  0  0
  187.7530  175.5500  135.3900 N   0  0  0  0  0  2  0  0  0  0  0  0
  188.5890  176.5900  135.9680 C   0  0  0  0  0  2  0  0  0  0  0  0
  188.2020  178.3250  137.6640 C   0  0  0  0  0  0  0  0  0  0  0  0
  191.0030  177.8640  139.7140 O   0  0  0  0  0  0  0  0  0  0  0  0
  187.3580  179.1120  137.1600 O   0  0  0  0  0  0  0  0  0  0  0  0
  189.3900  176.0800  138.5320 S   0  0  0  0  0  0  0  0  0  0  0  0
  189.2230  178.7940  138.5230 N   0  0  0  0  0  2  0  0  0  0  0  0
  188.1700  176.8570  137.4020 C   0  0  2  0  0  3  0  0  0  0  0  0
  189.9750  177.6980  139.0040 C   0  0  0  0  0  0  0  0  0  0  0  0
  1  6  1  0  0  0  0
  2  1  2  0  0  0  0
  3  5  1  0  0  0  0
  4  7  2  0  0  0  0
  5  8  2  0  0  0  0
  6  4  1  0  0  0  0
  6  3  2  0  0  0  0
  7  9  1  0  0  0  0
  7  8  1  0  0  0  0
  9 10  1  0  0  0  0
 10 12  1  0  0  0  0
 11  9  2  0  0  0  0
 12 13  1  0  0  0  0
 14 18  1  0  0  0  0
 15 18  1  0  0  0  0
 16 19  1  0  0  0  0
 16 17  1  0  0  0  0
 17 14  1  1  0  0  0
 19 13  1  1  0  0  0
 19 15  1  0  0  0  0
 21 27  1  0  0  0  0
 22 20  1  1  0  0  0
 22 23  1  0  0  0  0
 25 22  1  0  0  0  0
 25 24  1  0  0  0  0
 26 24  1  6  0  0  0
 26 21  1  0  0  0  0
 26 27  1  0  0  0  0
 26 17  1  0  0  0  0
 27 23  1  6  0  0  0
 28 32  1  1  0  0  0
 28  1  1  0  0  0  0
 29 30  1  6  0  0  0
 29 28  1  0  0  0  0
 29 31  1  0  0  0  0
 33 34  1  6  0  0  0
 33 35  1  0  0  0  0
 33 32  1  0  0  0  0
 36 45  1  6  0  0  0
 36 42  1  0  0  0  0
 38 37  1  0  0  0  0
 38 39  1  0  0  0  0
 38 35  1  1  0  0  0
 39 41  1  1  0  0  0
 42 40  1  0  0  0  0
 43 37  1  0  0  0  0
 43 39  1  0  0  0  0
 43 40  1  1  0  0  0
 44 41  1  1  0  0  0
 44 36  1  0  0  0  0
 44 39  1  0  0  0  0
 45 46  1  0  0  0  0
 47 51  1  0  0  0  0
 49 47  2  0  0  0  0
 50 53  1  0  0  0  0
 51 53  1  0  0  0  0
 52 46  1  6  0  0  0
 52 47  1  0  0  0  0
 52 50  1  0  0  0  0
 53 48  2  0  0  0  0
M  END
>  <MODEL>
8

>  <REMARK>
 VINA RESULT:      -7.9      4.107      8.970
  Name = 
  15 active torsions:
  status: ('A' for Active; 'I' for Inactive)
    1  A    between atoms: C_2  and  N_4
    2  A    between atoms: C_2  and  N_9
    3  A    between atoms: C_3  and  N_51
    4  A    between atoms: N_4  and  C_13
    5  A    between atoms: N_9  and  C_18
    6  A    between atoms: C_13  and  C_17
    7  A    between atoms: C_13  and  C_39
    8  A    between atoms: C_20  and  C_39
    9  A    between atoms: C_21  and  C_27
   10  A    between atoms: N_29  and  C_52
   11  A    between atoms: C_34  and  C_35
   12  A    between atoms: C_37  and  C_44
   13  A    between atoms: C_44  and  C_52
   14  A    between atoms: C_48  and  C_53
   15  A    between atoms: N_51  and  C_53
                            x       y       z     vdW  Elec       q    Type
                         _______ _______ _______ _____ _____    ______ ____

>  <TORSDO>
F 15

$$$$
=
 OpenBabel11042411493D

 53 60  0  0  1  0  0  0  0  0999 V2000
  184.7240  179.0340  138.8520 C   0  0  0  0  0  0  0  0  0  0  0  0
  184.4440  180.2530  139.0200 O   0  0  0  0  0  0  0  0  0  0  0  0
  186.8220  178.5530  137.5500 C   0  0  0  0  0  3  0  0  0  0  0  0
  186.8270  178.2550  139.9510 C   0  0  0  0  0  3  0  0  0  0  0  0
  188.1500  178.1230  137.4950 C   0  0  0  0  0  3  0  0  0  0  0  0
  186.1460  178.6180  138.7790 C   0  0  0  0  0  0  0  0  0  0  0  0
  188.1590  177.8160  139.9030 C   0  0  0  0  0  0  0  0  0  0  0  0
  188.8150  177.7510  138.6650 C   0  0  0  0  0  3  0  0  0  0  0  0
  188.8500  177.3970  141.1340 C   0  0  0  0  0  0  0  0  0  0  0  0
  190.2780  177.3930  141.1840 N   0  0  0  0  0  2  0  0  0  0  0  0
  188.1800  177.0200  142.1380 O   0  0  0  0  0  0  0  0  0  0  0  0
  191.0040  176.8920  142.3410 C   0  0  0  0  0  2  0  0  0  0  0  0
  190.9860  177.9470  143.4340 C   0  0  0  0  0  2  0  0  0  0  0  0
  190.3420  176.4160  147.3310 C   0  0  0  0  0  2  0  0  0  0  0  0
  191.6680  176.2960  145.1970 C   0  0  0  0  0  2  0  0  0  0  0  0
  190.4830  178.3410  145.7460 O   0  0  0  0  0  0  0  0  0  0  0  0
  189.8450  177.8110  146.8990 C   0  0  1  0  0  3  0  0  0  0  0  0
  191.7120  176.1330  146.7180 C   0  0  0  0  0  2  0  0  0  0  0  0
  190.6100  177.3290  144.7700 C   0  0  1  0  0  3  0  0  0  0  0  0
  184.5500  177.8920  147.2350 O   0  0  0  0  0  1  0  0  0  0  0  0
  187.5790  177.2260  147.9530 C   0  0  0  0  0  2  0  0  0  0  0  0
  185.4490  178.6180  146.4530 C   0  0  1  0  0  3  0  0  0  0  0  0
  186.3840  179.4380  147.3590 C   0  0  0  0  0  2  0  0  0  0  0  0
  187.6620  177.8760  145.4100 C   0  0  0  0  0  2  0  0  0  0  0  0
  186.1500  177.6730  145.4740 C   0  0  0  0  0  2  0  0  0  0  0  0
  188.3230  177.8750  146.7970 C   0  0  2  0  0  0  0  0  0  0  0  0
  187.6750  178.7510  147.8570 C   0  0  2  0  0  3  0  0  0  0  0  0
  183.5870  178.0570  138.7320 C   0  0  2  0  0  3  0  0  0  0  0  0
  182.8400  177.8810  140.0620 C   0  0  2  0  0  3  0  0  0  0  0  0
  182.5570  176.4770  140.3060 N   0  0  0  0  0  1  0  0  0  0  0  0
  181.6470  178.5880  140.0500 F   0  0  0  0  0  0  0  0  0  0  0  0
  184.0870  176.7820  138.2270 N   0  0  0  0  0  2  0  0  0  0  0  0
  183.5250  176.5480  136.9000 C   0  0  1  0  0  3  0  0  0  0  0  0
  182.2360  177.3320  136.7410 C   0  0  0  0  0  1  0  0  0  0  0  0
  184.4680  176.9890  135.8810 N   0  0  0  0  0  2  0  0  0  0  0  0
  188.4480  174.1280  135.7980 C   0  0  2  0  0  3  0  0  0  0  0  0
  183.9510  174.3620  135.6790 S   0  0  0  0  0  0  0  0  0  0  0  0
  184.9370  175.8110  135.1650 C   0  0  2  0  0  3  0  0  0  0  0  0
  186.2460  175.3190  135.7580 C   0  0  1  0  0  0  0  0  0  0  0  0
  186.1580  173.2700  137.1320 C   0  0  0  0  0  2  0  0  0  0  0  0
  187.2990  176.0470  135.0990 O   0  0  0  0  0  0  0  0  0  0  0  0
  187.8580  172.6770  136.7840 S   0  0  0  0  0  0  0  0  0  0  0  0
  185.6910  173.9150  135.8510 C   0  0  1  0  0  3  0  0  0  0  0  0
  187.3480  174.7190  134.8850 C   0  0  1  0  0  3  0  0  0  0  0  0
  189.6120  173.7520  135.0110 N   0  0  0  0  0  2  0  0  0  0  0  0
  190.6440  174.7390  135.2870 C   0  0  0  0  0  2  0  0  0  0  0  0
  191.6860  174.9530  137.5020 C   0  0  0  0  0  0  0  0  0  0  0  0
  194.8180  176.2490  136.6230 O   0  0  0  0  0  0  0  0  0  0  0  0
  190.7380  174.9020  138.3300 O   0  0  0  0  0  0  0  0  0  0  0  0
  193.3400  174.3250  135.4830 S   0  0  0  0  0  0  0  0  0  0  0  0
  192.8240  175.7590  137.7360 N   0  0  0  0  0  2  0  0  0  0  0  0
  191.6750  174.1610  136.2380 C   0  0  2  0  0  3  0  0  0  0  0  0
  193.7590  175.5680  136.6930 C   0  0  0  0  0  0  0  0  0  0  0  0
  1  2  2  0  0  0  0
  3  6  1  0  0  0  0
  5  3  2  0  0  0  0
  5  8  1  0  0  0  0
  6  1  1  0  0  0  0
  6  4  2  0  0  0  0
  7  4  1  0  0  0  0
  7  9  1  0  0  0  0
  8  7  2  0  0  0  0
  9 10  1  0  0  0  0
  9 11  2  0  0  0  0
 10 12  1  0  0  0  0
 12 13  1  0  0  0  0
 15 18  1  0  0  0  0
 16 17  1  0  0  0  0
 17 14  1  6  0  0  0
 18 14  1  0  0  0  0
 19 13  1  6  0  0  0
 19 15  1  0  0  0  0
 19 16  1  0  0  0  0
 22 20  1  1  0  0  0
 22 23  1  0  0  0  0
 24 25  1  0  0  0  0
 25 22  1  0  0  0  0
 26 24  1  6  0  0  0
 26 17  1  0  0  0  0
 26 27  1  0  0  0  0
 26 21  1  0  0  0  0
 27 23  1  6  0  0  0
 27 21  1  0  0  0  0
 28 32  1  1  0  0  0
 28  1  1  0  0  0  0
 28 29  1  0  0  0  0
 29 31  1  6  0  0  0
 29 30  1  0  0  0  0
 33 34  1  1  0  0  0
 33 32  1  0  0  0  0
 35 33  1  0  0  0  0
 36 45  1  6  0  0  0
 36 42  1  0  0  0  0
 37 43  1  0  0  0  0
 38 37  1  0  0  0  0
 38 39  1  0  0  0  0
 38 35  1  1  0  0  0
 39 41  1  1  0  0  0
 39 43  1  0  0  0  0
 42 40  1  0  0  0  0
 43 40  1  1  0  0  0
 44 41  1  6  0  0  0
 44 39  1  0  0  0  0
 44 36  1  0  0  0  0
 45 46  1  0  0  0  0
 47 51  1  0  0  0  0
 47 49  2  0  0  0  0
 48 53  2  0  0  0  0
 50 52  1  0  0  0  0
 50 53  1  0  0  0  0
 52 46  1  6  0  0  0
 52 47  1  0  0  0  0
 53 51  1  0  0  0  0
M  END
>  <MODEL>
9

>  <REMARK>
 VINA RESULT:      -7.8      3.256      7.842
  Name = 
  15 active torsions:
  status: ('A' for Active; 'I' for Inactive)
    1  A    between atoms: C_2  and  N_4
    2  A    between atoms: C_2  and  N_9
    3  A    between atoms: C_3  and  N_51
    4  A    between atoms: N_4  and  C_13
    5  A    between atoms: N_9  and  C_18
    6  A    between atoms: C_13  and  C_17
    7  A    between atoms: C_13  and  C_39
    8  A    between atoms: C_20  and  C_39
    9  A    between atoms: C_21  and  C_27
   10  A    between atoms: N_29  and  C_52
   11  A    between atoms: C_34  and  C_35
   12  A    between atoms: C_37  and  C_44
   13  A    between atoms: C_44  and  C_52
   14  A    between atoms: C_48  and  C_53
   15  A    between atoms: N_51  and  C_53
                            x       y       z     vdW  Elec       q    Type
                         _______ _______ _______ _____ _____    ______ ____

>  <TORSDO>
F 15

$$$$
