=
 OpenBabel11042410053D

 29 33  0  0  1  0  0  0  0  0999 V2000
  184.3250  177.8130  137.6760 C   0  0  0  0  0  1  0  0  0  0  0  0
  183.5870  180.5930  138.7800 C   0  0  0  0  0  2  0  0  0  0  0  0
  181.5720  179.5130  137.7860 C   0  0  0  0  0  0  0  0  0  0  0  0
  183.7700  179.3390  139.6280 C   0  0  1  0  0  3  0  0  0  0  0  0
  183.3790  178.0760  138.8390 C   0  0  1  0  0  3  0  0  0  0  0  0
  181.9330  178.1520  138.3290 C   0  0  1  0  0  3  0  0  0  0  0  0
  182.1140  180.7610  138.4210 C   0  0  0  0  0  2  0  0  0  0  0  0
  180.7800  179.6030  136.8620 O   0  0  0  0  0  0  0  0  0  0  0  0
  185.4650  178.7350  141.4190 C   0  0  0  0  0  0  0  0  0  0  0  0
  187.5850  177.6420  145.2530 C   0  0  0  0  0  2  0  0  0  0  0  0
  184.3730  178.2350  142.2890 C   0  0  0  0  0  3  0  0  0  0  0  0
  186.7700  178.1730  144.1340 C   0  0  0  0  0  0  0  0  0  0  0  0
  186.7290  178.6340  141.7300 N   0  0  0  0  0  0  0  0  0  0  0  0
  184.3760  178.2590  143.6200 C   0  0  0  0  0  3  0  0  0  0  0  0
  185.1370  179.2520  140.1250 N   0  0  0  0  0  2  0  0  0  0  0  0
  188.6960  177.5500  142.8880 C   0  0  0  0  0  2  0  0  0  0  0  0
  187.3240  178.1080  142.9290 C   0  0  0  0  0  0  0  0  0  0  0  0
  185.4820  178.8690  144.4070 C   0  0  0  0  0  2  0  0  0  0  0  0
  189.0520  176.8440  144.5270 S   0  0  0  0  0  0  0  0  0  0  0  0
  179.6870  177.3510  141.2130 C   0  0  0  0  0  0  0  0  0  0  0  0
  180.2170  176.5670  139.2530 C   0  0  0  0  0  3  0  0  0  0  0  0
  179.4970  178.6000  143.2070 C   0  0  0  0  0  0  0  0  0  0  0  0
  180.5210  179.6120  142.6920 C   0  0  0  0  0  2  0  0  0  0  0  0
  178.9320  178.8010  144.4970 N   0  0  0  0  0  1  0  0  0  0  0  0
  180.6460  178.2440  140.6590 C   0  0  0  0  0  0  0  0  0  0  0  0
  180.9550  177.6750  139.3600 C   0  0  0  0  0  0  0  0  0  0  0  0
  179.4110  176.3660  140.4260 N   0  0  0  0  0  0  0  0  0  0  0  0
  181.0700  179.3190  141.3080 C   0  0  0  0  0  3  0  0  0  0  0  0
  179.1270  177.5630  142.5060 N   0  0  0  0  0  0  0  0  0  0  0  0
  2  4  1  0  0  0  0
  3  6  1  0  0  0  0
  3  7  1  0  0  0  0
  4 15  1  6  0  0  0
  5  1  1  6  0  0  0
  5  4  1  0  0  0  0
  6  5  1  0  0  0  0
  6 26  1  1  0  0  0
  7  2  1  0  0  0  0
  8  3  2  0  0  0  0
  9 13  2  0  0  0  0
  9 11  1  0  0  0  0
 11 14  2  0  0  0  0
 12 18  1  0  0  0  0
 12 10  1  0  0  0  0
 13 17  1  0  0  0  0
 14 18  1  0  0  0  0
 15  9  1  0  0  0  0
 16 17  1  0  0  0  0
 16 19  1  0  0  0  0
 17 12  2  0  0  0  0
 19 10  1  0  0  0  0
 20 29  1  0  0  0  0
 21 26  2  0  0  0  0
 21 27  1  0  0  0  0
 22 24  1  0  0  0  0
 23 22  1  0  0  0  0
 25 20  1  0  0  0  0
 25 28  2  0  0  0  0
 26 25  1  0  0  0  0
 27 20  2  0  0  0  0
 28 23  1  0  0  0  0
 29 22  2  0  0  0  0
M  END
>  <MODEL>
1

>  <REMARK>
 VINA RESULT:      -7.8      0.000      0.000
  Name = 
  2 active torsions:
  status: ('A' for Active; 'I' for Inactive)
    1  A    between atoms: C_14  and  N_23
    2  A    between atoms: C_15  and  C_19
                            x       y       z     vdW  Elec       q    Type
                         _______ _______ _______ _____ _____    ______ ____

>  <TORSDO>
F 2

$$$$
=
 OpenBabel11042410053D

 29 33  0  0  1  0  0  0  0  0999 V2000
  188.4290  175.0940  137.2910 C   0  0  0  0  0  1  0  0  0  0  0  0
  189.5600  177.7730  136.2730 C   0  0  0  0  0  2  0  0  0  0  0  0
  188.3350  178.1290  138.4160 C   0  0  0  0  0  0  0  0  0  0  0  0
  190.3740  176.6970  136.9840 C   0  0  1  0  0  3  0  0  0  0  0  0
  189.5040  175.9170  137.9870 C   0  0  1  0  0  3  0  0  0  0  0  0
  188.8590  176.8500  139.0210 C   0  0  1  0  0  3  0  0  0  0  0  0
  189.0660  178.7990  137.2880 C   0  0  0  0  0  2  0  0  0  0  0  0
  187.3430  178.6580  138.8880 O   0  0  0  0  0  0  0  0  0  0  0  0
  192.1930  175.0650  136.2930 C   0  0  0  0  0  0  0  0  0  0  0  0
  195.9510  172.5880  135.9390 C   0  0  0  0  0  2  0  0  0  0  0  0
  192.8150  175.1850  137.6350 C   0  0  0  0  0  3  0  0  0  0  0  0
  194.8740  173.5960  136.0890 C   0  0  0  0  0  0  0  0  0  0  0  0
  192.6210  174.2380  135.3790 N   0  0  0  0  0  0  0  0  0  0  0  0
  194.1150  175.0700  137.8930 C   0  0  0  0  0  3  0  0  0  0  0  0
  190.9980  175.8030  136.0160 N   0  0  0  0  0  2  0  0  0  0  0  0
  193.7580  172.1220  134.5940 C   0  0  0  0  0  2  0  0  0  0  0  0
  193.7520  173.3500  135.4240 C   0  0  0  0  0  0  0  0  0  0  0  0
  195.1300  174.8660  136.8230 C   0  0  0  0  0  2  0  0  0  0  0  0
  195.2550  171.1790  135.0220 S   0  0  0  0  0  0  0  0  0  0  0  0
  190.6910  177.5270  142.2140 C   0  0  0  0  0  0  0  0  0  0  0  0
  191.0910  177.2880  140.0880 C   0  0  0  0  0  3  0  0  0  0  0  0
  189.7170  177.7020  144.3570 C   0  0  0  0  0  0  0  0  0  0  0  0
  188.3330  177.4190  143.7710 C   0  0  0  0  0  2  0  0  0  0  0  0
  189.8300  177.9240  145.7580 N   0  0  0  0  0  1  0  0  0  0  0  0
  189.4420  177.2580  141.5880 C   0  0  0  0  0  0  0  0  0  0  0  0
  189.7720  177.1050  140.1830 C   0  0  0  0  0  0  0  0  0  0  0  0
  191.6720  177.5510  141.3760 N   0  0  0  0  0  0  0  0  0  0  0  0
  188.3070  177.1960  142.2710 C   0  0  0  0  0  3  0  0  0  0  0  0
  190.7920  177.7470  143.6180 N   0  0  0  0  0  0  0  0  0  0  0  0
  2  4  1  0  0  0  0
  2  7  1  0  0  0  0
  3  8  2  0  0  0  0
  3  6  1  0  0  0  0
  4 15  1  6  0  0  0
  4  5  1  0  0  0  0
  5  1  1  6  0  0  0
  5  6  1  0  0  0  0
  6 26  1  1  0  0  0
  7  3  1  0  0  0  0
  9 11  1  0  0  0  0
 10 12  1  0  0  0  0
 11 14  2  0  0  0  0
 12 18  1  0  0  0  0
 13 17  1  0  0  0  0
 13  9  2  0  0  0  0
 15  9  1  0  0  0  0
 16 19  1  0  0  0  0
 16 17  1  0  0  0  0
 17 12  2  0  0  0  0
 18 14  1  0  0  0  0
 19 10  1  0  0  0  0
 20 29  1  0  0  0  0
 21 26  2  0  0  0  0
 21 27  1  0  0  0  0
 22 24  1  0  0  0  0
 23 22  1  0  0  0  0
 25 20  1  0  0  0  0
 25 28  2  0  0  0  0
 26 25  1  0  0  0  0
 27 20  2  0  0  0  0
 28 23  1  0  0  0  0
 29 22  2  0  0  0  0
M  END
>  <MODEL>
2

>  <REMARK>
 VINA RESULT:      -7.0      7.000      9.834
  Name = 
  2 active torsions:
  status: ('A' for Active; 'I' for Inactive)
    1  A    between atoms: C_14  and  N_23
    2  A    between atoms: C_15  and  C_19
                            x       y       z     vdW  Elec       q    Type
                         _______ _______ _______ _____ _____    ______ ____

>  <TORSDO>
F 2

$$$$
=
 OpenBabel11042410053D

 29 33  0  0  1  0  0  0  0  0999 V2000
  192.1370  176.7530  137.9640 C   0  0  0  0  0  1  0  0  0  0  0  0
  189.6140  178.2640  138.8830 C   0  0  0  0  0  2  0  0  0  0  0  0
  189.2330  177.2690  136.6290 C   0  0  0  0  0  0  0  0  0  0  0  0
  190.0220  176.8750  139.3640 C   0  0  1  0  0  3  0  0  0  0  0  0
  190.7890  176.1140  138.2680 C   0  0  1  0  0  3  0  0  0  0  0  0
  189.9650  175.9960  136.9780 C   0  0  1  0  0  3  0  0  0  0  0  0
  188.6520  178.1390  137.7060 C   0  0  0  0  0  2  0  0  0  0  0  0
  189.0550  177.5610  135.4590 O   0  0  0  0  0  0  0  0  0  0  0  0
  190.2130  176.9320  141.8950 C   0  0  0  0  0  0  0  0  0  0  0  0
  189.4680  177.2410  146.3380 C   0  0  0  0  0  2  0  0  0  0  0  0
  188.7430  176.7660  142.0130 C   0  0  0  0  0  3  0  0  0  0  0  0
  189.5740  177.3500  144.8630 C   0  0  0  0  0  0  0  0  0  0  0  0
  191.0150  176.9460  142.9250 N   0  0  0  0  0  0  0  0  0  0  0  0
  187.9900  177.2510  142.9960 C   0  0  0  0  0  3  0  0  0  0  0  0
  190.8030  176.9660  140.5910 N   0  0  0  0  0  2  0  0  0  0  0  0
  191.6820  176.3320  145.2840 C   0  0  0  0  0  2  0  0  0  0  0  0
  190.6880  176.8690  144.3240 C   0  0  0  0  0  0  0  0  0  0  0  0
  188.5460  178.0970  144.0880 C   0  0  0  0  0  2  0  0  0  0  0  0
  190.8760  176.2400  146.9130 S   0  0  0  0  0  0  0  0  0  0  0  0
  187.2910  173.3820  137.1140 C   0  0  0  0  0  0  0  0  0  0  0  0
  189.4610  173.5370  137.0510 C   0  0  0  0  0  3  0  0  0  0  0  0
  184.9650  173.7840  137.1770 C   0  0  0  0  0  0  0  0  0  0  0  0
  185.2060  175.2920  137.1120 C   0  0  0  0  0  2  0  0  0  0  0  0
  183.6250  173.3110  137.2400 N   0  0  0  0  0  1  0  0  0  0  0  0
  187.6030  174.7690  137.0530 C   0  0  0  0  0  0  0  0  0  0  0  0
  189.0530  174.8070  137.0080 C   0  0  0  0  0  0  0  0  0  0  0  0
  188.3430  172.6350  137.1140 N   0  0  0  0  0  0  0  0  0  0  0  0
  186.6650  175.7060  137.0480 C   0  0  0  0  0  3  0  0  0  0  0  0
  185.9440  172.9200  137.1770 N   0  0  0  0  0  0  0  0  0  0  0  0
  2  4  1  0  0  0  0
  3  6  1  0  0  0  0
  3  7  1  0  0  0  0
  4 15  1  1  0  0  0
  5  1  1  6  0  0  0
  5  4  1  0  0  0  0
  6 26  1  1  0  0  0
  6  5  1  0  0  0  0
  7  2  1  0  0  0  0
  8  3  2  0  0  0  0
  9 11  1  0  0  0  0
  9 13  2  0  0  0  0
 10 19  1  0  0  0  0
 11 14  2  0  0  0  0
 12 10  1  0  0  0  0
 13 17  1  0  0  0  0
 14 18  1  0  0  0  0
 15  9  1  0  0  0  0
 16 19  1  0  0  0  0
 17 12  2  0  0  0  0
 17 16  1  0  0  0  0
 18 12  1  0  0  0  0
 20 27  2  0  0  0  0
 20 29  1  0  0  0  0
 21 27  1  0  0  0  0
 22 24  1  0  0  0  0
 23 22  1  0  0  0  0
 25 20  1  0  0  0  0
 26 21  2  0  0  0  0
 26 25  1  0  0  0  0
 28 25  2  0  0  0  0
 28 23  1  0  0  0  0
 29 22  2  0  0  0  0
M  END
>  <MODEL>
3

>  <REMARK>
 VINA RESULT:      -7.0      5.632      7.258
  Name = 
  2 active torsions:
  status: ('A' for Active; 'I' for Inactive)
    1  A    between atoms: C_14  and  N_23
    2  A    between atoms: C_15  and  C_19
                            x       y       z     vdW  Elec       q    Type
                         _______ _______ _______ _____ _____    ______ ____

>  <TORSDO>
F 2

$$$$
=
 OpenBabel11042410053D

 29 33  0  0  1  0  0  0  0  0999 V2000
  185.0910  177.8590  137.7340 C   0  0  0  0  0  1  0  0  0  0  0  0
  183.3090  179.8320  139.2900 C   0  0  0  0  0  2  0  0  0  0  0  0
  182.0010  178.7800  137.4470 C   0  0  0  0  0  0  0  0  0  0  0  0
  183.6690  178.4260  139.7590 C   0  0  1  0  0  3  0  0  0  0  0  0
  183.8720  177.4790  138.5630 C   0  0  1  0  0  3  0  0  0  0  0  0
  182.6270  177.4250  137.6660 C   0  0  1  0  0  3  0  0  0  0  0  0
  181.9770  179.8010  138.5480 C   0  0  0  0  0  2  0  0  0  0  0  0
  181.4510  179.0260  136.3860 O   0  0  0  0  0  0  0  0  0  0  0  0
  184.7750  178.3930  142.0450 C   0  0  0  0  0  0  0  0  0  0  0  0
  185.7190  178.5670  146.4560 C   0  0  0  0  0  2  0  0  0  0  0  0
  183.4460  178.2560  142.6890 C   0  0  0  0  0  3  0  0  0  0  0  0
  185.2820  178.7240  145.0480 C   0  0  0  0  0  0  0  0  0  0  0  0
  185.8980  178.3530  142.7080 N   0  0  0  0  0  0  0  0  0  0  0  0
  183.1220  178.7240  143.8920 C   0  0  0  0  0  3  0  0  0  0  0  0
  184.8470  178.4580  140.6160 N   0  0  0  0  0  2  0  0  0  0  0  0
  187.3620  177.6450  144.6430 C   0  0  0  0  0  2  0  0  0  0  0  0
  186.1040  178.2370  144.1270 C   0  0  0  0  0  0  0  0  0  0  0  0
  184.0670  179.5200  144.7230 C   0  0  0  0  0  2  0  0  0  0  0  0
  187.2050  177.5160  146.4520 S   0  0  0  0  0  0  0  0  0  0  0  0
  180.3090  174.6000  138.4730 C   0  0  0  0  0  0  0  0  0  0  0  0
  180.7500  176.6270  139.1320 C   0  0  0  0  0  3  0  0  0  0  0  0
  180.2470  172.5070  137.3820 C   0  0  0  0  0  0  0  0  0  0  0  0
  181.4030  172.9270  136.4730 C   0  0  0  0  0  2  0  0  0  0  0  0
  179.6880  171.2100  137.2180 N   0  0  0  0  0  1  0  0  0  0  0  0
  181.3850  175.0690  137.6690 C   0  0  0  0  0  0  0  0  0  0  0  0
  181.6350  176.4140  138.1550 C   0  0  0  0  0  0  0  0  0  0  0  0
  179.9140  175.4750  139.3350 N   0  0  0  0  0  0  0  0  0  0  0  0
  181.9350  174.3260  136.7190 C   0  0  0  0  0  3  0  0  0  0  0  0
  179.7580  173.2980  138.2990 N   0  0  0  0  0  0  0  0  0  0  0  0
  2  4  1  0  0  0  0
  3  6  1  0  0  0  0
  3  7  1  0  0  0  0
  4 15  1  6  0  0  0
  5  1  1  6  0  0  0
  5  4  1  0  0  0  0
  6 26  1  1  0  0  0
  6  5  1  0  0  0  0
  7  2  1  0  0  0  0
  8  3  2  0  0  0  0
  9 11  1  0  0  0  0
  9 13  2  0  0  0  0
 11 14  2  0  0  0  0
 12 10  1  0  0  0  0
 13 17  1  0  0  0  0
 14 18  1  0  0  0  0
 15  9  1  0  0  0  0
 16 19  1  0  0  0  0
 17 16  1  0  0  0  0
 17 12  2  0  0  0  0
 18 12  1  0  0  0  0
 19 10  1  0  0  0  0
 20 27  2  0  0  0  0
 21 27  1  0  0  0  0
 22 29  2  0  0  0  0
 23 28  1  0  0  0  0
 23 22  1  0  0  0  0
 24 22  1  0  0  0  0
 25 26  1  0  0  0  0
 25 20  1  0  0  0  0
 26 21  2  0  0  0  0
 28 25  2  0  0  0  0
 29 20  1  0  0  0  0
M  END
>  <MODEL>
4

>  <REMARK>
 VINA RESULT:      -7.0      2.293      3.859
  Name = 
  2 active torsions:
  status: ('A' for Active; 'I' for Inactive)
    1  A    between atoms: C_14  and  N_23
    2  A    between atoms: C_15  and  C_19
                            x       y       z     vdW  Elec       q    Type
                         _______ _______ _______ _____ _____    ______ ____

>  <TORSDO>
F 2

$$$$
=
 OpenBabel11042410053D

 29 33  0  0  1  0  0  0  0  0999 V2000
  189.0550  178.8880  137.3510 C   0  0  0  0  0  1  0  0  0  0  0  0
  189.6130  175.8650  137.1510 C   0  0  0  0  0  2  0  0  0  0  0  0
  190.9380  176.8500  139.0190 C   0  0  0  0  0  0  0  0  0  0  0  0
  188.3700  176.4820  137.7840 C   0  0  1  0  0  3  0  0  0  0  0  0
  188.6890  177.8530  138.4060 C   0  0  1  0  0  3  0  0  0  0  0  0
  189.8100  177.7540  139.4510 C   0  0  1  0  0  3  0  0  0  0  0  0
  190.6630  175.6040  138.2270 C   0  0  0  0  0  2  0  0  0  0  0  0
  192.0790  177.0990  139.3720 O   0  0  0  0  0  0  0  0  0  0  0  0
  186.3690  175.5160  136.5550 C   0  0  0  0  0  0  0  0  0  0  0  0
  183.2030  172.8430  134.7610 C   0  0  0  0  0  2  0  0  0  0  0  0
  186.4870  174.2630  137.3410 C   0  0  0  0  0  3  0  0  0  0  0  0
  184.4060  173.5490  135.2640 C   0  0  0  0  0  0  0  0  0  0  0  0
  185.3980  175.7420  135.7130 N   0  0  0  0  0  0  0  0  0  0  0  0
  186.1500  173.0500  136.9110 C   0  0  0  0  0  3  0  0  0  0  0  0
  187.2930  176.5800  136.8070 N   0  0  0  0  0  2  0  0  0  0  0  0
  183.0450  175.4520  134.8390 C   0  0  0  0  0  2  0  0  0  0  0  0
  184.3200  174.8730  135.3250 C   0  0  0  0  0  0  0  0  0  0  0  0
  185.6640  172.7970  135.5270 C   0  0  0  0  0  2  0  0  0  0  0  0
  181.8760  174.0780  134.5950 S   0  0  0  0  0  0  0  0  0  0  0  0
  188.0860  177.1930  142.7250 C   0  0  0  0  0  0  0  0  0  0  0  0
  189.9150  176.6230  141.6910 C   0  0  0  0  0  3  0  0  0  0  0  0
  186.0060  178.1070  143.3670 C   0  0  0  0  0  0  0  0  0  0  0  0
  185.8740  178.8030  142.0130 C   0  0  0  0  0  2  0  0  0  0  0  0
  184.9660  178.2740  144.3230 N   0  0  0  0  0  1  0  0  0  0  0  0
  188.0420  177.8070  141.4420 C   0  0  0  0  0  0  0  0  0  0  0  0
  189.2770  177.3890  140.8030 C   0  0  0  0  0  0  0  0  0  0  0  0
  189.1570  176.4970  142.9060 N   0  0  0  0  0  0  0  0  0  0  0  0
  187.0290  178.5700  141.0570 C   0  0  0  0  0  3  0  0  0  0  0  0
  187.0380  177.3680  143.6740 N   0  0  0  0  0  0  0  0  0  0  0  0
  2  4  1  0  0  0  0
  2  7  1  0  0  0  0
  3  8  2  0  0  0  0
  3  6  1  0  0  0  0
  4 15  1  6  0  0  0
  4  5  1  0  0  0  0
  5  1  1  6  0  0  0
  5  6  1  0  0  0  0
  6 26  1  1  0  0  0
  7  3  1  0  0  0  0
  9 15  1  0  0  0  0
  9 11  1  0  0  0  0
 10 12  1  0  0  0  0
 12 17  2  0  0  0  0
 12 18  1  0  0  0  0
 13  9  2  0  0  0  0
 14 11  2  0  0  0  0
 16 17  1  0  0  0  0
 17 13  1  0  0  0  0
 18 14  1  0  0  0  0
 19 10  1  0  0  0  0
 19 16  1  0  0  0  0
 20 27  2  0  0  0  0
 20 29  1  0  0  0  0
 21 27  1  0  0  0  0
 22 29  2  0  0  0  0
 22 24  1  0  0  0  0
 23 22  1  0  0  0  0
 25 20  1  0  0  0  0
 26 25  1  0  0  0  0
 26 21  2  0  0  0  0
 28 25  2  0  0  0  0
 28 23  1  0  0  0  0
M  END
>  <MODEL>
5

>  <REMARK>
 VINA RESULT:      -6.8      5.331      8.489
  Name = 
  2 active torsions:
  status: ('A' for Active; 'I' for Inactive)
    1  A    between atoms: C_14  and  N_23
    2  A    between atoms: C_15  and  C_19
                            x       y       z     vdW  Elec       q    Type
                         _______ _______ _______ _____ _____    ______ ____

>  <TORSDO>
F 2

$$$$
=
 OpenBabel11042410053D

 29 33  0  0  1  0  0  0  0  0999 V2000
  189.4060  178.9310  138.2710 C   0  0  0  0  0  1  0  0  0  0  0  0
  187.0080  178.5080  140.1590 C   0  0  0  0  0  2  0  0  0  0  0  0
  186.3520  177.9550  137.8180 C   0  0  0  0  0  0  0  0  0  0  0  0
  188.1740  177.5370  140.0000 C   0  0  1  0  0  3  0  0  0  0  0  0
  188.7470  177.5910  138.5720 C   0  0  1  0  0  3  0  0  0  0  0  0
  187.6720  177.2900  137.5190 C   0  0  1  0  0  3  0  0  0  0  0  0
  185.8680  178.0980  139.2320 C   0  0  0  0  0  2  0  0  0  0  0  0
  185.6400  178.3240  136.8990 O   0  0  0  0  0  0  0  0  0  0  0  0
  189.0680  177.4480  142.3750 C   0  0  0  0  0  0  0  0  0  0  0  0
  189.5980  177.0880  146.8440 C   0  0  0  0  0  2  0  0  0  0  0  0
  187.8380  176.7430  142.8140 C   0  0  0  0  0  3  0  0  0  0  0  0
  189.2250  177.3510  145.4340 C   0  0  0  0  0  0  0  0  0  0  0  0
  190.0840  177.6690  143.1630 N   0  0  0  0  0  0  0  0  0  0  0  0
  187.2900  176.8330  144.0240 C   0  0  0  0  0  3  0  0  0  0  0  0
  189.2030  177.8060  140.9960 N   0  0  0  0  0  2  0  0  0  0  0  0
  191.5760  177.1490  145.1350 C   0  0  0  0  0  2  0  0  0  0  0  0
  190.2260  177.3610  144.5610 C   0  0  0  0  0  0  0  0  0  0  0  0
  187.8290  177.7300  145.0830 C   0  0  0  0  0  2  0  0  0  0  0  0
  191.3600  176.6300  146.8670 S   0  0  0  0  0  0  0  0  0  0  0  0
  186.7850  173.6850  137.0460 C   0  0  0  0  0  0  0  0  0  0  0  0
  188.5400  174.9720  137.0890 C   0  0  0  0  0  3  0  0  0  0  0  0
  184.6070  172.7770  137.1060 C   0  0  0  0  0  0  0  0  0  0  0  0
  184.0160  174.1660  137.3480 C   0  0  0  0  0  2  0  0  0  0  0  0
  183.7230  171.6650  137.0290 N   0  0  0  0  0  1  0  0  0  0  0  0
  186.3180  175.0100  137.2690 C   0  0  0  0  0  0  0  0  0  0  0  0
  187.5240  175.8170  137.2830 C   0  0  0  0  0  0  0  0  0  0  0  0
  188.0690  173.6220  136.9340 N   0  0  0  0  0  0  0  0  0  0  0  0
  185.0310  175.2910  137.4170 C   0  0  0  0  0  3  0  0  0  0  0  0
  185.8900  172.5790  136.9700 N   0  0  0  0  0  0  0  0  0  0  0  0
  3  7  1  0  0  0  0
  4  2  1  0  0  0  0
  4 15  1  1  0  0  0
  5  1  1  6  0  0  0
  5  4  1  0  0  0  0
  6 26  1  1  0  0  0
  6  3  1  0  0  0  0
  6  5  1  0  0  0  0
  7  2  1  0  0  0  0
  8  3  2  0  0  0  0
  9 11  1  0  0  0  0
  9 13  2  0  0  0  0
 10 19  1  0  0  0  0
 11 14  2  0  0  0  0
 12 10  1  0  0  0  0
 13 17  1  0  0  0  0
 14 18  1  0  0  0  0
 15  9  1  0  0  0  0
 16 19  1  0  0  0  0
 17 16  1  0  0  0  0
 17 12  2  0  0  0  0
 18 12  1  0  0  0  0
 20 25  1  0  0  0  0
 21 26  2  0  0  0  0
 22 23  1  0  0  0  0
 23 28  1  0  0  0  0
 24 22  1  0  0  0  0
 25 26  1  0  0  0  0
 25 28  2  0  0  0  0
 27 20  2  0  0  0  0
 27 21  1  0  0  0  0
 29 20  1  0  0  0  0
 29 22  2  0  0  0  0
M  END
>  <MODEL>
6

>  <REMARK>
 VINA RESULT:      -6.7      4.897      6.270
  Name = 
  2 active torsions:
  status: ('A' for Active; 'I' for Inactive)
    1  A    between atoms: C_14  and  N_23
    2  A    between atoms: C_15  and  C_19
                            x       y       z     vdW  Elec       q    Type
                         _______ _______ _______ _____ _____    ______ ____

>  <TORSDO>
F 2

$$$$
=
 OpenBabel11042410053D

 29 33  0  0  1  0  0  0  0  0999 V2000
  190.2910  178.8240  142.7830 C   0  0  0  0  0  1  0  0  0  0  0  0
  189.3130  175.9060  142.9390 C   0  0  0  0  0  2  0  0  0  0  0  0
  187.5490  177.4390  143.8080 C   0  0  0  0  0  0  0  0  0  0  0  0
  189.3390  176.7500  141.6680 C   0  0  1  0  0  3  0  0  0  0  0  0
  189.1290  178.2400  141.9900 C   0  0  1  0  0  3  0  0  0  0  0  0
  187.8120  178.4760  142.7440 C   0  0  1  0  0  3  0  0  0  0  0  0
  187.9390  176.0050  143.5940 C   0  0  0  0  0  2  0  0  0  0  0  0
  186.9560  177.7560  144.8250 O   0  0  0  0  0  0  0  0  0  0  0  0
  190.6290  176.3530  139.5180 C   0  0  0  0  0  0  0  0  0  0  0  0
  191.9240  175.3840  135.3020 C   0  0  0  0  0  2  0  0  0  0  0  0
  189.3650  176.4130  138.7440 C   0  0  0  0  0  3  0  0  0  0  0  0
  191.3660  175.4880  136.6720 C   0  0  0  0  0  0  0  0  0  0  0  0
  191.8030  176.2440  138.9590 N   0  0  0  0  0  0  0  0  0  0  0  0
  189.1200  175.7510  137.6160 C   0  0  0  0  0  3  0  0  0  0  0  0
  190.5810  176.5350  140.9370 N   0  0  0  0  0  2  0  0  0  0  0  0
  193.4500  176.5620  137.0680 C   0  0  0  0  0  2  0  0  0  0  0  0
  192.1300  176.1050  137.5650 C   0  0  0  0  0  0  0  0  0  0  0  0
  190.0950  174.7960  137.0210 C   0  0  0  0  0  2  0  0  0  0  0  0
  193.4480  176.3780  135.2580 S   0  0  0  0  0  0  0  0  0  0  0  0
  184.6140  178.8250  140.8320 C   0  0  0  0  0  0  0  0  0  0  0  0
  186.7520  178.6280  140.4720 C   0  0  0  0  0  3  0  0  0  0  0  0
  182.4540  179.0030  141.7700 C   0  0  0  0  0  0  0  0  0  0  0  0
  183.0420  178.9370  143.1800 C   0  0  0  0  0  2  0  0  0  0  0  0
  181.0450  179.1260  141.6240 N   0  0  0  0  0  1  0  0  0  0  0  0
  185.2410  178.7570  142.1070 C   0  0  0  0  0  0  0  0  0  0  0  0
  186.6550  178.6310  141.8040 C   0  0  0  0  0  0  0  0  0  0  0  0
  185.4570  178.7550  139.8580 N   0  0  0  0  0  0  0  0  0  0  0  0
  184.5520  178.8060  143.2390 C   0  0  0  0  0  3  0  0  0  0  0  0
  183.2010  178.9490  140.7000 N   0  0  0  0  0  0  0  0  0  0  0  0
  2  7  1  0  0  0  0
  3  8  2  0  0  0  0
  4 15  1  1  0  0  0
  4  5  1  0  0  0  0
  4  2  1  0  0  0  0
  5  6  1  0  0  0  0
  5  1  1  1  0  0  0
  6 26  1  6  0  0  0
  6  3  1  0  0  0  0
  7  3  1  0  0  0  0
  9 15  1  0  0  0  0
 10 12  1  0  0  0  0
 11  9  1  0  0  0  0
 12 18  1  0  0  0  0
 12 17  2  0  0  0  0
 13  9  2  0  0  0  0
 14 11  2  0  0  0  0
 16 17  1  0  0  0  0
 17 13  1  0  0  0  0
 18 14  1  0  0  0  0
 19 10  1  0  0  0  0
 19 16  1  0  0  0  0
 20 25  1  0  0  0  0
 21 26  2  0  0  0  0
 22 23  1  0  0  0  0
 23 28  1  0  0  0  0
 24 22  1  0  0  0  0
 25 28  2  0  0  0  0
 26 25  1  0  0  0  0
 27 21  1  0  0  0  0
 27 20  2  0  0  0  0
 29 20  1  0  0  0  0
 29 22  2  0  0  0  0
M  END
>  <MODEL>
7

>  <REMARK>
 VINA RESULT:      -6.7      4.671      7.250
  Name = 
  2 active torsions:
  status: ('A' for Active; 'I' for Inactive)
    1  A    between atoms: C_14  and  N_23
    2  A    between atoms: C_15  and  C_19
                            x       y       z     vdW  Elec       q    Type
                         _______ _______ _______ _____ _____    ______ ____

>  <TORSDO>
F 2

$$$$
=
 OpenBabel11042410053D

 29 33  0  0  1  0  0  0  0  0999 V2000
  189.3850  179.0240  138.4400 C   0  0  0  0  0  1  0  0  0  0  0  0
  187.0410  178.4300  140.3490 C   0  0  0  0  0  2  0  0  0  0  0  0
  186.3340  178.0380  137.9900 C   0  0  0  0  0  0  0  0  0  0  0  0
  188.2160  177.4910  140.0920 C   0  0  1  0  0  3  0  0  0  0  0  0
  188.7530  177.6570  138.6590 C   0  0  1  0  0  3  0  0  0  0  0  0
  187.6560  177.4150  137.6120 C   0  0  1  0  0  3  0  0  0  0  0  0
  185.8840  178.0710  139.4230 C   0  0  0  0  0  2  0  0  0  0  0  0
  185.5950  178.4610  137.1170 O   0  0  0  0  0  0  0  0  0  0  0  0
  189.1070  177.3900  142.4670 C   0  0  0  0  0  0  0  0  0  0  0  0
  189.6220  177.0990  146.9440 C   0  0  0  0  0  2  0  0  0  0  0  0
  187.8280  176.7950  142.9250 C   0  0  0  0  0  3  0  0  0  0  0  0
  189.2670  177.3560  145.5270 C   0  0  0  0  0  0  0  0  0  0  0  0
  190.1400  177.5510  143.2490 N   0  0  0  0  0  0  0  0  0  0  0  0
  187.2920  176.9560  144.1330 C   0  0  0  0  0  3  0  0  0  0  0  0
  189.2660  177.7030  141.0790 N   0  0  0  0  0  2  0  0  0  0  0  0
  191.5930  176.9640  145.2310 C   0  0  0  0  0  2  0  0  0  0  0  0
  190.2620  177.2670  144.6530 C   0  0  0  0  0  0  0  0  0  0  0  0
  187.9030  177.8340  145.1690 C   0  0  0  0  0  2  0  0  0  0  0  0
  191.3430  176.5060  146.9750 S   0  0  0  0  0  0  0  0  0  0  0  0
  187.7940  173.8370  136.5230 C   0  0  0  0  0  0  0  0  0  0  0  0
  186.4270  175.2280  137.4900 C   0  0  0  0  0  3  0  0  0  0  0  0
  189.6190  172.7860  135.4560 C   0  0  0  0  0  0  0  0  0  0  0  0
  190.4260  174.0830  135.5190 C   0  0  0  0  0  2  0  0  0  0  0  0
  190.2160  171.6400  134.8610 N   0  0  0  0  0  1  0  0  0  0  0  0
  188.4750  175.0830  136.6220 C   0  0  0  0  0  0  0  0  0  0  0  0
  187.5220  175.9610  137.2740 C   0  0  0  0  0  0  0  0  0  0  0  0
  186.6030  173.8820  137.0180 N   0  0  0  0  0  0  0  0  0  0  0  0
  189.7100  175.2520  136.1690 C   0  0  0  0  0  3  0  0  0  0  0  0
  188.4040  172.6970  135.9260 N   0  0  0  0  0  0  0  0  0  0  0  0
  3  7  1  0  0  0  0
  4  2  1  0  0  0  0
  4 15  1  1  0  0  0
  5  1  1  1  0  0  0
  5  4  1  0  0  0  0
  6 26  1  1  0  0  0
  6  3  1  0  0  0  0
  6  5  1  0  0  0  0
  7  2  1  0  0  0  0
  8  3  2  0  0  0  0
  9 11  1  0  0  0  0
  9 13  2  0  0  0  0
 10 19  1  0  0  0  0
 11 14  2  0  0  0  0
 12 10  1  0  0  0  0
 13 17  1  0  0  0  0
 14 18  1  0  0  0  0
 15  9  1  0  0  0  0
 16 19  1  0  0  0  0
 17 16  1  0  0  0  0
 17 12  2  0  0  0  0
 18 12  1  0  0  0  0
 20 25  1  0  0  0  0
 20 27  2  0  0  0  0
 22 23  1  0  0  0  0
 22 29  2  0  0  0  0
 23 28  1  0  0  0  0
 24 22  1  0  0  0  0
 25 26  1  0  0  0  0
 26 21  2  0  0  0  0
 27 21  1  0  0  0  0
 28 25  2  0  0  0  0
 29 20  1  0  0  0  0
M  END
>  <MODEL>
8

>  <REMARK>
 VINA RESULT:      -6.6      5.037      7.457
  Name = 
  2 active torsions:
  status: ('A' for Active; 'I' for Inactive)
    1  A    between atoms: C_14  and  N_23
    2  A    between atoms: C_15  and  C_19
                            x       y       z     vdW  Elec       q    Type
                         _______ _______ _______ _____ _____    ______ ____

>  <TORSDO>
F 2

$$$$
=
 OpenBabel11042410053D

 29 33  0  0  1  0  0  0  0  0999 V2000
  183.2600  179.4840  139.8580 C   0  0  0  0  0  1  0  0  0  0  0  0
  182.3530  179.5900  142.8000 C   0  0  0  0  0  2  0  0  0  0  0  0
  180.3650  179.4030  141.3060 C   0  0  0  0  0  0  0  0  0  0  0  0
  182.9190  178.3550  142.1060 C   0  0  1  0  0  3  0  0  0  0  0  0
  182.5680  178.3540  140.6070 C   0  0  1  0  0  3  0  0  0  0  0  0
  181.0520  178.4290  140.3810 C   0  0  1  0  0  3  0  0  0  0  0  0
  180.8300  179.5700  142.7250 C   0  0  0  0  0  2  0  0  0  0  0  0
  179.3840  180.0140  140.9190 O   0  0  0  0  0  0  0  0  0  0  0  0
  184.9550  178.1820  143.6130 C   0  0  0  0  0  0  0  0  0  0  0  0
  187.8590  178.1920  147.0700 C   0  0  0  0  0  2  0  0  0  0  0  0
  184.0740  178.1540  144.8060 C   0  0  0  0  0  3  0  0  0  0  0  0
  186.8320  178.4120  146.0250 C   0  0  0  0  0  0  0  0  0  0  0  0
  186.2500  178.0290  143.6780 N   0  0  0  0  0  0  0  0  0  0  0  0
  184.3910  178.6280  146.0080 C   0  0  0  0  0  3  0  0  0  0  0  0
  184.3580  178.2660  142.3140 N   0  0  0  0  0  2  0  0  0  0  0  0
  188.3780  177.1570  144.7250 C   0  0  0  0  0  2  0  0  0  0  0  0
  187.0830  177.8690  144.8390 C   0  0  0  0  0  0  0  0  0  0  0  0
  185.6800  179.3210  146.2820 C   0  0  0  0  0  2  0  0  0  0  0  0
  189.0730  177.0110  146.4010 S   0  0  0  0  0  0  0  0  0  0  0  0
  179.6970  174.9620  139.9890 C   0  0  0  0  0  0  0  0  0  0  0  0
  179.5450  176.6620  141.3400 C   0  0  0  0  0  3  0  0  0  0  0  0
  180.2140  173.4640  138.2390 C   0  0  0  0  0  0  0  0  0  0  0  0
  181.1620  174.4900  137.6170 C   0  0  0  0  0  2  0  0  0  0  0  0
  180.0550  172.2060  137.5950 N   0  0  0  0  0  1  0  0  0  0  0  0
  180.5580  175.9720  139.4770 C   0  0  0  0  0  0  0  0  0  0  0  0
  180.4180  177.0700  140.4160 C   0  0  0  0  0  0  0  0  0  0  0  0
  179.0920  175.3250  141.0700 N   0  0  0  0  0  0  0  0  0  0  0  0
  181.2680  175.8030  138.3710 C   0  0  0  0  0  3  0  0  0  0  0  0
  179.5470  173.7050  139.3350 N   0  0  0  0  0  0  0  0  0  0  0  0
  3  7  1  0  0  0  0
  4 15  1  6  0  0  0
  4  2  1  0  0  0  0
  5  1  1  6  0  0  0
  5  4  1  0  0  0  0
  6 26  1  1  0  0  0
  6  5  1  0  0  0  0
  6  3  1  0  0  0  0
  7  2  1  0  0  0  0
  8  3  2  0  0  0  0
  9 13  2  0  0  0  0
  9 11  1  0  0  0  0
 11 14  2  0  0  0  0
 12 18  1  0  0  0  0
 12 10  1  0  0  0  0
 13 17  1  0  0  0  0
 14 18  1  0  0  0  0
 15  9  1  0  0  0  0
 16 17  1  0  0  0  0
 16 19  1  0  0  0  0
 17 12  2  0  0  0  0
 19 10  1  0  0  0  0
 20 27  2  0  0  0  0
 22 29  2  0  0  0  0
 23 22  1  0  0  0  0
 23 28  1  0  0  0  0
 24 22  1  0  0  0  0
 25 20  1  0  0  0  0
 25 26  1  0  0  0  0
 26 21  2  0  0  0  0
 27 21  1  0  0  0  0
 28 25  2  0  0  0  0
 29 20  1  0  0  0  0
M  END
>  <MODEL>
9

>  <REMARK>
 VINA RESULT:      -6.5      2.047      3.774
  Name = 
  2 active torsions:
  status: ('A' for Active; 'I' for Inactive)
    1  A    between atoms: C_14  and  N_23
    2  A    between atoms: C_15  and  C_19
                            x       y       z     vdW  Elec       q    Type
                         _______ _______ _______ _____ _____    ______ ____

>  <TORSDO>
F 2

$$$$
