=
 OpenBabel11032421163D

 52 56  0  0  1  0  0  0  0  0999 V2000
  189.2190  173.1500  137.2030 O   0  0  0  0  0  0  0  0  0  0  0  0
  188.8230  171.8780  135.2210 C   0  0  0  0  0  2  0  0  0  0  0  0
  186.3900  178.2910  137.1000 C   0  0  0  0  0  0  0  0  0  0  0  0
  188.7320  177.4170  137.0300 C   0  0  0  0  0  2  0  0  0  0  0  0
  183.1140  174.9860  138.2630 S   0  0  0  0  0  0  0  0  0  0  0  0
  180.3770  175.7330  138.2170 C   0  0  0  0  0  1  0  0  0  0  0  0
  184.0020  177.5600  139.1570 C   0  0  1  0  0  3  0  0  0  0  0  0
  188.5570  176.2380  136.0790 C   0  0  0  0  0  2  0  0  0  0  0  0
  181.5670  175.3430  137.4090 C   0  0  0  0  0  0  0  0  0  0  0  0
  184.3210  173.2630  134.5960 C   0  0  0  0  0  2  0  0  0  0  0  0
  186.5480  172.1840  134.7190 C   0  0  0  0  0  2  0  0  0  0  0  0
  189.6500  174.2640  135.1930 N   0  0  0  0  0  2  0  0  0  0  0  0
  183.7830  176.6260  137.9950 C   0  0  1  0  0  3  0  0  0  0  0  0
  182.5600  174.9070  135.1410 C   0  0  0  0  0  2  0  0  0  0  0  0
  181.4380  175.2580  136.0720 C   0  0  0  0  0  3  0  0  0  0  0  0
  187.7890  178.5530  136.6500 C   0  0  0  0  0  2  0  0  0  0  0  0
  185.2080  172.3460  135.4110 C   0  0  0  0  0  2  0  0  0  0  0  0
  185.9510  178.9110  138.1730 N   0  0  0  0  0  0  0  0  0  0  0  0
  187.3510  170.0700  135.3070 C   0  0  0  0  0  1  0  0  0  0  0  0
  184.5750  178.9390  138.7190 C   0  0  0  0  0  2  0  0  0  0  0  0
  189.2330  173.1210  135.9430 C   0  0  0  0  0  0  0  0  0  0  0  0
  184.6040  176.8140  137.0170 C   0  0  0  0  0  2  0  0  0  0  0  0
  185.5810  177.3110  136.3440 C   0  0  0  0  0  2  0  0  0  0  0  0
  187.4740  171.4890  135.6020 N   0  0  0  0  0  0  0  0  0  0  0  0
  189.8900  175.5580  135.8190 C   0  0  1  0  0  3  0  0  0  0  0  0
  183.0140  173.4720  135.3340 C   0  0  0  0  0  2  0  0  0  0  0  0
  182.6980  178.4680  140.9160 N   0  0  0  0  0  0  0  0  0  0  0  0
  182.7400  177.7740  139.8520 N   0  0  0  0  0  0  0  0  0  0  0  0
  181.4180  179.0720  143.3340 S   0  0  0  0  0  0  0  0  0  0  0  0
  181.4650  178.7150  141.5910 C   0  0  0  0  0  0  0  0  0  0  0  0
  179.2140  179.1680  141.7900 C   0  0  0  0  0  2  0  0  0  0  0  0
  179.7760  179.8060  143.0520 C   0  0  0  0  0  2  0  0  0  0  0  0
  180.3450  178.8110  140.9560 N   0  0  0  0  0  0  0  0  0  0  0  0
  190.7130  176.4360  134.8860 C   0  0  0  0  0  2  0  0  0  0  0  0
  192.2000  176.1230  134.9990 C   0  0  0  0  0  2  0  0  0  0  0  0
  192.5090  175.5800  136.3880 C   0  0  0  0  0  2  0  0  0  0  0  0
  193.4300  176.5110  137.1630 C   0  0  0  0  0  2  0  0  0  0  0  0
  191.5730  176.7390  138.8530 N   0  0  0  0  0  2  0  0  0  0  0  0
  189.4800  176.8680  140.2720 C   0  0  0  0  0  2  0  0  0  0  0  0
  189.3310  178.1760  144.1940 S   0  0  0  0  0  0  0  0  0  0  0  0
  190.9850  176.9560  140.1460 C   0  0  0  0  0  0  0  0  0  0  0  0
  193.8240  176.6380  139.5050 O   0  0  0  0  0  0  0  0  0  0  0  0
  188.9560  177.6220  141.5030 C   0  0  0  0  0  2  0  0  0  0  0  0
  191.8620  177.9220  143.4410 N   0  0  0  0  0  0  0  0  0  0  0  0
  189.7320  177.1740  142.7350 C   0  0  1  0  0  3  0  0  0  0  0  0
  191.1070  178.1950  144.6540 C   0  0  2  0  0  3  0  0  0  0  0  0
  192.9760  176.6530  138.5730 C   0  0  0  0  0  0  0  0  0  0  0  0
  191.1750  177.4030  142.4850 C   0  0  0  0  0  0  0  0  0  0  0  0
  191.7370  177.1960  141.1850 N   0  0  0  0  0  0  0  0  0  0  0  0
  191.9660  176.0030  145.1020 O   0  0  0  0  0  1  0  0  0  0  0  0
  191.3990  177.1260  145.7010 C   0  0  2  0  0  3  0  0  0  0  0  0
  190.1650  176.7440  146.3710 N   0  0  0  0  0  1  0  0  0  0  0  0
  2 24  1  0  0  0  0
  2 21  1  0  0  0  0
  3 18  2  0  0  0  0
  7 28  1  6  0  0  0
  8  4  1  0  0  0  0
  9  6  1  0  0  0  0
  9  5  1  0  0  0  0
 10 26  1  0  0  0  0
 10 17  1  0  0  0  0
 11 17  1  0  0  0  0
 11 24  1  0  0  0  0
 12 25  1  0  0  0  0
 12 21  1  0  0  0  0
 13 22  1  1  0  0  0
 13  5  1  0  0  0  0
 13  7  1  0  0  0  0
 14 26  1  0  0  0  0
 14 15  1  0  0  0  0
 15  9  2  0  0  0  0
 16  4  1  0  0  0  0
 16  3  1  0  0  0  0
 18 20  1  0  0  0  0
 19 24  1  0  0  0  0
 20  7  1  0  0  0  0
 21  1  2  0  0  0  0
 23 22  1  0  0  0  0
 23  3  1  0  0  0  0
 25 34  1  6  0  0  0
 25  8  1  0  0  0  0
 27 30  1  0  0  0  0
 28 27  2  0  0  0  0
 30 29  1  0  0  0  0
 31 32  1  0  0  0  0
 32 29  1  0  0  0  0
 33 30  2  0  0  0  0
 33 31  1  0  0  0  0
 34 35  1  0  0  0  0
 35 36  1  0  0  0  0
 36 37  1  0  0  0  0
 37 47  1  0  0  0  0
 38 41  1  0  0  0  0
 39 43  1  0  0  0  0
 40 46  1  0  0  0  0
 41 39  1  0  0  0  0
 41 49  2  0  0  0  0
 44 46  1  0  0  0  0
 45 43  1  6  0  0  0
 45 40  1  0  0  0  0
 46 51  1  1  0  0  0
 47 38  1  0  0  0  0
 47 42  2  0  0  0  0
 48 45  1  0  0  0  0
 48 44  2  0  0  0  0
 49 48  1  0  0  0  0
 51 50  1  6  0  0  0
 51 52  1  0  0  0  0
M  END
>  <MODEL>
1

>  <REMARK>
 VINA RESULT:      -8.2      0.000      0.000
  Name = 
  8 active torsions:
  status: ('A' for Active; 'I' for Inactive)
    1  A    between atoms: C_6  and  C_14
    2  A    between atoms: C_6  and  C_21
    3  A    between atoms: C_9  and  N_22
    4  A    between atoms: C_14  and  C_24
    5  A    between atoms: C_17  and  N_41
    6  A    between atoms: C_21  and  C_48
    7  A    between atoms: C_24  and  C_42
    8  A    between atoms: C_32  and  C_40
                            x       y       z     vdW  Elec       q    Type
                         _______ _______ _______ _____ _____    ______ ____

>  <TORSDO>
F 8

$$$$
=
 OpenBabel11032421163D

 52 56  0  0  1  0  0  0  0  0999 V2000
  184.8290  175.2640  137.9780 O   0  0  0  0  0  0  0  0  0  0  0  0
  182.8590  176.6130  137.9510 C   0  0  0  0  0  2  0  0  0  0  0  0
  189.3760  178.0860  140.3870 C   0  0  0  0  0  0  0  0  0  0  0  0
  188.6510  177.2220  138.1550 C   0  0  0  0  0  2  0  0  0  0  0  0
  186.6610  176.5660  144.0380 S   0  0  0  0  0  0  0  0  0  0  0  0
  187.2070  177.5800  146.6300 C   0  0  0  0  0  1  0  0  0  0  0  0
  189.4160  176.5700  143.2450 C   0  0  1  0  0  3  0  0  0  0  0  0
  187.1850  177.6420  138.1610 C   0  0  0  0  0  2  0  0  0  0  0  0
  186.5810  177.8450  145.3040 C   0  0  0  0  0  0  0  0  0  0  0  0
  183.6810  178.8300  142.0730 C   0  0  0  0  0  2  0  0  0  0  0  0
  182.8400  177.7430  140.0110 C   0  0  0  0  0  2  0  0  0  0  0  0
  185.0720  177.3750  137.0030 N   0  0  0  0  0  2  0  0  0  0  0  0
  188.0880  177.2840  143.2270 C   0  0  1  0  0  3  0  0  0  0  0  0
  185.3260  179.4340  143.8130 C   0  0  0  0  0  2  0  0  0  0  0  0
  185.9670  179.0260  145.1060 C   0  0  0  0  0  3  0  0  0  0  0  0
  189.5000  178.2410  138.9070 C   0  0  0  0  0  2  0  0  0  0  0  0
  183.2030  177.5270  141.4680 C   0  0  0  0  0  2  0  0  0  0  0  0
  190.3500  177.4910  141.0380 N   0  0  0  0  0  0  0  0  0  0  0  0
  181.1700  176.1890  139.5030 C   0  0  0  0  0  1  0  0  0  0  0  0
  190.5320  177.3600  142.5020 C   0  0  0  0  0  2  0  0  0  0  0  0
  184.3030  176.3640  137.6570 C   0  0  0  0  0  0  0  0  0  0  0  0
  187.9100  178.0200  142.1820 C   0  0  0  0  0  2  0  0  0  0  0  0
  188.1420  178.5690  141.0430 C   0  0  0  0  0  2  0  0  0  0  0  0
  182.5930  176.4580  139.3720 N   0  0  0  0  0  0  0  0  0  0  0  0
  186.5170  177.2720  136.8470 C   0  0  1  0  0  3  0  0  0  0  0  0
  184.1070  178.5840  143.5060 C   0  0  0  0  0  2  0  0  0  0  0  0
  190.9780  176.7320  145.0200 N   0  0  0  0  0  0  0  0  0  0  0  0
  189.8310  176.3530  144.6230 N   0  0  0  0  0  0  0  0  0  0  0  0
  192.1190  175.0330  146.9330 S   0  0  0  0  0  0  0  0  0  0  0  0
  191.3880  176.5570  146.3750 C   0  0  0  0  0  0  0  0  0  0  0  0
  191.9130  177.1920  148.5280 C   0  0  0  0  0  2  0  0  0  0  0  0
  192.8020  175.9730  148.3340 C   0  0  0  0  0  2  0  0  0  0  0  0
  191.3620  177.5250  147.2290 N   0  0  0  0  0  0  0  0  0  0  0  0
  186.9890  178.2410  135.7710 C   0  0  0  0  0  2  0  0  0  0  0  0
  187.6110  177.4990  134.5940 C   0  0  0  0  0  2  0  0  0  0  0  0
  189.0610  177.1560  134.9080 C   0  0  0  0  0  2  0  0  0  0  0  0
  189.2770  175.6520  134.9960 C   0  0  0  0  0  2  0  0  0  0  0  0
  191.2020  174.0420  135.2390 N   0  0  0  0  0  2  0  0  0  0  0  0
  192.9580  172.2180  135.2280 C   0  0  0  0  0  2  0  0  0  0  0  0
  196.2560  172.0630  137.7210 S   0  0  0  0  0  0  0  0  0  0  0  0
  192.4740  173.5680  135.7100 C   0  0  0  0  0  0  0  0  0  0  0  0
  191.3270  176.2400  136.0480 O   0  0  0  0  0  0  0  0  0  0  0  0
  194.0010  171.6040  136.1740 C   0  0  0  0  0  2  0  0  0  0  0  0
  195.0570  174.4140  137.9850 N   0  0  0  0  0  0  0  0  0  0  0  0
  195.1010  172.6250  136.4390 C   0  0  1  0  0  3  0  0  0  0  0  0
  196.2760  173.7560  138.4270 C   0  0  2  0  0  3  0  0  0  0  0  0
  190.6490  175.3420  135.4820 C   0  0  0  0  0  0  0  0  0  0  0  0
  194.4750  173.8530  136.9840 C   0  0  0  0  0  0  0  0  0  0  0  0
  193.2000  174.2990  136.5110 N   0  0  0  0  0  0  0  0  0  0  0  0
  198.5250  173.6480  137.6090 O   0  0  0  0  0  1  0  0  0  0  0  0
  197.4940  174.5270  137.9320 C   0  0  2  0  0  3  0  0  0  0  0  0
  197.9480  175.4450  138.9660 N   0  0  0  0  0  1  0  0  0  0  0  0
  2 24  1  0  0  0  0
  3 18  2  0  0  0  0
  3 23  1  0  0  0  0
  4  8  1  0  0  0  0
  4 16  1  0  0  0  0
  5  9  1  0  0  0  0
  7 28  1  1  0  0  0
  9  6  1  0  0  0  0
 10 26  1  0  0  0  0
 11 17  1  0  0  0  0
 12 21  1  0  0  0  0
 13 22  1  6  0  0  0
 13  7  1  0  0  0  0
 13  5  1  0  0  0  0
 14 15  1  0  0  0  0
 15  9  2  0  0  0  0
 16  3  1  0  0  0  0
 17 10  1  0  0  0  0
 18 20  1  0  0  0  0
 20  7  1  0  0  0  0
 21  2  1  0  0  0  0
 21  1  2  0  0  0  0
 23 22  1  0  0  0  0
 24 19  1  0  0  0  0
 24 11  1  0  0  0  0
 25 34  1  6  0  0  0
 25 12  1  0  0  0  0
 25  8  1  0  0  0  0
 26 14  1  0  0  0  0
 27 30  1  0  0  0  0
 28 27  2  0  0  0  0
 29 32  1  0  0  0  0
 30 29  1  0  0  0  0
 30 33  2  0  0  0  0
 32 31  1  0  0  0  0
 33 31  1  0  0  0  0
 35 36  1  0  0  0  0
 35 34  1  0  0  0  0
 36 37  1  0  0  0  0
 37 47  1  0  0  0  0
 38 47  1  0  0  0  0
 38 41  1  0  0  0  0
 39 41  1  0  0  0  0
 39 43  1  0  0  0  0
 40 46  1  0  0  0  0
 41 49  2  0  0  0  0
 44 46  1  0  0  0  0
 45 43  1  1  0  0  0
 45 48  1  0  0  0  0
 45 40  1  0  0  0  0
 46 51  1  6  0  0  0
 47 42  2  0  0  0  0
 48 44  2  0  0  0  0
 49 48  1  0  0  0  0
 51 50  1  1  0  0  0
 51 52  1  0  0  0  0
M  END
>  <MODEL>
2

>  <REMARK>
 VINA RESULT:      -7.7      3.339      8.230
  Name = 
  8 active torsions:
  status: ('A' for Active; 'I' for Inactive)
    1  A    between atoms: C_6  and  C_14
    2  A    between atoms: C_6  and  C_21
    3  A    between atoms: C_9  and  N_22
    4  A    between atoms: C_14  and  C_24
    5  A    between atoms: C_17  and  N_41
    6  A    between atoms: C_21  and  C_48
    7  A    between atoms: C_24  and  C_42
    8  A    between atoms: C_32  and  C_40
                            x       y       z     vdW  Elec       q    Type
                         _______ _______ _______ _____ _____    ______ ____

>  <TORSDO>
F 8

$$$$
=
 OpenBabel11032421163D

 52 56  0  0  1  0  0  0  0  0999 V2000
  186.3380  179.2270  137.1390 O   0  0  0  0  0  0  0  0  0  0  0  0
  184.6190  177.6170  136.7480 C   0  0  0  0  0  2  0  0  0  0  0  0
  190.9560  176.8710  139.8900 C   0  0  0  0  0  0  0  0  0  0  0  0
  189.1250  178.5160  140.3330 C   0  0  0  0  0  2  0  0  0  0  0  0
  191.3460  175.5870  135.2850 S   0  0  0  0  0  0  0  0  0  0  0  0
  193.2430  173.5910  134.6040 C   0  0  0  0  0  1  0  0  0  0  0  0
  192.9740  176.6970  137.3680 C   0  0  1  0  0  3  0  0  0  0  0  0
  187.9420  177.7870  139.7060 C   0  0  0  0  0  2  0  0  0  0  0  0
  191.8990  173.8750  135.1810 C   0  0  0  0  0  0  0  0  0  0  0  0
  187.5170  173.9320  135.9700 C   0  0  0  0  0  2  0  0  0  0  0  0
  185.7340  175.6460  136.1210 C   0  0  0  0  0  2  0  0  0  0  0  0
  185.6300  178.0390  139.0240 N   0  0  0  0  0  2  0  0  0  0  0  0
  191.8430  175.7730  136.9960 C   0  0  1  0  0  3  0  0  0  0  0  0
  189.7860  172.9870  136.2150 C   0  0  0  0  0  2  0  0  0  0  0  0
  191.1410  172.8410  135.5900 C   0  0  0  0  0  3  0  0  0  0  0  0
  190.1090  177.5190  140.9350 C   0  0  0  0  0  2  0  0  0  0  0  0
  186.9510  175.1870  135.3400 C   0  0  0  0  0  2  0  0  0  0  0  0
  192.1930  177.2890  139.7410 N   0  0  0  0  0  0  0  0  0  0  0  0
  184.3440  176.7490  134.6010 C   0  0  0  0  0  1  0  0  0  0  0  0
  193.2630  176.7080  138.8970 C   0  0  0  0  0  2  0  0  0  0  0  0
  185.5840  178.3450  137.6290 C   0  0  0  0  0  0  0  0  0  0  0  0
  190.9540  175.6430  137.9230 C   0  0  0  0  0  2  0  0  0  0  0  0
  190.3480  175.8220  139.0430 C   0  0  0  0  0  2  0  0  0  0  0  0
  185.3210  176.9620  135.6560 N   0  0  0  0  0  0  0  0  0  0  0  0
  186.6600  178.5770  139.9030 C   0  0  1  0  0  3  0  0  0  0  0  0
  188.7720  173.5260  135.2230 C   0  0  0  0  0  2  0  0  0  0  0  0
  195.0260  175.5200  137.2190 N   0  0  0  0  0  0  0  0  0  0  0  0
  194.1820  176.2920  136.6630 N   0  0  0  0  0  0  0  0  0  0  0  0
  196.4700  173.3690  136.1520 S   0  0  0  0  0  0  0  0  0  0  0  0
  196.1990  175.0870  136.5310 C   0  0  0  0  0  0  0  0  0  0  0  0
  198.1290  175.3060  135.2910 C   0  0  0  0  0  2  0  0  0  0  0  0
  197.6460  173.9240  134.8790 C   0  0  0  0  0  2  0  0  0  0  0  0
  197.0560  175.9220  136.0470 N   0  0  0  0  0  0  0  0  0  0  0  0
  186.2210  178.4420  141.3540 C   0  0  0  0  0  2  0  0  0  0  0  0
  184.9590  179.2500  141.6280 C   0  0  0  0  0  2  0  0  0  0  0  0
  184.0220  178.4550  142.5270 C   0  0  0  0  0  2  0  0  0  0  0  0
  184.2300  178.7940  143.9960 C   0  0  0  0  0  2  0  0  0  0  0  0
  185.9020  178.4610  145.8550 N   0  0  0  0  0  2  0  0  0  0  0  0
  187.3040  178.2290  147.9490 C   0  0  0  0  0  2  0  0  0  0  0  0
  191.3400  177.3180  148.0320 S   0  0  0  0  0  0  0  0  0  0  0  0
  187.1530  178.0830  146.4500 C   0  0  0  0  0  0  0  0  0  0  0  0
  186.2730  177.6130  143.6980 O   0  0  0  0  0  0  0  0  0  0  0  0
  188.7770  178.3210  148.3760 C   0  0  0  0  0  2  0  0  0  0  0  0
  190.4150  177.0180  145.5630 N   0  0  0  0  0  0  0  0  0  0  0  0
  189.5520  177.1620  147.7610 C   0  0  1  0  0  3  0  0  0  0  0  0
  191.6360  176.7600  146.3090 C   0  0  2  0  0  3  0  0  0  0  0  0
  185.5340  178.2690  144.4820 C   0  0  0  0  0  0  0  0  0  0  0  0
  189.3710  177.2100  146.2910 C   0  0  0  0  0  0  0  0  0  0  0  0
  188.1200  177.6030  145.7180 N   0  0  0  0  0  0  0  0  0  0  0  0
  192.9330  174.9680  147.2310 O   0  0  0  0  0  1  0  0  0  0  0  0
  191.9610  175.2710  146.2790 C   0  0  2  0  0  3  0  0  0  0  0  0
  192.4460  174.9000  144.9590 N   0  0  0  0  0  1  0  0  0  0  0  0
  1 21  2  0  0  0  0
  2 21  1  0  0  0  0
  3 16  1  0  0  0  0
  4 16  1  0  0  0  0
  5 13  1  0  0  0  0
  6  9  1  0  0  0  0
  7 28  1  6  0  0  0
  7 20  1  0  0  0  0
  8 25  1  0  0  0  0
  8  4  1  0  0  0  0
  9  5  1  0  0  0  0
  9 15  2  0  0  0  0
 12 25  1  0  0  0  0
 13  7  1  0  0  0  0
 13 22  1  1  0  0  0
 15 14  1  0  0  0  0
 17 10  1  0  0  0  0
 17 11  1  0  0  0  0
 18  3  2  0  0  0  0
 19 24  1  0  0  0  0
 20 18  1  0  0  0  0
 21 12  1  0  0  0  0
 22 23  1  0  0  0  0
 23  3  1  0  0  0  0
 24 11  1  0  0  0  0
 24  2  1  0  0  0  0
 25 34  1  1  0  0  0
 26 10  1  0  0  0  0
 26 14  1  0  0  0  0
 28 27  2  0  0  0  0
 29 30  1  0  0  0  0
 30 27  1  0  0  0  0
 31 33  1  0  0  0  0
 32 31  1  0  0  0  0
 32 29  1  0  0  0  0
 33 30  2  0  0  0  0
 34 35  1  0  0  0  0
 35 36  1  0  0  0  0
 36 37  1  0  0  0  0
 37 47  1  0  0  0  0
 38 41  1  0  0  0  0
 39 43  1  0  0  0  0
 41 39  1  0  0  0  0
 42 47  2  0  0  0  0
 44 48  2  0  0  0  0
 44 46  1  0  0  0  0
 45 40  1  0  0  0  0
 45 43  1  1  0  0  0
 46 51  1  1  0  0  0
 46 40  1  0  0  0  0
 47 38  1  0  0  0  0
 48 45  1  0  0  0  0
 49 48  1  0  0  0  0
 49 41  2  0  0  0  0
 51 52  1  6  0  0  0
 51 50  1  0  0  0  0
M  END
>  <MODEL>
3

>  <REMARK>
 VINA RESULT:      -7.3      3.665      9.155
  Name = 
  8 active torsions:
  status: ('A' for Active; 'I' for Inactive)
    1  A    between atoms: C_6  and  C_14
    2  A    between atoms: C_6  and  C_21
    3  A    between atoms: C_9  and  N_22
    4  A    between atoms: C_14  and  C_24
    5  A    between atoms: C_17  and  N_41
    6  A    between atoms: C_21  and  C_48
    7  A    between atoms: C_24  and  C_42
    8  A    between atoms: C_32  and  C_40
                            x       y       z     vdW  Elec       q    Type
                         _______ _______ _______ _____ _____    ______ ____

>  <TORSDO>
F 8

$$$$
=
 OpenBabel11032421163D

 52 56  0  0  1  0  0  0  0  0999 V2000
  187.5020  172.5420  137.5490 O   0  0  0  0  0  0  0  0  0  0  0  0
  187.1410  171.9130  135.2730 C   0  0  0  0  0  2  0  0  0  0  0  0
  186.0620  178.1480  138.5210 C   0  0  0  0  0  0  0  0  0  0  0  0
  188.1000  176.7010  138.4550 C   0  0  0  0  0  2  0  0  0  0  0  0
  181.9360  175.7020  138.4470 S   0  0  0  0  0  0  0  0  0  0  0  0
  179.5090  177.1650  138.3300 C   0  0  0  0  0  1  0  0  0  0  0  0
  183.2640  177.6580  140.0690 C   0  0  1  0  0  3  0  0  0  0  0  0
  187.8040  175.8640  137.2150 C   0  0  0  0  0  2  0  0  0  0  0  0
  180.6840  176.6560  137.5690 C   0  0  0  0  0  0  0  0  0  0  0  0
  183.2750  174.5920  134.5940 C   0  0  0  0  0  2  0  0  0  0  0  0
  185.1230  172.9420  134.6480 C   0  0  0  0  0  2  0  0  0  0  0  0
  188.5150  173.9200  135.9540 N   0  0  0  0  0  2  0  0  0  0  0  0
  183.0180  177.1090  138.6870 C   0  0  1  0  0  3  0  0  0  0  0  0
  181.9010  176.4900  135.3750 C   0  0  0  0  0  2  0  0  0  0  0  0
  180.7610  176.9160  136.2510 C   0  0  0  0  0  3  0  0  0  0  0  0
  187.5370  178.1090  138.2960 C   0  0  0  0  0  2  0  0  0  0  0  0
  183.7670  173.3060  135.2230 C   0  0  0  0  0  2  0  0  0  0  0  0
  185.6160  178.6040  139.6700 N   0  0  0  0  0  0  0  0  0  0  0  0
  185.2810  170.6130  134.7370 C   0  0  0  0  0  1  0  0  0  0  0  0
  184.2180  178.8870  140.0670 C   0  0  0  0  0  2  0  0  0  0  0  0
  187.7160  172.7980  136.3330 C   0  0  0  0  0  0  0  0  0  0  0  0
  184.0090  177.2810  137.8780 C   0  0  0  0  0  2  0  0  0  0  0  0
  185.1750  177.6280  137.4580 C   0  0  0  0  0  2  0  0  0  0  0  0
  185.6950  171.8360  135.4040 N   0  0  0  0  0  0  0  0  0  0  0  0
  188.9560  174.9200  136.9180 C   0  0  1  0  0  3  0  0  0  0  0  0
  181.9550  174.9800  135.2280 C   0  0  0  0  0  2  0  0  0  0  0  0
  181.9530  178.9520  141.5600 N   0  0  0  0  0  0  0  0  0  0  0  0
  181.9950  178.0480  140.6680 N   0  0  0  0  0  0  0  0  0  0  0  0
  179.9920  178.5050  143.5120 S   0  0  0  0  0  0  0  0  0  0  0  0
  180.7140  179.3690  142.1340 C   0  0  0  0  0  0  0  0  0  0  0  0
  178.9310  180.7750  142.5280 C   0  0  0  0  0  2  0  0  0  0  0  0
  179.0260  180.0120  143.8410 C   0  0  0  0  0  2  0  0  0  0  0  0
  180.1210  180.4550  141.7650 N   0  0  0  0  0  0  0  0  0  0  0  0
  190.1090  175.7250  136.3340 C   0  0  0  0  0  2  0  0  0  0  0  0
  190.5540  176.8260  137.2890 C   0  0  0  0  0  2  0  0  0  0  0  0
  191.2630  176.2140  138.4890 C   0  0  0  0  0  2  0  0  0  0  0  0
  191.9680  177.2710  139.3260 C   0  0  0  0  0  2  0  0  0  0  0  0
  189.9990  177.1200  140.8940 N   0  0  0  0  0  2  0  0  0  0  0  0
  187.8370  176.8230  142.1780 C   0  0  0  0  0  2  0  0  0  0  0  0
  187.1790  178.0740  146.0660 S   0  0  0  0  0  0  0  0  0  0  0  0
  189.2990  177.2130  142.1450 C   0  0  0  0  0  0  0  0  0  0  0  0
  192.1780  177.4750  141.6860 O   0  0  0  0  0  0  0  0  0  0  0  0
  187.0950  177.4560  143.3640 C   0  0  0  0  0  2  0  0  0  0  0  0
  189.7520  178.3360  145.4760 N   0  0  0  0  0  0  0  0  0  0  0  0
  187.8660  177.1740  144.6480 C   0  0  1  0  0  3  0  0  0  0  0  0
  188.8820  178.4500  146.6360 C   0  0  2  0  0  3  0  0  0  0  0  0
  191.4060  177.3180  140.7030 C   0  0  0  0  0  0  0  0  0  0  0  0
  189.2460  177.6890  144.4860 C   0  0  0  0  0  0  0  0  0  0  0  0
  189.9190  177.6000  143.2260 N   0  0  0  0  0  0  0  0  0  0  0  0
  189.5220  178.1230  148.9220 O   0  0  0  0  0  1  0  0  0  0  0  0
  189.3160  177.4620  147.7120 C   0  0  2  0  0  3  0  0  0  0  0  0
  190.5470  176.8020  147.3070 N   0  0  0  0  0  1  0  0  0  0  0  0
  2 24  1  0  0  0  0
  2 21  1  0  0  0  0
  3 18  2  0  0  0  0
  5 13  1  0  0  0  0
  7 28  1  6  0  0  0
  8  4  1  0  0  0  0
  9  6  1  0  0  0  0
  9  5  1  0  0  0  0
 10 17  1  0  0  0  0
 10 26  1  0  0  0  0
 11 17  1  0  0  0  0
 11 24  1  0  0  0  0
 12 21  1  0  0  0  0
 12 25  1  0  0  0  0
 13 22  1  1  0  0  0
 13  7  1  0  0  0  0
 14 15  1  0  0  0  0
 15  9  2  0  0  0  0
 16  4  1  0  0  0  0
 16  3  1  0  0  0  0
 18 20  1  0  0  0  0
 19 24  1  0  0  0  0
 20  7  1  0  0  0  0
 21  1  2  0  0  0  0
 23 22  1  0  0  0  0
 23  3  1  0  0  0  0
 25 34  1  6  0  0  0
 25  8  1  0  0  0  0
 26 14  1  0  0  0  0
 27 30  1  0  0  0  0
 28 27  2  0  0  0  0
 29 32  1  0  0  0  0
 30 29  1  0  0  0  0
 31 32  1  0  0  0  0
 33 30  2  0  0  0  0
 33 31  1  0  0  0  0
 34 35  1  0  0  0  0
 35 36  1  0  0  0  0
 36 37  1  0  0  0  0
 37 47  1  0  0  0  0
 38 41  1  0  0  0  0
 39 43  1  0  0  0  0
 40 46  1  0  0  0  0
 41 39  1  0  0  0  0
 41 49  2  0  0  0  0
 44 46  1  0  0  0  0
 45 43  1  6  0  0  0
 45 40  1  0  0  0  0
 46 51  1  1  0  0  0
 47 38  1  0  0  0  0
 47 42  2  0  0  0  0
 48 45  1  0  0  0  0
 48 44  2  0  0  0  0
 49 48  1  0  0  0  0
 51 52  1  6  0  0  0
 51 50  1  0  0  0  0
M  END
>  <MODEL>
4

>  <REMARK>
 VINA RESULT:      -7.2      1.773      2.111
  Name = 
  8 active torsions:
  status: ('A' for Active; 'I' for Inactive)
    1  A    between atoms: C_6  and  C_14
    2  A    between atoms: C_6  and  C_21
    3  A    between atoms: C_9  and  N_22
    4  A    between atoms: C_14  and  C_24
    5  A    between atoms: C_17  and  N_41
    6  A    between atoms: C_21  and  C_48
    7  A    between atoms: C_24  and  C_42
    8  A    between atoms: C_32  and  C_40
                            x       y       z     vdW  Elec       q    Type
                         _______ _______ _______ _____ _____    ______ ____

>  <TORSDO>
F 8

$$$$
=
 OpenBabel11032421163D

 52 56  0  0  1  0  0  0  0  0999 V2000
  181.4180  177.8720  135.5830 O   0  0  0  0  0  0  0  0  0  0  0  0
  180.0500  176.0850  136.3820 C   0  0  0  0  0  2  0  0  0  0  0  0
  186.6400  177.9890  138.2590 C   0  0  0  0  0  0  0  0  0  0  0  0
  184.5470  179.3530  138.1300 C   0  0  0  0  0  2  0  0  0  0  0  0
  186.9080  174.5200  134.9570 S   0  0  0  0  0  0  0  0  0  0  0  0
  189.1180  172.7450  135.0510 C   0  0  0  0  0  1  0  0  0  0  0  0
  188.4330  176.7750  135.8550 C   0  0  1  0  0  3  0  0  0  0  0  0
  183.4960  178.2490  138.1860 C   0  0  0  0  0  2  0  0  0  0  0  0
  187.7980  173.1070  135.6370 C   0  0  0  0  0  0  0  0  0  0  0  0
  183.5830  172.9820  137.0680 C   0  0  0  0  0  2  0  0  0  0  0  0
  181.4980  174.2540  136.6500 C   0  0  0  0  0  2  0  0  0  0  0  0
  181.1340  177.7840  137.9030 N   0  0  0  0  0  2  0  0  0  0  0  0
  187.4940  175.6520  136.2150 C   0  0  1  0  0  3  0  0  0  0  0  0
  186.0120  172.6300  137.3420 C   0  0  0  0  0  2  0  0  0  0  0  0
  187.3110  172.3580  136.6430 C   0  0  0  0  0  3  0  0  0  0  0  0
  185.7650  178.9720  138.9650 C   0  0  0  0  0  2  0  0  0  0  0  0
  182.7150  173.6190  136.0030 C   0  0  0  0  0  2  0  0  0  0  0  0
  187.7450  178.4260  137.6970 N   0  0  0  0  0  0  0  0  0  0  0  0
  179.7850  174.1800  135.0620 C   0  0  0  0  0  1  0  0  0  0  0  0
  188.8390  177.6360  137.0850 C   0  0  0  0  0  2  0  0  0  0  0  0
  180.9090  177.2920  136.5800 C   0  0  0  0  0  0  0  0  0  0  0  0
  186.7330  175.9160  137.2230 C   0  0  0  0  0  2  0  0  0  0  0  0
  186.1980  176.5800  138.1860 C   0  0  0  0  0  2  0  0  0  0  0  0
  180.7800  175.0520  135.6650 N   0  0  0  0  0  0  0  0  0  0  0  0
  182.0980  178.8410  138.1830 C   0  0  1  0  0  3  0  0  0  0  0  0
  184.8280  172.4160  136.4160 C   0  0  0  0  0  2  0  0  0  0  0  0
  190.5880  175.7970  135.9730 N   0  0  0  0  0  0  0  0  0  0  0  0
  189.6360  176.2250  135.2470 N   0  0  0  0  0  0  0  0  0  0  0  0
  192.9900  176.2360  134.5970 S   0  0  0  0  0  0  0  0  0  0  0  0
  191.7610  175.2250  135.3950 C   0  0  0  0  0  0  0  0  0  0  0  0
  193.3270  173.5900  134.9620 C   0  0  0  0  0  2  0  0  0  0  0  0
  194.1560  174.8600  134.8400 C   0  0  0  0  0  2  0  0  0  0  0  0
  192.0470  173.9730  135.5250 N   0  0  0  0  0  0  0  0  0  0  0  0
  181.8190  179.4400  139.5550 C   0  0  0  0  0  2  0  0  0  0  0  0
  180.7900  178.6170  140.3200 C   0  0  0  0  0  2  0  0  0  0  0  0
  181.4650  177.8930  141.4770 C   0  0  0  0  0  2  0  0  0  0  0  0
  182.1020  178.8670  142.4560 C   0  0  0  0  0  2  0  0  0  0  0  0
  183.9540  178.4870  144.1260 N   0  0  0  0  0  2  0  0  0  0  0  0
  185.5450  178.1270  146.0610 C   0  0  0  0  0  2  0  0  0  0  0  0
  189.6600  177.8250  145.7440 S   0  0  0  0  0  0  0  0  0  0  0  0
  185.2900  178.2070  144.5720 C   0  0  0  0  0  0  0  0  0  0  0  0
  184.2550  178.0690  141.8370 O   0  0  0  0  0  0  0  0  0  0  0  0
  187.0220  178.3650  146.4100 C   0  0  0  0  0  2  0  0  0  0  0  0
  188.5810  177.7980  143.3210 N   0  0  0  0  0  0  0  0  0  0  0  0
  187.8940  177.4510  145.5570 C   0  0  1  0  0  3  0  0  0  0  0  0
  189.8850  177.6060  143.9370 C   0  0  2  0  0  3  0  0  0  0  0  0
  183.5020  178.4700  142.7650 C   0  0  0  0  0  0  0  0  0  0  0  0
  187.5850  177.7110  144.1310 C   0  0  0  0  0  0  0  0  0  0  0  0
  186.2490  178.0030  143.7100 N   0  0  0  0  0  0  0  0  0  0  0  0
  191.7870  176.1550  143.8110 O   0  0  0  0  0  1  0  0  0  0  0  0
  190.4060  176.2080  143.6290 C   0  0  2  0  0  3  0  0  0  0  0  0
  190.0860  175.8550  142.2540 N   0  0  0  0  0  1  0  0  0  0  0  0
  1 21  2  0  0  0  0
  2 21  1  0  0  0  0
  3 16  1  0  0  0  0
  4  8  1  0  0  0  0
  4 16  1  0  0  0  0
  5  9  1  0  0  0  0
  5 13  1  0  0  0  0
  6  9  1  0  0  0  0
  7 28  1  1  0  0  0
  7 13  1  0  0  0  0
  7 20  1  0  0  0  0
  9 15  2  0  0  0  0
 12 25  1  0  0  0  0
 13 22  1  6  0  0  0
 15 14  1  0  0  0  0
 17 11  1  0  0  0  0
 17 10  1  0  0  0  0
 18  3  2  0  0  0  0
 19 24  1  0  0  0  0
 20 18  1  0  0  0  0
 21 12  1  0  0  0  0
 22 23  1  0  0  0  0
 23  3  1  0  0  0  0
 24  2  1  0  0  0  0
 24 11  1  0  0  0  0
 25  8  1  0  0  0  0
 25 34  1  1  0  0  0
 26 10  1  0  0  0  0
 26 14  1  0  0  0  0
 28 27  2  0  0  0  0
 29 32  1  0  0  0  0
 29 30  1  0  0  0  0
 30 33  2  0  0  0  0
 30 27  1  0  0  0  0
 31 33  1  0  0  0  0
 32 31  1  0  0  0  0
 34 35  1  0  0  0  0
 35 36  1  0  0  0  0
 36 37  1  0  0  0  0
 37 47  1  0  0  0  0
 38 41  1  0  0  0  0
 39 43  1  0  0  0  0
 41 39  1  0  0  0  0
 42 47  2  0  0  0  0
 44 46  1  0  0  0  0
 44 48  2  0  0  0  0
 45 40  1  0  0  0  0
 45 43  1  1  0  0  0
 46 51  1  1  0  0  0
 46 40  1  0  0  0  0
 47 38  1  0  0  0  0
 48 45  1  0  0  0  0
 49 48  1  0  0  0  0
 49 41  2  0  0  0  0
 51 52  1  6  0  0  0
 51 50  1  0  0  0  0
M  END
>  <MODEL>
5

>  <REMARK>
 VINA RESULT:      -7.2      3.313      8.135
  Name = 
  8 active torsions:
  status: ('A' for Active; 'I' for Inactive)
    1  A    between atoms: C_6  and  C_14
    2  A    between atoms: C_6  and  C_21
    3  A    between atoms: C_9  and  N_22
    4  A    between atoms: C_14  and  C_24
    5  A    between atoms: C_17  and  N_41
    6  A    between atoms: C_21  and  C_48
    7  A    between atoms: C_24  and  C_42
    8  A    between atoms: C_32  and  C_40
                            x       y       z     vdW  Elec       q    Type
                         _______ _______ _______ _____ _____    ______ ____

>  <TORSDO>
F 8

$$$$
=
 OpenBabel11032421163D

 52 56  0  0  1  0  0  0  0  0999 V2000
  184.8640  179.8030  138.4590 O   0  0  0  0  0  0  0  0  0  0  0  0
  183.0770  178.2330  138.2420 C   0  0  0  0  0  2  0  0  0  0  0  0
  189.6870  177.3260  140.7040 C   0  0  0  0  0  0  0  0  0  0  0  0
  187.9510  179.0090  141.3420 C   0  0  0  0  0  2  0  0  0  0  0  0
  189.5680  176.0650  136.0780 S   0  0  0  0  0  0  0  0  0  0  0  0
  191.3370  174.0310  135.1940 C   0  0  0  0  0  1  0  0  0  0  0  0
  191.4280  177.1240  137.9850 C   0  0  1  0  0  3  0  0  0  0  0  0
  186.6930  178.3100  140.8390 C   0  0  0  0  0  2  0  0  0  0  0  0
  190.0680  174.3410  135.9090 C   0  0  0  0  0  0  0  0  0  0  0  0
  185.7940  174.4900  137.1510 C   0  0  0  0  0  2  0  0  0  0  0  0
  184.0750  176.2420  137.4930 C   0  0  0  0  0  2  0  0  0  0  0  0
  184.3280  178.6180  140.4020 N   0  0  0  0  0  2  0  0  0  0  0  0
  190.2430  176.2280  137.7290 C   0  0  1  0  0  3  0  0  0  0  0  0
  188.0540  173.4940  137.1550 C   0  0  0  0  0  2  0  0  0  0  0  0
  189.3330  173.3220  136.3910 C   0  0  0  0  0  3  0  0  0  0  0  0
  188.9680  177.9860  141.8350 C   0  0  0  0  0  2  0  0  0  0  0  0
  185.1940  175.7620  136.5880 C   0  0  0  0  0  2  0  0  0  0  0  0
  190.9120  177.7180  140.4290 N   0  0  0  0  0  0  0  0  0  0  0  0
  182.5600  177.3860  136.1310 C   0  0  0  0  0  1  0  0  0  0  0  0
  191.8740  177.1190  139.4750 C   0  0  0  0  0  2  0  0  0  0  0  0
  184.1440  178.9340  139.0210 C   0  0  0  0  0  0  0  0  0  0  0  0
  189.4530  176.1120  138.7420 C   0  0  0  0  0  2  0  0  0  0  0  0
  188.9710  176.2970  139.9210 C   0  0  0  0  0  2  0  0  0  0  0  0
  183.6470  177.5710  137.0790 N   0  0  0  0  0  0  0  0  0  0  0  0
  185.4560  179.1280  141.1710 C   0  0  1  0  0  3  0  0  0  0  0  0
  186.9540  174.0620  136.2760 C   0  0  0  0  0  2  0  0  0  0  0  0
  193.4130  175.8840  137.6100 N   0  0  0  0  0  0  0  0  0  0  0  0
  192.5470  176.6970  137.1570 N   0  0  0  0  0  0  0  0  0  0  0  0
  194.9730  176.2920  135.3190 S   0  0  0  0  0  0  0  0  0  0  0  0
  194.4970  175.4290  136.8010 C   0  0  0  0  0  0  0  0  0  0  0  0
  196.3690  174.1950  136.2690 C   0  0  0  0  0  2  0  0  0  0  0  0
  196.5880  175.4640  135.4590 C   0  0  0  0  0  2  0  0  0  0  0  0
  195.2570  174.4500  137.1630 N   0  0  0  0  0  0  0  0  0  0  0  0
  185.1680  178.9920  142.6600 C   0  0  0  0  0  2  0  0  0  0  0  0
  183.7620  179.4740  142.9960 C   0  0  0  0  0  2  0  0  0  0  0  0
  183.1850  178.6330  144.1270 C   0  0  0  0  0  2  0  0  0  0  0  0
  183.7870  179.0090  145.4730 C   0  0  0  0  0  2  0  0  0  0  0  0
  185.8330  178.5550  146.8760 N   0  0  0  0  0  2  0  0  0  0  0  0
  187.6720  178.1920  148.5770 C   0  0  0  0  0  2  0  0  0  0  0  0
  191.5960  177.2310  147.6820 S   0  0  0  0  0  0  0  0  0  0  0  0
  187.1780  178.1300  147.1480 C   0  0  0  0  0  0  0  0  0  0  0  0
  185.6790  177.8230  144.6520 O   0  0  0  0  0  0  0  0  0  0  0  0
  189.2050  178.2420  148.6580 C   0  0  0  0  0  2  0  0  0  0  0  0
  190.1230  177.0770  145.4810 N   0  0  0  0  0  0  0  0  0  0  0  0
  189.7910  177.1100  147.8220 C   0  0  1  0  0  3  0  0  0  0  0  0
  191.4760  176.7640  145.9110 C   0  0  2  0  0  3  0  0  0  0  0  0
  185.1560  178.4430  145.6170 C   0  0  0  0  0  0  0  0  0  0  0  0
  189.2780  177.2410  146.4380 C   0  0  0  0  0  0  0  0  0  0  0  0
  187.9390  177.6800  146.1890 N   0  0  0  0  0  0  0  0  0  0  0  0
  192.8130  174.8770  146.5400 O   0  0  0  0  0  1  0  0  0  0  0  0
  191.7500  175.2750  145.7310 C   0  0  2  0  0  3  0  0  0  0  0  0
  192.0710  174.9990  144.3400 N   0  0  0  0  0  1  0  0  0  0  0  0
  1 21  2  0  0  0  0
  2 21  1  0  0  0  0
  3 16  1  0  0  0  0
  4 16  1  0  0  0  0
  5 13  1  0  0  0  0
  6  9  1  0  0  0  0
  7 28  1  6  0  0  0
  7 20  1  0  0  0  0
  8 25  1  0  0  0  0
  8  4  1  0  0  0  0
  9  5  1  0  0  0  0
  9 15  2  0  0  0  0
 12 25  1  0  0  0  0
 13  7  1  0  0  0  0
 13 22  1  1  0  0  0
 15 14  1  0  0  0  0
 17 10  1  0  0  0  0
 17 11  1  0  0  0  0
 18  3  2  0  0  0  0
 19 24  1  0  0  0  0
 20 18  1  0  0  0  0
 21 12  1  0  0  0  0
 22 23  1  0  0  0  0
 23  3  1  0  0  0  0
 24 11  1  0  0  0  0
 24  2  1  0  0  0  0
 25 34  1  1  0  0  0
 26 10  1  0  0  0  0
 26 14  1  0  0  0  0
 28 27  2  0  0  0  0
 29 32  1  0  0  0  0
 29 30  1  0  0  0  0
 30 33  2  0  0  0  0
 30 27  1  0  0  0  0
 31 33  1  0  0  0  0
 32 31  1  0  0  0  0
 34 35  1  0  0  0  0
 35 36  1  0  0  0  0
 36 37  1  0  0  0  0
 37 47  1  0  0  0  0
 38 41  1  0  0  0  0
 39 43  1  0  0  0  0
 40 45  1  0  0  0  0
 41 39  1  0  0  0  0
 42 47  2  0  0  0  0
 44 46  1  0  0  0  0
 44 48  2  0  0  0  0
 45 43  1  1  0  0  0
 46 51  1  1  0  0  0
 46 40  1  0  0  0  0
 47 38  1  0  0  0  0
 48 45  1  0  0  0  0
 49 48  1  0  0  0  0
 49 41  2  0  0  0  0
 51 52  1  6  0  0  0
 51 50  1  0  0  0  0
M  END
>  <MODEL>
6

>  <REMARK>
 VINA RESULT:      -7.0      3.484      8.898
  Name = 
  8 active torsions:
  status: ('A' for Active; 'I' for Inactive)
    1  A    between atoms: C_6  and  C_14
    2  A    between atoms: C_6  and  C_21
    3  A    between atoms: C_9  and  N_22
    4  A    between atoms: C_14  and  C_24
    5  A    between atoms: C_17  and  N_41
    6  A    between atoms: C_21  and  C_48
    7  A    between atoms: C_24  and  C_42
    8  A    between atoms: C_32  and  C_40
                            x       y       z     vdW  Elec       q    Type
                         _______ _______ _______ _____ _____    ______ ____

>  <TORSDO>
F 8

$$$$
=
 OpenBabel11032421163D

 52 56  0  0  1  0  0  0  0  0999 V2000
  183.7140  175.5060  138.4460 O   0  0  0  0  0  0  0  0  0  0  0  0
  181.8190  176.9590  138.4630 C   0  0  0  0  0  2  0  0  0  0  0  0
  188.5480  178.1970  140.4050 C   0  0  0  0  0  0  0  0  0  0  0  0
  187.6360  177.2560  138.2740 C   0  0  0  0  0  2  0  0  0  0  0  0
  186.0000  177.0260  144.2960 S   0  0  0  0  0  0  0  0  0  0  0  0
  186.7640  178.1460  146.7880 C   0  0  0  0  0  1  0  0  0  0  0  0
  188.6940  176.8360  143.3360 C   0  0  1  0  0  3  0  0  0  0  0  0
  186.1980  177.7560  138.3470 C   0  0  0  0  0  2  0  0  0  0  0  0
  186.0690  178.3750  145.4910 C   0  0  0  0  0  0  0  0  0  0  0  0
  183.0200  179.3440  142.3930 C   0  0  0  0  0  2  0  0  0  0  0  0
  181.9920  178.1960  140.4530 C   0  0  0  0  0  2  0  0  0  0  0  0
  184.0030  177.5450  137.3380 N   0  0  0  0  0  2  0  0  0  0  0  0
  187.4070  177.6200  143.3600 C   0  0  1  0  0  3  0  0  0  0  0  0
  184.8040  179.9480  143.9920 C   0  0  0  0  0  2  0  0  0  0  0  0
  185.5050  179.5750  145.2640 C   0  0  0  0  0  3  0  0  0  0  0  0
  188.5840  178.2650  138.9140 C   0  0  0  0  0  2  0  0  0  0  0  0
  182.4370  178.0390  141.8950 C   0  0  0  0  0  2  0  0  0  0  0  0
  189.5300  177.5830  141.0270 N   0  0  0  0  0  0  0  0  0  0  0  0
  180.2150  176.7130  140.1380 C   0  0  0  0  0  1  0  0  0  0  0  0
  189.7990  177.5220  142.4820 C   0  0  0  0  0  2  0  0  0  0  0  0
  183.2270  176.6150  138.0960 C   0  0  0  0  0  0  0  0  0  0  0  0
  187.2000  178.3080  142.2880 C   0  0  0  0  0  2  0  0  0  0  0  0
  187.3860  178.7820  141.1070 C   0  0  0  0  0  2  0  0  0  0  0  0
  181.6390  176.8950  139.9050 N   0  0  0  0  0  0  0  0  0  0  0  0
  185.4280  177.3540  137.1000 C   0  0  1  0  0  3  0  0  0  0  0  0
  183.5250  179.1520  143.8090 C   0  0  0  0  0  2  0  0  0  0  0  0
  190.4330  176.6960  144.9400 N   0  0  0  0  0  0  0  0  0  0  0  0
  189.1860  176.6700  144.6970 N   0  0  0  0  0  0  0  0  0  0  0  0
  192.0830  175.2850  146.7120 S   0  0  0  0  0  0  0  0  0  0  0  0
  190.9310  176.5690  146.2720 C   0  0  0  0  0  0  0  0  0  0  0  0
  191.3420  177.2040  148.4490 C   0  0  0  0  0  2  0  0  0  0  0  0
  192.5300  176.3000  148.1550 C   0  0  0  0  0  2  0  0  0  0  0  0
  190.6680  177.4400  147.1870 N   0  0  0  0  0  0  0  0  0  0  0  0
  185.8790  178.2360  135.9430 C   0  0  0  0  0  2  0  0  0  0  0  0
  185.9690  177.4420  134.6460 C   0  0  0  0  0  2  0  0  0  0  0  0
  187.2200  176.5750  134.6570 C   0  0  0  0  0  2  0  0  0  0  0  0
  188.4510  177.3670  135.0720 C   0  0  0  0  0  2  0  0  0  0  0  0
  190.4550  176.7400  136.4690 N   0  0  0  0  0  2  0  0  0  0  0  0
  192.3360  176.3570  138.1190 C   0  0  0  0  0  2  0  0  0  0  0  0
  195.6160  173.9180  137.4770 S   0  0  0  0  0  0  0  0  0  0  0  0
  191.6380  176.0050  136.8240 C   0  0  0  0  0  0  0  0  0  0  0  0
  189.7590  175.4250  134.6550 O   0  0  0  0  0  0  0  0  0  0  0  0
  193.8090  175.9210  138.1200 C   0  0  0  0  0  2  0  0  0  0  0  0
  193.8520  173.5610  135.5280 N   0  0  0  0  0  0  0  0  0  0  0  0
  193.8990  174.4540  137.7170 C   0  0  1  0  0  3  0  0  0  0  0  0
  195.1000  172.9740  135.9910 C   0  0  2  0  0  3  0  0  0  0  0  0
  189.5950  176.4590  135.3570 C   0  0  0  0  0  0  0  0  0  0  0  0
  193.2480  174.2930  136.3960 C   0  0  0  0  0  0  0  0  0  0  0  0
  192.0780  175.0460  136.0580 N   0  0  0  0  0  0  0  0  0  0  0  0
  195.3400  171.2430  137.6310 O   0  0  0  0  0  1  0  0  0  0  0  0
  194.8880  171.5050  136.3380 C   0  0  2  0  0  3  0  0  0  0  0  0
  195.6120  170.6670  135.3950 N   0  0  0  0  0  1  0  0  0  0  0  0
  2 24  1  0  0  0  0
  3 18  2  0  0  0  0
  3 23  1  0  0  0  0
  4  8  1  0  0  0  0
  4 16  1  0  0  0  0
  5  9  1  0  0  0  0
  7 13  1  0  0  0  0
  7 28  1  1  0  0  0
  9  6  1  0  0  0  0
 10 26  1  0  0  0  0
 11 17  1  0  0  0  0
 12 21  1  0  0  0  0
 13 22  1  6  0  0  0
 13  5  1  0  0  0  0
 14 15  1  0  0  0  0
 15  9  2  0  0  0  0
 16  3  1  0  0  0  0
 17 10  1  0  0  0  0
 18 20  1  0  0  0  0
 20  7  1  0  0  0  0
 21  1  2  0  0  0  0
 21  2  1  0  0  0  0
 23 22  1  0  0  0  0
 24 19  1  0  0  0  0
 24 11  1  0  0  0  0
 25 34  1  6  0  0  0
 25 12  1  0  0  0  0
 25  8  1  0  0  0  0
 26 14  1  0  0  0  0
 27 30  1  0  0  0  0
 28 27  2  0  0  0  0
 29 32  1  0  0  0  0
 30 29  1  0  0  0  0
 30 33  2  0  0  0  0
 32 31  1  0  0  0  0
 33 31  1  0  0  0  0
 35 36  1  0  0  0  0
 35 34  1  0  0  0  0
 36 37  1  0  0  0  0
 37 47  1  0  0  0  0
 38 41  1  0  0  0  0
 39 43  1  0  0  0  0
 40 45  1  0  0  0  0
 41 39  1  0  0  0  0
 42 47  2  0  0  0  0
 44 46  1  0  0  0  0
 44 48  2  0  0  0  0
 45 43  1  6  0  0  0
 46 51  1  1  0  0  0
 46 40  1  0  0  0  0
 47 38  1  0  0  0  0
 48 45  1  0  0  0  0
 49 48  1  0  0  0  0
 49 41  2  0  0  0  0
 51 52  1  6  0  0  0
 51 50  1  0  0  0  0
M  END
>  <MODEL>
7

>  <REMARK>
 VINA RESULT:      -6.8      3.273      8.346
  Name = 
  8 active torsions:
  status: ('A' for Active; 'I' for Inactive)
    1  A    between atoms: C_6  and  C_14
    2  A    between atoms: C_6  and  C_21
    3  A    between atoms: C_9  and  N_22
    4  A    between atoms: C_14  and  C_24
    5  A    between atoms: C_17  and  N_41
    6  A    between atoms: C_21  and  C_48
    7  A    between atoms: C_24  and  C_42
    8  A    between atoms: C_32  and  C_40
                            x       y       z     vdW  Elec       q    Type
                         _______ _______ _______ _____ _____    ______ ____

>  <TORSDO>
F 8

$$$$
=
 OpenBabel11032421163D

 52 56  0  0  1  0  0  0  0  0999 V2000
  185.5820  179.5530  138.5990 O   0  0  0  0  0  0  0  0  0  0  0  0
  183.8430  177.9520  138.2640 C   0  0  0  0  0  2  0  0  0  0  0  0
  190.4560  177.0730  140.7290 C   0  0  0  0  0  0  0  0  0  0  0  0
  188.6670  178.6610  141.4560 C   0  0  0  0  0  2  0  0  0  0  0  0
  190.4110  176.1110  136.0290 S   0  0  0  0  0  0  0  0  0  0  0  0
  192.2450  174.1900  135.0340 C   0  0  0  0  0  1  0  0  0  0  0  0
  192.2240  177.0970  138.0190 C   0  0  1  0  0  3  0  0  0  0  0  0
  187.4340  177.9610  140.8960 C   0  0  0  0  0  2  0  0  0  0  0  0
  190.9610  174.4170  135.7550 C   0  0  0  0  0  0  0  0  0  0  0  0
  186.6750  174.3650  136.9610 C   0  0  0  0  0  2  0  0  0  0  0  0
  184.9040  176.0420  137.3980 C   0  0  0  0  0  2  0  0  0  0  0  0
  185.0650  178.2300  140.4570 N   0  0  0  0  0  2  0  0  0  0  0  0
  191.0680  176.1860  137.6940 C   0  0  1  0  0  3  0  0  0  0  0  0
  188.9620  173.4350  136.9230 C   0  0  0  0  0  2  0  0  0  0  0  0
  190.2520  173.3480  136.1620 C   0  0  0  0  0  3  0  0  0  0  0  0
  189.7100  177.6370  141.8920 C   0  0  0  0  0  2  0  0  0  0  0  0
  186.0430  175.6530  136.4750 C   0  0  0  0  0  2  0  0  0  0  0  0
  191.6710  177.5150  140.4910 N   0  0  0  0  0  0  0  0  0  0  0  0
  183.3680  177.2290  136.0980 C   0  0  0  0  0  1  0  0  0  0  0  0
  192.6580  177.0070  139.5100 C   0  0  0  0  0  2  0  0  0  0  0  0
  184.8830  178.6300  139.0970 C   0  0  0  0  0  0  0  0  0  0  0  0
  190.2730  175.9830  138.6900 C   0  0  0  0  0  2  0  0  0  0  0  0
  189.7760  176.0770  139.8730 C   0  0  0  0  0  2  0  0  0  0  0  0
  184.4410  177.3820  137.0670 N   0  0  0  0  0  0  0  0  0  0  0  0
  186.1720  178.7210  141.2680 C   0  0  1  0  0  3  0  0  0  0  0  0
  187.8540  174.0270  136.0710 C   0  0  0  0  0  2  0  0  0  0  0  0
  194.2550  175.9520  137.5910 N   0  0  0  0  0  0  0  0  0  0  0  0
  193.3610  176.7560  137.1760 N   0  0  0  0  0  0  0  0  0  0  0  0
  195.5190  176.1930  135.1020 S   0  0  0  0  0  0  0  0  0  0  0  0
  195.3590  175.5820  136.7670 C   0  0  0  0  0  0  0  0  0  0  0  0
  197.4280  174.6960  136.2700 C   0  0  0  0  0  2  0  0  0  0  0  0
  197.2880  175.7810  135.2130 C   0  0  0  0  0  2  0  0  0  0  0  0
  196.3490  174.8890  137.2200 N   0  0  0  0  0  0  0  0  0  0  0  0
  185.8750  178.4810  142.7420 C   0  0  0  0  0  2  0  0  0  0  0  0
  184.7280  179.3600  143.2250 C   0  0  0  0  0  2  0  0  0  0  0  0
  184.2190  178.8520  144.5680 C   0  0  0  0  0  2  0  0  0  0  0  0
  182.7180  178.6010  144.5420 C   0  0  0  0  0  2  0  0  0  0  0  0
  181.6320  178.1660  142.3080 N   0  0  0  0  0  2  0  0  0  0  0  0
  180.4960  177.3800  140.1870 C   0  0  0  0  0  2  0  0  0  0  0  0
  179.9620  179.6620  136.7770 S   0  0  0  0  0  0  0  0  0  0  0  0
  181.1010  178.4930  141.0140 C   0  0  0  0  0  0  0  0  0  0  0  0
  181.9930  180.3460  143.0980 O   0  0  0  0  0  0  0  0  0  0  0  0
  180.4720  177.7190  138.6890 C   0  0  0  0  0  2  0  0  0  0  0  0
  180.8560  181.2030  138.7430 N   0  0  0  0  0  0  0  0  0  0  0  0
  179.8300  179.0870  138.4940 C   0  0  1  0  0  3  0  0  0  0  0  0
  180.3530  181.3480  137.3860 C   0  0  2  0  0  3  0  0  0  0  0  0
  182.1180  179.1050  143.2770 C   0  0  0  0  0  0  0  0  0  0  0  0
  180.5860  180.0750  139.2990 C   0  0  0  0  0  0  0  0  0  0  0  0
  181.1190  179.7230  140.5800 N   0  0  0  0  0  0  0  0  0  0  0  0
  178.9600  182.8590  136.1540 O   0  0  0  0  0  1  0  0  0  0  0  0
  179.1030  182.2200  137.3840 C   0  0  2  0  0  3  0  0  0  0  0  0
  179.1970  183.2180  138.4380 N   0  0  0  0  0  1  0  0  0  0  0  0
  1 21  2  0  0  0  0
  2 21  1  0  0  0  0
  3 16  1  0  0  0  0
  4 16  1  0  0  0  0
  5 13  1  0  0  0  0
  6  9  1  0  0  0  0
  7 28  1  6  0  0  0
  7 20  1  0  0  0  0
  8 25  1  0  0  0  0
  8  4  1  0  0  0  0
  9  5  1  0  0  0  0
  9 15  2  0  0  0  0
 12 25  1  0  0  0  0
 13  7  1  0  0  0  0
 13 22  1  1  0  0  0
 15 14  1  0  0  0  0
 17 10  1  0  0  0  0
 17 11  1  0  0  0  0
 18  3  2  0  0  0  0
 19 24  1  0  0  0  0
 20 18  1  0  0  0  0
 21 12  1  0  0  0  0
 22 23  1  0  0  0  0
 23  3  1  0  0  0  0
 24 11  1  0  0  0  0
 24  2  1  0  0  0  0
 25 34  1  1  0  0  0
 26 14  1  0  0  0  0
 26 10  1  0  0  0  0
 28 27  2  0  0  0  0
 29 32  1  0  0  0  0
 29 30  1  0  0  0  0
 30 33  2  0  0  0  0
 30 27  1  0  0  0  0
 31 33  1  0  0  0  0
 32 31  1  0  0  0  0
 34 35  1  0  0  0  0
 35 36  1  0  0  0  0
 37 36  1  0  0  0  0
 38 47  1  0  0  0  0
 39 41  1  0  0  0  0
 40 46  1  0  0  0  0
 40 45  1  0  0  0  0
 41 38  1  0  0  0  0
 42 47  2  0  0  0  0
 43 39  1  0  0  0  0
 44 48  2  0  0  0  0
 45 43  1  6  0  0  0
 45 48  1  0  0  0  0
 46 51  1  1  0  0  0
 46 44  1  0  0  0  0
 47 37  1  0  0  0  0
 48 49  1  0  0  0  0
 49 41  2  0  0  0  0
 51 50  1  6  0  0  0
 51 52  1  0  0  0  0
M  END
>  <MODEL>
8

>  <REMARK>
 VINA RESULT:      -6.4      4.231     10.746
  Name = 
  8 active torsions:
  status: ('A' for Active; 'I' for Inactive)
    1  A    between atoms: C_6  and  C_14
    2  A    between atoms: C_6  and  C_21
    3  A    between atoms: C_9  and  N_22
    4  A    between atoms: C_14  and  C_24
    5  A    between atoms: C_17  and  N_41
    6  A    between atoms: C_21  and  C_48
    7  A    between atoms: C_24  and  C_42
    8  A    between atoms: C_32  and  C_40
                            x       y       z     vdW  Elec       q    Type
                         _______ _______ _______ _____ _____    ______ ____

>  <TORSDO>
F 8

$$$$
=
 OpenBabel11032421163D

 52 56  0  0  1  0  0  0  0  0999 V2000
  187.3640  176.7610  142.3060 O   0  0  0  0  0  0  0  0  0  0  0  0
  189.0180  178.0390  141.1510 C   0  0  0  0  0  2  0  0  0  0  0  0
  182.0050  177.5840  140.0600 C   0  0  0  0  0  0  0  0  0  0  0  0
  183.2780  178.0840  142.1550 C   0  0  0  0  0  2  0  0  0  0  0  0
  184.2360  174.5300  137.1100 S   0  0  0  0  0  0  0  0  0  0  0  0
  183.0430  173.9770  134.5970 C   0  0  0  0  0  1  0  0  0  0  0  0
  181.7230  174.7830  138.4660 C   0  0  1  0  0  3  0  0  0  0  0  0
  184.6130  178.5270  141.5660 C   0  0  0  0  0  2  0  0  0  0  0  0
  183.8410  174.9440  135.4010 C   0  0  0  0  0  0  0  0  0  0  0  0
  187.0510  177.6730  136.8410 C   0  0  0  0  0  2  0  0  0  0  0  0
  188.4460  177.9000  138.8770 C   0  0  0  0  0  2  0  0  0  0  0  0
  186.9150  179.0480  142.1180 N   0  0  0  0  0  2  0  0  0  0  0  0
  182.8740  175.4780  137.7850 C   0  0  1  0  0  3  0  0  0  0  0  0
  185.0300  177.1570  135.5190 C   0  0  0  0  0  2  0  0  0  0  0  0
  184.2490  176.0860  134.8170 C   0  0  0  0  0  3  0  0  0  0  0  0
  182.1290  178.4930  141.2390 C   0  0  0  0  0  2  0  0  0  0  0  0
  187.8670  176.9220  137.8720 C   0  0  0  0  0  2  0  0  0  0  0  0
  181.0560  176.6740  140.0690 N   0  0  0  0  0  0  0  0  0  0  0  0
  190.4410  176.9610  139.6490 C   0  0  0  0  0  1  0  0  0  0  0  0
  180.6360  175.7760  138.9690 C   0  0  0  0  0  2  0  0  0  0  0  0
  187.7250  177.8940  141.8870 C   0  0  0  0  0  0  0  0  0  0  0  0
  183.1020  176.6660  138.2350 C   0  0  0  0  0  2  0  0  0  0  0  0
  182.9850  177.7210  138.9610 C   0  0  0  0  0  2  0  0  0  0  0  0
  189.0420  177.1690  139.9860 N   0  0  0  0  0  0  0  0  0  0  0  0
  185.5680  178.9530  142.6670 C   0  0  1  0  0  3  0  0  0  0  0  0
  186.4220  176.6770  135.8880 C   0  0  0  0  0  2  0  0  0  0  0  0
  181.4000  172.6050  137.5880 N   0  0  0  0  0  0  0  0  0  0  0  0
  181.1090  173.8420  137.5400 N   0  0  0  0  0  0  0  0  0  0  0  0
  179.0120  171.5570  136.5630 S   0  0  0  0  0  0  0  0  0  0  0  0
  180.7830  171.6650  136.7100 C   0  0  0  0  0  0  0  0  0  0  0  0
  180.6710  170.1130  135.0100 C   0  0  0  0  0  2  0  0  0  0  0  0
  179.2810  170.7320  134.9630 C   0  0  0  0  0  2  0  0  0  0  0  0
  181.4700  170.9340  135.8980 N   0  0  0  0  0  0  0  0  0  0  0  0
  185.1300  180.3130  143.1930 C   0  0  0  0  0  2  0  0  0  0  0  0
  184.7820  180.2480  144.6750 C   0  0  0  0  0  2  0  0  0  0  0  0
  184.8830  178.8100  145.1650 C   0  0  0  0  0  2  0  0  0  0  0  0
  185.2030  178.7430  146.6520 C   0  0  0  0  0  2  0  0  0  0  0  0
  187.4460  178.0240  145.7520 N   0  0  0  0  0  2  0  0  0  0  0  0
  189.5940  177.4690  144.5320 C   0  0  0  0  0  2  0  0  0  0  0  0
  192.6660  175.1440  146.0420 S   0  0  0  0  0  0  0  0  0  0  0  0
  188.7640  177.4520  145.7970 C   0  0  0  0  0  0  0  0  0  0  0  0
  186.9760  177.9950  148.0500 O   0  0  0  0  0  0  0  0  0  0  0  0
  190.6940  176.3970  144.5470 C   0  0  0  0  0  2  0  0  0  0  0  0
  190.9110  175.6500  147.9660 N   0  0  0  0  0  0  0  0  0  0  0  0
  191.4900  176.5120  145.8410 C   0  0  1  0  0  3  0  0  0  0  0  0
  192.2240  175.0430  147.8200 C   0  0  2  0  0  3  0  0  0  0  0  0
  186.5760  178.2140  146.8750 C   0  0  0  0  0  0  0  0  0  0  0  0
  190.5490  176.3920  146.9790 C   0  0  0  0  0  0  0  0  0  0  0  0
  189.2350  176.9570  146.9080 N   0  0  0  0  0  0  0  0  0  0  0  0
  193.4120  175.1600  149.8970 O   0  0  0  0  0  1  0  0  0  0  0  0
  193.2430  175.7940  148.6670 C   0  0  2  0  0  3  0  0  0  0  0  0
  192.7900  177.1590  148.8860 N   0  0  0  0  0  1  0  0  0  0  0  0
  2 21  1  0  0  0  0
  3 18  2  0  0  0  0
  3 16  1  0  0  0  0
  5 13  1  0  0  0  0
  6  9  1  0  0  0  0
  7 28  1  6  0  0  0
  7 20  1  0  0  0  0
  8  4  1  0  0  0  0
  8 25  1  0  0  0  0
  9  5  1  0  0  0  0
 10 17  1  0  0  0  0
 11 24  1  0  0  0  0
 12 25  1  0  0  0  0
 13 22  1  1  0  0  0
 13  7  1  0  0  0  0
 14 26  1  0  0  0  0
 15  9  2  0  0  0  0
 15 14  1  0  0  0  0
 16  4  1  0  0  0  0
 17 11  1  0  0  0  0
 19 24  1  0  0  0  0
 20 18  1  0  0  0  0
 21 12  1  0  0  0  0
 21  1  2  0  0  0  0
 22 23  1  0  0  0  0
 23  3  1  0  0  0  0
 24  2  1  0  0  0  0
 25 34  1  6  0  0  0
 26 10  1  0  0  0  0
 28 27  2  0  0  0  0
 29 30  1  0  0  0  0
 30 27  1  0  0  0  0
 31 33  1  0  0  0  0
 32 31  1  0  0  0  0
 32 29  1  0  0  0  0
 33 30  2  0  0  0  0
 34 35  1  0  0  0  0
 35 36  1  0  0  0  0
 36 37  1  0  0  0  0
 37 47  1  0  0  0  0
 38 41  1  0  0  0  0
 38 47  1  0  0  0  0
 39 43  1  0  0  0  0
 39 41  1  0  0  0  0
 40 46  1  0  0  0  0
 41 49  2  0  0  0  0
 45 43  1  6  0  0  0
 45 40  1  0  0  0  0
 45 48  1  0  0  0  0
 46 44  1  0  0  0  0
 46 51  1  1  0  0  0
 47 42  2  0  0  0  0
 48 44  2  0  0  0  0
 49 48  1  0  0  0  0
 51 52  1  1  0  0  0
 51 50  1  0  0  0  0
M  END
>  <MODEL>
9

>  <REMARK>
 VINA RESULT:      -5.7      3.434      7.229
  Name = 
  8 active torsions:
  status: ('A' for Active; 'I' for Inactive)
    1  A    between atoms: C_6  and  C_14
    2  A    between atoms: C_6  and  C_21
    3  A    between atoms: C_9  and  N_22
    4  A    between atoms: C_14  and  C_24
    5  A    between atoms: C_17  and  N_41
    6  A    between atoms: C_21  and  C_48
    7  A    between atoms: C_24  and  C_42
    8  A    between atoms: C_32  and  C_40
                            x       y       z     vdW  Elec       q    Type
                         _______ _______ _______ _____ _____    ______ ____

>  <TORSDO>
F 8

$$$$
