=
 OpenBabel11042410013D

 38 42  0  0  1  0  0  0  0  0999 V2000
  185.3700  177.7290  146.1650 C   0  0  0  0  0  1  0  0  0  0  0  0
  184.3600  178.2480  141.7910 N   0  0  1  0  0  0  0  0  0  0  0  0
  185.5250  178.4950  144.8590 C   0  0  2  0  0  3  0  0  0  0  0  0
  184.1640  178.5550  144.1980 C   0  0  0  0  0  2  0  0  0  0  0  0
  185.4030  179.2540  142.0340 C   0  0  1  0  0  3  0  0  0  0  0  0
  186.4920  177.7900  143.9110 C   0  0  1  0  0  3  0  0  0  0  0  0
  184.1670  179.2680  142.8440 C   0  0  1  0  0  3  0  0  0  0  0  0
  186.6730  178.6150  142.6330 C   0  0  1  0  0  3  0  0  0  0  0  0
  183.6290  178.6830  140.6080 C   0  0  2  0  0  3  0  0  0  0  0  0
  183.4280  177.0090  139.0050 C   0  0  1  0  0  0  0  0  0  0  0  0
  182.6860  177.5960  140.1630 C   0  0  0  0  0  2  0  0  0  0  0  0
  184.6390  177.6370  138.6980 O   0  0  0  0  0  0  0  0  0  0  0  0
  183.0890  175.6850  138.4280 C   0  0  1  0  0  3  0  0  0  0  0  0
  184.6060  178.8300  139.4450 C   0  0  0  0  0  2  0  0  0  0  0  0
  182.6130  176.8910  137.8670 O   0  0  0  0  0  0  0  0  0  0  0  0
  184.2160  175.1320  137.5660 C   0  0  0  0  0  2  0  0  0  0  0  0
  185.4580  172.9660  137.6200 C   0  0  0  0  0  1  0  0  0  0  0  0
  184.1020  173.6230  137.4370 C   0  0  0  0  0  2  0  0  0  0  0  0
  187.8310  177.5310  144.5420 C   0  0  0  0  0  0  0  0  0  0  0  0
  188.8780  176.9430  143.8130 C   0  0  0  0  0  3  0  0  0  0  0  0
  189.2520  177.6060  146.5120 C   0  0  0  0  0  0  0  0  0  0  0  0
  188.0230  177.8560  145.8890 C   0  0  0  0  0  3  0  0  0  0  0  0
  190.1060  176.6930  144.4280 C   0  0  0  0  0  3  0  0  0  0  0  0
  190.2930  177.0220  145.7730 C   0  0  0  0  0  3  0  0  0  0  0  0
  188.3120  178.0270  148.7610 C   0  0  0  0  0  1  0  0  0  0  0  0
  189.4080  177.9410  147.8610 O   0  0  0  0  0  0  0  0  0  0  0  0
  187.3310  177.8590  141.6570 O   0  0  0  0  0  0  0  0  0  0  0  0
  188.0540  178.7920  140.9100 C   0  0  0  0  0  2  0  0  0  0  0  0
  187.9380  177.4590  138.9430 O   0  0  0  0  0  1  0  0  0  0  0  0
  188.8280  178.0760  139.8190 C   0  0  2  0  0  3  0  0  0  0  0  0
  189.7560  177.0330  140.4240 C   0  0  0  0  0  2  0  0  0  0  0  0
  191.1670  177.1630  139.8630 C   0  0  0  0  0  2  0  0  0  0  0  0
  190.7090  175.2330  138.5560 O   0  0  0  0  0  0  0  0  0  0  0  0
  191.3310  176.3260  138.6410 C   0  0  0  0  0  0  0  0  0  0  0  0
  192.2180  176.7400  137.6380 O   0  0  0  0  0  0  0  0  0  0  0  0
  193.8070  174.9250  137.9550 O   0  0  0  0  0  1  0  0  0  0  0  0
  193.4500  176.1350  137.3690 C   0  0  0  0  0  0  0  0  0  0  0  0
  194.2510  176.6960  136.5760 O   0  0  0  0  0  0  0  0  0  0  0  0
  2  9  1  6  0  0  0
  2  5  1  0  0  0  0
  2  7  1  0  0  0  0
  3  1  1  1  0  0  0
  4  3  1  0  0  0  0
  5  8  1  0  0  0  0
  5  7  1  0  0  0  0
  6 19  1  0  0  0  0
  6  3  1  0  0  0  0
  7  4  1  0  0  0  0
  8  6  1  0  0  0  0
 10 11  1  0  0  0  0
 11  9  1  0  0  0  0
 12 10  1  0  0  0  0
 12 14  1  0  0  0  0
 13 10  1  0  0  0  0
 14  9  1  0  0  0  0
 15 13  1  0  0  0  0
 15 10  1  0  0  0  0
 16 13  1  0  0  0  0
 18 16  1  0  0  0  0
 18 17  1  0  0  0  0
 19 22  1  0  0  0  0
 20 23  1  0  0  0  0
 20 19  2  0  0  0  0
 21 26  1  0  0  0  0
 22 21  2  0  0  0  0
 23 24  2  0  0  0  0
 24 21  1  0  0  0  0
 26 25  1  0  0  0  0
 27  8  1  0  0  0  0
 28 27  1  0  0  0  0
 29 30  1  0  0  0  0
 30 31  1  0  0  0  0
 30 28  1  0  0  0  0
 32 31  1  0  0  0  0
 33 34  2  0  0  0  0
 34 32  1  0  0  0  0
 35 34  1  0  0  0  0
 37 35  1  0  0  0  0
 37 36  1  0  0  0  0
 38 37  2  0  0  0  0
M  END
>  <MODEL>
1

>  <REMARK>
 VINA RESULT:      -8.2      0.000      0.000
  Name = 
  13 active torsions:
  status: ('A' for Active; 'I' for Inactive)
    1  A    between atoms: C_1  and  C_18
    2  A    between atoms: C_1  and  C_30
    3  A    between atoms: C_4  and  N_7
    4  A    between atoms: O_5  and  C_22
    5  A    between atoms: O_5  and  C_33
    6  A    between atoms: C_8  and  O_23
    7  A    between atoms: C_8  and  C_32
    8  A    between atoms: C_11  and  C_15
    9  A    between atoms: C_16  and  O_37
   10  A    between atoms: O_23  and  C_34
   11  A    between atoms: C_27  and  C_31
   12  A    between atoms: C_27  and  C_32
   13  A    between atoms: C_31  and  C_33
                            x       y       z     vdW  Elec       q    Type
                         _______ _______ _______ _____ _____    ______ ____

>  <TORSDO>
F 13

$$$$
=
 OpenBabel11042410013D

 38 42  0  0  1  0  0  0  0  0999 V2000
  190.8810  176.1330  137.0870 C   0  0  0  0  0  1  0  0  0  0  0  0
  191.0650  176.7650  141.5580 N   0  0  1  0  0  0  0  0  0  0  0  0
  190.7370  177.0470  138.2950 C   0  0  2  0  0  3  0  0  0  0  0  0
  191.8590  176.7180  139.2580 C   0  0  0  0  0  2  0  0  0  0  0  0
  190.5210  178.0310  141.0450 C   0  0  1  0  0  3  0  0  0  0  0  0
  189.4060  176.8200  139.0090 C   0  0  1  0  0  3  0  0  0  0  0  0
  191.8230  177.5360  140.5500 C   0  0  1  0  0  3  0  0  0  0  0  0
  189.2640  177.7950  140.1820 C   0  0  1  0  0  3  0  0  0  0  0  0
  191.6360  177.0570  142.8660 C   0  0  2  0  0  3  0  0  0  0  0  0
  190.0250  177.2400  144.5340 C   0  0  1  0  0  0  0  0  0  0  0  0
  190.9430  176.2330  143.9200 C   0  0  0  0  0  2  0  0  0  0  0  0
  190.1270  178.5320  144.0110 O   0  0  0  0  0  0  0  0  0  0  0  0
  188.8770  176.8540  145.3920 C   0  0  1  0  0  3  0  0  0  0  0  0
  191.3070  178.4990  143.2440 C   0  0  0  0  0  2  0  0  0  0  0  0
  190.1200  177.2490  145.9360 O   0  0  0  0  0  0  0  0  0  0  0  0
  187.8720  177.9890  145.5440 C   0  0  0  0  0  2  0  0  0  0  0  0
  187.8200  177.8050  148.0340 C   0  0  0  0  0  1  0  0  0  0  0  0
  186.9920  177.7650  146.7620 C   0  0  0  0  0  2  0  0  0  0  0  0
  188.2270  176.9600  138.0890 C   0  0  0  0  0  0  0  0  0  0  0  0
  187.7820  178.2220  137.6620 C   0  0  0  0  0  3  0  0  0  0  0  0
  186.4290  175.9070  136.8380 C   0  0  0  0  0  0  0  0  0  0  0  0
  187.5450  175.8090  137.6770 C   0  0  0  0  0  3  0  0  0  0  0  0
  186.6700  178.3260  136.8230 C   0  0  0  0  0  3  0  0  0  0  0  0
  185.9950  177.1730  136.4140 C   0  0  0  0  0  3  0  0  0  0  0  0
  185.4160  173.7140  137.3690 C   0  0  0  0  0  1  0  0  0  0  0  0
  185.7690  174.7370  136.4490 O   0  0  0  0  0  0  0  0  0  0  0  0
  188.1920  177.4190  140.9980 O   0  0  0  0  0  0  0  0  0  0  0  0
  187.6080  178.6230  141.3970 C   0  0  0  0  0  2  0  0  0  0  0  0
  185.4770  179.5840  140.9500 O   0  0  0  0  0  1  0  0  0  0  0  0
  186.1020  178.4540  141.4750 C   0  0  2  0  0  3  0  0  0  0  0  0
  185.6640  178.2520  142.9180 C   0  0  0  0  0  2  0  0  0  0  0  0
  184.9180  179.4730  143.4420 C   0  0  0  0  0  2  0  0  0  0  0  0
  184.0200  179.1810  145.6220 O   0  0  0  0  0  0  0  0  0  0  0  0
  183.8330  179.0680  144.3810 C   0  0  0  0  0  0  0  0  0  0  0  0
  182.6520  178.5160  143.8690 O   0  0  0  0  0  0  0  0  0  0  0  0
  182.1170  178.6450  141.4980 O   0  0  0  0  0  0  0  0  0  0  0  0
  181.9150  179.0590  142.8110 C   0  0  0  0  0  0  0  0  0  0  0  0
  181.0470  179.9390  143.0540 O   0  0  0  0  0  1  0  0  0  0  0  0
  2  9  1  1  0  0  0
  3  1  1  6  0  0  0
  3  6  1  0  0  0  0
  3  4  1  0  0  0  0
  4  7  1  0  0  0  0
  5  2  1  0  0  0  0
  6  8  1  0  0  0  0
  7  5  1  0  0  0  0
  7  2  1  0  0  0  0
  8 27  1  0  0  0  0
  8  5  1  0  0  0  0
  9 14  1  0  0  0  0
  9 11  1  0  0  0  0
 10 13  1  0  0  0  0
 10 15  1  0  0  0  0
 11 10  1  0  0  0  0
 12 10  1  0  0  0  0
 13 16  1  0  0  0  0
 13 15  1  0  0  0  0
 14 12  1  0  0  0  0
 16 18  1  0  0  0  0
 18 17  1  0  0  0  0
 19  6  1  0  0  0  0
 20 19  2  0  0  0  0
 21 22  2  0  0  0  0
 22 19  1  0  0  0  0
 23 20  1  0  0  0  0
 24 23  2  0  0  0  0
 24 21  1  0  0  0  0
 26 21  1  0  0  0  0
 26 25  1  0  0  0  0
 27 28  1  0  0  0  0
 28 30  1  0  0  0  0
 29 30  1  0  0  0  0
 30 31  1  0  0  0  0
 31 32  1  0  0  0  0
 32 34  1  0  0  0  0
 34 33  2  0  0  0  0
 35 34  1  0  0  0  0
 36 37  2  0  0  0  0
 37 38  1  0  0  0  0
 37 35  1  0  0  0  0
M  END
>  <MODEL>
2

>  <REMARK>
 VINA RESULT:      -8.1      2.882      9.048
  Name = 
  13 active torsions:
  status: ('A' for Active; 'I' for Inactive)
    1  A    between atoms: C_1  and  C_18
    2  A    between atoms: C_1  and  C_30
    3  A    between atoms: C_4  and  N_7
    4  A    between atoms: O_5  and  C_22
    5  A    between atoms: O_5  and  C_33
    6  A    between atoms: C_8  and  O_23
    7  A    between atoms: C_8  and  C_32
    8  A    between atoms: C_11  and  C_15
    9  A    between atoms: C_16  and  O_37
   10  A    between atoms: O_23  and  C_34
   11  A    between atoms: C_27  and  C_31
   12  A    between atoms: C_27  and  C_32
   13  A    between atoms: C_31  and  C_33
                            x       y       z     vdW  Elec       q    Type
                         _______ _______ _______ _____ _____    ______ ____

>  <TORSDO>
F 13

$$$$
=
 OpenBabel11042410013D

 38 42  0  0  1  0  0  0  0  0999 V2000
  185.1410  178.0490  146.4550 C   0  0  0  0  0  1  0  0  0  0  0  0
  183.9560  178.3070  142.1020 N   0  0  1  0  0  0  0  0  0  0  0  0
  185.2720  178.7110  145.0920 C   0  0  2  0  0  3  0  0  0  0  0  0
  183.8860  178.7940  144.4860 C   0  0  0  0  0  2  0  0  0  0  0  0
  185.0570  179.2730  142.2260 C   0  0  1  0  0  3  0  0  0  0  0  0
  186.1600  177.8930  144.1570 C   0  0  1  0  0  3  0  0  0  0  0  0
  183.8610  179.4080  143.0850 C   0  0  1  0  0  3  0  0  0  0  0  0
  186.3210  178.6140  142.8160 C   0  0  1  0  0  3  0  0  0  0  0  0
  183.1930  178.6940  140.9230 C   0  0  2  0  0  3  0  0  0  0  0  0
  183.1740  177.0470  139.2800 C   0  0  1  0  0  0  0  0  0  0  0  0
  182.3690  177.5270  140.4440 C   0  0  0  0  0  2  0  0  0  0  0  0
  184.3170  177.8010  138.9990 O   0  0  0  0  0  0  0  0  0  0  0  0
  182.9750  175.7090  138.6700 C   0  0  1  0  0  3  0  0  0  0  0  0
  184.1580  178.9670  139.7720 C   0  0  0  0  0  2  0  0  0  0  0  0
  182.3830  176.8730  138.1320 O   0  0  0  0  0  0  0  0  0  0  0  0
  184.1590  175.2940  137.8060 C   0  0  0  0  0  2  0  0  0  0  0  0
  185.1640  173.0080  137.7730 C   0  0  0  0  0  1  0  0  0  0  0  0
  183.9930  173.8640  137.3220 C   0  0  0  0  0  2  0  0  0  0  0  0
  187.5130  177.6110  144.7470 C   0  0  0  0  0  0  0  0  0  0  0  0
  187.8240  177.9830  146.0650 C   0  0  0  0  0  3  0  0  0  0  0  0
  189.7630  176.7390  144.4660 C   0  0  0  0  0  0  0  0  0  0  0  0
  188.4860  176.9940  143.9530 C   0  0  0  0  0  3  0  0  0  0  0  0
  189.0960  177.7290  146.5830 C   0  0  0  0  0  3  0  0  0  0  0  0
  190.0630  177.1110  145.7870 C   0  0  0  0  0  3  0  0  0  0  0  0
  191.4720  176.8410  142.6810 C   0  0  0  0  0  1  0  0  0  0  0  0
  190.7130  176.1240  143.6440 O   0  0  0  0  0  0  0  0  0  0  0  0
  186.8960  177.7580  141.8710 O   0  0  0  0  0  0  0  0  0  0  0  0
  187.5140  178.6070  140.9500 C   0  0  0  0  0  2  0  0  0  0  0  0
  189.6100  178.1410  139.9270 O   0  0  0  0  0  1  0  0  0  0  0  0
  188.2650  177.7790  139.9230 C   0  0  2  0  0  3  0  0  0  0  0  0
  187.6800  177.9960  138.5360 C   0  0  0  0  0  2  0  0  0  0  0  0
  187.8000  176.7370  137.6870 C   0  0  0  0  0  2  0  0  0  0  0  0
  188.5730  177.5290  135.5840 O   0  0  0  0  0  0  0  0  0  0  0  0
  188.8500  176.9010  136.6400 C   0  0  0  0  0  0  0  0  0  0  0  0
  190.1030  176.3040  136.8260 O   0  0  0  0  0  0  0  0  0  0  0  0
  189.9690  173.9470  137.4120 O   0  0  0  0  0  0  0  0  0  0  0  0
  190.3580  175.2500  137.7090 C   0  0  0  0  0  0  0  0  0  0  0  0
  190.9560  175.4830  138.7920 O   0  0  0  0  0  1  0  0  0  0  0  0
  2  9  1  6  0  0  0
  2  5  1  0  0  0  0
  2  7  1  0  0  0  0
  3  1  1  1  0  0  0
  4  3  1  0  0  0  0
  5  8  1  0  0  0  0
  5  7  1  0  0  0  0
  6 19  1  0  0  0  0
  6  3  1  0  0  0  0
  7  4  1  0  0  0  0
  8  6  1  0  0  0  0
 10 11  1  0  0  0  0
 11  9  1  0  0  0  0
 12 10  1  0  0  0  0
 12 14  1  0  0  0  0
 13 10  1  0  0  0  0
 14  9  1  0  0  0  0
 15 13  1  0  0  0  0
 15 10  1  0  0  0  0
 16 13  1  0  0  0  0
 18 17  1  0  0  0  0
 18 16  1  0  0  0  0
 19 20  1  0  0  0  0
 20 23  2  0  0  0  0
 21 24  2  0  0  0  0
 22 21  1  0  0  0  0
 22 19  2  0  0  0  0
 24 23  1  0  0  0  0
 25 26  1  0  0  0  0
 26 21  1  0  0  0  0
 27  8  1  0  0  0  0
 28 27  1  0  0  0  0
 30 29  1  0  0  0  0
 30 28  1  0  0  0  0
 31 30  1  0  0  0  0
 32 31  1  0  0  0  0
 33 34  2  0  0  0  0
 34 35  1  0  0  0  0
 34 32  1  0  0  0  0
 35 37  1  0  0  0  0
 36 37  2  0  0  0  0
 37 38  1  0  0  0  0
M  END
>  <MODEL>
3

>  <REMARK>
 VINA RESULT:      -8.1      1.564      2.333
  Name = 
  13 active torsions:
  status: ('A' for Active; 'I' for Inactive)
    1  A    between atoms: C_1  and  C_18
    2  A    between atoms: C_1  and  C_30
    3  A    between atoms: C_4  and  N_7
    4  A    between atoms: O_5  and  C_22
    5  A    between atoms: O_5  and  C_33
    6  A    between atoms: C_8  and  O_23
    7  A    between atoms: C_8  and  C_32
    8  A    between atoms: C_11  and  C_15
    9  A    between atoms: C_16  and  O_37
   10  A    between atoms: O_23  and  C_34
   11  A    between atoms: C_27  and  C_31
   12  A    between atoms: C_27  and  C_32
   13  A    between atoms: C_31  and  C_33
                            x       y       z     vdW  Elec       q    Type
                         _______ _______ _______ _____ _____    ______ ____

>  <TORSDO>
F 13

$$$$
=
 OpenBabel11042410013D

 38 42  0  0  1  0  0  0  0  0999 V2000
  186.5950  177.1280  145.8520 C   0  0  0  0  0  1  0  0  0  0  0  0
  184.7600  178.1130  141.8410 N   0  0  1  0  0  0  0  0  0  0  0  0
  186.5340  178.0070  144.6120 C   0  0  2  0  0  3  0  0  0  0  0  0
  185.0750  178.1970  144.2540 C   0  0  0  0  0  2  0  0  0  0  0  0
  185.8970  179.0390  141.9460 C   0  0  1  0  0  3  0  0  0  0  0  0
  187.2410  177.3500  143.4280 C   0  0  1  0  0  3  0  0  0  0  0  0
  184.8530  179.0350  142.9930 C   0  0  1  0  0  3  0  0  0  0  0  0
  187.2150  178.2840  142.2140 C   0  0  1  0  0  3  0  0  0  0  0  0
  183.8360  178.6940  140.8770 C   0  0  2  0  0  3  0  0  0  0  0  0
  183.7270  177.4860  138.8910 C   0  0  1  0  0  0  0  0  0  0  0  0
  183.0380  177.6020  140.2130 C   0  0  0  0  0  2  0  0  0  0  0  0
  184.7760  178.3870  138.6880 O   0  0  0  0  0  0  0  0  0  0  0  0
  183.5430  176.3170  137.9960 C   0  0  1  0  0  3  0  0  0  0  0  0
  184.6350  179.3180  139.7350 C   0  0  0  0  0  2  0  0  0  0  0  0
  182.8160  177.5160  137.8220 O   0  0  0  0  0  0  0  0  0  0  0  0
  184.6380  176.2290  136.9410 C   0  0  0  0  0  2  0  0  0  0  0  0
  184.3460  173.8620  137.6830 C   0  0  0  0  0  1  0  0  0  0  0  0
  185.0010  174.7800  136.6660 C   0  0  0  0  0  2  0  0  0  0  0  0
  188.6590  176.9670  143.7430 C   0  0  0  0  0  0  0  0  0  0  0  0
  189.4020  176.1490  142.8770 C   0  0  0  0  0  3  0  0  0  0  0  0
  190.5450  177.0530  145.2740 C   0  0  0  0  0  0  0  0  0  0  0  0
  189.2330  177.4110  144.9400 C   0  0  0  0  0  3  0  0  0  0  0  0
  190.7120  175.7900  143.2030 C   0  0  0  0  0  3  0  0  0  0  0  0
  191.2810  176.2390  144.3980 C   0  0  0  0  0  3  0  0  0  0  0  0
  191.5800  176.6330  147.4800 C   0  0  0  0  0  1  0  0  0  0  0  0
  191.0870  177.5120  146.4780 O   0  0  0  0  0  0  0  0  0  0  0  0
  187.6100  177.5940  141.0630 O   0  0  0  0  0  0  0  0  0  0  0  0
  188.3690  178.5140  140.3380 C   0  0  0  0  0  2  0  0  0  0  0  0
  187.8290  177.3510  138.3340 O   0  0  0  0  0  1  0  0  0  0  0  0
  188.8950  177.8550  139.0760 C   0  0  2  0  0  3  0  0  0  0  0  0
  189.8530  176.7270  139.4270 C   0  0  0  0  0  2  0  0  0  0  0  0
  191.2420  177.2660  139.7460 C   0  0  0  0  0  2  0  0  0  0  0  0
  193.4790  176.9320  139.0170 O   0  0  0  0  0  0  0  0  0  0  0  0
  192.2580  176.6990  138.8130 C   0  0  0  0  0  0  0  0  0  0  0  0
  191.8320  175.9690  137.6950 O   0  0  0  0  0  0  0  0  0  0  0  0
  193.2420  173.9940  137.5170 O   0  0  0  0  0  1  0  0  0  0  0  0
  191.9830  174.5870  137.5460 C   0  0  0  0  0  0  0  0  0  0  0  0
  190.9580  173.8630  137.4400 O   0  0  0  0  0  0  0  0  0  0  0  0
  2  9  1  6  0  0  0
  2  5  1  0  0  0  0
  2  7  1  0  0  0  0
  3  1  1  1  0  0  0
  4  3  1  0  0  0  0
  5  8  1  0  0  0  0
  5  7  1  0  0  0  0
  6 19  1  0  0  0  0
  6  3  1  0  0  0  0
  7  4  1  0  0  0  0
  8  6  1  0  0  0  0
 10 11  1  0  0  0  0
 11  9  1  0  0  0  0
 12 10  1  0  0  0  0
 12 14  1  0  0  0  0
 13 10  1  0  0  0  0
 14  9  1  0  0  0  0
 15 13  1  0  0  0  0
 15 10  1  0  0  0  0
 16 13  1  0  0  0  0
 18 16  1  0  0  0  0
 18 17  1  0  0  0  0
 19 22  1  0  0  0  0
 20 23  1  0  0  0  0
 20 19  2  0  0  0  0
 21 26  1  0  0  0  0
 22 21  2  0  0  0  0
 23 24  2  0  0  0  0
 24 21  1  0  0  0  0
 26 25  1  0  0  0  0
 27  8  1  0  0  0  0
 28 27  1  0  0  0  0
 29 30  1  0  0  0  0
 30 31  1  0  0  0  0
 30 28  1  0  0  0  0
 31 32  1  0  0  0  0
 34 33  2  0  0  0  0
 34 32  1  0  0  0  0
 35 34  1  0  0  0  0
 36 37  1  0  0  0  0
 37 35  1  0  0  0  0
 38 37  2  0  0  0  0
M  END
>  <MODEL>
4

>  <REMARK>
 VINA RESULT:      -8.1      1.221      1.557
  Name = 
  13 active torsions:
  status: ('A' for Active; 'I' for Inactive)
    1  A    between atoms: C_1  and  C_18
    2  A    between atoms: C_1  and  C_30
    3  A    between atoms: C_4  and  N_7
    4  A    between atoms: O_5  and  C_22
    5  A    between atoms: O_5  and  C_33
    6  A    between atoms: C_8  and  O_23
    7  A    between atoms: C_8  and  C_32
    8  A    between atoms: C_11  and  C_15
    9  A    between atoms: C_16  and  O_37
   10  A    between atoms: O_23  and  C_34
   11  A    between atoms: C_27  and  C_31
   12  A    between atoms: C_27  and  C_32
   13  A    between atoms: C_31  and  C_33
                            x       y       z     vdW  Elec       q    Type
                         _______ _______ _______ _____ _____    ______ ____

>  <TORSDO>
F 13

$$$$
=
 OpenBabel11042410013D

 38 42  0  0  1  0  0  0  0  0999 V2000
  186.9600  177.5930  145.5240 C   0  0  0  0  0  1  0  0  0  0  0  0
  184.7220  177.9740  141.6160 N   0  0  1  0  0  0  0  0  0  0  0  0
  186.6820  178.3500  144.2340 C   0  0  2  0  0  3  0  0  0  0  0  0
  185.1890  178.2980  143.9830 C   0  0  0  0  0  2  0  0  0  0  0  0
  185.7120  179.0600  141.5630 C   0  0  1  0  0  3  0  0  0  0  0  0
  187.3940  177.7080  143.0460 C   0  0  1  0  0  3  0  0  0  0  0  0
  184.7560  178.9910  142.6890 C   0  0  1  0  0  3  0  0  0  0  0  0
  187.1440  178.5270  141.7760 C   0  0  1  0  0  3  0  0  0  0  0  0
  183.6570  178.3360  140.6910 C   0  0  2  0  0  3  0  0  0  0  0  0
  183.2700  176.7050  139.0770 C   0  0  1  0  0  0  0  0  0  0  0  0
  182.7850  177.1370  140.4240 C   0  0  0  0  0  2  0  0  0  0  0  0
  184.2640  177.5140  138.5190 O   0  0  0  0  0  0  0  0  0  0  0  0
  182.9720  175.3660  138.5140 C   0  0  1  0  0  3  0  0  0  0  0  0
  184.2670  178.6640  139.3310 C   0  0  0  0  0  2  0  0  0  0  0  0
  182.2100  176.5060  138.1770 O   0  0  0  0  0  0  0  0  0  0  0  0
  183.8990  175.0150  137.3570 C   0  0  0  0  0  2  0  0  0  0  0  0
  185.2660  172.9660  137.7730 C   0  0  0  0  0  1  0  0  0  0  0  0
  183.9810  173.5090  137.1740 C   0  0  0  0  0  2  0  0  0  0  0  0
  188.8720  177.5600  143.2710 C   0  0  0  0  0  0  0  0  0  0  0  0
  189.7110  178.6830  143.3590 C   0  0  0  0  0  3  0  0  0  0  0  0
  190.7980  176.1040  143.5490 C   0  0  0  0  0  0  0  0  0  0  0  0
  189.4210  176.2770  143.3630 C   0  0  0  0  0  3  0  0  0  0  0  0
  191.0850  178.5180  143.5470 C   0  0  0  0  0  3  0  0  0  0  0  0
  191.6270  177.2340  143.6410 C   0  0  0  0  0  3  0  0  0  0  0  0
  192.1940  174.3990  144.6710 C   0  0  0  0  0  1  0  0  0  0  0  0
  191.3130  174.8070  143.6340 O   0  0  0  0  0  0  0  0  0  0  0  0
  187.5560  177.8100  140.6470 O   0  0  0  0  0  0  0  0  0  0  0  0
  188.4940  178.6350  140.0230 C   0  0  0  0  0  2  0  0  0  0  0  0
  187.3940  177.5480  138.2160 O   0  0  0  0  0  1  0  0  0  0  0  0
  188.4220  178.4380  138.5200 C   0  0  2  0  0  3  0  0  0  0  0  0
  189.7410  177.8950  137.9920 C   0  0  0  0  0  2  0  0  0  0  0  0
  190.2210  176.7130  138.8240 C   0  0  0  0  0  2  0  0  0  0  0  0
  191.0260  174.5760  138.1670 O   0  0  0  0  0  0  0  0  0  0  0  0
  191.1090  175.8250  138.0200 C   0  0  0  0  0  0  0  0  0  0  0  0
  192.0570  176.3970  137.1620 O   0  0  0  0  0  0  0  0  0  0  0  0
  194.3740  176.4920  136.4230 O   0  0  0  0  0  0  0  0  0  0  0  0
  193.4250  176.4920  137.4410 C   0  0  0  0  0  0  0  0  0  0  0  0
  193.8050  176.5840  138.6380 O   0  0  0  0  0  1  0  0  0  0  0  0
  2  9  1  6  0  0  0
  2  7  1  0  0  0  0
  3  1  1  1  0  0  0
  4  3  1  0  0  0  0
  5  2  1  0  0  0  0
  5  8  1  0  0  0  0
  5  7  1  0  0  0  0
  6 19  1  0  0  0  0
  6  3  1  0  0  0  0
  7  4  1  0  0  0  0
  8  6  1  0  0  0  0
 10 11  1  0  0  0  0
 11  9  1  0  0  0  0
 12 10  1  0  0  0  0
 12 14  1  0  0  0  0
 13 10  1  0  0  0  0
 14  9  1  0  0  0  0
 15 13  1  0  0  0  0
 15 10  1  0  0  0  0
 16 13  1  0  0  0  0
 18 16  1  0  0  0  0
 18 17  1  0  0  0  0
 19 20  2  0  0  0  0
 19 22  1  0  0  0  0
 20 23  1  0  0  0  0
 21 26  1  0  0  0  0
 21 24  1  0  0  0  0
 22 21  2  0  0  0  0
 23 24  2  0  0  0  0
 26 25  1  0  0  0  0
 27  8  1  0  0  0  0
 28 27  1  0  0  0  0
 29 30  1  0  0  0  0
 30 28  1  0  0  0  0
 31 30  1  0  0  0  0
 31 32  1  0  0  0  0
 34 33  2  0  0  0  0
 34 32  1  0  0  0  0
 35 37  1  0  0  0  0
 35 34  1  0  0  0  0
 36 37  2  0  0  0  0
 37 38  1  0  0  0  0
M  END
>  <MODEL>
5

>  <REMARK>
 VINA RESULT:      -8.0      1.489      2.019
  Name = 
  13 active torsions:
  status: ('A' for Active; 'I' for Inactive)
    1  A    between atoms: C_1  and  C_18
    2  A    between atoms: C_1  and  C_30
    3  A    between atoms: C_4  and  N_7
    4  A    between atoms: O_5  and  C_22
    5  A    between atoms: O_5  and  C_33
    6  A    between atoms: C_8  and  O_23
    7  A    between atoms: C_8  and  C_32
    8  A    between atoms: C_11  and  C_15
    9  A    between atoms: C_16  and  O_37
   10  A    between atoms: O_23  and  C_34
   11  A    between atoms: C_27  and  C_31
   12  A    between atoms: C_27  and  C_32
   13  A    between atoms: C_31  and  C_33
                            x       y       z     vdW  Elec       q    Type
                         _______ _______ _______ _____ _____    ______ ____

>  <TORSDO>
F 13

$$$$
=
 OpenBabel11042410013D

 38 42  0  0  1  0  0  0  0  0999 V2000
  185.0010  177.8270  146.5140 C   0  0  0  0  0  1  0  0  0  0  0  0
  183.9190  178.3620  142.1590 N   0  0  1  0  0  0  0  0  0  0  0  0
  185.1300  178.6000  145.2110 C   0  0  2  0  0  3  0  0  0  0  0  0
  183.7580  178.6540  144.5700 C   0  0  0  0  0  2  0  0  0  0  0  0
  184.9590  179.3740  142.3910 C   0  0  1  0  0  3  0  0  0  0  0  0
  186.0870  177.9080  144.2440 C   0  0  1  0  0  3  0  0  0  0  0  0
  183.7350  179.3750  143.2210 C   0  0  1  0  0  3  0  0  0  0  0  0
  186.2420  178.7410  142.9680 C   0  0  1  0  0  3  0  0  0  0  0  0
  183.1670  178.7970  140.9900 C   0  0  2  0  0  3  0  0  0  0  0  0
  182.8660  177.1010  139.4270 C   0  0  1  0  0  0  0  0  0  0  0  0
  182.1780  177.7320  140.5940 C   0  0  0  0  0  2  0  0  0  0  0  0
  184.0860  177.6840  139.0720 O   0  0  0  0  0  0  0  0  0  0  0  0
  182.4690  175.7780  138.8860 C   0  0  1  0  0  3  0  0  0  0  0  0
  184.1120  178.8920  139.7960 C   0  0  0  0  0  2  0  0  0  0  0  0
  182.0140  176.9870  138.3150 O   0  0  0  0  0  0  0  0  0  0  0  0
  183.5530  175.1740  138.0020 C   0  0  0  0  0  2  0  0  0  0  0  0
  183.2500  174.6300  135.5830 C   0  0  0  0  0  1  0  0  0  0  0  0
  182.9500  174.1970  137.0070 C   0  0  0  0  0  2  0  0  0  0  0  0
  187.4380  177.6560  144.8520 C   0  0  0  0  0  0  0  0  0  0  0  0
  188.4490  176.9990  144.1320 C   0  0  0  0  0  3  0  0  0  0  0  0
  188.9150  177.8150  146.7750 C   0  0  0  0  0  0  0  0  0  0  0  0
  187.6750  178.0570  146.1720 C   0  0  0  0  0  3  0  0  0  0  0  0
  189.6890  176.7580  144.7280 C   0  0  0  0  0  3  0  0  0  0  0  0
  189.9210  177.1630  146.0450 C   0  0  0  0  0  3  0  0  0  0  0  0
  188.2040  177.9230  149.1410 C   0  0  0  0  0  1  0  0  0  0  0  0
  189.1170  178.2260  148.0960 O   0  0  0  0  0  0  0  0  0  0  0  0
  186.8900  177.9950  141.9780 O   0  0  0  0  0  0  0  0  0  0  0  0
  187.5380  178.9430  141.1830 C   0  0  0  0  0  2  0  0  0  0  0  0
  187.4050  177.7080  139.1540 O   0  0  0  0  0  1  0  0  0  0  0  0
  188.3030  178.2400  140.0770 C   0  0  2  0  0  3  0  0  0  0  0  0
  189.1650  177.1270  140.6530 C   0  0  0  0  0  2  0  0  0  0  0  0
  190.5830  177.1870  140.0980 C   0  0  0  0  0  2  0  0  0  0  0  0
  190.7060  175.2530  138.7240 O   0  0  0  0  0  0  0  0  0  0  0  0
  190.6620  176.5110  138.7710 C   0  0  0  0  0  0  0  0  0  0  0  0
  190.7440  177.2870  137.6090 O   0  0  0  0  0  0  0  0  0  0  0  0
  189.0550  178.7460  136.6390 O   0  0  0  0  0  1  0  0  0  0  0  0
  189.6830  177.5070  136.7240 C   0  0  0  0  0  0  0  0  0  0  0  0
  189.2920  176.5660  135.9850 O   0  0  0  0  0  0  0  0  0  0  0  0
  2  9  1  6  0  0  0
  2  5  1  0  0  0  0
  2  7  1  0  0  0  0
  3  1  1  1  0  0  0
  4  3  1  0  0  0  0
  5  8  1  0  0  0  0
  5  7  1  0  0  0  0
  6 19  1  0  0  0  0
  6  3  1  0  0  0  0
  7  4  1  0  0  0  0
  8  6  1  0  0  0  0
 10 11  1  0  0  0  0
 11  9  1  0  0  0  0
 12 10  1  0  0  0  0
 12 14  1  0  0  0  0
 13 10  1  0  0  0  0
 14  9  1  0  0  0  0
 15 13  1  0  0  0  0
 15 10  1  0  0  0  0
 16 13  1  0  0  0  0
 17 18  1  0  0  0  0
 18 16  1  0  0  0  0
 19 22  1  0  0  0  0
 20 23  1  0  0  0  0
 20 19  2  0  0  0  0
 21 26  1  0  0  0  0
 22 21  2  0  0  0  0
 23 24  2  0  0  0  0
 24 21  1  0  0  0  0
 26 25  1  0  0  0  0
 27  8  1  0  0  0  0
 28 27  1  0  0  0  0
 29 30  1  0  0  0  0
 30 31  1  0  0  0  0
 30 28  1  0  0  0  0
 32 31  1  0  0  0  0
 33 34  2  0  0  0  0
 34 32  1  0  0  0  0
 35 34  1  0  0  0  0
 36 37  1  0  0  0  0
 37 35  1  0  0  0  0
 38 37  2  0  0  0  0
M  END
>  <MODEL>
6

>  <REMARK>
 VINA RESULT:      -7.5      1.231      1.683
  Name = 
  13 active torsions:
  status: ('A' for Active; 'I' for Inactive)
    1  A    between atoms: C_1  and  C_18
    2  A    between atoms: C_1  and  C_30
    3  A    between atoms: C_4  and  N_7
    4  A    between atoms: O_5  and  C_22
    5  A    between atoms: O_5  and  C_33
    6  A    between atoms: C_8  and  O_23
    7  A    between atoms: C_8  and  C_32
    8  A    between atoms: C_11  and  C_15
    9  A    between atoms: C_16  and  O_37
   10  A    between atoms: O_23  and  C_34
   11  A    between atoms: C_27  and  C_31
   12  A    between atoms: C_27  and  C_32
   13  A    between atoms: C_31  and  C_33
                            x       y       z     vdW  Elec       q    Type
                         _______ _______ _______ _____ _____    ______ ____

>  <TORSDO>
F 13

$$$$
=
 OpenBabel11042410013D

 38 42  0  0  1  0  0  0  0  0999 V2000
  186.8660  177.0950  145.8350 C   0  0  0  0  0  1  0  0  0  0  0  0
  185.0750  178.2460  141.8490 N   0  0  1  0  0  0  0  0  0  0  0  0
  186.8360  178.0090  144.6200 C   0  0  2  0  0  3  0  0  0  0  0  0
  185.3840  178.2530  144.2630 C   0  0  0  0  0  2  0  0  0  0  0  0
  186.2380  179.1340  141.9830 C   0  0  1  0  0  3  0  0  0  0  0  0
  187.5260  177.3650  143.4200 C   0  0  1  0  0  3  0  0  0  0  0  0
  185.1910  179.1320  143.0260 C   0  0  1  0  0  3  0  0  0  0  0  0
  187.5330  178.3320  142.2330 C   0  0  1  0  0  3  0  0  0  0  0  0
  184.1720  178.8810  140.8980 C   0  0  2  0  0  3  0  0  0  0  0  0
  183.0540  177.3480  139.5520 C   0  0  1  0  0  0  0  0  0  0  0  0
  182.8810  178.1090  140.8270 C   0  0  0  0  0  2  0  0  0  0  0  0
  184.2410  177.6100  138.8630 O   0  0  0  0  0  0  0  0  0  0  0  0
  182.2100  176.1790  139.2000 C   0  0  1  0  0  3  0  0  0  0  0  0
  184.7590  178.7570  139.4950 C   0  0  0  0  0  2  0  0  0  0  0  0
  181.9370  177.4760  138.7100 O   0  0  0  0  0  0  0  0  0  0  0  0
  182.8340  175.3390  138.0930 C   0  0  0  0  0  2  0  0  0  0  0  0
  181.2000  175.0650  136.2240 C   0  0  0  0  0  1  0  0  0  0  0  0
  181.7960  174.4250  137.4650 C   0  0  0  0  0  2  0  0  0  0  0  0
  188.9310  176.9310  143.7280 C   0  0  0  0  0  0  0  0  0  0  0  0
  189.6150  176.0320  142.8940 C   0  0  0  0  0  3  0  0  0  0  0  0
  190.8520  177.0070  145.2150 C   0  0  0  0  0  0  0  0  0  0  0  0
  189.5520  177.4100  144.8870 C   0  0  0  0  0  3  0  0  0  0  0  0
  190.9130  175.6270  143.2140 C   0  0  0  0  0  3  0  0  0  0  0  0
  191.5290  176.1120  144.3710 C   0  0  0  0  0  3  0  0  0  0  0  0
  191.6800  176.6930  147.5240 C   0  0  0  0  0  1  0  0  0  0  0  0
  191.4420  177.5030  146.3810 O   0  0  0  0  0  0  0  0  0  0  0  0
  187.9100  177.6630  141.0640 O   0  0  0  0  0  0  0  0  0  0  0  0
  188.6100  178.6140  140.3180 C   0  0  0  0  0  2  0  0  0  0  0  0
  188.6800  179.0090  137.9730 O   0  0  0  0  0  1  0  0  0  0  0  0
  188.9330  178.0470  138.9480 C   0  0  2  0  0  3  0  0  0  0  0  0
  188.0920  176.8090  138.6750 C   0  0  0  0  0  2  0  0  0  0  0  0
  188.4100  176.2210  137.3060 C   0  0  0  0  0  2  0  0  0  0  0  0
  186.1370  176.2600  136.6160 O   0  0  0  0  0  0  0  0  0  0  0  0
  187.2000  175.5890  136.7070 C   0  0  0  0  0  0  0  0  0  0  0  0
  187.2500  174.2470  136.3100 O   0  0  0  0  0  0  0  0  0  0  0  0
  185.9160  173.0510  137.9570 O   0  0  0  0  0  1  0  0  0  0  0  0
  187.0570  173.1580  137.1670 C   0  0  0  0  0  0  0  0  0  0  0  0
  187.9310  172.2530  137.2210 O   0  0  0  0  0  0  0  0  0  0  0  0
  2  9  1  6  0  0  0
  2  5  1  0  0  0  0
  2  7  1  0  0  0  0
  3  1  1  1  0  0  0
  4  3  1  0  0  0  0
  5  8  1  0  0  0  0
  5  7  1  0  0  0  0
  6 19  1  0  0  0  0
  6  3  1  0  0  0  0
  7  4  1  0  0  0  0
  8  6  1  0  0  0  0
 10 11  1  0  0  0  0
 11  9  1  0  0  0  0
 12 14  1  0  0  0  0
 12 10  1  0  0  0  0
 13 10  1  0  0  0  0
 14  9  1  0  0  0  0
 15 13  1  0  0  0  0
 15 10  1  0  0  0  0
 16 13  1  0  0  0  0
 17 18  1  0  0  0  0
 18 16  1  0  0  0  0
 19 22  1  0  0  0  0
 20 23  1  0  0  0  0
 20 19  2  0  0  0  0
 21 26  1  0  0  0  0
 22 21  2  0  0  0  0
 23 24  2  0  0  0  0
 24 21  1  0  0  0  0
 26 25  1  0  0  0  0
 27  8  1  0  0  0  0
 28 27  1  0  0  0  0
 29 30  1  0  0  0  0
 30 28  1  0  0  0  0
 31 30  1  0  0  0  0
 32 31  1  0  0  0  0
 33 34  2  0  0  0  0
 34 32  1  0  0  0  0
 35 34  1  0  0  0  0
 35 37  1  0  0  0  0
 37 38  2  0  0  0  0
 37 36  1  0  0  0  0
M  END
>  <MODEL>
7

>  <REMARK>
 VINA RESULT:      -7.5      2.377      3.131
  Name = 
  13 active torsions:
  status: ('A' for Active; 'I' for Inactive)
    1  A    between atoms: C_1  and  C_18
    2  A    between atoms: C_1  and  C_30
    3  A    between atoms: C_4  and  N_7
    4  A    between atoms: O_5  and  C_22
    5  A    between atoms: O_5  and  C_33
    6  A    between atoms: C_8  and  O_23
    7  A    between atoms: C_8  and  C_32
    8  A    between atoms: C_11  and  C_15
    9  A    between atoms: C_16  and  O_37
   10  A    between atoms: O_23  and  C_34
   11  A    between atoms: C_27  and  C_31
   12  A    between atoms: C_27  and  C_32
   13  A    between atoms: C_31  and  C_33
                            x       y       z     vdW  Elec       q    Type
                         _______ _______ _______ _____ _____    ______ ____

>  <TORSDO>
F 13

$$$$
=
 OpenBabel11042410013D

 38 42  0  0  1  0  0  0  0  0999 V2000
  184.9120  178.0930  146.5590 C   0  0  0  0  0  1  0  0  0  0  0  0
  184.2030  178.2950  142.1010 N   0  0  1  0  0  0  0  0  0  0  0  0
  185.1910  178.7360  145.2100 C   0  0  2  0  0  3  0  0  0  0  0  0
  183.8790  178.8140  144.4570 C   0  0  0  0  0  2  0  0  0  0  0  0
  185.2870  179.2610  142.3300 C   0  0  1  0  0  3  0  0  0  0  0  0
  186.1710  177.9040  144.3870 C   0  0  1  0  0  3  0  0  0  0  0  0
  184.0070  179.4090  143.0530 C   0  0  1  0  0  3  0  0  0  0  0  0
  186.4780  178.6070  143.0620 C   0  0  1  0  0  3  0  0  0  0  0  0
  183.5730  178.6670  140.8410 C   0  0  2  0  0  3  0  0  0  0  0  0
  181.6560  177.4280  140.3910 C   0  0  1  0  0  0  0  0  0  0  0  0
  182.0780  178.7190  141.0150 C   0  0  0  0  0  2  0  0  0  0  0  0
  182.6940  176.6670  139.8450 O   0  0  0  0  0  0  0  0  0  0  0  0
  180.3120  176.8380  140.6070 C   0  0  1  0  0  3  0  0  0  0  0  0
  183.7920  177.5490  139.8250 C   0  0  0  0  0  2  0  0  0  0  0  0
  180.6160  177.6100  139.4640 O   0  0  0  0  0  0  0  0  0  0  0  0
  180.2680  175.3630  140.2290 C   0  0  0  0  0  2  0  0  0  0  0  0
  179.6800  173.3770  141.6240 C   0  0  0  0  0  1  0  0  0  0  0  0
  179.1580  174.6500  140.9810 C   0  0  0  0  0  2  0  0  0  0  0  0
  187.4510  177.6270  145.1230 C   0  0  0  0  0  0  0  0  0  0  0  0
  187.4740  177.4950  146.5210 C   0  0  0  0  0  3  0  0  0  0  0  0
  189.8580  177.2990  145.0580 C   0  0  0  0  0  0  0  0  0  0  0  0
  188.6450  177.5330  144.3990 C   0  0  0  0  0  3  0  0  0  0  0  0
  188.6800  177.2600  147.1840 C   0  0  0  0  0  3  0  0  0  0  0  0
  189.8690  177.1630  146.4550 C   0  0  0  0  0  3  0  0  0  0  0  0
  191.6780  175.9770  144.0290 C   0  0  0  0  0  1  0  0  0  0  0  0
  191.0330  177.2130  144.3040 O   0  0  0  0  0  0  0  0  0  0  0  0
  187.1490  177.7370  142.1950 O   0  0  0  0  0  0  0  0  0  0  0  0
  187.5950  178.5490  141.1500 C   0  0  0  0  0  2  0  0  0  0  0  0
  189.5950  177.2680  141.0090 O   0  0  0  0  0  1  0  0  0  0  0  0
  188.5290  177.7540  140.2560 C   0  0  2  0  0  3  0  0  0  0  0  0
  189.0560  178.6290  139.1290 C   0  0  0  0  0  2  0  0  0  0  0  0
  189.1900  177.8360  137.8350 C   0  0  0  0  0  2  0  0  0  0  0  0
  187.6500  179.3760  136.8850 O   0  0  0  0  0  0  0  0  0  0  0  0
  188.1100  178.2040  136.8740 C   0  0  0  0  0  0  0  0  0  0  0  0
  187.5880  177.2240  136.0190 O   0  0  0  0  0  0  0  0  0  0  0  0
  186.9660  175.2000  137.2180 O   0  0  0  0  0  1  0  0  0  0  0  0
  187.7020  175.8460  136.2290 C   0  0  0  0  0  0  0  0  0  0  0  0
  188.4820  175.1750  135.5030 O   0  0  0  0  0  0  0  0  0  0  0  0
  2  9  1  6  0  0  0
  2  5  1  0  0  0  0
  2  7  1  0  0  0  0
  3  1  1  1  0  0  0
  4  3  1  0  0  0  0
  5  7  1  0  0  0  0
  5  8  1  0  0  0  0
  6 19  1  0  0  0  0
  6  3  1  0  0  0  0
  7  4  1  0  0  0  0
  8  6  1  0  0  0  0
  9 11  1  0  0  0  0
 10 13  1  0  0  0  0
 10 11  1  0  0  0  0
 12 10  1  0  0  0  0
 14 12  1  0  0  0  0
 14  9  1  0  0  0  0
 15 10  1  0  0  0  0
 15 13  1  0  0  0  0
 16 13  1  0  0  0  0
 16 18  1  0  0  0  0
 18 17  1  0  0  0  0
 19 20  1  0  0  0  0
 20 23  2  0  0  0  0
 21 24  2  0  0  0  0
 22 21  1  0  0  0  0
 22 19  2  0  0  0  0
 24 23  1  0  0  0  0
 25 26  1  0  0  0  0
 26 21  1  0  0  0  0
 27  8  1  0  0  0  0
 28 27  1  0  0  0  0
 30 29  1  0  0  0  0
 30 28  1  0  0  0  0
 31 30  1  0  0  0  0
 32 31  1  0  0  0  0
 34 33  2  0  0  0  0
 34 32  1  0  0  0  0
 35 37  1  0  0  0  0
 35 34  1  0  0  0  0
 37 36  1  0  0  0  0
 38 37  2  0  0  0  0
M  END
>  <MODEL>
8

>  <REMARK>
 VINA RESULT:      -7.5      2.496      3.401
  Name = 
  13 active torsions:
  status: ('A' for Active; 'I' for Inactive)
    1  A    between atoms: C_1  and  C_18
    2  A    between atoms: C_1  and  C_30
    3  A    between atoms: C_4  and  N_7
    4  A    between atoms: O_5  and  C_22
    5  A    between atoms: O_5  and  C_33
    6  A    between atoms: C_8  and  O_23
    7  A    between atoms: C_8  and  C_32
    8  A    between atoms: C_11  and  C_15
    9  A    between atoms: C_16  and  O_37
   10  A    between atoms: O_23  and  C_34
   11  A    between atoms: C_27  and  C_31
   12  A    between atoms: C_27  and  C_32
   13  A    between atoms: C_31  and  C_33
                            x       y       z     vdW  Elec       q    Type
                         _______ _______ _______ _____ _____    ______ ____

>  <TORSDO>
F 13

$$$$
=
 OpenBabel11042410013D

 38 42  0  0  1  0  0  0  0  0999 V2000
  191.8910  179.0010  144.3440 C   0  0  0  0  0  1  0  0  0  0  0  0
  190.0910  177.8800  140.3530 N   0  0  1  0  0  0  0  0  0  0  0  0
  191.4100  177.9380  143.3680 C   0  0  2  0  0  3  0  0  0  0  0  0
  191.8380  178.3610  141.9780 C   0  0  0  0  0  2  0  0  0  0  0  0
  190.1600  176.6040  141.0800 C   0  0  1  0  0  3  0  0  0  0  0  0
  189.8880  177.8110  143.3870 C   0  0  1  0  0  3  0  0  0  0  0  0
  191.3890  177.4010  140.8750 C   0  0  1  0  0  3  0  0  0  0  0  0
  189.4410  176.6920  142.4410 C   0  0  1  0  0  3  0  0  0  0  0  0
  190.0300  177.5500  138.9360 C   0  0  2  0  0  3  0  0  0  0  0  0
  187.9070  177.8440  138.0310 C   0  0  1  0  0  0  0  0  0  0  0  0
  189.1990  178.5740  138.2080 C   0  0  0  0  0  2  0  0  0  0  0  0
  187.8970  176.5320  138.5130 O   0  0  0  0  0  0  0  0  0  0  0  0
  186.6430  178.5350  137.6740 C   0  0  1  0  0  3  0  0  0  0  0  0
  189.2530  176.2470  138.7600 C   0  0  0  0  0  2  0  0  0  0  0  0
  187.4510  177.9020  136.7030 O   0  0  0  0  0  0  0  0  0  0  0  0
  185.4210  177.6710  137.9600 C   0  0  0  0  0  2  0  0  0  0  0  0
  183.3540  177.8160  139.3540 C   0  0  0  0  0  1  0  0  0  0  0  0
  184.2330  178.5350  138.3460 C   0  0  0  0  0  2  0  0  0  0  0  0
  189.3490  177.5550  144.7660 C   0  0  0  0  0  0  0  0  0  0  0  0
  190.1570  177.0050  145.7740 C   0  0  0  0  0  3  0  0  0  0  0  0
  187.4670  177.5970  146.3030 C   0  0  0  0  0  0  0  0  0  0  0  0
  188.0060  177.8450  145.0350 C   0  0  0  0  0  3  0  0  0  0  0  0
  189.6250  176.7570  147.0420 C   0  0  0  0  0  3  0  0  0  0  0  0
  188.2850  177.0510  147.3050 C   0  0  0  0  0  3  0  0  0  0  0  0
  185.6860  179.1700  146.9910 C   0  0  0  0  0  1  0  0  0  0  0  0
  186.1210  177.8950  146.5370 O   0  0  0  0  0  0  0  0  0  0  0  0
  188.0570  176.7490  142.2450 O   0  0  0  0  0  0  0  0  0  0  0  0
  187.8000  178.0750  141.8890 C   0  0  0  0  0  2  0  0  0  0  0  0
  186.0840  179.4770  141.0240 O   0  0  0  0  0  1  0  0  0  0  0  0
  186.3110  178.2600  141.6630 C   0  0  2  0  0  3  0  0  0  0  0  0
  185.5660  178.2300  142.9880 C   0  0  0  0  0  2  0  0  0  0  0  0
  184.5740  179.3820  143.0850 C   0  0  0  0  0  2  0  0  0  0  0  0
  183.0320  178.6300  144.7300 O   0  0  0  0  0  0  0  0  0  0  0  0
  183.2320  178.8920  143.5140 C   0  0  0  0  0  0  0  0  0  0  0  0
  182.2400  178.6770  142.5490 O   0  0  0  0  0  0  0  0  0  0  0  0
  179.8980  178.0400  142.7240 O   0  0  0  0  0  0  0  0  0  0  0  0
  180.8910  179.0140  142.7080 C   0  0  0  0  0  0  0  0  0  0  0  0
  180.5710  180.2240  142.8440 O   0  0  0  0  0  1  0  0  0  0  0  0
  2  9  1  6  0  0  0
  2  7  1  0  0  0  0
  2  5  1  0  0  0  0
  3  6  1  0  0  0  0
  3  1  1  1  0  0  0
  4  3  1  0  0  0  0
  5  8  1  0  0  0  0
  6 19  1  0  0  0  0
  7  5  1  0  0  0  0
  7  4  1  0  0  0  0
  8  6  1  0  0  0  0
 10 11  1  0  0  0  0
 10 12  1  0  0  0  0
 11  9  1  0  0  0  0
 12 14  1  0  0  0  0
 13 16  1  0  0  0  0
 13 10  1  0  0  0  0
 14  9  1  0  0  0  0
 15 13  1  0  0  0  0
 15 10  1  0  0  0  0
 16 18  1  0  0  0  0
 18 17  1  0  0  0  0
 19 22  2  0  0  0  0
 19 20  1  0  0  0  0
 20 23  2  0  0  0  0
 21 26  1  0  0  0  0
 21 24  2  0  0  0  0
 22 21  1  0  0  0  0
 23 24  1  0  0  0  0
 26 25  1  0  0  0  0
 27  8  1  0  0  0  0
 28 27  1  0  0  0  0
 29 30  1  0  0  0  0
 30 28  1  0  0  0  0
 30 31  1  0  0  0  0
 31 32  1  0  0  0  0
 32 34  1  0  0  0  0
 34 33  2  0  0  0  0
 35 37  1  0  0  0  0
 35 34  1  0  0  0  0
 37 36  2  0  0  0  0
 37 38  1  0  0  0  0
M  END
>  <MODEL>
9

>  <REMARK>
 VINA RESULT:      -7.5      2.830      6.713
  Name = 
  13 active torsions:
  status: ('A' for Active; 'I' for Inactive)
    1  A    between atoms: C_1  and  C_18
    2  A    between atoms: C_1  and  C_30
    3  A    between atoms: C_4  and  N_7
    4  A    between atoms: O_5  and  C_22
    5  A    between atoms: O_5  and  C_33
    6  A    between atoms: C_8  and  O_23
    7  A    between atoms: C_8  and  C_32
    8  A    between atoms: C_11  and  C_15
    9  A    between atoms: C_16  and  O_37
   10  A    between atoms: O_23  and  C_34
   11  A    between atoms: C_27  and  C_31
   12  A    between atoms: C_27  and  C_32
   13  A    between atoms: C_31  and  C_33
                            x       y       z     vdW  Elec       q    Type
                         _______ _______ _______ _____ _____    ______ ____

>  <TORSDO>
F 13

$$$$
