=
 OpenBabel11042411553D

 37 40  0  0  1  0  0  0  0  0999 V2000
  188.6410  177.2770  137.8450 C   0  0  0  0  0  0  0  0  0  0  0  0
  189.5360  177.0690  140.0480 N   0  0  0  0  0  0  0  0  0  0  0  0
  187.4450  178.1980  139.7470 C   0  0  0  0  0  0  0  0  0  0  0  0
  187.5500  177.9620  138.3760 C   0  0  0  0  0  3  0  0  0  0  0  0
  188.4750  177.7280  140.5940 C   0  0  0  0  0  0  0  0  0  0  0  0
  189.6580  176.8310  138.7130 C   0  0  0  0  0  0  0  0  0  0  0  0
  188.6360  176.9240  136.0850 S   0  0  0  0  0  1  0  0  0  0  0  0
  192.6550  174.7270  136.1740 C   0  0  0  0  0  3  0  0  0  0  0  0
  192.3630  177.3380  139.7590 O   0  0  0  0  0  1  0  0  0  0  0  0
  193.2800  176.5280  137.7730 C   0  0  0  0  0  3  0  0  0  0  0  0
  190.8560  176.1110  138.2330 C   0  0  0  0  0  0  0  0  0  0  0  0
  191.7650  174.0440  137.1570 C   0  0  0  0  0  2  0  0  0  0  0  0
  190.6630  174.9470  137.6000 C   0  0  0  0  0  3  0  0  0  0  0  0
  193.3540  175.8190  136.4800 C   0  0  0  0  0  3  0  0  0  0  0  0
  192.2100  176.6320  138.5720 C   0  0  0  0  0  0  0  0  0  0  0  0
  188.9540  175.9170  143.2600 C   0  0  0  0  0  2  0  0  0  0  0  0
  190.1870  178.2430  142.6640 S   0  0  0  0  0  0  0  0  0  0  0  0
  190.0910  176.7820  143.7450 C   0  0  2  0  0  3  0  0  0  0  0  0
  187.8450  176.8540  142.8460 C   0  0  0  0  0  2  0  0  0  0  0  0
  188.4810  177.9960  142.0700 C   0  0  2  0  0  3  0  0  0  0  0  0
  191.3880  175.9980  143.6930 C   0  0  0  0  0  2  0  0  0  0  0  0
  191.8940  175.7920  145.0390 N   0  0  0  0  0  2  0  0  0  0  0  0
  191.6280  177.0120  145.7780 C   0  0  0  0  0  2  0  0  0  0  0  0
  191.3320  176.6860  147.1990 C   0  0  0  0  0  0  0  0  0  0  0  0
  192.2710  176.4510  148.0020 O   0  0  0  0  0  1  0  0  0  0  0  0
  190.0150  176.6120  147.6330 O   0  0  0  0  0  0  0  0  0  0  0  0
  186.2940  178.9190  140.2120 N   0  0  0  0  0  2  0  0  0  0  0  0
  184.4860  180.0510  139.2810 O   0  0  0  0  0  1  0  0  0  0  0  0
  184.9420  178.7970  139.6890 C   0  0  2  0  0  3  0  0  0  0  0  0
  184.1020  178.3020  140.6860 O   0  0  0  0  0  0  0  0  0  0  0  0
  184.6820  178.7280  141.8840 C   0  0  0  0  0  2  0  0  0  0  0  0
  183.6130  178.8950  142.9500 C   0  0  0  0  0  2  0  0  0  0  0  0
  183.7160  178.8940  145.3040 C   0  0  0  0  0  2  0  0  0  0  0  0
  185.6760  179.0350  146.8040 C   0  0  0  0  0  1  0  0  0  0  0  0
  185.0890  178.3330  145.5950 C   0  0  2  0  0  3  0  0  0  0  0  0
  185.4980  179.0660  144.3370 C   0  0  0  0  0  2  0  0  0  0  0  0
  184.1600  179.5980  144.1060 N   0  0  0  0  0  0  0  0  0  0  0  0
  1  4  2  0  0  0  0
  1  6  1  0  0  0  0
  2  5  1  0  0  0  0
  3 27  1  0  0  0  0
  3  5  2  0  0  0  0
  4  3  1  0  0  0  0
  6  2  2  0  0  0  0
  7  1  1  0  0  0  0
  8 14  2  0  0  0  0
  8 12  1  0  0  0  0
 10 15  2  0  0  0  0
 11 15  1  0  0  0  0
 11  6  1  0  0  0  0
 12 13  1  0  0  0  0
 13 11  2  0  0  0  0
 14 10  1  0  0  0  0
 15  9  1  0  0  0  0
 16 18  1  0  0  0  0
 17 18  1  0  0  0  0
 18 21  1  6  0  0  0
 19 16  1  0  0  0  0
 20  5  1  6  0  0  0
 20 17  1  0  0  0  0
 20 19  1  0  0  0  0
 21 22  1  0  0  0  0
 22 23  1  0  0  0  0
 23 24  1  0  0  0  0
 24 26  2  0  0  0  0
 24 25  1  0  0  0  0
 29 28  1  1  0  0  0
 29 27  1  0  0  0  0
 29 30  1  0  0  0  0
 30 31  1  0  0  0  0
 31 32  1  0  0  0  0
 32 37  1  0  0  0  0
 33 35  1  0  0  0  0
 35 34  1  1  0  0  0
 36 35  1  0  0  0  0
 37 36  1  0  0  0  0
 37 33  1  0  0  0  0
M  END
>  <MODEL>
1

>  <REMARK>
 VINA RESULT:      -8.1      0.000      0.000
  Name = 
  12 active torsions:
  status: ('A' for Active; 'I' for Inactive)
    1  A    between atoms: C_1  and  C_9
    2  A    between atoms: C_1  and  N_13
    3  A    between atoms: C_5  and  N_29
    4  A    between atoms: C_11  and  C_35
    5  A    between atoms: C_12  and  C_20
    6  A    between atoms: N_13  and  C_17
    7  A    between atoms: C_15  and  N_32
    8  A    between atoms: C_15  and  C_37
    9  A    between atoms: C_17  and  C_18
   10  A    between atoms: N_29  and  C_31
   11  A    between atoms: C_31  and  O_34
   12  A    between atoms: O_34  and  C_37
                            x       y       z     vdW  Elec       q    Type
                         _______ _______ _______ _____ _____    ______ ____

>  <TORSDO>
F 12

$$$$
=
 OpenBabel11042411553D

 37 40  0  0  1  0  0  0  0  0999 V2000
  185.4210  178.5880  141.0480 C   0  0  0  0  0  0  0  0  0  0  0  0
  186.7310  178.3490  139.0680 N   0  0  0  0  0  0  0  0  0  0  0  0
  187.8450  178.5300  141.1800 C   0  0  0  0  0  0  0  0  0  0  0  0
  186.5970  178.6330  141.7950 C   0  0  0  0  0  3  0  0  0  0  0  0
  187.8950  178.3810  139.7750 C   0  0  0  0  0  0  0  0  0  0  0  0
  185.5040  178.4500  139.6480 C   0  0  0  0  0  0  0  0  0  0  0  0
  183.8610  178.6160  141.9360 S   0  0  0  0  0  1  0  0  0  0  0  0
  181.6910  177.2670  137.6690 C   0  0  0  0  0  3  0  0  0  0  0  0
  184.0300  180.8630  138.8310 O   0  0  0  0  0  1  0  0  0  0  0  0
  182.1130  179.5770  138.4940 C   0  0  0  0  0  3  0  0  0  0  0  0
  184.3080  178.4090  138.7800 C   0  0  0  0  0  0  0  0  0  0  0  0
  183.0340  177.1570  137.0300 C   0  0  0  0  0  2  0  0  0  0  0  0
  184.1220  177.3090  138.0390 C   0  0  0  0  0  3  0  0  0  0  0  0
  181.2820  178.3740  138.2890 C   0  0  0  0  0  3  0  0  0  0  0  0
  183.4410  179.6150  138.6690 C   0  0  0  0  0  0  0  0  0  0  0  0
  189.3340  176.2210  137.8040 C   0  0  0  0  0  2  0  0  0  0  0  0
  188.9400  178.8420  137.2890 S   0  0  0  0  0  0  0  0  0  0  0  0
  189.4470  177.2070  136.6680 C   0  0  2  0  0  3  0  0  0  0  0  0
  189.7990  176.9400  139.0480 C   0  0  0  0  0  2  0  0  0  0  0  0
  189.1920  178.3320  139.0220 C   0  0  2  0  0  3  0  0  0  0  0  0
  188.5510  176.7740  135.5230 C   0  0  0  0  0  2  0  0  0  0  0  0
  188.0240  175.4460  135.7850 N   0  0  0  0  0  2  0  0  0  0  0  0
  186.6000  175.5000  135.5070 C   0  0  0  0  0  2  0  0  0  0  0  0
  185.8850  174.5060  136.3520 C   0  0  0  0  0  0  0  0  0  0  0  0
  186.4500  174.0130  137.3620 O   0  0  0  0  0  1  0  0  0  0  0  0
  184.6020  174.1000  136.0080 O   0  0  0  0  0  0  0  0  0  0  0  0
  189.0080  178.5950  142.0190 N   0  0  0  0  0  2  0  0  0  0  0  0
  188.7280  176.3820  142.6850 O   0  0  0  0  0  1  0  0  0  0  0  0
  189.5220  177.5170  142.8500 C   0  0  2  0  0  3  0  0  0  0  0  0
  189.4950  177.9100  144.1880 O   0  0  0  0  0  0  0  0  0  0  0  0
  188.5900  177.0360  144.7970 C   0  0  0  0  0  2  0  0  0  0  0  0
  188.1670  177.5840  146.1490 C   0  0  0  0  0  2  0  0  0  0  0  0
  186.1930  178.6970  146.7930 C   0  0  0  0  0  2  0  0  0  0  0  0
  184.0120  178.8490  145.6400 C   0  0  0  0  0  1  0  0  0  0  0  0
  185.5120  178.9940  145.4770 C   0  0  2  0  0  3  0  0  0  0  0  0
  186.1030  177.6730  145.0370 C   0  0  0  0  0  2  0  0  0  0  0  0
  186.7290  177.4210  146.3300 N   0  0  0  0  0  0  0  0  0  0  0  0
  1  4  1  0  0  0  0
  1  7  1  0  0  0  0
  2  6  1  0  0  0  0
  2  5  2  0  0  0  0
  3  4  2  0  0  0  0
  3 27  1  0  0  0  0
  5  3  1  0  0  0  0
  6  1  2  0  0  0  0
  8 14  2  0  0  0  0
 10 15  2  0  0  0  0
 11  6  1  0  0  0  0
 12  8  1  0  0  0  0
 12 13  1  0  0  0  0
 13 11  2  0  0  0  0
 14 10  1  0  0  0  0
 15 11  1  0  0  0  0
 15  9  1  0  0  0  0
 16 19  1  0  0  0  0
 17 20  1  0  0  0  0
 18 21  1  6  0  0  0
 18 17  1  0  0  0  0
 18 16  1  0  0  0  0
 20 19  1  0  0  0  0
 20  5  1  1  0  0  0
 21 22  1  0  0  0  0
 23 22  1  0  0  0  0
 23 24  1  0  0  0  0
 24 25  1  0  0  0  0
 26 24  2  0  0  0  0
 27 29  1  0  0  0  0
 29 28  1  1  0  0  0
 29 30  1  0  0  0  0
 30 31  1  0  0  0  0
 31 32  1  0  0  0  0
 32 37  1  0  0  0  0
 35 34  1  1  0  0  0
 35 33  1  0  0  0  0
 36 35  1  0  0  0  0
 36 37  1  0  0  0  0
 37 33  1  0  0  0  0
M  END
>  <MODEL>
2

>  <REMARK>
 VINA RESULT:      -7.7      3.025      7.434
  Name = 
  12 active torsions:
  status: ('A' for Active; 'I' for Inactive)
    1  A    between atoms: C_1  and  C_9
    2  A    between atoms: C_1  and  N_13
    3  A    between atoms: C_5  and  N_29
    4  A    between atoms: C_11  and  C_35
    5  A    between atoms: C_12  and  C_20
    6  A    between atoms: N_13  and  C_17
    7  A    between atoms: C_15  and  N_32
    8  A    between atoms: C_15  and  C_37
    9  A    between atoms: C_17  and  C_18
   10  A    between atoms: N_29  and  C_31
   11  A    between atoms: C_31  and  O_34
   12  A    between atoms: O_34  and  C_37
                            x       y       z     vdW  Elec       q    Type
                         _______ _______ _______ _____ _____    ______ ____

>  <TORSDO>
F 12

$$$$
=
 OpenBabel11042411553D

 37 40  0  0  1  0  0  0  0  0999 V2000
  187.9120  178.0870  140.5330 C   0  0  0  0  0  0  0  0  0  0  0  0
  185.9620  178.4520  139.2050 N   0  0  0  0  0  0  0  0  0  0  0  0
  185.8800  178.9460  141.5470 C   0  0  0  0  0  0  0  0  0  0  0  0
  187.2080  178.5330  141.6490 C   0  0  0  0  0  3  0  0  0  0  0  0
  185.2550  178.9010  140.2790 C   0  0  0  0  0  0  0  0  0  0  0  0
  187.2580  178.0430  139.2850 C   0  0  0  0  0  0  0  0  0  0  0  0
  189.6480  177.6810  140.7390 S   0  0  0  0  0  1  0  0  0  0  0  0
  188.2140  175.9430  135.4720 C   0  0  0  0  0  3  0  0  0  0  0  0
  188.9430  179.7750  137.6030 O   0  0  0  0  0  1  0  0  0  0  0  0
  188.5300  178.3940  135.7690 C   0  0  0  0  0  3  0  0  0  0  0  0
  187.9240  177.5690  138.0530 C   0  0  0  0  0  0  0  0  0  0  0  0
  188.8370  175.6160  136.7860 C   0  0  0  0  0  2  0  0  0  0  0  0
  188.0860  176.2480  137.9090 C   0  0  0  0  0  3  0  0  0  0  0  0
  188.1180  177.1920  135.0170 C   0  0  0  0  0  3  0  0  0  0  0  0
  188.4910  178.5620  137.0980 C   0  0  0  0  0  0  0  0  0  0  0  0
  183.0670  178.4540  137.9060 C   0  0  0  0  0  2  0  0  0  0  0  0
  182.7430  177.8440  140.5160 S   0  0  0  0  0  0  0  0  0  0  0  0
  182.1060  177.7280  138.8150 C   0  0  2  0  0  3  0  0  0  0  0  0
  183.5270  179.6810  138.6560 C   0  0  0  0  0  2  0  0  0  0  0  0
  183.8110  179.2590  140.0880 C   0  0  2  0  0  3  0  0  0  0  0  0
  181.9960  176.2760  138.3880 C   0  0  0  0  0  2  0  0  0  0  0  0
  183.2240  175.5720  138.7120 N   0  0  0  0  0  2  0  0  0  0  0  0
  183.4200  174.5740  137.6770 C   0  0  0  0  0  2  0  0  0  0  0  0
  184.7110  174.8170  136.9800 C   0  0  0  0  0  0  0  0  0  0  0  0
  184.9230  175.9180  136.4090 O   0  0  0  0  0  0  0  0  0  0  0  0
  185.6740  173.8170  136.9350 O   0  0  0  0  0  1  0  0  0  0  0  0
  185.2240  179.3830  142.7470 N   0  0  0  0  0  2  0  0  0  0  0  0
  183.3430  178.7650  143.9730 O   0  0  0  0  0  1  0  0  0  0  0  0
  184.7060  178.5210  143.7990 C   0  0  2  0  0  3  0  0  0  0  0  0
  185.3800  178.7890  144.9910 O   0  0  0  0  0  0  0  0  0  0  0  0
  186.1920  177.6710  145.1980 C   0  0  0  0  0  2  0  0  0  0  0  0
  187.4620  178.0790  145.9250 C   0  0  0  0  0  2  0  0  0  0  0  0
  189.1160  177.1600  144.5220 C   0  0  0  0  0  2  0  0  0  0  0  0
  191.4730  176.5950  145.0090 C   0  0  0  0  0  1  0  0  0  0  0  0
  190.4070  177.6680  145.1200 C   0  0  2  0  0  3  0  0  0  0  0  0
  189.6830  177.5260  146.4410 C   0  0  0  0  0  2  0  0  0  0  0  0
  188.4640  177.0230  145.8190 N   0  0  0  0  0  0  0  0  0  0  0  0
  1  7  1  0  0  0  0
  1  4  1  0  0  0  0
  2  6  1  0  0  0  0
  2  5  2  0  0  0  0
  3  4  2  0  0  0  0
  3 27  1  0  0  0  0
  5  3  1  0  0  0  0
  6  1  2  0  0  0  0
  8 12  1  0  0  0  0
 10 15  2  0  0  0  0
 11  6  1  0  0  0  0
 12 13  1  0  0  0  0
 13 11  2  0  0  0  0
 14  8  2  0  0  0  0
 14 10  1  0  0  0  0
 15  9  1  0  0  0  0
 15 11  1  0  0  0  0
 16 19  1  0  0  0  0
 16 18  1  0  0  0  0
 18 21  1  6  0  0  0
 18 17  1  0  0  0  0
 19 20  1  0  0  0  0
 20  5  1  6  0  0  0
 20 17  1  0  0  0  0
 21 22  1  0  0  0  0
 23 22  1  0  0  0  0
 24 23  1  0  0  0  0
 25 24  2  0  0  0  0
 26 24  1  0  0  0  0
 27 29  1  0  0  0  0
 29 28  1  1  0  0  0
 29 30  1  0  0  0  0
 30 31  1  0  0  0  0
 31 32  1  0  0  0  0
 33 35  1  0  0  0  0
 33 37  1  0  0  0  0
 35 34  1  1  0  0  0
 35 36  1  0  0  0  0
 37 32  1  0  0  0  0
 37 36  1  0  0  0  0
M  END
>  <MODEL>
3

>  <REMARK>
 VINA RESULT:      -7.4      3.077      6.673
  Name = 
  12 active torsions:
  status: ('A' for Active; 'I' for Inactive)
    1  A    between atoms: C_1  and  C_9
    2  A    between atoms: C_1  and  N_13
    3  A    between atoms: C_5  and  N_29
    4  A    between atoms: C_11  and  C_35
    5  A    between atoms: C_12  and  C_20
    6  A    between atoms: N_13  and  C_17
    7  A    between atoms: C_15  and  N_32
    8  A    between atoms: C_15  and  C_37
    9  A    between atoms: C_17  and  C_18
   10  A    between atoms: N_29  and  C_31
   11  A    between atoms: C_31  and  O_34
   12  A    between atoms: O_34  and  C_37
                            x       y       z     vdW  Elec       q    Type
                         _______ _______ _______ _____ _____    ______ ____

>  <TORSDO>
F 12

$$$$
=
 OpenBabel11042411553D

 37 40  0  0  1  0  0  0  0  0999 V2000
  189.3670  177.5220  141.4590 C   0  0  0  0  0  0  0  0  0  0  0  0
  187.5140  178.5130  142.5900 N   0  0  0  0  0  0  0  0  0  0  0  0
  187.4330  178.2910  140.2070 C   0  0  0  0  0  0  0  0  0  0  0  0
  188.6990  177.7060  140.2500 C   0  0  0  0  0  3  0  0  0  0  0  0
  186.8360  178.6970  141.4230 C   0  0  0  0  0  0  0  0  0  0  0  0
  188.7500  177.9470  142.6530 C   0  0  0  0  0  0  0  0  0  0  0  0
  190.9420  176.6610  141.4260 S   0  0  0  0  0  1  0  0  0  0  0  0
  190.5200  176.2960  146.3940 C   0  0  0  0  0  3  0  0  0  0  0  0
  190.8890  179.7340  143.6010 O   0  0  0  0  0  1  0  0  0  0  0  0
  191.6400  178.0650  145.0480 C   0  0  0  0  0  3  0  0  0  0  0  0
  189.3930  177.8030  143.9760 C   0  0  0  0  0  0  0  0  0  0  0  0
  189.1890  176.9630  146.3220 C   0  0  0  0  0  2  0  0  0  0  0  0
  188.7340  177.1040  144.9090 C   0  0  0  0  0  3  0  0  0  0  0  0
  191.6150  176.8240  145.8470 C   0  0  0  0  0  3  0  0  0  0  0  0
  190.6630  178.5300  144.2570 C   0  0  0  0  0  0  0  0  0  0  0  0
  183.8250  177.8650  142.3480 C   0  0  0  0  0  2  0  0  0  0  0  0
  185.1930  180.0540  143.1380 S   0  0  0  0  0  0  0  0  0  0  0  0
  183.7320  178.9900  143.3500 C   0  0  2  0  0  3  0  0  0  0  0  0
  184.3750  178.4640  141.0770 C   0  0  0  0  0  2  0  0  0  0  0  0
  185.5100  179.3960  141.4670 C   0  0  2  0  0  3  0  0  0  0  0  0
  183.6890  178.4210  144.7560 C   0  0  0  0  0  2  0  0  0  0  0  0
  184.5750  179.1790  145.6220 N   0  0  0  0  0  2  0  0  0  0  0  0
  185.1500  178.2350  146.5610 C   0  0  0  0  0  2  0  0  0  0  0  0
  186.0670  178.9460  147.4920 C   0  0  0  0  0  0  0  0  0  0  0  0
  185.8870  180.1650  147.7480 O   0  0  0  0  0  0  0  0  0  0  0  0
  187.1410  178.2710  148.0580 O   0  0  0  0  0  1  0  0  0  0  0  0
  186.8180  178.4540  138.9200 N   0  0  0  0  0  2  0  0  0  0  0  0
  188.1670  179.3020  137.2230 O   0  0  0  0  0  1  0  0  0  0  0  0
  187.4430  178.1830  137.6350 C   0  0  2  0  0  3  0  0  0  0  0  0
  186.4560  177.8980  136.6910 O   0  0  0  0  0  0  0  0  0  0  0  0
  185.8310  176.7420  137.1690 C   0  0  0  0  0  2  0  0  0  0  0  0
  186.7240  175.5350  136.9380 C   0  0  0  0  0  2  0  0  0  0  0  0
  186.2790  173.2250  137.0580 C   0  0  0  0  0  2  0  0  0  0  0  0
  184.1170  172.0300  137.1420 C   0  0  0  0  0  1  0  0  0  0  0  0
  184.9310  173.1610  137.7380 C   0  0  2  0  0  3  0  0  0  0  0  0
  184.6490  174.4400  136.9800 C   0  0  0  0  0  2  0  0  0  0  0  0
  185.9570  174.4500  136.3350 N   0  0  0  0  0  0  0  0  0  0  0  0
  1  6  1  0  0  0  0
  2  6  2  0  0  0  0
  3  4  1  0  0  0  0
  3  5  2  0  0  0  0
  4  1  2  0  0  0  0
  5  2  1  0  0  0  0
  6 11  1  0  0  0  0
  7  1  1  0  0  0  0
  9 15  1  0  0  0  0
 10 14  1  0  0  0  0
 11 15  1  0  0  0  0
 11 13  2  0  0  0  0
 12  8  1  0  0  0  0
 13 12  1  0  0  0  0
 14  8  2  0  0  0  0
 15 10  2  0  0  0  0
 16 18  1  0  0  0  0
 17 18  1  0  0  0  0
 18 21  1  1  0  0  0
 19 20  1  0  0  0  0
 19 16  1  0  0  0  0
 20  5  1  1  0  0  0
 20 17  1  0  0  0  0
 21 22  1  0  0  0  0
 22 23  1  0  0  0  0
 23 24  1  0  0  0  0
 24 25  2  0  0  0  0
 24 26  1  0  0  0  0
 27  3  1  0  0  0  0
 29 28  1  6  0  0  0
 29 27  1  0  0  0  0
 30 31  1  0  0  0  0
 30 29  1  0  0  0  0
 32 31  1  0  0  0  0
 33 35  1  0  0  0  0
 35 34  1  6  0  0  0
 36 35  1  0  0  0  0
 37 32  1  0  0  0  0
 37 36  1  0  0  0  0
 37 33  1  0  0  0  0
M  END
>  <MODEL>
4

>  <REMARK>
 VINA RESULT:      -7.2      3.266      6.699
  Name = 
  12 active torsions:
  status: ('A' for Active; 'I' for Inactive)
    1  A    between atoms: C_1  and  C_9
    2  A    between atoms: C_1  and  N_13
    3  A    between atoms: C_5  and  N_29
    4  A    between atoms: C_11  and  C_35
    5  A    between atoms: C_12  and  C_20
    6  A    between atoms: N_13  and  C_17
    7  A    between atoms: C_15  and  N_32
    8  A    between atoms: C_15  and  C_37
    9  A    between atoms: C_17  and  C_18
   10  A    between atoms: N_29  and  C_31
   11  A    between atoms: C_31  and  O_34
   12  A    between atoms: O_34  and  C_37
                            x       y       z     vdW  Elec       q    Type
                         _______ _______ _______ _____ _____    ______ ____

>  <TORSDO>
F 12

$$$$
=
 OpenBabel11042411553D

 37 40  0  0  1  0  0  0  0  0999 V2000
  187.2070  177.0500  137.2170 C   0  0  0  0  0  0  0  0  0  0  0  0
  188.8080  177.1940  138.9810 N   0  0  0  0  0  0  0  0  0  0  0  0
  186.6820  178.2630  139.2540 C   0  0  0  0  0  0  0  0  0  0  0  0
  186.3270  177.8110  137.9830 C   0  0  0  0  0  3  0  0  0  0  0  0
  187.9630  177.9330  139.7540 C   0  0  0  0  0  0  0  0  0  0  0  0
  188.4810  176.7460  137.7390 C   0  0  0  0  0  0  0  0  0  0  0  0
  186.6230  176.4200  135.6410 S   0  0  0  0  0  1  0  0  0  0  0  0
  192.2850  175.1610  136.0420 C   0  0  0  0  0  3  0  0  0  0  0  0
  188.2160  173.8530  137.2630 O   0  0  0  0  0  1  0  0  0  0  0  0
  190.5290  173.6850  137.0070 C   0  0  0  0  0  3  0  0  0  0  0  0
  189.4810  175.9580  136.9880 C   0  0  0  0  0  0  0  0  0  0  0  0
  191.3010  175.9750  135.2720 C   0  0  0  0  0  2  0  0  0  0  0  0
  190.3150  176.6270  136.1820 C   0  0  0  0  0  3  0  0  0  0  0  0
  191.9240  174.1160  136.7850 C   0  0  0  0  0  3  0  0  0  0  0  0
  189.4440  174.4700  137.0570 C   0  0  0  0  0  0  0  0  0  0  0  0
  188.4200  176.6000  142.6920 C   0  0  0  0  0  2  0  0  0  0  0  0
  190.2240  178.0380  141.2890 S   0  0  0  0  0  0  0  0  0  0  0  0
  189.8820  176.9740  142.7260 C   0  0  2  0  0  3  0  0  0  0  0  0
  187.6710  177.8270  142.2310 C   0  0  0  0  0  2  0  0  0  0  0  0
  188.4560  178.4330  141.0790 C   0  0  2  0  0  3  0  0  0  0  0  0
  190.7330  175.7200  142.6720 C   0  0  0  0  0  2  0  0  0  0  0  0
  191.3690  175.4990  143.9590 N   0  0  0  0  0  2  0  0  0  0  0  0
  191.5960  176.8080  144.5430 C   0  0  0  0  0  2  0  0  0  0  0  0
  191.3390  176.7570  146.0080 C   0  0  0  0  0  0  0  0  0  0  0  0
  192.2300  176.3390  146.7910 O   0  0  0  0  0  1  0  0  0  0  0  0
  190.1020  177.1440  146.5080 O   0  0  0  0  0  0  0  0  0  0  0  0
  185.7210  179.0500  139.9730 N   0  0  0  0  0  2  0  0  0  0  0  0
  184.0870  180.4600  139.1010 O   0  0  0  0  0  1  0  0  0  0  0  0
  184.3120  179.1930  139.6400 C   0  0  2  0  0  3  0  0  0  0  0  0
  183.5440  179.0370  140.7940 O   0  0  0  0  0  0  0  0  0  0  0  0
  184.3620  178.3180  141.6700 C   0  0  0  0  0  2  0  0  0  0  0  0
  183.7350  178.2790  143.0530 C   0  0  0  0  0  2  0  0  0  0  0  0
  183.8310  179.0670  145.2710 C   0  0  0  0  0  2  0  0  0  0  0  0
  185.6990  179.0220  146.8890 C   0  0  0  0  0  1  0  0  0  0  0  0
  184.8900  178.1970  145.9080 C   0  0  2  0  0  3  0  0  0  0  0  0
  185.5450  178.2460  144.5450 C   0  0  0  0  0  2  0  0  0  0  0  0
  184.5070  179.1000  143.9790 N   0  0  0  0  0  0  0  0  0  0  0  0
  1  6  2  0  0  0  0
  1  4  1  0  0  0  0
  2  5  2  0  0  0  0
  3  5  1  0  0  0  0
  3 27  1  0  0  0  0
  4  3  2  0  0  0  0
  6  2  1  0  0  0  0
  7  1  1  0  0  0  0
  8 14  2  0  0  0  0
 10 15  2  0  0  0  0
 11 15  1  0  0  0  0
 11  6  1  0  0  0  0
 12  8  1  0  0  0  0
 12 13  1  0  0  0  0
 13 11  2  0  0  0  0
 14 10  1  0  0  0  0
 15  9  1  0  0  0  0
 16 18  1  0  0  0  0
 17 18  1  0  0  0  0
 18 21  1  6  0  0  0
 19 16  1  0  0  0  0
 20  5  1  6  0  0  0
 20 17  1  0  0  0  0
 20 19  1  0  0  0  0
 21 22  1  0  0  0  0
 22 23  1  0  0  0  0
 23 24  1  0  0  0  0
 24 26  2  0  0  0  0
 24 25  1  0  0  0  0
 29 28  1  1  0  0  0
 29 27  1  0  0  0  0
 29 30  1  0  0  0  0
 30 31  1  0  0  0  0
 31 32  1  0  0  0  0
 32 37  1  0  0  0  0
 33 35  1  0  0  0  0
 35 34  1  1  0  0  0
 36 35  1  0  0  0  0
 37 36  1  0  0  0  0
 37 33  1  0  0  0  0
M  END
>  <MODEL>
5

>  <REMARK>
 VINA RESULT:      -7.0      1.527      1.818
  Name = 
  12 active torsions:
  status: ('A' for Active; 'I' for Inactive)
    1  A    between atoms: C_1  and  C_9
    2  A    between atoms: C_1  and  N_13
    3  A    between atoms: C_5  and  N_29
    4  A    between atoms: C_11  and  C_35
    5  A    between atoms: C_12  and  C_20
    6  A    between atoms: N_13  and  C_17
    7  A    between atoms: C_15  and  N_32
    8  A    between atoms: C_15  and  C_37
    9  A    between atoms: C_17  and  C_18
   10  A    between atoms: N_29  and  C_31
   11  A    between atoms: C_31  and  O_34
   12  A    between atoms: O_34  and  C_37
                            x       y       z     vdW  Elec       q    Type
                         _______ _______ _______ _____ _____    ______ ____

>  <TORSDO>
F 12

$$$$
=
 OpenBabel11042411553D

 37 40  0  0  1  0  0  0  0  0999 V2000
  186.3350  178.3800  142.0890 C   0  0  0  0  0  0  0  0  0  0  0  0
  187.9490  178.1020  140.3530 N   0  0  0  0  0  0  0  0  0  0  0  0
  185.6710  178.5430  139.7590 C   0  0  0  0  0  0  0  0  0  0  0  0
  185.3560  178.5780  141.1170 C   0  0  0  0  0  3  0  0  0  0  0  0
  187.0130  178.3000  139.3830 C   0  0  0  0  0  0  0  0  0  0  0  0
  187.6620  178.1290  141.6830 C   0  0  0  0  0  0  0  0  0  0  0  0
  185.8580  178.5520  143.8110 S   0  0  0  0  0  1  0  0  0  0  0  0
  190.8040  178.6450  144.8000 C   0  0  0  0  0  3  0  0  0  0  0  0
  187.9390  175.6350  143.2210 O   0  0  0  0  0  1  0  0  0  0  0  0
  189.1600  176.7770  144.8490 C   0  0  0  0  0  3  0  0  0  0  0  0
  188.7580  177.8940  142.6460 C   0  0  0  0  0  0  0  0  0  0  0  0
  191.0880  178.4710  143.3460 C   0  0  0  0  0  2  0  0  0  0  0  0
  189.8530  178.6570  142.5320 C   0  0  0  0  0  3  0  0  0  0  0  0
  189.9640  177.8520  145.4640 C   0  0  0  0  0  3  0  0  0  0  0  0
  188.6600  176.7590  143.6060 C   0  0  0  0  0  0  0  0  0  0  0  0
  189.8210  177.6940  137.8460 C   0  0  0  0  0  2  0  0  0  0  0  0
  187.4720  176.4240  137.4470 S   0  0  0  0  0  0  0  0  0  0  0  0
  189.2620  176.4940  137.1220 C   0  0  2  0  0  3  0  0  0  0  0  0
  188.7980  178.7950  137.7100 C   0  0  0  0  0  2  0  0  0  0  0  0
  187.4300  178.1770  137.9470 C   0  0  2  0  0  3  0  0  0  0  0  0
  189.9410  175.2330  137.6220 C   0  0  0  0  0  2  0  0  0  0  0  0
  191.0600  175.5810  138.4790 N   0  0  0  0  0  2  0  0  0  0  0  0
  192.2650  175.1820  137.7760 C   0  0  0  0  0  2  0  0  0  0  0  0
  193.2880  176.2570  137.8810 C   0  0  0  0  0  0  0  0  0  0  0  0
  193.9400  176.6110  136.8640 O   0  0  0  0  0  0  0  0  0  0  0  0
  193.5460  176.8510  139.1100 O   0  0  0  0  0  1  0  0  0  0  0  0
  184.6030  178.7470  138.8220 N   0  0  0  0  0  2  0  0  0  0  0  0
  183.1620  178.0710  137.1230 O   0  0  0  0  0  1  0  0  0  0  0  0
  183.6420  177.7420  138.3910 C   0  0  2  0  0  3  0  0  0  0  0  0
  182.5780  177.7020  139.2920 O   0  0  0  0  0  0  0  0  0  0  0  0
  181.7580  178.7720  138.9220 C   0  0  0  0  0  2  0  0  0  0  0  0
  181.1710  179.4290  140.1590 C   0  0  0  0  0  2  0  0  0  0  0  0
  181.5370  178.9970  142.4460 C   0  0  0  0  0  2  0  0  0  0  0  0
  179.9630  178.2080  144.1810 C   0  0  0  0  0  1  0  0  0  0  0  0
  180.1770  179.2130  143.0670 C   0  0  2  0  0  3  0  0  0  0  0  0
  179.6520  178.6460  141.7670 C   0  0  0  0  0  2  0  0  0  0  0  0
  180.9860  178.4400  141.2150 N   0  0  0  0  0  0  0  0  0  0  0  0
  1  7  1  0  0  0  0
  2  6  2  0  0  0  0
  3  4  1  0  0  0  0
  4  1  2  0  0  0  0
  5  3  2  0  0  0  0
  5  2  1  0  0  0  0
  6  1  1  0  0  0  0
  6 11  1  0  0  0  0
  8 14  2  0  0  0  0
  9 15  1  0  0  0  0
 10 14  1  0  0  0  0
 11 15  1  0  0  0  0
 12  8  1  0  0  0  0
 13 11  2  0  0  0  0
 13 12  1  0  0  0  0
 15 10  2  0  0  0  0
 17 20  1  0  0  0  0
 18 17  1  0  0  0  0
 18 21  1  1  0  0  0
 18 16  1  0  0  0  0
 19 16  1  0  0  0  0
 19 20  1  0  0  0  0
 20  5  1  1  0  0  0
 21 22  1  0  0  0  0
 23 24  1  0  0  0  0
 23 22  1  0  0  0  0
 24 26  1  0  0  0  0
 25 24  2  0  0  0  0
 27  3  1  0  0  0  0
 29 28  1  6  0  0  0
 29 27  1  0  0  0  0
 29 30  1  0  0  0  0
 31 30  1  0  0  0  0
 31 32  1  0  0  0  0
 32 37  1  0  0  0  0
 33 35  1  0  0  0  0
 35 34  1  1  0  0  0
 36 35  1  0  0  0  0
 37 36  1  0  0  0  0
 37 33  1  0  0  0  0
M  END
>  <MODEL>
6

>  <REMARK>
 VINA RESULT:      -6.9      2.723      6.163
  Name = 
  12 active torsions:
  status: ('A' for Active; 'I' for Inactive)
    1  A    between atoms: C_1  and  C_9
    2  A    between atoms: C_1  and  N_13
    3  A    between atoms: C_5  and  N_29
    4  A    between atoms: C_11  and  C_35
    5  A    between atoms: C_12  and  C_20
    6  A    between atoms: N_13  and  C_17
    7  A    between atoms: C_15  and  N_32
    8  A    between atoms: C_15  and  C_37
    9  A    between atoms: C_17  and  C_18
   10  A    between atoms: N_29  and  C_31
   11  A    between atoms: C_31  and  O_34
   12  A    between atoms: O_34  and  C_37
                            x       y       z     vdW  Elec       q    Type
                         _______ _______ _______ _____ _____    ______ ____

>  <TORSDO>
F 12

$$$$
=
 OpenBabel11042411553D

 37 40  0  0  1  0  0  0  0  0999 V2000
  189.2330  177.1880  142.9360 C   0  0  0  0  0  0  0  0  0  0  0  0
  187.1920  178.3220  143.4310 N   0  0  0  0  0  0  0  0  0  0  0  0
  187.8960  178.1430  141.1490 C   0  0  0  0  0  0  0  0  0  0  0  0
  189.0250  177.4480  141.5830 C   0  0  0  0  0  3  0  0  0  0  0  0
  186.9600  178.5830  142.1140 C   0  0  0  0  0  0  0  0  0  0  0  0
  188.2880  177.6480  143.8750 C   0  0  0  0  0  0  0  0  0  0  0  0
  190.6550  176.1920  143.3910 S   0  0  0  0  0  1  0  0  0  0  0  0
  189.6390  177.8480  148.1170 C   0  0  0  0  0  3  0  0  0  0  0  0
  186.0120  177.0990  145.6600 O   0  0  0  0  0  1  0  0  0  0  0  0
  187.2370  177.9140  147.4700 C   0  0  0  0  0  3  0  0  0  0  0  0
  188.4380  177.4290  145.3290 C   0  0  0  0  0  0  0  0  0  0  0  0
  189.9460  176.7180  147.1940 C   0  0  0  0  0  2  0  0  0  0  0  0
  189.6520  177.0860  145.7780 C   0  0  0  0  0  3  0  0  0  0  0  0
  188.4110  178.3470  148.2540 C   0  0  0  0  0  3  0  0  0  0  0  0
  187.2340  177.4710  146.2060 C   0  0  0  0  0  0  0  0  0  0  0  0
  183.7820  177.9580  141.7640 C   0  0  0  0  0  2  0  0  0  0  0  0
  184.8700  179.9360  143.2450 S   0  0  0  0  0  0  0  0  0  0  0  0
  183.3800  178.9970  142.7820 C   0  0  2  0  0  3  0  0  0  0  0  0
  184.8010  178.6090  140.8610 C   0  0  0  0  0  2  0  0  0  0  0  0
  185.7550  179.3960  141.7450 C   0  0  2  0  0  3  0  0  0  0  0  0
  182.7820  178.3180  143.9990 C   0  0  0  0  0  2  0  0  0  0  0  0
  181.4070  178.7500  144.1790 N   0  0  0  0  0  2  0  0  0  0  0  0
  180.8990  179.0870  142.8620 C   0  0  0  0  0  2  0  0  0  0  0  0
  179.7970  180.0790  142.9870 C   0  0  0  0  0  0  0  0  0  0  0  0
  178.9700  179.9890  143.9310 O   0  0  0  0  0  1  0  0  0  0  0  0
  179.6630  181.0890  142.0430 O   0  0  0  0  0  0  0  0  0  0  0  0
  187.7610  178.3790  139.7390 N   0  0  0  0  0  2  0  0  0  0  0  0
  189.0100  179.4030  138.0620 O   0  0  0  0  0  1  0  0  0  0  0  0
  188.8040  178.2010  138.7400 C   0  0  2  0  0  3  0  0  0  0  0  0
  188.4120  177.2180  137.8310 O   0  0  0  0  0  0  0  0  0  0  0  0
  189.5760  176.9050  137.1230 C   0  0  0  0  0  2  0  0  0  0  0  0
  189.8570  175.4150  137.2170 C   0  0  0  0  0  2  0  0  0  0  0  0
  191.9240  174.2930  137.3580 C   0  0  0  0  0  2  0  0  0  0  0  0
  194.1550  175.1530  137.9830 C   0  0  0  0  0  1  0  0  0  0  0  0
  192.9370  175.3870  137.1130 C   0  0  2  0  0  3  0  0  0  0  0  0
  191.9510  176.2670  137.8500 C   0  0  0  0  0  2  0  0  0  0  0  0
  191.0110  175.1740  138.0770 N   0  0  0  0  0  0  0  0  0  0  0  0
  1  7  1  0  0  0  0
  1  6  1  0  0  0  0
  2  6  2  0  0  0  0
  3  4  1  0  0  0  0
  3  5  2  0  0  0  0
  4  1  2  0  0  0  0
  5  2  1  0  0  0  0
  6 11  1  0  0  0  0
  8 14  2  0  0  0  0
  9 15  1  0  0  0  0
 10 14  1  0  0  0  0
 11 13  2  0  0  0  0
 11 15  1  0  0  0  0
 12  8  1  0  0  0  0
 13 12  1  0  0  0  0
 15 10  2  0  0  0  0
 16 18  1  0  0  0  0
 18 17  1  0  0  0  0
 18 21  1  1  0  0  0
 19 20  1  0  0  0  0
 19 16  1  0  0  0  0
 20  5  1  1  0  0  0
 20 17  1  0  0  0  0
 21 22  1  0  0  0  0
 23 24  1  0  0  0  0
 23 22  1  0  0  0  0
 24 25  1  0  0  0  0
 26 24  2  0  0  0  0
 27  3  1  0  0  0  0
 29 28  1  6  0  0  0
 29 27  1  0  0  0  0
 30 29  1  0  0  0  0
 31 32  1  0  0  0  0
 31 30  1  0  0  0  0
 32 37  1  0  0  0  0
 33 37  1  0  0  0  0
 35 33  1  0  0  0  0
 35 36  1  0  0  0  0
 35 34  1  1  0  0  0
 36 37  1  0  0  0  0
M  END
>  <MODEL>
7

>  <REMARK>
 VINA RESULT:      -6.9      2.851      8.803
  Name = 
  12 active torsions:
  status: ('A' for Active; 'I' for Inactive)
    1  A    between atoms: C_1  and  C_9
    2  A    between atoms: C_1  and  N_13
    3  A    between atoms: C_5  and  N_29
    4  A    between atoms: C_11  and  C_35
    5  A    between atoms: C_12  and  C_20
    6  A    between atoms: N_13  and  C_17
    7  A    between atoms: C_15  and  N_32
    8  A    between atoms: C_15  and  C_37
    9  A    between atoms: C_17  and  C_18
   10  A    between atoms: N_29  and  C_31
   11  A    between atoms: C_31  and  O_34
   12  A    between atoms: O_34  and  C_37
                            x       y       z     vdW  Elec       q    Type
                         _______ _______ _______ _____ _____    ______ ____

>  <TORSDO>
F 12

$$$$
=
 OpenBabel11042411553D

 37 40  0  0  1  0  0  0  0  0999 V2000
  185.6970  178.6800  141.2740 C   0  0  0  0  0  0  0  0  0  0  0  0
  186.1910  178.2590  138.9770 N   0  0  0  0  0  0  0  0  0  0  0  0
  188.0000  178.4730  140.5310 C   0  0  0  0  0  0  0  0  0  0  0  0
  187.0640  178.6850  141.5440 C   0  0  0  0  0  3  0  0  0  0  0  0
  187.5330  178.2510  139.2160 C   0  0  0  0  0  0  0  0  0  0  0  0
  185.2630  178.4670  139.9500 C   0  0  0  0  0  0  0  0  0  0  0  0
  184.5660  178.8520  142.6560 S   0  0  0  0  0  1  0  0  0  0  0  0
  180.8660  177.7490  139.8510 C   0  0  0  0  0  3  0  0  0  0  0  0
  183.9160  180.7780  138.7200 O   0  0  0  0  0  1  0  0  0  0  0  0
  181.8640  180.0040  139.5160 C   0  0  0  0  0  3  0  0  0  0  0  0
  183.8330  178.4600  139.5730 C   0  0  0  0  0  0  0  0  0  0  0  0
  181.8420  177.0860  138.9390 C   0  0  0  0  0  2  0  0  0  0  0  0
  183.2400  177.2690  139.4250 C   0  0  0  0  0  3  0  0  0  0  0  0
  180.8690  179.0630  140.0680 C   0  0  0  0  0  3  0  0  0  0  0  0
  183.1530  179.7470  139.2550 C   0  0  0  0  0  0  0  0  0  0  0  0
  188.6960  175.7040  137.5490 C   0  0  0  0  0  2  0  0  0  0  0  0
  187.5250  177.9000  136.5030 S   0  0  0  0  0  0  0  0  0  0  0  0
  188.1720  176.2200  136.2320 C   0  0  2  0  0  3  0  0  0  0  0  0
  189.3660  176.8700  138.2340 C   0  0  0  0  0  2  0  0  0  0  0  0
  188.4670  178.0820  138.0540 C   0  0  2  0  0  3  0  0  0  0  0  0
  187.0750  175.3050  135.7230 C   0  0  0  0  0  2  0  0  0  0  0  0
  186.4420  174.6250  136.8400 N   0  0  0  0  0  2  0  0  0  0  0  0
  185.0610  175.0700  136.8730 C   0  0  0  0  0  2  0  0  0  0  0  0
  184.1780  173.9420  137.2720 C   0  0  0  0  0  0  0  0  0  0  0  0
  182.9320  174.1070  137.3370 O   0  0  0  0  0  0  0  0  0  0  0  0
  184.7310  172.7110  137.6010 O   0  0  0  0  0  1  0  0  0  0  0  0
  189.3890  178.5040  140.8920 N   0  0  0  0  0  2  0  0  0  0  0  0
  189.4210  176.3190  141.6950 O   0  0  0  0  0  1  0  0  0  0  0  0
  190.0680  177.5530  141.7600 C   0  0  2  0  0  3  0  0  0  0  0  0
  190.0390  178.0220  143.0730 O   0  0  0  0  0  0  0  0  0  0  0  0
  189.5680  176.9420  143.8250 C   0  0  0  0  0  2  0  0  0  0  0  0
  190.4160  176.7680  145.0730 C   0  0  0  0  0  2  0  0  0  0  0  0
  188.5630  177.6070  146.2610 C   0  0  0  0  0  2  0  0  0  0  0  0
  188.2420  177.9030  148.6940 C   0  0  0  0  0  1  0  0  0  0  0  0
  188.6770  176.9360  147.6110 C   0  0  2  0  0  3  0  0  0  0  0  0
  190.1680  177.0650  147.3880 C   0  0  0  0  0  2  0  0  0  0  0  0
  190.0070  177.7240  146.0970 N   0  0  0  0  0  0  0  0  0  0  0  0
  1  4  1  0  0  0  0
  1  7  1  0  0  0  0
  2  5  2  0  0  0  0
  2  6  1  0  0  0  0
  3 27  1  0  0  0  0
  3  4  2  0  0  0  0
  5  3  1  0  0  0  0
  6  1  2  0  0  0  0
  8 14  2  0  0  0  0
  9 15  1  0  0  0  0
 10 14  1  0  0  0  0
 11  6  1  0  0  0  0
 12 13  1  0  0  0  0
 12  8  1  0  0  0  0
 13 11  2  0  0  0  0
 15 10  2  0  0  0  0
 15 11  1  0  0  0  0
 16 19  1  0  0  0  0
 17 20  1  0  0  0  0
 18 21  1  1  0  0  0
 18 17  1  0  0  0  0
 18 16  1  0  0  0  0
 20 19  1  0  0  0  0
 20  5  1  1  0  0  0
 21 22  1  0  0  0  0
 22 23  1  0  0  0  0
 23 24  1  0  0  0  0
 24 25  2  0  0  0  0
 24 26  1  0  0  0  0
 27 29  1  0  0  0  0
 29 28  1  1  0  0  0
 29 30  1  0  0  0  0
 30 31  1  0  0  0  0
 31 32  1  0  0  0  0
 32 37  1  0  0  0  0
 33 35  1  0  0  0  0
 35 34  1  1  0  0  0
 36 35  1  0  0  0  0
 37 33  1  0  0  0  0
 37 36  1  0  0  0  0
M  END
>  <MODEL>
8

>  <REMARK>
 VINA RESULT:      -6.9      3.070      8.006
  Name = 
  12 active torsions:
  status: ('A' for Active; 'I' for Inactive)
    1  A    between atoms: C_1  and  C_9
    2  A    between atoms: C_1  and  N_13
    3  A    between atoms: C_5  and  N_29
    4  A    between atoms: C_11  and  C_35
    5  A    between atoms: C_12  and  C_20
    6  A    between atoms: N_13  and  C_17
    7  A    between atoms: C_15  and  N_32
    8  A    between atoms: C_15  and  C_37
    9  A    between atoms: C_17  and  C_18
   10  A    between atoms: N_29  and  C_31
   11  A    between atoms: C_31  and  O_34
   12  A    between atoms: O_34  and  C_37
                            x       y       z     vdW  Elec       q    Type
                         _______ _______ _______ _____ _____    ______ ____

>  <TORSDO>
F 12

$$$$
=
 OpenBabel11042411553D

 37 40  0  0  1  0  0  0  0  0999 V2000
  188.4630  177.1730  137.7760 C   0  0  0  0  0  0  0  0  0  0  0  0
  189.5000  177.0570  139.9230 N   0  0  0  0  0  0  0  0  0  0  0  0
  187.3930  178.1750  139.7120 C   0  0  0  0  0  0  0  0  0  0  0  0
  187.4080  177.8800  138.3480 C   0  0  0  0  0  3  0  0  0  0  0  0
  188.4770  177.7400  140.5090 C   0  0  0  0  0  0  0  0  0  0  0  0
  189.5350  176.7630  138.5950 C   0  0  0  0  0  0  0  0  0  0  0  0
  188.3440  176.7440  136.0380 S   0  0  0  0  0  1  0  0  0  0  0  0
  192.3990  174.6190  135.9380 C   0  0  0  0  0  3  0  0  0  0  0  0
  192.2840  177.2000  139.5540 O   0  0  0  0  0  1  0  0  0  0  0  0
  193.1170  176.3900  137.5310 C   0  0  0  0  0  3  0  0  0  0  0  0
  190.7010  176.0220  138.0680 C   0  0  0  0  0  0  0  0  0  0  0  0
  191.5270  173.9460  136.9430 C   0  0  0  0  0  2  0  0  0  0  0  0
  190.4610  174.8680  137.4320 C   0  0  0  0  0  3  0  0  0  0  0  0
  193.1330  175.6920  136.2310 C   0  0  0  0  0  3  0  0  0  0  0  0
  192.0760  176.5090  138.3670 C   0  0  0  0  0  0  0  0  0  0  0  0
  188.7730  176.0010  143.2480 C   0  0  0  0  0  2  0  0  0  0  0  0
  190.3240  178.0790  142.4970 S   0  0  0  0  0  0  0  0  0  0  0  0
  190.0460  176.7010  143.6540 C   0  0  2  0  0  3  0  0  0  0  0  0
  187.8060  177.0780  142.8200 C   0  0  0  0  0  2  0  0  0  0  0  0
  188.5780  178.0710  141.9680 C   0  0  2  0  0  3  0  0  0  0  0  0
  191.2060  175.7250  143.6030 C   0  0  0  0  0  2  0  0  0  0  0  0
  192.0500  175.9000  144.7710 N   0  0  0  0  0  2  0  0  0  0  0  0
  191.3140  176.7400  145.6980 C   0  0  0  0  0  2  0  0  0  0  0  0
  191.6780  176.3870  147.0960 C   0  0  0  0  0  0  0  0  0  0  0  0
  192.0720  175.2240  147.3720 O   0  0  0  0  0  0  0  0  0  0  0  0
  191.5540  177.3330  148.1050 O   0  0  0  0  0  1  0  0  0  0  0  0
  186.2730  178.9160  140.2200 N   0  0  0  0  0  2  0  0  0  0  0  0
  184.4380  180.1380  139.4720 O   0  0  0  0  0  1  0  0  0  0  0  0
  184.9080  178.8480  139.7240 C   0  0  2  0  0  3  0  0  0  0  0  0
  184.0960  178.2390  140.6810 O   0  0  0  0  0  0  0  0  0  0  0  0
  183.3090  177.3390  139.9570 C   0  0  0  0  0  2  0  0  0  0  0  0
  181.8410  177.5540  140.2820 C   0  0  0  0  0  2  0  0  0  0  0  0
  180.7220  179.6130  140.5200 C   0  0  0  0  0  2  0  0  0  0  0  0
  179.4380  180.5070  142.4330 C   0  0  0  0  0  1  0  0  0  0  0  0
  179.6360  179.3100  141.5260 C   0  0  2  0  0  3  0  0  0  0  0  0
  180.6600  178.3780  142.1350 C   0  0  0  0  0  2  0  0  0  0  0  0
  181.6820  178.7150  141.1510 N   0  0  0  0  0  0  0  0  0  0  0  0
  1  4  2  0  0  0  0
  1  6  1  0  0  0  0
  2  5  1  0  0  0  0
  3 27  1  0  0  0  0
  3  5  2  0  0  0  0
  4  3  1  0  0  0  0
  6  2  2  0  0  0  0
  7  1  1  0  0  0  0
  8 14  2  0  0  0  0
  8 12  1  0  0  0  0
 10 15  2  0  0  0  0
 11 15  1  0  0  0  0
 11  6  1  0  0  0  0
 12 13  1  0  0  0  0
 13 11  2  0  0  0  0
 14 10  1  0  0  0  0
 15  9  1  0  0  0  0
 16 18  1  0  0  0  0
 17 18  1  0  0  0  0
 18 21  1  6  0  0  0
 19 16  1  0  0  0  0
 20  5  1  6  0  0  0
 20 17  1  0  0  0  0
 20 19  1  0  0  0  0
 21 22  1  0  0  0  0
 22 23  1  0  0  0  0
 23 24  1  0  0  0  0
 24 25  2  0  0  0  0
 24 26  1  0  0  0  0
 29 28  1  1  0  0  0
 29 27  1  0  0  0  0
 29 30  1  0  0  0  0
 31 32  1  0  0  0  0
 31 30  1  0  0  0  0
 32 37  1  0  0  0  0
 33 37  1  0  0  0  0
 33 35  1  0  0  0  0
 35 36  1  0  0  0  0
 35 34  1  1  0  0  0
 37 36  1  0  0  0  0
M  END
>  <MODEL>
9

>  <REMARK>
 VINA RESULT:      -6.8      1.712      2.386
  Name = 
  12 active torsions:
  status: ('A' for Active; 'I' for Inactive)
    1  A    between atoms: C_1  and  C_9
    2  A    between atoms: C_1  and  N_13
    3  A    between atoms: C_5  and  N_29
    4  A    between atoms: C_11  and  C_35
    5  A    between atoms: C_12  and  C_20
    6  A    between atoms: N_13  and  C_17
    7  A    between atoms: C_15  and  N_32
    8  A    between atoms: C_15  and  C_37
    9  A    between atoms: C_17  and  C_18
   10  A    between atoms: N_29  and  C_31
   11  A    between atoms: C_31  and  O_34
   12  A    between atoms: O_34  and  C_37
                            x       y       z     vdW  Elec       q    Type
                         _______ _______ _______ _____ _____    ______ ____

>  <TORSDO>
F 12

$$$$
