=
 OpenBabel11032420033D

 46 50  0  0  1  0  0  0  0  0999 V2000
  182.8500  178.2900  142.2430 C   0  0  0  0  0  1  0  0  0  0  0  0
  185.1640  177.5090  142.7380 C   0  0  0  0  0  2  0  0  0  0  0  0
  187.0900  178.5890  141.5200 C   0  0  0  0  0  0  0  0  0  0  0  0
  189.3870  178.0320  142.0790 C   0  0  0  0  0  0  0  0  0  0  0  0
  186.6340  177.7230  142.5260 C   0  0  0  0  0  0  0  0  0  0  0  0
  190.8270  178.1850  141.7290 C   0  0  0  0  0  1  0  0  0  0  0  0
  188.9360  177.1640  143.1080 C   0  0  0  0  0  0  0  0  0  0  0  0
  184.7690  179.0830  140.7990 C   0  0  2  0  0  3  0  0  0  0  0  0
  186.1800  179.3190  140.7460 O   0  0  0  0  0  0  0  0  0  0  0  0
  184.3190  178.6920  142.2310 C   0  0  1  0  0  0  0  0  0  0  0  0
  188.4600  178.7350  141.3020 C   0  0  0  0  0  3  0  0  0  0  0  0
  187.5520  177.0140  143.3010 C   0  0  0  0  0  3  0  0  0  0  0  0
  184.1840  176.1280  137.3460 N   0  0  0  0  0  0  0  0  0  0  0  0
  183.4920  175.4980  138.4630 C   0  0  0  0  0  2  0  0  0  0  0  0
  182.9930  177.5470  139.7640 C   0  0  0  0  0  3  0  0  0  0  0  0
  186.7890  178.6210  137.0930 N   0  0  0  0  0  2  0  0  0  0  0  0
  185.8910  177.6570  136.4240 C   0  0  2  0  0  3  0  0  0  0  0  0
  184.3620  178.1120  139.7140 C   0  0  1  0  0  3  0  0  0  0  0  0
  185.1840  177.9330  138.6640 C   0  0  0  0  0  0  0  0  0  0  0  0
  181.1390  176.0510  139.3070 C   0  0  0  0  0  1  0  0  0  0  0  0
  184.9370  177.1800  137.4650 C   0  0  0  0  0  0  0  0  0  0  0  0
  186.3190  178.7390  138.4150 N   0  0  0  0  0  0  0  0  0  0  0  0
  182.5650  176.4410  139.1520 C   0  0  0  0  0  0  0  0  0  0  0  0
  188.1060  174.0520  135.2750 O   0  0  0  0  0  0  0  0  0  0  0  0
  187.7180  175.9110  136.6490 N   0  0  0  0  0  2  0  0  0  0  0  0
  186.4170  176.0950  134.7080 O   0  0  0  0  0  0  0  0  0  0  0  0
  188.4280  174.7200  136.2930 C   0  0  0  0  0  0  0  0  0  0  0  0
  186.6870  176.5220  135.8630 C   0  0  0  0  0  0  0  0  0  0  0  0
  189.5320  174.2360  137.1700 C   0  0  0  0  0  2  0  0  0  0  0  0
  191.9680  174.6390  137.4760 C   0  0  0  0  0  1  0  0  0  0  0  0
  190.3170  176.1310  138.5550 C   0  0  0  0  0  1  0  0  0  0  0  0
  190.6080  175.2960  137.3230 C   0  0  0  0  0  3  0  0  0  0  0  0
  190.0570  176.8720  145.3420 C   0  0  0  0  0  2  0  0  0  0  0  0
  192.0030  175.4660  145.4110 O   0  0  0  0  0  0  0  0  0  0  0  0
  192.0200  175.3300  144.0120 C   0  0  0  0  0  2  0  0  0  0  0  0
  189.8390  176.4320  143.9610 N   0  0  0  0  0  0  0  0  0  0  0  0
  190.5870  175.2690  143.4800 C   0  0  0  0  0  2  0  0  0  0  0  0
  191.5440  176.7680  145.6810 C   0  0  0  0  0  2  0  0  0  0  0  0
  184.4970  179.9150  143.1420 C   0  0  0  0  0  2  0  0  0  0  0  0
  183.4480  179.9880  144.2430 C   0  0  0  0  0  2  0  0  0  0  0  0
  183.8600  179.1720  145.3700 N   0  0  0  0  0  2  0  0  0  0  0  0
  185.2790  179.4190  145.5540 C   0  0  0  0  0  2  0  0  0  0  0  0
  184.6680  178.2140  147.5060 O   0  0  0  0  0  1  0  0  0  0  0  0
  185.7250  178.8990  146.9070 C   0  0  1  0  0  3  0  0  0  0  0  0
  187.8320  178.1890  147.7710 O   0  0  0  0  0  1  0  0  0  0  0  0
  186.9130  177.9640  146.7460 C   0  0  0  0  0  2  0  0  0  0  0  0
  3  5  1  0  0  0  0
  4  7  2  0  0  0  0
  5  2  1  0  0  0  0
  5 12  2  0  0  0  0
  6  4  1  0  0  0  0
  7 12  1  0  0  0  0
  7 36  1  0  0  0  0
  8  9  1  1  0  0  0
  8 10  1  0  0  0  0
  9  3  1  0  0  0  0
 10  1  1  6  0  0  0
 10  2  1  0  0  0  0
 10 39  1  0  0  0  0
 11  3  2  0  0  0  0
 11  4  1  0  0  0  0
 13 21  2  0  0  0  0
 13 14  1  0  0  0  0
 14 23  1  0  0  0  0
 16 22  1  0  0  0  0
 17 28  1  1  0  0  0
 17 16  1  0  0  0  0
 17 21  1  0  0  0  0
 18 15  1  6  0  0  0
 18  8  1  0  0  0  0
 19 18  1  0  0  0  0
 21 19  1  0  0  0  0
 22 19  2  0  0  0  0
 23 20  1  0  0  0  0
 23 15  2  0  0  0  0
 24 27  2  0  0  0  0
 26 28  2  0  0  0  0
 27 25  1  0  0  0  0
 27 29  1  0  0  0  0
 28 25  1  0  0  0  0
 29 32  1  0  0  0  0
 32 30  1  0  0  0  0
 32 31  1  0  0  0  0
 33 38  1  0  0  0  0
 34 38  1  0  0  0  0
 35 34  1  0  0  0  0
 36 33  1  0  0  0  0
 37 36  1  0  0  0  0
 37 35  1  0  0  0  0
 39 40  1  0  0  0  0
 40 41  1  0  0  0  0
 41 42  1  0  0  0  0
 42 44  1  0  0  0  0
 44 43  1  6  0  0  0
 46 44  1  0  0  0  0
 46 45  1  0  0  0  0
M  END
>  <MODEL>
1

>  <REMARK>
 VINA RESULT:      -7.4      0.000      0.000
  Name = 
  11 active torsions:
  status: ('A' for Active; 'I' for Inactive)
    1  A    between atoms: C_4  and  C_34
    2  A    between atoms: C_4  and  C_42
    3  A    between atoms: N_6  and  C_42
    4  A    between atoms: N_6  and  C_44
    5  A    between atoms: N_18  and  C_22
    6  A    between atoms: C_23  and  C_40
    7  A    between atoms: C_24  and  C_46
    8  A    between atoms: C_25  and  C_33
    9  A    between atoms: C_25  and  C_44
   10  A    between atoms: C_27  and  C_29
   11  A    between atoms: C_37  and  C_46
                            x       y       z     vdW  Elec       q    Type
                         _______ _______ _______ _____ _____    ______ ____

>  <TORSDO>
F 11

$$$$
=
 OpenBabel11032420033D

 46 50  0  0  1  0  0  0  0  0999 V2000
  187.8040  179.6220  137.0430 C   0  0  0  0  0  1  0  0  0  0  0  0
  189.7490  178.1200  136.6270 C   0  0  0  0  0  2  0  0  0  0  0  0
  189.4410  175.6350  136.9200 C   0  0  0  0  0  0  0  0  0  0  0  0
  191.2200  174.0830  136.3480 C   0  0  0  0  0  0  0  0  0  0  0  0
  190.2410  176.7080  136.5000 C   0  0  0  0  0  0  0  0  0  0  0  0
  191.6990  172.6730  136.3750 C   0  0  0  0  0  1  0  0  0  0  0  0
  192.0310  175.1610  135.9080 C   0  0  0  0  0  0  0  0  0  0  0  0
  187.6470  177.1760  137.6660 C   0  0  2  0  0  3  0  0  0  0  0  0
  188.1450  175.8600  137.3980 O   0  0  0  0  0  0  0  0  0  0  0  0
  188.2130  178.2070  136.6550 C   0  0  1  0  0  0  0  0  0  0  0  0
  189.9360  174.3330  136.8440 C   0  0  0  0  0  3  0  0  0  0  0  0
  191.5250  176.4680  136.0100 C   0  0  0  0  0  3  0  0  0  0  0  0
  187.6220  178.2100  142.1300 N   0  0  0  0  0  0  0  0  0  0  0  0
  188.5900  177.1260  142.0300 C   0  0  0  0  0  2  0  0  0  0  0  0
  189.2370  177.4530  139.6610 C   0  0  0  0  0  3  0  0  0  0  0  0
  184.8690  179.3130  140.0640 N   0  0  0  0  0  0  0  0  0  0  0  0
  185.6520  179.4550  141.3080 C   0  0  2  0  0  3  0  0  0  0  0  0
  187.8580  177.5260  139.1220 C   0  0  0  0  0  0  0  0  0  0  0  0
  186.8320  178.0470  139.8180 C   0  0  0  0  0  0  0  0  0  0  0  0
  191.0320  177.3260  141.2870 C   0  0  0  0  0  1  0  0  0  0  0  0
  186.8480  178.5780  141.1540 C   0  0  0  0  0  0  0  0  0  0  0  0
  185.6200  178.4670  139.2240 N   0  0  0  0  0  0  0  0  0  0  0  0
  189.5860  177.3620  140.9460 C   0  0  0  0  0  0  0  0  0  0  0  0
  183.3700  178.7360  144.9810 O   0  0  0  0  0  0  0  0  0  0  0  0
  185.3590  179.1380  143.8080 N   0  0  0  0  0  2  0  0  0  0  0  0
  183.6510  178.6210  142.2880 O   0  0  0  0  0  0  0  0  0  0  0  0
  184.6130  178.9290  145.0130 C   0  0  0  0  0  0  0  0  0  0  0  0
  184.8260  179.0350  142.4820 C   0  0  0  0  0  0  0  0  0  0  0  0
  185.3140  178.9950  146.3280 C   0  0  0  0  0  2  0  0  0  0  0  0
  186.6810  177.0840  145.5080 C   0  0  0  0  0  1  0  0  0  0  0  0
  187.2820  178.2260  147.6180 C   0  0  0  0  0  1  0  0  0  0  0  0
  186.7160  178.4220  146.2240 C   0  0  0  0  0  3  0  0  0  0  0  0
  193.6570  173.7580  134.5940 C   0  0  0  0  0  2  0  0  0  0  0  0
  195.9900  174.2630  134.8520 O   0  0  0  0  0  0  0  0  0  0  0  0
  195.7320  175.1900  135.8760 C   0  0  0  0  0  2  0  0  0  0  0  0
  193.3530  174.9690  135.3620 N   0  0  0  0  0  0  0  0  0  0  0  0
  194.4300  175.9370  135.5820 C   0  0  0  0  0  2  0  0  0  0  0  0
  195.0380  173.2380  134.9900 C   0  0  0  0  0  2  0  0  0  0  0  0
  187.6270  177.8930  135.2710 C   0  0  0  0  0  2  0  0  0  0  0  0
  186.1720  177.4460  135.3330 C   0  0  0  0  0  2  0  0  0  0  0  0
  186.0160  176.1800  134.6420 N   0  0  0  0  0  2  0  0  0  0  0  0
  184.7400  175.6350  135.0710 C   0  0  0  0  0  2  0  0  0  0  0  0
  186.2150  173.8040  135.3940 O   0  0  0  0  0  1  0  0  0  0  0  0
  184.9460  174.2820  135.7220 C   0  0  1  0  0  3  0  0  0  0  0  0
  184.1660  175.5860  137.5590 O   0  0  0  0  0  1  0  0  0  0  0  0
  184.8190  174.3980  137.2320 C   0  0  0  0  0  2  0  0  0  0  0  0
  2 10  1  0  0  0  0
  3  9  1  0  0  0  0
  4  6  1  0  0  0  0
  4 11  2  0  0  0  0
  5  2  1  0  0  0  0
  5  3  2  0  0  0  0
  7 12  2  0  0  0  0
  7  4  1  0  0  0  0
  8 18  1  1  0  0  0
  9  8  1  0  0  0  0
 10  1  1  1  0  0  0
 10  8  1  0  0  0  0
 11  3  1  0  0  0  0
 12  5  1  0  0  0  0
 14 13  1  0  0  0  0
 15 23  2  0  0  0  0
 16 17  1  0  0  0  0
 17 28  1  1  0  0  0
 18 15  1  0  0  0  0
 18 19  2  0  0  0  0
 19 21  1  0  0  0  0
 21 17  1  0  0  0  0
 21 13  2  0  0  0  0
 22 19  1  0  0  0  0
 22 16  2  0  0  0  0
 23 20  1  0  0  0  0
 23 14  1  0  0  0  0
 24 27  2  0  0  0  0
 25 27  1  0  0  0  0
 26 28  2  0  0  0  0
 27 29  1  0  0  0  0
 28 25  1  0  0  0  0
 30 32  1  0  0  0  0
 32 29  1  0  0  0  0
 32 31  1  0  0  0  0
 33 38  1  0  0  0  0
 33 36  1  0  0  0  0
 34 38  1  0  0  0  0
 34 35  1  0  0  0  0
 36 37  1  0  0  0  0
 36  7  1  0  0  0  0
 37 35  1  0  0  0  0
 39 40  1  0  0  0  0
 39 10  1  0  0  0  0
 41 42  1  0  0  0  0
 41 40  1  0  0  0  0
 42 44  1  0  0  0  0
 44 43  1  1  0  0  0
 44 46  1  0  0  0  0
 46 45  1  0  0  0  0
M  END
>  <MODEL>
2

>  <REMARK>
 VINA RESULT:      -7.0      2.698      8.620
  Name = 
  11 active torsions:
  status: ('A' for Active; 'I' for Inactive)
    1  A    between atoms: C_4  and  C_34
    2  A    between atoms: C_4  and  C_42
    3  A    between atoms: N_6  and  C_42
    4  A    between atoms: N_6  and  C_44
    5  A    between atoms: N_18  and  C_22
    6  A    between atoms: C_23  and  C_40
    7  A    between atoms: C_24  and  C_46
    8  A    between atoms: C_25  and  C_33
    9  A    between atoms: C_25  and  C_44
   10  A    between atoms: C_27  and  C_29
   11  A    between atoms: C_37  and  C_46
                            x       y       z     vdW  Elec       q    Type
                         _______ _______ _______ _____ _____    ______ ____

>  <TORSDO>
F 11

$$$$
=
 OpenBabel11032420033D

 46 50  0  0  1  0  0  0  0  0999 V2000
  182.8190  178.2840  142.2680 C   0  0  0  0  0  1  0  0  0  0  0  0
  185.1370  177.5090  142.7500 C   0  0  0  0  0  2  0  0  0  0  0  0
  187.0560  178.6100  141.5390 C   0  0  0  0  0  0  0  0  0  0  0  0
  189.3570  178.0580  142.0870 C   0  0  0  0  0  0  0  0  0  0  0  0
  186.6060  177.7320  142.5370 C   0  0  0  0  0  0  0  0  0  0  0  0
  190.7950  178.2210  141.7350 C   0  0  0  0  0  1  0  0  0  0  0  0
  188.9120  177.1770  143.1070 C   0  0  0  0  0  0  0  0  0  0  0  0
  184.7310  179.1010  140.8290 C   0  0  2  0  0  3  0  0  0  0  0  0
  186.1410  179.3450  140.7750 O   0  0  0  0  0  0  0  0  0  0  0  0
  184.2860  178.6930  142.2580 C   0  0  1  0  0  0  0  0  0  0  0  0
  188.4240  178.7640  141.3200 C   0  0  0  0  0  3  0  0  0  0  0  0
  187.5290  177.0190  143.3020 C   0  0  0  0  0  3  0  0  0  0  0  0
  184.1530  176.1730  137.3520 N   0  0  0  0  0  0  0  0  0  0  0  0
  183.4490  175.5400  138.4600 C   0  0  0  0  0  2  0  0  0  0  0  0
  182.9530  177.5830  139.7710 C   0  0  0  0  0  3  0  0  0  0  0  0
  186.7750  178.6520  137.1340 N   0  0  0  0  0  2  0  0  0  0  0  0
  185.8760  177.6980  136.4520 C   0  0  2  0  0  3  0  0  0  0  0  0
  184.3260  178.1410  139.7340 C   0  0  1  0  0  3  0  0  0  0  0  0
  185.1550  177.9640  138.6890 C   0  0  0  0  0  0  0  0  0  0  0  0
  181.0940  176.1020  139.2910 C   0  0  0  0  0  1  0  0  0  0  0  0
  184.9110  177.2200  137.4830 C   0  0  0  0  0  0  0  0  0  0  0  0
  186.2960  178.7640  138.4540 N   0  0  0  0  0  0  0  0  0  0  0  0
  182.5230  176.4840  139.1480 C   0  0  0  0  0  0  0  0  0  0  0  0
  187.6890  174.1100  134.7050 O   0  0  0  0  0  0  0  0  0  0  0  0
  186.4080  175.2210  136.3220 N   0  0  0  0  0  2  0  0  0  0  0  0
  187.5420  176.7990  135.0110 O   0  0  0  0  0  0  0  0  0  0  0  0
  186.9770  174.0430  135.7400 C   0  0  0  0  0  0  0  0  0  0  0  0
  186.6690  176.5620  135.8890 C   0  0  0  0  0  0  0  0  0  0  0  0
  186.6770  172.7120  136.3410 C   0  0  0  0  0  2  0  0  0  0  0  0
  184.3750  172.2100  137.1420 C   0  0  0  0  0  1  0  0  0  0  0  0
  185.3990  170.8310  135.3630 C   0  0  0  0  0  1  0  0  0  0  0  0
  185.2950  172.2320  135.9340 C   0  0  0  0  0  3  0  0  0  0  0  0
  190.0680  176.8880  145.3250 C   0  0  0  0  0  2  0  0  0  0  0  0
  191.9970  175.4580  145.3710 O   0  0  0  0  0  0  0  0  0  0  0  0
  191.9880  175.3100  143.9730 C   0  0  0  0  0  2  0  0  0  0  0  0
  189.8200  176.4400  143.9510 N   0  0  0  0  0  0  0  0  0  0  0  0
  190.5460  175.2630  143.4660 C   0  0  0  0  0  2  0  0  0  0  0  0
  191.5590  176.7670  145.6380 C   0  0  0  0  0  2  0  0  0  0  0  0
  184.4610  179.9070  143.1810 C   0  0  0  0  0  2  0  0  0  0  0  0
  183.4760  179.9110  144.3430 C   0  0  0  0  0  2  0  0  0  0  0  0
  183.9940  179.0990  145.4290 N   0  0  0  0  0  2  0  0  0  0  0  0
  185.3800  179.4940  145.6080 C   0  0  0  0  0  2  0  0  0  0  0  0
  184.8600  178.3490  147.6210 O   0  0  0  0  0  1  0  0  0  0  0  0
  185.9010  178.9710  146.9320 C   0  0  1  0  0  3  0  0  0  0  0  0
  187.5940  177.6120  147.9200 O   0  0  0  0  0  1  0  0  0  0  0  0
  187.0250  177.9750  146.6990 C   0  0  0  0  0  2  0  0  0  0  0  0
  3  5  1  0  0  0  0
  4  7  2  0  0  0  0
  5  2  1  0  0  0  0
  5 12  2  0  0  0  0
  6  4  1  0  0  0  0
  7 12  1  0  0  0  0
  7 36  1  0  0  0  0
  8  9  1  1  0  0  0
  8 10  1  0  0  0  0
  9  3  1  0  0  0  0
 10  1  1  6  0  0  0
 10  2  1  0  0  0  0
 10 39  1  0  0  0  0
 11  3  2  0  0  0  0
 11  4  1  0  0  0  0
 13 21  2  0  0  0  0
 13 14  1  0  0  0  0
 14 23  1  0  0  0  0
 16 22  1  0  0  0  0
 17 28  1  1  0  0  0
 17 16  1  0  0  0  0
 17 21  1  0  0  0  0
 18 15  1  6  0  0  0
 18  8  1  0  0  0  0
 19 18  1  0  0  0  0
 21 19  1  0  0  0  0
 22 19  2  0  0  0  0
 23 20  1  0  0  0  0
 23 15  2  0  0  0  0
 24 27  2  0  0  0  0
 26 28  2  0  0  0  0
 27 25  1  0  0  0  0
 27 29  1  0  0  0  0
 28 25  1  0  0  0  0
 31 32  1  0  0  0  0
 32 29  1  0  0  0  0
 32 30  1  0  0  0  0
 33 38  1  0  0  0  0
 34 38  1  0  0  0  0
 35 34  1  0  0  0  0
 36 33  1  0  0  0  0
 37 36  1  0  0  0  0
 37 35  1  0  0  0  0
 39 40  1  0  0  0  0
 40 41  1  0  0  0  0
 41 42  1  0  0  0  0
 42 44  1  0  0  0  0
 44 43  1  6  0  0  0
 46 44  1  0  0  0  0
 46 45  1  0  0  0  0
M  END
>  <MODEL>
3

>  <REMARK>
 VINA RESULT:      -6.7      1.294      2.006
  Name = 
  11 active torsions:
  status: ('A' for Active; 'I' for Inactive)
    1  A    between atoms: C_4  and  C_34
    2  A    between atoms: C_4  and  C_42
    3  A    between atoms: N_6  and  C_42
    4  A    between atoms: N_6  and  C_44
    5  A    between atoms: N_18  and  C_22
    6  A    between atoms: C_23  and  C_40
    7  A    between atoms: C_24  and  C_46
    8  A    between atoms: C_25  and  C_33
    9  A    between atoms: C_25  and  C_44
   10  A    between atoms: C_27  and  C_29
   11  A    between atoms: C_37  and  C_46
                            x       y       z     vdW  Elec       q    Type
                         _______ _______ _______ _____ _____    ______ ____

>  <TORSDO>
F 11

$$$$
=
 OpenBabel11032420033D

 46 50  0  0  1  0  0  0  0  0999 V2000
  180.2770  178.3330  137.9980 C   0  0  0  0  0  1  0  0  0  0  0  0
  181.9650  178.2960  139.8300 C   0  0  0  0  0  2  0  0  0  0  0  0
  184.4030  178.5440  139.2340 C   0  0  0  0  0  0  0  0  0  0  0  0
  186.0980  178.7170  140.9650 C   0  0  0  0  0  0  0  0  0  0  0  0
  183.4030  178.4780  140.2170 C   0  0  0  0  0  0  0  0  0  0  0  0
  187.5520  178.7600  141.2840 C   0  0  0  0  0  1  0  0  0  0  0  0
  185.0930  178.6640  141.9660 C   0  0  0  0  0  0  0  0  0  0  0  0
  182.7380  178.2180  137.4250 C   0  0  2  0  0  3  0  0  0  0  0  0
  184.0650  178.5120  137.8760 O   0  0  0  0  0  0  0  0  0  0  0  0
  181.6740  178.7860  138.4010 C   0  0  1  0  0  0  0  0  0  0  0  0
  185.7390  178.6590  139.6130 C   0  0  0  0  0  3  0  0  0  0  0  0
  183.7530  178.5280  141.5660 C   0  0  0  0  0  3  0  0  0  0  0  0
  182.9950  173.7580  136.4010 N   0  0  0  0  0  0  0  0  0  0  0  0
  182.2630  173.7840  137.6600 C   0  0  0  0  0  2  0  0  0  0  0  0
  181.3300  176.0720  137.4760 C   0  0  0  0  0  3  0  0  0  0  0  0
  185.2470  176.0620  134.7620 N   0  0  0  0  0  2  0  0  0  0  0  0
  184.5790  174.7450  134.7810 C   0  0  2  0  0  3  0  0  0  0  0  0
  182.6060  176.7420  137.1230 C   0  0  1  0  0  3  0  0  0  0  0  0
  183.5680  176.1390  136.4020 C   0  0  0  0  0  0  0  0  0  0  0  0
  179.7700  174.2810  137.9650 C   0  0  0  0  0  1  0  0  0  0  0  0
  183.5770  174.7980  135.8840 C   0  0  0  0  0  0  0  0  0  0  0  0
  184.6040  176.8410  135.7440 N   0  0  0  0  0  0  0  0  0  0  0  0
  181.1370  174.7610  137.6340 C   0  0  0  0  0  0  0  0  0  0  0  0
  187.5140  171.7440  136.0440 O   0  0  0  0  0  0  0  0  0  0  0  0
  186.7810  173.9510  135.7600 N   0  0  0  0  0  2  0  0  0  0  0  0
  185.3530  172.5030  134.5960 O   0  0  0  0  0  0  0  0  0  0  0  0
  187.7310  172.9740  136.1970 C   0  0  0  0  0  0  0  0  0  0  0  0
  185.5860  173.6660  135.0220 C   0  0  0  0  0  0  0  0  0  0  0  0
  188.9730  173.4190  136.8920 C   0  0  0  0  0  2  0  0  0  0  0  0
  190.1020  174.9520  135.2890 C   0  0  0  0  0  1  0  0  0  0  0  0
  190.0820  175.4780  137.7060 C   0  0  0  0  0  1  0  0  0  0  0  0
  189.2860  174.8690  136.5670 C   0  0  0  0  0  3  0  0  0  0  0  0
  186.4880  177.9470  143.9350 C   0  0  0  0  0  2  0  0  0  0  0  0
  185.5920  178.3790  146.1210 O   0  0  0  0  0  0  0  0  0  0  0  0
  184.3660  178.8170  145.5910 C   0  0  0  0  0  2  0  0  0  0  0  0
  185.3930  178.7450  143.3750 N   0  0  0  0  0  0  0  0  0  0  0  0
  184.6070  179.5780  144.2870 C   0  0  0  0  0  2  0  0  0  0  0  0
  186.0510  177.3550  145.2750 C   0  0  0  0  0  2  0  0  0  0  0  0
  181.7290  180.3190  138.3310 C   0  0  0  0  0  2  0  0  0  0  0  0
  180.6320  180.9860  139.1510 C   0  0  0  0  0  2  0  0  0  0  0  0
  180.0310  182.0620  138.3860 N   0  0  0  0  0  2  0  0  0  0  0  0
  181.1280  182.7830  137.7650 C   0  0  0  0  0  2  0  0  0  0  0  0
  181.6320  184.6110  136.3380 O   0  0  0  0  0  1  0  0  0  0  0  0
  180.5890  183.7910  136.7690 C   0  0  1  0  0  3  0  0  0  0  0  0
  180.9870  182.5460  134.7740 O   0  0  0  0  0  1  0  0  0  0  0  0
  179.9760  183.0760  135.5760 C   0  0  0  0  0  2  0  0  0  0  0  0
  2  5  1  0  0  0  0
  3 11  2  0  0  0  0
  3  5  1  0  0  0  0
  4  6  1  0  0  0  0
  4  7  2  0  0  0  0
  5 12  2  0  0  0  0
  7 36  1  0  0  0  0
  8  9  1  1  0  0  0
  8 10  1  0  0  0  0
  9  3  1  0  0  0  0
 10  1  1  6  0  0  0
 10  2  1  0  0  0  0
 11  4  1  0  0  0  0
 12  7  1  0  0  0  0
 13 14  1  0  0  0  0
 15 23  2  0  0  0  0
 16 17  1  0  0  0  0
 16 22  1  0  0  0  0
 17 28  1  1  0  0  0
 17 21  1  0  0  0  0
 18  8  1  0  0  0  0
 18 15  1  6  0  0  0
 19 18  1  0  0  0  0
 21 13  2  0  0  0  0
 21 19  1  0  0  0  0
 22 19  2  0  0  0  0
 23 14  1  0  0  0  0
 23 20  1  0  0  0  0
 24 27  2  0  0  0  0
 25 27  1  0  0  0  0
 26 28  2  0  0  0  0
 27 29  1  0  0  0  0
 28 25  1  0  0  0  0
 30 32  1  0  0  0  0
 32 29  1  0  0  0  0
 32 31  1  0  0  0  0
 33 38  1  0  0  0  0
 35 34  1  0  0  0  0
 36 33  1  0  0  0  0
 36 37  1  0  0  0  0
 37 35  1  0  0  0  0
 38 34  1  0  0  0  0
 39 10  1  0  0  0  0
 39 40  1  0  0  0  0
 41 40  1  0  0  0  0
 42 41  1  0  0  0  0
 44 43  1  6  0  0  0
 44 42  1  0  0  0  0
 45 46  1  0  0  0  0
 46 44  1  0  0  0  0
M  END
>  <MODEL>
4

>  <REMARK>
 VINA RESULT:      -6.0      3.385      5.895
  Name = 
  11 active torsions:
  status: ('A' for Active; 'I' for Inactive)
    1  A    between atoms: C_4  and  C_34
    2  A    between atoms: C_4  and  C_42
    3  A    between atoms: N_6  and  C_42
    4  A    between atoms: N_6  and  C_44
    5  A    between atoms: N_18  and  C_22
    6  A    between atoms: C_23  and  C_40
    7  A    between atoms: C_24  and  C_46
    8  A    between atoms: C_25  and  C_33
    9  A    between atoms: C_25  and  C_44
   10  A    between atoms: C_27  and  C_29
   11  A    between atoms: C_37  and  C_46
                            x       y       z     vdW  Elec       q    Type
                         _______ _______ _______ _____ _____    ______ ____

>  <TORSDO>
F 11

$$$$
=
 OpenBabel11032420033D

 46 50  0  0  1  0  0  0  0  0999 V2000
  188.9850  176.7570  141.1480 C   0  0  0  0  0  1  0  0  0  0  0  0
  190.4070  175.5350  139.5070 C   0  0  0  0  0  2  0  0  0  0  0  0
  191.2250  176.7670  137.4640 C   0  0  0  0  0  0  0  0  0  0  0  0
  192.7740  175.7190  135.9140 C   0  0  0  0  0  0  0  0  0  0  0  0
  191.2570  175.6200  138.2720 C   0  0  0  0  0  0  0  0  0  0  0  0
  193.4860  175.8140  134.6090 C   0  0  0  0  0  1  0  0  0  0  0  0
  192.8230  174.5600  136.7320 C   0  0  0  0  0  0  0  0  0  0  0  0
  189.5270  177.8320  138.9240 C   0  0  2  0  0  3  0  0  0  0  0  0
  190.4560  177.8760  137.8350 O   0  0  0  0  0  0  0  0  0  0  0  0
  190.0460  176.9220  140.0680 C   0  0  1  0  0  0  0  0  0  0  0  0
  191.9800  176.8070  136.2920 C   0  0  0  0  0  3  0  0  0  0  0  0
  192.0410  174.5290  137.9000 C   0  0  0  0  0  3  0  0  0  0  0  0
  185.1510  177.3990  137.6340 N   0  0  0  0  0  0  0  0  0  0  0  0
  185.9020  177.0990  136.4220 C   0  0  0  0  0  2  0  0  0  0  0  0
  188.0050  176.3420  137.4920 C   0  0  0  0  0  3  0  0  0  0  0  0
  185.9090  179.2060  140.6710 N   0  0  0  0  0  0  0  0  0  0  0  0
  184.9260  178.4740  139.8480 C   0  0  2  0  0  3  0  0  0  0  0  0
  188.1440  177.4940  138.4150 C   0  0  0  0  0  0  0  0  0  0  0  0
  187.0850  178.1330  138.9450 C   0  0  0  0  0  0  0  0  0  0  0  0
  187.0210  174.8730  135.8330 C   0  0  0  0  0  1  0  0  0  0  0  0
  185.6900  177.8720  138.7180 C   0  0  0  0  0  0  0  0  0  0  0  0
  187.1660  178.9660  140.0840 N   0  0  0  0  0  0  0  0  0  0  0  0
  186.9850  176.1030  136.6660 C   0  0  0  0  0  0  0  0  0  0  0  0
  181.6110  181.1840  138.9040 O   0  0  0  0  0  0  0  0  0  0  0  0
  182.4900  179.0970  139.5100 N   0  0  0  0  0  2  0  0  0  0  0  0
  184.2320  180.5000  138.8110 O   0  0  0  0  0  0  0  0  0  0  0  0
  181.4030  179.9860  139.2280 C   0  0  0  0  0  0  0  0  0  0  0  0
  183.8770  179.4160  139.3470 C   0  0  0  0  0  0  0  0  0  0  0  0
  180.0010  179.4970  139.3720 C   0  0  0  0  0  2  0  0  0  0  0  0
  179.4430  177.0720  139.3270 C   0  0  0  0  0  1  0  0  0  0  0  0
  179.0230  178.4050  141.3670 C   0  0  0  0  0  1  0  0  0  0  0  0
  179.9540  178.2150  140.1850 C   0  0  0  0  0  3  0  0  0  0  0  0
  193.1190  172.3680  135.5310 C   0  0  0  0  0  2  0  0  0  0  0  0
  194.8960  170.9400  136.2890 O   0  0  0  0  0  0  0  0  0  0  0  0
  195.1750  171.7780  137.3830 C   0  0  0  0  0  2  0  0  0  0  0  0
  193.6410  173.4160  136.4140 N   0  0  0  0  0  0  0  0  0  0  0  0
  194.9810  173.2400  136.9780 C   0  0  0  0  0  2  0  0  0  0  0  0
  193.5060  170.9970  136.0860 C   0  0  0  0  0  2  0  0  0  0  0  0
  191.2780  177.5920  140.6930 C   0  0  0  0  0  2  0  0  0  0  0  0
  191.3660  177.3760  142.1980 C   0  0  0  0  0  2  0  0  0  0  0  0
  191.8980  178.5660  142.8360 N   0  0  0  0  0  2  0  0  0  0  0  0
  191.5400  178.4710  144.2400 C   0  0  0  0  0  2  0  0  0  0  0  0
  191.6940  176.3460  145.2860 O   0  0  0  0  0  1  0  0  0  0  0  0
  190.8540  177.1470  144.5120 C   0  0  1  0  0  3  0  0  0  0  0  0
  188.5070  176.7260  144.5790 O   0  0  0  0  0  1  0  0  0  0  0  0
  189.5440  177.3750  145.2500 C   0  0  0  0  0  2  0  0  0  0  0  0
  2 10  1  0  0  0  0
  3  9  1  0  0  0  0
  3  5  1  0  0  0  0
  4 11  1  0  0  0  0
  4  7  2  0  0  0  0
  5  2  1  0  0  0  0
  6  4  1  0  0  0  0
  7 12  1  0  0  0  0
  8 18  1  6  0  0  0
  8 10  1  0  0  0  0
  9  8  1  0  0  0  0
 10 39  1  0  0  0  0
 10  1  1  1  0  0  0
 11  3  2  0  0  0  0
 12  5  2  0  0  0  0
 13 21  2  0  0  0  0
 14 23  1  0  0  0  0
 14 13  1  0  0  0  0
 15 18  1  0  0  0  0
 17 28  1  6  0  0  0
 17 16  1  0  0  0  0
 18 19  2  0  0  0  0
 19 22  1  0  0  0  0
 20 23  1  0  0  0  0
 21 19  1  0  0  0  0
 21 17  1  0  0  0  0
 22 16  2  0  0  0  0
 23 15  2  0  0  0  0
 24 27  2  0  0  0  0
 26 28  2  0  0  0  0
 27 29  1  0  0  0  0
 27 25  1  0  0  0  0
 28 25  1  0  0  0  0
 29 32  1  0  0  0  0
 30 32  1  0  0  0  0
 32 31  1  0  0  0  0
 33 38  1  0  0  0  0
 33 36  1  0  0  0  0
 34 35  1  0  0  0  0
 36  7  1  0  0  0  0
 36 37  1  0  0  0  0
 37 35  1  0  0  0  0
 38 34  1  0  0  0  0
 39 40  1  0  0  0  0
 40 41  1  0  0  0  0
 41 42  1  0  0  0  0
 42 44  1  0  0  0  0
 44 46  1  0  0  0  0
 44 43  1  1  0  0  0
 45 46  1  0  0  0  0
M  END
>  <MODEL>
5

>  <REMARK>
 VINA RESULT:      -5.8      2.892      7.401
  Name = 
  11 active torsions:
  status: ('A' for Active; 'I' for Inactive)
    1  A    between atoms: C_4  and  C_34
    2  A    between atoms: C_4  and  C_42
    3  A    between atoms: N_6  and  C_42
    4  A    between atoms: N_6  and  C_44
    5  A    between atoms: N_18  and  C_22
    6  A    between atoms: C_23  and  C_40
    7  A    between atoms: C_24  and  C_46
    8  A    between atoms: C_25  and  C_33
    9  A    between atoms: C_25  and  C_44
   10  A    between atoms: C_27  and  C_29
   11  A    between atoms: C_37  and  C_46
                            x       y       z     vdW  Elec       q    Type
                         _______ _______ _______ _____ _____    ______ ____

>  <TORSDO>
F 11

$$$$
=
 OpenBabel11032420033D

 46 50  0  0  1  0  0  0  0  0999 V2000
  187.2530  177.5670  140.6260 C   0  0  0  0  0  1  0  0  0  0  0  0
  188.9150  176.2460  139.3210 C   0  0  0  0  0  2  0  0  0  0  0  0
  189.7140  177.1560  137.1090 C   0  0  0  0  0  0  0  0  0  0  0  0
  191.4740  176.0380  135.8640 C   0  0  0  0  0  0  0  0  0  0  0  0
  189.8270  176.2010  138.1300 C   0  0  0  0  0  0  0  0  0  0  0  0
  192.2530  175.9710  134.5960 C   0  0  0  0  0  1  0  0  0  0  0  0
  191.6050  175.0750  136.8970 C   0  0  0  0  0  0  0  0  0  0  0  0
  187.8090  178.2550  138.2570 C   0  0  2  0  0  3  0  0  0  0  0  0
  188.7950  178.2070  137.2190 O   0  0  0  0  0  0  0  0  0  0  0  0
  188.3560  177.6560  139.5790 C   0  0  1  0  0  0  0  0  0  0  0  0
  190.5330  177.0670  135.9840 C   0  0  0  0  0  3  0  0  0  0  0  0
  190.7580  175.1680  138.0150 C   0  0  0  0  0  3  0  0  0  0  0  0
  183.6220  177.0330  136.8520 N   0  0  0  0  0  0  0  0  0  0  0  0
  184.5020  176.5110  135.8150 C   0  0  0  0  0  2  0  0  0  0  0  0
  186.5570  176.2890  137.1810 C   0  0  0  0  0  3  0  0  0  0  0  0
  183.9430  179.6390  139.3360 N   0  0  0  0  0  0  0  0  0  0  0  0
  183.1050  178.6170  138.6770 C   0  0  2  0  0  3  0  0  0  0  0  0
  186.5120  177.6500  137.7690 C   0  0  0  0  0  0  0  0  0  0  0  0
  185.3580  178.2870  138.0390 C   0  0  0  0  0  0  0  0  0  0  0  0
  185.8580  174.3420  135.9170 C   0  0  0  0  0  1  0  0  0  0  0  0
  184.0170  177.8270  137.8010 C   0  0  0  0  0  0  0  0  0  0  0  0
  185.2640  179.3910  138.9170 N   0  0  0  0  0  0  0  0  0  0  0  0
  185.6410  175.7350  136.3850 C   0  0  0  0  0  0  0  0  0  0  0  0
  180.3440  180.9620  136.2080 O   0  0  0  0  0  0  0  0  0  0  0  0
  181.7480  180.6700  138.0620 N   0  0  0  0  0  2  0  0  0  0  0  0
  181.3990  178.6010  137.0180 O   0  0  0  0  0  0  0  0  0  0  0  0
  180.8670  181.4490  137.2450 C   0  0  0  0  0  0  0  0  0  0  0  0
  182.0290  179.2770  137.8760 C   0  0  0  0  0  0  0  0  0  0  0  0
  180.6070  182.8740  137.5990 C   0  0  0  0  0  2  0  0  0  0  0  0
  181.9330  184.9780  137.6800 C   0  0  0  0  0  1  0  0  0  0  0  0
  180.7730  184.3210  135.5980 C   0  0  0  0  0  1  0  0  0  0  0  0
  181.5160  183.8030  136.8140 C   0  0  0  0  0  3  0  0  0  0  0  0
  193.8510  174.1430  137.5510 C   0  0  0  0  0  2  0  0  0  0  0  0
  194.6810  172.2920  136.2660 O   0  0  0  0  0  0  0  0  0  0  0  0
  193.6210  172.3860  135.3470 C   0  0  0  0  0  2  0  0  0  0  0  0
  192.5720  174.0050  136.8470 N   0  0  0  0  0  0  0  0  0  0  0  0
  192.3370  172.7830  136.0760 C   0  0  0  0  0  2  0  0  0  0  0  0
  194.9780  173.6060  136.6690 C   0  0  0  0  0  2  0  0  0  0  0  0
  189.4560  178.5870  140.1080 C   0  0  0  0  0  2  0  0  0  0  0  0
  190.3780  177.9020  141.1080 C   0  0  0  0  0  2  0  0  0  0  0  0
  190.0520  178.3350  142.4540 N   0  0  0  0  0  2  0  0  0  0  0  0
  189.9200  177.1270  143.2500 C   0  0  0  0  0  2  0  0  0  0  0  0
  188.6830  176.7900  145.2470 O   0  0  0  0  0  1  0  0  0  0  0  0
  189.7690  177.4850  144.7150 C   0  0  1  0  0  3  0  0  0  0  0  0
  191.6860  176.0720  144.8340 O   0  0  0  0  0  1  0  0  0  0  0  0
  191.0310  177.1210  145.4790 C   0  0  0  0  0  2  0  0  0  0  0  0
  2 10  1  0  0  0  0
  3  9  1  0  0  0  0
  3  5  1  0  0  0  0
  4 11  1  0  0  0  0
  4  7  2  0  0  0  0
  5  2  1  0  0  0  0
  6  4  1  0  0  0  0
  7 12  1  0  0  0  0
  8 18  1  6  0  0  0
  8 10  1  0  0  0  0
  9  8  1  0  0  0  0
 10 39  1  0  0  0  0
 10  1  1  1  0  0  0
 11  3  2  0  0  0  0
 12  5  2  0  0  0  0
 13 21  2  0  0  0  0
 14 23  1  0  0  0  0
 14 13  1  0  0  0  0
 15 18  1  0  0  0  0
 17 28  1  6  0  0  0
 17 16  1  0  0  0  0
 18 19  2  0  0  0  0
 19 22  1  0  0  0  0
 20 23  1  0  0  0  0
 21 19  1  0  0  0  0
 21 17  1  0  0  0  0
 22 16  2  0  0  0  0
 23 15  2  0  0  0  0
 24 27  2  0  0  0  0
 26 28  2  0  0  0  0
 27 29  1  0  0  0  0
 27 25  1  0  0  0  0
 28 25  1  0  0  0  0
 31 32  1  0  0  0  0
 32 29  1  0  0  0  0
 32 30  1  0  0  0  0
 34 38  1  0  0  0  0
 35 37  1  0  0  0  0
 35 34  1  0  0  0  0
 36  7  1  0  0  0  0
 36 33  1  0  0  0  0
 37 36  1  0  0  0  0
 38 33  1  0  0  0  0
 39 40  1  0  0  0  0
 40 41  1  0  0  0  0
 41 42  1  0  0  0  0
 42 44  1  0  0  0  0
 44 43  1  1  0  0  0
 44 46  1  0  0  0  0
 45 46  1  0  0  0  0
M  END
>  <MODEL>
6

>  <REMARK>
 VINA RESULT:      -5.7      3.533      7.114
  Name = 
  11 active torsions:
  status: ('A' for Active; 'I' for Inactive)
    1  A    between atoms: C_4  and  C_34
    2  A    between atoms: C_4  and  C_42
    3  A    between atoms: N_6  and  C_42
    4  A    between atoms: N_6  and  C_44
    5  A    between atoms: N_18  and  C_22
    6  A    between atoms: C_23  and  C_40
    7  A    between atoms: C_24  and  C_46
    8  A    between atoms: C_25  and  C_33
    9  A    between atoms: C_25  and  C_44
   10  A    between atoms: C_27  and  C_29
   11  A    between atoms: C_37  and  C_46
                            x       y       z     vdW  Elec       q    Type
                         _______ _______ _______ _____ _____    ______ ____

>  <TORSDO>
F 11

$$$$
=
 OpenBabel11032420033D

 46 50  0  0  1  0  0  0  0  0999 V2000
  188.7080  178.7420  136.7570 C   0  0  0  0  0  1  0  0  0  0  0  0
  190.8110  177.4620  136.3760 C   0  0  0  0  0  2  0  0  0  0  0  0
  190.8850  175.0310  137.0430 C   0  0  0  0  0  0  0  0  0  0  0  0
  192.8200  173.6560  136.5310 C   0  0  0  0  0  0  0  0  0  0  0  0
  191.4890  176.1230  136.4030 C   0  0  0  0  0  0  0  0  0  0  0  0
  193.4970  172.3420  136.7120 C   0  0  0  0  0  1  0  0  0  0  0  0
  193.4340  174.7510  135.8700 C   0  0  0  0  0  0  0  0  0  0  0  0
  188.9480  176.4200  137.7300 C   0  0  2  0  0  3  0  0  0  0  0  0
  189.6080  175.1550  137.6050 O   0  0  0  0  0  0  0  0  0  0  0  0
  189.2840  177.3500  136.5350 C   0  0  1  0  0  0  0  0  0  0  0  0
  191.5540  173.8090  137.1060 C   0  0  0  0  0  3  0  0  0  0  0  0
  192.7550  175.9810  135.8330 C   0  0  0  0  0  3  0  0  0  0  0  0
  189.1000  178.1280  141.9800 N   0  0  0  0  0  0  0  0  0  0  0  0
  190.1800  177.1490  141.9590 C   0  0  0  0  0  2  0  0  0  0  0  0
  190.6250  177.1700  139.5220 C   0  0  0  0  0  3  0  0  0  0  0  0
  186.1060  178.6000  140.0110 N   0  0  0  0  0  0  0  0  0  0  0  0
  186.9480  179.0150  141.1510 C   0  0  2  0  0  3  0  0  0  0  0  0
  189.2140  177.0120  139.0960 C   0  0  0  0  0  0  0  0  0  0  0  0
  188.1820  177.5250  139.7910 C   0  0  0  0  0  0  0  0  0  0  0  0
  192.5260  177.4870  140.9940 C   0  0  0  0  0  1  0  0  0  0  0  0
  188.2260  178.2560  141.0280 C   0  0  0  0  0  0  0  0  0  0  0  0
  186.8920  177.7180  139.2450 N   0  0  0  0  0  0  0  0  0  0  0  0
  191.0670  177.3170  140.7730 C   0  0  0  0  0  0  0  0  0  0  0  0
  184.4720  177.9180  144.5980 O   0  0  0  0  0  0  0  0  0  0  0  0
  184.9290  179.1820  142.6780 N   0  0  0  0  0  2  0  0  0  0  0  0
  186.8450  177.9780  143.2900 O   0  0  0  0  0  0  0  0  0  0  0  0
  184.1050  178.8080  143.7880 C   0  0  0  0  0  0  0  0  0  0  0  0
  186.2570  178.6980  142.4390 C   0  0  0  0  0  0  0  0  0  0  0  0
  182.7680  179.4480  143.9550 C   0  0  0  0  0  2  0  0  0  0  0  0
  181.5640  178.8200  141.8700 C   0  0  0  0  0  1  0  0  0  0  0  0
  180.3500  178.9230  144.0220 C   0  0  0  0  0  1  0  0  0  0  0  0
  181.6720  178.5780  143.3650 C   0  0  0  0  0  3  0  0  0  0  0  0
  195.1800  173.3660  134.6980 C   0  0  0  0  0  2  0  0  0  0  0  0
  197.4020  174.2710  134.5960 O   0  0  0  0  0  0  0  0  0  0  0  0
  197.0610  175.3470  135.4330 C   0  0  0  0  0  2  0  0  0  0  0  0
  194.7260  174.6530  135.2340 N   0  0  0  0  0  0  0  0  0  0  0  0
  195.6310  175.8000  135.1370 C   0  0  0  0  0  2  0  0  0  0  0  0
  196.6560  173.1650  135.0400 C   0  0  0  0  0  2  0  0  0  0  0  0
  188.6490  176.7540  135.2700 C   0  0  0  0  0  2  0  0  0  0  0  0
  187.4950  175.8100  135.5780 C   0  0  0  0  0  2  0  0  0  0  0  0
  186.2320  176.4710  135.3070 N   0  0  0  0  0  2  0  0  0  0  0  0
  185.1910  175.5380  135.6990 C   0  0  0  0  0  2  0  0  0  0  0  0
  184.2040  176.8170  137.4380 O   0  0  0  0  0  1  0  0  0  0  0  0
  184.9270  175.6510  137.1880 C   0  0  1  0  0  3  0  0  0  0  0  0
  182.9070  174.3930  137.0190 O   0  0  0  0  0  1  0  0  0  0  0  0
  184.1370  174.4470  137.6750 C   0  0  0  0  0  2  0  0  0  0  0  0
  2  5  1  0  0  0  0
  2 10  1  0  0  0  0
  3 11  1  0  0  0  0
  3  9  1  0  0  0  0
  4  6  1  0  0  0  0
  4 11  2  0  0  0  0
  5  3  2  0  0  0  0
  7  4  1  0  0  0  0
  8 18  1  1  0  0  0
  9  8  1  0  0  0  0
 10  1  1  1  0  0  0
 10  8  1  0  0  0  0
 12  7  2  0  0  0  0
 12  5  1  0  0  0  0
 14 13  1  0  0  0  0
 15 23  2  0  0  0  0
 16 17  1  0  0  0  0
 17 28  1  1  0  0  0
 18 15  1  0  0  0  0
 18 19  2  0  0  0  0
 19 21  1  0  0  0  0
 21 17  1  0  0  0  0
 21 13  2  0  0  0  0
 22 19  1  0  0  0  0
 22 16  2  0  0  0  0
 23 20  1  0  0  0  0
 23 14  1  0  0  0  0
 25 27  1  0  0  0  0
 27 29  1  0  0  0  0
 27 24  2  0  0  0  0
 28 25  1  0  0  0  0
 28 26  2  0  0  0  0
 30 32  1  0  0  0  0
 32 29  1  0  0  0  0
 32 31  1  0  0  0  0
 33 38  1  0  0  0  0
 33 36  1  0  0  0  0
 34 38  1  0  0  0  0
 34 35  1  0  0  0  0
 36  7  1  0  0  0  0
 37 36  1  0  0  0  0
 37 35  1  0  0  0  0
 39 40  1  0  0  0  0
 39 10  1  0  0  0  0
 41 40  1  0  0  0  0
 41 42  1  0  0  0  0
 42 44  1  0  0  0  0
 44 43  1  6  0  0  0
 44 46  1  0  0  0  0
 45 46  1  0  0  0  0
M  END
>  <MODEL>
7

>  <REMARK>
 VINA RESULT:      -5.6      3.023      9.030
  Name = 
  11 active torsions:
  status: ('A' for Active; 'I' for Inactive)
    1  A    between atoms: C_4  and  C_34
    2  A    between atoms: C_4  and  C_42
    3  A    between atoms: N_6  and  C_42
    4  A    between atoms: N_6  and  C_44
    5  A    between atoms: N_18  and  C_22
    6  A    between atoms: C_23  and  C_40
    7  A    between atoms: C_24  and  C_46
    8  A    between atoms: C_25  and  C_33
    9  A    between atoms: C_25  and  C_44
   10  A    between atoms: C_27  and  C_29
   11  A    between atoms: C_37  and  C_46
                            x       y       z     vdW  Elec       q    Type
                         _______ _______ _______ _____ _____    ______ ____

>  <TORSDO>
F 11

$$$$
=
 OpenBabel11032420033D

 46 50  0  0  1  0  0  0  0  0999 V2000
  186.5590  176.1870  135.7770 C   0  0  0  0  0  1  0  0  0  0  0  0
  187.7710  176.3680  137.9470 C   0  0  0  0  0  2  0  0  0  0  0  0
  190.2050  177.0300  137.9200 C   0  0  0  0  0  0  0  0  0  0  0  0
  191.4120  177.4230  139.9910 C   0  0  0  0  0  0  0  0  0  0  0  0
  189.0340  176.7710  138.6500 C   0  0  0  0  0  0  0  0  0  0  0  0
  192.7280  177.6940  140.6330 C   0  0  0  0  0  1  0  0  0  0  0  0
  190.2310  177.1750  140.7370 C   0  0  0  0  0  0  0  0  0  0  0  0
  189.0690  176.4940  135.7810 C   0  0  2  0  0  3  0  0  0  0  0  0
  190.1920  176.9870  136.5210 O   0  0  0  0  0  0  0  0  0  0  0  0
  187.7340  176.8490  136.4850 C   0  0  1  0  0  0  0  0  0  0  0  0
  191.3830  177.3510  138.5930 C   0  0  0  0  0  3  0  0  0  0  0  0
  189.0570  176.8340  140.0430 C   0  0  0  0  0  3  0  0  0  0  0  0
  190.2440  172.1180  135.0960 N   0  0  0  0  0  0  0  0  0  0  0  0
  188.9450  172.0310  135.7510 C   0  0  0  0  0  2  0  0  0  0  0  0
  188.0610  174.2430  135.0710 C   0  0  0  0  0  3  0  0  0  0  0  0
  192.8060  174.6620  134.9340 N   0  0  0  0  0  2  0  0  0  0  0  0
  192.3570  173.2960  134.5950 C   0  0  2  0  0  3  0  0  0  0  0  0
  189.2560  175.0270  135.4670 C   0  0  1  0  0  3  0  0  0  0  0  0
  190.5060  174.5340  135.3920 C   0  0  0  0  0  0  0  0  0  0  0  0
  186.6550  172.3140  134.6430 C   0  0  0  0  0  1  0  0  0  0  0  0
  190.9160  173.2220  134.9720 C   0  0  0  0  0  0  0  0  0  0  0  0
  191.6650  175.3440  135.4010 N   0  0  0  0  0  0  0  0  0  0  0  0
  187.9320  172.9160  135.1080 C   0  0  0  0  0  0  0  0  0  0  0  0
  194.5330  170.6190  137.2990 O   0  0  0  0  0  0  0  0  0  0  0  0
  194.0680  172.7230  136.3790 N   0  0  0  0  0  2  0  0  0  0  0  0
  193.0120  171.0660  135.1010 O   0  0  0  0  0  0  0  0  0  0  0  0
  194.7630  171.8560  137.2820 C   0  0  0  0  0  0  0  0  0  0  0  0
  193.1630  172.2910  135.3540 C   0  0  0  0  0  0  0  0  0  0  0  0
  195.7350  172.4370  138.2520 C   0  0  0  0  0  2  0  0  0  0  0  0
  197.1310  174.3300  137.4410 C   0  0  0  0  0  1  0  0  0  0  0  0
  195.7400  174.5920  139.4690 C   0  0  0  0  0  1  0  0  0  0  0  0
  195.8180  173.9450  138.1000 C   0  0  0  0  0  3  0  0  0  0  0  0
  190.1560  178.5700  142.8310 C   0  0  0  0  0  2  0  0  0  0  0  0
  190.7410  177.4800  144.8890 O   0  0  0  0  0  0  0  0  0  0  0  0
  191.1300  176.3070  144.2200 C   0  0  0  0  0  2  0  0  0  0  0  0
  190.1870  177.2590  142.1760 N   0  0  0  0  0  0  0  0  0  0  0  0
  190.2100  176.0640  143.0230 C   0  0  0  0  0  2  0  0  0  0  0  0
  191.0820  178.5530  144.0470 C   0  0  0  0  0  2  0  0  0  0  0  0
  187.5470  178.3720  136.4200 C   0  0  0  0  0  2  0  0  0  0  0  0
  186.1000  178.7980  136.6310 C   0  0  0  0  0  2  0  0  0  0  0  0
  185.8250  178.9220  138.0500 N   0  0  0  0  0  2  0  0  0  0  0  0
  184.5700  178.2300  138.2840 C   0  0  0  0  0  2  0  0  0  0  0  0
  184.1590  180.4180  139.1060 O   0  0  0  0  0  1  0  0  0  0  0  0
  183.6010  179.1430  139.0080 C   0  0  1  0  0  3  0  0  0  0  0  0
  181.6670  180.4450  138.5040 O   0  0  0  0  0  1  0  0  0  0  0  0
  182.2840  179.2190  138.2530 C   0  0  0  0  0  2  0  0  0  0  0  0
  2  5  1  0  0  0  0
  3 11  2  0  0  0  0
  3  5  1  0  0  0  0
  4  6  1  0  0  0  0
  4  7  2  0  0  0  0
  5 12  2  0  0  0  0
  7 36  1  0  0  0  0
  8 10  1  0  0  0  0
  8  9  1  1  0  0  0
  9  3  1  0  0  0  0
 10  1  1  6  0  0  0
 10  2  1  0  0  0  0
 11  4  1  0  0  0  0
 12  7  1  0  0  0  0
 13 14  1  0  0  0  0
 15 23  2  0  0  0  0
 16 22  1  0  0  0  0
 17 16  1  0  0  0  0
 17 21  1  0  0  0  0
 17 28  1  1  0  0  0
 18 15  1  6  0  0  0
 18  8  1  0  0  0  0
 19 22  2  0  0  0  0
 19 18  1  0  0  0  0
 20 23  1  0  0  0  0
 21 13  2  0  0  0  0
 21 19  1  0  0  0  0
 23 14  1  0  0  0  0
 25 27  1  0  0  0  0
 26 28  2  0  0  0  0
 27 24  2  0  0  0  0
 27 29  1  0  0  0  0
 28 25  1  0  0  0  0
 30 32  1  0  0  0  0
 32 29  1  0  0  0  0
 32 31  1  0  0  0  0
 33 38  1  0  0  0  0
 35 34  1  0  0  0  0
 36 33  1  0  0  0  0
 36 37  1  0  0  0  0
 37 35  1  0  0  0  0
 38 34  1  0  0  0  0
 39 10  1  0  0  0  0
 39 40  1  0  0  0  0
 40 41  1  0  0  0  0
 41 42  1  0  0  0  0
 42 44  1  0  0  0  0
 44 43  1  6  0  0  0
 46 45  1  0  0  0  0
 46 44  1  0  0  0  0
M  END
>  <MODEL>
8

>  <REMARK>
 VINA RESULT:      -5.5      3.247      6.585
  Name = 
  11 active torsions:
  status: ('A' for Active; 'I' for Inactive)
    1  A    between atoms: C_4  and  C_34
    2  A    between atoms: C_4  and  C_42
    3  A    between atoms: N_6  and  C_42
    4  A    between atoms: N_6  and  C_44
    5  A    between atoms: N_18  and  C_22
    6  A    between atoms: C_23  and  C_40
    7  A    between atoms: C_24  and  C_46
    8  A    between atoms: C_25  and  C_33
    9  A    between atoms: C_25  and  C_44
   10  A    between atoms: C_27  and  C_29
   11  A    between atoms: C_37  and  C_46
                            x       y       z     vdW  Elec       q    Type
                         _______ _______ _______ _____ _____    ______ ____

>  <TORSDO>
F 11

$$$$
=
 OpenBabel11032420033D

 46 50  0  0  1  0  0  0  0  0999 V2000
  186.3700  179.0100  141.1600 C   0  0  0  0  0  1  0  0  0  0  0  0
  184.4990  179.7510  139.6910 C   0  0  0  0  0  2  0  0  0  0  0  0
  183.3800  178.0460  138.2080 C   0  0  0  0  0  0  0  0  0  0  0  0
  181.4240  178.6320  136.8910 C   0  0  0  0  0  0  0  0  0  0  0  0
  183.4100  179.3430  138.7420 C   0  0  0  0  0  0  0  0  0  0  0  0
  180.4540  178.2050  135.8450 C   0  0  0  0  0  1  0  0  0  0  0  0
  181.4390  179.9420  137.4370 C   0  0  0  0  0  0  0  0  0  0  0  0
  185.4620  177.4310  139.4070 C   0  0  2  0  0  3  0  0  0  0  0  0
  184.3240  177.0920  138.6060 O   0  0  0  0  0  0  0  0  0  0  0  0
  185.1190  178.5480  140.4260 C   0  0  1  0  0  0  0  0  0  0  0  0
  182.3920  177.7010  137.2860 C   0  0  0  0  0  3  0  0  0  0  0  0
  182.4530  180.2790  138.3490 C   0  0  0  0  0  3  0  0  0  0  0  0
  189.4150  177.8930  137.1360 N   0  0  0  0  0  0  0  0  0  0  0  0
  188.4530  177.5570  136.0950 C   0  0  0  0  0  2  0  0  0  0  0  0
  186.4110  178.3890  137.2230 C   0  0  0  0  0  3  0  0  0  0  0  0
  189.5010  177.4190  140.7180 N   0  0  0  0  0  0  0  0  0  0  0  0
  190.1770  177.8730  139.4860 C   0  0  2  0  0  3  0  0  0  0  0  0
  186.6540  177.7160  138.5220 C   0  0  0  0  0  0  0  0  0  0  0  0
  187.8890  177.5070  139.0120 C   0  0  0  0  0  0  0  0  0  0  0  0
  186.8120  179.1610  134.9600 C   0  0  0  0  0  1  0  0  0  0  0  0
  189.1500  177.8410  138.4070 C   0  0  0  0  0  0  0  0  0  0  0  0
  188.1510  177.2180  140.3710 N   0  0  0  0  0  0  0  0  0  0  0  0
  187.2280  178.4040  136.1680 C   0  0  0  0  0  0  0  0  0  0  0  0
  193.4010  175.3040  137.9940 O   0  0  0  0  0  0  0  0  0  0  0  0
  191.1440  175.8860  138.2400 N   0  0  0  0  0  2  0  0  0  0  0  0
  192.4430  177.1800  139.7000 O   0  0  0  0  0  0  0  0  0  0  0  0
  192.1950  175.0590  137.7290 C   0  0  0  0  0  0  0  0  0  0  0  0
  191.3210  176.9640  139.1680 C   0  0  0  0  0  0  0  0  0  0  0  0
  191.8580  173.9210  136.8260 C   0  0  0  0  0  2  0  0  0  0  0  0
  189.4310  173.3700  136.8560 C   0  0  0  0  0  1  0  0  0  0  0  0
  190.6080  173.6780  134.7030 C   0  0  0  0  0  1  0  0  0  0  0  0
  190.5220  174.1490  136.1410 C   0  0  0  0  0  3  0  0  0  0  0  0
  180.6190  181.7350  135.8720 C   0  0  0  0  0  2  0  0  0  0  0  0
  178.9720  183.2600  136.7270 O   0  0  0  0  0  0  0  0  0  0  0  0
  179.0770  182.7290  138.0250 C   0  0  0  0  0  2  0  0  0  0  0  0
  180.4560  180.9400  137.0920 N   0  0  0  0  0  0  0  0  0  0  0  0
  179.3020  181.2190  137.9500 C   0  0  0  0  0  2  0  0  0  0  0  0
  180.2580  183.1910  136.1620 C   0  0  0  0  0  2  0  0  0  0  0  0
  184.1340  177.9750  141.4540 C   0  0  0  0  0  2  0  0  0  0  0  0
  183.8200  178.9520  142.5790 C   0  0  0  0  0  2  0  0  0  0  0  0
  184.1410  178.3490  143.8590 N   0  0  0  0  0  2  0  0  0  0  0  0
  184.4670  179.4440  144.7550 C   0  0  0  0  0  2  0  0  0  0  0  0
  184.8950  178.5380  146.9070 O   0  0  0  0  0  1  0  0  0  0  0  0
  185.5220  179.0020  145.7510 C   0  0  1  0  0  3  0  0  0  0  0  0
  186.9260  177.1230  146.1780 O   0  0  0  0  0  1  0  0  0  0  0  0
  186.3780  177.8970  145.1550 C   0  0  0  0  0  2  0  0  0  0  0  0
  2 10  1  0  0  0  0
  3  9  1  0  0  0  0
  3  5  1  0  0  0  0
  4 11  1  0  0  0  0
  4  7  2  0  0  0  0
  5  2  1  0  0  0  0
  6  4  1  0  0  0  0
  7 12  1  0  0  0  0
  8 18  1  6  0  0  0
  8 10  1  0  0  0  0
  9  8  1  0  0  0  0
 10  1  1  1  0  0  0
 10 39  1  0  0  0  0
 11  3  2  0  0  0  0
 12  5  2  0  0  0  0
 13 21  2  0  0  0  0
 14 23  1  0  0  0  0
 14 13  1  0  0  0  0
 15 18  1  0  0  0  0
 17 28  1  6  0  0  0
 17 16  1  0  0  0  0
 18 19  2  0  0  0  0
 19 22  1  0  0  0  0
 20 23  1  0  0  0  0
 21 19  1  0  0  0  0
 21 17  1  0  0  0  0
 22 16  2  0  0  0  0
 23 15  2  0  0  0  0
 25 28  1  0  0  0  0
 27 24  2  0  0  0  0
 27 25  1  0  0  0  0
 28 26  2  0  0  0  0
 29 27  1  0  0  0  0
 31 32  1  0  0  0  0
 32 29  1  0  0  0  0
 32 30  1  0  0  0  0
 33 38  1  0  0  0  0
 33 36  1  0  0  0  0
 34 35  1  0  0  0  0
 36  7  1  0  0  0  0
 36 37  1  0  0  0  0
 37 35  1  0  0  0  0
 38 34  1  0  0  0  0
 39 40  1  0  0  0  0
 40 41  1  0  0  0  0
 41 42  1  0  0  0  0
 42 44  1  0  0  0  0
 44 43  1  1  0  0  0
 46 44  1  0  0  0  0
 46 45  1  0  0  0  0
M  END
>  <MODEL>
9

>  <REMARK>
 VINA RESULT:      -5.2      3.429      7.251
  Name = 
  11 active torsions:
  status: ('A' for Active; 'I' for Inactive)
    1  A    between atoms: C_4  and  C_34
    2  A    between atoms: C_4  and  C_42
    3  A    between atoms: N_6  and  C_42
    4  A    between atoms: N_6  and  C_44
    5  A    between atoms: N_18  and  C_22
    6  A    between atoms: C_23  and  C_40
    7  A    between atoms: C_24  and  C_46
    8  A    between atoms: C_25  and  C_33
    9  A    between atoms: C_25  and  C_44
   10  A    between atoms: C_27  and  C_29
   11  A    between atoms: C_37  and  C_46
                            x       y       z     vdW  Elec       q    Type
                         _______ _______ _______ _____ _____    ______ ____

>  <TORSDO>
F 11

$$$$
