=
 OpenBabel11042412273D

 26 29  0  0  0  0  0  0  0  0999 V2000
  185.1590  178.4840  145.6830 C   0  0  0  0  0  3  0  0  0  0  0  0
  189.0910  178.0950  139.6240 C   0  0  0  0  0  0  0  0  0  0  0  0
  191.4300  177.4280  139.6550 O   0  0  0  0  0  1  0  0  0  0  0  0
  186.4470  178.2760  143.6240 C   0  0  0  0  0  0  0  0  0  0  0  0
  188.7810  177.5050  143.7960 O   0  0  0  0  0  0  0  0  0  0  0  0
  187.9130  178.2280  141.7030 C   0  0  0  0  0  0  0  0  0  0  0  0
  190.1870  177.5020  141.7510 C   0  0  0  0  0  0  0  0  0  0  0  0
  189.1000  178.2220  138.1380 C   0  0  0  0  0  1  0  0  0  0  0  0
  186.1840  177.8810  146.4060 C   0  0  0  0  0  3  0  0  0  0  0  0
  188.9820  177.7570  142.4330 C   0  0  0  0  0  0  0  0  0  0  0  0
  185.2720  178.7000  144.3020 C   0  0  0  0  0  0  0  0  0  0  0  0
  187.5290  177.7570  144.4020 C   0  0  0  0  0  0  0  0  0  0  0  0
  190.2440  177.6820  140.3400 C   0  0  0  0  0  0  0  0  0  0  0  0
  191.3800  177.0140  142.5020 C   0  0  0  0  0  1  0  0  0  0  0  0
  185.9440  178.6280  141.0640 C   0  0  0  0  0  0  0  0  0  0  0  0
  186.6920  178.4320  142.1960 N   0  0  0  0  0  0  0  0  0  0  0  0
  187.3730  177.5270  145.7750 C   0  0  0  0  0  0  0  0  0  0  0  0
  186.6850  178.5970  139.9180 N   0  0  0  0  0  0  0  0  0  0  0  0
  184.4610  178.6360  140.9940 C   0  0  0  0  0  1  0  0  0  0  0  0
  187.9300  178.3520  140.3600 C   0  0  0  0  0  0  0  0  0  0  0  0
  188.4730  176.9190  146.5850 C   0  0  0  0  0  2  0  0  0  0  0  0
  188.2440  177.1330  148.0730 C   0  0  0  0  0  2  0  0  0  0  0  0
  189.1260  178.2530  148.5940 C   0  0  0  0  0  1  0  0  0  0  0  0
  184.2120  179.5360  143.6660 C   0  0  0  0  0  2  0  0  0  0  0  0
  181.8160  178.6280  144.2420 N   0  0  0  0  0  0  0  0  0  0  0  0
  182.8720  179.0280  143.9890 C   0  0  0  0  0  0  0  0  0  0  0  0
  1  9  1  0  0  0  0
  2 13  2  0  0  0  0
  2 20  1  0  0  0  0
  3 13  1  0  0  0  0
  4 11  1  0  0  0  0
  4 12  2  0  0  0  0
  5 12  1  0  0  0  0
  6 16  1  0  0  0  0
  6 10  1  0  0  0  0
  7 10  2  0  0  0  0
  7 14  1  0  0  0  0
  8  2  1  0  0  0  0
 10  5  1  0  0  0  0
 11  1  2  0  0  0  0
 12 17  1  0  0  0  0
 13  7  1  0  0  0  0
 15 16  1  0  0  0  0
 16  4  1  0  0  0  0
 17  9  2  0  0  0  0
 17 21  1  0  0  0  0
 18 20  1  0  0  0  0
 18 15  2  0  0  0  0
 19 15  1  0  0  0  0
 20  6  2  0  0  0  0
 21 22  1  0  0  0  0
 22 23  1  0  0  0  0
 24 26  1  0  0  0  0
 24 11  1  0  0  0  0
 26 25  3  0  0  0  0
M  END
>  <MODEL>
1

>  <REMARK>
 VINA RESULT:      -9.4      0.000      0.000
  Name = 
  4 active torsions:
  status: ('A' for Active; 'I' for Inactive)
    1  A    between atoms: C_3  and  C_12
    2  A    between atoms: C_8  and  C_25
    3  A    between atoms: C_12  and  C_22
    4  A    between atoms: C_16  and  C_25
                            x       y       z     vdW  Elec       q    Type
                         _______ _______ _______ _____ _____    ______ ____

>  <TORSDO>
F 4

$$$$
=
 OpenBabel11042412273D

 26 29  0  0  0  0  0  0  0  0999 V2000
  186.8380  177.7530  146.0460 C   0  0  0  0  0  3  0  0  0  0  0  0
  191.1480  177.3270  140.2520 C   0  0  0  0  0  0  0  0  0  0  0  0
  190.2730  177.4950  137.9880 O   0  0  0  0  0  1  0  0  0  0  0  0
  188.3140  177.6930  144.1060 C   0  0  0  0  0  0  0  0  0  0  0  0
  187.3010  177.9630  141.8760 O   0  0  0  0  0  0  0  0  0  0  0  0
  189.6110  177.4380  142.0830 C   0  0  0  0  0  0  0  0  0  0  0  0
  188.7370  177.6770  139.8730 C   0  0  0  0  0  0  0  0  0  0  0  0
  192.5470  177.2040  139.7490 C   0  0  0  0  0  1  0  0  0  0  0  0
  185.7670  178.1290  145.2410 C   0  0  0  0  0  3  0  0  0  0  0  0
  188.5280  177.6770  141.2660 C   0  0  0  0  0  0  0  0  0  0  0  0
  188.1100  177.5210  145.5020 C   0  0  0  0  0  0  0  0  0  0  0  0
  187.1770  177.9740  143.2840 C   0  0  0  0  0  0  0  0  0  0  0  0
  190.0540  177.4910  139.3630 C   0  0  0  0  0  0  0  0  0  0  0  0
  187.5910  177.9050  138.9460 C   0  0  0  0  0  1  0  0  0  0  0  0
  190.9110  177.4570  143.7420 C   0  0  0  0  0  0  0  0  0  0  0  0
  189.5800  177.4910  143.4140 N   0  0  0  0  0  0  0  0  0  0  0  0
  185.9270  178.2300  143.8620 C   0  0  0  0  0  0  0  0  0  0  0  0
  191.7300  177.3360  142.6580 N   0  0  0  0  0  0  0  0  0  0  0  0
  191.4830  177.7570  145.0800 C   0  0  0  0  0  1  0  0  0  0  0  0
  190.8730  177.3150  141.6220 C   0  0  0  0  0  0  0  0  0  0  0  0
  184.7480  178.5950  143.0180 C   0  0  0  0  0  2  0  0  0  0  0  0
  183.6930  179.3270  143.8330 C   0  0  0  0  0  2  0  0  0  0  0  0
  182.2990  178.9420  143.3710 C   0  0  0  0  0  1  0  0  0  0  0  0
  189.1300  176.9240  146.4150 C   0  0  0  0  0  2  0  0  0  0  0  0
  189.1420  178.1400  148.7430 N   0  0  0  0  0  0  0  0  0  0  0  0
  189.1370  177.6030  147.7170 C   0  0  0  0  0  0  0  0  0  0  0  0
  2 20  1  0  0  0  0
  3 13  1  0  0  0  0
  4 11  2  0  0  0  0
  5 12  1  0  0  0  0
  6 16  1  0  0  0  0
  7 10  2  0  0  0  0
  8  2  1  0  0  0  0
  9  1  2  0  0  0  0
 10  5  1  0  0  0  0
 10  6  1  0  0  0  0
 11  1  1  0  0  0  0
 11 24  1  0  0  0  0
 12 17  2  0  0  0  0
 12  4  1  0  0  0  0
 13  7  1  0  0  0  0
 13  2  2  0  0  0  0
 14  7  1  0  0  0  0
 15 19  1  0  0  0  0
 16 15  1  0  0  0  0
 16  4  1  0  0  0  0
 17  9  1  0  0  0  0
 18 15  2  0  0  0  0
 20  6  2  0  0  0  0
 20 18  1  0  0  0  0
 21 22  1  0  0  0  0
 21 17  1  0  0  0  0
 23 22  1  0  0  0  0
 24 26  1  0  0  0  0
 26 25  3  0  0  0  0
M  END
>  <MODEL>
2

>  <REMARK>
 VINA RESULT:      -9.3      2.241      4.683
  Name = 
  4 active torsions:
  status: ('A' for Active; 'I' for Inactive)
    1  A    between atoms: C_3  and  C_12
    2  A    between atoms: C_8  and  C_25
    3  A    between atoms: C_12  and  C_22
    4  A    between atoms: C_16  and  C_25
                            x       y       z     vdW  Elec       q    Type
                         _______ _______ _______ _____ _____    ______ ____

>  <TORSDO>
F 4

$$$$
=
 OpenBabel11042412273D

 26 29  0  0  0  0  0  0  0  0999 V2000
  188.8970  177.1340  147.1690 C   0  0  0  0  0  3  0  0  0  0  0  0
  188.3360  178.1910  140.0350 C   0  0  0  0  0  0  0  0  0  0  0  0
  186.1970  178.6530  138.9720 O   0  0  0  0  0  1  0  0  0  0  0  0
  188.7370  177.5720  144.7760 C   0  0  0  0  0  0  0  0  0  0  0  0
  186.5190  178.1130  143.8480 O   0  0  0  0  0  0  0  0  0  0  0  0
  188.3800  177.8150  142.3980 C   0  0  0  0  0  0  0  0  0  0  0  0
  186.2800  178.3360  141.3880 C   0  0  0  0  0  0  0  0  0  0  0  0
  189.0580  178.3100  138.7350 C   0  0  0  0  0  1  0  0  0  0  0  0
  187.5730  177.5250  147.3480 C   0  0  0  0  0  3  0  0  0  0  0  0
  187.0350  178.0720  142.5470 C   0  0  0  0  0  0  0  0  0  0  0  0
  189.4920  177.1390  145.8990 C   0  0  0  0  0  0  0  0  0  0  0  0
  187.3500  177.8660  144.9650 C   0  0  0  0  0  0  0  0  0  0  0  0
  186.9330  178.3870  140.1240 C   0  0  0  0  0  0  0  0  0  0  0  0
  184.8150  178.5970  141.4960 C   0  0  0  0  0  1  0  0  0  0  0  0
  190.4490  177.6860  142.7800 C   0  0  0  0  0  0  0  0  0  0  0  0
  189.2320  177.6330  143.4070 N   0  0  0  0  0  0  0  0  0  0  0  0
  186.7930  177.8810  146.2510 C   0  0  0  0  0  0  0  0  0  0  0  0
  190.3530  177.8450  141.4280 N   0  0  0  0  0  0  0  0  0  0  0  0
  191.7670  177.8100  143.4530 C   0  0  0  0  0  1  0  0  0  0  0  0
  189.0270  177.9120  141.2180 C   0  0  0  0  0  0  0  0  0  0  0  0
  185.3620  178.2560  146.4680 C   0  0  0  0  0  2  0  0  0  0  0  0
  184.9060  179.2960  145.4560 C   0  0  0  0  0  2  0  0  0  0  0  0
  183.4970  178.9960  144.9800 C   0  0  0  0  0  1  0  0  0  0  0  0
  190.8410  176.5070  145.7890 C   0  0  0  0  0  2  0  0  0  0  0  0
  192.1800  176.7390  148.0370 N   0  0  0  0  0  0  0  0  0  0  0  0
  191.5900  176.6370  147.0460 C   0  0  0  0  0  0  0  0  0  0  0  0
  1  9  1  0  0  0  0
  2 13  2  0  0  0  0
  2 20  1  0  0  0  0
  3 13  1  0  0  0  0
  4 12  2  0  0  0  0
  4 11  1  0  0  0  0
  5 12  1  0  0  0  0
  6 10  1  0  0  0  0
  6 16  1  0  0  0  0
  7 14  1  0  0  0  0
  7 10  2  0  0  0  0
  8  2  1  0  0  0  0
 10  5  1  0  0  0  0
 11  1  2  0  0  0  0
 12 17  1  0  0  0  0
 13  7  1  0  0  0  0
 15 16  1  0  0  0  0
 15 19  1  0  0  0  0
 16  4  1  0  0  0  0
 17 21  1  0  0  0  0
 17  9  2  0  0  0  0
 18 15  2  0  0  0  0
 20 18  1  0  0  0  0
 20  6  2  0  0  0  0
 22 21  1  0  0  0  0
 23 22  1  0  0  0  0
 24 11  1  0  0  0  0
 24 26  1  0  0  0  0
 26 25  3  0  0  0  0
M  END
>  <MODEL>
3

>  <REMARK>
 VINA RESULT:      -9.2      2.468      4.929
  Name = 
  4 active torsions:
  status: ('A' for Active; 'I' for Inactive)
    1  A    between atoms: C_3  and  C_12
    2  A    between atoms: C_8  and  C_25
    3  A    between atoms: C_12  and  C_22
    4  A    between atoms: C_16  and  C_25
                            x       y       z     vdW  Elec       q    Type
                         _______ _______ _______ _____ _____    ______ ____

>  <TORSDO>
F 4

$$$$
=
 OpenBabel11042412273D

 26 29  0  0  0  0  0  0  0  0999 V2000
  191.5470  176.6210  143.1570 C   0  0  0  0  0  3  0  0  0  0  0  0
  184.6500  178.7540  143.6190 C   0  0  0  0  0  0  0  0  0  0  0  0
  183.5060  178.9370  145.7580 O   0  0  0  0  0  1  0  0  0  0  0  0
  189.2490  177.4220  143.3030 C   0  0  0  0  0  0  0  0  0  0  0  0
  188.2440  177.6420  145.5420 O   0  0  0  0  0  0  0  0  0  0  0  0
  186.9190  177.9930  143.5980 C   0  0  0  0  0  0  0  0  0  0  0  0
  185.8390  178.2330  145.7150 C   0  0  0  0  0  0  0  0  0  0  0  0
  183.4480  179.2430  142.8830 C   0  0  0  0  0  1  0  0  0  0  0  0
  191.6780  176.6920  144.5410 C   0  0  0  0  0  3  0  0  0  0  0  0
  186.9990  177.9350  144.9720 C   0  0  0  0  0  0  0  0  0  0  0  0
  190.3460  176.9690  142.5220 C   0  0  0  0  0  0  0  0  0  0  0  0
  189.3700  177.3850  144.7280 C   0  0  0  0  0  0  0  0  0  0  0  0
  184.6560  178.6350  145.0330 C   0  0  0  0  0  0  0  0  0  0  0  0
  185.8690  178.1600  147.2050 C   0  0  0  0  0  1  0  0  0  0  0  0
  187.4410  178.2340  141.5700 C   0  0  0  0  0  0  0  0  0  0  0  0
  187.9520  177.8200  142.7730 N   0  0  0  0  0  0  0  0  0  0  0  0
  190.5930  177.0610  145.3310 C   0  0  0  0  0  0  0  0  0  0  0  0
  186.1280  178.6000  141.6390 N   0  0  0  0  0  0  0  0  0  0  0  0
  188.2290  178.5110  140.3420 C   0  0  0  0  0  1  0  0  0  0  0  0
  185.8250  178.4250  142.9370 C   0  0  0  0  0  0  0  0  0  0  0  0
  190.7510  177.0870  146.8180 C   0  0  0  0  0  2  0  0  0  0  0  0
  191.2280  175.7430  147.3440 C   0  0  0  0  0  2  0  0  0  0  0  0
  192.5630  175.8890  148.0490 C   0  0  0  0  0  1  0  0  0  0  0  0
  190.2460  176.6600  141.0650 C   0  0  0  0  0  2  0  0  0  0  0  0
  192.4440  177.3380  139.7980 N   0  0  0  0  0  0  0  0  0  0  0  0
  191.4750  177.0400  140.3570 C   0  0  0  0  0  0  0  0  0  0  0  0
  1  9  1  0  0  0  0
  2 13  1  0  0  0  0
  4 12  2  0  0  0  0
  6 10  2  0  0  0  0
  7 14  1  0  0  0  0
  8  2  1  0  0  0  0
  9 17  2  0  0  0  0
 10  5  1  0  0  0  0
 10  7  1  0  0  0  0
 11  1  2  0  0  0  0
 11  4  1  0  0  0  0
 12 17  1  0  0  0  0
 12  5  1  0  0  0  0
 13  7  2  0  0  0  0
 13  3  1  0  0  0  0
 15 18  2  0  0  0  0
 15 16  1  0  0  0  0
 16  4  1  0  0  0  0
 16  6  1  0  0  0  0
 17 21  1  0  0  0  0
 18 20  1  0  0  0  0
 19 15  1  0  0  0  0
 20  6  1  0  0  0  0
 20  2  2  0  0  0  0
 21 22  1  0  0  0  0
 22 23  1  0  0  0  0
 24 11  1  0  0  0  0
 25 26  3  0  0  0  0
 26 24  1  0  0  0  0
M  END
>  <MODEL>
4

>  <REMARK>
 VINA RESULT:      -9.0      2.264      5.689
  Name = 
  4 active torsions:
  status: ('A' for Active; 'I' for Inactive)
    1  A    between atoms: C_3  and  C_12
    2  A    between atoms: C_8  and  C_25
    3  A    between atoms: C_12  and  C_22
    4  A    between atoms: C_16  and  C_25
                            x       y       z     vdW  Elec       q    Type
                         _______ _______ _______ _____ _____    ______ ____

>  <TORSDO>
F 4

$$$$
=
 OpenBabel11042412273D

 26 29  0  0  0  0  0  0  0  0999 V2000
  191.3020  177.0050  143.6590 C   0  0  0  0  0  3  0  0  0  0  0  0
  184.3080  178.6350  142.8000 C   0  0  0  0  0  0  0  0  0  0  0  0
  182.8130  178.9080  144.7000 O   0  0  0  0  0  1  0  0  0  0  0  0
  188.9680  177.6380  143.3560 C   0  0  0  0  0  0  0  0  0  0  0  0
  187.5900  177.9660  145.3730 O   0  0  0  0  0  0  0  0  0  0  0  0
  186.5900  178.0510  143.2170 C   0  0  0  0  0  0  0  0  0  0  0  0
  185.1590  178.3830  145.1000 C   0  0  0  0  0  0  0  0  0  0  0  0
  183.2170  178.9680  141.8380 C   0  0  0  0  0  1  0  0  0  0  0  0
  191.1960  177.2000  145.0320 C   0  0  0  0  0  3  0  0  0  0  0  0
  186.4430  178.1140  144.5850 C   0  0  0  0  0  0  0  0  0  0  0  0
  190.2060  177.2060  142.8080 C   0  0  0  0  0  0  0  0  0  0  0  0
  188.8510  177.7280  144.7790 C   0  0  0  0  0  0  0  0  0  0  0  0
  184.0840  178.6360  144.2020 C   0  0  0  0  0  0  0  0  0  0  0  0
  184.9440  178.4370  146.5750 C   0  0  0  0  0  1  0  0  0  0  0  0
  187.4280  178.1610  141.2860 C   0  0  0  0  0  0  0  0  0  0  0  0
  187.7550  177.8900  142.5890 N   0  0  0  0  0  0  0  0  0  0  0  0
  189.9730  177.5500  145.5990 C   0  0  0  0  0  0  0  0  0  0  0  0
  186.1020  178.4300  141.1080 N   0  0  0  0  0  0  0  0  0  0  0  0
  188.3920  178.3940  140.1800 C   0  0  0  0  0  1  0  0  0  0  0  0
  185.5980  178.3410  142.3500 C   0  0  0  0  0  0  0  0  0  0  0  0
  189.8790  177.7120  147.0820 C   0  0  0  0  0  2  0  0  0  0  0  0
  188.7850  176.8300  147.6640 C   0  0  0  0  0  2  0  0  0  0  0  0
  187.9520  177.6040  148.6680 C   0  0  0  0  0  1  0  0  0  0  0  0
  190.3700  176.7700  141.3900 C   0  0  0  0  0  2  0  0  0  0  0  0
  192.6360  177.6390  140.3870 N   0  0  0  0  0  0  0  0  0  0  0  0
  191.6380  177.2560  140.8290 C   0  0  0  0  0  0  0  0  0  0  0  0
  1  9  1  0  0  0  0
  2 13  1  0  0  0  0
  4 12  2  0  0  0  0
  6 10  2  0  0  0  0
  7 14  1  0  0  0  0
  8  2  1  0  0  0  0
  9 17  2  0  0  0  0
 10  7  1  0  0  0  0
 10  5  1  0  0  0  0
 11  4  1  0  0  0  0
 11  1  2  0  0  0  0
 12  5  1  0  0  0  0
 12 17  1  0  0  0  0
 13  3  1  0  0  0  0
 13  7  2  0  0  0  0
 15 16  1  0  0  0  0
 16  6  1  0  0  0  0
 16  4  1  0  0  0  0
 17 21  1  0  0  0  0
 18 15  2  0  0  0  0
 18 20  1  0  0  0  0
 19 15  1  0  0  0  0
 20  2  2  0  0  0  0
 20  6  1  0  0  0  0
 21 22  1  0  0  0  0
 22 23  1  0  0  0  0
 24 11  1  0  0  0  0
 25 26  3  0  0  0  0
 26 24  1  0  0  0  0
M  END
>  <MODEL>
5

>  <REMARK>
 VINA RESULT:      -8.9      2.100      5.479
  Name = 
  4 active torsions:
  status: ('A' for Active; 'I' for Inactive)
    1  A    between atoms: C_3  and  C_12
    2  A    between atoms: C_8  and  C_25
    3  A    between atoms: C_12  and  C_22
    4  A    between atoms: C_16  and  C_25
                            x       y       z     vdW  Elec       q    Type
                         _______ _______ _______ _____ _____    ______ ____

>  <TORSDO>
F 4

$$$$
=
 OpenBabel11042412273D

 26 29  0  0  0  0  0  0  0  0999 V2000
  186.5370  178.5110  140.1220 C   0  0  0  0  0  3  0  0  0  0  0  0
  189.3420  177.1570  146.6500 C   0  0  0  0  0  0  0  0  0  0  0  0
  188.0650  177.5060  148.6910 O   0  0  0  0  0  1  0  0  0  0  0  0
  187.4670  177.9700  142.3090 C   0  0  0  0  0  0  0  0  0  0  0  0
  186.0300  178.2900  144.2850 O   0  0  0  0  0  0  0  0  0  0  0  0
  188.3150  177.6860  144.5550 C   0  0  0  0  0  0  0  0  0  0  0  0
  187.0170  177.9700  146.5390 C   0  0  0  0  0  0  0  0  0  0  0  0
  190.5140  176.6460  147.4180 C   0  0  0  0  0  1  0  0  0  0  0  0
  185.2790  178.7030  140.6840 C   0  0  0  0  0  3  0  0  0  0  0  0
  187.1060  178.0070  145.1340 C   0  0  0  0  0  0  0  0  0  0  0  0
  187.6410  178.1570  140.9110 C   0  0  0  0  0  0  0  0  0  0  0  0
  186.1920  178.2770  142.8810 C   0  0  0  0  0  0  0  0  0  0  0  0
  188.1440  177.5510  147.3020 C   0  0  0  0  0  0  0  0  0  0  0  0
  185.7370  178.3320  147.2150 C   0  0  0  0  0  1  0  0  0  0  0  0
  189.7560  177.0030  143.1780 C   0  0  0  0  0  0  0  0  0  0  0  0
  188.5230  177.5970  143.2410 N   0  0  0  0  0  0  0  0  0  0  0  0
  185.1030  178.5990  142.0610 C   0  0  0  0  0  0  0  0  0  0  0  0
  190.3110  176.7810  144.4040 N   0  0  0  0  0  0  0  0  0  0  0  0
  190.3760  176.4180  141.9610 C   0  0  0  0  0  1  0  0  0  0  0  0
  189.3760  177.2360  145.2550 C   0  0  0  0  0  0  0  0  0  0  0  0
  183.7480  178.8520  142.6420 C   0  0  0  0  0  2  0  0  0  0  0  0
  182.6550  178.6310  141.6080 C   0  0  0  0  0  2  0  0  0  0  0  0
  181.2930  178.9540  142.1930 C   0  0  0  0  0  1  0  0  0  0  0  0
  188.9760  178.1800  140.2440 C   0  0  0  0  0  2  0  0  0  0  0  0
  188.8020  179.1540  137.8110 N   0  0  0  0  0  0  0  0  0  0  0  0
  188.8800  178.7250  138.8840 C   0  0  0  0  0  0  0  0  0  0  0  0
  1  9  2  0  0  0  0
  1 11  1  0  0  0  0
  2 13  1  0  0  0  0
  2  8  1  0  0  0  0
  4 12  1  0  0  0  0
  4 16  1  0  0  0  0
  5 10  1  0  0  0  0
  6 10  2  0  0  0  0
  6 20  1  0  0  0  0
  7 14  1  0  0  0  0
  7 13  2  0  0  0  0
  9 17  1  0  0  0  0
 10  7  1  0  0  0  0
 11  4  2  0  0  0  0
 12  5  1  0  0  0  0
 13  3  1  0  0  0  0
 15 16  1  0  0  0  0
 15 18  2  0  0  0  0
 16  6  1  0  0  0  0
 17 21  1  0  0  0  0
 17 12  2  0  0  0  0
 18 20  1  0  0  0  0
 19 15  1  0  0  0  0
 20  2  2  0  0  0  0
 22 23  1  0  0  0  0
 22 21  1  0  0  0  0
 24 11  1  0  0  0  0
 25 26  3  0  0  0  0
 26 24  1  0  0  0  0
M  END
>  <MODEL>
6

>  <REMARK>
 VINA RESULT:      -8.8      2.393      6.372
  Name = 
  4 active torsions:
  status: ('A' for Active; 'I' for Inactive)
    1  A    between atoms: C_3  and  C_12
    2  A    between atoms: C_8  and  C_25
    3  A    between atoms: C_12  and  C_22
    4  A    between atoms: C_16  and  C_25
                            x       y       z     vdW  Elec       q    Type
                         _______ _______ _______ _____ _____    ______ ____

>  <TORSDO>
F 4

$$$$
=
 OpenBabel11042412273D

 26 29  0  0  0  0  0  0  0  0999 V2000
  187.6500  177.7940  145.8440 C   0  0  0  0  0  3  0  0  0  0  0  0
  188.0990  178.2510  138.6390 C   0  0  0  0  0  0  0  0  0  0  0  0
  190.1690  177.7820  137.4520 O   0  0  0  0  0  1  0  0  0  0  0  0
  187.7620  177.8700  143.4100 C   0  0  0  0  0  0  0  0  0  0  0  0
  189.9020  177.2850  142.3350 O   0  0  0  0  0  0  0  0  0  0  0  0
  188.0930  178.1080  141.0280 C   0  0  0  0  0  0  0  0  0  0  0  0
  190.1180  177.5740  139.8800 C   0  0  0  0  0  0  0  0  0  0  0  0
  187.3710  178.5040  137.3610 C   0  0  0  0  0  1  0  0  0  0  0  0
  188.9160  177.2190  145.9030 C   0  0  0  0  0  3  0  0  0  0  0  0
  189.3970  177.6670  141.0860 C   0  0  0  0  0  0  0  0  0  0  0  0
  187.0620  178.1350  144.6180 C   0  0  0  0  0  0  0  0  0  0  0  0
  189.1040  177.3800  143.4980 C   0  0  0  0  0  0  0  0  0  0  0  0
  189.4680  177.8760  138.6510 C   0  0  0  0  0  0  0  0  0  0  0  0
  191.5410  177.1250  139.8940 C   0  0  0  0  0  1  0  0  0  0  0  0
  186.0540  178.3940  141.4770 C   0  0  0  0  0  0  0  0  0  0  0  0
  187.2680  178.1660  142.0720 N   0  0  0  0  0  0  0  0  0  0  0  0
  189.6510  177.0210  144.7370 C   0  0  0  0  0  0  0  0  0  0  0  0
  186.1350  178.5220  140.1210 N   0  0  0  0  0  0  0  0  0  0  0  0
  184.7290  178.2840  142.1390 C   0  0  0  0  0  1  0  0  0  0  0  0
  187.4430  178.3470  139.8700 C   0  0  0  0  0  0  0  0  0  0  0  0
  191.0260  176.4410  144.8340 C   0  0  0  0  0  2  0  0  0  0  0  0
  191.6810  176.7970  146.1600 C   0  0  0  0  0  2  0  0  0  0  0  0
  192.0560  175.5410  146.9240 C   0  0  0  0  0  1  0  0  0  0  0  0
  185.7990  178.9300  144.6780 C   0  0  0  0  0  2  0  0  0  0  0  0
  184.5560  178.5640  146.9630 N   0  0  0  0  0  0  0  0  0  0  0  0
  185.1050  178.7250  145.9560 C   0  0  0  0  0  0  0  0  0  0  0  0
  1  9  1  0  0  0  0
  2 13  2  0  0  0  0
  2 20  1  0  0  0  0
  3 13  1  0  0  0  0
  4 12  2  0  0  0  0
  4 11  1  0  0  0  0
  5 12  1  0  0  0  0
  6 10  1  0  0  0  0
  6 16  1  0  0  0  0
  7 14  1  0  0  0  0
  7 10  2  0  0  0  0
  8  2  1  0  0  0  0
 10  5  1  0  0  0  0
 11 24  1  0  0  0  0
 11  1  2  0  0  0  0
 12 17  1  0  0  0  0
 13  7  1  0  0  0  0
 15 16  1  0  0  0  0
 15 19  1  0  0  0  0
 16  4  1  0  0  0  0
 17 21  1  0  0  0  0
 17  9  2  0  0  0  0
 18 15  2  0  0  0  0
 20 18  1  0  0  0  0
 20  6  2  0  0  0  0
 21 22  1  0  0  0  0
 22 23  1  0  0  0  0
 24 26  1  0  0  0  0
 26 25  3  0  0  0  0
M  END
>  <MODEL>
7

>  <REMARK>
 VINA RESULT:      -8.8      1.729      2.298
  Name = 
  4 active torsions:
  status: ('A' for Active; 'I' for Inactive)
    1  A    between atoms: C_3  and  C_12
    2  A    between atoms: C_8  and  C_25
    3  A    between atoms: C_12  and  C_22
    4  A    between atoms: C_16  and  C_25
                            x       y       z     vdW  Elec       q    Type
                         _______ _______ _______ _____ _____    ______ ____

>  <TORSDO>
F 4

$$$$
=
 OpenBabel11042412273D

 26 29  0  0  0  0  0  0  0  0999 V2000
  185.0180  178.6710  140.5780 C   0  0  0  0  0  3  0  0  0  0  0  0
  188.1060  177.5050  147.0140 C   0  0  0  0  0  0  0  0  0  0  0  0
  190.4570  176.9150  147.2200 O   0  0  0  0  0  1  0  0  0  0  0  0
  186.0640  178.3650  142.7590 C   0  0  0  0  0  0  0  0  0  0  0  0
  188.4750  177.8560  142.8210 O   0  0  0  0  0  0  0  0  0  0  0  0
  187.1940  177.8200  144.8250 C   0  0  0  0  0  0  0  0  0  0  0  0
  189.5210  177.3120  145.0040 C   0  0  0  0  0  0  0  0  0  0  0  0
  187.9310  177.5030  148.4960 C   0  0  0  0  0  1  0  0  0  0  0  0
  186.2610  178.6280  139.9550 C   0  0  0  0  0  3  0  0  0  0  0  0
  188.4100  177.6410  144.2030 C   0  0  0  0  0  0  0  0  0  0  0  0
  184.8950  178.5320  141.9680 C   0  0  0  0  0  0  0  0  0  0  0  0
  187.3190  178.2150  142.0890 C   0  0  0  0  0  0  0  0  0  0  0  0
  189.3650  177.2340  146.4170 C   0  0  0  0  0  0  0  0  0  0  0  0
  190.8540  177.0830  144.3750 C   0  0  0  0  0  1  0  0  0  0  0  0
  185.2480  178.5030  145.2570 C   0  0  0  0  0  0  0  0  0  0  0  0
  186.0800  178.2150  144.2080 N   0  0  0  0  0  0  0  0  0  0  0  0
  187.4120  178.3890  140.7020 C   0  0  0  0  0  0  0  0  0  0  0  0
  185.8070  178.2480  146.4750 N   0  0  0  0  0  0  0  0  0  0  0  0
  183.9610  179.2400  145.1670 C   0  0  0  0  0  1  0  0  0  0  0  0
  187.0380  177.8060  146.1640 C   0  0  0  0  0  0  0  0  0  0  0  0
  188.7300  178.3060  140.0000 C   0  0  0  0  0  2  0  0  0  0  0  0
  188.5550  177.8980  138.5460 C   0  0  0  0  0  2  0  0  0  0  0  0
  189.0560  178.9910  137.6210 C   0  0  0  0  0  1  0  0  0  0  0  0
  183.5100  178.3850  142.5070 C   0  0  0  0  0  2  0  0  0  0  0  0
  181.7160  178.8200  140.6390 N   0  0  0  0  0  0  0  0  0  0  0  0
  182.5070  178.6280  141.4610 C   0  0  0  0  0  0  0  0  0  0  0  0
  1 11  1  0  0  0  0
  2  8  1  0  0  0  0
  4 16  1  0  0  0  0
  5 10  1  0  0  0  0
  6 20  1  0  0  0  0
  7 13  2  0  0  0  0
  9  1  2  0  0  0  0
  9 17  1  0  0  0  0
 10  6  2  0  0  0  0
 10  7  1  0  0  0  0
 11 24  1  0  0  0  0
 11  4  2  0  0  0  0
 12  4  1  0  0  0  0
 12  5  1  0  0  0  0
 13  2  1  0  0  0  0
 13  3  1  0  0  0  0
 14  7  1  0  0  0  0
 15 18  2  0  0  0  0
 16  6  1  0  0  0  0
 16 15  1  0  0  0  0
 17 12  2  0  0  0  0
 19 15  1  0  0  0  0
 20 18  1  0  0  0  0
 20  2  2  0  0  0  0
 21 17  1  0  0  0  0
 22 21  1  0  0  0  0
 23 22  1  0  0  0  0
 25 26  3  0  0  0  0
 26 24  1  0  0  0  0
M  END
>  <MODEL>
8

>  <REMARK>
 VINA RESULT:      -8.8      1.829      5.541
  Name = 
  4 active torsions:
  status: ('A' for Active; 'I' for Inactive)
    1  A    between atoms: C_3  and  C_12
    2  A    between atoms: C_8  and  C_25
    3  A    between atoms: C_12  and  C_22
    4  A    between atoms: C_16  and  C_25
                            x       y       z     vdW  Elec       q    Type
                         _______ _______ _______ _____ _____    ______ ____

>  <TORSDO>
F 4

$$$$
=
 OpenBabel11042412273D

 26 29  0  0  0  0  0  0  0  0999 V2000
  191.5390  176.6680  144.1480 C   0  0  0  0  0  3  0  0  0  0  0  0
  184.6020  178.6740  144.5770 C   0  0  0  0  0  0  0  0  0  0  0  0
  183.2860  179.1700  142.5920 O   0  0  0  0  0  1  0  0  0  0  0  0
  189.1790  177.2600  144.3050 C   0  0  0  0  0  0  0  0  0  0  0  0
  187.9460  177.6510  142.2070 O   0  0  0  0  0  0  0  0  0  0  0  0
  186.9000  178.0650  144.3020 C   0  0  0  0  0  0  0  0  0  0  0  0
  185.6100  178.4780  142.3350 C   0  0  0  0  0  0  0  0  0  0  0  0
  183.4310  178.9170  145.4680 C   0  0  0  0  0  1  0  0  0  0  0  0
  191.4360  176.5510  142.7650 C   0  0  0  0  0  3  0  0  0  0  0  0
  186.8260  178.0830  142.9270 C   0  0  0  0  0  0  0  0  0  0  0  0
  190.4330  177.0290  144.9320 C   0  0  0  0  0  0  0  0  0  0  0  0
  189.1220  177.2400  142.8750 C   0  0  0  0  0  0  0  0  0  0  0  0
  184.4950  178.7840  143.1660 C   0  0  0  0  0  0  0  0  0  0  0  0
  185.4880  178.5380  140.8500 C   0  0  0  0  0  1  0  0  0  0  0  0
  187.4540  177.5560  146.2710 C   0  0  0  0  0  0  0  0  0  0  0  0
  187.9530  177.6340  144.9970 N   0  0  0  0  0  0  0  0  0  0  0  0
  190.2370  176.8460  142.1230 C   0  0  0  0  0  0  0  0  0  0  0  0
  186.1580  177.9710  146.3690 N   0  0  0  0  0  0  0  0  0  0  0  0
  188.1100  176.8800  147.4190 C   0  0  0  0  0  1  0  0  0  0  0  0
  185.8410  178.2970  145.1050 C   0  0  0  0  0  0  0  0  0  0  0  0
  190.1680  176.7530  140.6320 C   0  0  0  0  0  2  0  0  0  0  0  0
  191.4950  177.1320  139.9950 C   0  0  0  0  0  2  0  0  0  0  0  0
  191.5490  176.6610  138.5530 C   0  0  0  0  0  1  0  0  0  0  0  0
  190.7000  177.3280  146.3700 C   0  0  0  0  0  2  0  0  0  0  0  0
  192.4300  175.6320  147.3840 N   0  0  0  0  0  0  0  0  0  0  0  0
  191.6670  176.3780  146.9370 C   0  0  0  0  0  0  0  0  0  0  0  0
  1 11  1  0  0  0  0
  2 20  1  0  0  0  0
  2  8  1  0  0  0  0
  3 13  1  0  0  0  0
  4 11  2  0  0  0  0
  4 16  1  0  0  0  0
  5 12  1  0  0  0  0
  5 10  1  0  0  0  0
  6 16  1  0  0  0  0
  6 20  2  0  0  0  0
  7 10  2  0  0  0  0
  7 13  1  0  0  0  0
  9  1  2  0  0  0  0
 10  6  1  0  0  0  0
 11 24  1  0  0  0  0
 12  4  1  0  0  0  0
 13  2  2  0  0  0  0
 14  7  1  0  0  0  0
 15 18  2  0  0  0  0
 15 19  1  0  0  0  0
 16 15  1  0  0  0  0
 17  9  1  0  0  0  0
 17 12  2  0  0  0  0
 20 18  1  0  0  0  0
 21 17  1  0  0  0  0
 22 21  1  0  0  0  0
 23 22  1  0  0  0  0
 24 26  1  0  0  0  0
 26 25  3  0  0  0  0
M  END
>  <MODEL>
9

>  <REMARK>
 VINA RESULT:      -8.7      2.635      6.663
  Name = 
  4 active torsions:
  status: ('A' for Active; 'I' for Inactive)
    1  A    between atoms: C_3  and  C_12
    2  A    between atoms: C_8  and  C_25
    3  A    between atoms: C_12  and  C_22
    4  A    between atoms: C_16  and  C_25
                            x       y       z     vdW  Elec       q    Type
                         _______ _______ _______ _____ _____    ______ ____

>  <TORSDO>
F 4

$$$$
