=
 OpenBabel11042413063D

 40 42  0  0  1  0  0  0  0  0999 V2000
  185.2280  178.8880  143.2840 C   0  0  0  0  0  3  0  0  0  0  0  0
  184.1280  178.8310  141.1680 O   0  0  0  0  0  0  0  0  0  0  0  0
  185.2370  178.8050  141.9560 C   0  0  0  0  0  0  0  0  0  0  0  0
  186.3770  178.6960  141.1310 N   0  0  0  0  0  0  0  0  0  0  0  0
  186.0080  178.8100  139.8220 O   0  0  0  0  0  0  0  0  0  0  0  0
  184.5860  178.6770  139.8290 C   0  0  2  0  0  3  0  0  0  0  0  0
  189.1040  177.2130  143.2180 C   0  0  0  0  0  3  0  0  0  0  0  0
  187.8780  177.7630  142.8340 C   0  0  0  0  0  3  0  0  0  0  0  0
  188.6740  177.9480  140.5590 C   0  0  0  0  0  3  0  0  0  0  0  0
  190.1160  177.0310  142.2730 C   0  0  0  0  0  3  0  0  0  0  0  0
  189.9000  177.3960  140.9410 C   0  0  0  0  0  0  0  0  0  0  0  0
  187.6500  178.1360  141.5010 C   0  0  0  0  0  0  0  0  0  0  0  0
  190.7410  176.0120  139.1620 N   0  0  0  0  0  1  0  0  0  0  0  0
  190.9810  177.2200  139.9330 C   0  0  0  0  0  2  0  0  0  0  0  0
  183.9640  179.7350  138.9290 C   0  0  0  0  0  2  0  0  0  0  0  0
  182.4700  179.8500  139.1820 C   0  0  0  0  0  2  0  0  0  0  0  0
  181.6920  179.5450  137.9160 C   0  0  0  0  0  2  0  0  0  0  0  0
  181.3650  178.0680  137.8640 C   0  0  2  0  0  3  0  0  0  0  0  0
  182.2190  177.4190  136.8570 N   0  0  0  0  0  0  0  0  0  0  0  0
  180.8140  177.7360  136.5570 C   0  0  0  0  0  2  0  0  0  0  0  0
  182.2610  176.0590  137.1900 N   0  0  0  0  0  2  0  0  0  0  0  0
  183.6240  175.7600  137.6010 C   0  0  0  0  0  2  0  0  0  0  0  0
  184.5070  176.6450  136.9820 O   0  0  0  0  0  0  0  0  0  0  0  0
  185.7640  176.0610  137.1440 C   0  0  0  0  0  2  0  0  0  0  0  0
  186.8260  176.9520  136.5320 C   0  0  0  0  0  2  0  0  0  0  0  0
  188.0900  176.5440  136.9580 O   0  0  0  0  0  0  0  0  0  0  0  0
  188.9420  177.5810  136.5790 C   0  0  0  0  0  2  0  0  0  0  0  0
  188.9890  179.7290  137.6190 O   0  0  0  0  0  1  0  0  0  0  0  0
  188.2450  178.9160  136.7630 C   0  0  0  0  0  2  0  0  0  0  0  0
  183.9560  179.0170  144.0430 C   0  0  0  0  0  2  0  0  0  0  0  0
  184.2100  178.7300  145.5070 C   0  0  0  0  0  2  0  0  0  0  0  0
  185.6590  179.0290  145.8310 C   0  0  0  0  0  2  0  0  0  0  0  0
  186.2990  177.8280  146.3410 N   0  0  0  0  0  2  0  0  0  0  0  0
  187.1590  178.2310  147.4430 C   0  0  0  0  0  2  0  0  0  0  0  0
  188.1620  177.1320  147.7660 C   0  0  0  0  0  2  0  0  0  0  0  0
  189.2730  177.1840  146.8300 N   0  0  0  0  0  2  0  0  0  0  0  0
  191.7270  176.7000  145.5930 O   0  0  0  0  0  0  0  0  0  0  0  0
  191.6260  176.4580  146.8250 C   0  0  0  0  0  0  0  0  0  0  0  0
  190.3930  176.6810  147.5070 N   0  0  0  0  0  2  0  0  0  0  0  0
  192.7210  175.9710  147.5250 O   0  0  0  0  0  1  0  0  0  0  0  0
  1 30  1  0  0  0  0
  2  3  1  0  0  0  0
  3  1  2  0  0  0  0
  4 12  1  0  0  0  0
  4  3  1  0  0  0  0
  5  6  1  0  0  0  0
  5  4  1  0  0  0  0
  6 15  1  6  0  0  0
  6  2  1  0  0  0  0
  8  7  1  0  0  0  0
  9 11  2  0  0  0  0
  9 12  1  0  0  0  0
 10  7  2  0  0  0  0
 11 10  1  0  0  0  0
 12  8  2  0  0  0  0
 13 14  1  0  0  0  0
 14 11  1  0  0  0  0
 15 16  1  0  0  0  0
 17 16  1  0  0  0  0
 18 17  1  6  0  0  0
 19 21  1  0  0  0  0
 19 18  1  0  0  0  0
 20 19  1  0  0  0  0
 20 18  1  0  0  0  0
 21 22  1  0  0  0  0
 23 24  1  0  0  0  0
 23 22  1  0  0  0  0
 25 26  1  0  0  0  0
 25 24  1  0  0  0  0
 27 29  1  0  0  0  0
 27 26  1  0  0  0  0
 29 28  1  0  0  0  0
 30 31  1  0  0  0  0
 31 32  1  0  0  0  0
 32 33  1  0  0  0  0
 33 34  1  0  0  0  0
 34 35  1  0  0  0  0
 36 39  1  0  0  0  0
 36 35  1  0  0  0  0
 37 38  2  0  0  0  0
 38 39  1  0  0  0  0
 38 40  1  0  0  0  0
M  END
>  <MODEL>
1

>  <REMARK>
 VINA RESULT:      -6.5      0.000      0.000
  Name = 
  22 active torsions:
  status: ('A' for Active; 'I' for Inactive)
    1  A    between atoms: O_1  and  C_8
    2  A    between atoms: O_1  and  C_22
    3  A    between atoms: C_2  and  O_4
    4  A    between atoms: C_2  and  C_8
    5  A    between atoms: N_3  and  C_26
    6  A    between atoms: N_3  and  N_27
    7  A    between atoms: O_4  and  C_19
    8  A    between atoms: C_5  and  C_20
    9  A    between atoms: C_7  and  C_40
   10  A    between atoms: C_16  and  N_17
   11  A    between atoms: C_16  and  C_26
   12  A    between atoms: N_17  and  C_31
   13  A    between atoms: C_18  and  C_35
   14  A    between atoms: C_19  and  C_24
   15  A    between atoms: C_20  and  C_28
   16  A    between atoms: C_22  and  N_32
   17  A    between atoms: C_25  and  C_37
   18  A    between atoms: C_25  and  C_38
   19  A    between atoms: C_28  and  C_31
   20  A    between atoms: N_29  and  C_39
   21  A    between atoms: N_32  and  N_33
   22  A    between atoms: C_37  and  C_40
                            x       y       z     vdW  Elec       q    Type
                         _______ _______ _______ _____ _____    ______ ____

>  <TORSDO>
F 22

$$$$
=
 OpenBabel11042413063D

 40 42  0  0  1  0  0  0  0  0999 V2000
  187.0970  177.6730  143.2980 C   0  0  0  0  0  3  0  0  0  0  0  0
  185.0470  178.7970  143.7720 O   0  0  0  0  0  0  0  0  0  0  0  0
  186.1820  178.1430  144.1410 C   0  0  0  0  0  0  0  0  0  0  0  0
  186.2080  178.0390  145.5480 N   0  0  0  0  0  0  0  0  0  0  0  0
  185.0240  178.4810  146.0630 O   0  0  0  0  0  0  0  0  0  0  0  0
  184.3820  179.1550  144.9790 C   0  0  2  0  0  3  0  0  0  0  0  0
  188.4100  178.0670  148.5730 C   0  0  0  0  0  3  0  0  0  0  0  0
  187.2880  178.1870  147.7470 C   0  0  0  0  0  3  0  0  0  0  0  0
  188.6150  177.5100  145.8440 C   0  0  0  0  0  3  0  0  0  0  0  0
  189.6350  177.6680  148.0340 C   0  0  0  0  0  3  0  0  0  0  0  0
  189.7370  177.3860  146.6680 C   0  0  0  0  0  0  0  0  0  0  0  0
  187.3790  177.9110  146.3750 C   0  0  0  0  0  0  0  0  0  0  0  0
  191.9520  176.5770  147.1480 N   0  0  0  0  0  1  0  0  0  0  0  0
  191.0440  176.9770  146.0860 C   0  0  0  0  0  2  0  0  0  0  0  0
  182.9160  178.7540  144.9170 C   0  0  0  0  0  2  0  0  0  0  0  0
  182.3350  179.0350  143.5410 C   0  0  0  0  0  2  0  0  0  0  0  0
  180.8350  178.8100  143.5420 C   0  0  0  0  0  2  0  0  0  0  0  0
  180.3750  178.4430  142.1480 C   0  0  2  0  0  3  0  0  0  0  0  0
  180.3960  179.6430  141.2990 N   0  0  0  0  0  0  0  0  0  0  0  0
  179.1290  179.1350  141.8470 C   0  0  0  0  0  2  0  0  0  0  0  0
  180.4720  179.1920  139.9750 N   0  0  0  0  0  2  0  0  0  0  0  0
  181.8790  179.1690  139.6080 C   0  0  0  0  0  2  0  0  0  0  0  0
  182.2990  177.8500  139.4400 O   0  0  0  0  0  0  0  0  0  0  0  0
  181.9510  177.5320  138.1270 C   0  0  0  0  0  2  0  0  0  0  0  0
  182.9700  176.5730  137.5450 C   0  0  0  0  0  2  0  0  0  0  0  0
  184.2380  176.8670  138.0470 O   0  0  0  0  0  0  0  0  0  0  0  0
  184.9820  177.2420  136.9290 C   0  0  0  0  0  2  0  0  0  0  0  0
  185.9700  178.8090  138.4340 O   0  0  0  0  0  1  0  0  0  0  0  0
  186.2470  177.9560  137.3650 C   0  0  0  0  0  2  0  0  0  0  0  0
  186.9490  177.8340  141.8260 C   0  0  0  0  0  2  0  0  0  0  0  0
  188.0620  178.7130  141.2990 C   0  0  0  0  0  2  0  0  0  0  0  0
  189.0370  177.8650  140.5080 C   0  0  0  0  0  2  0  0  0  0  0  0
  190.1670  177.5130  141.3510 N   0  0  0  0  0  2  0  0  0  0  0  0
  191.1190  176.7930  140.5190 C   0  0  0  0  0  2  0  0  0  0  0  0
  190.6110  176.6970  139.0870 C   0  0  0  0  0  2  0  0  0  0  0  0
  191.2170  175.5570  138.4210 N   0  0  0  0  0  2  0  0  0  0  0  0
  193.9740  175.9510  138.5970 O   0  0  0  0  0  1  0  0  0  0  0  0
  193.4000  176.2450  137.5140 C   0  0  0  0  0  0  0  0  0  0  0  0
  191.9920  176.0690  137.3720 N   0  0  0  0  0  2  0  0  0  0  0  0
  194.1430  176.7430  136.4530 O   0  0  0  0  0  0  0  0  0  0  0  0
  1  3  2  0  0  0  0
  2  3  1  0  0  0  0
  2  6  1  0  0  0  0
  3  4  1  0  0  0  0
  4  5  1  0  0  0  0
  4 12  1  0  0  0  0
  6 15  1  6  0  0  0
  6  5  1  0  0  0  0
  8  7  2  0  0  0  0
  9 12  2  0  0  0  0
  9 11  1  0  0  0  0
 10  7  1  0  0  0  0
 11 10  2  0  0  0  0
 12  8  1  0  0  0  0
 14 11  1  0  0  0  0
 14 13  1  0  0  0  0
 16 17  1  0  0  0  0
 16 15  1  0  0  0  0
 18 17  1  1  0  0  0
 19 20  1  0  0  0  0
 19 18  1  0  0  0  0
 20 18  1  0  0  0  0
 21 19  1  0  0  0  0
 22 21  1  0  0  0  0
 23 22  1  0  0  0  0
 24 23  1  0  0  0  0
 25 26  1  0  0  0  0
 25 24  1  0  0  0  0
 27 29  1  0  0  0  0
 27 26  1  0  0  0  0
 29 28  1  0  0  0  0
 30  1  1  0  0  0  0
 31 30  1  0  0  0  0
 32 31  1  0  0  0  0
 32 33  1  0  0  0  0
 34 33  1  0  0  0  0
 35 34  1  0  0  0  0
 36 35  1  0  0  0  0
 38 37  1  0  0  0  0
 39 38  1  0  0  0  0
 39 36  1  0  0  0  0
 40 38  2  0  0  0  0
M  END
>  <MODEL>
2

>  <REMARK>
 VINA RESULT:      -6.5      2.634      5.948
  Name = 
  22 active torsions:
  status: ('A' for Active; 'I' for Inactive)
    1  A    between atoms: O_1  and  C_8
    2  A    between atoms: O_1  and  C_22
    3  A    between atoms: C_2  and  O_4
    4  A    between atoms: C_2  and  C_8
    5  A    between atoms: N_3  and  C_26
    6  A    between atoms: N_3  and  N_27
    7  A    between atoms: O_4  and  C_19
    8  A    between atoms: C_5  and  C_20
    9  A    between atoms: C_7  and  C_40
   10  A    between atoms: C_16  and  N_17
   11  A    between atoms: C_16  and  C_26
   12  A    between atoms: N_17  and  C_31
   13  A    between atoms: C_18  and  C_35
   14  A    between atoms: C_19  and  C_24
   15  A    between atoms: C_20  and  C_28
   16  A    between atoms: C_22  and  N_32
   17  A    between atoms: C_25  and  C_37
   18  A    between atoms: C_25  and  C_38
   19  A    between atoms: C_28  and  C_31
   20  A    between atoms: N_29  and  C_39
   21  A    between atoms: N_32  and  N_33
   22  A    between atoms: C_37  and  C_40
                            x       y       z     vdW  Elec       q    Type
                         _______ _______ _______ _____ _____    ______ ____

>  <TORSDO>
F 22

$$$$
=
 OpenBabel11042413063D

 40 42  0  0  1  0  0  0  0  0999 V2000
  188.4940  177.3680  142.2710 C   0  0  0  0  0  3  0  0  0  0  0  0
  186.3500  178.3960  142.0770 O   0  0  0  0  0  0  0  0  0  0  0  0
  187.3360  177.7790  142.7820 C   0  0  0  0  0  0  0  0  0  0  0  0
  186.9160  177.6390  144.1220 N   0  0  0  0  0  0  0  0  0  0  0  0
  185.6110  178.0200  144.2360 O   0  0  0  0  0  0  0  0  0  0  0  0
  185.3180  178.6960  143.0120 C   0  0  2  0  0  3  0  0  0  0  0  0
  188.0230  177.6340  147.6960 C   0  0  0  0  0  3  0  0  0  0  0  0
  187.2200  177.7310  146.5560 C   0  0  0  0  0  3  0  0  0  0  0  0
  189.1340  177.2430  145.1640 C   0  0  0  0  0  3  0  0  0  0  0  0
  189.3830  177.3410  147.5700 C   0  0  0  0  0  3  0  0  0  0  0  0
  189.9390  177.1410  146.3030 C   0  0  0  0  0  0  0  0  0  0  0  0
  187.7660  177.5370  145.2790 C   0  0  0  0  0  0  0  0  0  0  0  0
  191.6570  176.3110  144.8370 N   0  0  0  0  0  1  0  0  0  0  0  0
  191.3900  176.8450  146.1620 C   0  0  0  0  0  2  0  0  0  0  0  0
  183.9690  178.2380  142.4780 C   0  0  0  0  0  2  0  0  0  0  0  0
  182.8660  179.1940  142.9020 C   0  0  0  0  0  2  0  0  0  0  0  0
  182.0780  178.6140  144.0610 C   0  0  0  0  0  2  0  0  0  0  0  0
  180.6000  178.6300  143.7290 C   0  0  2  0  0  3  0  0  0  0  0  0
  180.4330  178.6340  142.2680 N   0  0  0  0  0  0  0  0  0  0  0  0
  180.2680  179.8720  143.0450 C   0  0  0  0  0  2  0  0  0  0  0  0
  179.1450  178.1430  142.0150 N   0  0  0  0  0  2  0  0  0  0  0  0
  179.1970  177.4350  140.7460 C   0  0  0  0  0  2  0  0  0  0  0  0
  180.3800  176.7000  140.6650 O   0  0  0  0  0  0  0  0  0  0  0  0
  180.7850  176.8280  139.3360 C   0  0  0  0  0  2  0  0  0  0  0  0
  182.2670  177.1440  139.2800 C   0  0  0  0  0  2  0  0  0  0  0  0
  182.5240  178.0230  138.2280 O   0  0  0  0  0  0  0  0  0  0  0  0
  183.8540  177.7820  137.8850 C   0  0  0  0  0  2  0  0  0  0  0  0
  185.9590  178.8400  138.2740 O   0  0  0  0  0  1  0  0  0  0  0  0
  184.7750  178.4380  138.8960 C   0  0  0  0  0  2  0  0  0  0  0  0
  188.8160  177.5610  140.8310 C   0  0  0  0  0  2  0  0  0  0  0  0
  190.2080  177.0370  140.5510 C   0  0  0  0  0  2  0  0  0  0  0  0
  190.4020  176.9090  139.0550 C   0  0  0  0  0  2  0  0  0  0  0  0
  190.7790  175.5430  138.7300 N   0  0  0  0  0  2  0  0  0  0  0  0
  191.7090  175.6050  137.6140 C   0  0  0  0  0  2  0  0  0  0  0  0
  192.7950  176.6390  137.8800 C   0  0  0  0  0  2  0  0  0  0  0  0
  194.0800  176.1370  137.4230 N   0  0  0  0  0  2  0  0  0  0  0  0
  196.6000  174.9400  137.4870 O   0  0  0  0  0  0  0  0  0  0  0  0
  195.6960  174.4610  138.2230 C   0  0  0  0  0  0  0  0  0  0  0  0
  194.3880  175.0300  138.2250 N   0  0  0  0  0  2  0  0  0  0  0  0
  195.9750  173.3720  139.0380 O   0  0  0  0  0  1  0  0  0  0  0  0
  1  3  2  0  0  0  0
  2  3  1  0  0  0  0
  2  6  1  0  0  0  0
  3  4  1  0  0  0  0
  4  5  1  0  0  0  0
  4 12  1  0  0  0  0
  6 15  1  6  0  0  0
  6  5  1  0  0  0  0
  8  7  2  0  0  0  0
  9 12  2  0  0  0  0
  9 11  1  0  0  0  0
 10  7  1  0  0  0  0
 11 10  2  0  0  0  0
 12  8  1  0  0  0  0
 13 14  1  0  0  0  0
 14 11  1  0  0  0  0
 15 16  1  0  0  0  0
 16 17  1  0  0  0  0
 18 17  1  6  0  0  0
 19 20  1  0  0  0  0
 19 18  1  0  0  0  0
 20 18  1  0  0  0  0
 21 19  1  0  0  0  0
 22 21  1  0  0  0  0
 23 22  1  0  0  0  0
 24 23  1  0  0  0  0
 25 24  1  0  0  0  0
 26 25  1  0  0  0  0
 27 26  1  0  0  0  0
 27 29  1  0  0  0  0
 28 29  1  0  0  0  0
 30  1  1  0  0  0  0
 31 30  1  0  0  0  0
 32 31  1  0  0  0  0
 33 32  1  0  0  0  0
 34 35  1  0  0  0  0
 34 33  1  0  0  0  0
 36 35  1  0  0  0  0
 36 39  1  0  0  0  0
 37 38  2  0  0  0  0
 38 39  1  0  0  0  0
 38 40  1  0  0  0  0
M  END
>  <MODEL>
3

>  <REMARK>
 VINA RESULT:      -6.4      3.310      6.510
  Name = 
  22 active torsions:
  status: ('A' for Active; 'I' for Inactive)
    1  A    between atoms: O_1  and  C_8
    2  A    between atoms: O_1  and  C_22
    3  A    between atoms: C_2  and  O_4
    4  A    between atoms: C_2  and  C_8
    5  A    between atoms: N_3  and  C_26
    6  A    between atoms: N_3  and  N_27
    7  A    between atoms: O_4  and  C_19
    8  A    between atoms: C_5  and  C_20
    9  A    between atoms: C_7  and  C_40
   10  A    between atoms: C_16  and  N_17
   11  A    between atoms: C_16  and  C_26
   12  A    between atoms: N_17  and  C_31
   13  A    between atoms: C_18  and  C_35
   14  A    between atoms: C_19  and  C_24
   15  A    between atoms: C_20  and  C_28
   16  A    between atoms: C_22  and  N_32
   17  A    between atoms: C_25  and  C_37
   18  A    between atoms: C_25  and  C_38
   19  A    between atoms: C_28  and  C_31
   20  A    between atoms: N_29  and  C_39
   21  A    between atoms: N_32  and  N_33
   22  A    between atoms: C_37  and  C_40
                            x       y       z     vdW  Elec       q    Type
                         _______ _______ _______ _____ _____    ______ ____

>  <TORSDO>
F 22

$$$$
=
 OpenBabel11042413063D

 40 42  0  0  1  0  0  0  0  0999 V2000
  183.1950  178.6480  143.8500 C   0  0  0  0  0  3  0  0  0  0  0  0
  185.3690  179.1200  142.9890 O   0  0  0  0  0  0  0  0  0  0  0  0
  184.0870  178.6820  142.8630 C   0  0  0  0  0  0  0  0  0  0  0  0
  183.8800  178.2600  141.5320 N   0  0  0  0  0  0  0  0  0  0  0  0
  185.0640  178.2820  140.8550 O   0  0  0  0  0  0  0  0  0  0  0  0
  185.9530  179.0210  141.6940 C   0  0  2  0  0  3  0  0  0  0  0  0
  181.0790  177.0270  139.3800 C   0  0  0  0  0  3  0  0  0  0  0  0
  182.2960  177.0930  140.0650 C   0  0  0  0  0  3  0  0  0  0  0  0
  181.7060  179.2810  140.9050 C   0  0  0  0  0  3  0  0  0  0  0  0
  180.1750  178.0880  139.4580 C   0  0  0  0  0  3  0  0  0  0  0  0
  180.4870  179.2160  140.2240 C   0  0  0  0  0  0  0  0  0  0  0  0
  182.6230  178.2200  140.8340 C   0  0  0  0  0  0  0  0  0  0  0  0
  179.8310  181.3120  139.2420 N   0  0  0  0  0  1  0  0  0  0  0  0
  179.5340  180.3570  140.2960 C   0  0  0  0  0  2  0  0  0  0  0  0
  187.2990  178.3150  141.7710 C   0  0  0  0  0  2  0  0  0  0  0  0
  187.4420  177.5620  143.0830 C   0  0  0  0  0  2  0  0  0  0  0  0
  188.9040  177.2990  143.3870 C   0  0  0  0  0  2  0  0  0  0  0  0
  189.7670  177.8990  142.2960 C   0  0  2  0  0  3  0  0  0  0  0  0
  190.8450  176.9580  141.9600 N   0  0  0  0  0  0  0  0  0  0  0  0
  191.1110  178.1300  142.8090 C   0  0  0  0  0  2  0  0  0  0  0  0
  191.2740  177.2920  140.6680 N   0  0  0  0  0  2  0  0  0  0  0  0
  190.2940  176.7570  139.7370 C   0  0  0  0  0  2  0  0  0  0  0  0
  190.3660  177.4490  138.5280 O   0  0  0  0  0  0  0  0  0  0  0  0
  189.3400  178.3920  138.5990 C   0  0  0  0  0  2  0  0  0  0  0  0
  189.0100  178.8950  137.2070 C   0  0  0  0  0  2  0  0  0  0  0  0
  187.6490  179.1890  137.1200 O   0  0  0  0  0  0  0  0  0  0  0  0
  187.2070  178.4810  136.0020 C   0  0  0  0  0  2  0  0  0  0  0  0
  185.8560  177.3790  137.6330 O   0  0  0  0  0  1  0  0  0  0  0  0
  186.5510  177.1850  136.4380 C   0  0  0  0  0  2  0  0  0  0  0  0
  183.5400  179.1080  145.2220 C   0  0  0  0  0  2  0  0  0  0  0  0
  184.5430  178.1550  145.8370 C   0  0  0  0  0  2  0  0  0  0  0  0
  185.4590  178.9230  146.7660 C   0  0  0  0  0  2  0  0  0  0  0  0
  186.8250  178.4590  146.5920 N   0  0  0  0  0  2  0  0  0  0  0  0
  187.3980  178.2950  147.9180 C   0  0  0  0  0  2  0  0  0  0  0  0
  188.2390  177.0280  147.9840 C   0  0  0  0  0  2  0  0  0  0  0  0
  189.2960  177.0810  146.9870 N   0  0  0  0  0  2  0  0  0  0  0  0
  191.8740  177.1500  145.9220 O   0  0  0  0  0  0  0  0  0  0  0  0
  191.6570  176.3900  146.9040 C   0  0  0  0  0  0  0  0  0  0  0  0
  190.3570  176.3120  147.4840 N   0  0  0  0  0  2  0  0  0  0  0  0
  192.6910  175.6250  147.4260 O   0  0  0  0  0  1  0  0  0  0  0  0
  1 30  1  0  0  0  0
  3  2  1  0  0  0  0
  3  1  2  0  0  0  0
  4  3  1  0  0  0  0
  5  4  1  0  0  0  0
  5  6  1  0  0  0  0
  6 15  1  1  0  0  0
  6  2  1  0  0  0  0
  7 10  2  0  0  0  0
  7  8  1  0  0  0  0
  8 12  2  0  0  0  0
 10 11  1  0  0  0  0
 11 14  1  0  0  0  0
 11  9  2  0  0  0  0
 12  9  1  0  0  0  0
 12  4  1  0  0  0  0
 13 14  1  0  0  0  0
 15 16  1  0  0  0  0
 16 17  1  0  0  0  0
 18 20  1  0  0  0  0
 18 17  1  1  0  0  0
 19 18  1  0  0  0  0
 19 20  1  0  0  0  0
 21 19  1  0  0  0  0
 22 21  1  0  0  0  0
 23 24  1  0  0  0  0
 23 22  1  0  0  0  0
 25 24  1  0  0  0  0
 26 25  1  0  0  0  0
 27 29  1  0  0  0  0
 27 26  1  0  0  0  0
 29 28  1  0  0  0  0
 30 31  1  0  0  0  0
 31 32  1  0  0  0  0
 33 32  1  0  0  0  0
 33 34  1  0  0  0  0
 34 35  1  0  0  0  0
 36 39  1  0  0  0  0
 36 35  1  0  0  0  0
 37 38  2  0  0  0  0
 38 40  1  0  0  0  0
 38 39  1  0  0  0  0
M  END
>  <MODEL>
4

>  <REMARK>
 VINA RESULT:      -6.3      1.881      6.016
  Name = 
  22 active torsions:
  status: ('A' for Active; 'I' for Inactive)
    1  A    between atoms: O_1  and  C_8
    2  A    between atoms: O_1  and  C_22
    3  A    between atoms: C_2  and  O_4
    4  A    between atoms: C_2  and  C_8
    5  A    between atoms: N_3  and  C_26
    6  A    between atoms: N_3  and  N_27
    7  A    between atoms: O_4  and  C_19
    8  A    between atoms: C_5  and  C_20
    9  A    between atoms: C_7  and  C_40
   10  A    between atoms: C_16  and  N_17
   11  A    between atoms: C_16  and  C_26
   12  A    between atoms: N_17  and  C_31
   13  A    between atoms: C_18  and  C_35
   14  A    between atoms: C_19  and  C_24
   15  A    between atoms: C_20  and  C_28
   16  A    between atoms: C_22  and  N_32
   17  A    between atoms: C_25  and  C_37
   18  A    between atoms: C_25  and  C_38
   19  A    between atoms: C_28  and  C_31
   20  A    between atoms: N_29  and  C_39
   21  A    between atoms: N_32  and  N_33
   22  A    between atoms: C_37  and  C_40
                            x       y       z     vdW  Elec       q    Type
                         _______ _______ _______ _____ _____    ______ ____

>  <TORSDO>
F 22

$$$$
=
 OpenBabel11042413063D

 40 42  0  0  1  0  0  0  0  0999 V2000
  188.5310  177.0920  142.8620 C   0  0  0  0  0  3  0  0  0  0  0  0
  186.5600  178.3160  142.3030 O   0  0  0  0  0  0  0  0  0  0  0  0
  187.3900  177.6960  143.1860 C   0  0  0  0  0  0  0  0  0  0  0  0
  186.8280  177.7880  144.4770 N   0  0  0  0  0  0  0  0  0  0  0  0
  185.5760  178.3240  144.3960 O   0  0  0  0  0  0  0  0  0  0  0  0
  185.4900  178.8540  143.0720 C   0  0  2  0  0  3  0  0  0  0  0  0
  187.5950  178.1990  148.1160 C   0  0  0  0  0  3  0  0  0  0  0  0
  186.9230  178.2270  146.8900 C   0  0  0  0  0  3  0  0  0  0  0  0
  188.8510  177.2460  145.8110 C   0  0  0  0  0  3  0  0  0  0  0  0
  188.8950  177.6950  148.1890 C   0  0  0  0  0  3  0  0  0  0  0  0
  189.5230  177.2140  147.0360 C   0  0  0  0  0  0  0  0  0  0  0  0
  187.5430  177.7520  145.7250 C   0  0  0  0  0  0  0  0  0  0  0  0
  191.6730  177.1580  145.9590 N   0  0  0  0  0  1  0  0  0  0  0  0
  190.9140  176.6910  147.1060 C   0  0  0  0  0  2  0  0  0  0  0  0
  184.1510  178.4800  142.4520 C   0  0  0  0  0  2  0  0  0  0  0  0
  183.0890  178.3010  143.5240 C   0  0  0  0  0  2  0  0  0  0  0  0
  182.1090  179.4590  143.4990 C   0  0  0  0  0  2  0  0  0  0  0  0
  180.8790  179.0670  142.7070 C   0  0  2  0  0  3  0  0  0  0  0  0
  180.6670  180.0430  141.6280 N   0  0  0  0  0  0  0  0  0  0  0  0
  179.8570  180.0940  142.8550 C   0  0  0  0  0  2  0  0  0  0  0  0
  179.8880  179.4000  140.6580 N   0  0  0  0  0  2  0  0  0  0  0  0
  180.2180  179.9980  139.3750 C   0  0  0  0  0  2  0  0  0  0  0  0
  180.6180  181.3210  139.5620 O   0  0  0  0  0  0  0  0  0  0  0  0
  181.3110  181.6490  138.3960 C   0  0  0  0  0  2  0  0  0  0  0  0
  180.7760  180.8340  137.2360 C   0  0  0  0  0  2  0  0  0  0  0  0
  180.8030  181.5970  136.0680 O   0  0  0  0  0  0  0  0  0  0  0  0
  180.5420  182.9000  136.4930 C   0  0  0  0  0  2  0  0  0  0  0  0
  181.3110  185.0800  135.8980 O   0  0  0  0  0  1  0  0  0  0  0  0
  180.8370  183.8780  135.3710 C   0  0  0  0  0  2  0  0  0  0  0  0
  189.0110  177.0480  141.4550 C   0  0  0  0  0  2  0  0  0  0  0  0
  190.5050  177.2930  141.4240 C   0  0  0  0  0  2  0  0  0  0  0  0
  190.9930  177.2260  139.9920 C   0  0  0  0  0  2  0  0  0  0  0  0
  190.5770  175.9670  139.3970 N   0  0  0  0  0  2  0  0  0  0  0  0
  190.6180  176.1360  137.9530 C   0  0  0  0  0  2  0  0  0  0  0  0
  189.4870  175.3600  137.2920 C   0  0  0  0  0  2  0  0  0  0  0  0
  188.5200  176.2830  136.7210 N   0  0  0  0  0  2  0  0  0  0  0  0
  187.1800  178.4830  137.7930 O   0  0  0  0  0  1  0  0  0  0  0  0
  188.3560  178.6510  137.3730 C   0  0  0  0  0  0  0  0  0  0  0  0
  189.0850  177.5630  136.8100 N   0  0  0  0  0  2  0  0  0  0  0  0
  188.9470  179.9050  137.4590 O   0  0  0  0  0  0  0  0  0  0  0  0
  1  3  2  0  0  0  0
  2  6  1  0  0  0  0
  2  3  1  0  0  0  0
  3  4  1  0  0  0  0
  4 12  1  0  0  0  0
  5  4  1  0  0  0  0
  6 15  1  6  0  0  0
  6  5  1  0  0  0  0
  7 10  1  0  0  0  0
  8  7  2  0  0  0  0
  9 11  1  0  0  0  0
 11 14  1  0  0  0  0
 11 10  2  0  0  0  0
 12  9  2  0  0  0  0
 12  8  1  0  0  0  0
 13 14  1  0  0  0  0
 15 16  1  0  0  0  0
 17 16  1  0  0  0  0
 18 20  1  0  0  0  0
 18 17  1  1  0  0  0
 19 18  1  0  0  0  0
 19 20  1  0  0  0  0
 21 19  1  0  0  0  0
 22 23  1  0  0  0  0
 22 21  1  0  0  0  0
 24 23  1  0  0  0  0
 25 24  1  0  0  0  0
 26 27  1  0  0  0  0
 26 25  1  0  0  0  0
 29 28  1  0  0  0  0
 29 27  1  0  0  0  0
 30  1  1  0  0  0  0
 31 30  1  0  0  0  0
 32 31  1  0  0  0  0
 33 32  1  0  0  0  0
 34 33  1  0  0  0  0
 35 34  1  0  0  0  0
 36 39  1  0  0  0  0
 36 35  1  0  0  0  0
 38 40  2  0  0  0  0
 38 37  1  0  0  0  0
 39 38  1  0  0  0  0
M  END
>  <MODEL>
5

>  <REMARK>
 VINA RESULT:      -6.3      3.009      7.180
  Name = 
  22 active torsions:
  status: ('A' for Active; 'I' for Inactive)
    1  A    between atoms: O_1  and  C_8
    2  A    between atoms: O_1  and  C_22
    3  A    between atoms: C_2  and  O_4
    4  A    between atoms: C_2  and  C_8
    5  A    between atoms: N_3  and  C_26
    6  A    between atoms: N_3  and  N_27
    7  A    between atoms: O_4  and  C_19
    8  A    between atoms: C_5  and  C_20
    9  A    between atoms: C_7  and  C_40
   10  A    between atoms: C_16  and  N_17
   11  A    between atoms: C_16  and  C_26
   12  A    between atoms: N_17  and  C_31
   13  A    between atoms: C_18  and  C_35
   14  A    between atoms: C_19  and  C_24
   15  A    between atoms: C_20  and  C_28
   16  A    between atoms: C_22  and  N_32
   17  A    between atoms: C_25  and  C_37
   18  A    between atoms: C_25  and  C_38
   19  A    between atoms: C_28  and  C_31
   20  A    between atoms: N_29  and  C_39
   21  A    between atoms: N_32  and  N_33
   22  A    between atoms: C_37  and  C_40
                            x       y       z     vdW  Elec       q    Type
                         _______ _______ _______ _____ _____    ______ ____

>  <TORSDO>
F 22

$$$$
=
 OpenBabel11042413063D

 40 42  0  0  1  0  0  0  0  0999 V2000
  187.1450  177.8920  143.0540 C   0  0  0  0  0  3  0  0  0  0  0  0
  185.0370  178.9250  143.4830 O   0  0  0  0  0  0  0  0  0  0  0  0
  186.1690  178.2780  143.8720 C   0  0  0  0  0  0  0  0  0  0  0  0
  186.1180  178.0760  145.2680 N   0  0  0  0  0  0  0  0  0  0  0  0
  184.8940  178.4500  145.7410 O   0  0  0  0  0  0  0  0  0  0  0  0
  184.2950  179.1810  144.6700 C   0  0  2  0  0  3  0  0  0  0  0  0
  188.1630  178.0370  148.4010 C   0  0  0  0  0  3  0  0  0  0  0  0
  187.0860  178.1830  147.5210 C   0  0  0  0  0  3  0  0  0  0  0  0
  188.5000  177.5120  145.6790 C   0  0  0  0  0  3  0  0  0  0  0  0
  189.4080  177.6290  147.9200 C   0  0  0  0  0  3  0  0  0  0  0  0
  189.5770  177.3620  146.5580 C   0  0  0  0  0  0  0  0  0  0  0  0
  187.2430  177.9220  146.1520 C   0  0  0  0  0  0  0  0  0  0  0  0
  191.1090  177.4920  144.7080 N   0  0  0  0  0  1  0  0  0  0  0  0
  190.9070  176.9430  146.0370 C   0  0  0  0  0  2  0  0  0  0  0  0
  182.8470  178.7460  144.4950 C   0  0  0  0  0  2  0  0  0  0  0  0
  182.3840  178.9690  143.0650 C   0  0  0  0  0  2  0  0  0  0  0  0
  180.9120  179.3330  143.0340 C   0  0  0  0  0  2  0  0  0  0  0  0
  180.1430  178.2790  142.2660 C   0  0  2  0  0  3  0  0  0  0  0  0
  180.4800  178.3790  140.8380 N   0  0  0  0  0  0  0  0  0  0  0  0
  179.2140  178.9260  141.3480 C   0  0  0  0  0  2  0  0  0  0  0  0
  180.1810  177.1330  140.2720 N   0  0  0  0  0  2  0  0  0  0  0  0
  181.1870  176.8700  139.2550 C   0  0  0  0  0  2  0  0  0  0  0  0
  182.4100  176.5870  139.8650 O   0  0  0  0  0  0  0  0  0  0  0  0
  183.3680  177.0990  138.9900 C   0  0  0  0  0  2  0  0  0  0  0  0
  183.3150  176.3470  137.6750 C   0  0  0  0  0  2  0  0  0  0  0  0
  184.4120  175.4900  137.5750 O   0  0  0  0  0  0  0  0  0  0  0  0
  183.8640  174.2090  137.6290 C   0  0  0  0  0  2  0  0  0  0  0  0
  186.1390  173.6340  137.1900 O   0  0  0  0  0  1  0  0  0  0  0  0
  184.9660  173.1820  137.7980 C   0  0  0  0  0  2  0  0  0  0  0  0
  187.0750  178.1510  141.5910 C   0  0  0  0  0  2  0  0  0  0  0  0
  188.4770  178.2240  141.0240 C   0  0  0  0  0  2  0  0  0  0  0  0
  189.2940  177.0670  141.5580 C   0  0  0  0  0  2  0  0  0  0  0  0
  190.6470  177.1460  141.0340 N   0  0  0  0  0  2  0  0  0  0  0  0
  190.5450  177.4890  139.6240 C   0  0  0  0  0  2  0  0  0  0  0  0
  190.5790  176.2320  138.7660 C   0  0  0  0  0  2  0  0  0  0  0  0
  189.4870  176.2570  137.8070 N   0  0  0  0  0  2  0  0  0  0  0  0
  186.9680  177.4350  137.5830 O   0  0  0  0  0  1  0  0  0  0  0  0
  187.9800  178.1520  137.3610 C   0  0  0  0  0  0  0  0  0  0  0  0
  189.2910  177.6000  137.4550 N   0  0  0  0  0  2  0  0  0  0  0  0
  187.8180  179.4890  137.0230 O   0  0  0  0  0  0  0  0  0  0  0  0
  1  3  2  0  0  0  0
  2  3  1  0  0  0  0
  2  6  1  0  0  0  0
  3  4  1  0  0  0  0
  4  5  1  0  0  0  0
  4 12  1  0  0  0  0
  6 15  1  6  0  0  0
  6  5  1  0  0  0  0
  8  7  2  0  0  0  0
  9 12  2  0  0  0  0
  9 11  1  0  0  0  0
 10  7  1  0  0  0  0
 11 10  2  0  0  0  0
 12  8  1  0  0  0  0
 13 14  1  0  0  0  0
 14 11  1  0  0  0  0
 16 15  1  0  0  0  0
 17 16  1  0  0  0  0
 18 17  1  1  0  0  0
 19 20  1  0  0  0  0
 19 18  1  0  0  0  0
 20 18  1  0  0  0  0
 21 19  1  0  0  0  0
 22 23  1  0  0  0  0
 22 21  1  0  0  0  0
 24 23  1  0  0  0  0
 25 24  1  0  0  0  0
 26 27  1  0  0  0  0
 26 25  1  0  0  0  0
 27 29  1  0  0  0  0
 28 29  1  0  0  0  0
 30  1  1  0  0  0  0
 31 32  1  0  0  0  0
 31 30  1  0  0  0  0
 33 32  1  0  0  0  0
 34 33  1  0  0  0  0
 35 34  1  0  0  0  0
 36 35  1  0  0  0  0
 38 39  1  0  0  0  0
 38 37  1  0  0  0  0
 39 36  1  0  0  0  0
 40 38  2  0  0  0  0
M  END
>  <MODEL>
6

>  <REMARK>
 VINA RESULT:      -6.3      2.665      6.125
  Name = 
  22 active torsions:
  status: ('A' for Active; 'I' for Inactive)
    1  A    between atoms: O_1  and  C_8
    2  A    between atoms: O_1  and  C_22
    3  A    between atoms: C_2  and  O_4
    4  A    between atoms: C_2  and  C_8
    5  A    between atoms: N_3  and  C_26
    6  A    between atoms: N_3  and  N_27
    7  A    between atoms: O_4  and  C_19
    8  A    between atoms: C_5  and  C_20
    9  A    between atoms: C_7  and  C_40
   10  A    between atoms: C_16  and  N_17
   11  A    between atoms: C_16  and  C_26
   12  A    between atoms: N_17  and  C_31
   13  A    between atoms: C_18  and  C_35
   14  A    between atoms: C_19  and  C_24
   15  A    between atoms: C_20  and  C_28
   16  A    between atoms: C_22  and  N_32
   17  A    between atoms: C_25  and  C_37
   18  A    between atoms: C_25  and  C_38
   19  A    between atoms: C_28  and  C_31
   20  A    between atoms: N_29  and  C_39
   21  A    between atoms: N_32  and  N_33
   22  A    between atoms: C_37  and  C_40
                            x       y       z     vdW  Elec       q    Type
                         _______ _______ _______ _____ _____    ______ ____

>  <TORSDO>
F 22

$$$$
=
 OpenBabel11042413063D

 40 42  0  0  1  0  0  0  0  0999 V2000
  188.5380  177.2600  142.7040 C   0  0  0  0  0  3  0  0  0  0  0  0
  186.4600  178.3340  142.2320 O   0  0  0  0  0  0  0  0  0  0  0  0
  187.3560  177.7480  143.0720 C   0  0  0  0  0  0  0  0  0  0  0  0
  186.8120  177.7320  144.3750 N   0  0  0  0  0  0  0  0  0  0  0  0
  185.5170  178.1610  144.3370 O   0  0  0  0  0  0  0  0  0  0  0  0
  185.3620  178.7420  143.0410 C   0  0  2  0  0  3  0  0  0  0  0  0
  187.6200  178.0770  148.0110 C   0  0  0  0  0  3  0  0  0  0  0  0
  186.9250  178.1030  146.7980 C   0  0  0  0  0  3  0  0  0  0  0  0
  188.8860  177.2670  145.6580 C   0  0  0  0  0  3  0  0  0  0  0  0
  188.9470  177.6460  148.0480 C   0  0  0  0  0  3  0  0  0  0  0  0
  189.5810  177.2370  146.8700 C   0  0  0  0  0  0  0  0  0  0  0  0
  187.5500  177.6990  145.6090 C   0  0  0  0  0  0  0  0  0  0  0  0
  191.4800  176.5840  145.5450 N   0  0  0  0  0  1  0  0  0  0  0  0
  191.0010  176.7940  146.9010 C   0  0  0  0  0  2  0  0  0  0  0  0
  184.0490  178.2840  142.4230 C   0  0  0  0  0  2  0  0  0  0  0  0
  183.9250  178.7710  140.9890 C   0  0  0  0  0  2  0  0  0  0  0  0
  182.6660  178.2190  140.3480 C   0  0  0  0  0  2  0  0  0  0  0  0
  182.8910  176.7780  139.9430 C   0  0  2  0  0  3  0  0  0  0  0  0
  182.5070  176.6060  138.5340 N   0  0  0  0  0  0  0  0  0  0  0  0
  181.6140  176.1590  139.6140 C   0  0  0  0  0  2  0  0  0  0  0  0
  183.1830  175.4680  138.0750 N   0  0  0  0  0  2  0  0  0  0  0  0
  184.0490  175.8920  136.9860 C   0  0  0  0  0  2  0  0  0  0  0  0
  184.9930  174.9000  136.7220 O   0  0  0  0  0  0  0  0  0  0  0  0
  185.6720  175.3520  135.5900 C   0  0  0  0  0  2  0  0  0  0  0  0
  187.1670  175.3120  135.8400 C   0  0  0  0  0  2  0  0  0  0  0  0
  187.6490  176.6070  136.0340 O   0  0  0  0  0  0  0  0  0  0  0  0
  187.9410  176.6740  137.3960 C   0  0  0  0  0  2  0  0  0  0  0  0
  186.7160  178.7220  137.4640 O   0  0  0  0  0  1  0  0  0  0  0  0
  187.9100  178.1170  137.8620 C   0  0  0  0  0  2  0  0  0  0  0  0
  188.9940  177.3230  141.2900 C   0  0  0  0  0  2  0  0  0  0  0  0
  190.4060  176.7850  141.1910 C   0  0  0  0  0  2  0  0  0  0  0  0
  190.9830  177.1410  139.8360 C   0  0  0  0  0  2  0  0  0  0  0  0
  191.0870  175.9410  139.0230 N   0  0  0  0  0  2  0  0  0  0  0  0
  191.6610  176.3330  137.7460 C   0  0  0  0  0  2  0  0  0  0  0  0
  193.1810  176.3580  137.8290 C   0  0  0  0  0  2  0  0  0  0  0  0
  193.6970  175.0000  137.8860 N   0  0  0  0  0  2  0  0  0  0  0  0
  195.4400  173.1410  139.0220 O   0  0  0  0  0  1  0  0  0  0  0  0
  195.9370  174.1140  138.3930 C   0  0  0  0  0  0  0  0  0  0  0  0
  195.0930  175.0970  137.7980 N   0  0  0  0  0  2  0  0  0  0  0  0
  197.3160  174.2290  138.2790 O   0  0  0  0  0  0  0  0  0  0  0  0
  1  3  2  0  0  0  0
  2  6  1  0  0  0  0
  2  3  1  0  0  0  0
  3  4  1  0  0  0  0
  4 12  1  0  0  0  0
  5  4  1  0  0  0  0
  6 15  1  6  0  0  0
  6  5  1  0  0  0  0
  7 10  1  0  0  0  0
  8  7  2  0  0  0  0
  9 11  1  0  0  0  0
 11 14  1  0  0  0  0
 11 10  2  0  0  0  0
 12  9  2  0  0  0  0
 12  8  1  0  0  0  0
 13 14  1  0  0  0  0
 16 15  1  0  0  0  0
 17 16  1  0  0  0  0
 18 17  1  1  0  0  0
 19 20  1  0  0  0  0
 19 18  1  0  0  0  0
 20 18  1  0  0  0  0
 21 19  1  0  0  0  0
 22 21  1  0  0  0  0
 23 22  1  0  0  0  0
 24 25  1  0  0  0  0
 24 23  1  0  0  0  0
 25 26  1  0  0  0  0
 26 27  1  0  0  0  0
 27 29  1  0  0  0  0
 28 29  1  0  0  0  0
 30  1  1  0  0  0  0
 31 30  1  0  0  0  0
 32 31  1  0  0  0  0
 33 32  1  0  0  0  0
 34 35  1  0  0  0  0
 34 33  1  0  0  0  0
 35 36  1  0  0  0  0
 38 37  1  0  0  0  0
 39 36  1  0  0  0  0
 39 38  1  0  0  0  0
 40 38  2  0  0  0  0
M  END
>  <MODEL>
7

>  <REMARK>
 VINA RESULT:      -6.3      2.904      5.875
  Name = 
  22 active torsions:
  status: ('A' for Active; 'I' for Inactive)
    1  A    between atoms: O_1  and  C_8
    2  A    between atoms: O_1  and  C_22
    3  A    between atoms: C_2  and  O_4
    4  A    between atoms: C_2  and  C_8
    5  A    between atoms: N_3  and  C_26
    6  A    between atoms: N_3  and  N_27
    7  A    between atoms: O_4  and  C_19
    8  A    between atoms: C_5  and  C_20
    9  A    between atoms: C_7  and  C_40
   10  A    between atoms: C_16  and  N_17
   11  A    between atoms: C_16  and  C_26
   12  A    between atoms: N_17  and  C_31
   13  A    between atoms: C_18  and  C_35
   14  A    between atoms: C_19  and  C_24
   15  A    between atoms: C_20  and  C_28
   16  A    between atoms: C_22  and  N_32
   17  A    between atoms: C_25  and  C_37
   18  A    between atoms: C_25  and  C_38
   19  A    between atoms: C_28  and  C_31
   20  A    between atoms: N_29  and  C_39
   21  A    between atoms: N_32  and  N_33
   22  A    between atoms: C_37  and  C_40
                            x       y       z     vdW  Elec       q    Type
                         _______ _______ _______ _____ _____    ______ ____

>  <TORSDO>
F 22

$$$$
=
 OpenBabel11042413063D

 40 42  0  0  1  0  0  0  0  0999 V2000
  188.1190  177.0050  142.7770 C   0  0  0  0  0  3  0  0  0  0  0  0
  187.0770  178.4430  141.1850 O   0  0  0  0  0  0  0  0  0  0  0  0
  187.1420  177.8220  142.3940 C   0  0  0  0  0  0  0  0  0  0  0  0
  186.0020  178.1770  143.1470 N   0  0  0  0  0  0  0  0  0  0  0  0
  185.1410  178.8910  142.3670 O   0  0  0  0  0  0  0  0  0  0  0  0
  185.9010  179.2450  141.2100 C   0  0  2  0  0  3  0  0  0  0  0  0
  184.5740  178.6420  146.5730 C   0  0  0  0  0  3  0  0  0  0  0  0
  184.7020  178.6190  145.1810 C   0  0  0  0  0  3  0  0  0  0  0  0
  186.9620  177.7890  145.4040 C   0  0  0  0  0  3  0  0  0  0  0  0
  185.6390  178.2370  147.3800 C   0  0  0  0  0  3  0  0  0  0  0  0
  186.8340  177.8070  146.7950 C   0  0  0  0  0  0  0  0  0  0  0  0
  185.8970  178.1940  144.5820 C   0  0  0  0  0  0  0  0  0  0  0  0
  188.5550  178.5560  148.3000 N   0  0  0  0  0  1  0  0  0  0  0  0
  187.9770  177.3910  147.6510 C   0  0  0  0  0  2  0  0  0  0  0  0
  185.0720  179.0120  139.9550 C   0  0  0  0  0  2  0  0  0  0  0  0
  183.6050  178.8230  140.3030 C   0  0  0  0  0  2  0  0  0  0  0  0
  182.8850  178.0960  139.1840 C   0  0  0  0  0  2  0  0  0  0  0  0
  183.7740  177.0010  138.6330 C   0  0  2  0  0  3  0  0  0  0  0  0
  184.0060  177.2420  137.2010 N   0  0  0  0  0  0  0  0  0  0  0  0
  183.0380  176.2260  137.6430 C   0  0  0  0  0  2  0  0  0  0  0  0
  185.1830  176.5570  136.8690 N   0  0  0  0  0  2  0  0  0  0  0  0
  186.0680  177.5140  136.2240 C   0  0  0  0  0  2  0  0  0  0  0  0
  186.6980  178.2980  137.1910 O   0  0  0  0  0  0  0  0  0  0  0  0
  188.0120  178.4280  136.7390 C   0  0  0  0  0  2  0  0  0  0  0  0
  188.9430  178.6170  137.9210 C   0  0  0  0  0  2  0  0  0  0  0  0
  190.0470  177.7730  137.7940 O   0  0  0  0  0  0  0  0  0  0  0  0
  189.6190  176.5530  138.3170 C   0  0  0  0  0  2  0  0  0  0  0  0
  191.4350  175.8350  136.9430 O   0  0  0  0  0  1  0  0  0  0  0  0
  190.2480  175.4100  137.5440 C   0  0  0  0  0  2  0  0  0  0  0  0
  189.2660  176.6950  141.8820 C   0  0  0  0  0  2  0  0  0  0  0  0
  190.1940  177.8890  141.8190 C   0  0  0  0  0  2  0  0  0  0  0  0
  191.6250  177.4200  141.9810 C   0  0  0  0  0  2  0  0  0  0  0  0
  192.0530  177.6390  143.3520 N   0  0  0  0  0  2  0  0  0  0  0  0
  191.2820  178.7570  143.8730 C   0  0  0  0  0  2  0  0  0  0  0  0
  190.5250  178.3440  145.1280 C   0  0  0  0  0  2  0  0  0  0  0  0
  190.8600  176.9750  145.4830 N   0  0  0  0  0  2  0  0  0  0  0  0
  192.4320  174.9110  146.5090 O   0  0  0  0  0  0  0  0  0  0  0  0
  192.2710  175.9420  147.2160 C   0  0  0  0  0  0  0  0  0  0  0  0
  191.4720  177.0240  146.7430 N   0  0  0  0  0  2  0  0  0  0  0  0
  192.8750  176.0250  148.4630 O   0  0  0  0  0  1  0  0  0  0  0  0
  2  6  1  0  0  0  0
  2  3  1  0  0  0  0
  3  1  2  0  0  0  0
  3  4  1  0  0  0  0
  4 12  1  0  0  0  0
  5  4  1  0  0  0  0
  6 15  1  6  0  0  0
  6  5  1  0  0  0  0
  7 10  1  0  0  0  0
  8  7  2  0  0  0  0
  9 11  1  0  0  0  0
 11 10  2  0  0  0  0
 11 14  1  0  0  0  0
 12  8  1  0  0  0  0
 12  9  2  0  0  0  0
 14 13  1  0  0  0  0
 15 16  1  0  0  0  0
 17 16  1  0  0  0  0
 18 17  1  6  0  0  0
 19 20  1  0  0  0  0
 19 18  1  0  0  0  0
 20 18  1  0  0  0  0
 21 19  1  0  0  0  0
 22 21  1  0  0  0  0
 22 23  1  0  0  0  0
 24 23  1  0  0  0  0
 24 25  1  0  0  0  0
 26 25  1  0  0  0  0
 26 27  1  0  0  0  0
 28 29  1  0  0  0  0
 29 27  1  0  0  0  0
 30  1  1  0  0  0  0
 31 30  1  0  0  0  0
 31 32  1  0  0  0  0
 32 33  1  0  0  0  0
 33 34  1  0  0  0  0
 34 35  1  0  0  0  0
 35 36  1  0  0  0  0
 36 39  1  0  0  0  0
 37 38  2  0  0  0  0
 38 40  1  0  0  0  0
 39 38  1  0  0  0  0
M  END
>  <MODEL>
8

>  <REMARK>
 VINA RESULT:      -6.1      1.826      4.338
  Name = 
  22 active torsions:
  status: ('A' for Active; 'I' for Inactive)
    1  A    between atoms: O_1  and  C_8
    2  A    between atoms: O_1  and  C_22
    3  A    between atoms: C_2  and  O_4
    4  A    between atoms: C_2  and  C_8
    5  A    between atoms: N_3  and  C_26
    6  A    between atoms: N_3  and  N_27
    7  A    between atoms: O_4  and  C_19
    8  A    between atoms: C_5  and  C_20
    9  A    between atoms: C_7  and  C_40
   10  A    between atoms: C_16  and  N_17
   11  A    between atoms: C_16  and  C_26
   12  A    between atoms: N_17  and  C_31
   13  A    between atoms: C_18  and  C_35
   14  A    between atoms: C_19  and  C_24
   15  A    between atoms: C_20  and  C_28
   16  A    between atoms: C_22  and  N_32
   17  A    between atoms: C_25  and  C_37
   18  A    between atoms: C_25  and  C_38
   19  A    between atoms: C_28  and  C_31
   20  A    between atoms: N_29  and  C_39
   21  A    between atoms: N_32  and  N_33
   22  A    between atoms: C_37  and  C_40
                            x       y       z     vdW  Elec       q    Type
                         _______ _______ _______ _____ _____    ______ ____

>  <TORSDO>
F 22

$$$$
=
 OpenBabel11042413063D

 40 42  0  0  1  0  0  0  0  0999 V2000
  187.6160  178.2350  142.0180 C   0  0  0  0  0  3  0  0  0  0  0  0
  186.6230  178.6630  139.8910 O   0  0  0  0  0  0  0  0  0  0  0  0
  186.5600  178.3860  141.2220 C   0  0  0  0  0  0  0  0  0  0  0  0
  185.2050  178.2700  141.5970 N   0  0  0  0  0  0  0  0  0  0  0  0
  184.4150  178.3170  140.4860 O   0  0  0  0  0  0  0  0  0  0  0  0
  185.2760  178.7780  139.4440 C   0  0  2  0  0  3  0  0  0  0  0  0
  182.7680  179.1250  144.3040 C   0  0  0  0  0  3  0  0  0  0  0  0
  183.3230  178.9030  143.0410 C   0  0  0  0  0  3  0  0  0  0  0  0
  185.4300  178.3150  144.0690 C   0  0  0  0  0  3  0  0  0  0  0  0
  183.5440  178.9430  145.4510 C   0  0  0  0  0  3  0  0  0  0  0  0
  184.8760  178.5330  145.3340 C   0  0  0  0  0  0  0  0  0  0  0  0
  184.6590  178.4960  142.9100 C   0  0  0  0  0  0  0  0  0  0  0  0
  185.6880  179.5690  147.3480 N   0  0  0  0  0  1  0  0  0  0  0  0
  185.7120  178.3540  146.5520 C   0  0  0  0  0  2  0  0  0  0  0  0
  185.0610  177.9450  138.1880 C   0  0  0  0  0  2  0  0  0  0  0  0
  186.2990  177.9610  137.3080 C   0  0  0  0  0  2  0  0  0  0  0  0
  186.7830  176.5470  137.0470 C   0  0  0  0  0  2  0  0  0  0  0  0
  188.2530  176.5720  136.6840 C   0  0  2  0  0  3  0  0  0  0  0  0
  189.0130  175.8250  137.6970 N   0  0  0  0  0  0  0  0  0  0  0  0
  188.9950  177.2960  137.7070 C   0  0  0  0  0  2  0  0  0  0  0  0
  190.2150  175.4420  137.0880 N   0  0  0  0  0  2  0  0  0  0  0  0
  190.1700  173.9980  136.9180 C   0  0  0  0  0  2  0  0  0  0  0  0
  191.4350  173.5260  136.5660 O   0  0  0  0  0  0  0  0  0  0  0  0
  192.0090  174.5670  135.8360 C   0  0  0  0  0  2  0  0  0  0  0  0
  193.4980  174.6290  136.1160 C   0  0  0  0  0  2  0  0  0  0  0  0
  193.8340  173.6950  137.0980 O   0  0  0  0  0  0  0  0  0  0  0  0
  194.6680  174.3890  137.9730 C   0  0  0  0  0  2  0  0  0  0  0  0
  196.9430  175.0080  138.3520 O   0  0  0  0  0  1  0  0  0  0  0  0
  196.0800  174.4290  137.4200 C   0  0  0  0  0  2  0  0  0  0  0  0
  189.0030  178.3670  141.4970 C   0  0  0  0  0  2  0  0  0  0  0  0
  189.9720  177.7350  142.4740 C   0  0  0  0  0  2  0  0  0  0  0  0
  190.1480  176.2720  142.1280 C   0  0  0  0  0  2  0  0  0  0  0  0
  191.0410  175.6500  143.0910 N   0  0  0  0  0  2  0  0  0  0  0  0
  191.4380  176.6800  144.0390 C   0  0  0  0  0  2  0  0  0  0  0  0
  191.7060  176.0700  145.4080 C   0  0  0  0  0  2  0  0  0  0  0  0
  191.6670  177.1040  146.4280 N   0  0  0  0  0  2  0  0  0  0  0  0
  188.9950  177.8720  146.1920 O   0  0  0  0  0  0  0  0  0  0  0  0
  189.3200  177.1470  147.1700 C   0  0  0  0  0  0  0  0  0  0  0  0
  190.6730  176.7300  147.3430 N   0  0  0  0  0  2  0  0  0  0  0  0
  188.3550  176.7500  148.0860 O   0  0  0  0  0  1  0  0  0  0  0  0
  2  3  1  0  0  0  0
  3  4  1  0  0  0  0
  3  1  2  0  0  0  0
  4 12  1  0  0  0  0
  5  4  1  0  0  0  0
  6 15  1  6  0  0  0
  6  2  1  0  0  0  0
  6  5  1  0  0  0  0
  7 10  1  0  0  0  0
  8  7  2  0  0  0  0
  9 11  1  0  0  0  0
 11 10  2  0  0  0  0
 11 14  1  0  0  0  0
 12  8  1  0  0  0  0
 12  9  2  0  0  0  0
 14 13  1  0  0  0  0
 16 15  1  0  0  0  0
 17 16  1  0  0  0  0
 18 17  1  1  0  0  0
 18 19  1  0  0  0  0
 18 20  1  0  0  0  0
 19 20  1  0  0  0  0
 21 19  1  0  0  0  0
 22 21  1  0  0  0  0
 23 22  1  0  0  0  0
 24 25  1  0  0  0  0
 24 23  1  0  0  0  0
 25 26  1  0  0  0  0
 26 27  1  0  0  0  0
 29 27  1  0  0  0  0
 29 28  1  0  0  0  0
 30  1  1  0  0  0  0
 30 31  1  0  0  0  0
 32 31  1  0  0  0  0
 32 33  1  0  0  0  0
 33 34  1  0  0  0  0
 34 35  1  0  0  0  0
 35 36  1  0  0  0  0
 36 39  1  0  0  0  0
 37 38  2  0  0  0  0
 38 39  1  0  0  0  0
 38 40  1  0  0  0  0
M  END
>  <MODEL>
9

>  <REMARK>
 VINA RESULT:      -6.1      3.010      5.915
  Name = 
  22 active torsions:
  status: ('A' for Active; 'I' for Inactive)
    1  A    between atoms: O_1  and  C_8
    2  A    between atoms: O_1  and  C_22
    3  A    between atoms: C_2  and  O_4
    4  A    between atoms: C_2  and  C_8
    5  A    between atoms: N_3  and  C_26
    6  A    between atoms: N_3  and  N_27
    7  A    between atoms: O_4  and  C_19
    8  A    between atoms: C_5  and  C_20
    9  A    between atoms: C_7  and  C_40
   10  A    between atoms: C_16  and  N_17
   11  A    between atoms: C_16  and  C_26
   12  A    between atoms: N_17  and  C_31
   13  A    between atoms: C_18  and  C_35
   14  A    between atoms: C_19  and  C_24
   15  A    between atoms: C_20  and  C_28
   16  A    between atoms: C_22  and  N_32
   17  A    between atoms: C_25  and  C_37
   18  A    between atoms: C_25  and  C_38
   19  A    between atoms: C_28  and  C_31
   20  A    between atoms: N_29  and  C_39
   21  A    between atoms: N_32  and  N_33
   22  A    between atoms: C_37  and  C_40
                            x       y       z     vdW  Elec       q    Type
                         _______ _______ _______ _____ _____    ______ ____

>  <TORSDO>
F 22

$$$$
