=
 OpenBabel11042412193D

 34 35  0  0  1  0  0  0  0  0999 V2000
  184.8960  178.2420  138.0820 C   0  0  1  0  0  3  0  0  0  0  0  0
  186.4360  178.6160  139.6910 C   0  0  0  0  0  0  0  0  0  0  0  0
  185.2070  179.1890  140.3000 C   0  0  1  0  0  3  0  0  0  0  0  0
  188.4210  178.0980  142.6370 O   0  0  0  0  0  0  0  0  0  0  0  0
  184.3410  176.8780  137.7160 C   0  0  0  0  0  1  0  0  0  0  0  0
  184.1910  178.7770  139.2870 C   0  0  0  0  0  0  0  0  0  0  0  0
  186.0520  178.3080  142.4740 C   0  0  0  0  0  0  0  0  0  0  0  0
  185.8420  177.8580  144.1670 Cl  0  0  0  0  0  0  0  0  0  0  0  0
  186.2760  178.1010  138.5190 N   0  0  0  0  0  0  0  0  0  0  0  0
  183.6210  178.7000  142.2920 C   0  0  0  0  0  1  0  0  0  0  0  0
  184.9930  178.6450  141.7010 C   0  0  0  0  0  0  0  0  0  0  0  0
  183.0450  179.3940  139.1830 C   0  0  0  0  0  0  0  0  0  0  0  0
  187.5910  178.3530  140.4790 N   0  0  0  0  0  2  0  0  0  0  0  0
  187.4180  178.2650  141.8960 C   0  0  0  0  0  0  0  0  0  0  0  0
  181.9020  180.0160  139.0680 C   0  0  0  0  0  0  0  0  0  0  0  0
  182.6840  182.2360  138.7050 O   0  0  0  0  0  0  0  0  0  0  0  0
  181.8380  181.3480  138.4160 C   0  0  0  0  0  0  0  0  0  0  0  0
  180.7870  181.6740  137.4040 C   0  0  0  0  0  2  0  0  0  0  0  0
  179.8770  182.6750  137.9380 N   0  0  0  0  0  2  0  0  0  0  0  0
  180.6980  184.3860  136.5810 O   0  0  0  0  0  0  0  0  0  0  0  0
  179.8670  184.0190  137.4560 C   0  0  0  0  0  0  0  0  0  0  0  0
  178.9310  184.9180  137.9650 O   0  0  0  0  0  0  0  0  0  0  0  0
  179.3180  186.0530  138.7250 C   0  0  0  0  0  1  0  0  0  0  0  0
  180.6730  179.3140  139.5820 C   0  0  2  0  0  3  0  0  0  0  0  0
  180.1160  180.6380  141.5860 O   0  0  0  0  0  0  0  0  0  0  0  0
  180.5590  179.4600  141.0290 N   0  0  0  0  0  0  0  0  0  0  0  0
  180.7340  178.4640  141.7600 O   0  0  0  0  0  0  0  0  0  0  0  0
  180.5720  177.8490  139.1440 C   0  0  2  0  0  3  0  0  0  0  0  0
  180.6370  177.7360  137.6280 C   0  0  0  0  0  1  0  0  0  0  0  0
  179.3180  177.2750  139.6140 N   0  0  0  0  0  2  0  0  0  0  0  0
  178.9340  175.2130  141.2340 O   0  0  0  0  0  0  0  0  0  0  0  0
  179.5870  175.5930  139.9350 S   0  0  0  0  0  0  0  0  0  0  0  0
  178.9310  174.6320  138.6560 N   0  0  0  0  0  1  0  0  0  0  0  0
  181.0650  175.3420  140.0330 O   0  0  0  0  0  0  0  0  0  0  0  0
  1  5  1  1  0  0  0
  1  9  1  0  0  0  0
  1  6  1  0  0  0  0
  2  3  1  0  0  0  0
  2 13  1  0  0  0  0
  3  6  1  6  0  0  0
  3 11  1  0  0  0  0
  7  8  1  0  0  0  0
  9  2  2  0  0  0  0
 11 10  1  0  0  0  0
 11  7  2  0  0  0  0
 12  6  2  0  0  0  0
 13 14  1  0  0  0  0
 14  7  1  0  0  0  0
 14  4  2  0  0  0  0
 15 12  2  0  0  0  0
 17 16  2  0  0  0  0
 17 15  1  0  0  0  0
 18 19  1  0  0  0  0
 18 17  1  0  0  0  0
 20 21  2  0  0  0  0
 21 19  1  0  0  0  0
 21 22  1  0  0  0  0
 22 23  1  0  0  0  0
 24 15  1  1  0  0  0
 24 26  1  0  0  0  0
 26 25  2  0  0  0  0
 26 27  2  0  0  0  0
 28 29  1  6  0  0  0
 28 24  1  0  0  0  0
 28 30  1  0  0  0  0
 30 32  1  0  0  0  0
 32 34  2  0  0  0  0
 32 31  2  0  0  0  0
 33 32  1  0  0  0  0
M  END
>  <MODEL>
1

>  <REMARK>
 VINA RESULT:      -6.0      0.000      0.000
  Name = 
  9 active torsions:
  status: ('A' for Active; 'I' for Inactive)
    1  A    between atoms: O_1  and  C_34
    2  A    between atoms: N_3  and  C_5
    3  A    between atoms: S_4  and  N_18
    4  A    between atoms: C_5  and  C_30
    5  A    between atoms: N_10  and  C_21
    6  A    between atoms: C_13  and  N_18
    7  A    between atoms: C_13  and  C_21
    8  A    between atoms: C_21  and  C_33
    9  A    between atoms: C_30  and  C_33
                            x       y       z     vdW  Elec       q    Type
                         _______ _______ _______ _____ _____    ______ ____

>  <TORSDO>
F 9

$$$$
=
 OpenBabel11042412193D

 34 35  0  0  1  0  0  0  0  0999 V2000
  182.7620  179.3110  138.9850 C   0  0  1  0  0  3  0  0  0  0  0  0
  182.3420  178.6630  141.1080 C   0  0  0  0  0  0  0  0  0  0  0  0
  183.6960  178.0950  140.8740 C   0  0  1  0  0  3  0  0  0  0  0  0
  182.2910  178.7190  144.6970 O   0  0  0  0  0  0  0  0  0  0  0  0
  183.0470  180.7370  138.5570 C   0  0  0  0  0  1  0  0  0  0  0  0
  184.0020  178.6800  139.5360 C   0  0  0  0  0  0  0  0  0  0  0  0
  184.1850  178.6680  143.2500 C   0  0  0  0  0  0  0  0  0  0  0  0
  185.2900  178.9300  144.6010 Cl  0  0  0  0  0  0  0  0  0  0  0  0
  181.8450  179.3180  140.1140 N   0  0  0  0  0  0  0  0  0  0  0  0
  186.1190  178.4420  141.7310 C   0  0  0  0  0  1  0  0  0  0  0  0
  184.6470  178.4850  141.9910 C   0  0  0  0  0  0  0  0  0  0  0  0
  184.8960  178.1480  138.7480 C   0  0  0  0  0  0  0  0  0  0  0  0
  181.8070  178.7650  142.4230 N   0  0  0  0  0  2  0  0  0  0  0  0
  182.7260  178.6980  143.5160 C   0  0  0  0  0  0  0  0  0  0  0  0
  185.7840  177.6110  137.9530 C   0  0  0  0  0  0  0  0  0  0  0  0
  186.1440  175.3260  137.3870 O   0  0  0  0  0  0  0  0  0  0  0  0
  185.4620  176.3690  137.2050 C   0  0  0  0  0  0  0  0  0  0  0  0
  184.3300  176.3150  136.2300 C   0  0  0  0  0  2  0  0  0  0  0  0
  183.6000  175.0670  136.3860 N   0  0  0  0  0  2  0  0  0  0  0  0
  182.2110  175.8950  138.0670 O   0  0  0  0  0  0  0  0  0  0  0  0
  182.5220  174.9330  137.3130 C   0  0  0  0  0  0  0  0  0  0  0  0
  181.8220  173.7290  137.3740 O   0  0  0  0  0  0  0  0  0  0  0  0
  182.3470  172.5280  136.8290 C   0  0  0  0  0  1  0  0  0  0  0  0
  187.1040  178.3180  137.8040 C   0  0  2  0  0  3  0  0  0  0  0  0
  187.1120  178.2420  135.3400 O   0  0  0  0  0  0  0  0  0  0  0  0
  187.1990  178.9720  136.5030 N   0  0  0  0  0  0  0  0  0  0  0  0
  187.2220  180.2180  136.4440 O   0  0  0  0  0  0  0  0  0  0  0  0
  188.3180  177.4250  138.0860 C   0  0  2  0  0  3  0  0  0  0  0  0
  188.7000  177.4880  139.5580 C   0  0  0  0  0  1  0  0  0  0  0  0
  189.4500  177.8540  137.2780 N   0  0  0  0  0  2  0  0  0  0  0  0
  191.6650  176.4670  137.7170 O   0  0  0  0  0  0  0  0  0  0  0  0
  190.4010  176.4540  136.9030 S   0  0  0  0  0  0  0  0  0  0  0  0
  189.5050  175.0170  137.2500 N   0  0  0  0  0  1  0  0  0  0  0  0
  190.7540  176.4760  135.4430 O   0  0  0  0  0  0  0  0  0  0  0  0
  1  5  1  1  0  0  0
  1  6  1  0  0  0  0
  1  9  1  0  0  0  0
  2 13  1  0  0  0  0
  3  6  1  6  0  0  0
  3  2  1  0  0  0  0
  3 11  1  0  0  0  0
  7 14  1  0  0  0  0
  7  8  1  0  0  0  0
  9  2  2  0  0  0  0
 10 11  1  0  0  0  0
 11  7  2  0  0  0  0
 12  6  2  0  0  0  0
 13 14  1  0  0  0  0
 14  4  2  0  0  0  0
 15 12  2  0  0  0  0
 17 16  2  0  0  0  0
 17 15  1  0  0  0  0
 18 19  1  0  0  0  0
 18 17  1  0  0  0  0
 19 21  1  0  0  0  0
 21 22  1  0  0  0  0
 21 20  2  0  0  0  0
 23 22  1  0  0  0  0
 24 15  1  6  0  0  0
 24 28  1  0  0  0  0
 25 26  2  0  0  0  0
 26 24  1  0  0  0  0
 27 26  2  0  0  0  0
 28 29  1  1  0  0  0
 30 28  1  0  0  0  0
 32 33  1  0  0  0  0
 32 30  1  0  0  0  0
 32 31  2  0  0  0  0
 34 32  2  0  0  0  0
M  END
>  <MODEL>
2

>  <REMARK>
 VINA RESULT:      -5.6      4.169      7.626
  Name = 
  9 active torsions:
  status: ('A' for Active; 'I' for Inactive)
    1  A    between atoms: O_1  and  C_34
    2  A    between atoms: N_3  and  C_5
    3  A    between atoms: S_4  and  N_18
    4  A    between atoms: C_5  and  C_30
    5  A    between atoms: N_10  and  C_21
    6  A    between atoms: C_13  and  N_18
    7  A    between atoms: C_13  and  C_21
    8  A    between atoms: C_21  and  C_33
    9  A    between atoms: C_30  and  C_33
                            x       y       z     vdW  Elec       q    Type
                         _______ _______ _______ _____ _____    ______ ____

>  <TORSDO>
F 9

$$$$
=
 OpenBabel11042412193D

 34 35  0  0  1  0  0  0  0  0999 V2000
  185.4110  176.6110  136.5270 C   0  0  1  0  0  3  0  0  0  0  0  0
  187.5950  177.1380  136.3000 C   0  0  0  0  0  0  0  0  0  0  0  0
  187.2450  177.8150  137.5760 C   0  0  1  0  0  3  0  0  0  0  0  0
  191.1620  176.9330  136.6500 O   0  0  0  0  0  0  0  0  0  0  0  0
  184.8860  175.2280  136.8630 C   0  0  0  0  0  1  0  0  0  0  0  0
  185.8550  177.3090  137.7730 C   0  0  0  0  0  0  0  0  0  0  0  0
  189.5250  177.1850  138.3640 C   0  0  0  0  0  0  0  0  0  0  0  0
  190.7350  176.9520  139.6270 Cl  0  0  0  0  0  0  0  0  0  0  0  0
  186.6300  176.4890  135.7440 N   0  0  0  0  0  0  0  0  0  0  0  0
  187.8200  177.6160  140.0980 C   0  0  0  0  0  1  0  0  0  0  0  0
  188.2340  177.4520  138.6700 C   0  0  0  0  0  0  0  0  0  0  0  0
  185.0030  177.9380  138.5360 C   0  0  0  0  0  0  0  0  0  0  0  0
  188.9530  176.9440  135.9220 N   0  0  0  0  0  2  0  0  0  0  0  0
  189.9440  177.0350  136.9490 C   0  0  0  0  0  0  0  0  0  0  0  0
  184.1440  178.5720  139.2900 C   0  0  0  0  0  0  0  0  0  0  0  0
  184.1060  180.9160  138.8690 O   0  0  0  0  0  0  0  0  0  0  0  0
  183.4960  179.8150  138.8020 C   0  0  0  0  0  0  0  0  0  0  0  0
  182.1200  179.8020  138.2160 C   0  0  0  0  0  2  0  0  0  0  0  0
  181.3710  180.9580  138.6820 N   0  0  0  0  0  2  0  0  0  0  0  0
  180.8350  181.6850  136.5300 O   0  0  0  0  0  0  0  0  0  0  0  0
  180.7230  181.8520  137.7750 C   0  0  0  0  0  0  0  0  0  0  0  0
  179.9700  182.9090  138.2840 O   0  0  0  0  0  0  0  0  0  0  0  0
  178.9310  182.7030  139.2290 C   0  0  0  0  0  1  0  0  0  0  0  0
  183.8200  177.9720  140.6330 C   0  0  2  0  0  3  0  0  0  0  0  0
  181.5010  178.4640  141.3070 O   0  0  0  0  0  0  0  0  0  0  0  0
  182.4080  177.6160  140.7150 N   0  0  0  0  0  0  0  0  0  0  0  0
  181.9980  176.5970  140.1220 O   0  0  0  0  0  0  0  0  0  0  0  0
  184.2630  178.8380  141.8180 C   0  0  2  0  0  3  0  0  0  0  0  0
  185.6720  179.3700  141.5970 C   0  0  0  0  0  1  0  0  0  0  0  0
  184.2350  178.0530  143.0450 N   0  0  0  0  0  2  0  0  0  0  0  0
  182.0080  178.5210  144.4040 O   0  0  0  0  0  0  0  0  0  0  0  0
  183.4290  178.9910  144.2600 S   0  0  0  0  0  0  0  0  0  0  0  0
  184.2470  178.8290  145.7740 N   0  0  0  0  0  1  0  0  0  0  0  0
  183.4320  180.4360  143.8480 O   0  0  0  0  0  0  0  0  0  0  0  0
  1  5  1  1  0  0  0
  1  6  1  0  0  0  0
  3  2  1  6  0  0  0
  3  6  1  0  0  0  0
  3 11  1  0  0  0  0
  4 14  2  0  0  0  0
  6 12  2  0  0  0  0
  7 11  2  0  0  0  0
  7  8  1  0  0  0  0
  9  2  2  0  0  0  0
  9  1  1  0  0  0  0
 11 10  1  0  0  0  0
 12 15  2  0  0  0  0
 13  2  1  0  0  0  0
 13 14  1  0  0  0  0
 14  7  1  0  0  0  0
 17 16  2  0  0  0  0
 17 15  1  0  0  0  0
 18 19  1  0  0  0  0
 18 17  1  0  0  0  0
 20 21  2  0  0  0  0
 21 22  1  0  0  0  0
 21 19  1  0  0  0  0
 22 23  1  0  0  0  0
 24 15  1  6  0  0  0
 24 26  1  0  0  0  0
 24 28  1  0  0  0  0
 26 25  2  0  0  0  0
 27 26  2  0  0  0  0
 28 29  1  6  0  0  0
 28 30  1  0  0  0  0
 30 32  1  0  0  0  0
 32 31  2  0  0  0  0
 32 33  1  0  0  0  0
 34 32  2  0  0  0  0
M  END
>  <MODEL>
3

>  <REMARK>
 VINA RESULT:      -5.6      3.225      4.523
  Name = 
  9 active torsions:
  status: ('A' for Active; 'I' for Inactive)
    1  A    between atoms: O_1  and  C_34
    2  A    between atoms: N_3  and  C_5
    3  A    between atoms: S_4  and  N_18
    4  A    between atoms: C_5  and  C_30
    5  A    between atoms: N_10  and  C_21
    6  A    between atoms: C_13  and  N_18
    7  A    between atoms: C_13  and  C_21
    8  A    between atoms: C_21  and  C_33
    9  A    between atoms: C_30  and  C_33
                            x       y       z     vdW  Elec       q    Type
                         _______ _______ _______ _____ _____    ______ ____

>  <TORSDO>
F 9

$$$$
=
 OpenBabel11042412193D

 34 35  0  0  1  0  0  0  0  0999 V2000
  184.1620  179.0090  144.0120 C   0  0  1  0  0  3  0  0  0  0  0  0
  185.8620  177.7520  144.8080 C   0  0  0  0  0  0  0  0  0  0  0  0
  185.9910  177.5530  143.3400 C   0  0  1  0  0  3  0  0  0  0  0  0
  189.1710  176.8460  145.8640 O   0  0  0  0  0  0  0  0  0  0  0  0
  184.1280  180.5260  144.0240 C   0  0  0  0  0  1  0  0  0  0  0  0
  184.9660  178.5210  142.8490 C   0  0  0  0  0  0  0  0  0  0  0  0
  188.4570  177.5640  143.7050 C   0  0  0  0  0  0  0  0  0  0  0  0
  190.1230  177.6780  143.1350 Cl  0  0  0  0  0  0  0  0  0  0  0  0
  184.9010  178.5320  145.1700 N   0  0  0  0  0  0  0  0  0  0  0  0
  187.6570  178.1450  141.4430 C   0  0  0  0  0  1  0  0  0  0  0  0
  187.4140  177.8180  142.8820 C   0  0  0  0  0  0  0  0  0  0  0  0
  184.4380  178.4080  141.6610 C   0  0  0  0  0  0  0  0  0  0  0  0
  186.9160  177.3920  145.6920 N   0  0  0  0  0  2  0  0  0  0  0  0
  188.2210  177.2260  145.1310 C   0  0  0  0  0  0  0  0  0  0  0  0
  183.8990  178.2920  140.4760 C   0  0  0  0  0  0  0  0  0  0  0  0
  183.2120  176.0840  139.9050 O   0  0  0  0  0  0  0  0  0  0  0  0
  182.8690  177.2540  140.2230 C   0  0  0  0  0  0  0  0  0  0  0  0
  181.4090  177.5560  140.3400 C   0  0  0  0  0  2  0  0  0  0  0  0
  181.1670  178.3960  141.5030 N   0  0  0  0  0  2  0  0  0  0  0  0
  180.0930  180.0670  140.2800 O   0  0  0  0  0  0  0  0  0  0  0  0
  180.4710  179.6390  141.4040 C   0  0  0  0  0  0  0  0  0  0  0  0
  180.2180  180.3710  142.5640 O   0  0  0  0  0  0  0  0  0  0  0  0
  179.3450  179.8940  143.5760 C   0  0  0  0  0  1  0  0  0  0  0  0
  184.3350  179.2670  139.4140 C   0  0  2  0  0  3  0  0  0  0  0  0
  182.9820  181.2820  138.9850 O   0  0  0  0  0  0  0  0  0  0  0  0
  183.1830  179.9320  138.8160 N   0  0  0  0  0  0  0  0  0  0  0  0
  182.4490  179.2970  138.0310 O   0  0  0  0  0  0  0  0  0  0  0  0
  185.2560  178.6520  138.3540 C   0  0  2  0  0  3  0  0  0  0  0  0
  184.6380  177.3870  137.7740 C   0  0  0  0  0  1  0  0  0  0  0  0
  186.5470  178.3260  138.9460 N   0  0  0  0  0  2  0  0  0  0  0  0
  188.9960  179.1100  138.3060 O   0  0  0  0  0  0  0  0  0  0  0  0
  187.7560  178.4960  137.7160 S   0  0  0  0  0  0  0  0  0  0  0  0
  188.1410  176.9510  137.0440 N   0  0  0  0  0  1  0  0  0  0  0  0
  187.2300  179.3910  136.6300 O   0  0  0  0  0  0  0  0  0  0  0  0
  1  5  1  1  0  0  0
  1  9  1  0  0  0  0
  2  9  2  0  0  0  0
  2 13  1  0  0  0  0
  3  6  1  6  0  0  0
  3  2  1  0  0  0  0
  6  1  1  0  0  0  0
  7 14  1  0  0  0  0
  8  7  1  0  0  0  0
 10 11  1  0  0  0  0
 11  3  1  0  0  0  0
 11  7  2  0  0  0  0
 12  6  2  0  0  0  0
 14 13  1  0  0  0  0
 14  4  2  0  0  0  0
 15 12  2  0  0  0  0
 16 17  2  0  0  0  0
 17 18  1  0  0  0  0
 17 15  1  0  0  0  0
 18 19  1  0  0  0  0
 20 21  2  0  0  0  0
 21 19  1  0  0  0  0
 21 22  1  0  0  0  0
 22 23  1  0  0  0  0
 24 15  1  1  0  0  0
 26 25  2  0  0  0  0
 26 24  1  0  0  0  0
 27 26  2  0  0  0  0
 28 29  1  1  0  0  0
 28 30  1  0  0  0  0
 28 24  1  0  0  0  0
 32 31  2  0  0  0  0
 32 30  1  0  0  0  0
 33 32  1  0  0  0  0
 34 32  2  0  0  0  0
M  END
>  <MODEL>
4

>  <REMARK>
 VINA RESULT:      -5.4      3.444      5.740
  Name = 
  9 active torsions:
  status: ('A' for Active; 'I' for Inactive)
    1  A    between atoms: O_1  and  C_34
    2  A    between atoms: N_3  and  C_5
    3  A    between atoms: S_4  and  N_18
    4  A    between atoms: C_5  and  C_30
    5  A    between atoms: N_10  and  C_21
    6  A    between atoms: C_13  and  N_18
    7  A    between atoms: C_13  and  C_21
    8  A    between atoms: C_21  and  C_33
    9  A    between atoms: C_30  and  C_33
                            x       y       z     vdW  Elec       q    Type
                         _______ _______ _______ _____ _____    ______ ____

>  <TORSDO>
F 9

$$$$
=
 OpenBabel11042412193D

 34 35  0  0  1  0  0  0  0  0999 V2000
  186.7840  177.5100  145.9280 C   0  0  1  0  0  3  0  0  0  0  0  0
  185.0520  178.8380  145.3440 C   0  0  0  0  0  0  0  0  0  0  0  0
  185.8990  178.8780  144.1230 C   0  0  1  0  0  3  0  0  0  0  0  0
  181.8950  179.8390  143.9610 O   0  0  0  0  0  0  0  0  0  0  0  0
  186.7030  176.0030  146.0870 C   0  0  0  0  0  1  0  0  0  0  0  0
  186.9360  177.8680  144.4840 C   0  0  0  0  0  0  0  0  0  0  0  0
  183.7690  178.8970  142.8270 C   0  0  0  0  0  0  0  0  0  0  0  0
  182.8430  178.7170  141.3360 Cl  0  0  0  0  0  0  0  0  0  0  0  0
  185.5100  178.1050  146.3020 N   0  0  0  0  0  0  0  0  0  0  0  0
  185.7850  178.0810  141.6580 C   0  0  0  0  0  1  0  0  0  0  0  0
  185.0790  178.5610  142.8850 C   0  0  0  0  0  0  0  0  0  0  0  0
  188.1050  177.8550  143.9040 C   0  0  0  0  0  0  0  0  0  0  0  0
  183.7020  179.2870  145.3160 N   0  0  0  0  0  2  0  0  0  0  0  0
  183.0670  179.3860  144.0390 C   0  0  0  0  0  0  0  0  0  0  0  0
  189.2810  177.8460  143.3330 C   0  0  0  0  0  0  0  0  0  0  0  0
  190.7870  179.6230  142.8360 O   0  0  0  0  0  0  0  0  0  0  0  0
  190.3020  178.8550  143.7100 C   0  0  0  0  0  0  0  0  0  0  0  0
  190.7780  178.9970  145.1200 C   0  0  0  0  0  2  0  0  0  0  0  0
  191.6420  177.8800  145.4680 N   0  0  0  0  0  2  0  0  0  0  0  0
  190.0560  176.8650  146.8450 O   0  0  0  0  0  0  0  0  0  0  0  0
  191.2030  176.8240  146.3230 C   0  0  0  0  0  0  0  0  0  0  0  0
  192.0580  175.7500  146.5720 O   0  0  0  0  0  0  0  0  0  0  0  0
  192.7690  175.6280  147.7940 C   0  0  0  0  0  1  0  0  0  0  0  0
  189.5570  176.7620  142.3250 C   0  0  2  0  0  3  0  0  0  0  0  0
  191.9400  176.3910  142.8350 O   0  0  0  0  0  0  0  0  0  0  0  0
  190.6530  175.9080  142.7680 N   0  0  0  0  0  0  0  0  0  0  0  0
  190.4000  174.7730  143.2210 O   0  0  0  0  0  0  0  0  0  0  0  0
  189.7780  177.2870  140.9010 C   0  0  2  0  0  3  0  0  0  0  0  0
  188.6710  178.2530  140.5070 C   0  0  0  0  0  1  0  0  0  0  0  0
  189.8020  176.1750  139.9600 N   0  0  0  0  0  2  0  0  0  0  0  0
  192.2260  177.1270  139.4680 O   0  0  0  0  0  0  0  0  0  0  0  0
  191.0440  176.4900  138.7930 S   0  0  0  0  0  0  0  0  0  0  0  0
  191.5370  175.0150  138.0370 N   0  0  0  0  0  1  0  0  0  0  0  0
  190.5090  177.4260  137.7460 O   0  0  0  0  0  0  0  0  0  0  0  0
  1  5  1  6  0  0  0
  1  9  1  0  0  0  0
  2  9  2  0  0  0  0
  3 11  1  6  0  0  0
  3  6  1  0  0  0  0
  3  2  1  0  0  0  0
  4 14  2  0  0  0  0
  6  1  1  0  0  0  0
  7 11  2  0  0  0  0
  7 14  1  0  0  0  0
  8  7  1  0  0  0  0
 10 11  1  0  0  0  0
 12  6  2  0  0  0  0
 13  2  1  0  0  0  0
 14 13  1  0  0  0  0
 15 17  1  0  0  0  0
 15 12  2  0  0  0  0
 16 17  2  0  0  0  0
 17 18  1  0  0  0  0
 18 19  1  0  0  0  0
 19 21  1  0  0  0  0
 21 22  1  0  0  0  0
 21 20  2  0  0  0  0
 22 23  1  0  0  0  0
 24 26  1  0  0  0  0
 24 15  1  1  0  0  0
 26 25  2  0  0  0  0
 26 27  2  0  0  0  0
 28 29  1  6  0  0  0
 28 24  1  0  0  0  0
 30 28  1  0  0  0  0
 32 31  2  0  0  0  0
 32 30  1  0  0  0  0
 33 32  1  0  0  0  0
 34 32  2  0  0  0  0
M  END
>  <MODEL>
5

>  <REMARK>
 VINA RESULT:      -5.4      5.729     10.396
  Name = 
  9 active torsions:
  status: ('A' for Active; 'I' for Inactive)
    1  A    between atoms: O_1  and  C_34
    2  A    between atoms: N_3  and  C_5
    3  A    between atoms: S_4  and  N_18
    4  A    between atoms: C_5  and  C_30
    5  A    between atoms: N_10  and  C_21
    6  A    between atoms: C_13  and  N_18
    7  A    between atoms: C_13  and  C_21
    8  A    between atoms: C_21  and  C_33
    9  A    between atoms: C_30  and  C_33
                            x       y       z     vdW  Elec       q    Type
                         _______ _______ _______ _____ _____    ______ ____

>  <TORSDO>
F 9

$$$$
=
 OpenBabel11042412193D

 34 35  0  0  1  0  0  0  0  0999 V2000
  184.1070  179.3770  144.3510 C   0  0  1  0  0  3  0  0  0  0  0  0
  185.4980  178.0320  145.5170 C   0  0  0  0  0  0  0  0  0  0  0  0
  185.7780  177.6260  144.1150 C   0  0  1  0  0  3  0  0  0  0  0  0
  188.4870  176.8630  147.1250 O   0  0  0  0  0  0  0  0  0  0  0  0
  184.2890  180.8740  144.1840 C   0  0  0  0  0  1  0  0  0  0  0  0
  184.9710  178.6410  143.3770 C   0  0  0  0  0  0  0  0  0  0  0  0
  188.1560  177.3730  144.8200 C   0  0  0  0  0  0  0  0  0  0  0  0
  189.8790  177.1990  144.4800 Cl  0  0  0  0  0  0  0  0  0  0  0  0
  184.6200  178.9680  145.6490 N   0  0  0  0  0  0  0  0  0  0  0  0
  187.7340  177.7450  142.4160 C   0  0  0  0  0  1  0  0  0  0  0  0
  187.2700  177.6460  143.8340 C   0  0  0  0  0  0  0  0  0  0  0  0
  184.5830  178.4400  142.1470 C   0  0  0  0  0  0  0  0  0  0  0  0
  186.3720  177.6620  146.5760 N   0  0  0  0  0  2  0  0  0  0  0  0
  187.6990  177.2600  146.2270 C   0  0  0  0  0  0  0  0  0  0  0  0
  184.1850  178.2360  140.9190 C   0  0  0  0  0  0  0  0  0  0  0  0
  183.2050  176.3510  139.8440 O   0  0  0  0  0  0  0  0  0  0  0  0
  183.0560  177.3130  140.6440 C   0  0  0  0  0  0  0  0  0  0  0  0
  181.7250  177.4870  141.3020 C   0  0  0  0  0  2  0  0  0  0  0  0
  181.0560  178.6630  140.7690 N   0  0  0  0  0  2  0  0  0  0  0  0
  180.8410  179.6900  142.8520 O   0  0  0  0  0  0  0  0  0  0  0  0
  180.6620  179.7510  141.6050 C   0  0  0  0  0  0  0  0  0  0  0  0
  180.0770  180.8770  141.0270 O   0  0  0  0  0  0  0  0  0  0  0  0
  180.0570  181.0720  139.6210 C   0  0  0  0  0  1  0  0  0  0  0  0
  184.8840  178.9990  139.8240 C   0  0  2  0  0  3  0  0  0  0  0  0
  183.1070  178.9500  138.1160 O   0  0  0  0  0  0  0  0  0  0  0  0
  183.9180  179.6710  138.9620 N   0  0  0  0  0  0  0  0  0  0  0  0
  183.7310  180.8980  139.0930 O   0  0  0  0  0  0  0  0  0  0  0  0
  185.8770  178.1510  139.0210 C   0  0  2  0  0  3  0  0  0  0  0  0
  187.2740  178.2530  139.6170 C   0  0  0  0  0  1  0  0  0  0  0  0
  185.9120  178.6050  137.6370 N   0  0  0  0  0  2  0  0  0  0  0  0
  185.4110  176.0250  137.2920 O   0  0  0  0  0  0  0  0  0  0  0  0
  186.0500  177.2080  136.6200 S   0  0  0  0  0  0  0  0  0  0  0  0
  185.2740  177.4990  135.1030 N   0  0  0  0  0  1  0  0  0  0  0  0
  187.5050  176.9150  136.3830 O   0  0  0  0  0  0  0  0  0  0  0  0
  1  5  1  6  0  0  0
  1  9  1  0  0  0  0
  2  9  2  0  0  0  0
  2 13  1  0  0  0  0
  3  6  1  6  0  0  0
  3  2  1  0  0  0  0
  6  1  1  0  0  0  0
  7 14  1  0  0  0  0
  8  7  1  0  0  0  0
 10 11  1  0  0  0  0
 11  3  1  0  0  0  0
 11  7  2  0  0  0  0
 12  6  2  0  0  0  0
 14 13  1  0  0  0  0
 14  4  2  0  0  0  0
 15 12  2  0  0  0  0
 16 17  2  0  0  0  0
 17 15  1  0  0  0  0
 17 18  1  0  0  0  0
 19 18  1  0  0  0  0
 19 21  1  0  0  0  0
 21 20  2  0  0  0  0
 22 21  1  0  0  0  0
 23 22  1  0  0  0  0
 24 15  1  1  0  0  0
 25 26  2  0  0  0  0
 26 27  2  0  0  0  0
 26 24  1  0  0  0  0
 28 29  1  1  0  0  0
 28 24  1  0  0  0  0
 30 28  1  0  0  0  0
 32 31  2  0  0  0  0
 32 30  1  0  0  0  0
 33 32  1  0  0  0  0
 34 32  2  0  0  0  0
M  END
>  <MODEL>
6

>  <REMARK>
 VINA RESULT:      -5.3      3.286      5.661
  Name = 
  9 active torsions:
  status: ('A' for Active; 'I' for Inactive)
    1  A    between atoms: O_1  and  C_34
    2  A    between atoms: N_3  and  C_5
    3  A    between atoms: S_4  and  N_18
    4  A    between atoms: C_5  and  C_30
    5  A    between atoms: N_10  and  C_21
    6  A    between atoms: C_13  and  N_18
    7  A    between atoms: C_13  and  C_21
    8  A    between atoms: C_21  and  C_33
    9  A    between atoms: C_30  and  C_33
                            x       y       z     vdW  Elec       q    Type
                         _______ _______ _______ _____ _____    ______ ____

>  <TORSDO>
F 9

$$$$
=
 OpenBabel11042412193D

 34 35  0  0  1  0  0  0  0  0999 V2000
  182.7920  179.3690  139.0450 C   0  0  1  0  0  3  0  0  0  0  0  0
  182.3240  178.6760  141.1430 C   0  0  0  0  0  0  0  0  0  0  0  0
  183.6760  178.0980  140.9210 C   0  0  1  0  0  3  0  0  0  0  0  0
  182.2040  178.6470  144.7310 O   0  0  0  0  0  0  0  0  0  0  0  0
  183.1020  180.8020  138.6570 C   0  0  0  0  0  1  0  0  0  0  0  0
  184.0140  178.7110  139.6040 C   0  0  0  0  0  0  0  0  0  0  0  0
  184.1260  178.6080  143.3200 C   0  0  0  0  0  0  0  0  0  0  0  0
  185.2070  178.8240  144.6970 Cl  0  0  0  0  0  0  0  0  0  0  0  0
  181.8540  179.3610  140.1560 N   0  0  0  0  0  0  0  0  0  0  0  0
  186.0850  178.3960  141.8330 C   0  0  0  0  0  1  0  0  0  0  0  0
  184.6090  178.4500  142.0660 C   0  0  0  0  0  0  0  0  0  0  0  0
  184.9180  178.1870  138.8200 C   0  0  0  0  0  0  0  0  0  0  0  0
  181.7650  178.7520  142.4490 N   0  0  0  0  0  2  0  0  0  0  0  0
  182.6610  178.6490  143.5580 C   0  0  0  0  0  0  0  0  0  0  0  0
  185.8140  177.6590  138.0300 C   0  0  0  0  0  0  0  0  0  0  0  0
  184.6100  176.4780  136.3490 O   0  0  0  0  0  0  0  0  0  0  0  0
  185.4930  176.4400  137.2460 C   0  0  0  0  0  0  0  0  0  0  0  0
  186.2030  175.1460  137.4880 C   0  0  0  0  0  2  0  0  0  0  0  0
  186.9190  174.7400  136.2890 N   0  0  0  0  0  2  0  0  0  0  0  0
  187.0490  172.4990  136.9240 O   0  0  0  0  0  0  0  0  0  0  0  0
  187.2910  173.3820  136.0560 C   0  0  0  0  0  0  0  0  0  0  0  0
  187.9250  173.0440  134.8600 O   0  0  0  0  0  0  0  0  0  0  0  0
  188.9260  172.0410  134.8000 C   0  0  0  0  0  1  0  0  0  0  0  0
  187.1450  178.3550  137.9230 C   0  0  2  0  0  3  0  0  0  0  0  0
  187.3960  178.0930  135.4850 O   0  0  0  0  0  0  0  0  0  0  0  0
  187.3340  178.9120  136.5890 N   0  0  0  0  0  0  0  0  0  0  0  0
  187.3010  180.1500  136.4320 O   0  0  0  0  0  0  0  0  0  0  0  0
  188.3320  177.4840  138.3530 C   0  0  2  0  0  3  0  0  0  0  0  0
  188.6890  177.7460  139.8090 C   0  0  0  0  0  1  0  0  0  0  0  0
  189.4890  177.7720  137.5170 N   0  0  0  0  0  2  0  0  0  0  0  0
  189.9220  175.2070  138.0250 O   0  0  0  0  0  0  0  0  0  0  0  0
  190.6410  176.4970  137.7410 S   0  0  0  0  0  0  0  0  0  0  0  0
  191.6120  176.3170  136.3220 N   0  0  0  0  0  1  0  0  0  0  0  0
  191.5270  176.8350  138.9070 O   0  0  0  0  0  0  0  0  0  0  0  0
  1  5  1  1  0  0  0
  1  6  1  0  0  0  0
  1  9  1  0  0  0  0
  2 13  1  0  0  0  0
  3  6  1  6  0  0  0
  3  2  1  0  0  0  0
  3 11  1  0  0  0  0
  7 14  1  0  0  0  0
  7  8  1  0  0  0  0
  9  2  2  0  0  0  0
 10 11  1  0  0  0  0
 11  7  2  0  0  0  0
 12  6  2  0  0  0  0
 13 14  1  0  0  0  0
 14  4  2  0  0  0  0
 15 12  2  0  0  0  0
 16 17  2  0  0  0  0
 17 18  1  0  0  0  0
 17 15  1  0  0  0  0
 19 18  1  0  0  0  0
 21 19  1  0  0  0  0
 21 20  2  0  0  0  0
 22 21  1  0  0  0  0
 23 22  1  0  0  0  0
 24 15  1  6  0  0  0
 24 28  1  0  0  0  0
 25 26  2  0  0  0  0
 26 24  1  0  0  0  0
 27 26  2  0  0  0  0
 28 29  1  1  0  0  0
 30 32  1  0  0  0  0
 30 28  1  0  0  0  0
 32 31  2  0  0  0  0
 32 34  2  0  0  0  0
 33 32  1  0  0  0  0
M  END
>  <MODEL>
7

>  <REMARK>
 VINA RESULT:      -5.0      4.303      8.465
  Name = 
  9 active torsions:
  status: ('A' for Active; 'I' for Inactive)
    1  A    between atoms: O_1  and  C_34
    2  A    between atoms: N_3  and  C_5
    3  A    between atoms: S_4  and  N_18
    4  A    between atoms: C_5  and  C_30
    5  A    between atoms: N_10  and  C_21
    6  A    between atoms: C_13  and  N_18
    7  A    between atoms: C_13  and  C_21
    8  A    between atoms: C_21  and  C_33
    9  A    between atoms: C_30  and  C_33
                            x       y       z     vdW  Elec       q    Type
                         _______ _______ _______ _____ _____    ______ ____

>  <TORSDO>
F 9

$$$$
=
 OpenBabel11042412193D

 34 35  0  0  1  0  0  0  0  0999 V2000
  190.7770  176.2690  138.2930 C   0  0  1  0  0  3  0  0  0  0  0  0
  191.4370  177.4020  140.1320 C   0  0  0  0  0  0  0  0  0  0  0  0
  190.0130  177.8100  140.0120 C   0  0  1  0  0  3  0  0  0  0  0  0
  192.0240  178.1540  143.5920 O   0  0  0  0  0  0  0  0  0  0  0  0
  190.5790  174.7660  138.2280 C   0  0  0  0  0  1  0  0  0  0  0  0
  189.5740  176.9210  138.8970 C   0  0  0  0  0  0  0  0  0  0  0  0
  189.9410  177.7530  142.5040 C   0  0  0  0  0  0  0  0  0  0  0  0
  189.0810  177.7260  144.0440 Cl  0  0  0  0  0  0  0  0  0  0  0  0
  191.8460  176.5760  139.2300 N   0  0  0  0  0  0  0  0  0  0  0  0
  187.7920  177.5020  141.3150 C   0  0  0  0  0  1  0  0  0  0  0  0
  189.2820  177.6170  141.3290 C   0  0  0  0  0  0  0  0  0  0  0  0
  188.5230  177.2020  138.1750 C   0  0  0  0  0  0  0  0  0  0  0  0
  192.1690  177.6340  141.3300 N   0  0  0  0  0  2  0  0  0  0  0  0
  191.4200  177.8810  142.5230 C   0  0  0  0  0  0  0  0  0  0  0  0
  187.4780  177.4860  137.4440 C   0  0  0  0  0  0  0  0  0  0  0  0
  187.2970  179.7440  136.7080 O   0  0  0  0  0  0  0  0  0  0  0  0
  187.5560  178.5470  136.4090 C   0  0  0  0  0  0  0  0  0  0  0  0
  187.9470  178.2370  135.0000 C   0  0  0  0  0  2  0  0  0  0  0  0
  189.3560  177.8800  134.9410 N   0  0  0  0  0  2  0  0  0  0  0  0
  188.9360  175.6110  134.5940 O   0  0  0  0  0  0  0  0  0  0  0  0
  189.7840  176.5390  134.7050 C   0  0  0  0  0  0  0  0  0  0  0  0
  191.1480  176.2680  134.6010 O   0  0  0  0  0  0  0  0  0  0  0  0
  191.6540  174.9420  134.6330 C   0  0  0  0  0  1  0  0  0  0  0  0
  186.2290  176.6760  137.6700 C   0  0  2  0  0  3  0  0  0  0  0  0
  185.8170  175.7540  135.4210 O   0  0  0  0  0  0  0  0  0  0  0  0
  186.1620  175.5550  136.7380 N   0  0  0  0  0  0  0  0  0  0  0  0
  186.5550  174.4290  137.1060 O   0  0  0  0  0  0  0  0  0  0  0  0
  184.9420  177.5100  137.6560 C   0  0  2  0  0  3  0  0  0  0  0  0
  184.9780  178.5690  138.7490 C   0  0  0  0  0  1  0  0  0  0  0  0
  183.7880  176.6460  137.8650 N   0  0  0  0  0  2  0  0  0  0  0  0
  181.6260  175.9660  136.4920 O   0  0  0  0  0  0  0  0  0  0  0  0
  182.5570  177.1200  136.7410 S   0  0  0  0  0  0  0  0  0  0  0  0
  181.6620  178.4590  137.3700 N   0  0  0  0  0  1  0  0  0  0  0  0
  183.2020  177.5220  135.4450 O   0  0  0  0  0  0  0  0  0  0  0  0
  1  5  1  1  0  0  0
  1  6  1  0  0  0  0
  1  9  1  0  0  0  0
  2 13  1  0  0  0  0
  3  6  1  6  0  0  0
  3  2  1  0  0  0  0
  3 11  1  0  0  0  0
  7 14  1  0  0  0  0
  7  8  1  0  0  0  0
  9  2  2  0  0  0  0
 10 11  1  0  0  0  0
 11  7  2  0  0  0  0
 12  6  2  0  0  0  0
 13 14  1  0  0  0  0
 14  4  2  0  0  0  0
 15 12  2  0  0  0  0
 17 16  2  0  0  0  0
 17 15  1  0  0  0  0
 18 17  1  0  0  0  0
 19 18  1  0  0  0  0
 20 21  2  0  0  0  0
 21 19  1  0  0  0  0
 22 23  1  0  0  0  0
 22 21  1  0  0  0  0
 24 15  1  6  0  0  0
 25 26  2  0  0  0  0
 26 27  2  0  0  0  0
 26 24  1  0  0  0  0
 28 24  1  0  0  0  0
 28 30  1  0  0  0  0
 28 29  1  1  0  0  0
 31 32  2  0  0  0  0
 32 33  1  0  0  0  0
 32 30  1  0  0  0  0
 34 32  2  0  0  0  0
M  END
>  <MODEL>
8

>  <REMARK>
 VINA RESULT:      -5.0      4.689      7.561
  Name = 
  9 active torsions:
  status: ('A' for Active; 'I' for Inactive)
    1  A    between atoms: O_1  and  C_34
    2  A    between atoms: N_3  and  C_5
    3  A    between atoms: S_4  and  N_18
    4  A    between atoms: C_5  and  C_30
    5  A    between atoms: N_10  and  C_21
    6  A    between atoms: C_13  and  N_18
    7  A    between atoms: C_13  and  C_21
    8  A    between atoms: C_21  and  C_33
    9  A    between atoms: C_30  and  C_33
                            x       y       z     vdW  Elec       q    Type
                         _______ _______ _______ _____ _____    ______ ____

>  <TORSDO>
F 9

$$$$
=
 OpenBabel11042412193D

 34 35  0  0  1  0  0  0  0  0999 V2000
  186.9120  178.2750  136.2180 C   0  0  1  0  0  3  0  0  0  0  0  0
  188.7900  177.5890  137.2700 C   0  0  0  0  0  0  0  0  0  0  0  0
  187.8710  176.4430  137.4980 C   0  0  1  0  0  3  0  0  0  0  0  0
  191.9550  175.9820  137.8020 O   0  0  0  0  0  0  0  0  0  0  0  0
  186.7550  178.3840  134.7130 C   0  0  0  0  0  1  0  0  0  0  0  0
  186.7120  176.8580  136.6550 C   0  0  0  0  0  0  0  0  0  0  0  0
  189.8710  174.9790  137.2240 C   0  0  0  0  0  0  0  0  0  0  0  0
  190.6390  173.4130  136.9580 Cl  0  0  0  0  0  0  0  0  0  0  0  0
  188.2910  178.5600  136.5830 N   0  0  0  0  0  0  0  0  0  0  0  0
  187.6660  173.9550  136.7950 C   0  0  0  0  0  1  0  0  0  0  0  0
  188.5320  175.1340  137.1020 C   0  0  0  0  0  0  0  0  0  0  0  0
  185.5170  176.3750  136.8560 C   0  0  0  0  0  0  0  0  0  0  0  0
  190.1890  177.4640  137.4950 N   0  0  0  0  0  2  0  0  0  0  0  0
  190.7340  176.1430  137.5430 C   0  0  0  0  0  0  0  0  0  0  0  0
  184.3160  175.9010  137.0610 C   0  0  0  0  0  0  0  0  0  0  0  0
  183.0230  175.5710  139.0340 O   0  0  0  0  0  0  0  0  0  0  0  0
  183.5070  176.3880  138.2060 C   0  0  0  0  0  0  0  0  0  0  0  0
  183.2470  177.8460  138.4160 C   0  0  0  0  0  2  0  0  0  0  0  0
  183.5210  178.2060  139.7980 N   0  0  0  0  0  2  0  0  0  0  0  0
  185.6600  179.0150  139.3370 O   0  0  0  0  0  0  0  0  0  0  0  0
  184.7500  178.8190  140.1880 C   0  0  0  0  0  0  0  0  0  0  0  0
  184.9320  179.1950  141.5190 O   0  0  0  0  0  0  0  0  0  0  0  0
  184.7690  178.2740  142.5860 C   0  0  0  0  0  1  0  0  0  0  0  0
  183.7890  174.8890  136.0790 C   0  0  2  0  0  3  0  0  0  0  0  0
  182.4350  176.3190  134.5970 O   0  0  0  0  0  0  0  0  0  0  0  0
  182.5050  175.3140  135.5340 N   0  0  0  0  0  0  0  0  0  0  0  0
  181.4760  174.6680  135.8180 O   0  0  0  0  0  0  0  0  0  0  0  0
  183.7310  173.4620  136.6360 C   0  0  2  0  0  3  0  0  0  0  0  0
  184.8310  173.2420  137.6650 C   0  0  0  0  0  1  0  0  0  0  0  0
  183.8880  172.4990  135.5550 N   0  0  0  0  0  2  0  0  0  0  0  0
  181.8840  171.0320  134.6280 O   0  0  0  0  0  0  0  0  0  0  0  0
  182.7730  171.2010  135.8290 S   0  0  0  0  0  0  0  0  0  0  0  0
  183.6340  169.7300  136.1210 N   0  0  0  0  0  1  0  0  0  0  0  0
  181.9270  171.5250  137.0280 O   0  0  0  0  0  0  0  0  0  0  0  0
  1  5  1  6  0  0  0
  1  9  1  0  0  0  0
  1  6  1  0  0  0  0
  2 13  1  0  0  0  0
  2  3  1  0  0  0  0
  3  6  1  6  0  0  0
  6 12  2  0  0  0  0
  7 14  1  0  0  0  0
  8  7  1  0  0  0  0
  9  2  2  0  0  0  0
 10 11  1  0  0  0  0
 11  7  2  0  0  0  0
 11  3  1  0  0  0  0
 12 15  2  0  0  0  0
 13 14  1  0  0  0  0
 14  4  2  0  0  0  0
 15 17  1  0  0  0  0
 17 18  1  0  0  0  0
 17 16  2  0  0  0  0
 18 19  1  0  0  0  0
 19 21  1  0  0  0  0
 20 21  2  0  0  0  0
 21 22  1  0  0  0  0
 22 23  1  0  0  0  0
 24 28  1  0  0  0  0
 24 15  1  1  0  0  0
 25 26  2  0  0  0  0
 26 27  2  0  0  0  0
 26 24  1  0  0  0  0
 28 29  1  1  0  0  0
 30 32  1  0  0  0  0
 30 28  1  0  0  0  0
 31 32  2  0  0  0  0
 32 33  1  0  0  0  0
 32 34  2  0  0  0  0
M  END
>  <MODEL>
9

>  <REMARK>
 VINA RESULT:      -5.0      4.623      6.565
  Name = 
  9 active torsions:
  status: ('A' for Active; 'I' for Inactive)
    1  A    between atoms: O_1  and  C_34
    2  A    between atoms: N_3  and  C_5
    3  A    between atoms: S_4  and  N_18
    4  A    between atoms: C_5  and  C_30
    5  A    between atoms: N_10  and  C_21
    6  A    between atoms: C_13  and  N_18
    7  A    between atoms: C_13  and  C_21
    8  A    between atoms: C_21  and  C_33
    9  A    between atoms: C_30  and  C_33
                            x       y       z     vdW  Elec       q    Type
                         _______ _______ _______ _____ _____    ______ ____

>  <TORSDO>
F 9

$$$$
