=
 OpenBabel11042411053D

 39 45  0  0  0  0  0  0  0  0999 V2000
  186.8540  177.9480  141.3490 O   0  0  0  0  0  1  0  0  0  0  0  0
  187.9070  177.6190  142.1990 C   0  0  0  0  0  0  0  0  0  0  0  0
  184.8070  178.3780  145.8110 N   0  0  0  0  0  2  0  0  0  0  0  0
  190.3510  176.9280  142.0720 C   0  0  0  0  0  0  0  0  0  0  0  0
  190.4550  176.9720  139.8920 C   0  0  0  0  0  0  0  0  0  0  0  0
  186.1370  178.0100  145.4960 C   0  0  0  0  0  0  0  0  0  0  0  0
  188.6480  177.3260  144.5810 C   0  0  0  0  0  0  0  0  0  0  0  0
  187.1120  177.6990  146.4400 C   0  0  0  0  0  3  0  0  0  0  0  0
  190.7560  176.7660  143.3820 C   0  0  0  0  0  3  0  0  0  0  0  0
  185.1430  178.3650  143.3930 C   0  0  0  0  0  2  0  0  0  0  0  0
  184.2100  178.5930  144.5380 C   0  0  0  0  0  0  0  0  0  0  0  0
  188.3670  177.3590  145.9440 C   0  0  0  0  0  0  0  0  0  0  0  0
  190.4070  176.7830  145.8040 C   0  0  0  0  0  0  0  0  0  0  0  0
  189.9710  176.9520  144.4990 C   0  0  0  0  0  0  0  0  0  0  0  0
  189.1140  177.2980  141.5530 C   0  0  0  0  0  0  0  0  0  0  0  0
  182.9650  178.9490  144.3960 C   0  0  0  0  0  0  0  0  0  0  0  0
  191.7320  176.3920  146.1700 N   0  0  0  0  0  2  0  0  0  0  0  0
  189.1940  177.3210  140.2060 N   0  0  0  0  0  0  0  0  0  0  0  0
  189.4290  177.0300  146.7010 N   0  0  0  0  0  0  0  0  0  0  0  0
  186.3930  177.9840  144.1250 C   0  0  0  0  0  0  0  0  0  0  0  0
  187.6750  177.6370  143.5990 C   0  0  0  0  0  0  0  0  0  0  0  0
  192.1240  176.2320  147.5600 C   0  0  0  0  0  1  0  0  0  0  0  0
  191.2120  176.7180  141.0150 C   0  0  0  0  0  3  0  0  0  0  0  0
  181.7190  179.3060  144.2530 C   0  0  0  0  0  3  0  0  0  0  0  0
  192.1740  176.1950  138.2410 N   0  0  0  0  0  2  0  0  0  0  0  0
  190.9450  176.8790  138.5120 C   0  0  0  0  0  0  0  0  0  0  0  0
  192.1930  176.4900  135.9210 O   0  0  0  0  0  0  0  0  0  0  0  0
  190.2780  177.4000  137.5780 O   0  0  0  0  0  0  0  0  0  0  0  0
  192.7630  176.0200  136.9440 C   0  0  0  0  0  0  0  0  0  0  0  0
  194.0060  175.3080  136.8120 N   0  0  0  0  0  0  0  0  0  0  0  0
  195.2990  176.5490  135.1360 C   0  0  0  0  0  2  0  0  0  0  0  0
  194.6700  175.2170  135.5100 C   0  0  0  0  0  3  0  0  0  0  0  0
  196.1660  175.4360  135.6740 C   0  0  0  0  0  2  0  0  0  0  0  0
  194.7510  174.9240  138.0070 C   0  0  0  0  0  2  0  0  0  0  0  0
  196.1130  172.8650  138.1830 C   0  0  0  0  0  1  0  0  0  0  0  0
  194.7040  173.4180  138.1930 C   0  0  0  0  0  2  0  0  0  0  0  0
  181.0550  179.1770  142.9290 C   0  0  0  0  0  3  0  0  0  0  0  0
  179.8600  180.1080  142.8790 C   0  0  0  0  0  2  0  0  0  0  0  0
  179.6560  178.6300  143.1290 C   0  0  0  0  0  2  0  0  0  0  0  0
  1  2  1  0  0  0  0
  2 21  1  0  0  0  0
  4  9  1  0  0  0  0
  5 18  2  0  0  0  0
  5 23  1  0  0  0  0
  6  3  1  0  0  0  0
  6  8  1  0  0  0  0
  7 12  1  0  0  0  0
  9 14  2  0  0  0  0
 10 20  1  0  0  0  0
 10 11  1  0  0  0  0
 11  3  1  0  0  0  0
 12  8  2  0  0  0  0
 12 19  1  0  0  0  0
 13 17  1  0  0  0  0
 13 19  2  0  0  0  0
 14  7  1  0  0  0  0
 14 13  1  0  0  0  0
 15  4  1  0  0  0  0
 15  2  2  0  0  0  0
 16 11  2  0  0  0  0
 17 22  1  0  0  0  0
 18 15  1  0  0  0  0
 20  6  2  0  0  0  0
 21 20  1  0  0  0  0
 21  7  2  0  0  0  0
 23  4  2  0  0  0  0
 24 16  2  0  0  0  0
 25 26  1  0  0  0  0
 26  5  1  0  0  0  0
 27 29  2  0  0  0  0
 28 26  2  0  0  0  0
 29 25  1  0  0  0  0
 30 29  1  0  0  0  0
 30 34  1  0  0  0  0
 31 32  1  0  0  0  0
 31 33  1  0  0  0  0
 32 33  1  0  0  0  0
 32 30  1  0  0  0  0
 34 36  1  0  0  0  0
 35 36  1  0  0  0  0
 37 39  1  0  0  0  0
 37 24  1  0  0  0  0
 38 37  1  0  0  0  0
 38 39  1  0  0  0  0
M  END
>  <MODEL>
1

>  <REMARK>
 VINA RESULT:     -10.6      0.000      0.000
  Name = 
  5 active torsions:
  status: ('A' for Active; 'I' for Inactive)
    1  A    between atoms: C_2  and  C_39
    2  A    between atoms: C_8  and  C_20
    3  A    between atoms: C_8  and  N_38
    4  A    between atoms: C_9  and  C_12
    5  A    between atoms: C_32  and  N_38
                            x       y       z     vdW  Elec       q    Type
                         _______ _______ _______ _____ _____    ______ ____

>  <TORSDO>
F 5

$$$$
=
 OpenBabel11042411053D

 39 45  0  0  0  0  0  0  0  0999 V2000
  185.9970  178.1050  141.0620 O   0  0  0  0  0  1  0  0  0  0  0  0
  186.6180  178.0320  142.3070 C   0  0  0  0  0  0  0  0  0  0  0  0
  182.2730  178.9740  144.1700 N   0  0  0  0  0  2  0  0  0  0  0  0
  188.9220  177.6140  143.2980 C   0  0  0  0  0  0  0  0  0  0  0  0
  189.9160  177.3360  141.3740 C   0  0  0  0  0  0  0  0  0  0  0  0
  183.6290  178.7170  144.4870 C   0  0  0  0  0  0  0  0  0  0  0  0
  186.3190  178.1940  144.7960 C   0  0  0  0  0  0  0  0  0  0  0  0
  184.1380  178.6680  145.7820 C   0  0  0  0  0  3  0  0  0  0  0  0
  188.7560  177.7020  144.6660 C   0  0  0  0  0  3  0  0  0  0  0  0
  183.5790  178.6310  142.1360 C   0  0  0  0  0  2  0  0  0  0  0  0
  182.2470  178.9220  142.7480 C   0  0  0  0  0  0  0  0  0  0  0  0
  185.4990  178.4020  145.9010 C   0  0  0  0  0  0  0  0  0  0  0  0
  187.4370  178.0490  146.6970 C   0  0  0  0  0  0  0  0  0  0  0  0
  187.5720  177.9650  145.3200 C   0  0  0  0  0  0  0  0  0  0  0  0
  187.9960  177.7560  142.2690 C   0  0  0  0  0  0  0  0  0  0  0  0
  181.1590  179.1080  142.0570 C   0  0  0  0  0  0  0  0  0  0  0  0
  188.5060  177.8730  147.6280 N   0  0  0  0  0  2  0  0  0  0  0  0
  188.6240  177.5820  141.0880 N   0  0  0  0  0  0  0  0  0  0  0  0
  186.1660  178.3170  147.0660 N   0  0  0  0  0  0  0  0  0  0  0  0
  184.4300  178.5110  143.3630 C   0  0  0  0  0  0  0  0  0  0  0  0
  185.8270  178.2380  143.4680 C   0  0  0  0  0  0  0  0  0  0  0  0
  188.2950  177.9730  149.0620 C   0  0  0  0  0  1  0  0  0  0  0  0
  190.1510  177.3450  142.7330 C   0  0  0  0  0  3  0  0  0  0  0  0
  180.0700  179.2930  141.3640 C   0  0  0  0  0  3  0  0  0  0  0  0
  190.6310  176.2410  139.2350 N   0  0  0  0  0  2  0  0  0  0  0  0
  190.9360  177.0890  140.3490 C   0  0  0  0  0  0  0  0  0  0  0  0
  192.6930  176.4010  138.1430 O   0  0  0  0  0  0  0  0  0  0  0  0
  192.0700  177.6260  140.4570 O   0  0  0  0  0  0  0  0  0  0  0  0
  191.5250  175.9240  138.1590 C   0  0  0  0  0  0  0  0  0  0  0  0
  191.0890  175.0570  137.0970 N   0  0  0  0  0  0  0  0  0  0  0  0
  192.7810  173.3910  136.4790 C   0  0  0  0  0  2  0  0  0  0  0  0
  192.0260  174.6400  136.0520 C   0  0  0  0  0  3  0  0  0  0  0  0
  191.6270  173.2750  135.5120 C   0  0  0  0  0  2  0  0  0  0  0  0
  189.8080  174.3650  137.2070 C   0  0  0  0  0  2  0  0  0  0  0  0
  187.7410  174.1970  135.8570 C   0  0  0  0  0  1  0  0  0  0  0  0
  188.7230  175.1550  136.4980 C   0  0  0  0  0  2  0  0  0  0  0  0
  180.0190  178.8880  139.9350 C   0  0  0  0  0  3  0  0  0  0  0  0
  178.9540  177.8240  139.7580 C   0  0  0  0  0  2  0  0  0  0  0  0
  180.4120  177.4300  139.8220 C   0  0  0  0  0  2  0  0  0  0  0  0
  1  2  1  0  0  0  0
  2 21  1  0  0  0  0
  3  6  1  0  0  0  0
  4  9  1  0  0  0  0
  5 23  1  0  0  0  0
  6  8  1  0  0  0  0
  7 14  1  0  0  0  0
  7 12  1  0  0  0  0
  8 12  2  0  0  0  0
  9 14  2  0  0  0  0
 10 11  1  0  0  0  0
 10 20  1  0  0  0  0
 11  3  1  0  0  0  0
 12 19  1  0  0  0  0
 13 19  2  0  0  0  0
 13 17  1  0  0  0  0
 14 13  1  0  0  0  0
 15  2  2  0  0  0  0
 15  4  1  0  0  0  0
 16 11  2  0  0  0  0
 17 22  1  0  0  0  0
 18  5  2  0  0  0  0
 18 15  1  0  0  0  0
 20 21  1  0  0  0  0
 20  6  2  0  0  0  0
 21  7  2  0  0  0  0
 23  4  2  0  0  0  0
 24 16  2  0  0  0  0
 25 26  1  0  0  0  0
 26 28  2  0  0  0  0
 26  5  1  0  0  0  0
 27 29  2  0  0  0  0
 29 25  1  0  0  0  0
 30 34  1  0  0  0  0
 30 29  1  0  0  0  0
 32 31  1  0  0  0  0
 32 30  1  0  0  0  0
 33 32  1  0  0  0  0
 33 31  1  0  0  0  0
 35 36  1  0  0  0  0
 36 34  1  0  0  0  0
 37 24  1  0  0  0  0
 38 39  1  0  0  0  0
 38 37  1  0  0  0  0
 39 37  1  0  0  0  0
M  END
>  <MODEL>
2

>  <REMARK>
 VINA RESULT:     -10.5      2.111      3.364
  Name = 
  5 active torsions:
  status: ('A' for Active; 'I' for Inactive)
    1  A    between atoms: C_2  and  C_39
    2  A    between atoms: C_8  and  C_20
    3  A    between atoms: C_8  and  N_38
    4  A    between atoms: C_9  and  C_12
    5  A    between atoms: C_32  and  N_38
                            x       y       z     vdW  Elec       q    Type
                         _______ _______ _______ _____ _____    ______ ____

>  <TORSDO>
F 5

$$$$
=
 OpenBabel11042411053D

 39 45  0  0  0  0  0  0  0  0999 V2000
  187.2420  178.1500  142.2630 O   0  0  0  0  0  1  0  0  0  0  0  0
  185.9580  178.3690  141.7700 C   0  0  0  0  0  0  0  0  0  0  0  0
  184.5810  178.6260  146.3830 N   0  0  0  0  0  2  0  0  0  0  0  0
  184.7480  178.5680  139.5430 C   0  0  0  0  0  0  0  0  0  0  0  0
  186.5320  178.2570  138.3220 C   0  0  0  0  0  0  0  0  0  0  0  0
  184.1300  178.6980  145.0420 C   0  0  0  0  0  0  0  0  0  0  0  0
  183.5490  178.7860  142.3480 C   0  0  0  0  0  0  0  0  0  0  0  0
  182.8080  178.9250  144.6680 C   0  0  0  0  0  3  0  0  0  0  0  0
  183.4250  178.7980  139.8610 C   0  0  0  0  0  3  0  0  0  0  0  0
  186.4400  178.2990  144.8330 C   0  0  0  0  0  2  0  0  0  0  0  0
  185.9770  178.3840  146.2520 C   0  0  0  0  0  0  0  0  0  0  0  0
  182.5510  178.9630  143.3010 C   0  0  0  0  0  0  0  0  0  0  0  0
  181.5700  179.1240  141.4230 C   0  0  0  0  0  0  0  0  0  0  0  0
  182.9060  178.8930  141.1340 C   0  0  0  0  0  0  0  0  0  0  0  0
  185.8530  178.3820  140.3680 C   0  0  0  0  0  0  0  0  0  0  0  0
  186.7670  178.2550  147.2800 C   0  0  0  0  0  0  0  0  0  0  0  0
  180.5470  179.2960  140.4400 N   0  0  0  0  0  2  0  0  0  0  0  0
  186.9460  178.1900  139.6000 N   0  0  0  0  0  0  0  0  0  0  0  0
  181.3400  179.1700  142.7530 N   0  0  0  0  0  0  0  0  0  0  0  0
  185.1490  178.5190  144.1060 C   0  0  0  0  0  0  0  0  0  0  0  0
  184.9020  178.5550  142.7000 C   0  0  0  0  0  0  0  0  0  0  0  0
  179.1640  179.5370  140.8130 C   0  0  0  0  0  1  0  0  0  0  0  0
  185.1760  178.4900  138.2330 C   0  0  0  0  0  3  0  0  0  0  0  0
  187.5590  178.1260  148.3070 C   0  0  0  0  0  3  0  0  0  0  0  0
  188.5880  177.2600  137.2900 N   0  0  0  0  0  2  0  0  0  0  0  0
  187.4320  178.0980  137.1740 C   0  0  0  0  0  0  0  0  0  0  0  0
  189.4030  177.5460  135.1170 O   0  0  0  0  0  0  0  0  0  0  0  0
  187.1790  178.7000  136.0970 O   0  0  0  0  0  0  0  0  0  0  0  0
  189.5430  177.0080  136.2490 C   0  0  0  0  0  0  0  0  0  0  0  0
  190.6620  176.1400  136.4990 N   0  0  0  0  0  0  0  0  0  0  0  0
  192.4070  174.6270  135.6680 C   0  0  0  0  0  2  0  0  0  0  0  0
  191.7000  175.9600  135.4820 C   0  0  0  0  0  3  0  0  0  0  0  0
  191.3560  174.7750  134.5940 C   0  0  0  0  0  2  0  0  0  0  0  0
  190.9200  175.6630  137.8550 C   0  0  0  0  0  2  0  0  0  0  0  0
  191.0820  177.0580  139.8920 C   0  0  0  0  0  1  0  0  0  0  0  0
  191.7790  176.6620  138.6080 C   0  0  0  0  0  2  0  0  0  0  0  0
  189.0320  178.2270  148.1290 C   0  0  0  0  0  3  0  0  0  0  0  0
  189.3820  177.8920  146.6930 C   0  0  0  0  0  2  0  0  0  0  0  0
  189.5800  176.8580  147.7780 C   0  0  0  0  0  2  0  0  0  0  0  0
  2  1  1  0  0  0  0
  2 21  1  0  0  0  0
  4  9  1  0  0  0  0
  4 15  1  0  0  0  0
  5 18  2  0  0  0  0
  6  3  1  0  0  0  0
  7 21  2  0  0  0  0
  7 12  1  0  0  0  0
  8  6  1  0  0  0  0
  9 14  2  0  0  0  0
 10 11  1  0  0  0  0
 11  3  1  0  0  0  0
 11 16  2  0  0  0  0
 12  8  2  0  0  0  0
 13 19  2  0  0  0  0
 14 13  1  0  0  0  0
 14  7  1  0  0  0  0
 15  2  2  0  0  0  0
 16 24  2  0  0  0  0
 17 22  1  0  0  0  0
 17 13  1  0  0  0  0
 18 15  1  0  0  0  0
 19 12  1  0  0  0  0
 20 10  1  0  0  0  0
 20  6  2  0  0  0  0
 21 20  1  0  0  0  0
 23  5  1  0  0  0  0
 23  4  2  0  0  0  0
 26 25  1  0  0  0  0
 26  5  1  0  0  0  0
 27 29  2  0  0  0  0
 28 26  2  0  0  0  0
 29 30  1  0  0  0  0
 29 25  1  0  0  0  0
 30 34  1  0  0  0  0
 32 31  1  0  0  0  0
 32 30  1  0  0  0  0
 33 32  1  0  0  0  0
 33 31  1  0  0  0  0
 34 36  1  0  0  0  0
 36 35  1  0  0  0  0
 37 24  1  0  0  0  0
 38 39  1  0  0  0  0
 38 37  1  0  0  0  0
 39 37  1  0  0  0  0
M  END
>  <MODEL>
3

>  <REMARK>
 VINA RESULT:      -9.5      2.697      6.358
  Name = 
  5 active torsions:
  status: ('A' for Active; 'I' for Inactive)
    1  A    between atoms: C_2  and  C_39
    2  A    between atoms: C_8  and  C_20
    3  A    between atoms: C_8  and  N_38
    4  A    between atoms: C_9  and  C_12
    5  A    between atoms: C_32  and  N_38
                            x       y       z     vdW  Elec       q    Type
                         _______ _______ _______ _____ _____    ______ ____

>  <TORSDO>
F 5

$$$$
=
 OpenBabel11042411053D

 39 45  0  0  0  0  0  0  0  0999 V2000
  186.5090  177.8900  141.0790 O   0  0  0  0  0  1  0  0  0  0  0  0
  186.5530  177.9590  142.4700 C   0  0  0  0  0  0  0  0  0  0  0  0
  191.1720  176.6400  142.0680 N   0  0  0  0  0  2  0  0  0  0  0  0
  185.0250  178.5020  144.4280 C   0  0  0  0  0  0  0  0  0  0  0  0
  183.2710  178.9230  143.1990 C   0  0  0  0  0  0  0  0  0  0  0  0
  190.1490  176.9810  142.9860 C   0  0  0  0  0  0  0  0  0  0  0  0
  187.9700  177.6820  144.5250 C   0  0  0  0  0  0  0  0  0  0  0  0
  190.3120  177.0170  144.3690 C   0  0  0  0  0  3  0  0  0  0  0  0
  185.8050  178.3500  145.5570 C   0  0  0  0  0  3  0  0  0  0  0  0
  189.0970  177.1530  140.8890 C   0  0  0  0  0  2  0  0  0  0  0  0
  190.5320  176.7450  140.8020 C   0  0  0  0  0  0  0  0  0  0  0  0
  189.1930  177.3740  145.1140 C   0  0  0  0  0  0  0  0  0  0  0  0
  187.8900  177.8340  146.7290 C   0  0  0  0  0  0  0  0  0  0  0  0
  187.1320  177.9790  145.5780 C   0  0  0  0  0  0  0  0  0  0  0  0
  185.3450  178.3340  143.0850 C   0  0  0  0  0  0  0  0  0  0  0  0
  191.1500  176.5080  139.6800 C   0  0  0  0  0  0  0  0  0  0  0  0
  187.4000  178.0500  148.0530 N   0  0  0  0  0  2  0  0  0  0  0  0
  184.2520  178.5970  142.3380 N   0  0  0  0  0  0  0  0  0  0  0  0
  189.1600  177.4620  146.4560 N   0  0  0  0  0  0  0  0  0  0  0  0
  188.9340  177.2860  142.3720 C   0  0  0  0  0  0  0  0  0  0  0  0
  187.7760  177.6540  143.1220 C   0  0  0  0  0  0  0  0  0  0  0  0
  188.2500  177.8800  149.2190 C   0  0  0  0  0  1  0  0  0  0  0  0
  183.7000  178.8800  144.5080 C   0  0  0  0  0  3  0  0  0  0  0  0
  191.7680  176.2720  138.5570 C   0  0  0  0  0  3  0  0  0  0  0  0
  181.6680  179.6410  141.4090 N   0  0  0  0  0  2  0  0  0  0  0  0
  181.9130  179.2810  142.7740 C   0  0  0  0  0  0  0  0  0  0  0  0
  179.3680  180.0220  141.5910 O   0  0  0  0  0  0  0  0  0  0  0  0
  180.9740  179.2670  143.6140 O   0  0  0  0  0  0  0  0  0  0  0  0
  180.3940  180.0010  140.8560 C   0  0  0  0  0  0  0  0  0  0  0  0
  180.2870  180.3390  139.4630 N   0  0  0  0  0  0  0  0  0  0  0  0
  178.9310  182.3280  138.9880 C   0  0  0  0  0  2  0  0  0  0  0  0
  179.0160  180.8120  138.9120 C   0  0  0  0  0  3  0  0  0  0  0  0
  179.2690  181.6610  137.6760 C   0  0  0  0  0  2  0  0  0  0  0  0
  181.4970  180.4890  138.6590 C   0  0  0  0  0  2  0  0  0  0  0  0
  183.0860  178.6210  138.3300 C   0  0  0  0  0  1  0  0  0  0  0  0
  181.7690  179.2160  137.8790 C   0  0  0  0  0  2  0  0  0  0  0  0
  191.1750  176.7270  137.2720 C   0  0  0  0  0  3  0  0  0  0  0  0
  190.7870  175.5150  136.4480 C   0  0  0  0  0  2  0  0  0  0  0  0
  192.0600  176.2680  136.1300 C   0  0  0  0  0  2  0  0  0  0  0  0
  1  2  1  0  0  0  0
  2 15  2  0  0  0  0
  2 21  1  0  0  0  0
  3  6  1  0  0  0  0
  4 23  2  0  0  0  0
  4  9  1  0  0  0  0
  5 23  1  0  0  0  0
  6  8  1  0  0  0  0
  7 12  1  0  0  0  0
  7 14  1  0  0  0  0
  8 12  2  0  0  0  0
  9 14  2  0  0  0  0
 10 20  1  0  0  0  0
 11 10  1  0  0  0  0
 11  3  1  0  0  0  0
 12 19  1  0  0  0  0
 13 17  1  0  0  0  0
 14 13  1  0  0  0  0
 15  4  1  0  0  0  0
 16 11  2  0  0  0  0
 17 22  1  0  0  0  0
 18 15  1  0  0  0  0
 18  5  2  0  0  0  0
 19 13  2  0  0  0  0
 20  6  2  0  0  0  0
 20 21  1  0  0  0  0
 21  7  2  0  0  0  0
 24 16  2  0  0  0  0
 25 26  1  0  0  0  0
 26  5  1  0  0  0  0
 26 28  2  0  0  0  0
 29 25  1  0  0  0  0
 29 27  2  0  0  0  0
 30 29  1  0  0  0  0
 32 31  1  0  0  0  0
 32 30  1  0  0  0  0
 33 32  1  0  0  0  0
 33 31  1  0  0  0  0
 34 30  1  0  0  0  0
 36 35  1  0  0  0  0
 36 34  1  0  0  0  0
 37 24  1  0  0  0  0
 38 37  1  0  0  0  0
 39 38  1  0  0  0  0
 39 37  1  0  0  0  0
M  END
>  <MODEL>
4

>  <REMARK>
 VINA RESULT:      -9.3      3.194      9.873
  Name = 
  5 active torsions:
  status: ('A' for Active; 'I' for Inactive)
    1  A    between atoms: C_2  and  C_39
    2  A    between atoms: C_8  and  C_20
    3  A    between atoms: C_8  and  N_38
    4  A    between atoms: C_9  and  C_12
    5  A    between atoms: C_32  and  N_38
                            x       y       z     vdW  Elec       q    Type
                         _______ _______ _______ _____ _____    ______ ____

>  <TORSDO>
F 5

$$$$
=
 OpenBabel11042411053D

 39 45  0  0  0  0  0  0  0  0999 V2000
  186.9090  178.0540  141.6860 O   0  0  0  0  0  1  0  0  0  0  0  0
  185.6580  178.2800  142.2550 C   0  0  0  0  0  0  0  0  0  0  0  0
  183.9840  178.4140  137.7370 N   0  0  0  0  0  2  0  0  0  0  0  0
  184.5940  178.5290  144.5510 C   0  0  0  0  0  0  0  0  0  0  0  0
  186.4540  178.2540  145.6610 C   0  0  0  0  0  0  0  0  0  0  0  0
  183.6210  178.5180  139.1020 C   0  0  0  0  0  0  0  0  0  0  0  0
  183.2140  178.6710  141.8250 C   0  0  0  0  0  0  0  0  0  0  0  0
  182.3240  178.7460  139.5550 C   0  0  0  0  0  3  0  0  0  0  0  0
  183.2510  178.7430  144.3140 C   0  0  0  0  0  3  0  0  0  0  0  0
  185.9410  178.1350  139.1700 C   0  0  0  0  0  2  0  0  0  0  0  0
  185.3870  178.1830  137.7830 C   0  0  0  0  0  0  0  0  0  0  0  0
  182.1550  178.8190  140.9340 C   0  0  0  0  0  0  0  0  0  0  0  0
  181.2970  179.0220  142.8670 C   0  0  0  0  0  0  0  0  0  0  0  0
  182.6500  178.8040  143.0750 C   0  0  0  0  0  0  0  0  0  0  0  0
  185.6440  178.3260  143.6600 C   0  0  0  0  0  0  0  0  0  0  0  0
  186.1090  178.0270  136.7100 C   0  0  0  0  0  0  0  0  0  0  0  0
  180.3390  179.2130  143.9100 N   0  0  0  0  0  2  0  0  0  0  0  0
  186.7850  178.1590  144.3600 N   0  0  0  0  0  0  0  0  0  0  0  0
  180.9810  179.0330  141.5550 N   0  0  0  0  0  0  0  0  0  0  0  0
  184.6980  178.3660  139.9740 C   0  0  0  0  0  0  0  0  0  0  0  0
  184.5430  178.4370  141.3920 C   0  0  0  0  0  0  0  0  0  0  0  0
  178.9330  179.4370  143.6220 C   0  0  0  0  0  1  0  0  0  0  0  0
  185.1060  178.4840  145.8320 C   0  0  0  0  0  3  0  0  0  0  0  0
  186.8330  177.8700  135.6370 C   0  0  0  0  0  3  0  0  0  0  0  0
  188.7350  177.6070  146.4790 N   0  0  0  0  0  2  0  0  0  0  0  0
  187.4270  178.1260  146.7510 C   0  0  0  0  0  0  0  0  0  0  0  0
  189.5910  177.7540  148.6490 O   0  0  0  0  0  0  0  0  0  0  0  0
  187.1040  178.4740  147.9190 O   0  0  0  0  0  0  0  0  0  0  0  0
  189.7830  177.4380  147.4430 C   0  0  0  0  0  0  0  0  0  0  0  0
  191.0550  176.9060  147.0330 N   0  0  0  0  0  0  0  0  0  0  0  0
  192.0480  175.1710  148.4550 C   0  0  0  0  0  2  0  0  0  0  0  0
  192.0950  176.6290  148.0250 C   0  0  0  0  0  3  0  0  0  0  0  0
  193.0920  175.6270  147.4650 C   0  0  0  0  0  2  0  0  0  0  0  0
  191.2160  176.3760  145.6820 C   0  0  0  0  0  2  0  0  0  0  0  0
  191.1440  177.1600  143.3360 C   0  0  0  0  0  1  0  0  0  0  0  0
  191.6350  177.4820  144.7310 C   0  0  0  0  0  2  0  0  0  0  0  0
  188.1990  177.2920  135.7380 C   0  0  0  0  0  3  0  0  0  0  0  0
  188.2450  175.9880  134.9670 C   0  0  0  0  0  2  0  0  0  0  0  0
  188.1210  175.9690  136.4740 C   0  0  0  0  0  2  0  0  0  0  0  0
  1  2  1  0  0  0  0
  2 15  1  0  0  0  0
  3 11  1  0  0  0  0
  3  6  1  0  0  0  0
  4 23  1  0  0  0  0
  5 23  2  0  0  0  0
  5 26  1  0  0  0  0
  6  8  1  0  0  0  0
  6 20  2  0  0  0  0
  7 14  2  0  0  0  0
  8 12  2  0  0  0  0
  9  4  2  0  0  0  0
 10 20  1  0  0  0  0
 11 10  1  0  0  0  0
 12 19  1  0  0  0  0
 12  7  1  0  0  0  0
 13 14  1  0  0  0  0
 13 17  1  0  0  0  0
 14  9  1  0  0  0  0
 15 18  2  0  0  0  0
 15  4  1  0  0  0  0
 16 11  2  0  0  0  0
 18  5  1  0  0  0  0
 19 13  2  0  0  0  0
 20 21  1  0  0  0  0
 21  7  1  0  0  0  0
 21  2  2  0  0  0  0
 22 17  1  0  0  0  0
 24 37  1  0  0  0  0
 24 16  2  0  0  0  0
 25 26  1  0  0  0  0
 25 29  1  0  0  0  0
 26 28  2  0  0  0  0
 29 27  2  0  0  0  0
 30 29  1  0  0  0  0
 30 32  1  0  0  0  0
 32 31  1  0  0  0  0
 33 32  1  0  0  0  0
 33 31  1  0  0  0  0
 34 30  1  0  0  0  0
 35 36  1  0  0  0  0
 36 34  1  0  0  0  0
 37 39  1  0  0  0  0
 38 37  1  0  0  0  0
 38 39  1  0  0  0  0
M  END
>  <MODEL>
5

>  <REMARK>
 VINA RESULT:      -8.6      4.308      9.074
  Name = 
  5 active torsions:
  status: ('A' for Active; 'I' for Inactive)
    1  A    between atoms: C_2  and  C_39
    2  A    between atoms: C_8  and  C_20
    3  A    between atoms: C_8  and  N_38
    4  A    between atoms: C_9  and  C_12
    5  A    between atoms: C_32  and  N_38
                            x       y       z     vdW  Elec       q    Type
                         _______ _______ _______ _____ _____    ______ ____

>  <TORSDO>
F 5

$$$$
=
 OpenBabel11042411053D

 39 45  0  0  0  0  0  0  0  0999 V2000
  193.1330  176.6520  139.4190 O   0  0  0  0  0  1  0  0  0  0  0  0
  191.8070  176.7540  139.0060 C   0  0  0  0  0  0  0  0  0  0  0  0
  193.4370  175.6990  134.5940 N   0  0  0  0  0  2  0  0  0  0  0  0
  189.5110  177.2510  139.9780 C   0  0  0  0  0  0  0  0  0  0  0  0
  190.2220  177.5390  142.0230 C   0  0  0  0  0  0  0  0  0  0  0  0
  192.2790  176.0000  135.3500 C   0  0  0  0  0  0  0  0  0  0  0  0
  190.2110  176.6060  137.0720 C   0  0  0  0  0  0  0  0  0  0  0  0
  190.9920  176.0740  134.8220 C   0  0  0  0  0  3  0  0  0  0  0  0
  188.6350  177.1680  138.9150 C   0  0  0  0  0  3  0  0  0  0  0  0
  194.0140  176.0640  136.9380 C   0  0  0  0  0  2  0  0  0  0  0  0
  194.4840  175.7400  135.5570 C   0  0  0  0  0  0  0  0  0  0  0  0
  189.9740  176.3830  135.7180 C   0  0  0  0  0  0  0  0  0  0  0  0
  188.0690  176.8010  136.5630 C   0  0  0  0  0  0  0  0  0  0  0  0
  188.9730  176.8760  137.6110 C   0  0  0  0  0  0  0  0  0  0  0  0
  190.8900  177.0710  140.0230 C   0  0  0  0  0  0  0  0  0  0  0  0
  195.7290  175.5100  135.2520 C   0  0  0  0  0  0  0  0  0  0  0  0
  186.6620  177.0160  136.6900 N   0  0  0  0  0  2  0  0  0  0  0  0
  191.3140  177.2530  141.2920 N   0  0  0  0  0  0  0  0  0  0  0  0
  188.6730  176.4980  135.3940 N   0  0  0  0  0  0  0  0  0  0  0  0
  192.5430  176.2190  136.7020 C   0  0  0  0  0  0  0  0  0  0  0  0
  191.5090  176.5360  137.6350 C   0  0  0  0  0  0  0  0  0  0  0  0
  185.7690  176.9210  135.5480 C   0  0  0  0  0  1  0  0  0  0  0  0
  189.0770  177.5500  141.2540 C   0  0  0  0  0  3  0  0  0  0  0  0
  196.9760  175.2800  134.9480 C   0  0  0  0  0  3  0  0  0  0  0  0
  189.0560  177.7460  144.2330 N   0  0  0  0  0  2  0  0  0  0  0  0
  190.2640  177.8040  143.4650 C   0  0  0  0  0  0  0  0  0  0  0  0
  189.9840  178.2520  146.3190 O   0  0  0  0  0  0  0  0  0  0  0  0
  191.3640  178.0800  144.0150 O   0  0  0  0  0  0  0  0  0  0  0  0
  188.9540  177.9720  145.6460 C   0  0  0  0  0  0  0  0  0  0  0  0
  187.6740  177.8790  146.2960 N   0  0  0  0  0  0  0  0  0  0  0  0
  187.8020  176.9900  148.5790 C   0  0  0  0  0  2  0  0  0  0  0  0
  187.5400  178.2130  147.7150 C   0  0  0  0  0  3  0  0  0  0  0  0
  188.8770  178.0380  148.4180 C   0  0  0  0  0  2  0  0  0  0  0  0
  186.4630  177.7330  145.4930 C   0  0  0  0  0  2  0  0  0  0  0  0
  184.3880  179.0020  145.0400 C   0  0  0  0  0  1  0  0  0  0  0  0
  185.3190  178.5050  146.1250 C   0  0  0  0  0  2  0  0  0  0  0  0
  197.9620  174.9890  136.0220 C   0  0  0  0  0  3  0  0  0  0  0  0
  198.9150  173.9120  135.5440 C   0  0  0  0  0  2  0  0  0  0  0  0
  197.7830  173.5570  136.4820 C   0  0  0  0  0  2  0  0  0  0  0  0
  2  1  1  0  0  0  0
  2 15  1  0  0  0  0
  3  6  1  0  0  0  0
  3 11  1  0  0  0  0
  4 15  1  0  0  0  0
  4 23  1  0  0  0  0
  5 26  1  0  0  0  0
  6 20  2  0  0  0  0
  7 14  2  0  0  0  0
  7 21  1  0  0  0  0
  8  6  1  0  0  0  0
  8 12  2  0  0  0  0
  9  4  2  0  0  0  0
 11 10  1  0  0  0  0
 12  7  1  0  0  0  0
 13 17  1  0  0  0  0
 13 14  1  0  0  0  0
 14  9  1  0  0  0  0
 15 18  2  0  0  0  0
 16 11  2  0  0  0  0
 18  5  1  0  0  0  0
 19 12  1  0  0  0  0
 19 13  2  0  0  0  0
 20 10  1  0  0  0  0
 20 21  1  0  0  0  0
 21  2  2  0  0  0  0
 22 17  1  0  0  0  0
 23  5  2  0  0  0  0
 24 16  2  0  0  0  0
 24 37  1  0  0  0  0
 25 29  1  0  0  0  0
 26 28  2  0  0  0  0
 26 25  1  0  0  0  0
 29 30  1  0  0  0  0
 29 27  2  0  0  0  0
 30 32  1  0  0  0  0
 32 33  1  0  0  0  0
 32 31  1  0  0  0  0
 33 31  1  0  0  0  0
 34 36  1  0  0  0  0
 34 30  1  0  0  0  0
 35 36  1  0  0  0  0
 37 39  1  0  0  0  0
 38 37  1  0  0  0  0
 38 39  1  0  0  0  0
M  END
>  <MODEL>
6

>  <REMARK>
 VINA RESULT:      -8.4      2.581     11.650
  Name = 
  5 active torsions:
  status: ('A' for Active; 'I' for Inactive)
    1  A    between atoms: C_2  and  C_39
    2  A    between atoms: C_8  and  C_20
    3  A    between atoms: C_8  and  N_38
    4  A    between atoms: C_9  and  C_12
    5  A    between atoms: C_32  and  N_38
                            x       y       z     vdW  Elec       q    Type
                         _______ _______ _______ _____ _____    ______ ____

>  <TORSDO>
F 5

$$$$
=
 OpenBabel11042411053D

 39 45  0  0  0  0  0  0  0  0999 V2000
  186.0310  178.5940  142.3530 O   0  0  0  0  0  1  0  0  0  0  0  0
  186.3960  178.4420  141.0170 C   0  0  0  0  0  0  0  0  0  0  0  0
  190.6510  176.9120  142.6860 N   0  0  0  0  0  2  0  0  0  0  0  0
  185.4130  178.7690  138.6950 C   0  0  0  0  0  0  0  0  0  0  0  0
  183.4740  179.4850  139.4010 C   0  0  0  0  0  0  0  0  0  0  0  0
  189.9010  177.1700  141.5120 C   0  0  0  0  0  0  0  0  0  0  0  0
  188.2080  177.7590  139.4170 C   0  0  0  0  0  0  0  0  0  0  0  0
  190.3760  176.9780  140.2170 C   0  0  0  0  0  3  0  0  0  0  0  0
  186.4090  178.3930  137.8160 C   0  0  0  0  0  3  0  0  0  0  0  0
  188.4230  177.7330  143.2540 C   0  0  0  0  0  2  0  0  0  0  0  0
  189.7550  177.2550  143.7360 C   0  0  0  0  0  0  0  0  0  0  0  0
  189.4960  177.2860  139.1850 C   0  0  0  0  0  0  0  0  0  0  0  0
  188.6450  177.5700  137.2590 C   0  0  0  0  0  0  0  0  0  0  0  0
  187.6640  177.9400  138.1650 C   0  0  0  0  0  0  0  0  0  0  0  0
  185.4020  178.7920  140.0860 C   0  0  0  0  0  0  0  0  0  0  0  0
  190.0750  177.1530  144.9950 C   0  0  0  0  0  0  0  0  0  0  0  0
  188.4910  177.6060  135.8390 N   0  0  0  0  0  2  0  0  0  0  0  0
  184.1990  179.2360  140.5070 N   0  0  0  0  0  0  0  0  0  0  0  0
  189.7760  177.1650  137.8740 N   0  0  0  0  0  0  0  0  0  0  0  0
  188.6150  177.6430  141.7710 C   0  0  0  0  0  0  0  0  0  0  0  0
  187.6990  177.9630  140.7240 C   0  0  0  0  0  0  0  0  0  0  0  0
  189.5620  177.2020  134.9440 C   0  0  0  0  0  1  0  0  0  0  0  0
  184.1830  179.2110  138.2510 C   0  0  0  0  0  3  0  0  0  0  0  0
  190.3930  177.0500  146.2550 C   0  0  0  0  0  3  0  0  0  0  0  0
  181.7670  181.2050  138.7580 N   0  0  0  0  0  2  0  0  0  0  0  0
  182.0960  179.9870  139.4360 C   0  0  0  0  0  0  0  0  0  0  0  0
  179.4890  181.2540  139.2840 O   0  0  0  0  0  0  0  0  0  0  0  0
  181.2140  179.3410  140.0620 O   0  0  0  0  0  0  0  0  0  0  0  0
  180.4650  181.8040  138.7020 C   0  0  0  0  0  0  0  0  0  0  0  0
  180.2710  183.0330  137.9810 N   0  0  0  0  0  0  0  0  0  0  0  0
  178.9320  184.7470  139.1160 C   0  0  0  0  0  2  0  0  0  0  0  0
  178.9730  183.7080  138.0060 C   0  0  0  0  0  3  0  0  0  0  0  0
  179.1490  185.1840  137.6870 C   0  0  0  0  0  2  0  0  0  0  0  0
  181.4280  183.7580  137.4630 C   0  0  0  0  0  2  0  0  0  0  0  0
  180.8810  182.9250  135.1970 C   0  0  0  0  0  1  0  0  0  0  0  0
  181.1910  184.1590  136.0180 C   0  0  0  0  0  2  0  0  0  0  0  0
  189.3330  177.0800  147.2960 C   0  0  0  0  0  3  0  0  0  0  0  0
  188.8960  178.5140  147.5190 C   0  0  0  0  0  2  0  0  0  0  0  0
  189.8410  177.8520  148.4960 C   0  0  0  0  0  2  0  0  0  0  0  0
  2  1  1  0  0  0  0
  3 11  1  0  0  0  0
  4 15  1  0  0  0  0
  5 26  1  0  0  0  0
  5 18  2  0  0  0  0
  6 20  1  0  0  0  0
  6  3  1  0  0  0  0
  7 21  1  0  0  0  0
  8  6  2  0  0  0  0
  9 14  2  0  0  0  0
  9  4  1  0  0  0  0
 10 11  1  0  0  0  0
 11 16  2  0  0  0  0
 12  7  2  0  0  0  0
 12  8  1  0  0  0  0
 13 19  2  0  0  0  0
 13 14  1  0  0  0  0
 14  7  1  0  0  0  0
 15 18  1  0  0  0  0
 15  2  2  0  0  0  0
 16 24  2  0  0  0  0
 17 13  1  0  0  0  0
 19 12  1  0  0  0  0
 20 10  1  0  0  0  0
 21  2  1  0  0  0  0
 21 20  2  0  0  0  0
 22 17  1  0  0  0  0
 23  4  2  0  0  0  0
 23  5  1  0  0  0  0
 24 37  1  0  0  0  0
 25 26  1  0  0  0  0
 26 28  2  0  0  0  0
 29 25  1  0  0  0  0
 29 27  2  0  0  0  0
 30 32  1  0  0  0  0
 30 29  1  0  0  0  0
 32 31  1  0  0  0  0
 33 32  1  0  0  0  0
 33 31  1  0  0  0  0
 34 30  1  0  0  0  0
 35 36  1  0  0  0  0
 36 34  1  0  0  0  0
 37 38  1  0  0  0  0
 37 39  1  0  0  0  0
 38 39  1  0  0  0  0
M  END
>  <MODEL>
7

>  <REMARK>
 VINA RESULT:      -8.3      4.658     10.617
  Name = 
  5 active torsions:
  status: ('A' for Active; 'I' for Inactive)
    1  A    between atoms: C_2  and  C_39
    2  A    between atoms: C_8  and  C_20
    3  A    between atoms: C_8  and  N_38
    4  A    between atoms: C_9  and  C_12
    5  A    between atoms: C_32  and  N_38
                            x       y       z     vdW  Elec       q    Type
                         _______ _______ _______ _____ _____    ______ ____

>  <TORSDO>
F 5

$$$$
=
 OpenBabel11042411053D

 39 45  0  0  0  0  0  0  0  0999 V2000
  187.4840  177.4620  139.4370 O   0  0  0  0  0  1  0  0  0  0  0  0
  188.8000  177.2050  139.0590 C   0  0  0  0  0  0  0  0  0  0  0  0
  187.0710  176.6530  134.5940 N   0  0  0  0  0  2  0  0  0  0  0  0
  191.1170  177.0580  140.0970 C   0  0  0  0  0  0  0  0  0  0  0  0
  190.4530  177.5180  142.1260 C   0  0  0  0  0  0  0  0  0  0  0  0
  188.2460  176.6260  135.3830 C   0  0  0  0  0  0  0  0  0  0  0  0
  190.3510  176.6420  137.1650 C   0  0  0  0  0  0  0  0  0  0  0  0
  189.5200  176.3550  134.8890 C   0  0  0  0  0  3  0  0  0  0  0  0
  191.9680  176.7490  139.0550 C   0  0  0  0  0  3  0  0  0  0  0  0
  186.5480  177.1470  136.9270 C   0  0  0  0  0  2  0  0  0  0  0  0
  186.0470  176.9680  135.5300 C   0  0  0  0  0  0  0  0  0  0  0  0
  190.5580  176.3710  135.8150 C   0  0  0  0  0  0  0  0  0  0  0  0
  192.4800  176.2550  136.7140 C   0  0  0  0  0  0  0  0  0  0  0  0
  191.6010  176.5660  137.7390 C   0  0  0  0  0  0  0  0  0  0  0  0
  189.7390  177.2580  140.1040 C   0  0  0  0  0  0  0  0  0  0  0  0
  184.7960  177.0890  135.1900 C   0  0  0  0  0  0  0  0  0  0  0  0
  193.8890  176.0830  136.8800 N   0  0  0  0  0  2  0  0  0  0  0  0
  189.3450  177.5400  141.3630 N   0  0  0  0  0  0  0  0  0  0  0  0
  191.8500  176.1340  135.5260 N   0  0  0  0  0  0  0  0  0  0  0  0
  188.0130  176.9010  136.7310 C   0  0  0  0  0  0  0  0  0  0  0  0
  189.0670  176.9220  137.6940 C   0  0  0  0  0  0  0  0  0  0  0  0
  194.7550  175.7580  135.7590 C   0  0  0  0  0  1  0  0  0  0  0  0
  191.5790  177.2230  141.3860 C   0  0  0  0  0  3  0  0  0  0  0  0
  183.5430  177.2120  134.8500 C   0  0  0  0  0  3  0  0  0  0  0  0
  189.2050  177.7410  144.2890 N   0  0  0  0  0  2  0  0  0  0  0  0
  190.4430  177.7800  143.5690 C   0  0  0  0  0  0  0  0  0  0  0  0
  190.0580  178.2270  146.4110 O   0  0  0  0  0  0  0  0  0  0  0  0
  191.5250  178.0350  144.1630 O   0  0  0  0  0  0  0  0  0  0  0  0
  189.0510  177.9660  145.6970 C   0  0  0  0  0  0  0  0  0  0  0  0
  187.7450  177.8950  146.2960 N   0  0  0  0  0  0  0  0  0  0  0  0
  187.6090  176.9720  148.5650 C   0  0  0  0  0  2  0  0  0  0  0  0
  187.5600  178.2280  147.7090 C   0  0  0  0  0  3  0  0  0  0  0  0
  188.8150  177.8780  148.4930 C   0  0  0  0  0  2  0  0  0  0  0  0
  186.5640  177.7710  145.4450 C   0  0  0  0  0  2  0  0  0  0  0  0
  184.5490  178.9660  144.6470 C   0  0  0  0  0  1  0  0  0  0  0  0
  185.5750  178.8790  145.7570 C   0  0  0  0  0  2  0  0  0  0  0  0
  182.5830  177.8740  135.7720 C   0  0  0  0  0  3  0  0  0  0  0  0
  181.2060  177.2750  135.5680 C   0  0  0  0  0  2  0  0  0  0  0  0
  181.5450  178.6150  134.9540 C   0  0  0  0  0  2  0  0  0  0  0  0
  2  1  1  0  0  0  0
  2 15  1  0  0  0  0
  3  6  1  0  0  0  0
  3 11  1  0  0  0  0
  4 15  1  0  0  0  0
  4 23  1  0  0  0  0
  5 26  1  0  0  0  0
  6 20  2  0  0  0  0
  7 21  1  0  0  0  0
  7 14  2  0  0  0  0
  8  6  1  0  0  0  0
  8 12  2  0  0  0  0
  9  4  2  0  0  0  0
 11 10  1  0  0  0  0
 12  7  1  0  0  0  0
 13 17  1  0  0  0  0
 13 14  1  0  0  0  0
 14  9  1  0  0  0  0
 15 18  2  0  0  0  0
 16 11  2  0  0  0  0
 18  5  1  0  0  0  0
 19 12  1  0  0  0  0
 19 13  2  0  0  0  0
 20 10  1  0  0  0  0
 20 21  1  0  0  0  0
 21  2  2  0  0  0  0
 22 17  1  0  0  0  0
 23  5  2  0  0  0  0
 24 16  2  0  0  0  0
 24 37  1  0  0  0  0
 25 29  1  0  0  0  0
 26 28  2  0  0  0  0
 26 25  1  0  0  0  0
 29 30  1  0  0  0  0
 29 27  2  0  0  0  0
 30 32  1  0  0  0  0
 32 33  1  0  0  0  0
 32 31  1  0  0  0  0
 33 31  1  0  0  0  0
 34 36  1  0  0  0  0
 34 30  1  0  0  0  0
 35 36  1  0  0  0  0
 38 37  1  0  0  0  0
 39 38  1  0  0  0  0
 39 37  1  0  0  0  0
M  END
>  <MODEL>
8

>  <REMARK>
 VINA RESULT:      -8.1      3.782      9.286
  Name = 
  5 active torsions:
  status: ('A' for Active; 'I' for Inactive)
    1  A    between atoms: C_2  and  C_39
    2  A    between atoms: C_8  and  C_20
    3  A    between atoms: C_8  and  N_38
    4  A    between atoms: C_9  and  C_12
    5  A    between atoms: C_32  and  N_38
                            x       y       z     vdW  Elec       q    Type
                         _______ _______ _______ _____ _____    ______ ____

>  <TORSDO>
F 5

$$$$
=
 OpenBabel11042411053D

 39 45  0  0  0  0  0  0  0  0999 V2000
  187.7480  177.8980  140.9120 O   0  0  0  0  0  1  0  0  0  0  0  0
  188.5440  177.7330  142.0430 C   0  0  0  0  0  0  0  0  0  0  0  0
  184.5050  178.3990  144.5880 N   0  0  0  0  0  2  0  0  0  0  0  0
  190.9730  177.2880  142.6500 C   0  0  0  0  0  0  0  0  0  0  0  0
  191.6800  177.2050  140.5860 C   0  0  0  0  0  0  0  0  0  0  0  0
  185.8960  178.1490  144.6820 C   0  0  0  0  0  0  0  0  0  0  0  0
  188.6090  177.6690  144.5530 C   0  0  0  0  0  0  0  0  0  0  0  0
  186.5890  178.0000  145.8810 C   0  0  0  0  0  3  0  0  0  0  0  0
  191.0070  177.2530  144.0300 C   0  0  0  0  0  3  0  0  0  0  0  0
  185.5060  178.2670  142.3650 C   0  0  0  0  0  2  0  0  0  0  0  0
  184.2730  178.4700  143.1860 C   0  0  0  0  0  0  0  0  0  0  0  0
  187.9550  177.7600  145.7790 C   0  0  0  0  0  0  0  0  0  0  0  0
  189.9930  177.3870  146.2530 C   0  0  0  0  0  0  0  0  0  0  0  0
  189.9270  177.4270  144.8690 C   0  0  0  0  0  0  0  0  0  0  0  0
  189.9050  177.4960  141.7820 C   0  0  0  0  0  0  0  0  0  0  0  0
  183.0940  178.6880  142.6790 C   0  0  0  0  0  0  0  0  0  0  0  0
  191.1890  177.1580  147.0000 N   0  0  0  0  0  2  0  0  0  0  0  0
  190.3570  177.4420  140.5120 N   0  0  0  0  0  0  0  0  0  0  0  0
  188.7860  177.5890  146.8240 N   0  0  0  0  0  0  0  0  0  0  0  0
  186.5270  178.0630  143.4420 C   0  0  0  0  0  0  0  0  0  0  0  0
  187.9280  177.8160  143.3190 C   0  0  0  0  0  0  0  0  0  0  0  0
  191.1870  177.1270  148.4530 C   0  0  0  0  0  1  0  0  0  0  0  0
  192.1100  177.1010  141.8920 C   0  0  0  0  0  3  0  0  0  0  0  0
  181.9130  178.9050  142.1690 C   0  0  0  0  0  3  0  0  0  0  0  0
  192.0070  176.5340  138.1920 N   0  0  0  0  0  2  0  0  0  0  0  0
  192.5420  177.0740  139.4070 C   0  0  0  0  0  0  0  0  0  0  0  0
  193.9460  176.6920  136.8950 O   0  0  0  0  0  0  0  0  0  0  0  0
  193.7460  177.4400  139.4720 O   0  0  0  0  0  0  0  0  0  0  0  0
  192.7310  176.3600  136.9660 C   0  0  0  0  0  0  0  0  0  0  0  0
  192.0690  175.8050  135.8160 N   0  0  0  0  0  0  0  0  0  0  0  0
  194.2750  175.9520  134.7500 C   0  0  0  0  0  2  0  0  0  0  0  0
  192.8240  175.5230  134.5940 C   0  0  0  0  0  3  0  0  0  0  0  0
  193.9060  174.4930  134.8780 C   0  0  0  0  0  2  0  0  0  0  0  0
  190.7220  175.2580  135.9490 C   0  0  0  0  0  2  0  0  0  0  0  0
  189.4150  173.2900  136.6850 C   0  0  0  0  0  1  0  0  0  0  0  0
  190.7500  173.9960  136.7920 C   0  0  0  0  0  2  0  0  0  0  0  0
  181.6600  178.6260  140.7320 C   0  0  0  0  0  3  0  0  0  0  0  0
  180.1750  178.7550  140.4540 C   0  0  0  0  0  2  0  0  0  0  0  0
  180.7960  177.3860  140.6150 C   0  0  0  0  0  2  0  0  0  0  0  0
  1  2  1  0  0  0  0
  2 21  1  0  0  0  0
  3  6  1  0  0  0  0
  4  9  1  0  0  0  0
  5 23  1  0  0  0  0
  6  8  1  0  0  0  0
  7 14  1  0  0  0  0
  7 12  1  0  0  0  0
  9 14  2  0  0  0  0
 10 11  1  0  0  0  0
 10 20  1  0  0  0  0
 11  3  1  0  0  0  0
 12  8  2  0  0  0  0
 12 19  1  0  0  0  0
 13 19  2  0  0  0  0
 13 17  1  0  0  0  0
 14 13  1  0  0  0  0
 15  2  2  0  0  0  0
 15  4  1  0  0  0  0
 16 11  2  0  0  0  0
 17 22  1  0  0  0  0
 18  5  2  0  0  0  0
 18 15  1  0  0  0  0
 20  6  2  0  0  0  0
 21 20  1  0  0  0  0
 21  7  2  0  0  0  0
 23  4  2  0  0  0  0
 24 16  2  0  0  0  0
 25 26  1  0  0  0  0
 26 28  2  0  0  0  0
 26  5  1  0  0  0  0
 27 29  2  0  0  0  0
 29 25  1  0  0  0  0
 30 34  1  0  0  0  0
 30 29  1  0  0  0  0
 31 33  1  0  0  0  0
 32 31  1  0  0  0  0
 32 33  1  0  0  0  0
 32 30  1  0  0  0  0
 34 36  1  0  0  0  0
 35 36  1  0  0  0  0
 37 24  1  0  0  0  0
 38 39  1  0  0  0  0
 38 37  1  0  0  0  0
 39 37  1  0  0  0  0
M  END
>  <MODEL>
9

>  <REMARK>
 VINA RESULT:      -8.0      1.712      2.141
  Name = 
  5 active torsions:
  status: ('A' for Active; 'I' for Inactive)
    1  A    between atoms: C_2  and  C_39
    2  A    between atoms: C_8  and  C_20
    3  A    between atoms: C_8  and  N_38
    4  A    between atoms: C_9  and  C_12
    5  A    between atoms: C_32  and  N_38
                            x       y       z     vdW  Elec       q    Type
                         _______ _______ _______ _____ _____    ______ ____

>  <TORSDO>
F 5

$$$$
