=
 OpenBabel11032419543D

 41 40  0  0  1  0  0  0  0  0999 V2000
  192.3320  176.7980  139.2170 C   0  0  0  0  0  0  0  0  0  0  0  0
  191.2620  177.1320  140.1160 N   0  0  0  0  0  0  0  0  0  0  0  0
  193.5080  177.1730  139.4740 O   0  0  0  0  0  0  0  0  0  0  0  0
  191.5300  177.8690  141.2810 N   0  0  0  0  0  2  0  0  0  0  0  0
  191.4390  176.9550  142.4150 C   0  0  0  0  0  2  0  0  0  0  0  0
  191.5840  177.7030  143.7390 C   0  0  1  0  0  3  0  0  0  0  0  0
  190.7750  178.9860  143.7120 C   0  0  0  0  0  1  0  0  0  0  0  0
  191.1660  176.8490  144.9330 C   0  0  0  0  0  2  0  0  0  0  0  0
  189.9100  177.3920  145.6020 C   0  0  0  0  0  2  0  0  0  0  0  0
  189.8830  177.0360  147.0500 C   0  0  0  0  0  0  0  0  0  0  0  0
  188.6700  176.7940  147.6810 O   0  0  0  0  0  0  0  0  0  0  0  0
  190.9600  176.9290  147.6920 O   0  0  0  0  0  1  0  0  0  0  0  0
  192.0850  175.9890  137.9800 C   0  0  0  0  0  2  0  0  0  0  0  0
  193.0700  176.3570  136.9080 C   0  0  0  0  0  3  0  0  0  0  0  0
  193.9530  175.4980  136.3860 C   0  0  0  0  0  3  0  0  0  0  0  0
  194.0800  174.0780  136.8440 C   0  0  0  0  0  2  0  0  0  0  0  0
  195.4930  173.6200  136.7040 C   0  0  0  0  0  0  0  0  0  0  0  0
  195.9690  173.4430  135.5930 O   0  0  0  0  0  0  0  0  0  0  0  0
  196.3070  173.3580  137.9350 C   0  0  2  0  0  3  0  0  0  0  0  0
  195.4390  173.2010  139.0890 N   0  0  0  0  0  1  0  0  0  0  0  0
  197.2770  175.0660  139.2420 O   0  0  0  0  0  0  0  0  0  0  0  0
  197.2850  174.4610  138.1810 C   0  0  0  0  0  3  0  0  0  0  0  0
  189.8720  176.9030  139.7420 C   0  0  0  0  0  2  0  0  0  0  0  0
  188.4900  178.7900  140.2230 O   0  0  0  0  0  1  0  0  0  0  0  0
  189.2490  178.1860  139.2170 C   0  0  2  0  0  3  0  0  0  0  0  0
  188.3880  177.9100  137.9840 C   0  0  2  0  0  3  0  0  0  0  0  0
  189.3360  176.9490  135.8320 C   0  0  0  0  0  0  0  0  0  0  0  0
  188.8070  175.8270  136.0510 O   0  0  0  0  0  1  0  0  0  0  0  0
  190.0670  177.1480  134.6680 O   0  0  0  0  0  0  0  0  0  0  0  0
  189.1960  178.0140  136.7720 N   0  0  0  0  0  2  0  0  0  0  0  0
  187.3230  178.8180  137.9170 O   0  0  0  0  0  0  0  0  0  0  0  0
  184.0980  177.2910  138.0450 O   0  0  0  0  0  0  0  0  0  0  0  0
  186.2360  178.0740  137.5890 N   0  0  0  0  0  2  0  0  0  0  0  0
  185.0450  178.0440  138.3870 C   0  0  0  0  0  0  0  0  0  0  0  0
  184.4910  180.1620  139.3050 O   0  0  0  0  0  1  0  0  0  0  0  0
  184.8960  178.8660  139.6310 C   0  0  1  0  0  3  0  0  0  0  0  0
  183.9330  178.2350  140.5960 C   0  0  0  0  0  3  0  0  0  0  0  0
  184.0750  178.2930  141.9250 C   0  0  0  0  0  3  0  0  0  0  0  0
  185.2190  178.9900  142.5870 C   0  0  0  0  0  2  0  0  0  0  0  0
  186.2940  177.9800  142.9340 C   0  0  0  0  0  2  0  0  0  0  0  0
  186.3610  177.8150  144.4380 C   0  0  0  0  0  1  0  0  0  0  0  0
  1  3  2  0  0  0  0
  1  2  1  0  0  0  0
  2  4  1  0  0  0  0
  4  5  1  0  0  0  0
  5  6  1  0  0  0  0
  6  7  1  6  0  0  0
  6  8  1  0  0  0  0
  8  9  1  0  0  0  0
  9 10  1  0  0  0  0
 10 11  2  0  0  0  0
 10 12  1  0  0  0  0
 13  1  1  0  0  0  0
 14 13  1  0  0  0  0
 15 16  1  0  0  0  0
 15 14  2  0  0  0  0
 17 16  1  0  0  0  0
 17 19  1  0  0  0  0
 18 17  2  0  0  0  0
 19 22  1  0  0  0  0
 19 20  1  1  0  0  0
 22 21  2  0  0  0  0
 23  2  1  0  0  0  0
 25 23  1  0  0  0  0
 25 24  1  1  0  0  0
 26 30  1  6  0  0  0
 26 25  1  0  0  0  0
 27 28  1  0  0  0  0
 27 30  1  0  0  0  0
 29 27  2  0  0  0  0
 31 26  1  0  0  0  0
 32 34  2  0  0  0  0
 33 31  1  0  0  0  0
 33 34  1  0  0  0  0
 34 36  1  0  0  0  0
 36 35  1  6  0  0  0
 36 37  1  0  0  0  0
 37 38  2  0  0  0  0
 38 39  1  0  0  0  0
 39 40  1  0  0  0  0
 40 41  1  0  0  0  0
M  END
>  <MODEL>
1

>  <REMARK>
 VINA RESULT:      -6.7      0.000      0.000
  Name = 
  22 active torsions:
  status: ('A' for Active; 'I' for Inactive)
    1  A    between atoms: C_3  and  N_11
    2  A    between atoms: C_3  and  C_14
    3  A    between atoms: C_4  and  C_7
    4  A    between atoms: C_4  and  C_12
    5  A    between atoms: C_8  and  C_34
    6  A    between atoms: N_10  and  O_33
    7  A    between atoms: N_11  and  N_27
    8  A    between atoms: C_13  and  C_17
    9  A    between atoms: C_13  and  C_38
   10  A    between atoms: C_14  and  C_23
   11  A    between atoms: C_15  and  C_30
   12  A    between atoms: C_15  and  C_32
   13  A    between atoms: C_16  and  C_37
   14  A    between atoms: C_16  and  C_41
   15  A    between atoms: C_17  and  N_27
   16  A    between atoms: C_19  and  C_28
   17  A    between atoms: C_19  and  C_37
   18  A    between atoms: C_21  and  C_35
   19  A    between atoms: C_22  and  C_35
   20  A    between atoms: C_23  and  N_31
   21  A    between atoms: C_23  and  O_33
   22  A    between atoms: C_34  and  C_38
                            x       y       z     vdW  Elec       q    Type
                         _______ _______ _______ _____ _____    ______ ____

>  <TORSDO>
F 22

$$$$
=
 OpenBabel11032419543D

 41 40  0  0  1  0  0  0  0  0999 V2000
  185.4140  178.8420  140.8580 C   0  0  0  0  0  0  0  0  0  0  0  0
  186.7280  178.5450  141.3580 N   0  0  0  0  0  0  0  0  0  0  0  0
  185.2840  179.4920  139.7850 O   0  0  0  0  0  0  0  0  0  0  0  0
  187.8620  178.9710  140.6480 N   0  0  0  0  0  2  0  0  0  0  0  0
  188.0650  178.0480  139.5360 C   0  0  0  0  0  2  0  0  0  0  0  0
  189.4770  178.1700  138.9680 C   0  0  1  0  0  3  0  0  0  0  0  0
  190.3430  177.0230  139.4540 C   0  0  0  0  0  1  0  0  0  0  0  0
  189.4820  178.2150  137.4420 C   0  0  0  0  0  2  0  0  0  0  0  0
  188.8730  176.9560  136.8390 C   0  0  0  0  0  2  0  0  0  0  0  0
  187.8080  177.3010  135.8540 C   0  0  0  0  0  0  0  0  0  0  0  0
  186.4720  177.2560  136.2330 O   0  0  0  0  0  1  0  0  0  0  0  0
  188.1200  177.6570  134.6870 O   0  0  0  0  0  0  0  0  0  0  0  0
  184.1850  178.3770  141.5760 C   0  0  0  0  0  2  0  0  0  0  0  0
  183.4360  177.3780  140.7420 C   0  0  0  0  0  3  0  0  0  0  0  0
  182.1460  177.5050  140.4130 C   0  0  0  0  0  3  0  0  0  0  0  0
  181.2940  178.6470  140.8750 C   0  0  0  0  0  2  0  0  0  0  0  0
  180.2910  178.1670  141.8700 C   0  0  0  0  0  0  0  0  0  0  0  0
  179.6220  177.1730  141.6300 O   0  0  0  0  0  0  0  0  0  0  0  0
  180.1000  178.9260  143.1480 C   0  0  2  0  0  3  0  0  0  0  0  0
  179.5770  178.0490  144.1810 N   0  0  0  0  0  1  0  0  0  0  0  0
  179.6000  181.1330  142.4820 O   0  0  0  0  0  0  0  0  0  0  0  0
  179.1800  180.0880  142.9540 C   0  0  0  0  0  3  0  0  0  0  0  0
  186.9130  177.9900  142.6940 C   0  0  0  0  0  2  0  0  0  0  0  0
  187.6430  175.7680  143.1690 O   0  0  0  0  0  1  0  0  0  0  0  0
  188.0760  177.0120  142.7030 C   0  0  2  0  0  3  0  0  0  0  0  0
  189.2260  177.5400  143.5610 C   0  0  2  0  0  3  0  0  0  0  0  0
  191.4120  176.2460  143.5050 C   0  0  0  0  0  0  0  0  0  0  0  0
  191.8870  177.0050  142.6190 O   0  0  0  0  0  0  0  0  0  0  0  0
  192.1880  175.2130  144.0130 O   0  0  0  0  0  1  0  0  0  0  0  0
  190.0830  176.4370  143.9880 N   0  0  0  0  0  2  0  0  0  0  0  0
  188.7300  178.2130  144.6860 O   0  0  0  0  0  0  0  0  0  0  0  0
  190.2470  177.5500  147.8490 O   0  0  0  0  0  0  0  0  0  0  0  0
  189.6640  178.0320  145.6540 N   0  0  0  0  0  2  0  0  0  0  0  0
  189.3300  177.6500  146.9950 C   0  0  0  0  0  0  0  0  0  0  0  0
  187.8990  176.4600  148.4690 O   0  0  0  0  0  1  0  0  0  0  0  0
  187.9180  177.3850  147.4220 C   0  0  1  0  0  3  0  0  0  0  0  0
  187.2150  178.6520  147.8170 C   0  0  0  0  0  3  0  0  0  0  0  0
  186.0400  179.0350  147.3050 C   0  0  0  0  0  3  0  0  0  0  0  0
  185.3090  178.2390  146.2720 C   0  0  0  0  0  2  0  0  0  0  0  0
  184.8250  179.1600  145.1720 C   0  0  0  0  0  2  0  0  0  0  0  0
  183.3390  178.9580  144.9650 C   0  0  0  0  0  1  0  0  0  0  0  0
  1  2  1  0  0  0  0
  1 13  1  0  0  0  0
  2 23  1  0  0  0  0
  3  1  2  0  0  0  0
  4  2  1  0  0  0  0
  5  4  1  0  0  0  0
  6  7  1  6  0  0  0
  6  5  1  0  0  0  0
  8  6  1  0  0  0  0
  9  8  1  0  0  0  0
 10 11  1  0  0  0  0
 10  9  1  0  0  0  0
 12 10  2  0  0  0  0
 14 13  1  0  0  0  0
 15 14  2  0  0  0  0
 15 16  1  0  0  0  0
 16 17  1  0  0  0  0
 17 19  1  0  0  0  0
 18 17  2  0  0  0  0
 19 20  1  1  0  0  0
 21 22  2  0  0  0  0
 22 19  1  0  0  0  0
 23 25  1  0  0  0  0
 25 24  1  1  0  0  0
 25 26  1  0  0  0  0
 26 30  1  1  0  0  0
 26 31  1  0  0  0  0
 27 30  1  0  0  0  0
 27 29  1  0  0  0  0
 28 27  2  0  0  0  0
 31 33  1  0  0  0  0
 33 34  1  0  0  0  0
 34 36  1  0  0  0  0
 34 32  2  0  0  0  0
 36 37  1  0  0  0  0
 36 35  1  1  0  0  0
 38 37  2  0  0  0  0
 39 38  1  0  0  0  0
 40 39  1  0  0  0  0
 41 40  1  0  0  0  0
M  END
>  <MODEL>
2

>  <REMARK>
 VINA RESULT:      -6.5      3.697     10.294
  Name = 
  22 active torsions:
  status: ('A' for Active; 'I' for Inactive)
    1  A    between atoms: C_3  and  N_11
    2  A    between atoms: C_3  and  C_14
    3  A    between atoms: C_4  and  C_7
    4  A    between atoms: C_4  and  C_12
    5  A    between atoms: C_8  and  C_34
    6  A    between atoms: N_10  and  O_33
    7  A    between atoms: N_11  and  N_27
    8  A    between atoms: C_13  and  C_17
    9  A    between atoms: C_13  and  C_38
   10  A    between atoms: C_14  and  C_23
   11  A    between atoms: C_15  and  C_30
   12  A    between atoms: C_15  and  C_32
   13  A    between atoms: C_16  and  C_37
   14  A    between atoms: C_16  and  C_41
   15  A    between atoms: C_17  and  N_27
   16  A    between atoms: C_19  and  C_28
   17  A    between atoms: C_19  and  C_37
   18  A    between atoms: C_21  and  C_35
   19  A    between atoms: C_22  and  C_35
   20  A    between atoms: C_23  and  N_31
   21  A    between atoms: C_23  and  O_33
   22  A    between atoms: C_34  and  C_38
                            x       y       z     vdW  Elec       q    Type
                         _______ _______ _______ _____ _____    ______ ____

>  <TORSDO>
F 22

$$$$
=
 OpenBabel11032419543D

 41 40  0  0  1  0  0  0  0  0999 V2000
  188.4200  177.9750  140.8690 C   0  0  0  0  0  0  0  0  0  0  0  0
  189.6720  177.2930  141.0510 N   0  0  0  0  0  0  0  0  0  0  0  0
  188.2510  178.7180  139.8650 O   0  0  0  0  0  0  0  0  0  0  0  0
  190.7000  177.4510  140.1080 N   0  0  0  0  0  2  0  0  0  0  0  0
  190.6170  176.3380  139.1680 C   0  0  0  0  0  2  0  0  0  0  0  0
  191.3520  176.6570  137.8680 C   0  0  1  0  0  3  0  0  0  0  0  0
  192.6120  175.8180  137.7540 C   0  0  0  0  0  1  0  0  0  0  0  0
  190.4720  176.4410  136.6400 C   0  0  0  0  0  2  0  0  0  0  0  0
  189.2640  177.3700  136.6430 C   0  0  0  0  0  2  0  0  0  0  0  0
  187.9970  176.5930  136.5150 C   0  0  0  0  0  0  0  0  0  0  0  0
  187.6310  176.0620  135.2850 O   0  0  0  0  0  0  0  0  0  0  0  0
  187.2730  176.3970  137.5270 O   0  0  0  0  0  1  0  0  0  0  0  0
  187.2940  177.8050  141.8410 C   0  0  0  0  0  2  0  0  0  0  0  0
  186.5310  179.0900  141.9900 C   0  0  0  0  0  3  0  0  0  0  0  0
  185.3370  179.3130  141.4290 C   0  0  0  0  0  3  0  0  0  0  0  0
  184.6450  178.3110  140.5560 C   0  0  0  0  0  2  0  0  0  0  0  0
  183.9470  179.0050  139.4350 C   0  0  0  0  0  0  0  0  0  0  0  0
  184.3420  180.0980  139.0550 O   0  0  0  0  0  0  0  0  0  0  0  0
  182.7510  178.3620  138.8010 C   0  0  2  0  0  3  0  0  0  0  0  0
  182.2660  177.2730  139.6320 N   0  0  0  0  0  1  0  0  0  0  0  0
  183.8760  176.9450  137.2870 O   0  0  0  0  0  0  0  0  0  0  0  0
  183.0730  177.8530  137.4330 C   0  0  0  0  0  3  0  0  0  0  0  0
  189.9750  176.6050  142.3000 C   0  0  0  0  0  2  0  0  0  0  0  0
  192.2080  177.2080  142.8890 O   0  0  0  0  0  1  0  0  0  0  0  0
  190.8660  177.4700  143.1760 C   0  0  2  0  0  3  0  0  0  0  0  0
  190.5750  177.2300  144.6570 C   0  0  2  0  0  3  0  0  0  0  0  0
  191.9870  176.1310  146.4600 C   0  0  0  0  0  0  0  0  0  0  0  0
  191.8750  177.1310  147.2170 O   0  0  0  0  0  1  0  0  0  0  0  0
  192.6960  175.0190  146.8930 O   0  0  0  0  0  0  0  0  0  0  0  0
  191.3950  176.1330  145.1610 N   0  0  0  0  0  2  0  0  0  0  0  0
  189.2190  176.9290  144.8470 O   0  0  0  0  0  0  0  0  0  0  0  0
  187.7020  177.6750  147.9920 O   0  0  0  0  0  0  0  0  0  0  0  0
  189.0110  177.0350  146.1840 N   0  0  0  0  0  2  0  0  0  0  0  0
  187.8010  177.5630  146.7440 C   0  0  0  0  0  0  0  0  0  0  0  0
  186.3180  177.0030  144.9760 O   0  0  0  0  0  1  0  0  0  0  0  0
  186.6520  178.0060  145.8890 C   0  0  1  0  0  3  0  0  0  0  0  0
  185.4610  178.3870  146.7220 C   0  0  0  0  0  3  0  0  0  0  0  0
  184.3350  178.8940  146.2090 C   0  0  0  0  0  3  0  0  0  0  0  0
  184.1510  179.1440  144.7470 C   0  0  0  0  0  2  0  0  0  0  0  0
  182.9100  178.4230  144.2630 C   0  0  0  0  0  2  0  0  0  0  0  0
  182.1960  179.2810  143.2400 C   0  0  0  0  0  1  0  0  0  0  0  0
  1  2  1  0  0  0  0
  1 13  1  0  0  0  0
  2 23  1  0  0  0  0
  3  1  2  0  0  0  0
  4  2  1  0  0  0  0
  5  4  1  0  0  0  0
  6  7  1  6  0  0  0
  6  5  1  0  0  0  0
  8  9  1  0  0  0  0
  8  6  1  0  0  0  0
 10  9  1  0  0  0  0
 10 12  1  0  0  0  0
 11 10  2  0  0  0  0
 13 14  1  0  0  0  0
 15 14  2  0  0  0  0
 16 15  1  0  0  0  0
 17 16  1  0  0  0  0
 18 17  2  0  0  0  0
 19 17  1  0  0  0  0
 19 20  1  1  0  0  0
 21 22  2  0  0  0  0
 22 19  1  0  0  0  0
 23 25  1  0  0  0  0
 25 24  1  1  0  0  0
 25 26  1  0  0  0  0
 26 31  1  6  0  0  0
 26 30  1  0  0  0  0
 27 29  2  0  0  0  0
 27 28  1  0  0  0  0
 30 27  1  0  0  0  0
 31 33  1  0  0  0  0
 33 34  1  0  0  0  0
 34 32  2  0  0  0  0
 36 35  1  6  0  0  0
 36 37  1  0  0  0  0
 36 34  1  0  0  0  0
 38 37  2  0  0  0  0
 39 38  1  0  0  0  0
 40 39  1  0  0  0  0
 41 40  1  0  0  0  0
M  END
>  <MODEL>
3

>  <REMARK>
 VINA RESULT:      -6.2      2.856      8.989
  Name = 
  22 active torsions:
  status: ('A' for Active; 'I' for Inactive)
    1  A    between atoms: C_3  and  N_11
    2  A    between atoms: C_3  and  C_14
    3  A    between atoms: C_4  and  C_7
    4  A    between atoms: C_4  and  C_12
    5  A    between atoms: C_8  and  C_34
    6  A    between atoms: N_10  and  O_33
    7  A    between atoms: N_11  and  N_27
    8  A    between atoms: C_13  and  C_17
    9  A    between atoms: C_13  and  C_38
   10  A    between atoms: C_14  and  C_23
   11  A    between atoms: C_15  and  C_30
   12  A    between atoms: C_15  and  C_32
   13  A    between atoms: C_16  and  C_37
   14  A    between atoms: C_16  and  C_41
   15  A    between atoms: C_17  and  N_27
   16  A    between atoms: C_19  and  C_28
   17  A    between atoms: C_19  and  C_37
   18  A    between atoms: C_21  and  C_35
   19  A    between atoms: C_22  and  C_35
   20  A    between atoms: C_23  and  N_31
   21  A    between atoms: C_23  and  O_33
   22  A    between atoms: C_34  and  C_38
                            x       y       z     vdW  Elec       q    Type
                         _______ _______ _______ _____ _____    ______ ____

>  <TORSDO>
F 22

$$$$
=
 OpenBabel11032419543D

 41 40  0  0  1  0  0  0  0  0999 V2000
  191.4470  177.1610  140.3820 C   0  0  0  0  0  0  0  0  0  0  0  0
  190.7420  176.9780  139.1430 N   0  0  0  0  0  0  0  0  0  0  0  0
  192.7070  177.1190  140.3970 O   0  0  0  0  0  0  0  0  0  0  0  0
  191.4570  176.7610  137.9540 N   0  0  0  0  0  2  0  0  0  0  0  0
  191.1960  175.3920  137.5210 C   0  0  0  0  0  2  0  0  0  0  0  0
  192.4650  174.5430  137.5800 C   0  0  1  0  0  3  0  0  0  0  0  0
  192.4730  173.5270  136.4530 C   0  0  0  0  0  1  0  0  0  0  0  0
  193.7300  175.3940  137.5230 C   0  0  0  0  0  2  0  0  0  0  0  0
  194.9800  174.5360  137.3680 C   0  0  0  0  0  2  0  0  0  0  0  0
  195.4850  174.0880  138.6970 C   0  0  0  0  0  0  0  0  0  0  0  0
  195.4720  172.7380  139.0240 O   0  0  0  0  0  0  0  0  0  0  0  0
  195.9470  174.9300  139.5120 O   0  0  0  0  0  1  0  0  0  0  0  0
  190.7150  177.4220  141.6620 C   0  0  0  0  0  2  0  0  0  0  0  0
  190.6290  176.1660  142.4820 C   0  0  0  0  0  3  0  0  0  0  0  0
  189.8010  176.0150  143.5220 C   0  0  0  0  0  3  0  0  0  0  0  0
  188.8920  177.1020  144.0070 C   0  0  0  0  0  2  0  0  0  0  0  0
  189.4840  177.7700  145.2020 C   0  0  0  0  0  0  0  0  0  0  0  0
  189.8950  178.9170  145.1180 O   0  0  0  0  0  0  0  0  0  0  0  0
  189.5900  177.0130  146.4910 C   0  0  2  0  0  3  0  0  0  0  0  0
  189.2270  177.8680  147.6080 N   0  0  0  0  0  1  0  0  0  0  0  0
  191.9270  177.0280  146.1720 O   0  0  0  0  0  0  0  0  0  0  0  0
  190.9700  176.4740  146.6910 C   0  0  0  0  0  3  0  0  0  0  0  0
  189.2950  176.8050  139.1240 C   0  0  0  0  0  2  0  0  0  0  0  0
  188.6110  179.0790  138.8760 O   0  0  0  0  0  1  0  0  0  0  0  0
  188.6500  177.8450  138.2220 C   0  0  2  0  0  3  0  0  0  0  0  0
  187.2460  177.4100  137.8040 C   0  0  2  0  0  3  0  0  0  0  0  0
  187.2720  175.6730  135.9510 C   0  0  0  0  0  0  0  0  0  0  0  0
  187.3850  174.7300  136.7790 O   0  0  0  0  0  1  0  0  0  0  0  0
  187.1880  175.3890  134.5940 O   0  0  0  0  0  0  0  0  0  0  0  0
  187.2350  177.0290  136.3950 N   0  0  0  0  0  2  0  0  0  0  0  0
  186.3280  178.4470  138.0170 O   0  0  0  0  0  0  0  0  0  0  0  0
  182.8260  177.7500  138.0360 O   0  0  0  0  0  0  0  0  0  0  0  0
  185.1160  177.9280  137.6950 N   0  0  0  0  0  2  0  0  0  0  0  0
  183.9040  178.3130  138.3560 C   0  0  0  0  0  0  0  0  0  0  0  0
  183.3630  180.5510  138.9360 O   0  0  0  0  0  1  0  0  0  0  0  0
  183.8780  179.3530  139.4350 C   0  0  1  0  0  3  0  0  0  0  0  0
  183.0880  178.8900  140.6270 C   0  0  0  0  0  3  0  0  0  0  0  0
  183.6410  178.5900  141.8070 C   0  0  0  0  0  3  0  0  0  0  0  0
  185.1120  178.6750  142.0570 C   0  0  0  0  0  2  0  0  0  0  0  0
  185.4030  178.2970  143.4950 C   0  0  0  0  0  2  0  0  0  0  0  0
  184.2320  178.6960  144.3670 C   0  0  0  0  0  1  0  0  0  0  0  0
  1  3  2  0  0  0  0
  1 13  1  0  0  0  0
  2  1  1  0  0  0  0
  4  2  1  0  0  0  0
  5  6  1  0  0  0  0
  5  4  1  0  0  0  0
  6  7  1  6  0  0  0
  8  6  1  0  0  0  0
  9  8  1  0  0  0  0
  9 10  1  0  0  0  0
 10 11  2  0  0  0  0
 10 12  1  0  0  0  0
 13 14  1  0  0  0  0
 14 15  2  0  0  0  0
 15 16  1  0  0  0  0
 16 17  1  0  0  0  0
 17 19  1  0  0  0  0
 18 17  2  0  0  0  0
 19 22  1  0  0  0  0
 19 20  1  1  0  0  0
 21 22  2  0  0  0  0
 23  2  1  0  0  0  0
 25 24  1  1  0  0  0
 25 23  1  0  0  0  0
 26 30  1  6  0  0  0
 26 31  1  0  0  0  0
 26 25  1  0  0  0  0
 27 30  1  0  0  0  0
 27 28  1  0  0  0  0
 29 27  2  0  0  0  0
 32 34  2  0  0  0  0
 33 31  1  0  0  0  0
 33 34  1  0  0  0  0
 34 36  1  0  0  0  0
 36 35  1  6  0  0  0
 36 37  1  0  0  0  0
 37 38  2  0  0  0  0
 38 39  1  0  0  0  0
 39 40  1  0  0  0  0
 40 41  1  0  0  0  0
M  END
>  <MODEL>
4

>  <REMARK>
 VINA RESULT:      -6.2      1.871      6.420
  Name = 
  22 active torsions:
  status: ('A' for Active; 'I' for Inactive)
    1  A    between atoms: C_3  and  N_11
    2  A    between atoms: C_3  and  C_14
    3  A    between atoms: C_4  and  C_7
    4  A    between atoms: C_4  and  C_12
    5  A    between atoms: C_8  and  C_34
    6  A    between atoms: N_10  and  O_33
    7  A    between atoms: N_11  and  N_27
    8  A    between atoms: C_13  and  C_17
    9  A    between atoms: C_13  and  C_38
   10  A    between atoms: C_14  and  C_23
   11  A    between atoms: C_15  and  C_30
   12  A    between atoms: C_15  and  C_32
   13  A    between atoms: C_16  and  C_37
   14  A    between atoms: C_16  and  C_41
   15  A    between atoms: C_17  and  N_27
   16  A    between atoms: C_19  and  C_28
   17  A    between atoms: C_19  and  C_37
   18  A    between atoms: C_21  and  C_35
   19  A    between atoms: C_22  and  C_35
   20  A    between atoms: C_23  and  N_31
   21  A    between atoms: C_23  and  O_33
   22  A    between atoms: C_34  and  C_38
                            x       y       z     vdW  Elec       q    Type
                         _______ _______ _______ _____ _____    ______ ____

>  <TORSDO>
F 22

$$$$
=
 OpenBabel11032419543D

 41 40  0  0  1  0  0  0  0  0999 V2000
  185.7300  178.8250  140.1950 C   0  0  0  0  0  0  0  0  0  0  0  0
  187.1280  178.5720  140.4080 N   0  0  0  0  0  0  0  0  0  0  0  0
  185.3110  179.0910  139.0350 O   0  0  0  0  0  0  0  0  0  0  0  0
  188.0220  178.6120  139.3260 N   0  0  0  0  0  2  0  0  0  0  0  0
  187.8170  177.4030  138.5340 C   0  0  0  0  0  2  0  0  0  0  0  0
  188.2080  177.6270  137.0750 C   0  0  1  0  0  3  0  0  0  0  0  0
  189.0520  178.8810  136.9400 C   0  0  0  0  0  1  0  0  0  0  0  0
  188.9560  176.4320  136.4890 C   0  0  0  0  0  2  0  0  0  0  0  0
  188.4070  175.1110  137.0160 C   0  0  0  0  0  2  0  0  0  0  0  0
  189.3630  173.9970  136.7510 C   0  0  0  0  0  0  0  0  0  0  0  0
  190.4140  173.7620  137.6290 O   0  0  0  0  0  1  0  0  0  0  0  0
  189.2010  173.2530  135.7480 O   0  0  0  0  0  0  0  0  0  0  0  0
  184.7470  178.7620  141.3230 C   0  0  0  0  0  2  0  0  0  0  0  0
  183.7500  177.6640  141.0890 C   0  0  0  0  0  3  0  0  0  0  0  0
  182.4950  177.8760  140.6790 C   0  0  0  0  0  3  0  0  0  0  0  0
  181.9330  179.2440  140.4440 C   0  0  0  0  0  2  0  0  0  0  0  0
  180.7830  179.4900  141.3610 C   0  0  0  0  0  0  0  0  0  0  0  0
  180.1750  180.5490  141.3050 O   0  0  0  0  0  0  0  0  0  0  0  0
  180.4000  178.4410  142.3600 C   0  0  2  0  0  3  0  0  0  0  0  0
  178.9760  178.1690  142.2840 N   0  0  0  0  0  1  0  0  0  0  0  0
  181.8760  178.6150  144.1930 O   0  0  0  0  0  0  0  0  0  0  0  0
  180.7650  178.8590  143.7490 C   0  0  0  0  0  3  0  0  0  0  0  0
  187.6740  178.4780  141.7570 C   0  0  0  0  0  2  0  0  0  0  0  0
  187.3760  176.6760  143.2940 O   0  0  0  0  0  1  0  0  0  0  0  0
  187.9990  177.0320  142.0950 C   0  0  2  0  0  3  0  0  0  0  0  0
  189.5090  176.8180  142.1860 C   0  0  2  0  0  3  0  0  0  0  0  0
  191.1920  176.9770  140.2900 C   0  0  0  0  0  0  0  0  0  0  0  0
  191.7760  177.9510  140.8340 O   0  0  0  0  0  1  0  0  0  0  0  0
  191.6730  176.4700  139.0900 O   0  0  0  0  0  0  0  0  0  0  0  0
  190.0380  176.3930  140.8930 N   0  0  0  0  0  2  0  0  0  0  0  0
  189.8100  175.8520  143.1570 O   0  0  0  0  0  0  0  0  0  0  0  0
  191.9090  177.3020  145.6540 O   0  0  0  0  0  0  0  0  0  0  0  0
  190.9070  176.3210  143.8040 N   0  0  0  0  0  2  0  0  0  0  0  0
  190.8590  176.8390  145.1400 C   0  0  0  0  0  0  0  0  0  0  0  0
  189.8200  176.3490  147.2180 O   0  0  0  0  0  1  0  0  0  0  0  0
  189.5930  176.8690  145.9410 C   0  0  1  0  0  3  0  0  0  0  0  0
  189.0260  178.2570  146.0250 C   0  0  0  0  0  3  0  0  0  0  0  0
  187.7360  178.5140  146.2640 C   0  0  0  0  0  3  0  0  0  0  0  0
  186.7190  177.4370  146.4640 C   0  0  0  0  0  2  0  0  0  0  0  0
  185.3290  178.0220  146.3280 C   0  0  0  0  0  2  0  0  0  0  0  0
  185.3050  178.9970  145.1700 C   0  0  0  0  0  1  0  0  0  0  0  0
  1  2  1  0  0  0  0
  1 13  1  0  0  0  0
  2 23  1  0  0  0  0
  3  1  2  0  0  0  0
  4  2  1  0  0  0  0
  5  4  1  0  0  0  0
  6  7  1  1  0  0  0
  6  5  1  0  0  0  0
  8  9  1  0  0  0  0
  8  6  1  0  0  0  0
 10  9  1  0  0  0  0
 10 11  1  0  0  0  0
 12 10  2  0  0  0  0
 14 13  1  0  0  0  0
 15 14  2  0  0  0  0
 16 15  1  0  0  0  0
 16 17  1  0  0  0  0
 17 19  1  0  0  0  0
 18 17  2  0  0  0  0
 19 20  1  1  0  0  0
 19 22  1  0  0  0  0
 22 21  2  0  0  0  0
 23 25  1  0  0  0  0
 25 26  1  0  0  0  0
 25 24  1  1  0  0  0
 26 30  1  6  0  0  0
 26 31  1  0  0  0  0
 27 28  1  0  0  0  0
 27 30  1  0  0  0  0
 29 27  2  0  0  0  0
 31 33  1  0  0  0  0
 33 34  1  0  0  0  0
 34 32  2  0  0  0  0
 34 36  1  0  0  0  0
 36 37  1  0  0  0  0
 36 35  1  1  0  0  0
 37 38  2  0  0  0  0
 38 39  1  0  0  0  0
 40 39  1  0  0  0  0
 41 40  1  0  0  0  0
M  END
>  <MODEL>
5

>  <REMARK>
 VINA RESULT:      -6.2      3.232      9.782
  Name = 
  22 active torsions:
  status: ('A' for Active; 'I' for Inactive)
    1  A    between atoms: C_3  and  N_11
    2  A    between atoms: C_3  and  C_14
    3  A    between atoms: C_4  and  C_7
    4  A    between atoms: C_4  and  C_12
    5  A    between atoms: C_8  and  C_34
    6  A    between atoms: N_10  and  O_33
    7  A    between atoms: N_11  and  N_27
    8  A    between atoms: C_13  and  C_17
    9  A    between atoms: C_13  and  C_38
   10  A    between atoms: C_14  and  C_23
   11  A    between atoms: C_15  and  C_30
   12  A    between atoms: C_15  and  C_32
   13  A    between atoms: C_16  and  C_37
   14  A    between atoms: C_16  and  C_41
   15  A    between atoms: C_17  and  N_27
   16  A    between atoms: C_19  and  C_28
   17  A    between atoms: C_19  and  C_37
   18  A    between atoms: C_21  and  C_35
   19  A    between atoms: C_22  and  C_35
   20  A    between atoms: C_23  and  N_31
   21  A    between atoms: C_23  and  O_33
   22  A    between atoms: C_34  and  C_38
                            x       y       z     vdW  Elec       q    Type
                         _______ _______ _______ _____ _____    ______ ____

>  <TORSDO>
F 22

$$$$
=
 OpenBabel11032419543D

 41 40  0  0  1  0  0  0  0  0999 V2000
  186.1320  178.1680  143.3250 C   0  0  0  0  0  0  0  0  0  0  0  0
  187.5120  177.9240  143.0070 N   0  0  0  0  0  0  0  0  0  0  0  0
  185.5940  177.5610  144.2900 O   0  0  0  0  0  0  0  0  0  0  0  0
  188.2590  177.0180  143.7770 N   0  0  0  0  0  2  0  0  0  0  0  0
  188.9620  177.7800  144.8040 C   0  0  0  0  0  2  0  0  0  0  0  0
  190.2330  177.0610  145.2520 C   0  0  1  0  0  3  0  0  0  0  0  0
  191.4610  177.8360  144.8110 C   0  0  0  0  0  1  0  0  0  0  0  0
  190.2700  176.8430  146.7620 C   0  0  0  0  0  2  0  0  0  0  0  0
  188.8690  176.8050  147.3610 C   0  0  0  0  0  2  0  0  0  0  0  0
  188.6410  177.9780  148.2530 C   0  0  0  0  0  0  0  0  0  0  0  0
  189.6870  178.4820  149.0160 O   0  0  0  0  0  1  0  0  0  0  0  0
  187.5090  178.5270  148.2950 O   0  0  0  0  0  0  0  0  0  0  0  0
  185.3160  179.1490  142.5420 C   0  0  0  0  0  2  0  0  0  0  0  0
  184.2570  178.4370  141.7490 C   0  0  0  0  0  3  0  0  0  0  0  0
  182.9630  178.4200  142.0870 C   0  0  0  0  0  3  0  0  0  0  0  0
  182.4330  179.0830  143.3200 C   0  0  0  0  0  2  0  0  0  0  0  0
  180.9410  179.0360  143.3260 C   0  0  0  0  0  0  0  0  0  0  0  0
  180.3490  178.5980  144.3010 O   0  0  0  0  0  0  0  0  0  0  0  0
  180.1850  179.5070  142.1200 C   0  0  2  0  0  3  0  0  0  0  0  0
  179.6930  180.8570  142.3310 N   0  0  0  0  0  1  0  0  0  0  0  0
  179.1930  177.6720  141.0180 O   0  0  0  0  0  0  0  0  0  0  0  0
  179.0450  178.5930  141.8070 C   0  0  0  0  0  3  0  0  0  0  0  0
  188.0990  178.4400  141.7770 C   0  0  0  0  0  2  0  0  0  0  0  0
  190.3010  177.5620  141.4960 O   0  0  0  0  0  1  0  0  0  0  0  0
  188.9680  177.3790  141.1220 C   0  0  2  0  0  3  0  0  0  0  0  0
  188.8240  177.4180  139.6000 C   0  0  2  0  0  3  0  0  0  0  0  0
  190.8240  176.4630  138.3600 C   0  0  0  0  0  0  0  0  0  0  0  0
  190.3430  175.3000  138.3930 O   0  0  0  0  0  1  0  0  0  0  0  0
  192.0380  176.6850  137.7230 O   0  0  0  0  0  0  0  0  0  0  0  0
  190.1360  177.5520  138.9730 N   0  0  0  0  0  2  0  0  0  0  0  0
  188.0070  178.4890  139.2130 O   0  0  0  0  0  0  0  0  0  0  0  0
  186.1520  177.8750  136.2240 O   0  0  0  0  0  0  0  0  0  0  0  0
  187.7020  178.2560  137.9110 N   0  0  0  0  0  2  0  0  0  0  0  0
  186.3540  178.1410  137.4370 C   0  0  0  0  0  0  0  0  0  0  0  0
  184.9850  179.6570  138.6460 O   0  0  0  0  0  1  0  0  0  0  0  0
  185.1710  178.3060  138.3420 C   0  0  1  0  0  3  0  0  0  0  0  0
  183.9270  177.7200  137.7370 C   0  0  0  0  0  3  0  0  0  0  0  0
  182.7120  178.2590  137.8810 C   0  0  0  0  0  3  0  0  0  0  0  0
  182.4670  179.5030  138.6740 C   0  0  0  0  0  2  0  0  0  0  0  0
  181.5220  180.4090  137.9120 C   0  0  0  0  0  2  0  0  0  0  0  0
  180.8000  181.3150  138.8870 C   0  0  0  0  0  1  0  0  0  0  0  0
  1  3  2  0  0  0  0
  2  1  1  0  0  0  0
  2  4  1  0  0  0  0
  4  5  1  0  0  0  0
  5  6  1  0  0  0  0
  6  7  1  1  0  0  0
  6  8  1  0  0  0  0
  8  9  1  0  0  0  0
  9 10  1  0  0  0  0
 10 12  2  0  0  0  0
 10 11  1  0  0  0  0
 13  1  1  0  0  0  0
 14 15  2  0  0  0  0
 14 13  1  0  0  0  0
 15 16  1  0  0  0  0
 16 17  1  0  0  0  0
 17 18  2  0  0  0  0
 19 20  1  1  0  0  0
 19 17  1  0  0  0  0
 21 22  2  0  0  0  0
 22 19  1  0  0  0  0
 23  2  1  0  0  0  0
 25 24  1  6  0  0  0
 25 23  1  0  0  0  0
 26 30  1  6  0  0  0
 26 25  1  0  0  0  0
 27 28  1  0  0  0  0
 27 30  1  0  0  0  0
 29 27  2  0  0  0  0
 31 26  1  0  0  0  0
 32 34  2  0  0  0  0
 33 31  1  0  0  0  0
 34 33  1  0  0  0  0
 34 36  1  0  0  0  0
 36 35  1  6  0  0  0
 37 38  2  0  0  0  0
 37 36  1  0  0  0  0
 38 39  1  0  0  0  0
 40 39  1  0  0  0  0
 40 41  1  0  0  0  0
M  END
>  <MODEL>
6

>  <REMARK>
 VINA RESULT:      -6.1      3.078      8.557
  Name = 
  22 active torsions:
  status: ('A' for Active; 'I' for Inactive)
    1  A    between atoms: C_3  and  N_11
    2  A    between atoms: C_3  and  C_14
    3  A    between atoms: C_4  and  C_7
    4  A    between atoms: C_4  and  C_12
    5  A    between atoms: C_8  and  C_34
    6  A    between atoms: N_10  and  O_33
    7  A    between atoms: N_11  and  N_27
    8  A    between atoms: C_13  and  C_17
    9  A    between atoms: C_13  and  C_38
   10  A    between atoms: C_14  and  C_23
   11  A    between atoms: C_15  and  C_30
   12  A    between atoms: C_15  and  C_32
   13  A    between atoms: C_16  and  C_37
   14  A    between atoms: C_16  and  C_41
   15  A    between atoms: C_17  and  N_27
   16  A    between atoms: C_19  and  C_28
   17  A    between atoms: C_19  and  C_37
   18  A    between atoms: C_21  and  C_35
   19  A    between atoms: C_22  and  C_35
   20  A    between atoms: C_23  and  N_31
   21  A    between atoms: C_23  and  O_33
   22  A    between atoms: C_34  and  C_38
                            x       y       z     vdW  Elec       q    Type
                         _______ _______ _______ _____ _____    ______ ____

>  <TORSDO>
F 22

$$$$
=
 OpenBabel11032419543D

 41 40  0  0  1  0  0  0  0  0999 V2000
  181.8410  179.0770  141.5090 C   0  0  0  0  0  0  0  0  0  0  0  0
  182.0180  179.1270  140.0830 N   0  0  0  0  0  0  0  0  0  0  0  0
  180.7180  179.3530  142.0110 O   0  0  0  0  0  0  0  0  0  0  0  0
  180.9400  179.4760  139.2550 N   0  0  0  0  0  2  0  0  0  0  0  0
  181.2340  180.7790  138.6670 C   0  0  0  0  0  2  0  0  0  0  0  0
  181.0410  180.7580  137.1520 C   0  0  1  0  0  3  0  0  0  0  0  0
  179.9840  179.7390  136.7680 C   0  0  0  0  0  1  0  0  0  0  0  0
  180.6670  182.1300  136.5990 C   0  0  0  0  0  2  0  0  0  0  0  0
  180.4770  183.1530  137.7120 C   0  0  0  0  0  2  0  0  0  0  0  0
  181.0910  184.4610  137.3410 C   0  0  0  0  0  0  0  0  0  0  0  0
  180.2930  185.4860  136.8480 O   0  0  0  0  0  0  0  0  0  0  0  0
  182.3260  184.6440  137.4990 O   0  0  0  0  0  1  0  0  0  0  0  0
  182.9630  178.6810  142.4180 C   0  0  0  0  0  2  0  0  0  0  0  0
  182.5580  178.8490  143.8540 C   0  0  0  0  0  3  0  0  0  0  0  0
  183.4270  179.0550  144.8510 C   0  0  0  0  0  3  0  0  0  0  0  0
  184.9090  179.1040  144.6440 C   0  0  0  0  0  2  0  0  0  0  0  0
  185.6130  178.6650  145.8840 C   0  0  0  0  0  0  0  0  0  0  0  0
  185.0460  178.7340  146.9640 O   0  0  0  0  0  0  0  0  0  0  0  0
  187.0230  178.1640  145.7920 C   0  0  2  0  0  3  0  0  0  0  0  0
  187.1320  177.1540  144.7540 N   0  0  0  0  0  1  0  0  0  0  0  0
  188.4800  178.0490  147.6440 O   0  0  0  0  0  0  0  0  0  0  0  0
  187.4830  177.6020  147.0990 C   0  0  0  0  0  3  0  0  0  0  0  0
  183.3460  179.0270  139.4900 C   0  0  0  0  0  2  0  0  0  0  0  0
  183.1190  176.6700  139.1860 O   0  0  0  0  0  1  0  0  0  0  0  0
  183.4010  177.8620  138.5150 C   0  0  2  0  0  3  0  0  0  0  0  0
  184.7660  177.7870  137.8310 C   0  0  2  0  0  3  0  0  0  0  0  0
  184.9200  176.2180  135.8400 C   0  0  0  0  0  0  0  0  0  0  0  0
  184.6370  177.1440  135.0350 O   0  0  0  0  0  0  0  0  0  0  0  0
  185.1880  174.9440  135.3550 O   0  0  0  0  0  1  0  0  0  0  0  0
  184.9640  176.4650  137.2450 N   0  0  0  0  0  2  0  0  0  0  0  0
  185.7910  178.0510  138.7510 O   0  0  0  0  0  0  0  0  0  0  0  0
  188.9000  179.1530  137.3860 O   0  0  0  0  0  0  0  0  0  0  0  0
  186.7130  178.7740  138.0650 N   0  0  0  0  0  2  0  0  0  0  0  0
  188.0970  178.4060  138.0000 C   0  0  0  0  0  0  0  0  0  0  0  0
  188.4790  176.0700  137.8070 O   0  0  0  0  0  1  0  0  0  0  0  0
  188.6270  177.1680  138.6580 C   0  0  1  0  0  3  0  0  0  0  0  0
  190.0630  177.3340  139.0670 C   0  0  0  0  0  3  0  0  0  0  0  0
  190.4730  177.3270  140.3400 C   0  0  0  0  0  3  0  0  0  0  0  0
  189.5340  177.1610  141.4920 C   0  0  0  0  0  2  0  0  0  0  0  0
  190.2280  177.5770  142.7730 C   0  0  0  0  0  2  0  0  0  0  0  0
  191.6930  177.2040  142.6950 C   0  0  0  0  0  1  0  0  0  0  0  0
  1  3  2  0  0  0  0
  1 13  1  0  0  0  0
  2  1  1  0  0  0  0
  4  2  1  0  0  0  0
  5  4  1  0  0  0  0
  6  7  1  1  0  0  0
  6  5  1  0  0  0  0
  8  6  1  0  0  0  0
  8  9  1  0  0  0  0
 10 12  1  0  0  0  0
 10  9  1  0  0  0  0
 11 10  2  0  0  0  0
 13 14  1  0  0  0  0
 14 15  2  0  0  0  0
 16 15  1  0  0  0  0
 16 17  1  0  0  0  0
 17 18  2  0  0  0  0
 19 20  1  6  0  0  0
 19 17  1  0  0  0  0
 19 22  1  0  0  0  0
 22 21  2  0  0  0  0
 23  2  1  0  0  0  0
 25 24  1  1  0  0  0
 25 23  1  0  0  0  0
 26 30  1  1  0  0  0
 26 25  1  0  0  0  0
 26 31  1  0  0  0  0
 27 30  1  0  0  0  0
 28 27  2  0  0  0  0
 29 27  1  0  0  0  0
 32 34  2  0  0  0  0
 33 31  1  0  0  0  0
 34 33  1  0  0  0  0
 34 36  1  0  0  0  0
 36 35  1  6  0  0  0
 36 37  1  0  0  0  0
 37 38  2  0  0  0  0
 38 39  1  0  0  0  0
 39 40  1  0  0  0  0
 41 40  1  0  0  0  0
M  END
>  <MODEL>
7

>  <REMARK>
 VINA RESULT:      -6.0      4.140     10.251
  Name = 
  22 active torsions:
  status: ('A' for Active; 'I' for Inactive)
    1  A    between atoms: C_3  and  N_11
    2  A    between atoms: C_3  and  C_14
    3  A    between atoms: C_4  and  C_7
    4  A    between atoms: C_4  and  C_12
    5  A    between atoms: C_8  and  C_34
    6  A    between atoms: N_10  and  O_33
    7  A    between atoms: N_11  and  N_27
    8  A    between atoms: C_13  and  C_17
    9  A    between atoms: C_13  and  C_38
   10  A    between atoms: C_14  and  C_23
   11  A    between atoms: C_15  and  C_30
   12  A    between atoms: C_15  and  C_32
   13  A    between atoms: C_16  and  C_37
   14  A    between atoms: C_16  and  C_41
   15  A    between atoms: C_17  and  N_27
   16  A    between atoms: C_19  and  C_28
   17  A    between atoms: C_19  and  C_37
   18  A    between atoms: C_21  and  C_35
   19  A    between atoms: C_22  and  C_35
   20  A    between atoms: C_23  and  N_31
   21  A    between atoms: C_23  and  O_33
   22  A    between atoms: C_34  and  C_38
                            x       y       z     vdW  Elec       q    Type
                         _______ _______ _______ _____ _____    ______ ____

>  <TORSDO>
F 22

$$$$
=
 OpenBabel11032419543D

 41 40  0  0  1  0  0  0  0  0999 V2000
  190.9940  177.5010  141.0860 C   0  0  0  0  0  0  0  0  0  0  0  0
  189.6510  177.6870  140.6100 N   0  0  0  0  0  0  0  0  0  0  0  0
  191.9690  177.8180  140.3520 O   0  0  0  0  0  0  0  0  0  0  0  0
  189.4280  178.2280  139.3340 N   0  0  0  0  0  2  0  0  0  0  0  0
  189.5800  177.1510  138.3610 C   0  0  0  0  0  2  0  0  0  0  0  0
  188.2260  176.7150  137.8050 C   0  0  1  0  0  3  0  0  0  0  0  0
  187.3560  177.9270  137.5220 C   0  0  0  0  0  1  0  0  0  0  0  0
  188.3660  175.8700  136.5420 C   0  0  0  0  0  2  0  0  0  0  0  0
  189.7920  175.3650  136.3570 C   0  0  0  0  0  2  0  0  0  0  0  0
  189.9640  174.0200  136.9800 C   0  0  0  0  0  0  0  0  0  0  0  0
  188.9580  173.0690  136.8620 O   0  0  0  0  0  0  0  0  0  0  0  0
  191.0300  173.7390  137.5880 O   0  0  0  0  0  1  0  0  0  0  0  0
  191.2660  176.9520  142.4530 C   0  0  0  0  0  2  0  0  0  0  0  0
  191.5060  178.0680  143.4280 C   0  0  0  0  0  3  0  0  0  0  0  0
  191.5830  177.8930  144.7520 C   0  0  0  0  0  3  0  0  0  0  0  0
  191.4000  176.5610  145.4110 C   0  0  0  0  0  2  0  0  0  0  0  0
  190.9170  176.7440  146.8100 C   0  0  0  0  0  0  0  0  0  0  0  0
  191.4480  176.1310  147.7240 O   0  0  0  0  0  0  0  0  0  0  0  0
  189.7650  177.6650  147.0770 C   0  0  2  0  0  3  0  0  0  0  0  0
  189.8610  178.2180  148.4160 N   0  0  0  0  0  1  0  0  0  0  0  0
  187.4100  177.5820  146.9580 O   0  0  0  0  0  0  0  0  0  0  0  0
  188.4580  176.9580  146.9110 C   0  0  0  0  0  3  0  0  0  0  0  0
  188.5160  177.1350  141.3380 C   0  0  0  0  0  2  0  0  0  0  0  0
  188.0790  177.4870  143.6580 O   0  0  0  0  0  1  0  0  0  0  0  0
  188.0510  178.1090  142.4080 C   0  0  2  0  0  3  0  0  0  0  0  0
  186.6480  178.6320  142.0970 C   0  0  2  0  0  3  0  0  0  0  0  0
  184.7730  178.8650  143.7950 C   0  0  0  0  0  0  0  0  0  0  0  0
  184.8160  180.1220  143.7330 O   0  0  0  0  0  0  0  0  0  0  0  0
  183.8350  178.2490  144.6140 O   0  0  0  0  0  1  0  0  0  0  0  0
  185.6810  178.0690  143.0350 N   0  0  0  0  0  2  0  0  0  0  0  0
  186.2800  178.3000  140.7860 O   0  0  0  0  0  0  0  0  0  0  0  0
  183.8710  180.3160  139.0900 O   0  0  0  0  0  0  0  0  0  0  0  0
  185.6050  179.3800  140.3170 N   0  0  0  0  0  2  0  0  0  0  0  0
  184.4120  179.2700  139.5300 C   0  0  0  0  0  0  0  0  0  0  0  0
  182.5660  177.8110  139.8410 O   0  0  0  0  0  1  0  0  0  0  0  0
  183.7960  177.9460  139.1930 C   0  0  1  0  0  3  0  0  0  0  0  0
  183.6390  177.7730  137.7090 C   0  0  0  0  0  3  0  0  0  0  0  0
  183.7880  176.6010  137.0830 C   0  0  0  0  0  3  0  0  0  0  0  0
  184.1380  175.3380  137.8020 C   0  0  0  0  0  2  0  0  0  0  0  0
  184.9250  174.4320  136.8780 C   0  0  0  0  0  2  0  0  0  0  0  0
  185.3660  173.1990  137.6390 C   0  0  0  0  0  1  0  0  0  0  0  0
  1 13  1  0  0  0  0
  2  1  1  0  0  0  0
  2 23  1  0  0  0  0
  3  1  2  0  0  0  0
  4  2  1  0  0  0  0
  5  4  1  0  0  0  0
  6  7  1  6  0  0  0
  6  5  1  0  0  0  0
  8  6  1  0  0  0  0
  9  8  1  0  0  0  0
  9 10  1  0  0  0  0
 10 12  1  0  0  0  0
 11 10  2  0  0  0  0
 13 14  1  0  0  0  0
 14 15  2  0  0  0  0
 15 16  1  0  0  0  0
 16 17  1  0  0  0  0
 17 19  1  0  0  0  0
 17 18  2  0  0  0  0
 19 20  1  1  0  0  0
 22 21  2  0  0  0  0
 22 19  1  0  0  0  0
 23 25  1  0  0  0  0
 25 24  1  1  0  0  0
 26 31  1  6  0  0  0
 26 25  1  0  0  0  0
 26 30  1  0  0  0  0
 27 29  1  0  0  0  0
 28 27  2  0  0  0  0
 30 27  1  0  0  0  0
 32 34  2  0  0  0  0
 33 31  1  0  0  0  0
 34 33  1  0  0  0  0
 36 34  1  0  0  0  0
 36 35  1  1  0  0  0
 37 36  1  0  0  0  0
 38 37  2  0  0  0  0
 38 39  1  0  0  0  0
 40 41  1  0  0  0  0
 40 39  1  0  0  0  0
M  END
>  <MODEL>
8

>  <REMARK>
 VINA RESULT:      -6.0      3.196      7.773
  Name = 
  22 active torsions:
  status: ('A' for Active; 'I' for Inactive)
    1  A    between atoms: C_3  and  N_11
    2  A    between atoms: C_3  and  C_14
    3  A    between atoms: C_4  and  C_7
    4  A    between atoms: C_4  and  C_12
    5  A    between atoms: C_8  and  C_34
    6  A    between atoms: N_10  and  O_33
    7  A    between atoms: N_11  and  N_27
    8  A    between atoms: C_13  and  C_17
    9  A    between atoms: C_13  and  C_38
   10  A    between atoms: C_14  and  C_23
   11  A    between atoms: C_15  and  C_30
   12  A    between atoms: C_15  and  C_32
   13  A    between atoms: C_16  and  C_37
   14  A    between atoms: C_16  and  C_41
   15  A    between atoms: C_17  and  N_27
   16  A    between atoms: C_19  and  C_28
   17  A    between atoms: C_19  and  C_37
   18  A    between atoms: C_21  and  C_35
   19  A    between atoms: C_22  and  C_35
   20  A    between atoms: C_23  and  N_31
   21  A    between atoms: C_23  and  O_33
   22  A    between atoms: C_34  and  C_38
                            x       y       z     vdW  Elec       q    Type
                         _______ _______ _______ _____ _____    ______ ____

>  <TORSDO>
F 22

$$$$
=
 OpenBabel11032419543D

 41 40  0  0  1  0  0  0  0  0999 V2000
  185.5390  178.3400  144.5300 C   0  0  0  0  0  0  0  0  0  0  0  0
  185.6250  178.2940  143.0960 N   0  0  0  0  0  0  0  0  0  0  0  0
  184.4120  178.2820  145.0920 O   0  0  0  0  0  0  0  0  0  0  0  0
  184.4560  178.1790  142.3270 N   0  0  0  0  0  2  0  0  0  0  0  0
  184.6460  178.9590  141.1080 C   0  0  0  0  0  2  0  0  0  0  0  0
  183.3650  179.0080  140.2780 C   0  0  1  0  0  3  0  0  0  0  0  0
  183.5640  178.2900  138.9560 C   0  0  0  0  0  1  0  0  0  0  0  0
  182.1740  178.4090  141.0210 C   0  0  0  0  0  2  0  0  0  0  0  0
  180.8550  178.7490  140.3380 C   0  0  0  0  0  2  0  0  0  0  0  0
  180.4240  180.1360  140.6750 C   0  0  0  0  0  0  0  0  0  0  0  0
  180.0830  180.4580  141.9830 O   0  0  0  0  0  1  0  0  0  0  0  0
  180.3960  181.0220  139.7800 O   0  0  0  0  0  0  0  0  0  0  0  0
  186.7680  178.4340  145.3800 C   0  0  0  0  0  2  0  0  0  0  0  0
  186.4060  178.8230  146.7850 C   0  0  0  0  0  3  0  0  0  0  0  0
  186.9370  178.2530  147.8720 C   0  0  0  0  0  3  0  0  0  0  0  0
  187.9300  177.1340  147.8050 C   0  0  0  0  0  2  0  0  0  0  0  0
  189.3170  177.6720  147.9130 C   0  0  0  0  0  0  0  0  0  0  0  0
  189.6120  178.4130  148.8390 O   0  0  0  0  0  0  0  0  0  0  0  0
  190.3290  177.3150  146.8670 C   0  0  2  0  0  3  0  0  0  0  0  0
  189.6710  176.7510  145.7020 N   0  0  0  0  0  1  0  0  0  0  0  0
  192.2830  176.7480  148.0610 O   0  0  0  0  0  0  0  0  0  0  0  0
  191.3370  176.3490  147.3990 C   0  0  0  0  0  3  0  0  0  0  0  0
  186.8810  178.5740  142.4130 C   0  0  0  0  0  2  0  0  0  0  0  0
  187.5580  176.4200  143.1850 O   0  0  0  0  0  1  0  0  0  0  0  0
  187.6030  177.2780  142.0840 C   0  0  2  0  0  3  0  0  0  0  0  0
  189.0500  177.5480  141.6690 C   0  0  2  0  0  3  0  0  0  0  0  0
  191.1340  178.1320  142.9990 C   0  0  0  0  0  0  0  0  0  0  0  0
  191.8190  177.2750  142.3800 O   0  0  0  0  0  0  0  0  0  0  0  0
  191.7370  178.9250  143.9660 O   0  0  0  0  0  1  0  0  0  0  0  0
  189.7440  178.2910  142.7180 N   0  0  0  0  0  2  0  0  0  0  0  0
  189.0890  178.2780  140.4730 O   0  0  0  0  0  0  0  0  0  0  0  0
  190.4930  176.8470  137.5190 O   0  0  0  0  0  0  0  0  0  0  0  0
  189.8930  177.5660  139.6430 N   0  0  0  0  0  2  0  0  0  0  0  0
  189.7410  177.5720  138.2180 C   0  0  0  0  0  0  0  0  0  0  0  0
  189.0590  179.7480  137.5580 O   0  0  0  0  0  1  0  0  0  0  0  0
  188.6980  178.3990  137.5300 C   0  0  1  0  0  3  0  0  0  0  0  0
  188.4730  177.9380  136.1170 C   0  0  0  0  0  3  0  0  0  0  0  0
  187.3170  177.4250  135.6840 C   0  0  0  0  0  3  0  0  0  0  0  0
  186.1270  177.2480  136.5710 C   0  0  0  0  0  2  0  0  0  0  0  0
  185.7750  175.7770  136.6570 C   0  0  0  0  0  2  0  0  0  0  0  0
  185.1230  175.3390  135.3620 C   0  0  0  0  0  1  0  0  0  0  0  0
  1  3  2  0  0  0  0
  1 13  1  0  0  0  0
  2  1  1  0  0  0  0
  4  2  1  0  0  0  0
  5  4  1  0  0  0  0
  6  7  1  6  0  0  0
  6  8  1  0  0  0  0
  6  5  1  0  0  0  0
  9 10  1  0  0  0  0
  9  8  1  0  0  0  0
 10 11  1  0  0  0  0
 12 10  2  0  0  0  0
 13 14  1  0  0  0  0
 14 15  2  0  0  0  0
 16 15  1  0  0  0  0
 16 17  1  0  0  0  0
 17 18  2  0  0  0  0
 19 20  1  6  0  0  0
 19 22  1  0  0  0  0
 19 17  1  0  0  0  0
 22 21  2  0  0  0  0
 23  2  1  0  0  0  0
 25 23  1  0  0  0  0
 25 24  1  1  0  0  0
 26 31  1  6  0  0  0
 26 25  1  0  0  0  0
 26 30  1  0  0  0  0
 27 29  1  0  0  0  0
 28 27  2  0  0  0  0
 30 27  1  0  0  0  0
 32 34  2  0  0  0  0
 33 31  1  0  0  0  0
 34 33  1  0  0  0  0
 36 35  1  6  0  0  0
 36 34  1  0  0  0  0
 37 36  1  0  0  0  0
 38 37  2  0  0  0  0
 38 39  1  0  0  0  0
 39 40  1  0  0  0  0
 41 40  1  0  0  0  0
M  END
>  <MODEL>
9

>  <REMARK>
 VINA RESULT:      -5.9      3.685      8.990
  Name = 
  22 active torsions:
  status: ('A' for Active; 'I' for Inactive)
    1  A    between atoms: C_3  and  N_11
    2  A    between atoms: C_3  and  C_14
    3  A    between atoms: C_4  and  C_7
    4  A    between atoms: C_4  and  C_12
    5  A    between atoms: C_8  and  C_34
    6  A    between atoms: N_10  and  O_33
    7  A    between atoms: N_11  and  N_27
    8  A    between atoms: C_13  and  C_17
    9  A    between atoms: C_13  and  C_38
   10  A    between atoms: C_14  and  C_23
   11  A    between atoms: C_15  and  C_30
   12  A    between atoms: C_15  and  C_32
   13  A    between atoms: C_16  and  C_37
   14  A    between atoms: C_16  and  C_41
   15  A    between atoms: C_17  and  N_27
   16  A    between atoms: C_19  and  C_28
   17  A    between atoms: C_19  and  C_37
   18  A    between atoms: C_21  and  C_35
   19  A    between atoms: C_22  and  C_35
   20  A    between atoms: C_23  and  N_31
   21  A    between atoms: C_23  and  O_33
   22  A    between atoms: C_34  and  C_38
                            x       y       z     vdW  Elec       q    Type
                         _______ _______ _______ _____ _____    ______ ____

>  <TORSDO>
F 22

$$$$
