=
 OpenBabel11032419133D

 58 61  0  0  1  0  0  0  0  0999 V2000
  182.5600  179.0180  144.4500 C   0  0  0  0  0  3  0  0  0  0  0  0
  183.7930  178.9170  144.9250 C   0  0  0  0  0  2  0  0  0  0  0  0
  185.0590  178.7510  144.1760 C   0  0  0  0  0  3  0  0  0  0  0  0
  182.9440  178.5700  141.8510 C   0  0  0  0  0  0  0  0  0  0  0  0
  182.1280  179.1170  142.9860 C   0  0  0  0  0  3  0  0  0  0  0  0
  184.2650  178.4270  141.8110 C   0  0  0  0  0  3  0  0  0  0  0  0
  185.3150  178.4920  142.8770 C   0  0  0  0  0  0  0  0  0  0  0  0
  186.7420  178.1440  142.3190 C   0  0  0  0  0  2  0  0  0  0  0  0
  187.6480  177.1490  143.0910 C   0  0  2  0  0  3  0  0  0  0  0  0
  186.9670  176.8010  144.4260 C   0  0  0  0  0  1  0  0  0  0  0  0
  189.0620  177.7600  143.2760 C   0  0  0  0  0  2  0  0  0  0  0  0
  190.1210  176.7560  143.0780 N   0  0  0  0  0  0  0  0  0  0  0  0
  191.6170  177.0140  146.2670 C   0  0  1  0  0  3  0  0  0  0  0  0
  192.1950  174.6350  143.8430 O   0  0  0  0  0  0  0  0  0  0  0  0
  191.6090  175.6210  145.8640 N   0  0  0  0  0  2  0  0  0  0  0  0
  191.7170  175.6230  144.4510 C   0  0  0  0  0  0  0  0  0  0  0  0
  191.3550  176.9280  143.8270 C   0  0  2  0  0  3  0  0  0  0  0  0
  191.1300  177.8150  145.0660 C   0  0  0  0  0  2  0  0  0  0  0  0
  190.7890  177.2010  147.5210 C   0  0  0  0  0  3  0  0  0  0  0  0
  189.3150  177.5230  147.3490 N   0  0  0  0  0  0  0  0  0  0  0  0
  188.2980  178.0680  148.2270 C   0  0  0  0  0  0  0  0  0  0  0  0
  186.9450  178.4570  147.7300 N   0  0  0  0  0  1  0  0  0  0  0  0
  188.4690  178.1980  149.4270 O   0  0  0  0  0  0  0  0  0  0  0  0
  190.4090  176.5960  141.6460 C   0  0  0  0  0  2  0  0  0  0  0  0
  190.3370  177.7940  140.7180 C   0  0  0  0  0  2  0  0  0  0  0  0
  190.7120  177.2360  139.3240 C   0  0  0  0  0  2  0  0  0  0  0  0
  189.7710  177.3470  138.0950 C   0  0  2  0  0  0  0  0  0  0  0  0
  188.5280  176.4980  138.2620 C   0  0  0  0  0  1  0  0  0  0  0  0
  190.4800  176.7980  136.8650 C   0  0  0  0  0  2  0  0  0  0  0  0
  189.5240  176.7310  135.7830 N   0  0  0  0  0  1  0  0  0  0  0  0
  188.5020  179.2870  137.0190 O   0  0  0  0  0  1  0  0  0  0  0  0
  189.3750  178.8550  138.0470 C   0  0  0  0  0  2  0  0  0  0  0  0
  182.2660  178.1210  140.5660 C   0  0  0  0  0  2  0  0  0  0  0  0
  181.1670  179.8970  139.1730 C   0  0  0  0  0  0  0  0  0  0  0  0
  182.2020  179.0560  139.3530 C   0  0  0  0  0  3  0  0  0  0  0  0
  179.9950  179.8410  140.0650 C   0  0  0  0  0  1  0  0  0  0  0  0
  181.0050  180.8440  138.0370 C   0  0  0  0  0  3  0  0  0  0  0  0
  180.8160  180.5500  136.7460 C   0  0  0  0  0  0  0  0  0  0  0  0
  180.5190  181.8110  135.9140 C   0  0  0  0  0  1  0  0  0  0  0  0
  181.0510  178.2550  135.0620 C   0  0  1  0  0  3  0  0  0  0  0  0
  180.5480  179.5670  134.7960 O   0  0  0  0  0  0  0  0  0  0  0  0
  180.5150  179.2280  136.1040 C   0  0  2  0  0  3  0  0  0  0  0  0
  179.9760  177.2850  135.0180 N   0  0  0  0  0  2  0  0  0  0  0  0
  179.9190  176.2690  137.2290 C   0  0  0  0  0  1  0  0  0  0  0  0
  180.1980  176.0750  135.7640 C   0  0  2  0  0  3  0  0  0  0  0  0
  182.2930  175.0630  136.8820 N   0  0  0  0  0  2  0  0  0  0  0  0
  181.5930  175.6200  135.7160 C   0  0  0  0  0  0  0  0  0  0  0  0
  182.2250  175.6120  134.5940 O   0  0  0  0  0  0  0  0  0  0  0  0
  183.6620  174.5900  136.8260 C   0  0  1  0  0  3  0  0  0  0  0  0
  184.8080  172.5720  137.7920 O   0  0  0  0  0  1  0  0  0  0  0  0
  183.9820  170.5580  136.1830 N   0  0  0  0  0  1  0  0  0  0  0  0
  183.3750  172.5520  135.0120 S   0  0  0  0  0  0  0  0  0  0  0  0
  183.8280  172.9770  136.8310 C   0  0  2  0  0  0  0  0  0  0  0  0
  183.1210  171.6970  136.4860 C   0  0  2  0  0  3  0  0  0  0  0  0
  184.6870  175.5230  136.6930 O   0  0  0  0  0  0  0  0  0  0  0  0
  185.6550  175.1150  135.2750 S   0  0  0  0  0  0  0  0  0  0  0  0
  185.6970  177.3140  136.3830 N   0  0  0  0  0  1  0  0  0  0  0  0
  186.1040  176.7730  135.0790 C   0  0  0  0  0  2  0  0  0  0  0  0
  1  2  1  0  0  0  0
  3  2  1  0  0  0  0
  4  5  1  0  0  0  0
  5  1  2  0  0  0  0
  6  4  2  0  0  0  0
  6  7  1  0  0  0  0
  7  3  2  0  0  0  0
  8  7  1  0  0  0  0
  8  9  1  0  0  0  0
  9 11  1  0  0  0  0
  9 10  1  1  0  0  0
 12 11  1  0  0  0  0
 13 19  1  1  0  0  0
 14 16  2  0  0  0  0
 15 13  1  0  0  0  0
 16 15  1  0  0  0  0
 17 12  1  1  0  0  0
 17 16  1  0  0  0  0
 17 18  1  0  0  0  0
 18 13  1  0  0  0  0
 20 19  2  0  0  0  0
 20 21  1  0  0  0  0
 21 23  2  0  0  0  0
 22 21  1  0  0  0  0
 24 12  1  0  0  0  0
 25 24  1  0  0  0  0
 26 25  1  0  0  0  0
 27 28  1  1  0  0  0
 27 26  1  0  0  0  0
 29 27  1  0  0  0  0
 30 29  1  0  0  0  0
 31 32  1  0  0  0  0
 32 27  1  0  0  0  0
 33  4  1  0  0  0  0
 34 35  2  0  0  0  0
 34 36  1  0  0  0  0
 35 33  1  0  0  0  0
 37 34  1  0  0  0  0
 38 37  2  0  0  0  0
 39 38  1  0  0  0  0
 40 43  1  6  0  0  0
 40 42  1  0  0  0  0
 41 40  1  0  0  0  0
 41 42  1  0  0  0  0
 42 38  1  1  0  0  0
 43 45  1  0  0  0  0
 45 44  1  1  0  0  0
 47 45  1  0  0  0  0
 47 46  1  0  0  0  0
 48 47  2  0  0  0  0
 49 55  1  6  0  0  0
 49 53  1  0  0  0  0
 49 46  1  0  0  0  0
 52 54  1  0  0  0  0
 52 53  1  0  0  0  0
 53 50  1  1  0  0  0
 54 51  1  6  0  0  0
 54 53  1  0  0  0  0
 56 55  1  0  0  0  0
 58 56  1  0  0  0  0
 58 57  1  0  0  0  0
M  END
>  <MODEL>
1

>  <REMARK>
 VINA RESULT:      -6.5      0.000      0.000
  Name = 
  25 active torsions:
  status: ('A' for Active; 'I' for Inactive)
    1  A    between atoms: C_2  and  C_30
    2  A    between atoms: C_5  and  C_16
    3  A    between atoms: C_7  and  N_17
    4  A    between atoms: C_7  and  C_57
    5  A    between atoms: C_8  and  C_13
    6  A    between atoms: C_8  and  C_35
    7  A    between atoms: C_9  and  C_21
    8  A    between atoms: C_9  and  C_49
    9  A    between atoms: C_10  and  C_14
   10  A    between atoms: C_11  and  N_34
   11  A    between atoms: C_14  and  C_32
   12  A    between atoms: C_14  and  C_39
   13  A    between atoms: N_17  and  C_21
   14  A    between atoms: N_17  and  C_50
   15  A    between atoms: C_19  and  N_34
   16  A    between atoms: C_19  and  C_38
   17  A    between atoms: C_23  and  N_24
   18  A    between atoms: C_23  and  C_36
   19  A    between atoms: C_23  and  O_43
   20  A    between atoms: N_25  and  C_30
   21  A    between atoms: C_27  and  C_40
   22  A    between atoms: C_32  and  C_57
   23  A    between atoms: O_43  and  S_53
   24  A    between atoms: C_46  and  S_53
   25  A    between atoms: C_49  and  C_56
                            x       y       z     vdW  Elec       q    Type
                         _______ _______ _______ _____ _____    ______ ____

>  <TORSDO>
F 25

$$$$
=
 OpenBabel11032419133D

 58 61  0  0  1  0  0  0  0  0999 V2000
  189.2350  176.2000  143.1480 C   0  0  0  0  0  3  0  0  0  0  0  0
  188.0750  176.5260  143.7020 C   0  0  0  0  0  2  0  0  0  0  0  0
  186.9320  177.2410  143.0910 C   0  0  0  0  0  3  0  0  0  0  0  0
  189.0600  177.4020  140.7760 C   0  0  0  0  0  0  0  0  0  0  0  0
  189.6520  176.3660  141.6870 C   0  0  0  0  0  3  0  0  0  0  0  0
  187.8400  177.9260  140.8480 C   0  0  0  0  0  3  0  0  0  0  0  0
  186.7930  177.8920  141.9180 C   0  0  0  0  0  0  0  0  0  0  0  0
  185.5440  178.7720  141.5480 C   0  0  0  0  0  2  0  0  0  0  0  0
  184.1210  178.2800  141.9170 C   0  0  2  0  0  3  0  0  0  0  0  0
  183.3260  178.0570  140.6190 C   0  0  0  0  0  1  0  0  0  0  0  0
  183.4440  179.2970  142.8720 C   0  0  0  0  0  2  0  0  0  0  0  0
  182.5630  178.6310  143.8460 N   0  0  0  0  0  0  0  0  0  0  0  0
  179.6080  179.3100  142.0330 C   0  0  1  0  0  3  0  0  0  0  0  0
  180.0710  176.9870  144.5340 O   0  0  0  0  0  0  0  0  0  0  0  0
  179.5860  177.9260  142.4650 N   0  0  0  0  0  2  0  0  0  0  0  0
  180.2950  177.8890  143.6910 C   0  0  0  0  0  0  0  0  0  0  0  0
  181.1780  179.0710  143.9050 C   0  0  2  0  0  3  0  0  0  0  0  0
  180.8240  179.9500  142.6910 C   0  0  0  0  0  2  0  0  0  0  0  0
  179.6030  179.3860  140.5210 C   0  0  0  0  0  2  0  0  0  0  0  0
  180.1990  180.6250  139.8770 N   0  0  0  0  0  2  0  0  0  0  0  0
  181.0790  180.8420  138.7450 C   0  0  0  0  0  0  0  0  0  0  0  0
  181.3650  182.2080  138.2120 N   0  0  0  0  0  1  0  0  0  0  0  0
  181.6730  179.9330  138.1920 O   0  0  0  0  0  0  0  0  0  0  0  0
  183.1680  178.6600  145.1840 C   0  0  0  0  0  2  0  0  0  0  0  0
  184.6170  179.0790  145.3540 C   0  0  0  0  0  2  0  0  0  0  0  0
  185.0820  178.3700  146.6480 C   0  0  0  0  0  2  0  0  0  0  0  0
  186.5390  178.4610  147.1770 C   0  0  2  0  0  0  0  0  0  0  0  0
  187.5410  177.9910  146.1430 C   0  0  0  0  0  1  0  0  0  0  0  0
  186.7040  177.5240  148.3640 C   0  0  0  0  0  2  0  0  0  0  0  0
  188.0920  177.5450  148.7680 N   0  0  0  0  0  1  0  0  0  0  0  0
  185.8750  180.6210  148.3710 O   0  0  0  0  0  1  0  0  0  0  0  0
  186.7510  179.9800  147.4610 C   0  0  0  0  0  2  0  0  0  0  0  0
  189.8690  177.9550  139.6140 C   0  0  0  0  0  2  0  0  0  0  0  0
  190.9710  176.9350  137.6020 C   0  0  0  0  0  0  0  0  0  0  0  0
  190.9450  177.0970  138.9370 C   0  0  0  0  0  3  0  0  0  0  0  0
  189.8780  177.4610  136.7640 C   0  0  0  0  0  1  0  0  0  0  0  0
  191.9660  176.1280  136.8450 C   0  0  0  0  0  3  0  0  0  0  0  0
  191.7900  174.9280  136.2810 C   0  0  0  0  0  0  0  0  0  0  0  0
  193.0100  174.5110  135.4400 C   0  0  0  0  0  1  0  0  0  0  0  0
  189.1750  173.8630  136.7180 C   0  0  1  0  0  3  0  0  0  0  0  0
  190.4490  173.4700  137.2380 O   0  0  0  0  0  0  0  0  0  0  0  0
  190.5250  174.1500  136.0720 C   0  0  2  0  0  3  0  0  0  0  0  0
  188.6580  172.8460  135.8270 N   0  0  0  0  0  2  0  0  0  0  0  0
  187.8590  170.5500  135.7000 C   0  0  0  0  0  1  0  0  0  0  0  0
  187.8040  171.8610  136.4350 C   0  0  2  0  0  3  0  0  0  0  0  0
  185.7120  172.9110  137.5240 N   0  0  0  0  0  2  0  0  0  0  0  0
  186.3850  172.2370  136.4040 C   0  0  0  0  0  0  0  0  0  0  0  0
  185.7000  172.0630  135.3270 O   0  0  0  0  0  0  0  0  0  0  0  0
  184.3180  173.3060  137.4810 C   0  0  1  0  0  3  0  0  0  0  0  0
  183.0490  175.2180  138.5080 O   0  0  0  0  0  1  0  0  0  0  0  0
  183.7700  177.3330  136.9820 N   0  0  0  0  0  1  0  0  0  0  0  0
  184.5010  175.4220  135.7450 S   0  0  0  0  0  0  0  0  0  0  0  0
  184.0590  174.9050  137.5430 C   0  0  2  0  0  0  0  0  0  0  0  0
  184.6930  176.2350  137.2520 C   0  0  2  0  0  3  0  0  0  0  0  0
  183.3490  172.3200  137.3120 O   0  0  0  0  0  0  0  0  0  0  0  0
  182.1750  172.8680  136.1140 S   0  0  0  0  0  0  0  0  0  0  0  0
  180.3090  171.5750  137.0660 N   0  0  0  0  0  1  0  0  0  0  0  0
  181.4090  171.3190  136.1270 C   0  0  0  0  0  2  0  0  0  0  0  0
  1  2  1  0  0  0  0
  3  2  1  0  0  0  0
  4  6  2  0  0  0  0
  4  5  1  0  0  0  0
  5  1  2  0  0  0  0
  6  7  1  0  0  0  0
  7  3  2  0  0  0  0
  8  9  1  0  0  0  0
  8  7  1  0  0  0  0
  9 10  1  6  0  0  0
  9 11  1  0  0  0  0
 11 12  1  0  0  0  0
 12 24  1  0  0  0  0
 13 19  1  6  0  0  0
 13 15  1  0  0  0  0
 13 18  1  0  0  0  0
 15 16  1  0  0  0  0
 16 17  1  0  0  0  0
 16 14  2  0  0  0  0
 17 12  1  6  0  0  0
 18 17  1  0  0  0  0
 20 19  1  0  0  0  0
 21 20  1  0  0  0  0
 22 21  1  0  0  0  0
 23 21  2  0  0  0  0
 24 25  1  0  0  0  0
 25 26  1  0  0  0  0
 26 27  1  0  0  0  0
 27 28  1  6  0  0  0
 27 32  1  0  0  0  0
 27 29  1  0  0  0  0
 29 30  1  0  0  0  0
 32 31  1  0  0  0  0
 33  4  1  0  0  0  0
 34 35  2  0  0  0  0
 35 33  1  0  0  0  0
 36 34  1  0  0  0  0
 37 34  1  0  0  0  0
 38 37  2  0  0  0  0
 39 38  1  0  0  0  0
 40 43  1  6  0  0  0
 40 41  1  0  0  0  0
 42 38  1  1  0  0  0
 42 40  1  0  0  0  0
 42 41  1  0  0  0  0
 43 45  1  0  0  0  0
 45 44  1  6  0  0  0
 47 45  1  0  0  0  0
 47 46  1  0  0  0  0
 48 47  2  0  0  0  0
 49 55  1  6  0  0  0
 49 46  1  0  0  0  0
 49 53  1  0  0  0  0
 52 54  1  0  0  0  0
 52 53  1  0  0  0  0
 53 50  1  1  0  0  0
 54 51  1  6  0  0  0
 54 53  1  0  0  0  0
 56 58  1  0  0  0  0
 56 55  1  0  0  0  0
 58 57  1  0  0  0  0
M  END
>  <MODEL>
2

>  <REMARK>
 VINA RESULT:      -6.0      2.992      9.020
  Name = 
  25 active torsions:
  status: ('A' for Active; 'I' for Inactive)
    1  A    between atoms: C_2  and  C_30
    2  A    between atoms: C_5  and  C_16
    3  A    between atoms: C_7  and  N_17
    4  A    between atoms: C_7  and  C_57
    5  A    between atoms: C_8  and  C_13
    6  A    between atoms: C_8  and  C_35
    7  A    between atoms: C_9  and  C_21
    8  A    between atoms: C_9  and  C_49
    9  A    between atoms: C_10  and  C_14
   10  A    between atoms: C_11  and  N_34
   11  A    between atoms: C_14  and  C_32
   12  A    between atoms: C_14  and  C_39
   13  A    between atoms: N_17  and  C_21
   14  A    between atoms: N_17  and  C_50
   15  A    between atoms: C_19  and  N_34
   16  A    between atoms: C_19  and  C_38
   17  A    between atoms: C_23  and  N_24
   18  A    between atoms: C_23  and  C_36
   19  A    between atoms: C_23  and  O_43
   20  A    between atoms: N_25  and  C_30
   21  A    between atoms: C_27  and  C_40
   22  A    between atoms: C_32  and  C_57
   23  A    between atoms: O_43  and  S_53
   24  A    between atoms: C_46  and  S_53
   25  A    between atoms: C_49  and  C_56
                            x       y       z     vdW  Elec       q    Type
                         _______ _______ _______ _____ _____    ______ ____

>  <TORSDO>
F 25

$$$$
=
 OpenBabel11032419133D

 58 61  0  0  1  0  0  0  0  0999 V2000
  187.2950  177.8840  145.8730 C   0  0  0  0  0  3  0  0  0  0  0  0
  188.6180  177.8060  145.8660 C   0  0  0  0  0  2  0  0  0  0  0  0
  189.5450  177.9700  144.7240 C   0  0  0  0  0  3  0  0  0  0  0  0
  186.7540  178.1340  143.2750 C   0  0  0  0  0  0  0  0  0  0  0  0
  186.3780  178.2910  144.7190 C   0  0  0  0  0  3  0  0  0  0  0  0
  187.9820  178.1520  142.7620 C   0  0  0  0  0  3  0  0  0  0  0  0
  189.3360  178.0680  143.3950 C   0  0  0  0  0  0  0  0  0  0  0  0
  190.4850  178.0280  142.3230 C   0  0  0  0  0  2  0  0  0  0  0  0
  190.6270  176.7930  141.3950 C   0  0  2  0  0  3  0  0  0  0  0  0
  191.1880  175.6220  142.2210 C   0  0  0  0  0  1  0  0  0  0  0  0
  191.5140  177.1510  140.1740 C   0  0  0  0  0  2  0  0  0  0  0  0
  190.9690  176.5990  138.9220 N   0  0  0  0  0  0  0  0  0  0  0  0
  194.1310  175.3120  138.0110 C   0  0  1  0  0  3  0  0  0  0  0  0
  191.0260  174.2330  136.9770 O   0  0  0  0  0  0  0  0  0  0  0  0
  193.1480  174.2490  137.9250 N   0  0  0  0  0  2  0  0  0  0  0  0
  191.9270  174.8740  137.5710 C   0  0  0  0  0  0  0  0  0  0  0  0
  191.9080  176.3410  137.8420 C   0  0  2  0  0  3  0  0  0  0  0  0
  193.3570  176.5940  138.2950 C   0  0  0  0  0  2  0  0  0  0  0  0
  195.1790  174.9720  139.0490 C   0  0  0  0  0  2  0  0  0  0  0  0
  196.6170  174.8400  138.5800 N   0  0  0  0  0  2  0  0  0  0  0  0
  197.9020  174.9260  139.2470 C   0  0  0  0  0  0  0  0  0  0  0  0
  199.1780  174.5680  138.5600 N   0  0  0  0  0  1  0  0  0  0  0  0
  198.0220  175.3380  140.3880 O   0  0  0  0  0  0  0  0  0  0  0  0
  189.8530  177.4260  138.4450 C   0  0  0  0  0  2  0  0  0  0  0  0
  188.4770  177.2790  139.0690 C   0  0  0  0  0  2  0  0  0  0  0  0
  187.6420  176.5260  138.0060 C   0  0  0  0  0  2  0  0  0  0  0  0
  187.0320  177.2320  136.7650 C   0  0  2  0  0  0  0  0  0  0  0  0
  185.7430  176.5730  136.3220 C   0  0  0  0  0  1  0  0  0  0  0  0
  187.9880  177.0960  135.5880 C   0  0  0  0  0  2  0  0  0  0  0  0
  188.3700  175.7060  135.4740 N   0  0  0  0  0  1  0  0  0  0  0  0
  187.5910  179.7260  136.8100 O   0  0  0  0  0  1  0  0  0  0  0  0
  186.7390  178.6840  137.2530 C   0  0  0  0  0  2  0  0  0  0  0  0
  185.6800  177.9420  142.2180 C   0  0  0  0  0  2  0  0  0  0  0  0
  183.2920  178.3270  141.5410 C   0  0  0  0  0  0  0  0  0  0  0  0
  184.2220  178.3170  142.5130 C   0  0  0  0  0  3  0  0  0  0  0  0
  183.6800  178.1180  140.1340 C   0  0  0  0  0  1  0  0  0  0  0  0
  181.8560  178.6730  141.7170 C   0  0  0  0  0  3  0  0  0  0  0  0
  180.8520  178.4660  140.8570 C   0  0  0  0  0  0  0  0  0  0  0  0
  179.4880  178.8060  141.4850 C   0  0  0  0  0  1  0  0  0  0  0  0
  180.1100  176.5090  138.9130 C   0  0  1  0  0  3  0  0  0  0  0  0
  180.9380  176.4110  140.0760 O   0  0  0  0  0  0  0  0  0  0  0  0
  180.8330  177.6680  139.5880 C   0  0  2  0  0  3  0  0  0  0  0  0
  180.9050  176.3530  137.7130 N   0  0  0  0  0  2  0  0  0  0  0  0
  178.9310  175.1330  136.9820 C   0  0  0  0  0  1  0  0  0  0  0  0
  180.2200  175.7940  136.5790 C   0  0  2  0  0  3  0  0  0  0  0  0
  182.1600  174.0910  136.5260 N   0  0  0  0  0  2  0  0  0  0  0  0
  180.9840  174.7290  135.9170 C   0  0  0  0  0  0  0  0  0  0  0  0
  180.5730  174.2500  134.7940 O   0  0  0  0  0  0  0  0  0  0  0  0
  182.8970  173.0220  135.8840 C   0  0  1  0  0  3  0  0  0  0  0  0
  184.4900  173.0950  137.8260 O   0  0  0  0  0  1  0  0  0  0  0  0
  186.9070  172.7360  136.6620 N   0  0  0  0  0  1  0  0  0  0  0  0
  185.4280  173.2140  134.8450 S   0  0  0  0  0  0  0  0  0  0  0  0
  184.4100  172.8130  136.4250 C   0  0  2  0  0  0  0  0  0  0  0  0
  185.7020  172.1040  136.1340 C   0  0  2  0  0  3  0  0  0  0  0  0
  182.2420  172.2300  134.9440 O   0  0  0  0  0  0  0  0  0  0  0  0
  181.9040  170.6520  135.6570 S   0  0  0  0  0  0  0  0  0  0  0  0
  179.4810  170.8470  136.0500 N   0  0  0  0  0  1  0  0  0  0  0  0
  180.3540  170.6160  134.8920 C   0  0  0  0  0  2  0  0  0  0  0  0
  2  1  1  0  0  0  0
  3  2  1  0  0  0  0
  4  5  1  0  0  0  0
  5  1  2  0  0  0  0
  6  4  2  0  0  0  0
  6  7  1  0  0  0  0
  7  3  2  0  0  0  0
  8  7  1  0  0  0  0
  9 10  1  1  0  0  0
  9  8  1  0  0  0  0
 11  9  1  0  0  0  0
 12 11  1  0  0  0  0
 13 18  1  0  0  0  0
 13 19  1  1  0  0  0
 14 16  2  0  0  0  0
 15 13  1  0  0  0  0
 16 17  1  0  0  0  0
 16 15  1  0  0  0  0
 17 18  1  0  0  0  0
 17 12  1  1  0  0  0
 20 19  1  0  0  0  0
 20 21  1  0  0  0  0
 21 23  2  0  0  0  0
 22 21  1  0  0  0  0
 24 12  1  0  0  0  0
 24 25  1  0  0  0  0
 26 25  1  0  0  0  0
 27 28  1  6  0  0  0
 27 32  1  0  0  0  0
 27 26  1  0  0  0  0
 29 27  1  0  0  0  0
 30 29  1  0  0  0  0
 31 32  1  0  0  0  0
 33 35  1  0  0  0  0
 33  4  1  0  0  0  0
 34 37  1  0  0  0  0
 34 35  2  0  0  0  0
 36 34  1  0  0  0  0
 38 39  1  0  0  0  0
 38 37  2  0  0  0  0
 40 43  1  6  0  0  0
 40 42  1  0  0  0  0
 40 41  1  0  0  0  0
 42 41  1  0  0  0  0
 42 38  1  1  0  0  0
 45 44  1  1  0  0  0
 45 43  1  0  0  0  0
 47 46  1  0  0  0  0
 47 45  1  0  0  0  0
 48 47  2  0  0  0  0
 49 55  1  1  0  0  0
 49 53  1  0  0  0  0
 49 46  1  0  0  0  0
 52 54  1  0  0  0  0
 52 53  1  0  0  0  0
 53 50  1  1  0  0  0
 54 53  1  0  0  0  0
 54 51  1  1  0  0  0
 55 56  1  0  0  0  0
 58 56  1  0  0  0  0
 58 57  1  0  0  0  0
M  END
>  <MODEL>
3

>  <REMARK>
 VINA RESULT:      -5.8      3.455      5.779
  Name = 
  25 active torsions:
  status: ('A' for Active; 'I' for Inactive)
    1  A    between atoms: C_2  and  C_30
    2  A    between atoms: C_5  and  C_16
    3  A    between atoms: C_7  and  N_17
    4  A    between atoms: C_7  and  C_57
    5  A    between atoms: C_8  and  C_13
    6  A    between atoms: C_8  and  C_35
    7  A    between atoms: C_9  and  C_21
    8  A    between atoms: C_9  and  C_49
    9  A    between atoms: C_10  and  C_14
   10  A    between atoms: C_11  and  N_34
   11  A    between atoms: C_14  and  C_32
   12  A    between atoms: C_14  and  C_39
   13  A    between atoms: N_17  and  C_21
   14  A    between atoms: N_17  and  C_50
   15  A    between atoms: C_19  and  N_34
   16  A    between atoms: C_19  and  C_38
   17  A    between atoms: C_23  and  N_24
   18  A    between atoms: C_23  and  C_36
   19  A    between atoms: C_23  and  O_43
   20  A    between atoms: N_25  and  C_30
   21  A    between atoms: C_27  and  C_40
   22  A    between atoms: C_32  and  C_57
   23  A    between atoms: O_43  and  S_53
   24  A    between atoms: C_46  and  S_53
   25  A    between atoms: C_49  and  C_56
                            x       y       z     vdW  Elec       q    Type
                         _______ _______ _______ _____ _____    ______ ____

>  <TORSDO>
F 25

$$$$
=
 OpenBabel11032419133D

 58 61  0  0  1  0  0  0  0  0999 V2000
  185.0220  178.6710  142.6240 C   0  0  0  0  0  3  0  0  0  0  0  0
  183.7440  178.7620  142.9650 C   0  0  0  0  0  2  0  0  0  0  0  0
  182.5480  178.6070  142.1070 C   0  0  0  0  0  3  0  0  0  0  0  0
  184.8570  178.4140  139.9760 C   0  0  0  0  0  0  0  0  0  0  0  0
  185.6000  178.2540  141.2710 C   0  0  0  0  0  3  0  0  0  0  0  0
  183.5390  178.4070  139.8040 C   0  0  0  0  0  3  0  0  0  0  0  0
  182.3990  178.5050  140.7710 C   0  0  0  0  0  0  0  0  0  0  0  0
  181.0090  178.5560  140.0380 C   0  0  0  0  0  2  0  0  0  0  0  0
  180.5950  177.3970  139.0950 C   0  0  2  0  0  3  0  0  0  0  0  0
  181.0010  176.0640  139.7490 C   0  0  0  0  0  1  0  0  0  0  0  0
  181.2320  177.6030  137.6960 C   0  0  0  0  0  2  0  0  0  0  0  0
  180.4820  176.8960  136.6440 N   0  0  0  0  0  0  0  0  0  0  0  0
  183.3290  174.8210  136.3820 C   0  0  1  0  0  3  0  0  0  0  0  0
  180.0150  173.8800  136.3740 O   0  0  0  0  0  0  0  0  0  0  0  0
  182.2500  174.0630  136.9840 N   0  0  0  0  0  2  0  0  0  0  0  0
  181.0520  174.5840  136.4330 C   0  0  0  0  0  0  0  0  0  0  0  0
  181.2130  175.9380  135.8310 C   0  0  2  0  0  3  0  0  0  0  0  0
  182.7330  176.1560  135.9510 C   0  0  0  0  0  2  0  0  0  0  0  0
  184.4890  174.9370  137.3480 C   0  0  0  0  0  2  0  0  0  0  0  0
  185.8630  174.5240  136.8510 N   0  0  0  0  0  2  0  0  0  0  0  0
  186.3260  173.6840  135.7630 C   0  0  0  0  0  0  0  0  0  0  0  0
  187.7680  173.5960  135.3860 N   0  0  0  0  0  1  0  0  0  0  0  0
  185.5760  172.9650  135.1250 O   0  0  0  0  0  0  0  0  0  0  0  0
  179.7730  177.8590  135.7910 C   0  0  0  0  0  2  0  0  0  0  0  0
  178.9460  178.9660  136.4180 C   0  0  0  0  0  2  0  0  0  0  0  0
  179.7740  180.2530  136.1900 C   0  0  0  0  0  2  0  0  0  0  0  0
  179.7330  181.4600  137.1660 C   0  0  2  0  0  0  0  0  0  0  0  0
  179.0090  181.1170  138.4510 C   0  0  0  0  0  1  0  0  0  0  0  0
  178.9340  182.5920  136.5340 C   0  0  0  0  0  2  0  0  0  0  0  0
  179.0700  183.7630  137.3710 N   0  0  0  0  0  1  0  0  0  0  0  0
  181.6770  181.6550  138.8120 O   0  0  0  0  0  1  0  0  0  0  0  0
  181.2320  181.7600  137.4720 C   0  0  0  0  0  2  0  0  0  0  0  0
  185.6180  178.5940  138.6730 C   0  0  0  0  0  2  0  0  0  0  0  0
  187.5980  177.8480  137.3200 C   0  0  0  0  0  0  0  0  0  0  0  0
  187.0520  178.0680  138.5300 C   0  0  0  0  0  3  0  0  0  0  0  0
  186.7810  177.9690  136.0990 C   0  0  0  0  0  1  0  0  0  0  0  0
  188.9740  177.3420  137.0680 C   0  0  0  0  0  3  0  0  0  0  0  0
  189.9810  177.2370  137.9410 C   0  0  0  0  0  0  0  0  0  0  0  0
  191.1890  176.5030  137.3290 C   0  0  0  0  0  1  0  0  0  0  0  0
  190.4890  176.7510  140.7100 C   0  0  1  0  0  3  0  0  0  0  0  0
  189.5270  176.1820  139.8170 O   0  0  0  0  0  0  0  0  0  0  0  0
  189.9710  177.3990  139.4320 C   0  0  2  0  0  3  0  0  0  0  0  0
  189.8290  177.5620  141.7120 N   0  0  0  0  0  2  0  0  0  0  0  0
  192.0780  177.6930  142.6340 C   0  0  0  0  0  1  0  0  0  0  0  0
  190.6990  178.2920  142.5950 C   0  0  2  0  0  3  0  0  0  0  0  0
  189.6230  177.0870  144.6080 N   0  0  0  0  0  2  0  0  0  0  0  0
  190.2500  178.2650  143.9920 C   0  0  0  0  0  0  0  0  0  0  0  0
  190.4860  179.2720  144.7600 O   0  0  0  0  0  0  0  0  0  0  0  0
  189.2050  177.0520  145.9950 C   0  0  1  0  0  3  0  0  0  0  0  0
  187.0920  178.0410  145.0610 O   0  0  0  0  0  1  0  0  0  0  0  0
  185.8150  178.9690  147.2600 N   0  0  0  0  0  1  0  0  0  0  0  0
  188.0400  178.5130  148.0040 S   0  0  0  0  0  0  0  0  0  0  0  0
  187.7490  177.7010  146.2860 C   0  0  2  0  0  0  0  0  0  0  0  0
  186.6490  177.7730  147.3080 C   0  0  2  0  0  3  0  0  0  0  0  0
  190.0230  176.4120  146.9240 O   0  0  0  0  0  0  0  0  0  0  0  0
  191.4760  175.8340  146.1060 S   0  0  0  0  0  0  0  0  0  0  0  0
  191.5660  177.1980  148.1530 N   0  0  0  0  0  1  0  0  0  0  0  0
  192.4320  176.2120  147.4950 C   0  0  0  0  0  2  0  0  0  0  0  0
  1  2  1  0  0  0  0
  3  2  1  0  0  0  0
  4  5  1  0  0  0  0
  5  1  2  0  0  0  0
  6  4  2  0  0  0  0
  6  7  1  0  0  0  0
  7  3  2  0  0  0  0
  8  7  1  0  0  0  0
  9 10  1  1  0  0  0
  9  8  1  0  0  0  0
 11  9  1  0  0  0  0
 12 11  1  0  0  0  0
 13 15  1  0  0  0  0
 13 19  1  1  0  0  0
 14 16  2  0  0  0  0
 16 15  1  0  0  0  0
 17 18  1  0  0  0  0
 17 16  1  0  0  0  0
 17 12  1  1  0  0  0
 18 13  1  0  0  0  0
 20 19  1  0  0  0  0
 21 20  1  0  0  0  0
 22 21  1  0  0  0  0
 23 21  2  0  0  0  0
 24 25  1  0  0  0  0
 24 12  1  0  0  0  0
 26 25  1  0  0  0  0
 26 27  1  0  0  0  0
 27 32  1  0  0  0  0
 27 28  1  1  0  0  0
 29 27  1  0  0  0  0
 29 30  1  0  0  0  0
 32 31  1  0  0  0  0
 33  4  1  0  0  0  0
 34 35  2  0  0  0  0
 35 33  1  0  0  0  0
 36 34  1  0  0  0  0
 37 34  1  0  0  0  0
 37 38  2  0  0  0  0
 39 38  1  0  0  0  0
 40 43  1  1  0  0  0
 41 40  1  0  0  0  0
 42 38  1  6  0  0  0
 42 41  1  0  0  0  0
 42 40  1  0  0  0  0
 43 45  1  0  0  0  0
 45 44  1  1  0  0  0
 45 47  1  0  0  0  0
 47 46  1  0  0  0  0
 47 48  2  0  0  0  0
 49 46  1  6  0  0  0
 49 53  1  0  0  0  0
 49 55  1  0  0  0  0
 53 50  1  6  0  0  0
 53 54  1  0  0  0  0
 53 52  1  0  0  0  0
 54 51  1  6  0  0  0
 54 52  1  0  0  0  0
 56 55  1  0  0  0  0
 56 58  1  0  0  0  0
 58 57  1  0  0  0  0
M  END
>  <MODEL>
4

>  <REMARK>
 VINA RESULT:      -5.7      3.332     10.854
  Name = 
  25 active torsions:
  status: ('A' for Active; 'I' for Inactive)
    1  A    between atoms: C_2  and  C_30
    2  A    between atoms: C_5  and  C_16
    3  A    between atoms: C_7  and  N_17
    4  A    between atoms: C_7  and  C_57
    5  A    between atoms: C_8  and  C_13
    6  A    between atoms: C_8  and  C_35
    7  A    between atoms: C_9  and  C_21
    8  A    between atoms: C_9  and  C_49
    9  A    between atoms: C_10  and  C_14
   10  A    between atoms: C_11  and  N_34
   11  A    between atoms: C_14  and  C_32
   12  A    between atoms: C_14  and  C_39
   13  A    between atoms: N_17  and  C_21
   14  A    between atoms: N_17  and  C_50
   15  A    between atoms: C_19  and  N_34
   16  A    between atoms: C_19  and  C_38
   17  A    between atoms: C_23  and  N_24
   18  A    between atoms: C_23  and  C_36
   19  A    between atoms: C_23  and  O_43
   20  A    between atoms: N_25  and  C_30
   21  A    between atoms: C_27  and  C_40
   22  A    between atoms: C_32  and  C_57
   23  A    between atoms: O_43  and  S_53
   24  A    between atoms: C_46  and  S_53
   25  A    between atoms: C_49  and  C_56
                            x       y       z     vdW  Elec       q    Type
                         _______ _______ _______ _____ _____    ______ ____

>  <TORSDO>
F 25

$$$$
=
 OpenBabel11032419133D

 58 61  0  0  1  0  0  0  0  0999 V2000
  182.3880  179.7110  144.2340 C   0  0  0  0  0  3  0  0  0  0  0  0
  183.4050  179.2900  144.9730 C   0  0  0  0  0  2  0  0  0  0  0  0
  184.6180  178.5620  144.5390 C   0  0  0  0  0  3  0  0  0  0  0  0
  182.9780  178.6670  141.8540 C   0  0  0  0  0  0  0  0  0  0  0  0
  182.2570  179.6670  142.7120 C   0  0  0  0  0  3  0  0  0  0  0  0
  184.1410  178.0790  142.1180 C   0  0  0  0  0  3  0  0  0  0  0  0
  184.9600  177.9860  143.3680 C   0  0  0  0  0  0  0  0  0  0  0  0
  186.2240  177.0730  143.1770 C   0  0  0  0  0  2  0  0  0  0  0  0
  187.4800  177.3050  144.0570 C   0  0  2  0  0  3  0  0  0  0  0  0
  187.0270  177.5070  145.5140 C   0  0  0  0  0  1  0  0  0  0  0  0
  188.2940  178.5040  143.5060 C   0  0  0  0  0  2  0  0  0  0  0  0
  189.4890  178.0610  142.7670 N   0  0  0  0  0  0  0  0  0  0  0  0
  191.5320  177.1190  145.4910 C   0  0  1  0  0  3  0  0  0  0  0  0
  192.1280  176.6420  142.1310 O   0  0  0  0  0  0  0  0  0  0  0  0
  191.7730  176.2110  144.3870 N   0  0  0  0  0  2  0  0  0  0  0  0
  191.5690  176.9680  143.2060 C   0  0  0  0  0  0  0  0  0  0  0  0
  190.7760  178.2110  143.4250 C   0  0  2  0  0  3  0  0  0  0  0  0
  190.6180  178.2160  144.9570 C   0  0  0  0  0  2  0  0  0  0  0  0
  190.9750  176.3640  146.6780 C   0  0  0  0  0  2  0  0  0  0  0  0
  189.7220  176.9130  147.3370 N   0  0  0  0  0  2  0  0  0  0  0  0
  189.4630  178.0300  148.2260 C   0  0  0  0  0  0  0  0  0  0  0  0
  188.0770  178.4570  148.5810 N   0  0  0  0  0  1  0  0  0  0  0  0
  190.3570  178.6550  148.7710 O   0  0  0  0  0  0  0  0  0  0  0  0
  189.5190  178.6760  141.4340 C   0  0  0  0  0  2  0  0  0  0  0  0
  188.4030  178.3980  140.4430 C   0  0  0  0  0  2  0  0  0  0  0  0
  189.1240  177.8980  139.1680 C   0  0  0  0  0  2  0  0  0  0  0  0
  188.4120  177.7820  137.7930 C   0  0  2  0  0  0  0  0  0  0  0  0
  188.7350  178.9570  136.8940 C   0  0  0  0  0  1  0  0  0  0  0  0
  186.9050  177.8260  138.0010 C   0  0  0  0  0  2  0  0  0  0  0  0
  186.3180  176.7120  137.2910 N   0  0  0  0  0  1  0  0  0  0  0  0
  189.2200  175.3690  138.0290 O   0  0  0  0  0  1  0  0  0  0  0  0
  188.9860  176.4720  137.1710 C   0  0  0  0  0  2  0  0  0  0  0  0
  182.3920  178.2370  140.5190 C   0  0  0  0  0  2  0  0  0  0  0  0
  180.9580  179.8290  139.2090 C   0  0  0  0  0  0  0  0  0  0  0  0
  182.1630  179.2630  139.4030 C   0  0  0  0  0  3  0  0  0  0  0  0
  179.7860  179.3690  139.9760 C   0  0  0  0  0  1  0  0  0  0  0  0
  180.6280  180.8310  138.1610 C   0  0  0  0  0  3  0  0  0  0  0  0
  180.7040  180.6850  136.8340 C   0  0  0  0  0  0  0  0  0  0  0  0
  180.1060  181.8970  136.0940 C   0  0  0  0  0  1  0  0  0  0  0  0
  180.8650  178.9150  134.5980 C   0  0  1  0  0  3  0  0  0  0  0  0
  179.7500  179.3180  135.3990 O   0  0  0  0  0  0  0  0  0  0  0  0
  180.9410  179.4460  136.0240 C   0  0  2  0  0  3  0  0  0  0  0  0
  181.1590  177.5140  134.8130 N   0  0  0  0  0  2  0  0  0  0  0  0
  183.5790  177.3450  134.6130 C   0  0  0  0  0  1  0  0  0  0  0  0
  182.3830  177.2350  135.5170 C   0  0  2  0  0  3  0  0  0  0  0  0
  182.4940  174.6800  135.1660 N   0  0  0  0  0  2  0  0  0  0  0  0
  182.4440  175.8630  136.0370 C   0  0  0  0  0  0  0  0  0  0  0  0
  182.5530  175.6630  137.3040 O   0  0  0  0  0  0  0  0  0  0  0  0
  182.5820  173.3270  135.6790 C   0  0  1  0  0  3  0  0  0  0  0  0
  185.0330  173.7640  136.0240 O   0  0  0  0  0  1  0  0  0  0  0  0
  186.1790  171.3890  135.4130 N   0  0  0  0  0  1  0  0  0  0  0  0
  183.9400  171.2050  134.5950 S   0  0  0  0  0  0  0  0  0  0  0  0
  184.0840  172.7240  135.7630 C   0  0  2  0  0  0  0  0  0  0  0  0
  184.8580  171.4650  136.0290 C   0  0  2  0  0  3  0  0  0  0  0  0
  181.4180  172.7050  136.1230 O   0  0  0  0  0  0  0  0  0  0  0  0
  180.0230  173.5420  135.4400 S   0  0  0  0  0  0  0  0  0  0  0  0
  179.6120  171.6890  137.0080 N   0  0  0  0  0  1  0  0  0  0  0  0
  179.0360  173.0170  136.7580 C   0  0  0  0  0  2  0  0  0  0  0  0
  1  2  1  0  0  0  0
  3  2  1  0  0  0  0
  4  6  2  0  0  0  0
  4  5  1  0  0  0  0
  5  1  2  0  0  0  0
  6  7  1  0  0  0  0
  7  3  2  0  0  0  0
  8  7  1  0  0  0  0
  8  9  1  0  0  0  0
  9 10  1  1  0  0  0
 11  9  1  0  0  0  0
 12 11  1  0  0  0  0
 13 19  1  1  0  0  0
 14 16  2  0  0  0  0
 15 13  1  0  0  0  0
 16 17  1  0  0  0  0
 16 15  1  0  0  0  0
 17 12  1  6  0  0  0
 17 18  1  0  0  0  0
 18 13  1  0  0  0  0
 19 20  1  0  0  0  0
 20 21  1  0  0  0  0
 21 22  1  0  0  0  0
 21 23  2  0  0  0  0
 24 12  1  0  0  0  0
 25 24  1  0  0  0  0
 26 25  1  0  0  0  0
 27 28  1  6  0  0  0
 27 29  1  0  0  0  0
 27 26  1  0  0  0  0
 30 29  1  0  0  0  0
 32 27  1  0  0  0  0
 32 31  1  0  0  0  0
 33  4  1  0  0  0  0
 34 35  2  0  0  0  0
 34 36  1  0  0  0  0
 35 33  1  0  0  0  0
 37 34  1  0  0  0  0
 38 37  2  0  0  0  0
 39 38  1  0  0  0  0
 40 43  1  1  0  0  0
 40 41  1  0  0  0  0
 40 42  1  0  0  0  0
 41 42  1  0  0  0  0
 42 38  1  6  0  0  0
 43 45  1  0  0  0  0
 45 44  1  6  0  0  0
 45 47  1  0  0  0  0
 46 47  1  0  0  0  0
 47 48  2  0  0  0  0
 49 46  1  1  0  0  0
 49 53  1  0  0  0  0
 49 55  1  0  0  0  0
 52 53  1  0  0  0  0
 52 54  1  0  0  0  0
 53 50  1  6  0  0  0
 53 54  1  0  0  0  0
 54 51  1  6  0  0  0
 56 55  1  0  0  0  0
 56 58  1  0  0  0  0
 58 57  1  0  0  0  0
M  END
>  <MODEL>
5

>  <REMARK>
 VINA RESULT:      -4.9      1.688      2.505
  Name = 
  25 active torsions:
  status: ('A' for Active; 'I' for Inactive)
    1  A    between atoms: C_2  and  C_30
    2  A    between atoms: C_5  and  C_16
    3  A    between atoms: C_7  and  N_17
    4  A    between atoms: C_7  and  C_57
    5  A    between atoms: C_8  and  C_13
    6  A    between atoms: C_8  and  C_35
    7  A    between atoms: C_9  and  C_21
    8  A    between atoms: C_9  and  C_49
    9  A    between atoms: C_10  and  C_14
   10  A    between atoms: C_11  and  N_34
   11  A    between atoms: C_14  and  C_32
   12  A    between atoms: C_14  and  C_39
   13  A    between atoms: N_17  and  C_21
   14  A    between atoms: N_17  and  C_50
   15  A    between atoms: C_19  and  N_34
   16  A    between atoms: C_19  and  C_38
   17  A    between atoms: C_23  and  N_24
   18  A    between atoms: C_23  and  C_36
   19  A    between atoms: C_23  and  O_43
   20  A    between atoms: N_25  and  C_30
   21  A    between atoms: C_27  and  C_40
   22  A    between atoms: C_32  and  C_57
   23  A    between atoms: O_43  and  S_53
   24  A    between atoms: C_46  and  S_53
   25  A    between atoms: C_49  and  C_56
                            x       y       z     vdW  Elec       q    Type
                         _______ _______ _______ _____ _____    ______ ____

>  <TORSDO>
F 25

$$$$
=
 OpenBabel11032419133D

 58 61  0  0  1  0  0  0  0  0999 V2000
  182.3880  179.5540  144.2390 C   0  0  0  0  0  3  0  0  0  0  0  0
  183.4040  179.1650  144.9960 C   0  0  0  0  0  2  0  0  0  0  0  0
  184.6310  178.4420  144.5910 C   0  0  0  0  0  3  0  0  0  0  0  0
  183.0120  178.4600  141.8900 C   0  0  0  0  0  0  0  0  0  0  0  0
  182.2710  179.4710  142.7170 C   0  0  0  0  0  3  0  0  0  0  0  0
  184.1810  177.8930  142.1780 C   0  0  0  0  0  3  0  0  0  0  0  0
  184.9900  177.8430  143.4370 C   0  0  0  0  0  0  0  0  0  0  0  0
  186.2670  176.9410  143.2790 C   0  0  0  0  0  2  0  0  0  0  0  0
  187.4860  177.1650  144.2130 C   0  0  2  0  0  3  0  0  0  0  0  0
  186.9770  177.3010  145.6590 C   0  0  0  0  0  1  0  0  0  0  0  0
  188.2930  178.4020  143.7370 C   0  0  0  0  0  2  0  0  0  0  0  0
  189.5030  178.0120  142.9940 N   0  0  0  0  0  0  0  0  0  0  0  0
  191.5980  177.1630  145.7090 C   0  0  1  0  0  3  0  0  0  0  0  0
  192.2020  176.7160  142.3470 O   0  0  0  0  0  0  0  0  0  0  0  0
  191.8760  176.2670  144.6030 N   0  0  0  0  0  2  0  0  0  0  0  0
  191.6330  177.0150  143.4250 C   0  0  0  0  0  0  0  0  0  0  0  0
  190.7850  178.2210  143.6480 C   0  0  2  0  0  3  0  0  0  0  0  0
  190.6320  178.2170  145.1800 C   0  0  0  0  0  2  0  0  0  0  0  0
  191.0810  176.3820  146.8980 C   0  0  0  0  0  2  0  0  0  0  0  0
  189.7640  176.8240  147.5120 N   0  0  0  0  0  2  0  0  0  0  0  0
  189.3780  177.9240  148.3750 C   0  0  0  0  0  0  0  0  0  0  0  0
  187.9490  178.2280  148.6830 N   0  0  0  0  0  1  0  0  0  0  0  0
  190.1940  178.6340  148.9370 O   0  0  0  0  0  0  0  0  0  0  0  0
  189.5010  178.6260  141.6600 C   0  0  0  0  0  2  0  0  0  0  0  0
  188.3770  178.3240  140.6860 C   0  0  0  0  0  2  0  0  0  0  0  0
  189.0880  177.8040  139.4130 C   0  0  0  0  0  2  0  0  0  0  0  0
  188.4180  177.8200  138.0130 C   0  0  2  0  0  0  0  0  0  0  0  0
  188.9420  178.9510  137.1540 C   0  0  0  0  0  1  0  0  0  0  0  0
  186.9270  178.0810  138.1710 C   0  0  0  0  0  2  0  0  0  0  0  0
  186.2110  177.0920  137.3970 N   0  0  0  0  0  1  0  0  0  0  0  0
  189.8670  175.7150  137.9810 O   0  0  0  0  0  1  0  0  0  0  0  0
  188.8170  176.4510  137.3800 C   0  0  0  0  0  2  0  0  0  0  0  0
  182.4440  177.9890  140.5620 C   0  0  0  0  0  2  0  0  0  0  0  0
  181.0070  179.5250  139.1880 C   0  0  0  0  0  0  0  0  0  0  0  0
  182.2180  178.9840  139.4160 C   0  0  0  0  0  3  0  0  0  0  0  0
  179.8290  179.0660  139.9460 C   0  0  0  0  0  1  0  0  0  0  0  0
  180.6790  180.4960  138.1100 C   0  0  0  0  0  3  0  0  0  0  0  0
  180.8380  180.3400  136.7910 C   0  0  0  0  0  0  0  0  0  0  0  0
  180.2140  181.5070  136.0020 C   0  0  0  0  0  1  0  0  0  0  0  0
  181.1970  178.5490  134.5950 C   0  0  1  0  0  3  0  0  0  0  0  0
  180.0320  178.8820  135.3540 O   0  0  0  0  0  0  0  0  0  0  0  0
  181.1910  179.1080  136.0120 C   0  0  2  0  0  3  0  0  0  0  0  0
  181.5870  177.1770  134.8460 N   0  0  0  0  0  2  0  0  0  0  0  0
  184.0080  177.1540  134.5980 C   0  0  0  0  0  1  0  0  0  0  0  0
  182.8400  177.0000  135.5310 C   0  0  2  0  0  3  0  0  0  0  0  0
  183.0830  174.4440  135.2640 N   0  0  0  0  0  2  0  0  0  0  0  0
  182.9980  175.6530  136.0950 C   0  0  0  0  0  0  0  0  0  0  0  0
  183.1650  175.5060  137.3630 O   0  0  0  0  0  0  0  0  0  0  0  0
  183.2670  173.1180  135.8200 C   0  0  1  0  0  3  0  0  0  0  0  0
  182.1480  171.0540  136.7160 O   0  0  0  0  0  1  0  0  0  0  0  0
  179.5510  171.7900  136.9130 N   0  0  0  0  0  1  0  0  0  0  0  0
  180.5610  173.4970  135.5780 S   0  0  0  0  0  0  0  0  0  0  0  0
  181.9250  172.4360  136.4200 C   0  0  2  0  0  0  0  0  0  0  0  0
  180.6350  172.7440  137.1260 C   0  0  2  0  0  3  0  0  0  0  0  0
  184.5220  172.5210  135.7220 O   0  0  0  0  0  0  0  0  0  0  0  0
  185.7170  173.7590  135.3270 S   0  0  0  0  0  0  0  0  0  0  0  0
  186.4730  171.4200  135.4720 N   0  0  0  0  0  1  0  0  0  0  0  0
  186.7360  172.5700  134.5970 C   0  0  0  0  0  2  0  0  0  0  0  0
  1  2  1  0  0  0  0
  3  2  1  0  0  0  0
  4  6  2  0  0  0  0
  4  5  1  0  0  0  0
  5  1  2  0  0  0  0
  6  7  1  0  0  0  0
  7  3  2  0  0  0  0
  8  7  1  0  0  0  0
  8  9  1  0  0  0  0
  9 10  1  1  0  0  0
 11  9  1  0  0  0  0
 12 11  1  0  0  0  0
 13 19  1  1  0  0  0
 14 16  2  0  0  0  0
 15 13  1  0  0  0  0
 16 17  1  0  0  0  0
 16 15  1  0  0  0  0
 17 12  1  6  0  0  0
 17 18  1  0  0  0  0
 18 13  1  0  0  0  0
 19 20  1  0  0  0  0
 20 21  1  0  0  0  0
 21 22  1  0  0  0  0
 21 23  2  0  0  0  0
 24 12  1  0  0  0  0
 25 24  1  0  0  0  0
 26 25  1  0  0  0  0
 27 28  1  6  0  0  0
 27 29  1  0  0  0  0
 27 26  1  0  0  0  0
 30 29  1  0  0  0  0
 32 31  1  0  0  0  0
 32 27  1  0  0  0  0
 33  4  1  0  0  0  0
 34 35  2  0  0  0  0
 34 36  1  0  0  0  0
 35 33  1  0  0  0  0
 37 34  1  0  0  0  0
 38 37  2  0  0  0  0
 39 38  1  0  0  0  0
 40 43  1  1  0  0  0
 40 41  1  0  0  0  0
 40 42  1  0  0  0  0
 41 42  1  0  0  0  0
 42 38  1  6  0  0  0
 43 45  1  0  0  0  0
 45 44  1  6  0  0  0
 45 47  1  0  0  0  0
 46 47  1  0  0  0  0
 47 48  2  0  0  0  0
 49 46  1  6  0  0  0
 49 53  1  0  0  0  0
 52 53  1  0  0  0  0
 52 54  1  0  0  0  0
 53 50  1  6  0  0  0
 53 54  1  0  0  0  0
 54 51  1  6  0  0  0
 55 49  1  0  0  0  0
 56 55  1  0  0  0  0
 58 56  1  0  0  0  0
 58 57  1  0  0  0  0
M  END
>  <MODEL>
6

>  <REMARK>
 VINA RESULT:      -4.9      1.677      2.208
  Name = 
  25 active torsions:
  status: ('A' for Active; 'I' for Inactive)
    1  A    between atoms: C_2  and  C_30
    2  A    between atoms: C_5  and  C_16
    3  A    between atoms: C_7  and  N_17
    4  A    between atoms: C_7  and  C_57
    5  A    between atoms: C_8  and  C_13
    6  A    between atoms: C_8  and  C_35
    7  A    between atoms: C_9  and  C_21
    8  A    between atoms: C_9  and  C_49
    9  A    between atoms: C_10  and  C_14
   10  A    between atoms: C_11  and  N_34
   11  A    between atoms: C_14  and  C_32
   12  A    between atoms: C_14  and  C_39
   13  A    between atoms: N_17  and  C_21
   14  A    between atoms: N_17  and  C_50
   15  A    between atoms: C_19  and  N_34
   16  A    between atoms: C_19  and  C_38
   17  A    between atoms: C_23  and  N_24
   18  A    between atoms: C_23  and  C_36
   19  A    between atoms: C_23  and  O_43
   20  A    between atoms: N_25  and  C_30
   21  A    between atoms: C_27  and  C_40
   22  A    between atoms: C_32  and  C_57
   23  A    between atoms: O_43  and  S_53
   24  A    between atoms: C_46  and  S_53
   25  A    between atoms: C_49  and  C_56
                            x       y       z     vdW  Elec       q    Type
                         _______ _______ _______ _____ _____    ______ ____

>  <TORSDO>
F 25

$$$$
=
 OpenBabel11032419133D

 58 61  0  0  1  0  0  0  0  0999 V2000
  185.2910  173.2440  138.1520 C   0  0  0  0  0  3  0  0  0  0  0  0
  183.9800  173.2280  137.9600 C   0  0  0  0  0  2  0  0  0  0  0  0
  183.1850  173.9800  136.9630 C   0  0  0  0  0  3  0  0  0  0  0  0
  186.0590  175.1670  136.4730 C   0  0  0  0  0  0  0  0  0  0  0  0
  186.3500  173.9520  137.3050 C   0  0  0  0  0  3  0  0  0  0  0  0
  184.8970  175.4950  135.9160 C   0  0  0  0  0  3  0  0  0  0  0  0
  183.5060  174.9770  136.1140 C   0  0  0  0  0  0  0  0  0  0  0  0
  182.4520  175.7870  135.2750 C   0  0  0  0  0  2  0  0  0  0  0  0
  180.9600  175.7760  135.7000 C   0  0  2  0  0  3  0  0  0  0  0  0
  180.1450  175.0620  134.6080 C   0  0  0  0  0  1  0  0  0  0  0  0
  180.4780  177.2270  135.9620 C   0  0  0  0  0  2  0  0  0  0  0  0
  181.0510  177.7780  137.2020 N   0  0  0  0  0  0  0  0  0  0  0  0
  181.7050  177.4250  140.6560 C   0  0  1  0  0  3  0  0  0  0  0  0
  178.9490  176.3330  138.8990 O   0  0  0  0  0  0  0  0  0  0  0  0
  180.2690  177.4530  140.4500 N   0  0  0  0  0  2  0  0  0  0  0  0
  180.0470  176.8750  139.1750 C   0  0  0  0  0  0  0  0  0  0  0  0
  181.2600  176.8580  138.3080 C   0  0  2  0  0  3  0  0  0  0  0  0
  182.3390  177.3860  139.2710 C   0  0  0  0  0  2  0  0  0  0  0  0
  182.1330  178.6010  141.5070 C   0  0  0  0  0  2  0  0  0  0  0  0
  183.6160  178.9210  141.5700 N   0  0  0  0  0  2  0  0  0  0  0  0
  184.6060  178.8850  142.6300 C   0  0  0  0  0  0  0  0  0  0  0  0
  186.0620  179.0820  142.3620 N   0  0  0  0  0  1  0  0  0  0  0  0
  184.3070  178.7410  143.8020 O   0  0  0  0  0  0  0  0  0  0  0  0
  180.2780  178.9450  137.6450 C   0  0  0  0  0  2  0  0  0  0  0  0
  180.9750  180.0940  138.3520 C   0  0  0  0  0  2  0  0  0  0  0  0
  181.2980  181.1090  137.2290 C   0  0  0  0  0  2  0  0  0  0  0  0
  180.2440  182.1000  136.6650 C   0  0  2  0  0  0  0  0  0  0  0  0
  179.5320  181.5330  135.4550 C   0  0  0  0  0  1  0  0  0  0  0  0
  180.9460  183.3580  136.1770 C   0  0  0  0  0  2  0  0  0  0  0  0
  180.7380  183.4670  134.7500 N   0  0  0  0  0  1  0  0  0  0  0  0
  179.0230  183.5910  138.3440 O   0  0  0  0  0  1  0  0  0  0  0  0
  179.2270  182.2850  137.8330 C   0  0  0  0  0  2  0  0  0  0  0  0
  187.1580  176.1740  136.1750 C   0  0  0  0  0  2  0  0  0  0  0  0
  189.6010  176.6600  136.4950 C   0  0  0  0  0  0  0  0  0  0  0  0
  188.6330  175.7590  136.2440 C   0  0  0  0  0  3  0  0  0  0  0  0
  189.2830  178.0970  136.5670 C   0  0  0  0  0  1  0  0  0  0  0  0
  191.0570  176.3670  136.5850 C   0  0  0  0  0  3  0  0  0  0  0  0
  191.8300  176.3810  137.6760 C   0  0  0  0  0  0  0  0  0  0  0  0
  193.2440  175.8500  137.3770 C   0  0  0  0  0  1  0  0  0  0  0  0
  190.9400  177.4960  140.1510 C   0  0  1  0  0  3  0  0  0  0  0  0
  192.2230  177.5180  139.5180 O   0  0  0  0  0  0  0  0  0  0  0  0
  191.4390  176.4920  139.1190 C   0  0  2  0  0  3  0  0  0  0  0  0
  190.9860  176.6940  141.3560 N   0  0  0  0  0  2  0  0  0  0  0  0
  188.5810  177.0380  141.2040 C   0  0  0  0  0  1  0  0  0  0  0  0
  189.7210  176.4660  142.0010 C   0  0  2  0  0  3  0  0  0  0  0  0
  190.3630  176.6750  144.4930 N   0  0  0  0  0  0  0  0  0  0  0  0
  189.6180  177.1270  143.3090 C   0  0  0  0  0  0  0  0  0  0  0  0
  188.9260  178.2060  143.4280 O   0  0  0  0  0  0  0  0  0  0  0  0
  190.2830  177.3440  145.7760 C   0  0  0  0  0  0  0  0  0  0  0  0
  191.6520  177.8280  147.8270 O   0  0  0  0  0  1  0  0  0  0  0  0
  193.1380  175.5850  148.1260 N   0  0  0  0  0  1  0  0  0  0  0  0
  192.2270  175.4150  145.9220 S   0  0  0  0  0  0  0  0  0  0  0  0
  191.3100  176.7920  146.9010 C   0  0  2  0  0  0  0  0  0  0  0  0
  191.7840  175.5400  147.5820 C   0  0  2  0  0  3  0  0  0  0  0  0
  189.4170  178.4270  145.9110 O   0  0  0  0  0  0  0  0  0  0  0  0
  188.4740  178.2280  147.3890 S   0  0  0  0  0  0  0  0  0  0  0  0
  186.3390  178.7690  146.2890 N   0  0  0  0  0  1  0  0  0  0  0  0
  187.1590  177.5660  146.4850 C   0  0  0  0  0  2  0  0  0  0  0  0
  2  1  1  0  0  0  0
  3  2  1  0  0  0  0
  4  5  1  0  0  0  0
  5  1  2  0  0  0  0
  6  7  1  0  0  0  0
  6  4  2  0  0  0  0
  7  3  2  0  0  0  0
  8  9  1  0  0  0  0
  8  7  1  0  0  0  0
  9 10  1  6  0  0  0
  9 11  1  0  0  0  0
 11 12  1  0  0  0  0
 12 24  1  0  0  0  0
 13 19  1  6  0  0  0
 14 16  2  0  0  0  0
 15 13  1  0  0  0  0
 16 15  1  0  0  0  0
 17 12  1  6  0  0  0
 17 16  1  0  0  0  0
 17 18  1  0  0  0  0
 18 13  1  0  0  0  0
 19 20  1  0  0  0  0
 20 21  1  0  0  0  0
 21 23  2  0  0  0  0
 22 21  1  0  0  0  0
 24 25  1  0  0  0  0
 26 25  1  0  0  0  0
 27 28  1  6  0  0  0
 27 26  1  0  0  0  0
 27 32  1  0  0  0  0
 29 27  1  0  0  0  0
 30 29  1  0  0  0  0
 32 31  1  0  0  0  0
 33 35  1  0  0  0  0
 33  4  1  0  0  0  0
 34 36  1  0  0  0  0
 34 37  1  0  0  0  0
 35 34  2  0  0  0  0
 37 38  2  0  0  0  0
 39 38  1  0  0  0  0
 40 43  1  1  0  0  0
 41 40  1  0  0  0  0
 42 38  1  6  0  0  0
 42 41  1  0  0  0  0
 42 40  1  0  0  0  0
 43 45  1  0  0  0  0
 45 44  1  6  0  0  0
 45 47  1  0  0  0  0
 46 49  2  0  0  0  0
 47 48  2  0  0  0  0
 47 46  1  0  0  0  0
 49 55  1  0  0  0  0
 49 53  1  0  0  0  0
 52 53  1  0  0  0  0
 52 54  1  0  0  0  0
 53 54  1  0  0  0  0
 53 50  1  1  0  0  0
 54 51  1  1  0  0  0
 55 56  1  0  0  0  0
 57 58  1  0  0  0  0
 58 56  1  0  0  0  0
M  END
>  <MODEL>
7

>  <REMARK>
 VINA RESULT:      -4.4      3.752     10.906
  Name = 
  25 active torsions:
  status: ('A' for Active; 'I' for Inactive)
    1  A    between atoms: C_2  and  C_30
    2  A    between atoms: C_5  and  C_16
    3  A    between atoms: C_7  and  N_17
    4  A    between atoms: C_7  and  C_57
    5  A    between atoms: C_8  and  C_13
    6  A    between atoms: C_8  and  C_35
    7  A    between atoms: C_9  and  C_21
    8  A    between atoms: C_9  and  C_49
    9  A    between atoms: C_10  and  C_14
   10  A    between atoms: C_11  and  N_34
   11  A    between atoms: C_14  and  C_32
   12  A    between atoms: C_14  and  C_39
   13  A    between atoms: N_17  and  C_21
   14  A    between atoms: N_17  and  C_50
   15  A    between atoms: C_19  and  N_34
   16  A    between atoms: C_19  and  C_38
   17  A    between atoms: C_23  and  N_24
   18  A    between atoms: C_23  and  C_36
   19  A    between atoms: C_23  and  O_43
   20  A    between atoms: N_25  and  C_30
   21  A    between atoms: C_27  and  C_40
   22  A    between atoms: C_32  and  C_57
   23  A    between atoms: O_43  and  S_53
   24  A    between atoms: C_46  and  S_53
   25  A    between atoms: C_49  and  C_56
                            x       y       z     vdW  Elec       q    Type
                         _______ _______ _______ _____ _____    ______ ____

>  <TORSDO>
F 25

$$$$
=
 OpenBabel11032419133D

 58 61  0  0  1  0  0  0  0  0999 V2000
  192.1190  178.3200  143.2350 C   0  0  0  0  0  3  0  0  0  0  0  0
  191.3910  179.1720  143.9420 C   0  0  0  0  0  2  0  0  0  0  0  0
  189.9190  179.2280  144.0850 C   0  0  0  0  0  3  0  0  0  0  0  0
  190.2380  176.9400  141.9460 C   0  0  0  0  0  0  0  0  0  0  0  0
  191.6350  177.0840  142.4750 C   0  0  0  0  0  3  0  0  0  0  0  0
  189.1340  177.4940  142.4400 C   0  0  0  0  0  3  0  0  0  0  0  0
  188.9210  178.5850  143.4450 C   0  0  0  0  0  0  0  0  0  0  0  0
  187.4000  178.9460  143.6060 C   0  0  0  0  0  2  0  0  0  0  0  0
  186.3350  178.1670  142.7910 C   0  0  2  0  0  3  0  0  0  0  0  0
  185.7030  179.1260  141.7680 C   0  0  0  0  0  1  0  0  0  0  0  0
  185.2930  177.5380  143.7540 C   0  0  0  0  0  2  0  0  0  0  0  0
  185.0540  178.3890  144.9320 N   0  0  0  0  0  0  0  0  0  0  0  0
  187.6630  177.1490  146.9660 C   0  0  1  0  0  3  0  0  0  0  0  0
  185.6840  179.9160  147.5120 O   0  0  0  0  0  0  0  0  0  0  0  0
  187.5550  178.5820  147.1630 N   0  0  0  0  0  2  0  0  0  0  0  0
  186.1860  178.8990  146.9760 C   0  0  0  0  0  0  0  0  0  0  0  0
  185.4290  177.8520  146.2300 C   0  0  2  0  0  3  0  0  0  0  0  0
  186.4870  176.7430  146.0870 C   0  0  0  0  0  2  0  0  0  0  0  0
  189.0210  176.8020  146.3930 C   0  0  0  0  0  3  0  0  0  0  0  0
  190.1920  176.7230  147.3560 N   0  0  0  0  0  0  0  0  0  0  0  0
  191.5900  176.3660  147.2090 C   0  0  0  0  0  0  0  0  0  0  0  0
  192.5780  176.5550  148.3120 N   0  0  0  0  0  1  0  0  0  0  0  0
  192.0320  175.8490  146.1970 O   0  0  0  0  0  0  0  0  0  0  0  0
  183.6610  178.8530  144.9510 C   0  0  0  0  0  2  0  0  0  0  0  0
  182.9110  179.0620  143.6480 C   0  0  0  0  0  2  0  0  0  0  0  0
  181.6040  178.2500  143.8100 C   0  0  0  0  0  2  0  0  0  0  0  0
  180.2410  178.7330  143.2450 C   0  0  2  0  0  0  0  0  0  0  0  0
  179.3110  179.1970  144.3460 C   0  0  0  0  0  1  0  0  0  0  0  0
  179.5330  177.5660  142.5730 C   0  0  0  0  0  2  0  0  0  0  0  0
  179.3930  177.8720  141.1660 N   0  0  0  0  0  1  0  0  0  0  0  0
  179.6260  180.9310  142.0950 O   0  0  0  0  0  1  0  0  0  0  0  0
  180.6100  179.9390  142.3270 C   0  0  0  0  0  2  0  0  0  0  0  0
  189.9640  176.0750  140.7260 C   0  0  0  0  0  2  0  0  0  0  0  0
  190.1260  176.5120  138.2590 C   0  0  0  0  0  0  0  0  0  0  0  0
  190.7530  176.2880  139.4290 C   0  0  0  0  0  3  0  0  0  0  0  0
  188.6580  176.4140  138.1670 C   0  0  0  0  0  1  0  0  0  0  0  0
  190.7910  176.7310  136.9460 C   0  0  0  0  0  3  0  0  0  0  0  0
  191.0280  175.8300  135.9870 C   0  0  0  0  0  0  0  0  0  0  0  0
  191.5790  176.4920  134.7100 C   0  0  0  0  0  1  0  0  0  0  0  0
  189.6310  173.5420  135.0020 C   0  0  1  0  0  3  0  0  0  0  0  0
  189.1950  174.6220  135.8310 O   0  0  0  0  0  0  0  0  0  0  0  0
  190.5320  174.4210  135.8600 C   0  0  2  0  0  3  0  0  0  0  0  0
  189.6580  172.3060  135.7560 N   0  0  0  0  0  2  0  0  0  0  0  0
  187.8580  170.9910  134.7790 C   0  0  0  0  0  1  0  0  0  0  0  0
  188.3770  171.6970  136.0000 C   0  0  2  0  0  3  0  0  0  0  0  0
  186.2550  173.0370  135.3970 N   0  0  0  0  0  2  0  0  0  0  0  0
  187.3320  172.6750  136.3290 C   0  0  0  0  0  0  0  0  0  0  0  0
  187.2800  173.1830  137.5110 O   0  0  0  0  0  0  0  0  0  0  0  0
  185.2080  173.9820  135.7320 C   0  0  1  0  0  3  0  0  0  0  0  0
  186.6910  175.6620  134.5940 O   0  0  0  0  0  1  0  0  0  0  0  0
  186.0360  177.9910  135.8070 N   0  0  0  0  0  1  0  0  0  0  0  0
  185.0730  176.2990  137.1940 S   0  0  0  0  0  0  0  0  0  0  0  0
  185.5960  175.5390  135.5080 C   0  0  2  0  0  0  0  0  0  0  0  0
  185.0500  176.9360  135.5940 C   0  0  2  0  0  3  0  0  0  0  0  0
  183.9670  173.4900  136.1280 O   0  0  0  0  0  0  0  0  0  0  0  0
  182.7510  173.9880  134.9500 S   0  0  0  0  0  0  0  0  0  0  0  0
  181.9950  171.8570  135.9250 N   0  0  0  0  0  1  0  0  0  0  0  0
  182.3900  172.3350  134.5940 C   0  0  0  0  0  2  0  0  0  0  0  0
  1  2  1  0  0  0  0
  2  3  1  0  0  0  0
  4  6  2  0  0  0  0
  4  5  1  0  0  0  0
  5  1  2  0  0  0  0
  6  7  1  0  0  0  0
  7  8  1  0  0  0  0
  7  3  2  0  0  0  0
  9 10  1  6  0  0  0
  9  8  1  0  0  0  0
  9 11  1  0  0  0  0
 11 12  1  0  0  0  0
 12 24  1  0  0  0  0
 13 19  1  6  0  0  0
 13 15  1  0  0  0  0
 16 15  1  0  0  0  0
 16 14  2  0  0  0  0
 17 12  1  6  0  0  0
 17 16  1  0  0  0  0
 18 17  1  0  0  0  0
 18 13  1  0  0  0  0
 19 20  2  0  0  0  0
 21 20  1  0  0  0  0
 21 22  1  0  0  0  0
 23 21  2  0  0  0  0
 25 26  1  0  0  0  0
 25 24  1  0  0  0  0
 27 26  1  0  0  0  0
 27 28  1  1  0  0  0
 29 27  1  0  0  0  0
 30 29  1  0  0  0  0
 31 32  1  0  0  0  0
 32 27  1  0  0  0  0
 33  4  1  0  0  0  0
 34 35  2  0  0  0  0
 35 33  1  0  0  0  0
 36 34  1  0  0  0  0
 37 34  1  0  0  0  0
 38 37  2  0  0  0  0
 39 38  1  0  0  0  0
 40 43  1  1  0  0  0
 40 41  1  0  0  0  0
 40 42  1  0  0  0  0
 41 42  1  0  0  0  0
 42 38  1  6  0  0  0
 43 45  1  0  0  0  0
 45 44  1  6  0  0  0
 45 47  1  0  0  0  0
 46 47  1  0  0  0  0
 47 48  2  0  0  0  0
 49 46  1  6  0  0  0
 49 55  1  0  0  0  0
 53 50  1  6  0  0  0
 53 54  1  0  0  0  0
 53 49  1  0  0  0  0
 53 52  1  0  0  0  0
 54 51  1  1  0  0  0
 54 52  1  0  0  0  0
 56 55  1  0  0  0  0
 58 56  1  0  0  0  0
 58 57  1  0  0  0  0
M  END
>  <MODEL>
8

>  <REMARK>
 VINA RESULT:      -4.3      2.965      7.673
  Name = 
  25 active torsions:
  status: ('A' for Active; 'I' for Inactive)
    1  A    between atoms: C_2  and  C_30
    2  A    between atoms: C_5  and  C_16
    3  A    between atoms: C_7  and  N_17
    4  A    between atoms: C_7  and  C_57
    5  A    between atoms: C_8  and  C_13
    6  A    between atoms: C_8  and  C_35
    7  A    between atoms: C_9  and  C_21
    8  A    between atoms: C_9  and  C_49
    9  A    between atoms: C_10  and  C_14
   10  A    between atoms: C_11  and  N_34
   11  A    between atoms: C_14  and  C_32
   12  A    between atoms: C_14  and  C_39
   13  A    between atoms: N_17  and  C_21
   14  A    between atoms: N_17  and  C_50
   15  A    between atoms: C_19  and  N_34
   16  A    between atoms: C_19  and  C_38
   17  A    between atoms: C_23  and  N_24
   18  A    between atoms: C_23  and  C_36
   19  A    between atoms: C_23  and  O_43
   20  A    between atoms: N_25  and  C_30
   21  A    between atoms: C_27  and  C_40
   22  A    between atoms: C_32  and  C_57
   23  A    between atoms: O_43  and  S_53
   24  A    between atoms: C_46  and  S_53
   25  A    between atoms: C_49  and  C_56
                            x       y       z     vdW  Elec       q    Type
                         _______ _______ _______ _____ _____    ______ ____

>  <TORSDO>
F 25

$$$$
=
 OpenBabel11032419133D

 58 61  0  0  1  0  0  0  0  0999 V2000
  191.4140  176.5140  143.7380 C   0  0  0  0  0  3  0  0  0  0  0  0
  190.1050  176.5500  143.9430 C   0  0  0  0  0  2  0  0  0  0  0  0
  189.0210  176.7220  142.9500 C   0  0  0  0  0  3  0  0  0  0  0  0
  191.5720  177.1030  141.1440 C   0  0  0  0  0  0  0  0  0  0  0  0
  192.1500  176.5150  142.3980 C   0  0  0  0  0  3  0  0  0  0  0  0
  190.2840  177.2080  140.8290 C   0  0  0  0  0  3  0  0  0  0  0  0
  189.0350  177.0490  141.6410 C   0  0  0  0  0  0  0  0  0  0  0  0
  187.7460  177.3870  140.8090 C   0  0  0  0  0  2  0  0  0  0  0  0
  186.5420  178.0760  141.5030 C   0  0  2  0  0  3  0  0  0  0  0  0
  186.2540  179.4030  140.7800 C   0  0  0  0  0  1  0  0  0  0  0  0
  186.8420  178.2630  143.0130 C   0  0  0  0  0  2  0  0  0  0  0  0
  185.6420  178.0490  143.8390 N   0  0  0  0  0  0  0  0  0  0  0  0
  182.3880  179.2450  143.1560 C   0  0  1  0  0  3  0  0  0  0  0  0
  183.8780  178.7970  146.2300 O   0  0  0  0  0  0  0  0  0  0  0  0
  182.3890  178.6030  144.4560 N   0  0  0  0  0  2  0  0  0  0  0  0
  183.6860  178.8050  144.9900 C   0  0  0  0  0  0  0  0  0  0  0  0
  184.7070  179.1560  143.9600 C   0  0  2  0  0  3  0  0  0  0  0  0
  183.8400  179.2890  142.6950 C   0  0  0  0  0  2  0  0  0  0  0  0
  181.4550  178.5150  142.2130 C   0  0  0  0  0  2  0  0  0  0  0  0
  180.3730  179.3280  141.5250 N   0  0  0  0  0  2  0  0  0  0  0  0
  180.2060  179.8370  140.1770 C   0  0  0  0  0  0  0  0  0  0  0  0
  178.9310  180.4640  139.7180 N   0  0  0  0  0  1  0  0  0  0  0  0
  181.1070  179.8280  139.3560 O   0  0  0  0  0  0  0  0  0  0  0  0
  186.0210  177.5500  145.1680 C   0  0  0  0  0  2  0  0  0  0  0  0
  187.0540  178.2960  145.9930 C   0  0  0  0  0  2  0  0  0  0  0  0
  188.0580  177.2070  146.4430 C   0  0  0  0  0  2  0  0  0  0  0  0
  189.3550  177.5370  147.2290 C   0  0  2  0  0  0  0  0  0  0  0  0
  190.2730  178.4460  146.4390 C   0  0  0  0  0  1  0  0  0  0  0  0
  190.1450  176.2560  147.4590 C   0  0  0  0  0  2  0  0  0  0  0  0
  191.5450  176.6000  147.5630 N   0  0  0  0  0  1  0  0  0  0  0  0
  187.9260  177.6150  149.3460 O   0  0  0  0  0  1  0  0  0  0  0  0
  188.8550  178.2780  148.5070 C   0  0  0  0  0  2  0  0  0  0  0  0
  192.4860  177.6470  140.0580 C   0  0  0  0  0  2  0  0  0  0  0  0
  192.4020  176.5420  137.8050 C   0  0  0  0  0  0  0  0  0  0  0  0
  193.0450  176.7180  138.9740 C   0  0  0  0  0  3  0  0  0  0  0  0
  191.0660  177.1280  137.5920 C   0  0  0  0  0  1  0  0  0  0  0  0
  192.8530  175.6690  136.6890 C   0  0  0  0  0  3  0  0  0  0  0  0
  192.1430  174.7450  136.0320 C   0  0  0  0  0  0  0  0  0  0  0  0
  192.9190  174.1820  134.8270 C   0  0  0  0  0  1  0  0  0  0  0  0
  189.5150  174.3010  137.0600 C   0  0  1  0  0  3  0  0  0  0  0  0
  190.6390  173.4250  136.9460 O   0  0  0  0  0  0  0  0  0  0  0  0
  190.6710  174.4630  136.0810 C   0  0  2  0  0  3  0  0  0  0  0  0
  188.4560  173.8830  136.1650 N   0  0  0  0  0  2  0  0  0  0  0  0
  187.7980  171.5410  136.2430 C   0  0  0  0  0  1  0  0  0  0  0  0
  187.5150  172.9420  136.7100 C   0  0  2  0  0  3  0  0  0  0  0  0
  184.9830  173.1050  137.1870 N   0  0  0  0  0  2  0  0  0  0  0  0
  186.1340  173.1980  136.2790 C   0  0  0  0  0  0  0  0  0  0  0  0
  185.9050  173.6140  135.0820 O   0  0  0  0  0  0  0  0  0  0  0  0
  183.6240  173.3850  136.7670 C   0  0  1  0  0  3  0  0  0  0  0  0
  183.4240  170.8810  136.8340 O   0  0  0  0  0  1  0  0  0  0  0  0
  181.0340  170.4160  135.6540 N   0  0  0  0  0  1  0  0  0  0  0  0
  181.5240  172.6990  135.1410 S   0  0  0  0  0  0  0  0  0  0  0  0
  182.6990  172.0760  136.5290 C   0  0  2  0  0  0  0  0  0  0  0  0
  181.2720  171.6130  136.4550 C   0  0  2  0  0  3  0  0  0  0  0  0
  183.2110  174.7130  136.6850 O   0  0  0  0  0  0  0  0  0  0  0  0
  183.3280  175.4510  138.2840 S   0  0  0  0  0  0  0  0  0  0  0  0
  183.1740  177.8120  137.6060 N   0  0  0  0  0  1  0  0  0  0  0  0
  182.2350  176.7020  137.8090 C   0  0  0  0  0  2  0  0  0  0  0  0
  1  2  1  0  0  0  0
  3  2  1  0  0  0  0
  4  5  1  0  0  0  0
  5  1  2  0  0  0  0
  6  4  2  0  0  0  0
  6  7  1  0  0  0  0
  7  3  2  0  0  0  0
  8  9  1  0  0  0  0
  8  7  1  0  0  0  0
  9 10  1  6  0  0  0
  9 11  1  0  0  0  0
 11 12  1  0  0  0  0
 12 24  1  0  0  0  0
 13 19  1  6  0  0  0
 13 15  1  0  0  0  0
 15 16  1  0  0  0  0
 16 14  2  0  0  0  0
 17 12  1  6  0  0  0
 17 16  1  0  0  0  0
 18 13  1  0  0  0  0
 18 17  1  0  0  0  0
 20 19  1  0  0  0  0
 21 20  1  0  0  0  0
 22 21  1  0  0  0  0
 23 21  2  0  0  0  0
 24 25  1  0  0  0  0
 25 26  1  0  0  0  0
 26 27  1  0  0  0  0
 27 28  1  6  0  0  0
 27 29  1  0  0  0  0
 27 32  1  0  0  0  0
 29 30  1  0  0  0  0
 32 31  1  0  0  0  0
 33  4  1  0  0  0  0
 34 35  2  0  0  0  0
 35 33  1  0  0  0  0
 36 34  1  0  0  0  0
 37 34  1  0  0  0  0
 38 37  2  0  0  0  0
 39 38  1  0  0  0  0
 40 43  1  6  0  0  0
 41 40  1  0  0  0  0
 42 38  1  1  0  0  0
 42 41  1  0  0  0  0
 42 40  1  0  0  0  0
 43 45  1  0  0  0  0
 45 44  1  6  0  0  0
 47 45  1  0  0  0  0
 47 46  1  0  0  0  0
 48 47  2  0  0  0  0
 49 55  1  1  0  0  0
 49 46  1  0  0  0  0
 52 54  1  0  0  0  0
 52 53  1  0  0  0  0
 53 49  1  0  0  0  0
 53 50  1  6  0  0  0
 54 51  1  6  0  0  0
 54 53  1  0  0  0  0
 55 56  1  0  0  0  0
 57 58  1  0  0  0  0
 58 56  1  0  0  0  0
M  END
>  <MODEL>
9

>  <REMARK>
 VINA RESULT:      -4.2      2.740      8.470
  Name = 
  25 active torsions:
  status: ('A' for Active; 'I' for Inactive)
    1  A    between atoms: C_2  and  C_30
    2  A    between atoms: C_5  and  C_16
    3  A    between atoms: C_7  and  N_17
    4  A    between atoms: C_7  and  C_57
    5  A    between atoms: C_8  and  C_13
    6  A    between atoms: C_8  and  C_35
    7  A    between atoms: C_9  and  C_21
    8  A    between atoms: C_9  and  C_49
    9  A    between atoms: C_10  and  C_14
   10  A    between atoms: C_11  and  N_34
   11  A    between atoms: C_14  and  C_32
   12  A    between atoms: C_14  and  C_39
   13  A    between atoms: N_17  and  C_21
   14  A    between atoms: N_17  and  C_50
   15  A    between atoms: C_19  and  N_34
   16  A    between atoms: C_19  and  C_38
   17  A    between atoms: C_23  and  N_24
   18  A    between atoms: C_23  and  C_36
   19  A    between atoms: C_23  and  O_43
   20  A    between atoms: N_25  and  C_30
   21  A    between atoms: C_27  and  C_40
   22  A    between atoms: C_32  and  C_57
   23  A    between atoms: O_43  and  S_53
   24  A    between atoms: C_46  and  S_53
   25  A    between atoms: C_49  and  C_56
                            x       y       z     vdW  Elec       q    Type
                         _______ _______ _______ _____ _____    ______ ____

>  <TORSDO>
F 25

$$$$
