=
 OpenBabel11042409513D

 33 34  0  0  1  0  0  0  0  0999 V2000
  183.6990  178.4560  142.2010 C   0  0  0  0  0  0  0  0  0  0  0  0
  184.0850  179.1140  145.6050 N   0  0  0  0  0  2  0  0  0  0  0  0
  182.2920  179.0660  144.0330 N   0  0  0  0  0  2  0  0  0  0  0  0
  181.3060  178.6190  141.9330 O   0  0  0  0  0  0  0  0  0  0  0  0
  184.4970  178.6310  143.2440 C   0  0  0  0  0  0  0  0  0  0  0  0
  183.6730  179.0350  144.3840 C   0  0  0  0  0  0  0  0  0  0  0  0
  182.3340  178.7100  142.6540 C   0  0  0  0  0  0  0  0  0  0  0  0
  184.1080  177.9770  140.8480 C   0  0  0  0  0  2  0  0  0  0  0  0
  184.2320  179.1560  139.8980 C   0  0  0  0  0  2  0  0  0  0  0  0
  185.4560  178.2090  137.8870 C   0  0  0  0  0  0  0  0  0  0  0  0
  184.4310  177.5040  137.5370 N   0  0  0  0  0  2  0  0  0  0  0  0
  185.4230  179.0090  139.0720 N   0  0  0  0  0  2  0  0  0  0  0  0
  186.7320  178.0700  137.1350 C   0  0  0  0  0  2  0  0  0  0  0  0
  187.8260  178.6010  137.9290 N   0  0  0  0  0  2  0  0  0  0  0  0
  188.2730  177.5330  138.8120 C   0  0  0  0  0  2  0  0  0  0  0  0
  189.2100  178.0620  139.8960 C   0  0  1  0  0  3  0  0  0  0  0  0
  188.5010  178.3720  141.0580 O   0  0  0  0  0  1  0  0  0  0  0  0
  190.5450  176.8820  140.2710 P   0  0  0  0  0  0  0  0  0  0  0  0
  192.0050  177.7170  140.4480 O   0  0  0  0  0  1  0  0  0  0  0  0
  190.1870  176.0740  141.7130 O   0  0  0  0  0  1  0  0  0  0  0  0
  190.6750  175.8730  139.1540 O   0  0  0  0  0  0  0  0  0  0  0  0
  185.9100  178.4170  143.2320 N   0  0  0  0  0  2  0  0  0  0  0  0
  186.4940  177.3420  143.9150 N   0  0  0  0  0  2  0  0  0  0  0  0
  188.2410  177.6270  147.2520 C   0  0  0  0  0  2  0  0  0  0  0  0
  187.5020  177.5530  144.9010 C   0  0  0  0  0  0  0  0  0  0  0  0
  190.4330  176.7340  147.6930 N   0  0  0  0  0  0  0  0  0  0  0  0
  187.2070  177.3800  146.1900 C   0  0  0  0  0  3  0  0  0  0  0  0
  188.8870  177.9890  144.5070 C   0  0  0  0  0  2  0  0  0  0  0  0
  189.9540  177.2510  145.3260 C   0  0  0  0  0  2  0  0  0  0  0  0
  189.5970  177.1640  146.7940 C   0  0  0  0  0  0  0  0  0  0  0  0
  192.6920  176.6610  148.2390 O   0  0  0  0  0  1  0  0  0  0  0  0
  192.0760  175.3580  146.4670 O   0  0  0  0  0  0  0  0  0  0  0  0
  191.7710  176.2570  147.4830 C   0  0  0  0  0  0  0  0  0  0  0  0
  1  7  1  0  0  0  0
  1  5  2  0  0  0  0
  3  6  1  0  0  0  0
  4  7  2  0  0  0  0
  5  6  1  0  0  0  0
  6  2  2  0  0  0  0
  7  3  1  0  0  0  0
  8  1  1  0  0  0  0
  9  8  1  0  0  0  0
 10 12  1  0  0  0  0
 11 10  2  0  0  0  0
 12  9  1  0  0  0  0
 13 10  1  0  0  0  0
 13 14  1  0  0  0  0
 14 15  1  0  0  0  0
 15 16  1  0  0  0  0
 16 18  1  0  0  0  0
 16 17  1  1  0  0  0
 18 19  1  0  0  0  0
 18 20  1  0  0  0  0
 21 18  2  0  0  0  0
 22  5  1  0  0  0  0
 22 23  1  0  0  0  0
 23 25  1  0  0  0  0
 25 27  2  0  0  0  0
 27 24  1  0  0  0  0
 28 25  1  0  0  0  0
 28 29  1  0  0  0  0
 29 30  1  0  0  0  0
 30 24  1  0  0  0  0
 30 26  2  0  0  0  0
 32 33  2  0  0  0  0
 33 26  1  0  0  0  0
 33 31  1  0  0  0  0
M  END
>  <MODEL>
1

>  <REMARK>
 VINA RESULT:      -8.2      0.000      0.000
  Name = 
  12 active torsions:
  status: ('A' for Active; 'I' for Inactive)
    1  A    between atoms: C_2  and  N_3
    2  A    between atoms: C_2  and  C_12
    3  A    between atoms: N_3  and  C_18
    4  A    between atoms: C_5  and  N_25
    5  A    between atoms: C_6  and  C_8
    6  A    between atoms: C_7  and  P_9
    7  A    between atoms: C_7  and  C_18
    8  A    between atoms: C_8  and  C_17
    9  A    between atoms: N_11  and  C_31
   10  A    between atoms: C_17  and  N_28
   11  A    between atoms: C_24  and  N_26
   12  A    between atoms: N_25  and  N_26
                            x       y       z     vdW  Elec       q    Type
                         _______ _______ _______ _____ _____    ______ ____

>  <TORSDO>
F 12

$$$$
=
 OpenBabel11042409513D

 33 34  0  0  1  0  0  0  0  0999 V2000
  189.1660  177.1040  145.7400 C   0  0  0  0  0  0  0  0  0  0  0  0
  188.2130  178.0530  148.9590 N   0  0  0  0  0  2  0  0  0  0  0  0
  190.2420  177.4880  147.8380 N   0  0  0  0  0  2  0  0  0  0  0  0
  191.5680  176.9870  145.9470 O   0  0  0  0  0  0  0  0  0  0  0  0
  188.2040  177.3760  146.6090 C   0  0  0  0  0  0  0  0  0  0  0  0
  188.8230  177.5900  147.9190 C   0  0  0  0  0  0  0  0  0  0  0  0
  190.4330  177.1710  146.4620 C   0  0  0  0  0  0  0  0  0  0  0  0
  188.9930  176.8850  144.2740 C   0  0  0  0  0  2  0  0  0  0  0  0
  189.3990  178.1350  143.5120 C   0  0  0  0  0  2  0  0  0  0  0  0
  190.8410  177.2900  141.6020 C   0  0  0  0  0  0  0  0  0  0  0  0
  191.8650  177.1470  142.3780 N   0  0  0  0  0  2  0  0  0  0  0  0
  189.6100  177.8170  142.1070 N   0  0  0  0  0  2  0  0  0  0  0  0
  190.9870  177.0470  140.1420 C   0  0  0  0  0  2  0  0  0  0  0  0
  190.0180  177.8490  139.4160 N   0  0  0  0  0  2  0  0  0  0  0  0
  189.1420  176.9260  138.7080 C   0  0  0  0  0  2  0  0  0  0  0  0
  187.7650  177.5410  138.4660 C   0  0  1  0  0  3  0  0  0  0  0  0
  187.5170  178.5750  139.3700 O   0  0  0  0  0  1  0  0  0  0  0  0
  187.5860  178.1440  136.7560 P   0  0  0  0  0  0  0  0  0  0  0  0
  186.1100  177.6140  136.1220 O   0  0  0  0  0  1  0  0  0  0  0  0
  187.6190  179.8350  136.7550 O   0  0  0  0  0  1  0  0  0  0  0  0
  188.7170  177.6230  135.9010 O   0  0  0  0  0  0  0  0  0  0  0  0
  186.8160  177.4720  146.2840 N   0  0  0  0  0  2  0  0  0  0  0  0
  186.2990  178.5790  145.6000 N   0  0  0  0  0  2  0  0  0  0  0  0
  183.3190  178.8670  143.2970 C   0  0  0  0  0  2  0  0  0  0  0  0
  185.4360  178.4160  144.4760 C   0  0  0  0  0  0  0  0  0  0  0  0
  183.4950  179.2320  140.9230 N   0  0  0  0  0  0  0  0  0  0  0  0
  184.2610  179.0460  144.4530 C   0  0  0  0  0  3  0  0  0  0  0  0
  185.8260  177.5280  143.3270 C   0  0  0  0  0  2  0  0  0  0  0  0
  185.4560  178.1660  141.9820 C   0  0  0  0  0  2  0  0  0  0  0  0
  184.0750  178.7880  142.0000 C   0  0  0  0  0  0  0  0  0  0  0  0
  184.3840  180.3400  139.0830 O   0  0  0  0  0  1  0  0  0  0  0  0
  184.1490  178.0810  138.8400 O   0  0  0  0  0  0  0  0  0  0  0  0
  184.0240  179.2460  139.5880 C   0  0  0  0  0  0  0  0  0  0  0  0
  1  7  1  0  0  0  0
  1  5  2  0  0  0  0
  3  6  1  0  0  0  0
  4  7  2  0  0  0  0
  5  6  1  0  0  0  0
  6  2  2  0  0  0  0
  7  3  1  0  0  0  0
  8  1  1  0  0  0  0
  9  8  1  0  0  0  0
 10 12  1  0  0  0  0
 10 11  2  0  0  0  0
 12  9  1  0  0  0  0
 13 10  1  0  0  0  0
 14 13  1  0  0  0  0
 15 14  1  0  0  0  0
 16 15  1  0  0  0  0
 16 17  1  1  0  0  0
 18 16  1  0  0  0  0
 19 18  1  0  0  0  0
 20 18  1  0  0  0  0
 21 18  2  0  0  0  0
 22  5  1  0  0  0  0
 23 22  1  0  0  0  0
 24 27  1  0  0  0  0
 25 23  1  0  0  0  0
 26 30  2  0  0  0  0
 27 25  2  0  0  0  0
 28 25  1  0  0  0  0
 29 30  1  0  0  0  0
 29 28  1  0  0  0  0
 30 24  1  0  0  0  0
 31 33  1  0  0  0  0
 32 33  2  0  0  0  0
 33 26  1  0  0  0  0
M  END
>  <MODEL>
2

>  <REMARK>
 VINA RESULT:      -8.2      2.713      6.837
  Name = 
  12 active torsions:
  status: ('A' for Active; 'I' for Inactive)
    1  A    between atoms: C_2  and  N_3
    2  A    between atoms: C_2  and  C_12
    3  A    between atoms: N_3  and  C_18
    4  A    between atoms: C_5  and  N_25
    5  A    between atoms: C_6  and  C_8
    6  A    between atoms: C_7  and  P_9
    7  A    between atoms: C_7  and  C_18
    8  A    between atoms: C_8  and  C_17
    9  A    between atoms: N_11  and  C_31
   10  A    between atoms: C_17  and  N_28
   11  A    between atoms: C_24  and  N_26
   12  A    between atoms: N_25  and  N_26
                            x       y       z     vdW  Elec       q    Type
                         _______ _______ _______ _____ _____    ______ ____

>  <TORSDO>
F 12

$$$$
=
 OpenBabel11042409513D

 33 34  0  0  1  0  0  0  0  0999 V2000
  189.5250  177.4200  145.4560 C   0  0  0  0  0  0  0  0  0  0  0  0
  188.2780  177.6720  148.7040 N   0  0  0  0  0  2  0  0  0  0  0  0
  190.3150  176.9860  147.6690 N   0  0  0  0  0  2  0  0  0  0  0  0
  191.8010  176.7190  145.8520 O   0  0  0  0  0  0  0  0  0  0  0  0
  188.5080  177.6600  146.2700 C   0  0  0  0  0  0  0  0  0  0  0  0
  188.9450  177.3760  147.6380 C   0  0  0  0  0  0  0  0  0  0  0  0
  190.6550  177.0090  146.2860 C   0  0  0  0  0  0  0  0  0  0  0  0
  189.5450  177.6390  143.9810 C   0  0  0  0  0  2  0  0  0  0  0  0
  189.4770  176.3050  143.2580 C   0  0  0  0  0  2  0  0  0  0  0  0
  189.9240  177.0530  140.8750 C   0  0  0  0  0  0  0  0  0  0  0  0
  188.7730  177.6350  140.7920 N   0  0  0  0  0  2  0  0  0  0  0  0
  190.3020  176.3440  142.0580 N   0  0  0  0  0  2  0  0  0  0  0  0
  190.8020  176.9930  139.6750 C   0  0  0  0  0  2  0  0  0  0  0  0
  190.2590  176.0410  138.7220 N   0  0  0  0  0  2  0  0  0  0  0  0
  190.1190  176.7370  137.4510 C   0  0  0  0  0  2  0  0  0  0  0  0
  188.6780  176.6940  136.9480 C   0  0  1  0  0  3  0  0  0  0  0  0
  187.9280  175.7650  137.6710 O   0  0  0  0  0  1  0  0  0  0  0  0
  187.8870  178.3330  137.0200 P   0  0  0  0  0  0  0  0  0  0  0  0
  187.0880  178.6400  135.5610 O   0  0  0  0  0  0  0  0  0  0  0  0
  186.7660  178.3560  138.2860 O   0  0  0  0  0  1  0  0  0  0  0  0
  188.9280  179.4010  137.2580 O   0  0  0  0  0  1  0  0  0  0  0  0
  187.2300  178.1450  145.8540 N   0  0  0  0  0  2  0  0  0  0  0  0
  186.5020  177.5140  144.8370 N   0  0  0  0  0  2  0  0  0  0  0  0
  184.2590  178.7000  142.0390 C   0  0  0  0  0  2  0  0  0  0  0  0
  185.4800  178.2060  144.1230 C   0  0  0  0  0  0  0  0  0  0  0  0
  181.8730  178.9440  142.2510 N   0  0  0  0  0  0  0  0  0  0  0  0
  185.3070  177.9630  142.8230 C   0  0  0  0  0  3  0  0  0  0  0  0
  184.6080  179.2200  144.8120 C   0  0  0  0  0  2  0  0  0  0  0  0
  183.1470  179.0920  144.3620 C   0  0  0  0  0  2  0  0  0  0  0  0
  183.0190  178.9040  142.8650 C   0  0  0  0  0  0  0  0  0  0  0  0
  180.1190  180.3020  142.9450 O   0  0  0  0  0  0  0  0  0  0  0  0
  179.8100  178.0630  143.2800 O   0  0  0  0  0  1  0  0  0  0  0  0
  180.5750  179.1350  142.8350 C   0  0  0  0  0  0  0  0  0  0  0  0
  1  5  2  0  0  0  0
  1  7  1  0  0  0  0
  4  7  2  0  0  0  0
  5  6  1  0  0  0  0
  6  3  1  0  0  0  0
  6  2  2  0  0  0  0
  7  3  1  0  0  0  0
  8  1  1  0  0  0  0
  9  8  1  0  0  0  0
 10 12  1  0  0  0  0
 11 10  2  0  0  0  0
 12  9  1  0  0  0  0
 13 10  1  0  0  0  0
 14 13  1  0  0  0  0
 15 14  1  0  0  0  0
 16 18  1  0  0  0  0
 16 15  1  0  0  0  0
 16 17  1  1  0  0  0
 18 21  1  0  0  0  0
 18 20  1  0  0  0  0
 19 18  2  0  0  0  0
 22  5  1  0  0  0  0
 23 22  1  0  0  0  0
 24 27  1  0  0  0  0
 24 30  1  0  0  0  0
 25 28  1  0  0  0  0
 25 23  1  0  0  0  0
 26 33  1  0  0  0  0
 26 30  2  0  0  0  0
 27 25  2  0  0  0  0
 29 28  1  0  0  0  0
 30 29  1  0  0  0  0
 33 31  2  0  0  0  0
 33 32  1  0  0  0  0
M  END
>  <MODEL>
3

>  <REMARK>
 VINA RESULT:      -8.1      2.552      7.072
  Name = 
  12 active torsions:
  status: ('A' for Active; 'I' for Inactive)
    1  A    between atoms: C_2  and  N_3
    2  A    between atoms: C_2  and  C_12
    3  A    between atoms: N_3  and  C_18
    4  A    between atoms: C_5  and  N_25
    5  A    between atoms: C_6  and  C_8
    6  A    between atoms: C_7  and  P_9
    7  A    between atoms: C_7  and  C_18
    8  A    between atoms: C_8  and  C_17
    9  A    between atoms: N_11  and  C_31
   10  A    between atoms: C_17  and  N_28
   11  A    between atoms: C_24  and  N_26
   12  A    between atoms: N_25  and  N_26
                            x       y       z     vdW  Elec       q    Type
                         _______ _______ _______ _____ _____    ______ ____

>  <TORSDO>
F 12

$$$$
=
 OpenBabel11042409513D

 33 34  0  0  1  0  0  0  0  0999 V2000
  187.9170  177.4500  146.4720 C   0  0  0  0  0  0  0  0  0  0  0  0
  191.2850  176.7980  145.8330 N   0  0  0  0  0  2  0  0  0  0  0  0
  189.9700  177.5060  147.6930 N   0  0  0  0  0  2  0  0  0  0  0  0
  187.9480  177.9480  148.8340 O   0  0  0  0  0  0  0  0  0  0  0  0
  188.8760  177.1540  145.6070 C   0  0  0  0  0  0  0  0  0  0  0  0
  190.1570  177.2070  146.3130 C   0  0  0  0  0  0  0  0  0  0  0  0
  188.5560  177.6660  147.7680 C   0  0  0  0  0  0  0  0  0  0  0  0
  186.4510  177.4480  146.1980 C   0  0  0  0  0  2  0  0  0  0  0  0
  186.0000  178.8390  145.7850 C   0  0  0  0  0  2  0  0  0  0  0  0
  184.0950  178.9580  144.1130 C   0  0  0  0  0  0  0  0  0  0  0  0
  183.2120  179.0410  145.0550 N   0  0  0  0  0  2  0  0  0  0  0  0
  185.4830  178.8130  144.4240 N   0  0  0  0  0  2  0  0  0  0  0  0
  183.6480  178.8640  142.6980 C   0  0  0  0  0  2  0  0  0  0  0  0
  184.5930  178.0600  141.9420 N   0  0  0  0  0  2  0  0  0  0  0  0
  185.0800  178.8860  140.8470 C   0  0  0  0  0  2  0  0  0  0  0  0
  183.9650  179.2090  139.8550 C   0  0  1  0  0  3  0  0  0  0  0  0
  184.2500  180.3810  139.1520 O   0  0  0  0  0  1  0  0  0  0  0  0
  183.6730  177.8360  138.6950 P   0  0  0  0  0  0  0  0  0  0  0  0
  182.6310  178.3460  137.4650 O   0  0  0  0  0  0  0  0  0  0  0  0
  185.1460  177.3570  138.0150 O   0  0  0  0  0  1  0  0  0  0  0  0
  183.0560  176.6650  139.4230 O   0  0  0  0  0  1  0  0  0  0  0  0
  188.6580  176.8120  144.2370 N   0  0  0  0  0  2  0  0  0  0  0  0
  188.5280  177.7950  143.2480 N   0  0  0  0  0  2  0  0  0  0  0  0
  191.4670  177.4410  140.9020 C   0  0  0  0  0  2  0  0  0  0  0  0
  189.3120  177.7540  142.0580 C   0  0  0  0  0  0  0  0  0  0  0  0
  191.3790  176.2320  138.8220 N   0  0  0  0  0  0  0  0  0  0  0  0
  190.6110  177.4600  142.1360 C   0  0  0  0  0  3  0  0  0  0  0  0
  188.6980  178.0570  140.7180 C   0  0  0  0  0  2  0  0  0  0  0  0
  189.2140  177.0950  139.6410 C   0  0  0  0  0  2  0  0  0  0  0  0
  190.7090  176.8720  139.7350 C   0  0  0  0  0  0  0  0  0  0  0  0
  190.9280  176.2480  136.5410 O   0  0  0  0  0  0  0  0  0  0  0  0
  190.3000  174.3490  137.6450 O   0  0  0  0  0  1  0  0  0  0  0  0
  190.8650  175.6200  137.6290 C   0  0  0  0  0  0  0  0  0  0  0  0
  1  7  1  0  0  0  0
  2  6  2  0  0  0  0
  3  7  1  0  0  0  0
  5  6  1  0  0  0  0
  5  1  2  0  0  0  0
  6  3  1  0  0  0  0
  7  4  2  0  0  0  0
  8  1  1  0  0  0  0
  9  8  1  0  0  0  0
 10 12  1  0  0  0  0
 10 11  2  0  0  0  0
 12  9  1  0  0  0  0
 13 10  1  0  0  0  0
 14 13  1  0  0  0  0
 15 14  1  0  0  0  0
 16 17  1  6  0  0  0
 16 15  1  0  0  0  0
 18 21  1  0  0  0  0
 18 16  1  0  0  0  0
 19 18  2  0  0  0  0
 20 18  1  0  0  0  0
 22  5  1  0  0  0  0
 23 22  1  0  0  0  0
 24 27  1  0  0  0  0
 25 27  2  0  0  0  0
 25 23  1  0  0  0  0
 26 30  2  0  0  0  0
 28 25  1  0  0  0  0
 29 30  1  0  0  0  0
 29 28  1  0  0  0  0
 30 24  1  0  0  0  0
 31 33  2  0  0  0  0
 33 32  1  0  0  0  0
 33 26  1  0  0  0  0
M  END
>  <MODEL>
4

>  <REMARK>
 VINA RESULT:      -7.9      2.913      6.956
  Name = 
  12 active torsions:
  status: ('A' for Active; 'I' for Inactive)
    1  A    between atoms: C_2  and  N_3
    2  A    between atoms: C_2  and  C_12
    3  A    between atoms: N_3  and  C_18
    4  A    between atoms: C_5  and  N_25
    5  A    between atoms: C_6  and  C_8
    6  A    between atoms: C_7  and  P_9
    7  A    between atoms: C_7  and  C_18
    8  A    between atoms: C_8  and  C_17
    9  A    between atoms: N_11  and  C_31
   10  A    between atoms: C_17  and  N_28
   11  A    between atoms: C_24  and  N_26
   12  A    between atoms: N_25  and  N_26
                            x       y       z     vdW  Elec       q    Type
                         _______ _______ _______ _____ _____    ______ ____

>  <TORSDO>
F 12

$$$$
=
 OpenBabel11042409513D

 33 34  0  0  1  0  0  0  0  0999 V2000
  189.4390  177.4990  145.2570 C   0  0  0  0  0  0  0  0  0  0  0  0
  188.3570  177.4050  148.5720 N   0  0  0  0  0  2  0  0  0  0  0  0
  190.3030  176.7530  147.3550 N   0  0  0  0  0  2  0  0  0  0  0  0
  191.6880  176.6420  145.4440 O   0  0  0  0  0  0  0  0  0  0  0  0
  188.4750  177.6860  146.1460 C   0  0  0  0  0  0  0  0  0  0  0  0
  188.9570  177.2120  147.4450 C   0  0  0  0  0  0  0  0  0  0  0  0
  190.5800  176.9320  145.9700 C   0  0  0  0  0  0  0  0  0  0  0  0
  189.4040  177.9010  143.8200 C   0  0  0  0  0  2  0  0  0  0  0  0
  188.7830  176.7910  142.9880 C   0  0  0  0  0  2  0  0  0  0  0  0
  188.9530  177.5000  140.5570 C   0  0  0  0  0  0  0  0  0  0  0  0
  187.8840  178.2220  140.6450 N   0  0  0  0  0  2  0  0  0  0  0  0
  189.4140  176.7380  141.6770 N   0  0  0  0  0  2  0  0  0  0  0  0
  189.6230  177.3410  139.2390 C   0  0  0  0  0  2  0  0  0  0  0  0
  191.0620  177.2840  139.4290 N   0  0  0  0  0  2  0  0  0  0  0  0
  191.5930  176.3810  138.4180 C   0  0  0  0  0  2  0  0  0  0  0  0
  193.0750  176.6430  138.1600 C   0  0  1  0  0  3  0  0  0  0  0  0
  193.7090  177.0910  139.3200 O   0  0  0  0  0  1  0  0  0  0  0  0
  193.9200  175.1660  137.5120 P   0  0  0  0  0  0  0  0  0  0  0  0
  194.4060  175.4460  135.9160 O   0  0  0  0  0  0  0  0  0  0  0  0
  195.2820  174.8410  138.4610 O   0  0  0  0  0  1  0  0  0  0  0  0
  192.9900  173.9760  137.5520 O   0  0  0  0  0  1  0  0  0  0  0  0
  187.2090  178.2820  145.8600 N   0  0  0  0  0  2  0  0  0  0  0  0
  186.2000  177.5760  145.1920 N   0  0  0  0  0  2  0  0  0  0  0  0
  184.3340  178.6360  142.0840 C   0  0  0  0  0  2  0  0  0  0  0  0
  185.2840  178.2400  144.3240 C   0  0  0  0  0  0  0  0  0  0  0  0
  181.9450  178.9180  141.9900 N   0  0  0  0  0  0  0  0  0  0  0  0
  185.2660  177.9300  143.0270 C   0  0  0  0  0  3  0  0  0  0  0  0
  184.3530  179.2990  144.8480 C   0  0  0  0  0  2  0  0  0  0  0  0
  182.9560  179.1640  144.2300 C   0  0  0  0  0  2  0  0  0  0  0  0
  183.0070  178.8980  142.7400 C   0  0  0  0  0  0  0  0  0  0  0  0
  179.8520  178.1740  142.6760 O   0  0  0  0  0  1  0  0  0  0  0  0
  180.0710  180.4410  142.5030 O   0  0  0  0  0  0  0  0  0  0  0  0
  180.5890  179.1550  142.4010 C   0  0  0  0  0  0  0  0  0  0  0  0
  1  7  1  0  0  0  0
  1  5  2  0  0  0  0
  3  6  1  0  0  0  0
  4  7  2  0  0  0  0
  5  6  1  0  0  0  0
  6  2  2  0  0  0  0
  7  3  1  0  0  0  0
  8  1  1  0  0  0  0
  9  8  1  0  0  0  0
 10 11  2  0  0  0  0
 10 12  1  0  0  0  0
 12  9  1  0  0  0  0
 13 14  1  0  0  0  0
 13 10  1  0  0  0  0
 15 14  1  0  0  0  0
 16 15  1  0  0  0  0
 16 17  1  1  0  0  0
 18 21  1  0  0  0  0
 18 16  1  0  0  0  0
 18 20  1  0  0  0  0
 19 18  2  0  0  0  0
 22  5  1  0  0  0  0
 23 22  1  0  0  0  0
 24 30  1  0  0  0  0
 24 27  1  0  0  0  0
 25 28  1  0  0  0  0
 25 23  1  0  0  0  0
 26 33  1  0  0  0  0
 26 30  2  0  0  0  0
 27 25  2  0  0  0  0
 29 28  1  0  0  0  0
 30 29  1  0  0  0  0
 33 32  2  0  0  0  0
 33 31  1  0  0  0  0
M  END
>  <MODEL>
5

>  <REMARK>
 VINA RESULT:      -7.9      2.538      7.024
  Name = 
  12 active torsions:
  status: ('A' for Active; 'I' for Inactive)
    1  A    between atoms: C_2  and  N_3
    2  A    between atoms: C_2  and  C_12
    3  A    between atoms: N_3  and  C_18
    4  A    between atoms: C_5  and  N_25
    5  A    between atoms: C_6  and  C_8
    6  A    between atoms: C_7  and  P_9
    7  A    between atoms: C_7  and  C_18
    8  A    between atoms: C_8  and  C_17
    9  A    between atoms: N_11  and  C_31
   10  A    between atoms: C_17  and  N_28
   11  A    between atoms: C_24  and  N_26
   12  A    between atoms: N_25  and  N_26
                            x       y       z     vdW  Elec       q    Type
                         _______ _______ _______ _____ _____    ______ ____

>  <TORSDO>
F 12

$$$$
=
 OpenBabel11042409513D

 33 34  0  0  1  0  0  0  0  0999 V2000
  188.2810  177.6060  146.4560 C   0  0  0  0  0  0  0  0  0  0  0  0
  185.0060  178.6210  147.1000 N   0  0  0  0  0  2  0  0  0  0  0  0
  187.1000  178.6670  148.2410 N   0  0  0  0  0  2  0  0  0  0  0  0
  189.4410  178.4000  148.4180 O   0  0  0  0  0  0  0  0  0  0  0  0
  187.0070  177.6390  146.0940 C   0  0  0  0  0  0  0  0  0  0  0  0
  186.2430  178.2580  147.1790 C   0  0  0  0  0  0  0  0  0  0  0  0
  188.3730  178.2360  147.7700 C   0  0  0  0  0  0  0  0  0  0  0  0
  189.4210  177.1200  145.6250 C   0  0  0  0  0  2  0  0  0  0  0  0
  189.8870  178.2220  144.6900 C   0  0  0  0  0  2  0  0  0  0  0  0
  190.8410  177.2340  142.5560 C   0  0  0  0  0  0  0  0  0  0  0  0
  192.0270  177.1630  143.0650 N   0  0  0  0  0  2  0  0  0  0  0  0
  189.7570  177.7910  143.3050 N   0  0  0  0  0  2  0  0  0  0  0  0
  190.6330  176.8720  141.1290 C   0  0  0  0  0  2  0  0  0  0  0  0
  189.5720  177.6910  140.5680 N   0  0  0  0  0  2  0  0  0  0  0  0
  189.3640  177.2450  139.1980 C   0  0  0  0  0  2  0  0  0  0  0  0
  187.9480  177.5590  138.7200 C   0  0  1  0  0  3  0  0  0  0  0  0
  187.3310  178.4820  139.5670 O   0  0  0  0  0  1  0  0  0  0  0  0
  187.9330  178.1730  137.0050 P   0  0  0  0  0  0  0  0  0  0  0  0
  189.4090  178.9230  136.6600 O   0  0  0  0  0  1  0  0  0  0  0  0
  187.7080  176.8710  135.9490 O   0  0  0  0  0  0  0  0  0  0  0  0
  186.8100  179.1660  136.8190 O   0  0  0  0  0  1  0  0  0  0  0  0
  186.5050  177.1750  144.8400 N   0  0  0  0  0  2  0  0  0  0  0  0
  186.4250  178.0200  143.7250 N   0  0  0  0  0  2  0  0  0  0  0  0
  183.3620  178.6270  141.6000 C   0  0  0  0  0  2  0  0  0  0  0  0
  185.1720  178.5270  143.2700 C   0  0  0  0  0  0  0  0  0  0  0  0
  181.1230  178.7320  142.4810 N   0  0  0  0  0  0  0  0  0  0  0  0
  184.6640  178.0860  142.1190 C   0  0  0  0  0  3  0  0  0  0  0  0
  184.4280  179.5660  144.0620 C   0  0  0  0  0  2  0  0  0  0  0  0
  182.9220  179.2730  144.0850 C   0  0  0  0  0  2  0  0  0  0  0  0
  182.3940  178.8610  142.7270 C   0  0  0  0  0  0  0  0  0  0  0  0
  179.4690  180.0370  143.4630 O   0  0  0  0  0  0  0  0  0  0  0  0
  179.5840  177.8830  144.2140 O   0  0  0  0  0  1  0  0  0  0  0  0
  180.0330  178.9150  143.3980 C   0  0  0  0  0  0  0  0  0  0  0  0
  1  7  1  0  0  0  0
  2  6  2  0  0  0  0
  5  1  2  0  0  0  0
  5  6  1  0  0  0  0
  6  3  1  0  0  0  0
  7  3  1  0  0  0  0
  7  4  2  0  0  0  0
  8  1  1  0  0  0  0
  9  8  1  0  0  0  0
 10 11  2  0  0  0  0
 10 12  1  0  0  0  0
 12  9  1  0  0  0  0
 13 10  1  0  0  0  0
 14 13  1  0  0  0  0
 15 14  1  0  0  0  0
 16 15  1  0  0  0  0
 16 17  1  1  0  0  0
 18 16  1  0  0  0  0
 19 18  1  0  0  0  0
 20 18  2  0  0  0  0
 21 18  1  0  0  0  0
 22  5  1  0  0  0  0
 23 22  1  0  0  0  0
 24 27  1  0  0  0  0
 24 30  1  0  0  0  0
 25 23  1  0  0  0  0
 25 28  1  0  0  0  0
 26 30  2  0  0  0  0
 26 33  1  0  0  0  0
 27 25  2  0  0  0  0
 28 29  1  0  0  0  0
 30 29  1  0  0  0  0
 33 31  2  0  0  0  0
 33 32  1  0  0  0  0
M  END
>  <MODEL>
6

>  <REMARK>
 VINA RESULT:      -7.8      2.745      7.040
  Name = 
  12 active torsions:
  status: ('A' for Active; 'I' for Inactive)
    1  A    between atoms: C_2  and  N_3
    2  A    between atoms: C_2  and  C_12
    3  A    between atoms: N_3  and  C_18
    4  A    between atoms: C_5  and  N_25
    5  A    between atoms: C_6  and  C_8
    6  A    between atoms: C_7  and  P_9
    7  A    between atoms: C_7  and  C_18
    8  A    between atoms: C_8  and  C_17
    9  A    between atoms: N_11  and  C_31
   10  A    between atoms: C_17  and  N_28
   11  A    between atoms: C_24  and  N_26
   12  A    between atoms: N_25  and  N_26
                            x       y       z     vdW  Elec       q    Type
                         _______ _______ _______ _____ _____    ______ ____

>  <TORSDO>
F 12

$$$$
=
 OpenBabel11042409513D

 33 34  0  0  1  0  0  0  0  0999 V2000
  190.0330  177.2920  145.3820 C   0  0  0  0  0  0  0  0  0  0  0  0
  187.9220  177.6280  148.1390 N   0  0  0  0  0  2  0  0  0  0  0  0
  190.0950  176.7450  147.7070 N   0  0  0  0  0  2  0  0  0  0  0  0
  192.0150  176.3490  146.3870 O   0  0  0  0  0  0  0  0  0  0  0  0
  188.8510  177.6270  145.8770 C   0  0  0  0  0  0  0  0  0  0  0  0
  188.8390  177.2790  147.2990 C   0  0  0  0  0  0  0  0  0  0  0  0
  190.8250  176.7520  146.4840 C   0  0  0  0  0  0  0  0  0  0  0  0
  190.5050  177.5300  143.9870 C   0  0  0  0  0  2  0  0  0  0  0  0
  190.0880  176.3730  143.0950 C   0  0  0  0  0  2  0  0  0  0  0  0
  189.6300  177.4780  140.8580 C   0  0  0  0  0  0  0  0  0  0  0  0
  188.4950  177.9430  141.2670 N   0  0  0  0  0  2  0  0  0  0  0  0
  190.4350  176.6590  141.7100 N   0  0  0  0  0  2  0  0  0  0  0  0
  190.0310  177.6710  139.4390 C   0  0  0  0  0  2  0  0  0  0  0  0
  189.2730  176.7670  138.5910 N   0  0  0  0  0  2  0  0  0  0  0  0
  190.1570  176.3470  137.5130 C   0  0  0  0  0  2  0  0  0  0  0  0
  191.1260  175.2620  137.9780 C   0  0  1  0  0  3  0  0  0  0  0  0
  190.6720  173.9970  137.5980 O   0  0  0  0  0  1  0  0  0  0  0  0
  192.8100  175.5420  137.3440 P   0  0  0  0  0  0  0  0  0  0  0  0
  193.5170  176.8370  138.1700 O   0  0  0  0  0  1  0  0  0  0  0  0
  193.7370  174.1490  137.5920 O   0  0  0  0  0  1  0  0  0  0  0  0
  192.7630  175.8530  135.8670 O   0  0  0  0  0  0  0  0  0  0  0  0
  187.8040  178.2510  145.1320 N   0  0  0  0  0  0  0  0  0  0  0  0
  186.6190  177.5710  144.8220 N   0  0  0  0  0  0  0  0  0  0  0  0
  184.1100  178.8150  142.2870 C   0  0  0  0  0  2  0  0  0  0  0  0
  185.5100  178.2490  144.2360 C   0  0  0  0  0  0  0  0  0  0  0  0
  181.7370  178.9020  142.6870 N   0  0  0  0  0  0  0  0  0  0  0  0
  185.2530  178.0880  142.9370 C   0  0  0  0  0  3  0  0  0  0  0  0
  184.6390  179.1590  145.0590 C   0  0  0  0  0  2  0  0  0  0  0  0
  183.1580  178.9770  144.7060 C   0  0  0  0  0  2  0  0  0  0  0  0
  182.9270  178.8870  143.2130 C   0  0  0  0  0  0  0  0  0  0  0  0
  179.8950  180.0850  143.4700 O   0  0  0  0  0  0  0  0  0  0  0  0
  179.8880  177.8490  143.9390 O   0  0  0  0  0  1  0  0  0  0  0  0
  180.4790  178.9750  143.3750 C   0  0  0  0  0  0  0  0  0  0  0  0
  1  5  2  0  0  0  0
  1  7  1  0  0  0  0
  4  7  2  0  0  0  0
  5  6  1  0  0  0  0
  6  3  1  0  0  0  0
  6  2  2  0  0  0  0
  7  3  1  0  0  0  0
  8  1  1  0  0  0  0
  9  8  1  0  0  0  0
 10 11  2  0  0  0  0
 10 12  1  0  0  0  0
 12  9  1  0  0  0  0
 13 10  1  0  0  0  0
 14 13  1  0  0  0  0
 15 16  1  0  0  0  0
 15 14  1  0  0  0  0
 16 17  1  6  0  0  0
 18 20  1  0  0  0  0
 18 16  1  0  0  0  0
 18 19  1  0  0  0  0
 21 18  2  0  0  0  0
 22  5  1  0  0  0  0
 23 22  2  0  0  0  0
 24 27  1  0  0  0  0
 24 30  1  0  0  0  0
 25 23  1  0  0  0  0
 25 28  1  0  0  0  0
 26 30  2  0  0  0  0
 26 33  1  0  0  0  0
 27 25  2  0  0  0  0
 29 28  1  0  0  0  0
 30 29  1  0  0  0  0
 33 31  2  0  0  0  0
 33 32  1  0  0  0  0
M  END
>  <MODEL>
7

>  <REMARK>
 VINA RESULT:      -7.8      2.606      7.001
  Name = 
  12 active torsions:
  status: ('A' for Active; 'I' for Inactive)
    1  A    between atoms: C_2  and  N_3
    2  A    between atoms: C_2  and  C_12
    3  A    between atoms: N_3  and  C_18
    4  A    between atoms: C_5  and  N_25
    5  A    between atoms: C_6  and  C_8
    6  A    between atoms: C_7  and  P_9
    7  A    between atoms: C_7  and  C_18
    8  A    between atoms: C_8  and  C_17
    9  A    between atoms: N_11  and  C_31
   10  A    between atoms: C_17  and  N_28
   11  A    between atoms: C_24  and  N_26
   12  A    between atoms: N_25  and  N_26
                            x       y       z     vdW  Elec       q    Type
                         _______ _______ _______ _____ _____    ______ ____

>  <TORSDO>
F 12

$$$$
=
 OpenBabel11042409513D

 33 34  0  0  1  0  0  0  0  0999 V2000
  188.0370  177.4730  146.6640 C   0  0  0  0  0  0  0  0  0  0  0  0
  191.3380  176.6720  145.8680 N   0  0  0  0  0  2  0  0  0  0  0  0
  190.1590  177.5210  147.7600 N   0  0  0  0  0  2  0  0  0  0  0  0
  188.2240  178.0920  148.9900 O   0  0  0  0  0  0  0  0  0  0  0  0
  188.9330  177.1000  145.7620 C   0  0  0  0  0  0  0  0  0  0  0  0
  190.2550  177.1440  146.3890 C   0  0  0  0  0  0  0  0  0  0  0  0
  188.7590  177.7340  147.9070 C   0  0  0  0  0  0  0  0  0  0  0  0
  186.5580  177.5090  146.4750 C   0  0  0  0  0  2  0  0  0  0  0  0
  186.1460  178.8370  145.8630 C   0  0  0  0  0  2  0  0  0  0  0  0
  184.1910  178.7340  144.2480 C   0  0  0  0  0  0  0  0  0  0  0  0
  183.3380  178.9550  145.1940 N   0  0  0  0  0  2  0  0  0  0  0  0
  185.5880  178.6230  144.5350 N   0  0  0  0  0  2  0  0  0  0  0  0
  183.7020  178.4440  142.8740 C   0  0  0  0  0  2  0  0  0  0  0  0
  182.4230  179.0980  142.6640 N   0  0  0  0  0  2  0  0  0  0  0  0
  181.8700  178.5750  141.4230 C   0  0  0  0  0  2  0  0  0  0  0  0
  182.9650  178.0100  140.5210 C   0  0  1  0  0  3  0  0  0  0  0  0
  182.6380  176.7240  140.0880 O   0  0  0  0  0  1  0  0  0  0  0  0
  183.2880  179.0910  139.0910 P   0  0  0  0  0  0  0  0  0  0  0  0
  183.3930  178.1550  137.6860 O   0  0  0  0  0  0  0  0  0  0  0  0
  182.0190  180.1980  138.9310 O   0  0  0  0  0  1  0  0  0  0  0  0
  184.5830  179.8430  139.2910 O   0  0  0  0  0  1  0  0  0  0  0  0
  188.6230  176.6950  144.4270 N   0  0  0  0  0  2  0  0  0  0  0  0
  189.6290  176.4550  143.4830 N   0  0  0  0  0  2  0  0  0  0  0  0
  190.6130  177.5320  139.9990 C   0  0  0  0  0  2  0  0  0  0  0  0
  189.6550  177.1490  142.2380 C   0  0  0  0  0  0  0  0  0  0  0  0
  189.0300  177.9710  138.2380 N   0  0  0  0  0  0  0  0  0  0  0  0
  190.5430  176.7970  141.3070 C   0  0  0  0  0  3  0  0  0  0  0  0
  188.7070  178.2850  141.9680 C   0  0  0  0  0  2  0  0  0  0  0  0
  188.1600  178.2240  140.5360 C   0  0  0  0  0  2  0  0  0  0  0  0
  189.2370  177.9040  139.5210 C   0  0  0  0  0  0  0  0  0  0  0  0
  187.7580  179.3660  136.8820 O   0  0  0  0  0  0  0  0  0  0  0  0
  186.6770  177.5070  137.6540 O   0  0  0  0  0  1  0  0  0  0  0  0
  187.8080  178.3120  137.5670 C   0  0  0  0  0  0  0  0  0  0  0  0
  1  7  1  0  0  0  0
  2  6  2  0  0  0  0
  3  7  1  0  0  0  0
  5  6  1  0  0  0  0
  5  1  2  0  0  0  0
  6  3  1  0  0  0  0
  7  4  2  0  0  0  0
  8  1  1  0  0  0  0
  9  8  1  0  0  0  0
 10 12  1  0  0  0  0
 10 11  2  0  0  0  0
 12  9  1  0  0  0  0
 13 10  1  0  0  0  0
 14 13  1  0  0  0  0
 15 14  1  0  0  0  0
 16 17  1  6  0  0  0
 16 15  1  0  0  0  0
 18 21  1  0  0  0  0
 18 16  1  0  0  0  0
 19 18  2  0  0  0  0
 20 18  1  0  0  0  0
 22  5  1  0  0  0  0
 23 22  1  0  0  0  0
 24 27  1  0  0  0  0
 25 23  1  0  0  0  0
 26 30  2  0  0  0  0
 27 25  2  0  0  0  0
 28 25  1  0  0  0  0
 29 28  1  0  0  0  0
 30 24  1  0  0  0  0
 30 29  1  0  0  0  0
 31 33  2  0  0  0  0
 33 32  1  0  0  0  0
 33 26  1  0  0  0  0
M  END
>  <MODEL>
8

>  <REMARK>
 VINA RESULT:      -7.7      2.994      7.466
  Name = 
  12 active torsions:
  status: ('A' for Active; 'I' for Inactive)
    1  A    between atoms: C_2  and  N_3
    2  A    between atoms: C_2  and  C_12
    3  A    between atoms: N_3  and  C_18
    4  A    between atoms: C_5  and  N_25
    5  A    between atoms: C_6  and  C_8
    6  A    between atoms: C_7  and  P_9
    7  A    between atoms: C_7  and  C_18
    8  A    between atoms: C_8  and  C_17
    9  A    between atoms: N_11  and  C_31
   10  A    between atoms: C_17  and  N_28
   11  A    between atoms: C_24  and  N_26
   12  A    between atoms: N_25  and  N_26
                            x       y       z     vdW  Elec       q    Type
                         _______ _______ _______ _____ _____    ______ ____

>  <TORSDO>
F 12

$$$$
=
 OpenBabel11042409513D

 33 34  0  0  1  0  0  0  0  0999 V2000
  185.7090  178.2480  144.4790 C   0  0  0  0  0  0  0  0  0  0  0  0
  187.4290  177.8320  147.4860 N   0  0  0  0  0  2  0  0  0  0  0  0
  185.4010  178.8640  146.7670 N   0  0  0  0  0  2  0  0  0  0  0  0
  183.6980  179.3660  145.2090 O   0  0  0  0  0  0  0  0  0  0  0  0
  186.7900  177.8390  145.1250 C   0  0  0  0  0  0  0  0  0  0  0  0
  186.6530  178.2250  146.5310 C   0  0  0  0  0  0  0  0  0  0  0  0
  184.8310  178.8770  145.4620 C   0  0  0  0  0  0  0  0  0  0  0  0
  185.3970  178.0060  143.0400 C   0  0  0  0  0  2  0  0  0  0  0  0
  185.6080  179.2830  142.2440 C   0  0  0  0  0  2  0  0  0  0  0  0
  184.9010  178.9990  139.8240 C   0  0  0  0  0  0  0  0  0  0  0  0
  186.0890  178.6310  139.4710 N   0  0  0  0  0  2  0  0  0  0  0  0
  184.6230  179.3740  141.1760 N   0  0  0  0  0  2  0  0  0  0  0  0
  183.8510  179.1780  138.7850 C   0  0  0  0  0  2  0  0  0  0  0  0
  182.8660  180.1390  139.2490 N   0  0  0  0  0  2  0  0  0  0  0  0
  181.5660  179.4880  139.1800 C   0  0  0  0  0  2  0  0  0  0  0  0
  180.5170  180.2530  139.9840 C   0  0  1  0  0  3  0  0  0  0  0  0
  179.3020  180.3020  139.2960 O   0  0  0  0  0  1  0  0  0  0  0  0
  180.2730  179.5310  141.6380 P   0  0  0  0  0  0  0  0  0  0  0  0
  178.9320  178.5010  141.6140 O   0  0  0  0  0  0  0  0  0  0  0  0
  181.6490  178.6460  142.0680 O   0  0  0  0  0  1  0  0  0  0  0  0
  180.0480  180.6260  142.6540 O   0  0  0  0  0  1  0  0  0  0  0  0
  187.8700  177.1170  144.5300 N   0  0  0  0  0  2  0  0  0  0  0  0
  189.1370  177.6920  144.3720 N   0  0  0  0  0  2  0  0  0  0  0  0
  191.7320  177.5080  141.6320 C   0  0  0  0  0  2  0  0  0  0  0  0
  189.7610  177.7650  143.0910 C   0  0  0  0  0  0  0  0  0  0  0  0
  191.3130  176.5670  139.4560 N   0  0  0  0  0  0  0  0  0  0  0  0
  191.0400  177.4100  142.9630 C   0  0  0  0  0  3  0  0  0  0  0  0
  189.0010  178.2550  141.8890 C   0  0  0  0  0  2  0  0  0  0  0  0
  189.3220  177.4110  140.6490 C   0  0  0  0  0  2  0  0  0  0  0  0
  190.8010  177.1180  140.5170 C   0  0  0  0  0  0  0  0  0  0  0  0
  190.1430  176.9860  137.4910 O   0  0  0  0  0  0  0  0  0  0  0  0
  190.4580  174.7780  137.9860 O   0  0  0  0  0  1  0  0  0  0  0  0
  190.6180  176.1280  138.2780 C   0  0  0  0  0  0  0  0  0  0  0  0
  1  5  2  0  0  0  0
  1  7  1  0  0  0  0
  4  7  2  0  0  0  0
  5  6  1  0  0  0  0
  6  3  1  0  0  0  0
  6  2  2  0  0  0  0
  7  3  1  0  0  0  0
  8  1  1  0  0  0  0
  9  8  1  0  0  0  0
 10 12  1  0  0  0  0
 11 10  2  0  0  0  0
 12  9  1  0  0  0  0
 13 14  1  0  0  0  0
 13 10  1  0  0  0  0
 15 14  1  0  0  0  0
 15 16  1  0  0  0  0
 16 17  1  6  0  0  0
 16 18  1  0  0  0  0
 18 20  1  0  0  0  0
 18 21  1  0  0  0  0
 19 18  2  0  0  0  0
 22  5  1  0  0  0  0
 23 22  1  0  0  0  0
 24 27  1  0  0  0  0
 25 23  1  0  0  0  0
 26 30  2  0  0  0  0
 27 25  2  0  0  0  0
 28 25  1  0  0  0  0
 29 28  1  0  0  0  0
 30 29  1  0  0  0  0
 30 24  1  0  0  0  0
 31 33  2  0  0  0  0
 32 33  1  0  0  0  0
 33 26  1  0  0  0  0
M  END
>  <MODEL>
9

>  <REMARK>
 VINA RESULT:      -7.6      3.785      6.558
  Name = 
  12 active torsions:
  status: ('A' for Active; 'I' for Inactive)
    1  A    between atoms: C_2  and  N_3
    2  A    between atoms: C_2  and  C_12
    3  A    between atoms: N_3  and  C_18
    4  A    between atoms: C_5  and  N_25
    5  A    between atoms: C_6  and  C_8
    6  A    between atoms: C_7  and  P_9
    7  A    between atoms: C_7  and  C_18
    8  A    between atoms: C_8  and  C_17
    9  A    between atoms: N_11  and  C_31
   10  A    between atoms: C_17  and  N_28
   11  A    between atoms: C_24  and  N_26
   12  A    between atoms: N_25  and  N_26
                            x       y       z     vdW  Elec       q    Type
                         _______ _______ _______ _____ _____    ______ ____

>  <TORSDO>
F 12

$$$$
