=
 OpenBabel11042411423D

 40 46  0  0  1  0  0  0  0  0999 V2000
  186.7610  177.5200  144.4480 C   0  0  0  0  0  2  0  0  0  0  0  0
  185.1600  177.9300  142.6150 C   0  0  1  0  0  3  0  0  0  0  0  0
  186.3320  178.1550  141.6950 C   0  0  0  0  0  3  0  0  0  0  0  0
  187.9440  177.9910  143.5930 C   0  0  2  0  0  3  0  0  0  0  0  0
  187.6110  178.0780  142.1100 C   0  0  0  0  0  0  0  0  0  0  0  0
  185.5020  178.2760  144.0590 C   0  0  0  0  0  2  0  0  0  0  0  0
  190.9830  177.9380  140.7410 C   0  0  0  0  0  2  0  0  0  0  0  0
  188.0410  177.2430  136.8830 C   0  0  0  0  0  2  0  0  0  0  0  0
  190.9820  176.2450  138.8200 C   0  0  1  0  0  3  0  0  0  0  0  0
  191.8160  177.0010  139.8650 C   0  0  0  0  0  2  0  0  0  0  0  0
  189.1790  176.3760  137.1260 N   0  0  0  0  0  2  0  0  0  0  0  0
  189.7050  177.3210  141.1010 N   0  0  1  0  0  0  0  0  0  0  0  0
  188.0710  178.3300  137.9390 C   0  0  0  0  0  2  0  0  0  0  0  0
  190.0480  177.1560  137.9940 C   0  0  1  0  0  3  0  0  0  0  0  0
  189.2190  178.0730  138.7920 N   0  0  2  0  0  0  0  0  0  0  0  0
  188.6970  178.3970  141.1170 C   0  0  1  0  0  3  0  0  0  0  0  0
  188.6970  177.4300  140.0120 C   0  0  2  0  0  3  0  0  0  0  0  0
  191.8720  175.4180  137.9380 C   0  0  0  0  0  3  0  0  0  0  0  0
  193.2010  175.4310  138.0620 C   0  0  0  0  0  3  0  0  0  0  0  0
  194.0510  174.6050  137.1570 C   0  0  0  0  0  2  0  0  0  0  0  0
  195.3770  175.0450  137.2190 O   0  0  0  0  0  0  0  0  0  0  0  0
  197.5100  173.7880  138.1060 O   0  0  0  0  0  0  0  0  0  0  0  0
  195.1970  172.7480  138.7330 O   0  0  0  0  0  1  0  0  0  0  0  0
  196.0920  174.1590  138.4760 P   0  0  0  0  0  0  0  0  0  0  0  0
  196.1020  175.0760  139.8990 O   0  0  0  0  0  1  0  0  0  0  0  0
  183.8640  179.0540  140.9850 O   0  0  0  0  0  0  0  0  0  0  0  0
  182.8770  179.0230  143.1150 C   0  0  0  0  0  1  0  0  0  0  0  0
  183.9620  178.6960  142.1490 C   0  0  0  0  0  0  0  0  0  0  0  0
  189.0430  177.1530  143.8160 O   0  0  0  0  0  0  0  0  0  0  0  0
  189.7540  177.7470  144.8680 C   0  0  2  0  0  3  0  0  0  0  0  0
  190.9840  178.4620  144.3400 C   0  0  0  0  0  1  0  0  0  0  0  0
  192.1140  175.4680  146.4220 C   0  0  0  0  0  2  0  0  0  0  0  0
  192.8380  176.7300  148.3650 O   0  0  0  0  0  0  0  0  0  0  0  0
  189.4700  176.9490  147.2500 C   0  0  0  0  0  0  0  0  0  0  0  0
  188.2230  176.9480  147.4340 O   0  0  0  0  0  0  0  0  0  0  0  0
  192.1180  175.6180  147.9260 C   0  0  1  0  0  3  0  0  0  0  0  0
  191.5920  176.8050  146.2100 N   0  0  2  0  0  0  0  0  0  0  0  0
  191.6510  177.0230  147.6590 C   0  0  2  0  0  0  0  0  0  0  0  0
  190.3820  177.1060  148.2690 O   0  0  0  0  0  0  0  0  0  0  0  0
  190.1450  176.7150  145.9310 C   0  0  2  0  0  3  0  0  0  0  0  0
  2 28  1  6  0  0  0
  2  6  1  0  0  0  0
  3  5  2  0  0  0  0
  3  2  1  0  0  0  0
  4 29  1  6  0  0  0
  4  1  1  0  0  0  0
  5  4  1  0  0  0  0
  6  1  1  0  0  0  0
  8 11  1  0  0  0  0
  8 13  1  0  0  0  0
  9 18  1  6  0  0  0
  9 10  1  0  0  0  0
 10  7  1  0  0  0  0
 12  7  1  6  0  0  0
 12 16  1  0  0  0  0
 14 11  1  1  0  0  0
 14 15  1  0  0  0  0
 14  9  1  0  0  0  0
 15 13  1  6  0  0  0
 15 17  1  0  0  0  0
 16  5  1  1  0  0  0
 17 12  1  0  0  0  0
 17 16  1  0  0  0  0
 18 19  2  0  0  0  0
 20 21  1  0  0  0  0
 20 19  1  0  0  0  0
 21 24  1  0  0  0  0
 22 24  2  0  0  0  0
 24 23  1  0  0  0  0
 24 25  1  0  0  0  0
 26 28  2  0  0  0  0
 28 27  1  0  0  0  0
 29 30  1  0  0  0  0
 30 40  1  0  0  0  0
 31 30  1  0  0  0  0
 32 36  1  0  0  0  0
 34 35  2  0  0  0  0
 34 39  1  0  0  0  0
 36 33  1  0  0  0  0
 37 32  1  0  0  0  0
 37 38  1  0  0  0  0
 38 36  1  0  0  0  0
 38 39  1  0  0  0  0
 38 33  1  0  0  0  0
 40 37  1  0  0  0  0
 40 34  1  0  0  0  0
M  END
>  <MODEL>
1

>  <REMARK>
 VINA RESULT:      -8.8      0.000      0.000
  Name = 
  9 active torsions:
  status: ('A' for Active; 'I' for Inactive)
    1  A    between atoms: C_1  and  C_14
    2  A    between atoms: C_1  and  O_25
    3  A    between atoms: O_5  and  C_7
    4  A    between atoms: O_5  and  C_27
    5  A    between atoms: C_7  and  C_39
    6  A    between atoms: C_11  and  C_24
    7  A    between atoms: P_17  and  O_25
    8  A    between atoms: C_22  and  C_38
    9  A    between atoms: C_31  and  C_37
                            x       y       z     vdW  Elec       q    Type
                         _______ _______ _______ _____ _____    ______ ____

>  <TORSDO>
F 9

$$$$
=
 OpenBabel11042411423D

 40 46  0  0  1  0  0  0  0  0999 V2000
  185.0590  178.1160  142.8750 C   0  0  0  0  0  2  0  0  0  0  0  0
  184.3550  178.5600  140.5510 C   0  0  1  0  0  3  0  0  0  0  0  0
  185.8100  178.5900  140.1590 C   0  0  0  0  0  3  0  0  0  0  0  0
  186.5290  178.3940  142.5420 C   0  0  2  0  0  3  0  0  0  0  0  0
  186.8090  178.4080  141.0450 C   0  0  0  0  0  0  0  0  0  0  0  0
  184.1540  178.9710  142.0050 C   0  0  0  0  0  2  0  0  0  0  0  0
  190.3280  177.4980  140.8250 C   0  0  0  0  0  2  0  0  0  0  0  0
  188.9320  178.2140  136.1810 C   0  0  0  0  0  2  0  0  0  0  0  0
  190.6610  176.1570  138.6690 C   0  0  1  0  0  3  0  0  0  0  0  0
  191.1970  176.4920  140.0690 C   0  0  0  0  0  2  0  0  0  0  0  0
  189.6820  177.0320  136.5670 N   0  0  0  0  0  2  0  0  0  0  0  0
  188.9050  177.2290  140.6080 N   0  0  1  0  0  0  0  0  0  0  0  0
  188.8120  179.0900  137.4110 C   0  0  0  0  0  2  0  0  0  0  0  0
  190.3200  177.4020  137.8210 C   0  0  1  0  0  3  0  0  0  0  0  0
  189.4790  178.4000  138.5020 N   0  0  2  0  0  0  0  0  0  0  0  0
  188.2250  178.5360  140.5490 C   0  0  1  0  0  3  0  0  0  0  0  0
  188.4180  177.7710  139.3100 C   0  0  2  0  0  3  0  0  0  0  0  0
  191.6070  175.2400  137.9500 C   0  0  0  0  0  3  0  0  0  0  0  0
  192.7810  175.6640  137.4750 C   0  0  0  0  0  3  0  0  0  0  0  0
  193.6870  174.7250  136.7540 C   0  0  0  0  0  2  0  0  0  0  0  0
  194.1240  173.7240  137.6260 O   0  0  0  0  0  0  0  0  0  0  0  0
  195.7400  174.7850  139.4090 O   0  0  0  0  0  1  0  0  0  0  0  0
  196.3080  175.2410  136.9010 O   0  0  0  0  0  0  0  0  0  0  0  0
  195.7140  174.1430  138.0410 P   0  0  0  0  0  0  0  0  0  0  0  0
  196.6950  172.7640  138.0460 O   0  0  0  0  0  1  0  0  0  0  0  0
  184.0420  180.3570  139.0450 O   0  0  0  0  0  0  0  0  0  0  0  0
  182.0950  179.1050  139.4340 C   0  0  0  0  0  1  0  0  0  0  0  0
  183.5380  179.4130  139.6330 C   0  0  0  0  0  0  0  0  0  0  0  0
  187.3410  177.4620  143.1980 O   0  0  0  0  0  0  0  0  0  0  0  0
  187.9450  178.1720  144.2460 C   0  0  2  0  0  3  0  0  0  0  0  0
  189.4460  178.2530  144.0360 C   0  0  0  0  0  1  0  0  0  0  0  0
  188.9080  176.5140  147.3290 C   0  0  0  0  0  2  0  0  0  0  0  0
  188.8470  178.3390  148.9290 O   0  0  0  0  0  0  0  0  0  0  0  0
  186.4640  178.1970  146.2950 C   0  0  0  0  0  0  0  0  0  0  0  0
  185.2930  178.2620  145.8340 O   0  0  0  0  0  0  0  0  0  0  0  0
  188.2400  177.1480  148.5280 C   0  0  1  0  0  3  0  0  0  0  0  0
  188.7710  177.7110  146.5200 N   0  0  2  0  0  0  0  0  0  0  0  0
  188.1870  178.3900  147.6820 C   0  0  2  0  0  0  0  0  0  0  0  0
  186.8130  178.6740  147.5380 O   0  0  0  0  0  0  0  0  0  0  0  0
  187.6250  177.5420  145.6050 C   0  0  2  0  0  3  0  0  0  0  0  0
  2 28  1  6  0  0  0
  2  6  1  0  0  0  0
  3  2  1  0  0  0  0
  3  5  2  0  0  0  0
  4  1  1  0  0  0  0
  4 29  1  1  0  0  0
  5  4  1  0  0  0  0
  6  1  1  0  0  0  0
  8 11  1  0  0  0  0
  8 13  1  0  0  0  0
  9 18  1  6  0  0  0
  9 10  1  0  0  0  0
 10  7  1  0  0  0  0
 12  7  1  6  0  0  0
 14 11  1  6  0  0  0
 14 15  1  0  0  0  0
 14  9  1  0  0  0  0
 15 13  1  6  0  0  0
 15 17  1  0  0  0  0
 16 12  1  0  0  0  0
 16  5  1  1  0  0  0
 17 16  1  0  0  0  0
 17 12  1  0  0  0  0
 19 18  2  0  0  0  0
 20 19  1  0  0  0  0
 20 21  1  0  0  0  0
 21 24  1  0  0  0  0
 23 24  2  0  0  0  0
 24 25  1  0  0  0  0
 24 22  1  0  0  0  0
 26 28  2  0  0  0  0
 27 28  1  0  0  0  0
 29 30  1  0  0  0  0
 30 40  1  0  0  0  0
 31 30  1  0  0  0  0
 32 36  1  0  0  0  0
 34 39  1  0  0  0  0
 35 34  2  0  0  0  0
 36 33  1  0  0  0  0
 37 32  1  0  0  0  0
 37 38  1  0  0  0  0
 38 36  1  0  0  0  0
 38 33  1  0  0  0  0
 39 38  1  0  0  0  0
 40 34  1  0  0  0  0
 40 37  1  0  0  0  0
M  END
>  <MODEL>
2

>  <REMARK>
 VINA RESULT:      -8.4      1.656      2.345
  Name = 
  9 active torsions:
  status: ('A' for Active; 'I' for Inactive)
    1  A    between atoms: C_1  and  C_14
    2  A    between atoms: C_1  and  O_25
    3  A    between atoms: O_5  and  C_7
    4  A    between atoms: O_5  and  C_27
    5  A    between atoms: C_7  and  C_39
    6  A    between atoms: C_11  and  C_24
    7  A    between atoms: P_17  and  O_25
    8  A    between atoms: C_22  and  C_38
    9  A    between atoms: C_31  and  C_37
                            x       y       z     vdW  Elec       q    Type
                         _______ _______ _______ _____ _____    ______ ____

>  <TORSDO>
F 9

$$$$
=
 OpenBabel11042411423D

 40 46  0  0  1  0  0  0  0  0999 V2000
  188.6070  176.9100  144.2610 C   0  0  0  0  0  2  0  0  0  0  0  0
  187.1020  177.5160  146.1210 C   0  0  1  0  0  3  0  0  0  0  0  0
  186.1810  178.1550  145.1150 C   0  0  0  0  0  3  0  0  0  0  0  0
  187.8150  177.7690  143.2680 C   0  0  2  0  0  3  0  0  0  0  0  0
  186.4470  178.1810  143.7940 C   0  0  0  0  0  0  0  0  0  0  0  0
  188.5500  177.5280  145.6470 C   0  0  0  0  0  2  0  0  0  0  0  0
  184.8360  178.9710  140.6250 C   0  0  0  0  0  2  0  0  0  0  0  0
  181.1640  178.7130  143.8620 C   0  0  0  0  0  2  0  0  0  0  0  0
  182.5510  177.8160  140.5950 C   0  0  1  0  0  3  0  0  0  0  0  0
  183.6880  178.4340  139.7680 C   0  0  0  0  0  2  0  0  0  0  0  0
  181.0880  178.0290  142.5840 N   0  0  0  0  0  2  0  0  0  0  0  0
  185.1220  178.0700  141.7430 N   0  0  1  0  0  0  0  0  0  0  0  0
  182.4570  179.5030  143.8720 C   0  0  0  0  0  2  0  0  0  0  0  0
  182.0590  178.7180  141.7470 C   0  0  1  0  0  3  0  0  0  0  0  0
  183.1250  179.2560  142.6060 N   0  0  2  0  0  0  0  0  0  0  0  0
  185.4890  178.9150  142.8940 C   0  0  1  0  0  3  0  0  0  0  0  0
  184.1760  178.2570  142.8770 C   0  0  2  0  0  3  0  0  0  0  0  0
  181.4210  177.3950  139.7000 C   0  0  0  0  0  3  0  0  0  0  0  0
  181.2470  176.1230  139.3310 C   0  0  0  0  0  3  0  0  0  0  0  0
  180.1200  175.7470  138.4300 C   0  0  0  0  0  2  0  0  0  0  0  0
  180.6030  175.5100  137.1400 O   0  0  0  0  0  0  0  0  0  0  0  0
  182.3130  173.5150  137.2590 O   0  0  0  0  0  1  0  0  0  0  0  0
  180.3810  173.2930  135.5170 O   0  0  0  0  0  0  0  0  0  0  0  0
  180.8510  173.8350  137.0470 P   0  0  0  0  0  0  0  0  0  0  0  0
  179.9250  173.0450  138.2240 O   0  0  0  0  0  1  0  0  0  0  0  0
  186.0810  178.9860  147.6690 O   0  0  0  0  0  0  0  0  0  0  0  0
  187.9280  177.8300  148.5450 C   0  0  0  0  0  1  0  0  0  0  0  0
  186.9680  178.1730  147.4580 C   0  0  0  0  0  0  0  0  0  0  0  0
  187.7030  177.0900  142.0490 O   0  0  0  0  0  0  0  0  0  0  0  0
  188.8070  177.5070  141.2900 C   0  0  2  0  0  3  0  0  0  0  0  0
  189.0840  178.9810  141.5240 C   0  0  0  0  0  1  0  0  0  0  0  0
  187.0900  178.0200  138.1340 C   0  0  0  0  0  2  0  0  0  0  0  0
  188.6310  179.4720  136.9450 O   0  0  0  0  0  0  0  0  0  0  0  0
  189.8760  176.9140  139.0780 C   0  0  0  0  0  0  0  0  0  0  0  0
  190.6380  175.9480  139.3470 O   0  0  0  0  0  0  0  0  0  0  0  0
  188.0690  178.1950  136.9950 C   0  0  1  0  0  3  0  0  0  0  0  0
  188.0580  178.4310  139.1340 N   0  0  2  0  0  0  0  0  0  0  0  0
  189.0160  178.6880  138.0550 C   0  0  2  0  0  0  0  0  0  0  0  0
  190.0940  177.7790  138.0290 O   0  0  0  0  0  0  0  0  0  0  0  0
  188.5980  177.2280  139.7990 C   0  0  2  0  0  3  0  0  0  0  0  0
  1  6  1  0  0  0  0
  2 28  1  1  0  0  0
  3  2  1  0  0  0  0
  4 29  1  6  0  0  0
  4  5  1  0  0  0  0
  4  1  1  0  0  0  0
  5  3  2  0  0  0  0
  6  2  1  0  0  0  0
  8 13  1  0  0  0  0
  9 18  1  6  0  0  0
  9 14  1  0  0  0  0
 10  9  1  0  0  0  0
 10  7  1  0  0  0  0
 11  8  1  0  0  0  0
 12  7  1  6  0  0  0
 12 17  1  0  0  0  0
 12 16  1  0  0  0  0
 14 11  1  1  0  0  0
 14 15  1  0  0  0  0
 15 17  1  0  0  0  0
 15 13  1  1  0  0  0
 16  5  1  1  0  0  0
 17 16  1  0  0  0  0
 19 18  2  0  0  0  0
 20 19  1  0  0  0  0
 21 20  1  0  0  0  0
 23 24  2  0  0  0  0
 24 21  1  0  0  0  0
 24 22  1  0  0  0  0
 24 25  1  0  0  0  0
 28 26  2  0  0  0  0
 28 27  1  0  0  0  0
 30 31  1  0  0  0  0
 30 29  1  0  0  0  0
 32 37  1  0  0  0  0
 33 36  1  0  0  0  0
 33 38  1  0  0  0  0
 34 35  2  0  0  0  0
 34 40  1  0  0  0  0
 36 38  1  0  0  0  0
 36 32  1  0  0  0  0
 37 40  1  0  0  0  0
 38 37  1  0  0  0  0
 39 38  1  0  0  0  0
 39 34  1  0  0  0  0
 40 30  1  0  0  0  0
M  END
>  <MODEL>
3

>  <REMARK>
 VINA RESULT:      -7.9      4.583      9.167
  Name = 
  9 active torsions:
  status: ('A' for Active; 'I' for Inactive)
    1  A    between atoms: C_1  and  C_14
    2  A    between atoms: C_1  and  O_25
    3  A    between atoms: O_5  and  C_7
    4  A    between atoms: O_5  and  C_27
    5  A    between atoms: C_7  and  C_39
    6  A    between atoms: C_11  and  C_24
    7  A    between atoms: P_17  and  O_25
    8  A    between atoms: C_22  and  C_38
    9  A    between atoms: C_31  and  C_37
                            x       y       z     vdW  Elec       q    Type
                         _______ _______ _______ _____ _____    ______ ____

>  <TORSDO>
F 9

$$$$
=
 OpenBabel11042411423D

 40 46  0  0  1  0  0  0  0  0999 V2000
  190.7350  175.9380  143.6460 C   0  0  0  0  0  2  0  0  0  0  0  0
  189.9980  176.6070  145.9050 C   0  0  1  0  0  3  0  0  0  0  0  0
  188.9580  177.4860  145.2610 C   0  0  0  0  0  3  0  0  0  0  0  0
  189.8620  177.0090  142.9830 C   0  0  2  0  0  3  0  0  0  0  0  0
  188.8180  177.5950  143.9250 C   0  0  0  0  0  0  0  0  0  0  0  0
  191.2140  176.4190  145.0050 C   0  0  0  0  0  2  0  0  0  0  0  0
  186.5900  179.0060  141.4140 C   0  0  0  0  0  2  0  0  0  0  0  0
  183.8990  178.8180  145.5070 C   0  0  0  0  0  2  0  0  0  0  0  0
  184.2170  178.1830  141.9160 C   0  0  1  0  0  3  0  0  0  0  0  0
  185.1860  178.7470  140.8660 C   0  0  0  0  0  2  0  0  0  0  0  0
  183.3810  178.3250  144.2440 N   0  0  0  0  0  2  0  0  0  0  0  0
  187.0040  177.9350  142.3220 N   0  0  1  0  0  0  0  0  0  0  0  0
  185.2620  179.4180  145.2300 C   0  0  0  0  0  2  0  0  0  0  0  0
  184.2000  178.9820  143.2370 C   0  0  1  0  0  3  0  0  0  0  0  0
  185.5270  179.2530  143.8110 N   0  0  2  0  0  0  0  0  0  0  0  0
  187.7930  178.5630  143.3970 C   0  0  1  0  0  3  0  0  0  0  0  0
  186.4320  178.0950  143.6870 C   0  0  2  0  0  3  0  0  0  0  0  0
  182.8400  178.0400  141.3360 C   0  0  0  0  0  3  0  0  0  0  0  0
  182.6400  177.6550  140.0740 C   0  0  0  0  0  3  0  0  0  0  0  0
  181.2560  177.5380  139.5310 C   0  0  0  0  0  2  0  0  0  0  0  0
  181.3050  177.1830  138.1790 O   0  0  0  0  0  0  0  0  0  0  0  0
  180.3420  175.0460  136.9880 O   0  0  0  0  0  0  0  0  0  0  0  0
  180.5090  174.9550  139.5930 O   0  0  0  0  0  1  0  0  0  0  0  0
  181.2030  175.4910  138.1480 P   0  0  0  0  0  0  0  0  0  0  0  0
  182.7490  174.8190  137.9930 O   0  0  0  0  0  1  0  0  0  0  0  0
  191.5390  177.0110  147.6540 O   0  0  0  0  0  0  0  0  0  0  0  0
  189.3900  177.8540  148.0800 C   0  0  0  0  0  1  0  0  0  0  0  0
  190.3970  177.1450  147.2420 C   0  0  0  0  0  0  0  0  0  0  0  0
  189.2650  176.4800  141.8340 O   0  0  0  0  0  0  0  0  0  0  0  0
  190.2440  176.5710  140.8330 C   0  0  2  0  0  3  0  0  0  0  0  0
  191.0480  177.8480  140.9920 C   0  0  0  0  0  1  0  0  0  0  0  0
  187.8220  177.5970  138.3320 C   0  0  0  0  0  2  0  0  0  0  0  0
  189.1390  179.0680  136.9200 O   0  0  0  0  0  0  0  0  0  0  0  0
  190.6260  176.1810  138.3650 C   0  0  0  0  0  0  0  0  0  0  0  0
  191.3270  175.1350  138.3180 O   0  0  0  0  0  0  0  0  0  0  0  0
  188.4800  177.8400  136.9930 C   0  0  1  0  0  3  0  0  0  0  0  0
  189.0550  177.8080  139.0660 N   0  0  2  0  0  0  0  0  0  0  0  0
  189.7180  178.1260  137.7980 C   0  0  2  0  0  0  0  0  0  0  0  0
  190.6510  177.1500  137.3880 O   0  0  0  0  0  0  0  0  0  0  0  0
  189.6220  176.4960  139.4350 C   0  0  2  0  0  3  0  0  0  0  0  0
  1  6  1  0  0  0  0
  2 28  1  1  0  0  0
  3  2  1  0  0  0  0
  4 29  1  6  0  0  0
  4  1  1  0  0  0  0
  4  5  1  0  0  0  0
  5  3  2  0  0  0  0
  6  2  1  0  0  0  0
  9 18  1  6  0  0  0
  9 14  1  0  0  0  0
 10  7  1  0  0  0  0
 10  9  1  0  0  0  0
 11  8  1  0  0  0  0
 12  7  1  6  0  0  0
 12 16  1  0  0  0  0
 12 17  1  0  0  0  0
 13  8  1  0  0  0  0
 14 15  1  0  0  0  0
 14 11  1  1  0  0  0
 15 13  1  1  0  0  0
 16 17  1  0  0  0  0
 16  5  1  1  0  0  0
 17 15  1  0  0  0  0
 19 18  2  0  0  0  0
 20 19  1  0  0  0  0
 21 20  1  0  0  0  0
 22 24  2  0  0  0  0
 24 21  1  0  0  0  0
 24 23  1  0  0  0  0
 25 24  1  0  0  0  0
 28 26  2  0  0  0  0
 28 27  1  0  0  0  0
 30 31  1  0  0  0  0
 30 29  1  0  0  0  0
 32 37  1  0  0  0  0
 33 36  1  0  0  0  0
 33 38  1  0  0  0  0
 34 40  1  0  0  0  0
 35 34  2  0  0  0  0
 36 38  1  0  0  0  0
 36 32  1  0  0  0  0
 37 40  1  0  0  0  0
 38 37  1  0  0  0  0
 39 38  1  0  0  0  0
 39 34  1  0  0  0  0
 40 30  1  0  0  0  0
M  END
>  <MODEL>
4

>  <REMARK>
 VINA RESULT:      -7.8      3.842      9.103
  Name = 
  9 active torsions:
  status: ('A' for Active; 'I' for Inactive)
    1  A    between atoms: C_1  and  C_14
    2  A    between atoms: C_1  and  O_25
    3  A    between atoms: O_5  and  C_7
    4  A    between atoms: O_5  and  C_27
    5  A    between atoms: C_7  and  C_39
    6  A    between atoms: C_11  and  C_24
    7  A    between atoms: P_17  and  O_25
    8  A    between atoms: C_22  and  C_38
    9  A    between atoms: C_31  and  C_37
                            x       y       z     vdW  Elec       q    Type
                         _______ _______ _______ _____ _____    ______ ____

>  <TORSDO>
F 9

$$$$
=
 OpenBabel11042411423D

 40 46  0  0  1  0  0  0  0  0999 V2000
  190.4190  176.4520  142.3990 C   0  0  0  0  0  2  0  0  0  0  0  0
  189.5540  176.7530  144.6910 C   0  0  1  0  0  3  0  0  0  0  0  0
  188.4330  177.5790  144.1160 C   0  0  0  0  0  3  0  0  0  0  0  0
  189.4410  177.4890  141.8340 C   0  0  2  0  0  3  0  0  0  0  0  0
  188.3130  177.8310  142.7980 C   0  0  0  0  0  0  0  0  0  0  0  0
  190.8050  176.8170  143.8220 C   0  0  0  0  0  2  0  0  0  0  0  0
  185.7340  179.0120  140.5140 C   0  0  0  0  0  2  0  0  0  0  0  0
  183.5870  178.9990  144.9200 C   0  0  0  0  0  2  0  0  0  0  0  0
  183.4770  178.1480  141.3610 C   0  0  1  0  0  3  0  0  0  0  0  0
  184.2830  178.6750  140.1650 C   0  0  0  0  0  2  0  0  0  0  0  0
  182.9340  178.4110  143.7640 N   0  0  0  0  0  2  0  0  0  0  0  0
  186.3000  178.0130  141.4230 N   0  0  1  0  0  0  0  0  0  0  0  0
  184.8800  179.6230  144.4360 C   0  0  0  0  0  2  0  0  0  0  0  0
  183.5940  179.0290  142.6240 C   0  0  1  0  0  3  0  0  0  0  0  0
  184.9720  179.3770  143.0070 N   0  0  2  0  0  0  0  0  0  0  0  0
  187.1930  178.7320  142.3490 C   0  0  1  0  0  3  0  0  0  0  0  0
  185.8980  178.2420  142.8370 C   0  0  2  0  0  3  0  0  0  0  0  0
  182.0440  177.9260  140.9720 C   0  0  0  0  0  3  0  0  0  0  0  0
  181.6950  177.0460  140.0300 C   0  0  0  0  0  3  0  0  0  0  0  0
  180.2620  176.8640  139.6620 C   0  0  0  0  0  2  0  0  0  0  0  0
  180.1610  176.4960  138.3170 O   0  0  0  0  0  0  0  0  0  0  0  0
  178.9340  174.3790  137.3550 O   0  0  0  0  0  0  0  0  0  0  0  0
  179.6160  174.2880  139.8740 O   0  0  0  0  0  1  0  0  0  0  0  0
  180.0190  174.8060  138.3160 P   0  0  0  0  0  0  0  0  0  0  0  0
  181.4880  174.1000  137.8600 O   0  0  0  0  0  1  0  0  0  0  0  0
  189.0580  177.8400  146.7330 O   0  0  0  0  0  0  0  0  0  0  0  0
  191.1390  176.7530  146.7270 C   0  0  0  0  0  1  0  0  0  0  0  0
  189.8550  177.1670  146.0970 C   0  0  0  0  0  0  0  0  0  0  0  0
  188.9390  177.0380  140.6080 O   0  0  0  0  0  0  0  0  0  0  0  0
  189.8130  177.5510  139.6390 C   0  0  2  0  0  3  0  0  0  0  0  0
  189.0640  178.4520  138.6740 C   0  0  0  0  0  1  0  0  0  0  0  0
  189.8920  174.8430  137.2230 C   0  0  0  0  0  2  0  0  0  0  0  0
  190.9800  175.8880  135.3210 O   0  0  0  0  0  0  0  0  0  0  0  0
  191.9780  176.7260  138.6290 C   0  0  0  0  0  0  0  0  0  0  0  0
  192.8410  176.9330  139.5240 O   0  0  0  0  0  0  0  0  0  0  0  0
  191.1100  174.9340  136.3320 C   0  0  1  0  0  3  0  0  0  0  0  0
  189.9250  176.2570  137.5470 N   0  0  2  0  0  0  0  0  0  0  0  0
  191.0610  176.4070  136.6320 C   0  0  2  0  0  0  0  0  0  0  0  0
  192.2790  176.6850  137.2860 O   0  0  0  0  0  0  0  0  0  0  0  0
  190.5290  176.4280  138.8830 C   0  0  2  0  0  3  0  0  0  0  0  0
  1  6  1  0  0  0  0
  2 28  1  1  0  0  0
  3  2  1  0  0  0  0
  4 29  1  6  0  0  0
  4  1  1  0  0  0  0
  4  5  1  0  0  0  0
  5  3  2  0  0  0  0
  6  2  1  0  0  0  0
  9 18  1  6  0  0  0
  9 14  1  0  0  0  0
 10  7  1  0  0  0  0
 10  9  1  0  0  0  0
 11  8  1  0  0  0  0
 12  7  1  6  0  0  0
 12 16  1  0  0  0  0
 12 17  1  0  0  0  0
 13  8  1  0  0  0  0
 14 15  1  0  0  0  0
 14 11  1  1  0  0  0
 15 13  1  1  0  0  0
 16  5  1  1  0  0  0
 16 17  1  0  0  0  0
 17 15  1  0  0  0  0
 19 18  2  0  0  0  0
 20 19  1  0  0  0  0
 21 20  1  0  0  0  0
 22 24  2  0  0  0  0
 24 21  1  0  0  0  0
 24 23  1  0  0  0  0
 25 24  1  0  0  0  0
 28 27  1  0  0  0  0
 28 26  2  0  0  0  0
 30 29  1  0  0  0  0
 31 30  1  0  0  0  0
 32 37  1  0  0  0  0
 33 36  1  0  0  0  0
 33 38  1  0  0  0  0
 34 40  1  0  0  0  0
 34 35  2  0  0  0  0
 36 38  1  0  0  0  0
 36 32  1  0  0  0  0
 37 40  1  0  0  0  0
 38 39  1  0  0  0  0
 38 37  1  0  0  0  0
 39 34  1  0  0  0  0
 40 30  1  0  0  0  0
M  END
>  <MODEL>
5

>  <REMARK>
 VINA RESULT:      -7.4      4.106      9.463
  Name = 
  9 active torsions:
  status: ('A' for Active; 'I' for Inactive)
    1  A    between atoms: C_1  and  C_14
    2  A    between atoms: C_1  and  O_25
    3  A    between atoms: O_5  and  C_7
    4  A    between atoms: O_5  and  C_27
    5  A    between atoms: C_7  and  C_39
    6  A    between atoms: C_11  and  C_24
    7  A    between atoms: P_17  and  O_25
    8  A    between atoms: C_22  and  C_38
    9  A    between atoms: C_31  and  C_37
                            x       y       z     vdW  Elec       q    Type
                         _______ _______ _______ _____ _____    ______ ____

>  <TORSDO>
F 9

$$$$
=
 OpenBabel11042411423D

 40 46  0  0  1  0  0  0  0  0999 V2000
  189.7410  178.1690  138.8220 C   0  0  0  0  0  2  0  0  0  0  0  0
  188.7720  178.1360  136.5530 C   0  0  1  0  0  3  0  0  0  0  0  0
  187.4040  178.0820  137.1810 C   0  0  0  0  0  3  0  0  0  0  0  0
  188.3850  177.8600  139.4660 C   0  0  2  0  0  3  0  0  0  0  0  0
  187.2130  178.0640  138.5150 C   0  0  0  0  0  0  0  0  0  0  0  0
  189.8320  177.5160  137.4540 C   0  0  0  0  0  2  0  0  0  0  0  0
  184.0660  179.2820  139.8850 C   0  0  0  0  0  2  0  0  0  0  0  0
  182.7590  176.2100  136.2970 C   0  0  0  0  0  2  0  0  0  0  0  0
  182.3830  179.4480  137.9630 C   0  0  1  0  0  3  0  0  0  0  0  0
  182.7730  179.9170  139.3720 C   0  0  0  0  0  2  0  0  0  0  0  0
  182.1650  177.5300  136.4090 N   0  0  0  0  0  2  0  0  0  0  0  0
  185.0650  179.1910  138.8190 N   0  0  1  0  0  0  0  0  0  0  0  0
  183.6810  176.0290  137.4850 C   0  0  0  0  0  2  0  0  0  0  0  0
  182.3980  177.9130  137.7940 C   0  0  1  0  0  3  0  0  0  0  0  0
  183.6240  177.2530  138.2670 N   0  0  2  0  0  0  0  0  0  0  0  0
  185.8030  177.9320  139.0270 C   0  0  1  0  0  3  0  0  0  0  0  0
  184.8350  178.0230  137.9250 C   0  0  2  0  0  3  0  0  0  0  0  0
  181.0620  180.0370  137.5600 C   0  0  0  0  0  3  0  0  0  0  0  0
  180.8530  181.3560  137.5380 C   0  0  0  0  0  3  0  0  0  0  0  0
  179.5220  181.9020  137.1460 C   0  0  0  0  0  2  0  0  0  0  0  0
  179.3680  183.1920  137.6600 O   0  0  0  0  0  0  0  0  0  0  0  0
  180.2350  183.6410  135.2180 O   0  0  0  0  0  0  0  0  0  0  0  0
  181.8410  184.3050  137.1680 O   0  0  0  0  0  1  0  0  0  0  0  0
  180.2450  184.2050  136.6200 P   0  0  0  0  0  0  0  0  0  0  0  0
  179.5640  185.7550  136.6100 O   0  0  0  0  0  1  0  0  0  0  0  0
  189.8070  177.3070  134.5940 O   0  0  0  0  0  0  0  0  0  0  0  0
  187.4720  177.0560  134.6040 C   0  0  0  0  0  1  0  0  0  0  0  0
  188.7650  177.4870  135.2050 C   0  0  0  0  0  0  0  0  0  0  0  0
  188.2330  178.6280  140.6260 O   0  0  0  0  0  0  0  0  0  0  0  0
  188.2970  177.7130  141.6870 C   0  0  2  0  0  3  0  0  0  0  0  0
  187.1870  177.9810  142.6860 C   0  0  0  0  0  1  0  0  0  0  0  0
  190.5280  178.7760  144.3450 C   0  0  0  0  0  2  0  0  0  0  0  0
  190.6460  176.7900  145.7370 O   0  0  0  0  0  0  0  0  0  0  0  0
  190.4430  176.4810  142.2010 C   0  0  0  0  0  0  0  0  0  0  0  0
  190.8030  176.0010  141.0930 O   0  0  0  0  0  0  0  0  0  0  0  0
  191.3530  177.6220  144.8680 C   0  0  1  0  0  3  0  0  0  0  0  0
  189.4870  177.9040  143.8350 N   0  0  2  0  0  0  0  0  0  0  0  0
  190.2160  176.7600  144.3920 C   0  0  2  0  0  0  0  0  0  0  0  0
  190.7820  175.9200  143.4120 O   0  0  0  0  0  0  0  0  0  0  0  0
  189.6640  177.7510  142.3770 C   0  0  2  0  0  3  0  0  0  0  0  0
  1  4  1  0  0  0  0
  2 28  1  6  0  0  0
  2  3  1  0  0  0  0
  2  6  1  0  0  0  0
  3  5  2  0  0  0  0
  4 29  1  1  0  0  0
  5  4  1  0  0  0  0
  6  1  1  0  0  0  0
  8 11  1  0  0  0  0
  8 13  1  0  0  0  0
  9 18  1  1  0  0  0
  9 10  1  0  0  0  0
 10  7  1  0  0  0  0
 12 16  1  0  0  0  0
 12  7  1  1  0  0  0
 14 11  1  6  0  0  0
 14  9  1  0  0  0  0
 14 15  1  0  0  0  0
 15 13  1  6  0  0  0
 16  5  1  6  0  0  0
 17 15  1  0  0  0  0
 17 12  1  0  0  0  0
 17 16  1  0  0  0  0
 19 18  2  0  0  0  0
 20 19  1  0  0  0  0
 20 21  1  0  0  0  0
 22 24  2  0  0  0  0
 24 23  1  0  0  0  0
 24 21  1  0  0  0  0
 25 24  1  0  0  0  0
 26 28  2  0  0  0  0
 27 28  1  0  0  0  0
 29 30  1  0  0  0  0
 30 40  1  0  0  0  0
 30 31  1  0  0  0  0
 32 36  1  0  0  0  0
 34 40  1  0  0  0  0
 34 39  1  0  0  0  0
 35 34  2  0  0  0  0
 36 33  1  0  0  0  0
 37 32  1  0  0  0  0
 37 38  1  0  0  0  0
 38 36  1  0  0  0  0
 38 33  1  0  0  0  0
 39 38  1  0  0  0  0
 40 37  1  0  0  0  0
M  END
>  <MODEL>
6

>  <REMARK>
 VINA RESULT:      -7.3      5.162      9.420
  Name = 
  9 active torsions:
  status: ('A' for Active; 'I' for Inactive)
    1  A    between atoms: C_1  and  C_14
    2  A    between atoms: C_1  and  O_25
    3  A    between atoms: O_5  and  C_7
    4  A    between atoms: O_5  and  C_27
    5  A    between atoms: C_7  and  C_39
    6  A    between atoms: C_11  and  C_24
    7  A    between atoms: P_17  and  O_25
    8  A    between atoms: C_22  and  C_38
    9  A    between atoms: C_31  and  C_37
                            x       y       z     vdW  Elec       q    Type
                         _______ _______ _______ _____ _____    ______ ____

>  <TORSDO>
F 9

$$$$
=
 OpenBabel11042411423D

 40 46  0  0  1  0  0  0  0  0999 V2000
  182.7920  176.0670  136.9560 C   0  0  0  0  0  2  0  0  0  0  0  0
  184.0960  173.9780  137.1250 C   0  0  1  0  0  3  0  0  0  0  0  0
  185.3530  174.8080  137.0940 C   0  0  0  0  0  3  0  0  0  0  0  0
  184.0500  176.8940  136.6700 C   0  0  2  0  0  3  0  0  0  0  0  0
  185.3390  176.1510  136.9940 C   0  0  0  0  0  0  0  0  0  0  0  0
  182.9490  174.6640  136.3930 C   0  0  0  0  0  2  0  0  0  0  0  0
  187.8980  178.5240  138.0360 C   0  0  0  0  0  2  0  0  0  0  0  0
  190.3580  174.4180  136.9840 C   0  0  0  0  0  2  0  0  0  0  0  0
  189.7310  177.2180  139.2570 C   0  0  1  0  0  3  0  0  0  0  0  0
  189.0590  178.5810  139.0300 C   0  0  0  0  0  2  0  0  0  0  0  0
  190.6010  175.1440  138.2180 N   0  0  0  0  0  2  0  0  0  0  0  0
  187.0980  177.3130  138.2320 N   0  0  1  0  0  0  0  0  0  0  0  0
  189.3570  175.2210  136.1800 C   0  0  0  0  0  2  0  0  0  0  0  0
  190.1040  176.4850  137.9500 C   0  0  1  0  0  3  0  0  0  0  0  0
  189.0180  176.3980  136.9610 N   0  0  2  0  0  0  0  0  0  0  0  0
  186.6600  176.8670  136.8970 C   0  0  1  0  0  3  0  0  0  0  0  0
  187.7150  176.1180  137.5930 C   0  0  2  0  0  3  0  0  0  0  0  0
  190.9160  177.3630  140.1680 C   0  0  0  0  0  3  0  0  0  0  0  0
  190.7900  177.3620  141.4980 C   0  0  0  0  0  3  0  0  0  0  0  0
  191.9890  177.5220  142.3690 C   0  0  0  0  0  2  0  0  0  0  0  0
  191.6200  178.1140  143.5800 O   0  0  0  0  0  0  0  0  0  0  0  0
  189.6870  176.7470  144.7260 O   0  0  0  0  0  1  0  0  0  0  0  0
  191.8600  177.1010  146.1320 O   0  0  0  0  0  1  0  0  0  0  0  0
  191.1920  176.8310  144.6030 P   0  0  0  0  0  0  0  0  0  0  0  0
  191.7900  175.3720  143.9860 O   0  0  0  0  0  0  0  0  0  0  0  0
  185.3330  172.3860  135.8880 O   0  0  0  0  0  0  0  0  0  0  0  0
  183.3790  171.5140  136.8550 C   0  0  0  0  0  1  0  0  0  0  0  0
  184.3460  172.6110  136.5700 C   0  0  0  0  0  0  0  0  0  0  0  0
  183.9780  178.1080  137.3640 O   0  0  0  0  0  0  0  0  0  0  0  0
  182.7740  178.0550  138.0790 C   0  0  2  0  0  3  0  0  0  0  0  0
  181.6420  178.6450  137.2570 C   0  0  0  0  0  1  0  0  0  0  0  0
  182.4370  178.1880  141.6910 C   0  0  0  0  0  2  0  0  0  0  0  0
  184.7290  177.8800  142.4290 O   0  0  0  0  0  0  0  0  0  0  0  0
  184.0400  179.7370  139.4770 C   0  0  0  0  0  0  0  0  0  0  0  0
  184.1790  180.7340  138.7180 O   0  0  0  0  0  0  0  0  0  0  0  0
  183.6670  178.7810  142.3390 C   0  0  1  0  0  3  0  0  0  0  0  0
  183.1590  177.7900  140.4970 N   0  0  2  0  0  0  0  0  0  0  0  0
  184.3920  178.2840  141.1180 C   0  0  2  0  0  0  0  0  0  0  0  0
  184.9080  179.4440  140.5040 O   0  0  0  0  0  0  0  0  0  0  0  0
  182.8920  178.7720  139.4270 C   0  0  2  0  0  3  0  0  0  0  0  0
  2 28  1  6  0  0  0
  3  2  1  0  0  0  0
  4  1  1  0  0  0  0
  4  5  1  0  0  0  0
  4 29  1  1  0  0  0
  5  3  2  0  0  0  0
  6  1  1  0  0  0  0
  6  2  1  0  0  0  0
  7 10  1  0  0  0  0
  8 11  1  0  0  0  0
  9 18  1  1  0  0  0
 10  9  1  0  0  0  0
 12  7  1  6  0  0  0
 13  8  1  0  0  0  0
 14 11  1  1  0  0  0
 14  9  1  0  0  0  0
 15 13  1  6  0  0  0
 15 17  1  0  0  0  0
 15 14  1  0  0  0  0
 16  5  1  1  0  0  0
 16 17  1  0  0  0  0
 16 12  1  0  0  0  0
 17 12  1  0  0  0  0
 18 19  2  0  0  0  0
 19 20  1  0  0  0  0
 20 21  1  0  0  0  0
 21 24  1  0  0  0  0
 24 22  1  0  0  0  0
 24 23  1  0  0  0  0
 25 24  2  0  0  0  0
 26 28  2  0  0  0  0
 28 27  1  0  0  0  0
 29 30  1  0  0  0  0
 30 40  1  0  0  0  0
 31 30  1  0  0  0  0
 32 36  1  0  0  0  0
 34 39  1  0  0  0  0
 35 34  2  0  0  0  0
 36 33  1  0  0  0  0
 37 38  1  0  0  0  0
 37 32  1  0  0  0  0
 38 36  1  0  0  0  0
 38 33  1  0  0  0  0
 39 38  1  0  0  0  0
 40 34  1  0  0  0  0
 40 37  1  0  0  0  0
M  END
>  <MODEL>
7

>  <REMARK>
 VINA RESULT:      -7.2      3.979      7.687
  Name = 
  9 active torsions:
  status: ('A' for Active; 'I' for Inactive)
    1  A    between atoms: C_1  and  C_14
    2  A    between atoms: C_1  and  O_25
    3  A    between atoms: O_5  and  C_7
    4  A    between atoms: O_5  and  C_27
    5  A    between atoms: C_7  and  C_39
    6  A    between atoms: C_11  and  C_24
    7  A    between atoms: P_17  and  O_25
    8  A    between atoms: C_22  and  C_38
    9  A    between atoms: C_31  and  C_37
                            x       y       z     vdW  Elec       q    Type
                         _______ _______ _______ _____ _____    ______ ____

>  <TORSDO>
F 9

$$$$
=
 OpenBabel11042411423D

 40 46  0  0  1  0  0  0  0  0999 V2000
  185.8090  178.4530  143.2590 C   0  0  0  0  0  2  0  0  0  0  0  0
  188.1220  178.0050  143.9960 C   0  0  1  0  0  3  0  0  0  0  0  0
  188.5620  178.1420  142.5610 C   0  0  0  0  0  3  0  0  0  0  0  0
  186.2000  178.3430  141.7810 C   0  0  2  0  0  3  0  0  0  0  0  0
  187.7050  178.4030  141.5550 C   0  0  0  0  0  0  0  0  0  0  0  0
  186.6770  177.5320  144.0990 C   0  0  0  0  0  2  0  0  0  0  0  0
  190.2810  178.0890  139.0010 C   0  0  0  0  0  2  0  0  0  0  0  0
  186.3770  175.7960  137.1240 C   0  0  0  0  0  2  0  0  0  0  0  0
  189.9670  175.8280  137.8400 C   0  0  1  0  0  3  0  0  0  0  0  0
  190.9280  176.9810  138.1690 C   0  0  0  0  0  2  0  0  0  0  0  0
  187.6920  175.1800  137.1040 N   0  0  0  0  0  2  0  0  0  0  0  0
  189.4000  177.5280  140.0270 N   0  0  1  0  0  0  0  0  0  0  0  0
  186.5410  177.1860  137.7030 C   0  0  0  0  0  2  0  0  0  0  0  0
  188.6140  176.2940  137.2590 C   0  0  1  0  0  3  0  0  0  0  0  0
  187.9470  177.3570  138.0280 N   0  0  2  0  0  0  0  0  0  0  0  0
  188.2500  178.4420  140.1530 C   0  0  1  0  0  3  0  0  0  0  0  0
  188.0680  177.1480  139.4830 C   0  0  2  0  0  3  0  0  0  0  0  0
  190.6370  174.8240  136.9470 C   0  0  0  0  0  3  0  0  0  0  0  0
  191.8520  174.3390  137.2150 C   0  0  0  0  0  3  0  0  0  0  0  0
  192.4900  173.3540  136.2960 C   0  0  0  0  0  2  0  0  0  0  0  0
  193.4490  173.9940  135.5060 O   0  0  0  0  0  0  0  0  0  0  0  0
  196.0580  173.6760  135.3990 O   0  0  0  0  0  0  0  0  0  0  0  0
  194.8210  172.5200  137.3880 O   0  0  0  0  0  1  0  0  0  0  0  0
  194.9070  173.8600  136.3620 P   0  0  0  0  0  0  0  0  0  0  0  0
  195.1640  175.2530  137.2900 O   0  0  0  0  0  1  0  0  0  0  0  0
  189.7810  176.3270  144.1600 O   0  0  0  0  0  0  0  0  0  0  0  0
  189.0520  177.1360  146.2400 C   0  0  0  0  0  1  0  0  0  0  0  0
  189.0410  177.0970  144.7510 C   0  0  0  0  0  0  0  0  0  0  0  0
  185.5390  179.3360  141.0490 O   0  0  0  0  0  0  0  0  0  0  0  0
  184.6200  178.6510  140.2410 C   0  0  2  0  0  3  0  0  0  0  0  0
  184.1520  179.5370  139.1010 C   0  0  0  0  0  1  0  0  0  0  0  0
  182.1670  178.9920  142.8940 C   0  0  0  0  0  2  0  0  0  0  0  0
  180.1770  179.6470  141.6680 O   0  0  0  0  0  0  0  0  0  0  0  0
  182.4660  177.3280  140.2460 C   0  0  0  0  0  0  0  0  0  0  0  0
  182.7550  176.2560  139.6510 O   0  0  0  0  0  0  0  0  0  0  0  0
  180.7790  178.6330  142.4130 C   0  0  1  0  0  3  0  0  0  0  0  0
  182.6390  179.2930  141.5560 N   0  0  2  0  0  0  0  0  0  0  0  0
  181.2880  179.0280  141.0540 C   0  0  2  0  0  0  0  0  0  0  0  0
  181.1950  177.8550  140.2760 O   0  0  0  0  0  0  0  0  0  0  0  0
  183.4260  178.1470  141.0580 C   0  0  2  0  0  3  0  0  0  0  0  0
  1  6  1  0  0  0  0
  2  6  1  0  0  0  0
  2 28  1  1  0  0  0
  3  2  1  0  0  0  0
  4 29  1  6  0  0  0
  4  1  1  0  0  0  0
  5  4  1  0  0  0  0
  5  3  2  0  0  0  0
  8 13  1  0  0  0  0
  9 18  1  6  0  0  0
  9 10  1  0  0  0  0
 10  7  1  0  0  0  0
 11  8  1  0  0  0  0
 12  7  1  6  0  0  0
 12 16  1  0  0  0  0
 14 11  1  1  0  0  0
 14  9  1  0  0  0  0
 14 15  1  0  0  0  0
 15 13  1  6  0  0  0
 15 17  1  0  0  0  0
 16  5  1  1  0  0  0
 17 12  1  0  0  0  0
 17 16  1  0  0  0  0
 18 19  2  0  0  0  0
 20 19  1  0  0  0  0
 21 20  1  0  0  0  0
 21 24  1  0  0  0  0
 22 24  2  0  0  0  0
 24 25  1  0  0  0  0
 24 23  1  0  0  0  0
 26 28  2  0  0  0  0
 28 27  1  0  0  0  0
 30 29  1  0  0  0  0
 30 40  1  0  0  0  0
 31 30  1  0  0  0  0
 33 36  1  0  0  0  0
 34 39  1  0  0  0  0
 34 40  1  0  0  0  0
 35 34  2  0  0  0  0
 36 32  1  0  0  0  0
 37 32  1  0  0  0  0
 38 37  1  0  0  0  0
 38 33  1  0  0  0  0
 38 36  1  0  0  0  0
 39 38  1  0  0  0  0
 40 37  1  0  0  0  0
M  END
>  <MODEL>
8

>  <REMARK>
 VINA RESULT:      -7.2      2.308      6.263
  Name = 
  9 active torsions:
  status: ('A' for Active; 'I' for Inactive)
    1  A    between atoms: C_1  and  C_14
    2  A    between atoms: C_1  and  O_25
    3  A    between atoms: O_5  and  C_7
    4  A    between atoms: O_5  and  C_27
    5  A    between atoms: C_7  and  C_39
    6  A    between atoms: C_11  and  C_24
    7  A    between atoms: P_17  and  O_25
    8  A    between atoms: C_22  and  C_38
    9  A    between atoms: C_31  and  C_37
                            x       y       z     vdW  Elec       q    Type
                         _______ _______ _______ _____ _____    ______ ____

>  <TORSDO>
F 9

$$$$
=
 OpenBabel11042411423D

 40 46  0  0  1  0  0  0  0  0999 V2000
  189.7970  175.7380  136.2290 C   0  0  0  0  0  2  0  0  0  0  0  0
  187.3690  176.1850  136.2000 C   0  0  1  0  0  3  0  0  0  0  0  0
  187.5470  177.0120  137.4470 C   0  0  0  0  0  3  0  0  0  0  0  0
  189.9500  176.3580  137.6230 C   0  0  2  0  0  3  0  0  0  0  0  0
  188.7420  177.1850  138.0450 C   0  0  0  0  0  0  0  0  0  0  0  0
  188.4280  175.0940  136.0910 C   0  0  0  0  0  2  0  0  0  0  0  0
  187.3110  178.8280  140.9630 C   0  0  0  0  0  2  0  0  0  0  0  0
  191.1360  176.3050  142.7020 C   0  0  0  0  0  2  0  0  0  0  0  0
  187.6150  177.2690  142.9710 C   0  0  1  0  0  3  0  0  0  0  0  0
  186.8330  178.4430  142.3640 C   0  0  0  0  0  2  0  0  0  0  0  0
  189.8370  176.2390  143.3460 N   0  0  0  0  0  2  0  0  0  0  0  0
  187.6190  177.6370  140.1680 N   0  0  1  0  0  0  0  0  0  0  0  0
  191.0270  177.3080  141.5720 C   0  0  0  0  0  2  0  0  0  0  0  0
  189.1480  177.4370  142.8930 C   0  0  1  0  0  3  0  0  0  0  0  0
  189.6600  177.8020  141.5620 N   0  0  2  0  0  0  0  0  0  0  0  0
  188.7840  177.9700  139.3290 C   0  0  1  0  0  3  0  0  0  0  0  0
  188.9630  177.0790  140.4820 C   0  0  2  0  0  3  0  0  0  0  0  0
  187.1580  177.0050  144.3770 C   0  0  0  0  0  3  0  0  0  0  0  0
  186.7220  177.9840  145.1740 C   0  0  0  0  0  3  0  0  0  0  0  0
  186.2890  177.6830  146.5690 C   0  0  0  0  0  2  0  0  0  0  0  0
  186.9250  178.5530  147.4600 O   0  0  0  0  0  0  0  0  0  0  0  0
  188.9130  178.3470  149.1690 O   0  0  0  0  0  1  0  0  0  0  0  0
  189.5210  178.1270  146.6390 O   0  0  0  0  0  0  0  0  0  0  0  0
  188.3940  177.8050  147.8570 P   0  0  0  0  0  0  0  0  0  0  0  0
  188.1780  176.1310  147.9840 O   0  0  0  0  0  1  0  0  0  0  0  0
  185.2060  175.7620  137.0590 O   0  0  0  0  0  0  0  0  0  0  0  0
  185.5750  174.8310  134.9350 C   0  0  0  0  0  1  0  0  0  0  0  0
  185.9920  175.6060  136.1370 C   0  0  0  0  0  0  0  0  0  0  0  0
  191.1240  177.1180  137.6700 O   0  0  0  0  0  0  0  0  0  0  0  0
  192.1380  176.2130  138.0130 C   0  0  2  0  0  3  0  0  0  0  0  0
  193.0640  176.8210  139.0500 C   0  0  0  0  0  1  0  0  0  0  0  0
  194.6240  176.7450  135.4230 C   0  0  0  0  0  2  0  0  0  0  0  0
  196.5070  175.4560  136.2500 O   0  0  0  0  0  0  0  0  0  0  0  0
  193.1880  174.2880  136.7530 C   0  0  0  0  0  0  0  0  0  0  0  0
  192.2950  173.4000  136.7380 O   0  0  0  0  0  0  0  0  0  0  0  0
  195.5230  175.5400  135.2640 C   0  0  1  0  0  3  0  0  0  0  0  0
  194.2650  176.3970  136.7840 N   0  0  2  0  0  0  0  0  0  0  0  0
  195.1840  175.2580  136.7020 C   0  0  2  0  0  0  0  0  0  0  0  0
  194.5330  174.0070  136.6830 O   0  0  0  0  0  0  0  0  0  0  0  0
  192.9290  175.7660  136.7790 C   0  0  2  0  0  3  0  0  0  0  0  0
  1  4  1  0  0  0  0
  2 28  1  1  0  0  0
  2  3  1  0  0  0  0
  3  5  2  0  0  0  0
  4 29  1  6  0  0  0
  4  5  1  0  0  0  0
  6  2  1  0  0  0  0
  6  1  1  0  0  0  0
  7 10  1  0  0  0  0
  8 11  1  0  0  0  0
  9 18  1  1  0  0  0
 10  9  1  0  0  0  0
 12 17  1  0  0  0  0
 12  7  1  1  0  0  0
 13  8  1  0  0  0  0
 14  9  1  0  0  0  0
 14 11  1  6  0  0  0
 15 13  1  1  0  0  0
 15 14  1  0  0  0  0
 16  5  1  6  0  0  0
 16 12  1  0  0  0  0
 16 17  1  0  0  0  0
 17 15  1  0  0  0  0
 18 19  2  0  0  0  0
 19 20  1  0  0  0  0
 20 21  1  0  0  0  0
 21 24  1  0  0  0  0
 23 24  2  0  0  0  0
 24 25  1  0  0  0  0
 24 22  1  0  0  0  0
 27 28  1  0  0  0  0
 28 26  2  0  0  0  0
 29 30  1  0  0  0  0
 30 31  1  0  0  0  0
 32 37  1  0  0  0  0
 33 38  1  0  0  0  0
 34 40  1  0  0  0  0
 35 34  2  0  0  0  0
 36 32  1  0  0  0  0
 36 33  1  0  0  0  0
 36 38  1  0  0  0  0
 38 37  1  0  0  0  0
 39 38  1  0  0  0  0
 39 34  1  0  0  0  0
 40 37  1  0  0  0  0
 40 30  1  0  0  0  0
M  END
>  <MODEL>
9

>  <REMARK>
 VINA RESULT:      -7.1      3.275      8.924
  Name = 
  9 active torsions:
  status: ('A' for Active; 'I' for Inactive)
    1  A    between atoms: C_1  and  C_14
    2  A    between atoms: C_1  and  O_25
    3  A    between atoms: O_5  and  C_7
    4  A    between atoms: O_5  and  C_27
    5  A    between atoms: C_7  and  C_39
    6  A    between atoms: C_11  and  C_24
    7  A    between atoms: P_17  and  O_25
    8  A    between atoms: C_22  and  C_38
    9  A    between atoms: C_31  and  C_37
                            x       y       z     vdW  Elec       q    Type
                         _______ _______ _______ _____ _____    ______ ____

>  <TORSDO>
F 9

$$$$
