=
 OpenBabel11032421273D

 34 37  0  0  0  0  0  0  0  0999 V2000
  186.8560  178.2540  145.5330 C   0  0  0  0  0  3  0  0  0  0  0  0
  184.3210  178.3780  142.9430 C   0  0  0  0  0  0  0  0  0  0  0  0
  187.9600  177.6250  143.4350 C   0  0  0  0  0  0  0  0  0  0  0  0
  183.4110  178.7400  143.9230 C   0  0  0  0  0  0  0  0  0  0  0  0
  181.6690  178.8880  142.3520 C   0  0  0  0  0  3  0  0  0  0  0  0
  185.6020  178.1710  143.4570 C   0  0  0  0  0  0  0  0  0  0  0  0
  183.9050  178.2700  141.6160 C   0  0  0  0  0  3  0  0  0  0  0  0
  184.1480  178.8130  145.4380 S   0  0  0  0  0  0  0  0  0  0  0  0
  182.1070  178.9870  143.6420 N   0  0  0  0  0  0  0  0  0  0  0  0
  185.6640  178.3780  144.8290 C   0  0  0  0  0  0  0  0  0  0  0  0
  188.0260  177.8930  144.8380 C   0  0  0  0  0  0  0  0  0  0  0  0
  182.5580  178.5300  141.3200 C   0  0  0  0  0  3  0  0  0  0  0  0
  186.7390  177.7880  142.7500 C   0  0  0  0  0  3  0  0  0  0  0  0
  189.3910  177.0940  146.7960 N   0  0  0  0  0  2  0  0  0  0  0  0
  190.2790  178.5730  145.2190 O   0  0  0  0  0  0  0  0  0  0  0  0
  189.2950  177.8740  145.5980 C   0  0  0  0  0  0  0  0  0  0  0  0
  190.6160  177.0360  147.5760 C   0  0  0  0  0  2  0  0  0  0  0  0
  191.4020  175.8030  147.1960 C   0  0  0  0  0  2  0  0  0  0  0  0
  192.6560  175.7290  148.0400 C   0  0  0  0  0  2  0  0  0  0  0  0
  192.8260  176.9300  148.7240 O   0  0  0  0  0  0  0  0  0  0  0  0
  193.6580  176.6050  149.7970 C   0  0  0  0  0  1  0  0  0  0  0  0
  189.5900  175.7960  142.9020 C   0  0  0  0  0  1  0  0  0  0  0  0
  189.1040  177.1550  142.6980 N   0  0  0  0  0  0  0  0  0  0  0  0
  189.5900  177.8700  141.5280 C   0  0  0  0  0  2  0  0  0  0  0  0
  189.3950  177.0220  140.2800 C   0  0  0  0  0  2  0  0  0  0  0  0
  190.5170  177.1720  139.3610 N   0  0  0  0  0  0  0  0  0  0  0  0
  193.9220  175.4750  137.3250 C   0  0  0  0  0  1  0  0  0  0  0  0
  192.9170  176.6360  139.2120 C   0  0  0  0  0  3  0  0  0  0  0  0
  191.4510  176.1480  135.9840 O   0  0  0  0  0  0  0  0  0  0  0  0
  192.7920  176.2160  137.9510 C   0  0  0  0  0  0  0  0  0  0  0  0
  191.8530  177.4520  139.8930 C   0  0  0  0  0  2  0  0  0  0  0  0
  190.3570  176.9090  137.9540 C   0  0  0  0  0  0  0  0  0  0  0  0
  188.8820  177.0020  137.2270 S   0  0  0  0  0  0  0  0  0  0  0  0
  191.5310  176.4240  137.2130 C   0  0  0  0  0  0  0  0  0  0  0  0
  2  6  1  0  0  0  0
  2  4  1  0  0  0  0
  3 11  2  0  0  0  0
  4  8  1  0  0  0  0
  5  9  1  0  0  0  0
  6 10  1  0  0  0  0
  7  2  2  0  0  0  0
  9  4  2  0  0  0  0
 10  8  1  0  0  0  0
 10  1  2  0  0  0  0
 11  1  1  0  0  0  0
 11 16  1  0  0  0  0
 12  7  1  0  0  0  0
 12  5  2  0  0  0  0
 13  3  1  0  0  0  0
 13  6  2  0  0  0  0
 14 17  1  0  0  0  0
 15 16  2  0  0  0  0
 16 14  1  0  0  0  0
 18 17  1  0  0  0  0
 18 19  1  0  0  0  0
 19 20  1  0  0  0  0
 20 21  1  0  0  0  0
 23 22  1  0  0  0  0
 23  3  1  0  0  0  0
 24 23  1  0  0  0  0
 25 24  1  0  0  0  0
 26 31  1  0  0  0  0
 26 25  1  0  0  0  0
 27 30  1  0  0  0  0
 28 31  1  0  0  0  0
 29 34  2  0  0  0  0
 30 28  2  0  0  0  0
 32 26  1  0  0  0  0
 33 32  2  0  0  0  0
 34 30  1  0  0  0  0
 34 32  1  0  0  0  0
M  END
>  <MODEL>
1

>  <REMARK>
 VINA RESULT:      -8.1      0.000      0.000
  Name = 
  9 active torsions:
  status: ('A' for Active; 'I' for Inactive)
    1  A    between atoms: N_1  and  C_26
    2  A    between atoms: C_2  and  C_9
    3  A    between atoms: C_2  and  C_28
    4  A    between atoms: N_8  and  C_28
    5  A    between atoms: C_9  and  O_24
    6  A    between atoms: C_12  and  C_26
    7  A    between atoms: C_12  and  N_29
    8  A    between atoms: C_16  and  N_29
    9  A    between atoms: C_22  and  C_31
                            x       y       z     vdW  Elec       q    Type
                         _______ _______ _______ _____ _____    ______ ____

>  <TORSDO>
F 9

$$$$
=
 OpenBabel11032421273D

 34 37  0  0  0  0  0  0  0  0999 V2000
  187.1780  178.1510  145.0030 C   0  0  0  0  0  3  0  0  0  0  0  0
  184.1930  178.4930  142.9720 C   0  0  0  0  0  0  0  0  0  0  0  0
  187.8840  177.9110  142.6670 C   0  0  0  0  0  0  0  0  0  0  0  0
  183.4740  178.6480  144.1460 C   0  0  0  0  0  0  0  0  0  0  0  0
  181.4610  178.9130  142.9630 C   0  0  0  0  0  3  0  0  0  0  0  0
  185.5550  178.2950  143.2050 C   0  0  0  0  0  0  0  0  0  0  0  0
  183.5360  178.5560  141.7430 C   0  0  0  0  0  3  0  0  0  0  0  0
  184.4830  178.5430  145.4940 S   0  0  0  0  0  0  0  0  0  0  0  0
  182.1330  178.8490  144.1510 N   0  0  0  0  0  0  0  0  0  0  0  0
  185.8700  178.3000  144.5570 C   0  0  0  0  0  0  0  0  0  0  0  0
  188.2060  177.9720  144.0590 C   0  0  0  0  0  0  0  0  0  0  0  0
  182.1490  178.7700  141.7430 C   0  0  0  0  0  3  0  0  0  0  0  0
  186.5490  178.0940  142.2510 C   0  0  0  0  0  3  0  0  0  0  0  0
  190.0790  176.7310  145.1920 N   0  0  0  0  0  2  0  0  0  0  0  0
  190.3450  178.9400  144.4740 O   0  0  0  0  0  0  0  0  0  0  0  0
  189.5960  177.9230  144.5620 C   0  0  0  0  0  0  0  0  0  0  0  0
  191.4380  176.6280  145.6970 C   0  0  0  0  0  2  0  0  0  0  0  0
  191.4220  176.6620  147.2080 C   0  0  0  0  0  2  0  0  0  0  0  0
  189.9940  176.7810  147.6910 C   0  0  0  0  0  2  0  0  0  0  0  0
  189.8250  177.9990  148.3440 O   0  0  0  0  0  0  0  0  0  0  0  0
  188.4410  178.1430  148.4600 C   0  0  0  0  0  1  0  0  0  0  0  0
  189.6310  176.3800  141.7230 C   0  0  0  0  0  1  0  0  0  0  0  0
  188.8820  177.6300  141.6690 N   0  0  0  0  0  0  0  0  0  0  0  0
  188.9440  178.3920  140.4310 C   0  0  0  0  0  2  0  0  0  0  0  0
  189.5150  177.5290  139.3150 C   0  0  0  0  0  2  0  0  0  0  0  0
  188.4850  177.1710  138.3470 N   0  0  0  0  0  0  0  0  0  0  0  0
  186.4790  177.8960  134.5960 C   0  0  0  0  0  1  0  0  0  0  0  0
  186.7190  178.2300  136.9950 C   0  0  0  0  0  3  0  0  0  0  0  0
  188.2420  175.6480  135.0390 O   0  0  0  0  0  0  0  0  0  0  0  0
  187.0520  177.5150  135.9170 C   0  0  0  0  0  0  0  0  0  0  0  0
  187.1970  177.8670  138.3740 C   0  0  0  0  0  2  0  0  0  0  0  0
  188.7670  176.2450  137.2800 C   0  0  0  0  0  0  0  0  0  0  0  0
  189.9800  175.1380  137.4030 S   0  0  0  0  0  0  0  0  0  0  0  0
  188.0230  176.4090  136.0220 C   0  0  0  0  0  0  0  0  0  0  0  0
  2  6  1  0  0  0  0
  2  4  1  0  0  0  0
  3 11  1  0  0  0  0
  4  9  2  0  0  0  0
  4  8  1  0  0  0  0
  5  9  1  0  0  0  0
  6 10  2  0  0  0  0
  7 12  1  0  0  0  0
  7  2  2  0  0  0  0
 10  1  1  0  0  0  0
 10  8  1  0  0  0  0
 11 16  1  0  0  0  0
 11  1  2  0  0  0  0
 12  5  2  0  0  0  0
 13  3  2  0  0  0  0
 13  6  1  0  0  0  0
 14 17  1  0  0  0  0
 15 16  2  0  0  0  0
 16 14  1  0  0  0  0
 17 18  1  0  0  0  0
 18 19  1  0  0  0  0
 19 20  1  0  0  0  0
 20 21  1  0  0  0  0
 23 22  1  0  0  0  0
 23  3  1  0  0  0  0
 24 23  1  0  0  0  0
 25 24  1  0  0  0  0
 26 31  1  0  0  0  0
 26 25  1  0  0  0  0
 27 30  1  0  0  0  0
 28 31  1  0  0  0  0
 29 34  2  0  0  0  0
 30 34  1  0  0  0  0
 30 28  2  0  0  0  0
 32 33  2  0  0  0  0
 32 26  1  0  0  0  0
 34 32  1  0  0  0  0
M  END
>  <MODEL>
2

>  <REMARK>
 VINA RESULT:      -8.1      2.016      2.901
  Name = 
  9 active torsions:
  status: ('A' for Active; 'I' for Inactive)
    1  A    between atoms: N_1  and  C_26
    2  A    between atoms: C_2  and  C_9
    3  A    between atoms: C_2  and  C_28
    4  A    between atoms: N_8  and  C_28
    5  A    between atoms: C_9  and  O_24
    6  A    between atoms: C_12  and  C_26
    7  A    between atoms: C_12  and  N_29
    8  A    between atoms: C_16  and  N_29
    9  A    between atoms: C_22  and  C_31
                            x       y       z     vdW  Elec       q    Type
                         _______ _______ _______ _____ _____    ______ ____

>  <TORSDO>
F 9

$$$$
=
 OpenBabel11032421273D

 34 37  0  0  0  0  0  0  0  0999 V2000
  188.3960  177.6540  146.3390 C   0  0  0  0  0  3  0  0  0  0  0  0
  185.4850  178.3480  144.2920 C   0  0  0  0  0  0  0  0  0  0  0  0
  189.0670  177.2820  144.0090 C   0  0  0  0  0  0  0  0  0  0  0  0
  184.7900  178.6170  145.4610 C   0  0  0  0  0  0  0  0  0  0  0  0
  182.8310  179.1220  144.2660 C   0  0  0  0  0  3  0  0  0  0  0  0
  186.8080  177.9770  144.5330 C   0  0  0  0  0  0  0  0  0  0  0  0
  184.8420  178.4740  143.0600 C   0  0  0  0  0  3  0  0  0  0  0  0
  185.7760  178.4050  146.8130 S   0  0  0  0  0  0  0  0  0  0  0  0
  183.4870  178.9930  145.4570 N   0  0  0  0  0  0  0  0  0  0  0  0
  187.1200  177.9660  145.8860 C   0  0  0  0  0  0  0  0  0  0  0  0
  189.3930  177.3250  145.4010 C   0  0  0  0  0  0  0  0  0  0  0  0
  183.4950  178.8680  143.0510 C   0  0  0  0  0  3  0  0  0  0  0  0
  187.7680  177.6300  143.5850 C   0  0  0  0  0  3  0  0  0  0  0  0
  191.0140  176.0350  146.8310 N   0  0  0  0  0  2  0  0  0  0  0  0
  191.7070  177.8750  145.5670 O   0  0  0  0  0  0  0  0  0  0  0  0
  190.7640  177.1030  145.9090 C   0  0  0  0  0  0  0  0  0  0  0  0
  192.3420  175.7690  147.3550 C   0  0  0  0  0  2  0  0  0  0  0  0
  192.5020  176.4400  148.7000 C   0  0  0  0  0  2  0  0  0  0  0  0
  193.8080  176.0040  149.3250 C   0  0  0  0  0  2  0  0  0  0  0  0
  194.3820  177.0790  149.9990 O   0  0  0  0  0  0  0  0  0  0  0  0
  193.3100  177.9320  150.2690 C   0  0  0  0  0  1  0  0  0  0  0  0
  190.3570  175.4400  142.9000 C   0  0  0  0  0  1  0  0  0  0  0  0
  190.0210  176.8530  143.0200 N   0  0  0  0  0  0  0  0  0  0  0  0
  190.4150  177.7280  141.9270 C   0  0  0  0  0  2  0  0  0  0  0  0
  190.8980  176.9010  140.7440 C   0  0  0  0  0  2  0  0  0  0  0  0
  189.9070  176.8830  139.6740 N   0  0  0  0  0  0  0  0  0  0  0  0
  187.7850  178.9280  136.5230 C   0  0  0  0  0  1  0  0  0  0  0  0
  188.0110  178.2150  138.8390 C   0  0  0  0  0  3  0  0  0  0  0  0
  189.8100  176.9260  136.0260 O   0  0  0  0  0  0  0  0  0  0  0  0
  188.4140  178.0800  137.5720 C   0  0  0  0  0  0  0  0  0  0  0  0
  188.5450  177.3480  139.9450 C   0  0  0  0  0  2  0  0  0  0  0  0
  190.2860  176.5500  138.3250 C   0  0  0  0  0  0  0  0  0  0  0  0
  191.6250  175.6440  138.0100 S   0  0  0  0  0  0  0  0  0  0  0  0
  189.5130  177.1550  137.2310 C   0  0  0  0  0  0  0  0  0  0  0  0
  2  6  1  0  0  0  0
  2  4  1  0  0  0  0
  3 11  1  0  0  0  0
  4  8  1  0  0  0  0
  5  9  1  0  0  0  0
  6 10  2  0  0  0  0
  7  2  2  0  0  0  0
  9  4  2  0  0  0  0
 10  1  1  0  0  0  0
 10  8  1  0  0  0  0
 11 16  1  0  0  0  0
 11  1  2  0  0  0  0
 12  7  1  0  0  0  0
 12  5  2  0  0  0  0
 13  3  2  0  0  0  0
 13  6  1  0  0  0  0
 14 17  1  0  0  0  0
 15 16  2  0  0  0  0
 16 14  1  0  0  0  0
 17 18  1  0  0  0  0
 18 19  1  0  0  0  0
 19 20  1  0  0  0  0
 20 21  1  0  0  0  0
 22 23  1  0  0  0  0
 23  3  1  0  0  0  0
 24 23  1  0  0  0  0
 25 24  1  0  0  0  0
 26 31  1  0  0  0  0
 26 25  1  0  0  0  0
 27 30  1  0  0  0  0
 28 31  1  0  0  0  0
 29 34  2  0  0  0  0
 30 28  2  0  0  0  0
 32 26  1  0  0  0  0
 33 32  2  0  0  0  0
 34 30  1  0  0  0  0
 34 32  1  0  0  0  0
M  END
>  <MODEL>
3

>  <REMARK>
 VINA RESULT:      -8.1      1.649      2.463
  Name = 
  9 active torsions:
  status: ('A' for Active; 'I' for Inactive)
    1  A    between atoms: N_1  and  C_26
    2  A    between atoms: C_2  and  C_9
    3  A    between atoms: C_2  and  C_28
    4  A    between atoms: N_8  and  C_28
    5  A    between atoms: C_9  and  O_24
    6  A    between atoms: C_12  and  C_26
    7  A    between atoms: C_12  and  N_29
    8  A    between atoms: C_16  and  N_29
    9  A    between atoms: C_22  and  C_31
                            x       y       z     vdW  Elec       q    Type
                         _______ _______ _______ _____ _____    ______ ____

>  <TORSDO>
F 9

$$$$
=
 OpenBabel11032421273D

 34 37  0  0  0  0  0  0  0  0999 V2000
  184.0320  178.9190  145.4000 C   0  0  0  0  0  3  0  0  0  0  0  0
  187.4390  177.7190  145.7190 C   0  0  0  0  0  0  0  0  0  0  0  0
  184.7820  178.3180  143.1430 C   0  0  0  0  0  0  0  0  0  0  0  0
  187.3470  177.9720  147.0780 C   0  0  0  0  0  0  0  0  0  0  0  0
  189.5350  177.1990  147.4450 C   0  0  0  0  0  3  0  0  0  0  0  0
  186.2680  178.0520  145.0350 C   0  0  0  0  0  0  0  0  0  0  0  0
  188.6130  177.1800  145.1930 C   0  0  0  0  0  3  0  0  0  0  0  0
  185.8360  178.6100  147.4750 S   0  0  0  0  0  0  0  0  0  0  0  0
  188.3720  177.7250  147.9310 N   0  0  0  0  0  0  0  0  0  0  0  0
  185.2860  178.5560  145.8770 C   0  0  0  0  0  0  0  0  0  0  0  0
  183.7590  178.7870  144.0250 C   0  0  0  0  0  0  0  0  0  0  0  0
  189.6750  176.9170  146.0720 C   0  0  0  0  0  3  0  0  0  0  0  0
  186.0330  177.9340  143.6680 C   0  0  0  0  0  3  0  0  0  0  0  0
  181.3240  178.1660  143.8790 N   0  0  0  0  0  2  0  0  0  0  0  0
  182.1440  180.1120  142.8770 O   0  0  0  0  0  0  0  0  0  0  0  0
  182.3820  179.0810  143.5700 C   0  0  0  0  0  0  0  0  0  0  0  0
  179.9540  178.4100  143.4620 C   0  0  0  0  0  2  0  0  0  0  0  0
  179.7440  177.8720  142.0660 C   0  0  0  0  0  2  0  0  0  0  0  0
  179.1910  178.9700  141.1840 C   0  0  0  0  0  2  0  0  0  0  0  0
  178.9340  180.0990  141.9560 O   0  0  0  0  0  0  0  0  0  0  0  0
  179.1990  181.1720  141.1030 C   0  0  0  0  0  1  0  0  0  0  0  0
  183.4420  177.5450  141.1710 C   0  0  0  0  0  1  0  0  0  0  0  0
  184.5870  178.2610  141.7190 N   0  0  0  0  0  0  0  0  0  0  0  0
  185.3040  179.1590  140.8250 C   0  0  0  0  0  2  0  0  0  0  0  0
  186.0400  178.3580  139.7610 C   0  0  0  0  0  2  0  0  0  0  0  0
  187.4730  178.3190  140.0290 N   0  0  0  0  0  0  0  0  0  0  0  0
  190.8270  176.6170  142.1430 C   0  0  0  0  0  1  0  0  0  0  0  0
  189.0330  178.2480  141.9340 C   0  0  0  0  0  3  0  0  0  0  0  0
  190.3360  176.1670  139.3300 O   0  0  0  0  0  0  0  0  0  0  0  0
  189.7880  177.3180  141.3410 C   0  0  0  0  0  0  0  0  0  0  0  0
  188.0120  179.0510  141.1780 C   0  0  0  0  0  2  0  0  0  0  0  0
  188.3420  177.4600  139.2670 C   0  0  0  0  0  0  0  0  0  0  0  0
  187.9320  176.9490  137.7560 S   0  0  0  0  0  0  0  0  0  0  0  0
  189.5470  176.9460  139.9330 C   0  0  0  0  0  0  0  0  0  0  0  0
  1 10  1  0  0  0  0
  2  4  1  0  0  0  0
  3 13  2  0  0  0  0
  3 11  1  0  0  0  0
  4  8  1  0  0  0  0
  4  9  2  0  0  0  0
  5  9  1  0  0  0  0
  6  2  1  0  0  0  0
  6 10  2  0  0  0  0
  7  2  2  0  0  0  0
  7 12  1  0  0  0  0
 10  8  1  0  0  0  0
 11  1  2  0  0  0  0
 12  5  2  0  0  0  0
 13  6  1  0  0  0  0
 15 16  2  0  0  0  0
 16 14  1  0  0  0  0
 16 11  1  0  0  0  0
 17 14  1  0  0  0  0
 18 17  1  0  0  0  0
 19 20  1  0  0  0  0
 19 18  1  0  0  0  0
 21 20  1  0  0  0  0
 22 23  1  0  0  0  0
 23  3  1  0  0  0  0
 24 23  1  0  0  0  0
 25 26  1  0  0  0  0
 25 24  1  0  0  0  0
 26 31  1  0  0  0  0
 29 34  2  0  0  0  0
 30 28  2  0  0  0  0
 30 27  1  0  0  0  0
 31 28  1  0  0  0  0
 32 34  1  0  0  0  0
 32 26  1  0  0  0  0
 33 32  2  0  0  0  0
 34 30  1  0  0  0  0
M  END
>  <MODEL>
4

>  <REMARK>
 VINA RESULT:      -7.9      3.102      7.464
  Name = 
  9 active torsions:
  status: ('A' for Active; 'I' for Inactive)
    1  A    between atoms: N_1  and  C_26
    2  A    between atoms: C_2  and  C_9
    3  A    between atoms: C_2  and  C_28
    4  A    between atoms: N_8  and  C_28
    5  A    between atoms: C_9  and  O_24
    6  A    between atoms: C_12  and  C_26
    7  A    between atoms: C_12  and  N_29
    8  A    between atoms: C_16  and  N_29
    9  A    between atoms: C_22  and  C_31
                            x       y       z     vdW  Elec       q    Type
                         _______ _______ _______ _____ _____    ______ ____

>  <TORSDO>
F 9

$$$$
=
 OpenBabel11032421273D

 34 37  0  0  0  0  0  0  0  0999 V2000
  187.2090  178.2820  139.6800 C   0  0  0  0  0  3  0  0  0  0  0  0
  185.7630  178.3820  143.0030 C   0  0  0  0  0  0  0  0  0  0  0  0
  188.9160  177.4240  141.2180 C   0  0  0  0  0  0  0  0  0  0  0  0
  184.6190  178.9180  142.4340 C   0  0  0  0  0  0  0  0  0  0  0  0
  183.5410  179.0200  144.5190 C   0  0  0  0  0  3  0  0  0  0  0  0
  186.7610  178.1340  142.0600 C   0  0  0  0  0  0  0  0  0  0  0  0
  185.8070  178.1460  144.3770 C   0  0  0  0  0  3  0  0  0  0  0  0
  184.8010  179.1020  140.7670 S   0  0  0  0  0  0  0  0  0  0  0  0
  183.5260  179.2380  143.1710 N   0  0  0  0  0  0  0  0  0  0  0  0
  186.3730  178.4790  140.7720 C   0  0  0  0  0  0  0  0  0  0  0  0
  188.4890  177.7330  139.8890 C   0  0  0  0  0  0  0  0  0  0  0  0
  184.6770  178.4710  145.1430 C   0  0  0  0  0  3  0  0  0  0  0  0
  188.0300  177.6130  142.2980 C   0  0  0  0  0  3  0  0  0  0  0  0
  189.6860  176.0850  138.4110 N   0  0  0  0  0  2  0  0  0  0  0  0
  189.7150  178.3760  137.9480 O   0  0  0  0  0  0  0  0  0  0  0  0
  189.3100  177.4380  138.6940 C   0  0  0  0  0  0  0  0  0  0  0  0
  190.4860  175.7390  137.2480 C   0  0  0  0  0  2  0  0  0  0  0  0
  191.8380  175.2330  137.6930 C   0  0  0  0  0  2  0  0  0  0  0  0
  192.7870  176.4030  137.8380 C   0  0  0  0  0  2  0  0  0  0  0  0
  194.0800  175.9930  137.5220 O   0  0  0  0  0  0  0  0  0  0  0  0
  194.0280  175.6990  136.1580 C   0  0  0  0  0  1  0  0  0  0  0  0
  191.3970  177.6580  140.9340 C   0  0  0  0  0  1  0  0  0  0  0  0
  190.2490  176.9570  141.4960 N   0  0  0  0  0  0  0  0  0  0  0  0
  190.5060  176.0140  142.5740 C   0  0  0  0  0  2  0  0  0  0  0  0
  191.6540  176.5120  143.4400 C   0  0  0  0  0  2  0  0  0  0  0  0
  191.1600  177.1520  144.6540 N   0  0  0  0  0  0  0  0  0  0  0  0
  187.9410  177.9020  147.4280 C   0  0  0  0  0  1  0  0  0  0  0  0
  189.2290  178.4630  145.4410 C   0  0  0  0  0  3  0  0  0  0  0  0
  190.2090  176.2210  148.0520 O   0  0  0  0  0  0  0  0  0  0  0  0
  189.1500  177.7550  146.5710 C   0  0  0  0  0  0  0  0  0  0  0  0
  190.4440  178.4260  144.5570 C   0  0  0  0  0  2  0  0  0  0  0  0
  191.2400  176.4810  145.9260 C   0  0  0  0  0  0  0  0  0  0  0  0
  192.3510  175.2960  146.2010 S   0  0  0  0  0  0  0  0  0  0  0  0
  190.2110  176.7940  146.9280 C   0  0  0  0  0  0  0  0  0  0  0  0
  1 11  2  0  0  0  0
  1 10  1  0  0  0  0
  2  7  1  0  0  0  0
  3 23  1  0  0  0  0
  3 13  2  0  0  0  0
  4  2  2  0  0  0  0
  4  9  1  0  0  0  0
  5 12  1  0  0  0  0
  6 13  1  0  0  0  0
  6  2  1  0  0  0  0
  7 12  2  0  0  0  0
  8 10  1  0  0  0  0
  8  4  1  0  0  0  0
  9  5  2  0  0  0  0
 10  6  2  0  0  0  0
 11  3  1  0  0  0  0
 14 16  1  0  0  0  0
 15 16  2  0  0  0  0
 16 11  1  0  0  0  0
 17 18  1  0  0  0  0
 17 14  1  0  0  0  0
 18 19  1  0  0  0  0
 20 19  1  0  0  0  0
 21 20  1  0  0  0  0
 22 23  1  0  0  0  0
 23 24  1  0  0  0  0
 24 25  1  0  0  0  0
 25 26  1  0  0  0  0
 26 32  1  0  0  0  0
 28 30  2  0  0  0  0
 30 34  1  0  0  0  0
 30 27  1  0  0  0  0
 31 26  1  0  0  0  0
 31 28  1  0  0  0  0
 32 33  2  0  0  0  0
 32 34  1  0  0  0  0
 34 29  2  0  0  0  0
M  END
>  <MODEL>
5

>  <REMARK>
 VINA RESULT:      -7.8      2.370      7.128
  Name = 
  9 active torsions:
  status: ('A' for Active; 'I' for Inactive)
    1  A    between atoms: N_1  and  C_26
    2  A    between atoms: C_2  and  C_9
    3  A    between atoms: C_2  and  C_28
    4  A    between atoms: N_8  and  C_28
    5  A    between atoms: C_9  and  O_24
    6  A    between atoms: C_12  and  C_26
    7  A    between atoms: C_12  and  N_29
    8  A    between atoms: C_16  and  N_29
    9  A    between atoms: C_22  and  C_31
                            x       y       z     vdW  Elec       q    Type
                         _______ _______ _______ _____ _____    ______ ____

>  <TORSDO>
F 9

$$$$
=
 OpenBabel11032421273D

 34 37  0  0  0  0  0  0  0  0999 V2000
  183.2010  178.9560  144.3880 C   0  0  0  0  0  3  0  0  0  0  0  0
  186.6280  177.8730  144.8700 C   0  0  0  0  0  0  0  0  0  0  0  0
  184.0300  178.2410  142.1930 C   0  0  0  0  0  0  0  0  0  0  0  0
  186.4910  178.2050  146.2080 C   0  0  0  0  0  0  0  0  0  0  0  0
  188.6880  177.5180  146.6790 C   0  0  0  0  0  3  0  0  0  0  0  0
  185.4690  178.1310  144.1360 C   0  0  0  0  0  0  0  0  0  0  0  0
  187.8300  177.3360  144.4080 C   0  0  0  0  0  3  0  0  0  0  0  0
  184.9530  178.8230  146.5250 S   0  0  0  0  0  0  0  0  0  0  0  0
  187.4980  178.0390  147.1010 N   0  0  0  0  0  0  0  0  0  0  0  0
  184.4500  178.6580  144.9190 C   0  0  0  0  0  0  0  0  0  0  0  0
  182.9700  178.7330  143.0170 C   0  0  0  0  0  0  0  0  0  0  0  0
  188.8730  177.1570  145.3300 C   0  0  0  0  0  3  0  0  0  0  0  0
  185.2750  177.9240  142.7730 C   0  0  0  0  0  3  0  0  0  0  0  0
  181.3610  180.0080  141.5610 N   0  0  0  0  0  2  0  0  0  0  0  0
  180.6340  178.2630  142.9360 O   0  0  0  0  0  0  0  0  0  0  0  0
  181.5990  178.9600  142.5090 C   0  0  0  0  0  0  0  0  0  0  0  0
  180.0360  180.2690  141.0250 C   0  0  0  0  0  2  0  0  0  0  0  0
  180.1560  180.9280  139.6700 C   0  0  0  0  0  2  0  0  0  0  0  0
  181.4170  180.4430  138.9880 C   0  0  0  0  0  2  0  0  0  0  0  0
  182.1210  181.5340  138.4850 O   0  0  0  0  0  0  0  0  0  0  0  0
  181.1350  182.3750  137.9660 C   0  0  0  0  0  1  0  0  0  0  0  0
  182.8090  177.2540  140.2380 C   0  0  0  0  0  1  0  0  0  0  0  0
  183.8760  178.0920  140.7700 N   0  0  0  0  0  0  0  0  0  0  0  0
  184.5380  178.9980  139.8430 C   0  0  0  0  0  2  0  0  0  0  0  0
  185.3450  178.2060  138.8250 C   0  0  0  0  0  2  0  0  0  0  0  0
  186.7760  178.3850  139.0330 N   0  0  0  0  0  0  0  0  0  0  0  0
  190.6200  176.7490  140.1160 C   0  0  0  0  0  1  0  0  0  0  0  0
  188.5220  177.8440  140.6850 C   0  0  0  0  0  3  0  0  0  0  0  0
  189.9180  177.4830  137.4090 O   0  0  0  0  0  0  0  0  0  0  0  0
  189.3770  177.4720  139.7280 C   0  0  0  0  0  0  0  0  0  0  0  0
  187.2820  178.6390  140.3850 C   0  0  0  0  0  2  0  0  0  0  0  0
  187.7100  178.1740  137.9570 C   0  0  0  0  0  0  0  0  0  0  0  0
  187.2450  178.3010  136.3820 S   0  0  0  0  0  0  0  0  0  0  0  0
  189.0610  177.7120  138.3070 C   0  0  0  0  0  0  0  0  0  0  0  0
  1 10  1  0  0  0  0
  2  4  1  0  0  0  0
  3 13  2  0  0  0  0
  3 11  1  0  0  0  0
  4  8  1  0  0  0  0
  4  9  2  0  0  0  0
  5  9  1  0  0  0  0
  6  2  1  0  0  0  0
  6 10  2  0  0  0  0
  7  2  2  0  0  0  0
  7 12  1  0  0  0  0
 10  8  1  0  0  0  0
 11  1  2  0  0  0  0
 12  5  2  0  0  0  0
 13  6  1  0  0  0  0
 14 16  1  0  0  0  0
 16 15  2  0  0  0  0
 16 11  1  0  0  0  0
 17 14  1  0  0  0  0
 18 17  1  0  0  0  0
 19 18  1  0  0  0  0
 20 19  1  0  0  0  0
 21 20  1  0  0  0  0
 22 23  1  0  0  0  0
 23  3  1  0  0  0  0
 24 23  1  0  0  0  0
 25 26  1  0  0  0  0
 25 24  1  0  0  0  0
 26 31  1  0  0  0  0
 29 34  2  0  0  0  0
 30 27  1  0  0  0  0
 30 28  2  0  0  0  0
 31 28  1  0  0  0  0
 32 34  1  0  0  0  0
 32 26  1  0  0  0  0
 33 32  2  0  0  0  0
 34 30  1  0  0  0  0
M  END
>  <MODEL>
6

>  <REMARK>
 VINA RESULT:      -7.8      3.429      7.658
  Name = 
  9 active torsions:
  status: ('A' for Active; 'I' for Inactive)
    1  A    between atoms: N_1  and  C_26
    2  A    between atoms: C_2  and  C_9
    3  A    between atoms: C_2  and  C_28
    4  A    between atoms: N_8  and  C_28
    5  A    between atoms: C_9  and  O_24
    6  A    between atoms: C_12  and  C_26
    7  A    between atoms: C_12  and  N_29
    8  A    between atoms: C_16  and  N_29
    9  A    between atoms: C_22  and  C_31
                            x       y       z     vdW  Elec       q    Type
                         _______ _______ _______ _____ _____    ______ ____

>  <TORSDO>
F 9

$$$$
=
 OpenBabel11032421273D

 34 37  0  0  0  0  0  0  0  0999 V2000
  183.0970  178.8940  144.5770 C   0  0  0  0  0  3  0  0  0  0  0  0
  186.5790  177.8970  144.4170 C   0  0  0  0  0  0  0  0  0  0  0  0
  183.5860  178.4160  142.2220 C   0  0  0  0  0  0  0  0  0  0  0  0
  186.6470  178.0980  145.7860 C   0  0  0  0  0  0  0  0  0  0  0  0
  188.9050  177.4500  145.8430 C   0  0  0  0  0  3  0  0  0  0  0  0
  185.3140  178.1790  143.8990 C   0  0  0  0  0  0  0  0  0  0  0  0
  187.7050  177.4490  143.7250 C   0  0  0  0  0  3  0  0  0  0  0  0
  185.1660  178.6280  146.3950 S   0  0  0  0  0  0  0  0  0  0  0  0
  187.7860  177.8860  146.4920 N   0  0  0  0  0  0  0  0  0  0  0  0
  184.4200  178.5940  144.8780 C   0  0  0  0  0  0  0  0  0  0  0  0
  182.6580  178.7910  143.2440 C   0  0  0  0  0  0  0  0  0  0  0  0
  188.8840  177.2230  144.4530 C   0  0  0  0  0  3  0  0  0  0  0  0
  184.9130  178.0930  142.5690 C   0  0  0  0  0  3  0  0  0  0  0  0
  180.7960  180.2370  142.3630 N   0  0  0  0  0  2  0  0  0  0  0  0
  180.3630  178.1510  143.3250 O   0  0  0  0  0  0  0  0  0  0  0  0
  181.2200  179.0140  142.9770 C   0  0  0  0  0  0  0  0  0  0  0  0
  179.3970  180.5040  142.0740 C   0  0  0  0  0  2  0  0  0  0  0  0
  179.2830  181.2530  140.7660 C   0  0  0  0  0  2  0  0  0  0  0  0
  180.2280  180.6410  139.7550 C   0  0  0  0  0  2  0  0  0  0  0  0
  180.8050  181.6510  138.9890 O   0  0  0  0  0  0  0  0  0  0  0  0
  181.1710  181.0190  137.8000 C   0  0  0  0  0  1  0  0  0  0  0  0
  183.7750  179.3770  139.9140 C   0  0  0  0  0  1  0  0  0  0  0  0
  183.2140  178.3940  140.8320 N   0  0  0  0  0  0  0  0  0  0  0  0
  182.5560  177.2350  140.2470 C   0  0  0  0  0  2  0  0  0  0  0  0
  182.1370  177.5380  138.8160 C   0  0  0  0  0  2  0  0  0  0  0  0
  182.5540  176.4770  137.9090 N   0  0  0  0  0  0  0  0  0  0  0  0
  184.5560  172.7120  137.2430 C   0  0  0  0  0  1  0  0  0  0  0  0
  184.5510  175.1430  137.3590 C   0  0  0  0  0  3  0  0  0  0  0  0
  181.6820  173.0140  137.1540 O   0  0  0  0  0  0  0  0  0  0  0  0
  183.8380  174.0160  137.2950 C   0  0  0  0  0  0  0  0  0  0  0  0
  183.9060  176.5010  137.3430 C   0  0  0  0  0  2  0  0  0  0  0  0
  181.7100  175.3340  137.6740 C   0  0  0  0  0  0  0  0  0  0  0  0
  180.0810  175.4090  137.9080 S   0  0  0  0  0  0  0  0  0  0  0  0
  182.3640  174.0590  137.3450 C   0  0  0  0  0  0  0  0  0  0  0  0
  1 10  1  0  0  0  0
  2  4  1  0  0  0  0
  3 13  2  0  0  0  0
  3 11  1  0  0  0  0
  4  8  1  0  0  0  0
  4  9  2  0  0  0  0
  5  9  1  0  0  0  0
  6  2  1  0  0  0  0
  6 10  2  0  0  0  0
  7  2  2  0  0  0  0
  7 12  1  0  0  0  0
 10  8  1  0  0  0  0
 11  1  2  0  0  0  0
 12  5  2  0  0  0  0
 13  6  1  0  0  0  0
 14 16  1  0  0  0  0
 16 11  1  0  0  0  0
 16 15  2  0  0  0  0
 17 14  1  0  0  0  0
 18 17  1  0  0  0  0
 19 18  1  0  0  0  0
 20 19  1  0  0  0  0
 21 20  1  0  0  0  0
 22 23  1  0  0  0  0
 23  3  1  0  0  0  0
 24 23  1  0  0  0  0
 25 24  1  0  0  0  0
 26 25  1  0  0  0  0
 27 30  1  0  0  0  0
 29 34  2  0  0  0  0
 30 34  1  0  0  0  0
 30 28  2  0  0  0  0
 31 28  1  0  0  0  0
 31 26  1  0  0  0  0
 32 33  2  0  0  0  0
 32 26  1  0  0  0  0
 34 32  1  0  0  0  0
M  END
>  <MODEL>
7

>  <REMARK>
 VINA RESULT:      -7.6      5.351      8.943
  Name = 
  9 active torsions:
  status: ('A' for Active; 'I' for Inactive)
    1  A    between atoms: N_1  and  C_26
    2  A    between atoms: C_2  and  C_9
    3  A    between atoms: C_2  and  C_28
    4  A    between atoms: N_8  and  C_28
    5  A    between atoms: C_9  and  O_24
    6  A    between atoms: C_12  and  C_26
    7  A    between atoms: C_12  and  N_29
    8  A    between atoms: C_16  and  N_29
    9  A    between atoms: C_22  and  C_31
                            x       y       z     vdW  Elec       q    Type
                         _______ _______ _______ _____ _____    ______ ____

>  <TORSDO>
F 9

$$$$
=
 OpenBabel11032421273D

 34 37  0  0  0  0  0  0  0  0999 V2000
  191.9490  177.6220  141.8780 C   0  0  0  0  0  3  0  0  0  0  0  0
  191.2570  176.4360  138.5220 C   0  0  0  0  0  0  0  0  0  0  0  0
  189.5440  177.1510  141.7780 C   0  0  0  0  0  0  0  0  0  0  0  0
  192.6010  176.6150  138.2360 C   0  0  0  0  0  0  0  0  0  0  0  0
  192.3110  175.8430  136.0360 C   0  0  0  0  0  3  0  0  0  0  0  0
  190.9390  176.7950  139.8330 C   0  0  0  0  0  0  0  0  0  0  0  0
  190.4000  175.9370  137.5400 C   0  0  0  0  0  3  0  0  0  0  0  0
  193.4300  177.2170  139.5760 S   0  0  0  0  0  0  0  0  0  0  0  0
  193.1250  176.3310  137.0180 N   0  0  0  0  0  0  0  0  0  0  0  0
  192.0440  177.2450  140.5440 C   0  0  0  0  0  0  0  0  0  0  0  0
  190.6970  177.5620  142.5180 C   0  0  0  0  0  0  0  0  0  0  0  0
  190.9400  175.6360  136.2800 C   0  0  0  0  0  3  0  0  0  0  0  0
  189.6840  176.7500  140.4340 C   0  0  0  0  0  3  0  0  0  0  0  0
  190.9460  176.8370  144.9160 N   0  0  0  0  0  2  0  0  0  0  0  0
  190.3190  179.0210  144.3660 O   0  0  0  0  0  0  0  0  0  0  0  0
  190.6530  177.8680  143.9650 C   0  0  0  0  0  0  0  0  0  0  0  0
  190.9230  177.0860  146.3470 C   0  0  0  0  0  2  0  0  0  0  0  0
  189.5370  176.8210  146.8870 C   0  0  0  0  0  2  0  0  0  0  0  0
  189.2170  177.8370  147.9620 C   0  0  0  0  0  2  0  0  0  0  0  0
  187.8380  178.0140  148.0370 O   0  0  0  0  0  0  0  0  0  0  0  0
  187.3720  177.6620  146.7680 C   0  0  0  0  0  1  0  0  0  0  0  0
  187.8830  176.2220  143.4110 C   0  0  0  0  0  1  0  0  0  0  0  0
  188.2260  177.1680  142.3570 N   0  0  0  0  0  0  0  0  0  0  0  0
  187.3340  178.3010  142.1600 C   0  0  0  0  0  2  0  0  0  0  0  0
  186.1250  178.1780  143.0760 C   0  0  0  0  0  2  0  0  0  0  0  0
  184.9330  178.7390  142.4530 N   0  0  0  0  0  0  0  0  0  0  0  0
  181.2590  178.1810  140.2580 C   0  0  0  0  0  1  0  0  0  0  0  0
  183.6570  178.5890  140.3510 C   0  0  0  0  0  3  0  0  0  0  0  0
  181.3370  178.8950  143.0590 O   0  0  0  0  0  0  0  0  0  0  0  0
  182.4930  178.5500  141.0060 C   0  0  0  0  0  0  0  0  0  0  0  0
  184.9350  179.0200  141.0150 C   0  0  0  0  0  2  0  0  0  0  0  0
  183.7110  178.8870  143.2000 C   0  0  0  0  0  0  0  0  0  0  0  0
  183.7190  178.9980  144.8440 S   0  0  0  0  0  0  0  0  0  0  0  0
  182.4440  178.8010  142.4590 C   0  0  0  0  0  0  0  0  0  0  0  0
  1 11  1  0  0  0  0
  2  6  1  0  0  0  0
  3 23  1  0  0  0  0
  3 11  2  0  0  0  0
  4  2  1  0  0  0  0
  4  8  1  0  0  0  0
  5 12  2  0  0  0  0
  5  9  1  0  0  0  0
  6 13  2  0  0  0  0
  6 10  1  0  0  0  0
  7  2  2  0  0  0  0
  8 10  1  0  0  0  0
  9  4  2  0  0  0  0
 10  1  2  0  0  0  0
 11 16  1  0  0  0  0
 12  7  1  0  0  0  0
 13  3  1  0  0  0  0
 14 17  1  0  0  0  0
 16 15  2  0  0  0  0
 16 14  1  0  0  0  0
 17 18  1  0  0  0  0
 18 19  1  0  0  0  0
 19 20  1  0  0  0  0
 21 20  1  0  0  0  0
 23 22  1  0  0  0  0
 24 23  1  0  0  0  0
 24 25  1  0  0  0  0
 26 25  1  0  0  0  0
 26 32  1  0  0  0  0
 27 30  1  0  0  0  0
 28 30  2  0  0  0  0
 28 31  1  0  0  0  0
 30 34  1  0  0  0  0
 31 26  1  0  0  0  0
 32 33  2  0  0  0  0
 34 29  2  0  0  0  0
 34 32  1  0  0  0  0
M  END
>  <MODEL>
8

>  <REMARK>
 VINA RESULT:      -7.6      2.582      7.781
  Name = 
  9 active torsions:
  status: ('A' for Active; 'I' for Inactive)
    1  A    between atoms: N_1  and  C_26
    2  A    between atoms: C_2  and  C_9
    3  A    between atoms: C_2  and  C_28
    4  A    between atoms: N_8  and  C_28
    5  A    between atoms: C_9  and  O_24
    6  A    between atoms: C_12  and  C_26
    7  A    between atoms: C_12  and  N_29
    8  A    between atoms: C_16  and  N_29
    9  A    between atoms: C_22  and  C_31
                            x       y       z     vdW  Elec       q    Type
                         _______ _______ _______ _____ _____    ______ ____

>  <TORSDO>
F 9

$$$$
=
 OpenBabel11032421273D

 34 37  0  0  0  0  0  0  0  0999 V2000
  188.1490  177.8600  141.2940 C   0  0  0  0  0  3  0  0  0  0  0  0
  185.7260  178.3250  143.9510 C   0  0  0  0  0  0  0  0  0  0  0  0
  186.0490  178.5410  140.2230 C   0  0  0  0  0  0  0  0  0  0  0  0
  186.7140  177.9510  144.8480 C   0  0  0  0  0  0  0  0  0  0  0  0
  185.2640  178.2340  146.6750 C   0  0  0  0  0  3  0  0  0  0  0  0
  186.1720  178.3050  142.6290 C   0  0  0  0  0  0  0  0  0  0  0  0
  184.4600  178.6770  144.4210 C   0  0  0  0  0  3  0  0  0  0  0  0
  188.1520  177.5840  144.0470 S   0  0  0  0  0  0  0  0  0  0  0  0
  186.4940  177.8990  146.1850 N   0  0  0  0  0  0  0  0  0  0  0  0
  187.5010  177.9160  142.5220 C   0  0  0  0  0  0  0  0  0  0  0  0
  187.4330  178.1910  140.1280 C   0  0  0  0  0  0  0  0  0  0  0  0
  184.2300  178.6290  145.8050 C   0  0  0  0  0  3  0  0  0  0  0  0
  185.4340  178.6130  141.4890 C   0  0  0  0  0  3  0  0  0  0  0  0
  188.6340  176.9980  138.2650 N   0  0  0  0  0  2  0  0  0  0  0  0
  188.4560  179.3280  138.3000 O   0  0  0  0  0  0  0  0  0  0  0  0
  188.1810  178.2240  138.8520 C   0  0  0  0  0  0  0  0  0  0  0  0
  189.3670  176.9740  137.0110 C   0  0  0  0  0  2  0  0  0  0  0  0
  190.7520  176.4160  137.2420 C   0  0  0  0  0  2  0  0  0  0  0  0
  190.9650  176.2040  138.7240 C   0  0  0  0  0  2  0  0  0  0  0  0
  192.0930  176.9100  139.1370 O   0  0  0  0  0  0  0  0  0  0  0  0
  191.7190  177.4830  140.3530 C   0  0  0  0  0  1  0  0  0  0  0  0
  185.2110  177.8060  137.9770 C   0  0  0  0  0  1  0  0  0  0  0  0
  185.2470  178.7880  139.0540 N   0  0  0  0  0  0  0  0  0  0  0  0
  184.2240  179.8220  139.0490 C   0  0  0  0  0  2  0  0  0  0  0  0
  182.9400  179.2820  138.4360 C   0  0  0  0  0  2  0  0  0  0  0  0
  181.9390  179.0130  139.4610 N   0  0  0  0  0  0  0  0  0  0  0  0
  180.7530  179.0310  143.6100 C   0  0  0  0  0  1  0  0  0  0  0  0
  181.7460  177.9440  141.6720 C   0  0  0  0  0  3  0  0  0  0  0  0
  179.6900  180.8730  141.6520 O   0  0  0  0  0  0  0  0  0  0  0  0
  181.0030  178.9490  142.1450 C   0  0  0  0  0  0  0  0  0  0  0  0
  181.9860  177.7500  140.2010 C   0  0  0  0  0  2  0  0  0  0  0  0
  180.9950  180.0280  139.8540 C   0  0  0  0  0  0  0  0  0  0  0  0
  180.5980  181.2660  138.8440 S   0  0  0  0  0  0  0  0  0  0  0  0
  180.4970  179.9970  141.2370 C   0  0  0  0  0  0  0  0  0  0  0  0
  1 10  1  0  0  0  0
  2  7  2  0  0  0  0
  2  4  1  0  0  0  0
  3 13  2  0  0  0  0
  4  9  2  0  0  0  0
  6  2  1  0  0  0  0
  7 12  1  0  0  0  0
  8  4  1  0  0  0  0
  9  5  1  0  0  0  0
 10  6  2  0  0  0  0
 10  8  1  0  0  0  0
 11  3  1  0  0  0  0
 11  1  2  0  0  0  0
 12  5  2  0  0  0  0
 13  6  1  0  0  0  0
 14 16  1  0  0  0  0
 15 16  2  0  0  0  0
 16 11  1  0  0  0  0
 17 18  1  0  0  0  0
 17 14  1  0  0  0  0
 18 19  1  0  0  0  0
 19 20  1  0  0  0  0
 20 21  1  0  0  0  0
 22 23  1  0  0  0  0
 23  3  1  0  0  0  0
 24 23  1  0  0  0  0
 25 24  1  0  0  0  0
 25 26  1  0  0  0  0
 26 32  1  0  0  0  0
 26 31  1  0  0  0  0
 28 30  2  0  0  0  0
 30 27  1  0  0  0  0
 31 28  1  0  0  0  0
 32 34  1  0  0  0  0
 33 32  2  0  0  0  0
 34 29  2  0  0  0  0
 34 30  1  0  0  0  0
M  END
>  <MODEL>
9

>  <REMARK>
 VINA RESULT:      -7.6      3.833      8.144
  Name = 
  9 active torsions:
  status: ('A' for Active; 'I' for Inactive)
    1  A    between atoms: N_1  and  C_26
    2  A    between atoms: C_2  and  C_9
    3  A    between atoms: C_2  and  C_28
    4  A    between atoms: N_8  and  C_28
    5  A    between atoms: C_9  and  O_24
    6  A    between atoms: C_12  and  C_26
    7  A    between atoms: C_12  and  N_29
    8  A    between atoms: C_16  and  N_29
    9  A    between atoms: C_22  and  C_31
                            x       y       z     vdW  Elec       q    Type
                         _______ _______ _______ _____ _____    ______ ____

>  <TORSDO>
F 9

$$$$
