=
 OpenBabel11032420393D

 45 50  0  0  1  0  0  0  0  0999 V2000
  185.2710  178.1930  137.8840 C   0  0  0  0  0  2  0  0  0  0  0  0
  181.9850  179.0570  137.2130 C   0  0  1  0  0  3  0  0  0  0  0  0
  180.6100  179.5410  140.4770 C   0  0  0  0  0  3  0  0  0  0  0  0
  183.2200  178.3620  139.3530 C   0  0  0  0  0  0  0  0  0  0  0  0
  181.0660  178.8680  141.5350 C   0  0  0  0  0  0  0  0  0  0  0  0
  182.2780  179.1070  138.7090 C   0  0  0  0  0  0  0  0  0  0  0  0
  183.4370  178.4330  140.8170 C   0  0  0  0  0  3  0  0  0  0  0  0
  182.4210  176.8440  136.9110 C   0  0  0  0  0  2  0  0  0  0  0  0
  183.5420  176.3350  137.8050 C   0  0  1  0  0  3  0  0  0  0  0  0
  184.1870  177.4410  138.6470 C   0  0  1  0  0  3  0  0  0  0  0  0
  182.5110  178.6410  141.7610 C   0  0  0  0  0  3  0  0  0  0  0  0
  181.5100  180.1520  139.4570 C   0  0  0  0  0  2  0  0  0  0  0  0
  183.0160  175.2290  138.7010 C   0  0  0  0  0  1  0  0  0  0  0  0
  182.7320  178.1320  136.4520 O   0  0  0  0  0  0  0  0  0  0  0  0
  180.1070  178.4040  142.5530 C   0  0  0  0  0  0  0  0  0  0  0  0
  179.8970  179.1420  143.7120 O   0  0  0  0  0  1  0  0  0  0  0  0
  179.4680  177.3310  142.3860 O   0  0  0  0  0  0  0  0  0  0  0  0
  180.6120  178.9160  136.9690 O   0  0  0  0  0  0  0  0  0  0  0  0
  180.3800  179.6260  135.7900 C   0  0  0  0  0  2  0  0  0  0  0  0
  179.5580  181.7480  136.6780 C   0  0  0  0  0  3  0  0  0  0  0  0
  180.5260  181.0860  136.0530 C   0  0  0  0  0  3  0  0  0  0  0  0
  181.1240  183.4980  137.3870 C   0  0  0  0  0  1  0  0  0  0  0  0
  179.7040  183.2050  136.9470 C   0  0  0  0  0  2  0  0  0  0  0  0
  187.3820  175.6290  136.4960 C   0  0  0  0  0  0  0  0  0  0  0  0
  188.8970  175.0410  134.8030 C   0  0  0  0  0  3  0  0  0  0  0  0
  189.5370  176.7270  136.4270 N   0  0  0  0  0  0  0  0  0  0  0  0
  187.6560  177.4280  137.8610 C   0  0  0  0  0  0  0  0  0  0  0  0
  186.2210  176.1850  136.6030 N   0  0  0  0  0  0  0  0  0  0  0  0
  186.3860  177.2710  137.5090 C   0  0  0  0  0  0  0  0  0  0  0  0
  188.4450  176.2940  137.3060 C   0  0  1  0  0  3  0  0  0  0  0  0
  189.7930  176.1160  135.3030 C   0  0  0  0  0  3  0  0  0  0  0  0
  187.7410  174.8360  135.3650 N   0  0  0  0  0  0  0  0  0  0  0  0
  188.1810  178.4780  138.7870 C   0  0  0  0  0  2  0  0  0  0  0  0
  189.4120  177.3380  140.6210 C   0  0  0  0  0  3  0  0  0  0  0  0
  187.3810  178.0390  141.0570 N   0  0  0  0  0  0  0  0  0  0  0  0
  187.8880  177.4800  142.1700 C   0  0  0  0  0  0  0  0  0  0  0  0
  189.1740  177.0180  141.9490 C   0  0  0  0  0  3  0  0  0  0  0  0
  188.3150  177.9380  140.1300 N   0  0  0  0  0  0  0  0  0  0  0  0
  187.1550  177.3740  143.4650 C   0  0  0  0  0  3  0  0  0  0  0  0
  185.9460  178.3110  143.4680 C   0  0  0  0  0  2  0  0  0  0  0  0
  185.2760  178.2820  144.8390 C   0  0  0  0  0  2  0  0  0  0  0  0
  185.5220  178.6250  147.1370 C   0  0  0  0  0  1  0  0  0  0  0  0
  186.2300  178.6880  145.8710 N   0  0  0  0  0  0  0  0  0  0  0  0
  188.0900  177.6940  144.6320 C   0  0  0  0  0  2  0  0  0  0  0  0
  187.2970  177.6900  145.9360 C   0  0  0  0  0  2  0  0  0  0  0  0
  2 18  1  1  0  0  0
  2  6  1  0  0  0  0
  3  5  2  0  0  0  0
  4  7  1  0  0  0  0
  5 11  1  0  0  0  0
  5 15  1  0  0  0  0
  6  4  2  0  0  0  0
  6 12  1  0  0  0  0
  7 11  2  0  0  0  0
  8  9  1  0  0  0  0
  9 10  1  0  0  0  0
  9 13  1  1  0  0  0
 10  1  1  6  0  0  0
 10  4  1  0  0  0  0
 12  3  1  0  0  0  0
 14  8  1  0  0  0  0
 14  2  1  0  0  0  0
 15 16  1  0  0  0  0
 17 15  2  0  0  0  0
 19 21  1  0  0  0  0
 19 18  1  0  0  0  0
 20 23  1  0  0  0  0
 21 20  2  0  0  0  0
 23 22  1  0  0  0  0
 24 28  2  0  0  0  0
 24 30  1  0  0  0  0
 25 31  1  0  0  0  0
 25 32  2  0  0  0  0
 27 33  1  0  0  0  0
 28 29  1  0  0  0  0
 29 27  2  0  0  0  0
 29  1  1  0  0  0  0
 30 26  1  6  0  0  0
 30 27  1  0  0  0  0
 31 26  2  0  0  0  0
 32 24  1  0  0  0  0
 33 38  1  0  0  0  0
 34 37  2  0  0  0  0
 35 36  2  0  0  0  0
 36 39  1  0  0  0  0
 37 36  1  0  0  0  0
 38 34  1  0  0  0  0
 38 35  1  0  0  0  0
 39 40  1  0  0  0  0
 39 44  1  0  0  0  0
 40 41  1  0  0  0  0
 41 43  1  0  0  0  0
 43 45  1  0  0  0  0
 43 42  1  0  0  0  0
 44 45  1  0  0  0  0
M  END
>  <MODEL>
1

>  <REMARK>
 VINA RESULT:      -7.5      0.000      0.000
  Name = 
  10 active torsions:
  status: ('A' for Active; 'I' for Inactive)
    1  A    between atoms: C_3  and  O_25
    2  A    between atoms: C_4  and  C_34
    3  A    between atoms: C_7  and  O_25
    4  A    between atoms: C_7  and  C_40
    5  A    between atoms: C_8  and  C_16
    6  A    between atoms: C_11  and  C_18
    7  A    between atoms: C_12  and  C_30
    8  A    between atoms: C_12  and  C_32
    9  A    between atoms: C_21  and  C_22
   10  A    between atoms: C_22  and  N_39
                            x       y       z     vdW  Elec       q    Type
                         _______ _______ _______ _____ _____    ______ ____

>  <TORSDO>
F 10

$$$$
=
 OpenBabel11032420393D

 45 50  0  0  1  0  0  0  0  0999 V2000
  189.1970  178.6110  142.1090 C   0  0  0  0  0  2  0  0  0  0  0  0
  187.4640  177.9230  145.0280 C   0  0  1  0  0  3  0  0  0  0  0  0
  190.0840  177.3940  147.4010 C   0  0  0  0  0  3  0  0  0  0  0  0
  189.9240  177.6690  144.3400 C   0  0  0  0  0  0  0  0  0  0  0  0
  191.2710  176.9060  147.0340 C   0  0  0  0  0  0  0  0  0  0  0  0
  188.9690  177.9540  145.2700 C   0  0  0  0  0  0  0  0  0  0  0  0
  191.3730  177.6880  144.6460 C   0  0  0  0  0  3  0  0  0  0  0  0
  187.4520  176.2020  143.5380 C   0  0  0  0  0  2  0  0  0  0  0  0
  188.6850  176.1820  142.6470 C   0  0  1  0  0  3  0  0  0  0  0  0
  189.6200  177.3730  142.8910 C   0  0  1  0  0  3  0  0  0  0  0  0
  191.9590  177.3510  145.8010 C   0  0  0  0  0  3  0  0  0  0  0  0
  189.3690  178.4480  146.6260 C   0  0  0  0  0  2  0  0  0  0  0  0
  189.4330  174.8770  142.8430 C   0  0  0  0  0  1  0  0  0  0  0  0
  187.0380  177.5260  143.7410 O   0  0  0  0  0  0  0  0  0  0  0  0
  191.9570  175.9540  147.9270 C   0  0  0  0  0  0  0  0  0  0  0  0
  193.0380  176.3650  148.6980 O   0  0  0  0  0  1  0  0  0  0  0  0
  191.5730  174.7570  147.9980 O   0  0  0  0  0  0  0  0  0  0  0  0
  186.8040  177.1890  146.0230 O   0  0  0  0  0  0  0  0  0  0  0  0
  185.8700  178.0740  146.5640 C   0  0  0  0  0  2  0  0  0  0  0  0
  183.8770  178.6480  145.2730 C   0  0  0  0  0  3  0  0  0  0  0  0
  185.1840  178.8050  145.4610 C   0  0  0  0  0  3  0  0  0  0  0  0
  183.7540  178.9400  142.8410 C   0  0  0  0  0  1  0  0  0  0  0  0
  183.1880  179.3810  144.1750 C   0  0  0  0  0  2  0  0  0  0  0  0
  187.5900  178.0580  138.9360 C   0  0  0  0  0  0  0  0  0  0  0  0
  187.1420  178.9000  136.7930 C   0  0  0  0  0  3  0  0  0  0  0  0
  189.4250  178.3270  137.3820 N   0  0  0  0  0  0  0  0  0  0  0  0
  189.6880  177.8210  139.7820 C   0  0  0  0  0  0  0  0  0  0  0  0
  187.5350  178.4580  140.1630 N   0  0  0  0  0  0  0  0  0  0  0  0
  188.8340  178.2470  140.7050 C   0  0  0  0  0  0  0  0  0  0  0  0
  188.9340  177.5520  138.5280 C   0  0  1  0  0  3  0  0  0  0  0  0
  188.6060  178.8980  136.5410 C   0  0  0  0  0  3  0  0  0  0  0  0
  186.6730  178.5200  137.9460 N   0  0  0  0  0  0  0  0  0  0  0  0
  191.1340  177.5150  140.0080 C   0  0  0  0  0  2  0  0  0  0  0  0
  190.8620  175.5190  138.5520 C   0  0  0  0  0  3  0  0  0  0  0  0
  192.7800  176.5760  138.4600 N   0  0  0  0  0  0  0  0  0  0  0  0
  192.8150  175.5520  137.5890 C   0  0  0  0  0  0  0  0  0  0  0  0
  191.6240  174.8480  137.6080 C   0  0  0  0  0  3  0  0  0  0  0  0
  191.5940  176.5360  139.0370 N   0  0  0  0  0  0  0  0  0  0  0  0
  193.9860  175.2260  136.7240 C   0  0  0  0  0  3  0  0  0  0  0  0
  195.1590  174.7460  137.5790 C   0  0  0  0  0  2  0  0  0  0  0  0
  196.3850  174.5300  136.6950 C   0  0  0  0  0  2  0  0  0  0  0  0
  197.8960  175.4850  135.1900 C   0  0  0  0  0  1  0  0  0  0  0  0
  196.7350  175.7750  136.0120 N   0  0  0  0  0  0  0  0  0  0  0  0
  194.3850  176.4430  135.8900 C   0  0  0  0  0  2  0  0  0  0  0  0
  195.6490  176.1250  135.0970 C   0  0  0  0  0  2  0  0  0  0  0  0
  2  6  1  0  0  0  0
  2 18  1  1  0  0  0
  4  7  1  0  0  0  0
  4  6  2  0  0  0  0
  5  3  2  0  0  0  0
  5 15  1  0  0  0  0
  6 12  1  0  0  0  0
  7 11  2  0  0  0  0
  8 14  1  0  0  0  0
  9 13  1  1  0  0  0
  9 10  1  0  0  0  0
  9  8  1  0  0  0  0
 10  1  1  1  0  0  0
 10  4  1  0  0  0  0
 11  5  1  0  0  0  0
 12  3  1  0  0  0  0
 14  2  1  0  0  0  0
 15 17  2  0  0  0  0
 15 16  1  0  0  0  0
 18 19  1  0  0  0  0
 20 21  2  0  0  0  0
 21 19  1  0  0  0  0
 22 23  1  0  0  0  0
 23 20  1  0  0  0  0
 24 28  2  0  0  0  0
 25 32  2  0  0  0  0
 27 33  1  0  0  0  0
 27 29  2  0  0  0  0
 28 29  1  0  0  0  0
 29  1  1  0  0  0  0
 30 26  1  6  0  0  0
 30 24  1  0  0  0  0
 30 27  1  0  0  0  0
 31 25  1  0  0  0  0
 31 26  2  0  0  0  0
 32 24  1  0  0  0  0
 34 38  1  0  0  0  0
 35 38  1  0  0  0  0
 36 37  1  0  0  0  0
 36 35  2  0  0  0  0
 37 34  2  0  0  0  0
 38 33  1  0  0  0  0
 39 40  1  0  0  0  0
 39 36  1  0  0  0  0
 41 40  1  0  0  0  0
 42 43  1  0  0  0  0
 43 41  1  0  0  0  0
 44 39  1  0  0  0  0
 45 44  1  0  0  0  0
 45 43  1  0  0  0  0
M  END
>  <MODEL>
2

>  <REMARK>
 VINA RESULT:      -7.0      4.650      9.293
  Name = 
  10 active torsions:
  status: ('A' for Active; 'I' for Inactive)
    1  A    between atoms: C_3  and  O_25
    2  A    between atoms: C_4  and  C_34
    3  A    between atoms: C_7  and  O_25
    4  A    between atoms: C_7  and  C_40
    5  A    between atoms: C_8  and  C_16
    6  A    between atoms: C_11  and  C_18
    7  A    between atoms: C_12  and  C_30
    8  A    between atoms: C_12  and  C_32
    9  A    between atoms: C_21  and  C_22
   10  A    between atoms: C_22  and  N_39
                            x       y       z     vdW  Elec       q    Type
                         _______ _______ _______ _____ _____    ______ ____

>  <TORSDO>
F 10

$$$$
=
 OpenBabel11032420393D

 45 50  0  0  1  0  0  0  0  0999 V2000
  188.3540  176.7480  139.9280 C   0  0  0  0  0  2  0  0  0  0  0  0
  188.5780  175.1120  136.8840 C   0  0  1  0  0  3  0  0  0  0  0  0
  192.1060  174.9430  136.3310 C   0  0  0  0  0  3  0  0  0  0  0  0
  190.2670  176.4200  138.3070 C   0  0  0  0  0  0  0  0  0  0  0  0
  192.9340  175.8750  136.8080 C   0  0  0  0  0  0  0  0  0  0  0  0
  189.9600  175.3930  137.4670 C   0  0  0  0  0  0  0  0  0  0  0  0
  191.6370  176.6590  138.8160 C   0  0  0  0  0  3  0  0  0  0  0  0
  187.9000  177.2770  136.7030 C   0  0  0  0  0  2  0  0  0  0  0  0
  188.4370  178.1600  137.8190 C   0  0  1  0  0  3  0  0  0  0  0  0
  189.2440  177.3810  138.8650 C   0  0  1  0  0  3  0  0  0  0  0  0
  192.7880  176.4350  138.1710 C   0  0  0  0  0  3  0  0  0  0  0  0
  190.9940  174.3610  137.1360 C   0  0  0  0  0  2  0  0  0  0  0  0
  189.2800  179.2730  137.2260 C   0  0  0  0  0  1  0  0  0  0  0  0
  187.5520  176.0210  137.2210 O   0  0  0  0  0  0  0  0  0  0  0  0
  194.0770  176.3030  135.9830 C   0  0  0  0  0  0  0  0  0  0  0  0
  193.8690  176.9100  134.7500 O   0  0  0  0  0  0  0  0  0  0  0  0
  195.2580  176.1210  136.3850 O   0  0  0  0  0  1  0  0  0  0  0  0
  188.6420  174.9170  135.4970 O   0  0  0  0  0  0  0  0  0  0  0  0
  188.1580  173.6240  135.2920 C   0  0  0  0  0  2  0  0  0  0  0  0
  186.3030  172.3510  136.2430 C   0  0  0  0  0  3  0  0  0  0  0  0
  186.7700  173.5240  135.8260 C   0  0  0  0  0  3  0  0  0  0  0  0
  184.6060  173.4810  137.6070 C   0  0  0  0  0  1  0  0  0  0  0  0
  184.9180  172.2490  136.7820 C   0  0  0  0  0  2  0  0  0  0  0  0
  190.0700  176.6910  143.0920 C   0  0  0  0  0  0  0  0  0  0  0  0
  191.9640  177.3560  144.3060 C   0  0  0  0  0  3  0  0  0  0  0  0
  190.4060  179.0460  143.5310 N   0  0  0  0  0  0  0  0  0  0  0  0
  188.7150  178.1410  141.9790 C   0  0  0  0  0  0  0  0  0  0  0  0
  189.7940  176.1350  141.9590 N   0  0  0  0  0  0  0  0  0  0  0  0
  188.8960  177.0170  141.2950 C   0  0  0  0  0  0  0  0  0  0  0  0
  189.3960  178.0070  143.2960 C   0  0  1  0  0  3  0  0  0  0  0  0
  191.5670  178.7650  144.0550 C   0  0  0  0  0  3  0  0  0  0  0  0
  191.2560  176.3770  143.8210 N   0  0  0  0  0  0  0  0  0  0  0  0
  187.8470  179.2840  141.5640 C   0  0  0  0  0  2  0  0  0  0  0  0
  185.8120  178.4310  142.7080 C   0  0  0  0  0  3  0  0  0  0  0  0
  185.6120  179.0160  140.6050 N   0  0  0  0  0  0  0  0  0  0  0  0
  184.4100  178.6120  141.0510 C   0  0  0  0  0  0  0  0  0  0  0  0
  184.4800  178.2290  142.3790 C   0  0  0  0  0  3  0  0  0  0  0  0
  186.4480  178.8940  141.6180 N   0  0  0  0  0  0  0  0  0  0  0  0
  183.1720  178.5820  140.2190 C   0  0  0  0  0  3  0  0  0  0  0  0
  182.9390  177.1760  139.6650 C   0  0  0  0  0  2  0  0  0  0  0  0
  181.7390  177.1870  138.7210 C   0  0  0  0  0  2  0  0  0  0  0  0
  180.7900  178.0870  136.7850 C   0  0  0  0  0  1  0  0  0  0  0  0
  181.9730  178.1280  137.6260 N   0  0  0  0  0  0  0  0  0  0  0  0
  183.2700  179.6020  139.0850 C   0  0  0  0  0  2  0  0  0  0  0  0
  182.0460  179.4780  138.1810 C   0  0  0  0  0  2  0  0  0  0  0  0
  1 29  1  0  0  0  0
  2 18  1  6  0  0  0
  2 14  1  0  0  0  0
  2  6  1  0  0  0  0
  3  5  2  0  0  0  0
  3 12  1  0  0  0  0
  4  7  1  0  0  0  0
  4 10  1  0  0  0  0
  5 11  1  0  0  0  0
  6  4  2  0  0  0  0
  8 14  1  0  0  0  0
  8  9  1  0  0  0  0
  9 13  1  6  0  0  0
  9 10  1  0  0  0  0
 10  1  1  6  0  0  0
 11  7  2  0  0  0  0
 12  6  1  0  0  0  0
 15 17  1  0  0  0  0
 15  5  1  0  0  0  0
 16 15  2  0  0  0  0
 19 18  1  0  0  0  0
 19 21  1  0  0  0  0
 20 23  1  0  0  0  0
 21 20  2  0  0  0  0
 23 22  1  0  0  0  0
 24 30  1  0  0  0  0
 24 32  1  0  0  0  0
 26 31  2  0  0  0  0
 28 24  2  0  0  0  0
 29 28  1  0  0  0  0
 29 27  2  0  0  0  0
 30 27  1  6  0  0  0
 30 26  1  0  0  0  0
 31 25  1  0  0  0  0
 32 25  2  0  0  0  0
 33 38  1  0  0  0  0
 33 27  1  0  0  0  0
 35 36  2  0  0  0  0
 35 38  1  0  0  0  0
 36 37  1  0  0  0  0
 37 34  2  0  0  0  0
 38 34  1  0  0  0  0
 39 36  1  0  0  0  0
 40 39  1  0  0  0  0
 41 40  1  0  0  0  0
 42 43  1  0  0  0  0
 43 45  1  0  0  0  0
 43 41  1  0  0  0  0
 44 39  1  0  0  0  0
 45 44  1  0  0  0  0
M  END
>  <MODEL>
3

>  <REMARK>
 VINA RESULT:      -6.8      3.744      8.911
  Name = 
  10 active torsions:
  status: ('A' for Active; 'I' for Inactive)
    1  A    between atoms: C_3  and  O_25
    2  A    between atoms: C_4  and  C_34
    3  A    between atoms: C_7  and  O_25
    4  A    between atoms: C_7  and  C_40
    5  A    between atoms: C_8  and  C_16
    6  A    between atoms: C_11  and  C_18
    7  A    between atoms: C_12  and  C_30
    8  A    between atoms: C_12  and  C_32
    9  A    between atoms: C_21  and  C_22
   10  A    between atoms: C_22  and  N_39
                            x       y       z     vdW  Elec       q    Type
                         _______ _______ _______ _____ _____    ______ ____

>  <TORSDO>
F 10

$$$$
=
 OpenBabel11032420393D

 45 50  0  0  1  0  0  0  0  0999 V2000
  187.8730  176.6780  138.1840 C   0  0  0  0  0  2  0  0  0  0  0  0
  184.6080  177.8350  138.1970 C   0  0  1  0  0  3  0  0  0  0  0  0
  182.7610  175.0100  137.0200 C   0  0  0  0  0  3  0  0  0  0  0  0
  185.7390  175.7670  137.1780 C   0  0  0  0  0  0  0  0  0  0  0  0
  183.2980  174.1240  136.1790 C   0  0  0  0  0  0  0  0  0  0  0  0
  184.6760  176.3680  137.7840 C   0  0  0  0  0  0  0  0  0  0  0  0
  185.7330  174.3430  136.7730 C   0  0  0  0  0  3  0  0  0  0  0  0
  185.8600  178.6680  136.4890 C   0  0  0  0  0  2  0  0  0  0  0  0
  186.9700  177.7240  136.0530 C   0  0  1  0  0  3  0  0  0  0  0  0
  187.0550  176.4600  136.9160 C   0  0  1  0  0  3  0  0  0  0  0  0
  184.6860  173.6330  136.3330 C   0  0  0  0  0  3  0  0  0  0  0  0
  183.4920  175.5510  138.2010 C   0  0  0  0  0  2  0  0  0  0  0  0
  186.7800  177.3540  134.5940 C   0  0  0  0  0  1  0  0  0  0  0  0
  185.7300  178.6320  137.8850 O   0  0  0  0  0  0  0  0  0  0  0  0
  182.4580  173.5550  135.1100 C   0  0  0  0  0  0  0  0  0  0  0  0
  182.7330  172.2940  134.5940 O   0  0  0  0  0  0  0  0  0  0  0  0
  181.4830  174.2070  134.6500 O   0  0  0  0  0  1  0  0  0  0  0  0
  183.4240  178.4350  137.7470 O   0  0  0  0  0  0  0  0  0  0  0  0
  182.9870  179.2160  138.8180 C   0  0  0  0  0  2  0  0  0  0  0  0
  181.3250  177.8310  139.9520 C   0  0  0  0  0  3  0  0  0  0  0  0
  181.5780  178.8600  139.1490 C   0  0  0  0  0  3  0  0  0  0  0  0
  179.6570  176.0340  139.9090 C   0  0  0  0  0  1  0  0  0  0  0  0
  179.9180  177.4770  140.2890 C   0  0  0  0  0  2  0  0  0  0  0  0
  190.7610  174.7250  137.2880 C   0  0  0  0  0  0  0  0  0  0  0  0
  192.6520  174.5400  135.9120 C   0  0  0  0  0  3  0  0  0  0  0  0
  192.5580  176.3230  137.5550 N   0  0  0  0  0  0  0  0  0  0  0  0
  190.3370  176.5280  138.6090 C   0  0  0  0  0  0  0  0  0  0  0  0
  189.5000  174.9750  137.1690 N   0  0  0  0  0  0  0  0  0  0  0  0
  189.2280  176.0630  138.0470 C   0  0  0  0  0  0  0  0  0  0  0  0
  191.4660  175.6280  138.2460 C   0  0  1  0  0  3  0  0  0  0  0  0
  193.1530  175.8000  136.5180 C   0  0  0  0  0  3  0  0  0  0  0  0
  191.5000  174.0510  136.2700 N   0  0  0  0  0  0  0  0  0  0  0  0
  190.4140  177.6710  139.5700 C   0  0  0  0  0  2  0  0  0  0  0  0
  190.9170  176.6350  141.7730 C   0  0  0  0  0  3  0  0  0  0  0  0
  188.8870  177.4010  141.4630 N   0  0  0  0  0  0  0  0  0  0  0  0
  188.9710  176.9090  142.7110 C   0  0  0  0  0  0  0  0  0  0  0  0
  190.2370  176.4100  142.9600 C   0  0  0  0  0  3  0  0  0  0  0  0
  190.0710  177.2210  140.9090 N   0  0  0  0  0  0  0  0  0  0  0  0
  187.8440  176.9060  143.6890 C   0  0  0  0  0  3  0  0  0  0  0  0
  186.7210  177.8240  143.2070 C   0  0  0  0  0  2  0  0  0  0  0  0
  185.6300  177.9030  144.2720 C   0  0  0  0  0  2  0  0  0  0  0  0
  185.0970  178.4440  146.4820 C   0  0  0  0  0  1  0  0  0  0  0  0
  186.1890  178.4070  145.5260 N   0  0  0  0  0  0  0  0  0  0  0  0
  188.3400  177.3340  145.0710 C   0  0  0  0  0  2  0  0  0  0  0  0
  187.1560  177.4320  146.0290 C   0  0  0  0  0  2  0  0  0  0  0  0
  2 18  1  6  0  0  0
  3 12  1  0  0  0  0
  4  6  2  0  0  0  0
  5 11  1  0  0  0  0
  5  3  2  0  0  0  0
  6  2  1  0  0  0  0
  6 12  1  0  0  0  0
  7  4  1  0  0  0  0
  8 14  1  0  0  0  0
  9 13  1  6  0  0  0
  9  8  1  0  0  0  0
  9 10  1  0  0  0  0
 10  4  1  0  0  0  0
 10  1  1  1  0  0  0
 11  7  2  0  0  0  0
 14  2  1  0  0  0  0
 15  5  1  0  0  0  0
 16 15  2  0  0  0  0
 17 15  1  0  0  0  0
 18 19  1  0  0  0  0
 19 21  1  0  0  0  0
 20 23  1  0  0  0  0
 21 20  2  0  0  0  0
 22 23  1  0  0  0  0
 25 32  2  0  0  0  0
 25 31  1  0  0  0  0
 26 30  1  0  0  0  0
 27 33  1  0  0  0  0
 28 24  2  0  0  0  0
 28 29  1  0  0  0  0
 29  1  1  0  0  0  0
 29 27  2  0  0  0  0
 30 24  1  6  0  0  0
 30 27  1  0  0  0  0
 31 26  2  0  0  0  0
 32 24  1  0  0  0  0
 33 38  1  0  0  0  0
 34 37  2  0  0  0  0
 35 36  2  0  0  0  0
 36 37  1  0  0  0  0
 36 39  1  0  0  0  0
 38 35  1  0  0  0  0
 38 34  1  0  0  0  0
 39 44  1  0  0  0  0
 40 39  1  0  0  0  0
 40 41  1  0  0  0  0
 41 43  1  0  0  0  0
 43 45  1  0  0  0  0
 43 42  1  0  0  0  0
 44 45  1  0  0  0  0
M  END
>  <MODEL>
4

>  <REMARK>
 VINA RESULT:      -6.6      2.551      4.636
  Name = 
  10 active torsions:
  status: ('A' for Active; 'I' for Inactive)
    1  A    between atoms: C_3  and  O_25
    2  A    between atoms: C_4  and  C_34
    3  A    between atoms: C_7  and  O_25
    4  A    between atoms: C_7  and  C_40
    5  A    between atoms: C_8  and  C_16
    6  A    between atoms: C_11  and  C_18
    7  A    between atoms: C_12  and  C_30
    8  A    between atoms: C_12  and  C_32
    9  A    between atoms: C_21  and  C_22
   10  A    between atoms: C_22  and  N_39
                            x       y       z     vdW  Elec       q    Type
                         _______ _______ _______ _____ _____    ______ ____

>  <TORSDO>
F 10

$$$$
=
 OpenBabel11032420393D

 45 50  0  0  1  0  0  0  0  0999 V2000
  187.5450  176.3180  138.0130 C   0  0  0  0  0  2  0  0  0  0  0  0
  184.4660  176.8030  136.5020 C   0  0  1  0  0  3  0  0  0  0  0  0
  182.9170  173.5960  136.8100 C   0  0  0  0  0  3  0  0  0  0  0  0
  185.7530  174.7090  137.2420 C   0  0  0  0  0  0  0  0  0  0  0  0
  183.6360  172.4710  136.8320 C   0  0  0  0  0  0  0  0  0  0  0  0
  184.5880  175.3950  137.0760 C   0  0  0  0  0  0  0  0  0  0  0  0
  185.8040  173.3290  137.7770 C   0  0  0  0  0  3  0  0  0  0  0  0
  186.1900  176.6570  135.0230 C   0  0  0  0  0  2  0  0  0  0  0  0
  187.3370  175.8000  135.5360 C   0  0  1  0  0  3  0  0  0  0  0  0
  187.1170  175.2960  136.9670 C   0  0  1  0  0  3  0  0  0  0  0  0
  184.9000  172.3590  137.5950 C   0  0  0  0  0  3  0  0  0  0  0  0
  183.3010  174.8160  137.5760 C   0  0  0  0  0  2  0  0  0  0  0  0
  187.5600  174.6320  134.5940 C   0  0  0  0  0  1  0  0  0  0  0  0
  185.6630  177.4180  136.0770 O   0  0  0  0  0  0  0  0  0  0  0  0
  183.1160  171.2790  136.1390 C   0  0  0  0  0  0  0  0  0  0  0  0
  181.7720  171.1930  135.7960 O   0  0  0  0  0  0  0  0  0  0  0  0
  183.8840  170.3220  135.8530 O   0  0  0  0  0  1  0  0  0  0  0  0
  183.4870  176.8600  135.5000 O   0  0  0  0  0  0  0  0  0  0  0  0
  182.7800  178.0370  135.7540 C   0  0  0  0  0  2  0  0  0  0  0  0
  181.2140  177.9050  137.6240 C   0  0  0  0  0  3  0  0  0  0  0  0
  182.4580  178.1180  137.2070 C   0  0  0  0  0  3  0  0  0  0  0  0
  180.7120  176.5810  139.6260 C   0  0  0  0  0  1  0  0  0  0  0  0
  180.8910  177.9810  139.0750 C   0  0  0  0  0  2  0  0  0  0  0  0
  190.9520  175.2240  138.3960 C   0  0  0  0  0  0  0  0  0  0  0  0
  193.1280  175.2480  137.5200 C   0  0  0  0  0  3  0  0  0  0  0  0
  192.1670  177.3160  138.3480 N   0  0  0  0  0  0  0  0  0  0  0  0
  189.7640  177.1060  138.8670 C   0  0  0  0  0  0  0  0  0  0  0  0
  189.7470  175.0060  137.9850 N   0  0  0  0  0  0  0  0  0  0  0  0
  188.9950  176.1610  138.3410 C   0  0  0  0  0  0  0  0  0  0  0  0
  191.1330  176.5510  139.0550 C   0  0  1  0  0  3  0  0  0  0  0  0
  193.1270  176.7230  137.6920 C   0  0  0  0  0  3  0  0  0  0  0  0
  192.0770  174.5480  137.8370 N   0  0  0  0  0  0  0  0  0  0  0  0
  189.3000  178.4470  139.3370 C   0  0  0  0  0  2  0  0  0  0  0  0
  187.2540  178.6280  140.7360 C   0  0  0  0  0  3  0  0  0  0  0  0
  189.0450  177.7860  141.6780 N   0  0  0  0  0  0  0  0  0  0  0  0
  188.0450  177.7760  142.5770 C   0  0  0  0  0  0  0  0  0  0  0  0
  186.8860  178.3000  142.0320 C   0  0  0  0  0  3  0  0  0  0  0  0
  188.5500  178.3110  140.5730 N   0  0  0  0  0  0  0  0  0  0  0  0
  188.1770  177.2670  143.9730 C   0  0  0  0  0  3  0  0  0  0  0  0
  186.9080  177.5710  144.7700 C   0  0  0  0  0  2  0  0  0  0  0  0
  187.1020  177.1530  146.2260 C   0  0  0  0  0  2  0  0  0  0  0  0
  188.3650  177.4070  148.1760 C   0  0  0  0  0  1  0  0  0  0  0  0
  188.2420  177.8640  146.8030 N   0  0  0  0  0  0  0  0  0  0  0  0
  189.4020  177.8830  144.6500 C   0  0  0  0  0  2  0  0  0  0  0  0
  189.4560  177.4380  146.1080 C   0  0  0  0  0  2  0  0  0  0  0  0
  1 29  1  0  0  0  0
  2 18  1  6  0  0  0
  2  6  1  0  0  0  0
  3  5  2  0  0  0  0
  3 12  1  0  0  0  0
  4  7  1  0  0  0  0
  5 11  1  0  0  0  0
  6  4  2  0  0  0  0
  6 12  1  0  0  0  0
  8  9  1  0  0  0  0
  8 14  1  0  0  0  0
  9 13  1  6  0  0  0
  9 10  1  0  0  0  0
 10  4  1  0  0  0  0
 10  1  1  1  0  0  0
 11  7  2  0  0  0  0
 14  2  1  0  0  0  0
 15  5  1  0  0  0  0
 16 15  2  0  0  0  0
 17 15  1  0  0  0  0
 18 19  1  0  0  0  0
 19 21  1  0  0  0  0
 20 23  1  0  0  0  0
 21 20  2  0  0  0  0
 23 22  1  0  0  0  0
 24 30  1  0  0  0  0
 25 31  1  0  0  0  0
 25 32  2  0  0  0  0
 27 30  1  0  0  0  0
 27 33  1  0  0  0  0
 28 29  1  0  0  0  0
 28 24  2  0  0  0  0
 29 27  2  0  0  0  0
 30 26  1  6  0  0  0
 31 26  2  0  0  0  0
 32 24  1  0  0  0  0
 33 38  1  0  0  0  0
 34 37  2  0  0  0  0
 35 36  2  0  0  0  0
 36 39  1  0  0  0  0
 37 36  1  0  0  0  0
 38 34  1  0  0  0  0
 38 35  1  0  0  0  0
 39 44  1  0  0  0  0
 39 40  1  0  0  0  0
 40 41  1  0  0  0  0
 41 43  1  0  0  0  0
 43 42  1  0  0  0  0
 44 45  1  0  0  0  0
 45 43  1  0  0  0  0
M  END
>  <MODEL>
5

>  <REMARK>
 VINA RESULT:      -6.6      3.037      4.945
  Name = 
  10 active torsions:
  status: ('A' for Active; 'I' for Inactive)
    1  A    between atoms: C_3  and  O_25
    2  A    between atoms: C_4  and  C_34
    3  A    between atoms: C_7  and  O_25
    4  A    between atoms: C_7  and  C_40
    5  A    between atoms: C_8  and  C_16
    6  A    between atoms: C_11  and  C_18
    7  A    between atoms: C_12  and  C_30
    8  A    between atoms: C_12  and  C_32
    9  A    between atoms: C_21  and  C_22
   10  A    between atoms: C_22  and  N_39
                            x       y       z     vdW  Elec       q    Type
                         _______ _______ _______ _____ _____    ______ ____

>  <TORSDO>
F 10

$$$$
=
 OpenBabel11032420393D

 45 50  0  0  1  0  0  0  0  0999 V2000
  184.8810  177.7730  138.2350 C   0  0  0  0  0  2  0  0  0  0  0  0
  181.8260  177.8900  139.8630 C   0  0  1  0  0  3  0  0  0  0  0  0
  180.4140  174.6890  139.1320 C   0  0  0  0  0  3  0  0  0  0  0  0
  182.8280  176.3020  138.1130 C   0  0  0  0  0  0  0  0  0  0  0  0
  180.7010  174.0400  138.0020 C   0  0  0  0  0  0  0  0  0  0  0  0
  182.0580  176.5300  139.2130 C   0  0  0  0  0  0  0  0  0  0  0  0
  182.9900  174.9580  137.5100 C   0  0  0  0  0  3  0  0  0  0  0  0
  181.8860  179.1290  137.9540 C   0  0  0  0  0  2  0  0  0  0  0  0
  182.8620  178.5810  136.9240 C   0  0  1  0  0  3  0  0  0  0  0  0
  183.6510  177.3680  137.4300 C   0  0  1  0  0  3  0  0  0  0  0  0
  182.0740  173.9840  137.4510 C   0  0  0  0  0  3  0  0  0  0  0  0
  181.4500  175.3780  139.9530 C   0  0  0  0  0  2  0  0  0  0  0  0
  182.1140  178.2290  135.6520 C   0  0  0  0  0  1  0  0  0  0  0  0
  182.4350  179.0010  139.2380 O   0  0  0  0  0  0  0  0  0  0  0  0
  179.6320  173.2860  137.3210 C   0  0  0  0  0  0  0  0  0  0  0  0
  178.9310  173.8560  136.2650 O   0  0  0  0  0  0  0  0  0  0  0  0
  179.3400  172.1180  137.6920 O   0  0  0  0  0  1  0  0  0  0  0  0
  180.4610  178.1230  140.0820 O   0  0  0  0  0  0  0  0  0  0  0  0
  180.3290  178.2110  141.4690 C   0  0  0  0  0  2  0  0  0  0  0  0
  181.6490  179.2220  143.2590 C   0  0  0  0  0  3  0  0  0  0  0  0
  181.6270  178.6390  142.0640 C   0  0  0  0  0  3  0  0  0  0  0  0
  183.4540  178.5570  144.7810 C   0  0  0  0  0  1  0  0  0  0  0  0
  182.9450  179.6450  143.8580 C   0  0  0  0  0  2  0  0  0  0  0  0
  187.2870  175.7610  136.4680 C   0  0  0  0  0  0  0  0  0  0  0  0
  188.6850  175.5730  134.5940 C   0  0  0  0  0  3  0  0  0  0  0  0
  189.1600  177.2780  136.2540 N   0  0  0  0  0  0  0  0  0  0  0  0
  187.3530  177.5130  137.9170 C   0  0  0  0  0  0  0  0  0  0  0  0
  186.0590  176.0620  136.7310 N   0  0  0  0  0  0  0  0  0  0  0  0
  186.1070  177.1160  137.6870 C   0  0  0  0  0  0  0  0  0  0  0  0
  188.2820  176.5910  137.2090 C   0  0  1  0  0  3  0  0  0  0  0  0
  189.4020  176.7840  135.0700 C   0  0  0  0  0  3  0  0  0  0  0  0
  187.6640  175.1100  135.2560 N   0  0  0  0  0  0  0  0  0  0  0  0
  187.7610  178.6060  138.8530 C   0  0  0  0  0  2  0  0  0  0  0  0
  189.7120  177.7180  140.1110 C   0  0  0  0  0  3  0  0  0  0  0  0
  187.8020  177.8450  141.1780 N   0  0  0  0  0  0  0  0  0  0  0  0
  188.7330  177.3720  142.0250 C   0  0  0  0  0  0  0  0  0  0  0  0
  189.9630  177.2710  141.3990 C   0  0  0  0  0  3  0  0  0  0  0  0
  188.4110  178.0420  140.0240 N   0  0  0  0  0  0  0  0  0  0  0  0
  188.4660  177.0070  143.4470 C   0  0  0  0  0  3  0  0  0  0  0  0
  187.1570  177.6410  143.9200 C   0  0  0  0  0  2  0  0  0  0  0  0
  186.9580  177.3580  145.4070 C   0  0  0  0  0  2  0  0  0  0  0  0
  187.8230  177.5770  147.5670 C   0  0  0  0  0  1  0  0  0  0  0  0
  188.0830  177.8930  146.1740 N   0  0  0  0  0  0  0  0  0  0  0  0
  189.6320  177.4440  144.3350 C   0  0  0  0  0  2  0  0  0  0  0  0
  189.2920  177.1630  145.7960 C   0  0  0  0  0  2  0  0  0  0  0  0
  2 18  1  6  0  0  0
  3 12  1  0  0  0  0
  4  6  2  0  0  0  0
  5  3  2  0  0  0  0
  6  2  1  0  0  0  0
  6 12  1  0  0  0  0
  7  4  1  0  0  0  0
  8 14  1  0  0  0  0
  9 13  1  6  0  0  0
  9 10  1  0  0  0  0
  9  8  1  0  0  0  0
 10  4  1  0  0  0  0
 10  1  1  1  0  0  0
 11  7  2  0  0  0  0
 11  5  1  0  0  0  0
 14  2  1  0  0  0  0
 15 17  1  0  0  0  0
 15  5  1  0  0  0  0
 16 15  2  0  0  0  0
 18 19  1  0  0  0  0
 19 21  1  0  0  0  0
 20 23  1  0  0  0  0
 21 20  2  0  0  0  0
 23 22  1  0  0  0  0
 24 28  2  0  0  0  0
 24 30  1  0  0  0  0
 25 31  1  0  0  0  0
 25 32  2  0  0  0  0
 27 33  1  0  0  0  0
 28 29  1  0  0  0  0
 29 27  2  0  0  0  0
 29  1  1  0  0  0  0
 30 26  1  6  0  0  0
 30 27  1  0  0  0  0
 31 26  2  0  0  0  0
 32 24  1  0  0  0  0
 33 38  1  0  0  0  0
 34 37  2  0  0  0  0
 35 36  2  0  0  0  0
 36 39  1  0  0  0  0
 37 36  1  0  0  0  0
 38 34  1  0  0  0  0
 38 35  1  0  0  0  0
 39 40  1  0  0  0  0
 39 44  1  0  0  0  0
 40 41  1  0  0  0  0
 41 43  1  0  0  0  0
 43 42  1  0  0  0  0
 44 45  1  0  0  0  0
 45 43  1  0  0  0  0
M  END
>  <MODEL>
6

>  <REMARK>
 VINA RESULT:      -6.4      1.999      4.020
  Name = 
  10 active torsions:
  status: ('A' for Active; 'I' for Inactive)
    1  A    between atoms: C_3  and  O_25
    2  A    between atoms: C_4  and  C_34
    3  A    between atoms: C_7  and  O_25
    4  A    between atoms: C_7  and  C_40
    5  A    between atoms: C_8  and  C_16
    6  A    between atoms: C_11  and  C_18
    7  A    between atoms: C_12  and  C_30
    8  A    between atoms: C_12  and  C_32
    9  A    between atoms: C_21  and  C_22
   10  A    between atoms: C_22  and  N_39
                            x       y       z     vdW  Elec       q    Type
                         _______ _______ _______ _____ _____    ______ ____

>  <TORSDO>
F 10

$$$$
=
 OpenBabel11032420393D

 45 50  0  0  1  0  0  0  0  0999 V2000
  185.1650  178.2440  138.4920 C   0  0  0  0  0  2  0  0  0  0  0  0
  181.9160  177.0960  138.1450 C   0  0  1  0  0  3  0  0  0  0  0  0
  180.0090  180.1180  138.0750 C   0  0  0  0  0  3  0  0  0  0  0  0
  182.9210  179.3800  138.7440 C   0  0  0  0  0  0  0  0  0  0  0  0
  180.4120  181.2140  138.7210 C   0  0  0  0  0  0  0  0  0  0  0  0
  181.9710  178.6200  138.1310 C   0  0  0  0  0  0  0  0  0  0  0  0
  182.9030  180.8620  138.7190 C   0  0  0  0  0  3  0  0  0  0  0  0
  182.7650  176.8010  140.2360 C   0  0  0  0  0  2  0  0  0  0  0  0
  183.8110  177.8430  140.6020 C   0  0  1  0  0  3  0  0  0  0  0  0
  184.1250  178.8070  139.4530 C   0  0  1  0  0  3  0  0  0  0  0  0
  181.8250  181.6560  138.7190 C   0  0  0  0  0  3  0  0  0  0  0  0
  180.9330  179.2690  137.2690 C   0  0  0  0  0  2  0  0  0  0  0  0
  183.3550  178.6130  141.8270 C   0  0  0  0  0  1  0  0  0  0  0  0
  182.9150  176.4340  138.8910 O   0  0  0  0  0  0  0  0  0  0  0  0
  179.4060  182.0570  139.3920 C   0  0  0  0  0  0  0  0  0  0  0  0
  178.9660  181.7450  140.6730 O   0  0  0  0  0  1  0  0  0  0  0  0
  178.9310  183.0690  138.8110 O   0  0  0  0  0  0  0  0  0  0  0  0
  180.6390  176.6370  138.4970 O   0  0  0  0  0  0  0  0  0  0  0  0
  180.4200  175.5230  137.6850 C   0  0  0  0  0  2  0  0  0  0  0  0
  179.5540  174.5500  139.7520 C   0  0  0  0  0  3  0  0  0  0  0  0
  180.0510  174.3550  138.5340 C   0  0  0  0  0  3  0  0  0  0  0  0
  179.3100  173.7620  142.0620 C   0  0  0  0  0  1  0  0  0  0  0  0
  179.1800  173.3850  140.6000 C   0  0  0  0  0  2  0  0  0  0  0  0
  188.0450  178.6050  140.6200 C   0  0  0  0  0  0  0  0  0  0  0  0
  189.6240  177.5280  141.9810 C   0  0  0  0  0  3  0  0  0  0  0  0
  189.6290  177.0920  139.5940 N   0  0  0  0  0  0  0  0  0  0  0  0
  187.6620  178.0430  138.4490 C   0  0  0  0  0  0  0  0  0  0  0  0
  186.7640  178.6280  140.4590 N   0  0  0  0  0  0  0  0  0  0  0  0
  186.5340  178.3390  139.0840 C   0  0  0  0  0  0  0  0  0  0  0  0
  188.8030  178.2840  139.3750 C   0  0  1  0  0  3  0  0  0  0  0  0
  190.0660  176.7700  140.7810 C   0  0  0  0  0  3  0  0  0  0  0  0
  188.6440  178.3810  141.8960 N   0  0  0  0  0  0  0  0  0  0  0  0
  187.7790  177.6800  137.0040 C   0  0  0  0  0  2  0  0  0  0  0  0
  188.2720  175.2440  137.0490 C   0  0  0  0  0  3  0  0  0  0  0  0
  186.2530  175.8500  136.4480 N   0  0  0  0  0  0  0  0  0  0  0  0
  186.3160  174.5070  136.4370 C   0  0  0  0  0  0  0  0  0  0  0  0
  187.5750  174.0700  136.8100 C   0  0  0  0  0  3  0  0  0  0  0  0
  187.4470  176.2780  136.8140 N   0  0  0  0  0  0  0  0  0  0  0  0
  185.1770  173.6170  136.0700 C   0  0  0  0  0  3  0  0  0  0  0  0
  183.8830  174.4250  135.9690 C   0  0  0  0  0  2  0  0  0  0  0  0
  182.7090  173.4840  135.7110 C   0  0  0  0  0  2  0  0  0  0  0  0
  181.4790  171.6470  136.4680 C   0  0  0  0  0  1  0  0  0  0  0  0
  182.6060  172.5030  136.7900 N   0  0  0  0  0  0  0  0  0  0  0  0
  185.0330  172.4900  137.0930 C   0  0  0  0  0  2  0  0  0  0  0  0
  183.7980  171.6570  136.7630 C   0  0  0  0  0  2  0  0  0  0  0  0
  1 29  1  0  0  0  0
  2 18  1  1  0  0  0
  2 14  1  0  0  0  0
  3  5  2  0  0  0  0
  4 10  1  0  0  0  0
  5 15  1  0  0  0  0
  6  2  1  0  0  0  0
  6  4  2  0  0  0  0
  7 11  2  0  0  0  0
  7  4  1  0  0  0  0
  8  9  1  0  0  0  0
  9 13  1  1  0  0  0
 10  1  1  6  0  0  0
 10  9  1  0  0  0  0
 11  5  1  0  0  0  0
 12  3  1  0  0  0  0
 12  6  1  0  0  0  0
 14  8  1  0  0  0  0
 15 16  1  0  0  0  0
 17 15  2  0  0  0  0
 19 18  1  0  0  0  0
 19 21  1  0  0  0  0
 20 23  1  0  0  0  0
 21 20  2  0  0  0  0
 23 22  1  0  0  0  0
 24 32  1  0  0  0  0
 26 31  2  0  0  0  0
 27 29  2  0  0  0  0
 28 24  2  0  0  0  0
 29 28  1  0  0  0  0
 30 27  1  6  0  0  0
 30 26  1  0  0  0  0
 30 24  1  0  0  0  0
 31 25  1  0  0  0  0
 32 25  2  0  0  0  0
 33 27  1  0  0  0  0
 35 38  1  0  0  0  0
 36 35  2  0  0  0  0
 36 37  1  0  0  0  0
 37 34  2  0  0  0  0
 38 33  1  0  0  0  0
 38 34  1  0  0  0  0
 39 36  1  0  0  0  0
 39 44  1  0  0  0  0
 40 39  1  0  0  0  0
 41 40  1  0  0  0  0
 41 43  1  0  0  0  0
 42 43  1  0  0  0  0
 45 43  1  0  0  0  0
 45 44  1  0  0  0  0
M  END
>  <MODEL>
7

>  <REMARK>
 VINA RESULT:      -6.4      2.543      6.211
  Name = 
  10 active torsions:
  status: ('A' for Active; 'I' for Inactive)
    1  A    between atoms: C_3  and  O_25
    2  A    between atoms: C_4  and  C_34
    3  A    between atoms: C_7  and  O_25
    4  A    between atoms: C_7  and  C_40
    5  A    between atoms: C_8  and  C_16
    6  A    between atoms: C_11  and  C_18
    7  A    between atoms: C_12  and  C_30
    8  A    between atoms: C_12  and  C_32
    9  A    between atoms: C_21  and  C_22
   10  A    between atoms: C_22  and  N_39
                            x       y       z     vdW  Elec       q    Type
                         _______ _______ _______ _____ _____    ______ ____

>  <TORSDO>
F 10

$$$$
=
 OpenBabel11032420393D

 45 50  0  0  1  0  0  0  0  0999 V2000
  187.7280  176.6740  138.1460 C   0  0  0  0  0  2  0  0  0  0  0  0
  184.4410  177.7400  138.3890 C   0  0  1  0  0  3  0  0  0  0  0  0
  182.6030  174.9290  137.1660 C   0  0  0  0  0  3  0  0  0  0  0  0
  185.5660  175.7580  137.2080 C   0  0  0  0  0  0  0  0  0  0  0  0
  183.1160  174.1010  136.2540 C   0  0  0  0  0  0  0  0  0  0  0  0
  184.5230  176.2980  137.8980 C   0  0  0  0  0  0  0  0  0  0  0  0
  185.5730  174.3550  136.7310 C   0  0  0  0  0  3  0  0  0  0  0  0
  185.5790  178.6920  136.6620 C   0  0  0  0  0  2  0  0  0  0  0  0
  186.6870  177.8010  136.1220 C   0  0  1  0  0  3  0  0  0  0  0  0
  186.8490  176.4980  136.9130 C   0  0  1  0  0  3  0  0  0  0  0  0
  184.5220  173.6400  136.3100 C   0  0  0  0  0  3  0  0  0  0  0  0
  183.3830  175.4300  138.3330 C   0  0  0  0  0  2  0  0  0  0  0  0
  186.4280  177.4990  134.6570 C   0  0  0  0  0  1  0  0  0  0  0  0
  185.5250  178.5820  138.0590 O   0  0  0  0  0  0  0  0  0  0  0  0
  182.2340  173.5630  135.2020 C   0  0  0  0  0  0  0  0  0  0  0  0
  182.4940  172.3230  134.6310 O   0  0  0  0  0  0  0  0  0  0  0  0
  181.2370  174.2230  134.8070 O   0  0  0  0  0  1  0  0  0  0  0  0
  183.2200  178.3290  138.0330 O   0  0  0  0  0  0  0  0  0  0  0  0
  182.5450  178.5170  139.2390 C   0  0  0  0  0  2  0  0  0  0  0  0
  183.1170  178.9050  141.5830 C   0  0  0  0  0  3  0  0  0  0  0  0
  183.5340  178.7520  140.3290 C   0  0  0  0  0  3  0  0  0  0  0  0
  183.5380  178.6190  143.9820 C   0  0  0  0  0  1  0  0  0  0  0  0
  184.1040  179.1340  142.6740 C   0  0  0  0  0  2  0  0  0  0  0  0
  190.5300  174.6340  137.1770 C   0  0  0  0  0  0  0  0  0  0  0  0
  192.2400  174.2680  135.6130 C   0  0  0  0  0  3  0  0  0  0  0  0
  192.3070  176.2660  136.9890 N   0  0  0  0  0  0  0  0  0  0  0  0
  190.2290  176.6030  138.2750 C   0  0  0  0  0  0  0  0  0  0  0  0
  189.2580  174.8560  137.1830 N   0  0  0  0  0  0  0  0  0  0  0  0
  189.0700  176.0550  137.9270 C   0  0  0  0  0  0  0  0  0  0  0  0
  191.3250  175.6680  137.9020 C   0  0  1  0  0  3  0  0  0  0  0  0
  192.7820  175.6050  135.9680 C   0  0  0  0  0  3  0  0  0  0  0  0
  191.1540  173.8270  136.1780 N   0  0  0  0  0  0  0  0  0  0  0  0
  190.3950  177.8710  139.0490 C   0  0  0  0  0  2  0  0  0  0  0  0
  191.7010  177.4910  141.1290 C   0  0  0  0  0  3  0  0  0  0  0  0
  189.5160  177.4240  141.2880 N   0  0  0  0  0  0  0  0  0  0  0  0
  190.0390  177.2250  142.5100 C   0  0  0  0  0  0  0  0  0  0  0  0
  191.4220  177.2570  142.4670 C   0  0  0  0  0  3  0  0  0  0  0  0
  190.5360  177.5760  140.4650 N   0  0  0  0  0  0  0  0  0  0  0  0
  189.2300  177.0000  143.7430 C   0  0  0  0  0  3  0  0  0  0  0  0
  187.7610  177.3320  143.4810 C   0  0  0  0  0  2  0  0  0  0  0  0
  186.9670  177.2120  144.7790 C   0  0  0  0  0  2  0  0  0  0  0  0
  186.7160  177.9380  146.9860 C   0  0  0  0  0  1  0  0  0  0  0  0
  187.5150  178.1180  145.7870 N   0  0  0  0  0  0  0  0  0  0  0  0
  189.7770  177.8390  144.8990 C   0  0  0  0  0  2  0  0  0  0  0  0
  188.8710  177.6810  146.1160 C   0  0  0  0  0  2  0  0  0  0  0  0
  2 18  1  6  0  0  0
  3 12  1  0  0  0  0
  4  6  2  0  0  0  0
  5 11  1  0  0  0  0
  5  3  2  0  0  0  0
  6 12  1  0  0  0  0
  6  2  1  0  0  0  0
  7  4  1  0  0  0  0
  8 14  1  0  0  0  0
  9 13  1  6  0  0  0
  9  8  1  0  0  0  0
  9 10  1  0  0  0  0
 10  4  1  0  0  0  0
 10  1  1  1  0  0  0
 11  7  2  0  0  0  0
 14  2  1  0  0  0  0
 15  5  1  0  0  0  0
 16 15  2  0  0  0  0
 17 15  1  0  0  0  0
 18 19  1  0  0  0  0
 19 21  1  0  0  0  0
 20 23  1  0  0  0  0
 21 20  2  0  0  0  0
 23 22  1  0  0  0  0
 24 28  2  0  0  0  0
 24 30  1  0  0  0  0
 25 31  1  0  0  0  0
 25 32  2  0  0  0  0
 27 33  1  0  0  0  0
 28 29  1  0  0  0  0
 29  1  1  0  0  0  0
 29 27  2  0  0  0  0
 30 26  1  6  0  0  0
 30 27  1  0  0  0  0
 31 26  2  0  0  0  0
 32 24  1  0  0  0  0
 33 38  1  0  0  0  0
 34 37  2  0  0  0  0
 35 36  2  0  0  0  0
 36 39  1  0  0  0  0
 37 36  1  0  0  0  0
 38 34  1  0  0  0  0
 38 35  1  0  0  0  0
 39 44  1  0  0  0  0
 40 39  1  0  0  0  0
 40 41  1  0  0  0  0
 41 43  1  0  0  0  0
 43 45  1  0  0  0  0
 43 42  1  0  0  0  0
 44 45  1  0  0  0  0
M  END
>  <MODEL>
8

>  <REMARK>
 VINA RESULT:      -6.4      2.709      4.771
  Name = 
  10 active torsions:
  status: ('A' for Active; 'I' for Inactive)
    1  A    between atoms: C_3  and  O_25
    2  A    between atoms: C_4  and  C_34
    3  A    between atoms: C_7  and  O_25
    4  A    between atoms: C_7  and  C_40
    5  A    between atoms: C_8  and  C_16
    6  A    between atoms: C_11  and  C_18
    7  A    between atoms: C_12  and  C_30
    8  A    between atoms: C_12  and  C_32
    9  A    between atoms: C_21  and  C_22
   10  A    between atoms: C_22  and  N_39
                            x       y       z     vdW  Elec       q    Type
                         _______ _______ _______ _____ _____    ______ ____

>  <TORSDO>
F 10

$$$$
=
 OpenBabel11032420393D

 45 50  0  0  1  0  0  0  0  0999 V2000
  189.0250  178.9020  142.3540 C   0  0  0  0  0  2  0  0  0  0  0  0
  187.4290  177.9500  145.2770 C   0  0  1  0  0  3  0  0  0  0  0  0
  190.1560  177.1930  147.4600 C   0  0  0  0  0  3  0  0  0  0  0  0
  189.8510  177.7540  144.4500 C   0  0  0  0  0  0  0  0  0  0  0  0
  191.3200  176.7380  146.9930 C   0  0  0  0  0  0  0  0  0  0  0  0
  188.9440  177.9540  145.4470 C   0  0  0  0  0  0  0  0  0  0  0  0
  191.3140  177.7390  144.6850 C   0  0  0  0  0  3  0  0  0  0  0  0
  187.3320  176.3760  143.6350 C   0  0  0  0  0  2  0  0  0  0  0  0
  188.5210  176.4360  142.6880 C   0  0  1  0  0  3  0  0  0  0  0  0
  189.4760  177.5950  142.9960 C   0  0  1  0  0  3  0  0  0  0  0  0
  191.9520  177.2940  145.7750 C   0  0  0  0  0  3  0  0  0  0  0  0
  189.4120  178.3170  146.8230 C   0  0  0  0  0  2  0  0  0  0  0  0
  189.2670  175.1150  142.7240 C   0  0  0  0  0  1  0  0  0  0  0  0
  186.9390  177.6770  143.9810 O   0  0  0  0  0  0  0  0  0  0  0  0
  192.0410  175.7050  147.7580 C   0  0  0  0  0  0  0  0  0  0  0  0
  193.1780  176.0320  148.4870 O   0  0  0  0  0  1  0  0  0  0  0  0
  191.6360  174.5120  147.7570 O   0  0  0  0  0  0  0  0  0  0  0  0
  186.8120  177.1280  146.2310 O   0  0  0  0  0  0  0  0  0  0  0  0
  185.8390  177.9330  146.8250 C   0  0  0  0  0  2  0  0  0  0  0  0
  183.9490  178.6300  145.4430 C   0  0  0  0  0  3  0  0  0  0  0  0
  185.2200  178.8080  145.7890 C   0  0  0  0  0  3  0  0  0  0  0  0
  182.0880  178.8320  143.8580 C   0  0  0  0  0  1  0  0  0  0  0  0
  183.3260  179.5060  144.4130 C   0  0  0  0  0  2  0  0  0  0  0  0
  188.6290  178.0160  138.8880 C   0  0  0  0  0  0  0  0  0  0  0  0
  187.9430  176.3840  137.3490 C   0  0  0  0  0  3  0  0  0  0  0  0
  186.2840  177.4280  138.7790 N   0  0  0  0  0  0  0  0  0  0  0  0
  187.2950  178.8230  140.5450 C   0  0  0  0  0  0  0  0  0  0  0  0
  189.3680  178.1000  139.9430 N   0  0  0  0  0  0  0  0  0  0  0  0
  188.5460  178.6650  140.9590 C   0  0  0  0  0  0  0  0  0  0  0  0
  187.2320  178.5030  139.0930 C   0  0  1  0  0  3  0  0  0  0  0  0
  186.5790  176.4830  137.9280 C   0  0  0  0  0  3  0  0  0  0  0  0
  188.9160  177.1020  137.8310 N   0  0  0  0  0  0  0  0  0  0  0  0
  186.1700  179.3770  141.3600 C   0  0  0  0  0  2  0  0  0  0  0  0
  184.2620  177.8060  141.0960 C   0  0  0  0  0  3  0  0  0  0  0  0
  184.1700  179.6950  139.9880 N   0  0  0  0  0  0  0  0  0  0  0  0
  183.0460  179.0000  139.7410 C   0  0  0  0  0  0  0  0  0  0  0  0
  183.0530  177.7940  140.4180 C   0  0  0  0  0  3  0  0  0  0  0  0
  184.8960  178.9550  140.8040 N   0  0  0  0  0  0  0  0  0  0  0  0
  181.9440  179.4740  138.8530 C   0  0  0  0  0  3  0  0  0  0  0  0
  181.9860  178.7340  137.5160 C   0  0  0  0  0  2  0  0  0  0  0  0
  180.9310  179.3110  136.5750 C   0  0  0  0  0  2  0  0  0  0  0  0
  180.1280  181.2110  135.4770 C   0  0  0  0  0  1  0  0  0  0  0  0
  181.1720  180.7390  136.3690 N   0  0  0  0  0  0  0  0  0  0  0  0
  182.0460  180.9840  138.6400 C   0  0  0  0  0  2  0  0  0  0  0  0
  180.9810  181.4310  137.6420 C   0  0  0  0  0  2  0  0  0  0  0  0
  2  6  1  0  0  0  0
  2 18  1  1  0  0  0
  4  7  1  0  0  0  0
  4  6  2  0  0  0  0
  5  3  2  0  0  0  0
  5 15  1  0  0  0  0
  6 12  1  0  0  0  0
  7 11  2  0  0  0  0
  8 14  1  0  0  0  0
  9 13  1  1  0  0  0
  9 10  1  0  0  0  0
  9  8  1  0  0  0  0
 10  1  1  1  0  0  0
 10  4  1  0  0  0  0
 11  5  1  0  0  0  0
 12  3  1  0  0  0  0
 14  2  1  0  0  0  0
 15 16  1  0  0  0  0
 17 15  2  0  0  0  0
 18 19  1  0  0  0  0
 20 21  2  0  0  0  0
 21 19  1  0  0  0  0
 22 23  1  0  0  0  0
 23 20  1  0  0  0  0
 24 30  1  0  0  0  0
 24 28  2  0  0  0  0
 25 32  2  0  0  0  0
 25 31  1  0  0  0  0
 27 29  2  0  0  0  0
 27 33  1  0  0  0  0
 28 29  1  0  0  0  0
 29  1  1  0  0  0  0
 30 26  1  1  0  0  0
 30 27  1  0  0  0  0
 31 26  2  0  0  0  0
 32 24  1  0  0  0  0
 35 38  1  0  0  0  0
 36 35  2  0  0  0  0
 36 37  1  0  0  0  0
 37 34  2  0  0  0  0
 38 34  1  0  0  0  0
 38 33  1  0  0  0  0
 39 36  1  0  0  0  0
 40 39  1  0  0  0  0
 41 40  1  0  0  0  0
 42 43  1  0  0  0  0
 43 41  1  0  0  0  0
 43 45  1  0  0  0  0
 44 39  1  0  0  0  0
 45 44  1  0  0  0  0
M  END
>  <MODEL>
9

>  <REMARK>
 VINA RESULT:      -6.0      3.989      8.644
  Name = 
  10 active torsions:
  status: ('A' for Active; 'I' for Inactive)
    1  A    between atoms: C_3  and  O_25
    2  A    between atoms: C_4  and  C_34
    3  A    between atoms: C_7  and  O_25
    4  A    between atoms: C_7  and  C_40
    5  A    between atoms: C_8  and  C_16
    6  A    between atoms: C_11  and  C_18
    7  A    between atoms: C_12  and  C_30
    8  A    between atoms: C_12  and  C_32
    9  A    between atoms: C_21  and  C_22
   10  A    between atoms: C_22  and  N_39
                            x       y       z     vdW  Elec       q    Type
                         _______ _______ _______ _____ _____    ______ ____

>  <TORSDO>
F 10

$$$$
