=
 OpenBabel11032419493D

 27 32  0  0  1  0  0  0  0  0999 V2000
  191.5180  176.2070  142.9700 C   0  0  0  0  0  2  0  0  0  0  0  0
  190.3980  175.8350  143.9670 C   0  0  0  0  0  2  0  0  0  0  0  0
  189.2580  176.8230  143.8420 C   0  0  1  0  0  3  0  0  0  0  0  0
  188.7900  176.6940  142.4540 N   0  0  2  0  0  0  0  0  0  0  0  0
  189.0830  178.0540  141.9970 C   0  0  1  0  0  3  0  0  0  0  0  0
  190.5670  178.1350  141.5610 C   0  0  0  0  0  2  0  0  0  0  0  0
  191.5890  177.7130  142.6380 C   0  0  0  0  0  2  0  0  0  0  0  0
  187.9060  176.3650  143.6140 C   0  0  2  0  0  3  0  0  0  0  0  0
  186.5990  177.8820  145.2320 C   0  0  0  0  0  0  0  0  0  0  0  0
  184.6810  179.1350  144.3900 C   0  0  0  0  0  3  0  0  0  0  0  0
  184.9340  178.6720  143.1030 C   0  0  0  0  0  3  0  0  0  0  0  0
  185.4930  178.7230  145.4470 C   0  0  0  0  0  3  0  0  0  0  0  0
  186.8650  177.4210  143.9130 C   0  0  0  0  0  0  0  0  0  0  0  0
  186.0010  177.8050  142.8750 C   0  0  0  0  0  3  0  0  0  0  0  0
  187.3130  177.3320  146.4520 C   0  0  1  0  0  3  0  0  0  0  0  0
  187.8200  177.7340  148.8820 N   0  0  0  0  0  2  0  0  0  0  0  0
  189.0690  178.0070  148.3030 N   0  0  2  0  0  0  0  0  0  0  0  0
  188.4490  178.2210  146.9590 C   0  0  1  0  0  0  0  0  0  0  0  0
  187.1070  178.1410  147.6920 C   0  0  1  0  0  0  0  0  0  0  0  0
  186.5670  179.5680  147.7140 C   0  0  0  0  0  1  0  0  0  0  0  0
  189.3670  177.0990  147.2220 C   0  0  0  0  0  2  0  0  0  0  0  0
  188.1870  178.4470  140.8180 C   0  0  0  0  0  2  0  0  0  0  0  0
  188.8770  178.3300  139.4630 C   0  0  0  0  0  2  0  0  0  0  0  0
  187.2210  177.5260  137.7530 C   0  0  0  0  0  0  0  0  0  0  0  0
  186.7230  176.5780  137.0920 O   0  0  0  0  0  0  0  0  0  0  0  0
  186.7420  178.8180  137.5740 O   0  0  0  0  0  1  0  0  0  0  0  0
  188.2720  177.2650  138.6790 N   0  0  0  0  0  2  0  0  0  0  0  0
  1  2  1  0  0  0  0
  3  2  1  6  0  0  0
  4  8  1  0  0  0  0
  4  3  1  0  0  0  0
  5  4  1  0  0  0  0
  6  5  1  0  0  0  0
  6  7  1  0  0  0  0
  7  1  1  0  0  0  0
  8  3  1  0  0  0  0
  8 13  1  0  0  0  0
  9 12  1  0  0  0  0
  9 15  1  0  0  0  0
 10 12  2  0  0  0  0
 11 10  1  0  0  0  0
 13  9  2  0  0  0  0
 14 11  2  0  0  0  0
 14 13  1  0  0  0  0
 15 18  1  0  0  0  0
 15 19  1  0  0  0  0
 17 16  1  0  0  0  0
 18 21  1  0  0  0  0
 18 19  1  0  0  0  0
 18 17  1  0  0  0  0
 19 20  1  0  0  0  0
 19 16  1  0  0  0  0
 21 17  1  0  0  0  0
 22  5  1  0  0  0  0
 23 22  1  0  0  0  0
 24 27  1  0  0  0  0
 25 24  2  0  0  0  0
 26 24  1  0  0  0  0
 27 23  1  0  0  0  0
M  END
>  <MODEL>
1

>  <REMARK>
 VINA RESULT:      -8.6      0.000      0.000
  Name = 
  5 active torsions:
  status: ('A' for Active; 'I' for Inactive)
    1  A    between atoms: C_1  and  C_6
    2  A    between atoms: C_2  and  C_14
    3  A    between atoms: C_2  and  N_20
    4  A    between atoms: C_14  and  C_19
    5  A    between atoms: C_17  and  C_27
                            x       y       z     vdW  Elec       q    Type
                         _______ _______ _______ _____ _____    ______ ____

>  <TORSDO>
F 5

$$$$
=
 OpenBabel11032419493D

 27 32  0  0  1  0  0  0  0  0999 V2000
  189.9580  176.7710  140.5260 C   0  0  0  0  0  2  0  0  0  0  0  0
  189.8240  176.1250  141.9220 C   0  0  0  0  0  2  0  0  0  0  0  0
  188.9420  176.9870  142.8000 C   0  0  1  0  0  3  0  0  0  0  0  0
  187.6430  177.0300  142.1140 N   0  0  2  0  0  0  0  0  0  0  0  0
  187.5810  178.4700  141.8510 C   0  0  1  0  0  3  0  0  0  0  0  0
  188.3570  178.7820  140.5470 C   0  0  0  0  0  2  0  0  0  0  0  0
  189.8260  178.3090  140.5310 C   0  0  0  0  0  2  0  0  0  0  0  0
  187.7930  176.4250  143.4720 C   0  0  2  0  0  3  0  0  0  0  0  0
  187.9770  177.4570  145.8240 C   0  0  0  0  0  0  0  0  0  0  0  0
  186.0670  178.6740  146.7350 C   0  0  0  0  0  3  0  0  0  0  0  0
  185.3800  178.5060  145.5370 C   0  0  0  0  0  3  0  0  0  0  0  0
  187.3430  178.1330  146.8820 C   0  0  0  0  0  3  0  0  0  0  0  0
  187.2780  177.3000  144.5950 C   0  0  0  0  0  0  0  0  0  0  0  0
  185.9730  177.8040  144.4890 C   0  0  0  0  0  3  0  0  0  0  0  0
  189.2790  176.7400  146.1250 C   0  0  1  0  0  3  0  0  0  0  0  0
  191.1610  176.5210  147.7770 N   0  0  0  0  0  2  0  0  0  0  0  0
  191.8050  177.2030  146.7320 N   0  0  2  0  0  0  0  0  0  0  0  0
  190.4990  177.6610  146.1670 C   0  0  1  0  0  0  0  0  0  0  0  0
  189.8770  177.0970  147.4470 C   0  0  1  0  0  0  0  0  0  0  0  0
  189.4770  178.3120  148.2780 C   0  0  0  0  0  1  0  0  0  0  0  0
  191.3760  176.7270  145.4400 C   0  0  0  0  0  2  0  0  0  0  0  0
  186.1320  178.9440  141.7040 C   0  0  0  0  0  2  0  0  0  0  0  0
  185.5250  178.6320  140.3400 C   0  0  0  0  0  2  0  0  0  0  0  0
  183.5370  179.5730  139.1250 C   0  0  0  0  0  0  0  0  0  0  0  0
  182.8830  180.5750  138.7340 O   0  0  0  0  0  0  0  0  0  0  0  0
  183.0800  178.2940  138.8310 O   0  0  0  0  0  1  0  0  0  0  0  0
  184.7390  179.7600  139.8670 N   0  0  0  0  0  2  0  0  0  0  0  0
  1  7  1  0  0  0  0
  1  2  1  0  0  0  0
  3  2  1  6  0  0  0
  3  8  1  0  0  0  0
  4  3  1  0  0  0  0
  4  8  1  0  0  0  0
  5  4  1  0  0  0  0
  6  5  1  0  0  0  0
  7  6  1  0  0  0  0
  8 13  1  0  0  0  0
  9 15  1  0  0  0  0
  9 12  1  0  0  0  0
 10 12  2  0  0  0  0
 11 10  1  0  0  0  0
 13  9  2  0  0  0  0
 14 13  1  0  0  0  0
 14 11  2  0  0  0  0
 15 18  1  0  0  0  0
 15 19  1  0  0  0  0
 17 16  1  0  0  0  0
 18 17  1  0  0  0  0
 18 19  1  0  0  0  0
 19 16  1  0  0  0  0
 19 20  1  0  0  0  0
 21 18  1  0  0  0  0
 21 17  1  0  0  0  0
 22  5  1  0  0  0  0
 23 22  1  0  0  0  0
 24 27  1  0  0  0  0
 25 24  2  0  0  0  0
 26 24  1  0  0  0  0
 27 23  1  0  0  0  0
M  END
>  <MODEL>
2

>  <REMARK>
 VINA RESULT:      -8.5      2.196      2.883
  Name = 
  5 active torsions:
  status: ('A' for Active; 'I' for Inactive)
    1  A    between atoms: C_1  and  C_6
    2  A    between atoms: C_2  and  C_14
    3  A    between atoms: C_2  and  N_20
    4  A    between atoms: C_14  and  C_19
    5  A    between atoms: C_17  and  C_27
                            x       y       z     vdW  Elec       q    Type
                         _______ _______ _______ _____ _____    ______ ____

>  <TORSDO>
F 5

$$$$
=
 OpenBabel11032419493D

 27 32  0  0  1  0  0  0  0  0999 V2000
  191.5290  176.9660  144.9680 C   0  0  0  0  0  2  0  0  0  0  0  0
  190.0150  176.8560  145.2580 C   0  0  0  0  0  2  0  0  0  0  0  0
  189.2340  177.4910  144.1280 C   0  0  1  0  0  3  0  0  0  0  0  0
  189.5970  176.7200  142.9300 N   0  0  2  0  0  0  0  0  0  0  0  0
  190.2230  177.7960  142.1590 C   0  0  1  0  0  3  0  0  0  0  0  0
  191.7020  177.9420  142.5970 C   0  0  0  0  0  2  0  0  0  0  0  0
  191.9160  178.1860  144.1060 C   0  0  0  0  0  2  0  0  0  0  0  0
  188.1940  176.7560  143.4450 C   0  0  2  0  0  3  0  0  0  0  0  0
  186.0650  178.1800  143.1840 C   0  0  0  0  0  0  0  0  0  0  0  0
  185.4580  179.0050  140.9680 C   0  0  0  0  0  3  0  0  0  0  0  0
  186.6290  178.4700  140.4400 C   0  0  0  0  0  3  0  0  0  0  0  0
  185.1700  178.8390  142.3220 C   0  0  0  0  0  3  0  0  0  0  0  0
  187.2690  177.6460  142.6440 C   0  0  0  0  0  0  0  0  0  0  0  0
  187.5100  177.7760  141.2680 C   0  0  0  0  0  3  0  0  0  0  0  0
  185.5940  177.8780  144.5930 C   0  0  1  0  0  3  0  0  0  0  0  0
  184.0720  178.6310  146.4480 N   0  0  0  0  0  2  0  0  0  0  0  0
  185.3240  178.9940  146.9690 N   0  0  2  0  0  0  0  0  0  0  0  0
  185.9480  178.9630  145.6110 C   0  0  1  0  0  0  0  0  0  0  0  0
  184.5200  178.7960  145.0830 C   0  0  1  0  0  0  0  0  0  0  0  0
  184.1630  180.1320  144.4390 C   0  0  0  0  0  1  0  0  0  0  0  0
  186.3340  178.0100  146.6670 C   0  0  0  0  0  2  0  0  0  0  0  0
  190.1670  177.5050  140.6560 C   0  0  0  0  0  2  0  0  0  0  0  0
  191.4970  177.0370  140.0760 C   0  0  0  0  0  2  0  0  0  0  0  0
  192.4050  176.3680  137.8300 C   0  0  0  0  0  0  0  0  0  0  0  0
  192.2020  175.9230  136.6710 O   0  0  0  0  0  0  0  0  0  0  0  0
  193.6950  176.7010  138.2250 O   0  0  0  0  0  1  0  0  0  0  0  0
  191.3090  176.5270  138.7280 N   0  0  0  0  0  2  0  0  0  0  0  0
  1  2  1  0  0  0  0
  3  2  1  1  0  0  0
  4  8  1  0  0  0  0
  4  3  1  0  0  0  0
  5  6  1  0  0  0  0
  5  4  1  0  0  0  0
  6  7  1  0  0  0  0
  7  1  1  0  0  0  0
  8  3  1  0  0  0  0
  9 15  1  0  0  0  0
 10 12  1  0  0  0  0
 11 10  2  0  0  0  0
 11 14  1  0  0  0  0
 12  9  2  0  0  0  0
 13  9  1  0  0  0  0
 13  8  1  0  0  0  0
 14 13  2  0  0  0  0
 15 19  1  0  0  0  0
 15 18  1  0  0  0  0
 16 17  1  0  0  0  0
 18 21  1  0  0  0  0
 18 17  1  0  0  0  0
 19 18  1  0  0  0  0
 19 16  1  0  0  0  0
 20 19  1  0  0  0  0
 21 17  1  0  0  0  0
 22  5  1  0  0  0  0
 23 22  1  0  0  0  0
 24 26  1  0  0  0  0
 24 27  1  0  0  0  0
 25 24  2  0  0  0  0
 27 23  1  0  0  0  0
M  END
>  <MODEL>
3

>  <REMARK>
 VINA RESULT:      -7.8      2.542      3.268
  Name = 
  5 active torsions:
  status: ('A' for Active; 'I' for Inactive)
    1  A    between atoms: C_1  and  C_6
    2  A    between atoms: C_2  and  C_14
    3  A    between atoms: C_2  and  N_20
    4  A    between atoms: C_14  and  C_19
    5  A    between atoms: C_17  and  C_27
                            x       y       z     vdW  Elec       q    Type
                         _______ _______ _______ _____ _____    ______ ____

>  <TORSDO>
F 5

$$$$
=
 OpenBabel11032419493D

 27 32  0  0  1  0  0  0  0  0999 V2000
  190.9540  176.7400  142.4100 C   0  0  0  0  0  2  0  0  0  0  0  0
  190.5970  177.3550  141.0390 C   0  0  0  0  0  2  0  0  0  0  0  0
  189.0930  177.3760  140.8670 C   0  0  1  0  0  3  0  0  0  0  0  0
  188.5930  178.2150  141.9660 N   0  0  2  0  0  0  0  0  0  0  0  0
  187.7910  177.2090  142.6630 C   0  0  1  0  0  3  0  0  0  0  0  0
  188.7080  176.3950  143.6110 C   0  0  0  0  0  2  0  0  0  0  0  0
  189.9180  175.7210  142.9310 C   0  0  0  0  0  2  0  0  0  0  0  0
  188.4050  178.6020  140.5340 C   0  0  2  0  0  3  0  0  0  0  0  0
  186.7380  177.6420  138.8220 C   0  0  0  0  0  0  0  0  0  0  0  0
  184.3900  178.2940  138.9630 C   0  0  0  0  0  3  0  0  0  0  0  0
  184.6530  179.0180  140.1210 C   0  0  0  0  0  3  0  0  0  0  0  0
  185.4290  177.6330  138.3090 C   0  0  0  0  0  3  0  0  0  0  0  0
  187.0030  178.3720  140.0150 C   0  0  0  0  0  0  0  0  0  0  0  0
  185.9520  179.0750  140.6240 C   0  0  0  0  0  3  0  0  0  0  0  0
  187.8390  177.0610  137.9560 C   0  0  1  0  0  3  0  0  0  0  0  0
  189.3220  177.4880  135.9710 N   0  0  0  0  0  2  0  0  0  0  0  0
  188.4350  176.5390  135.4390 N   0  0  2  0  0  0  0  0  0  0  0  0
  187.4240  176.8210  136.5040 C   0  0  1  0  0  0  0  0  0  0  0  0
  188.3310  177.9920  136.8950 C   0  0  1  0  0  0  0  0  0  0  0  0
  187.5970  179.2480  136.4380 C   0  0  0  0  0  1  0  0  0  0  0  0
  188.1040  175.5180  136.4020 C   0  0  0  0  0  2  0  0  0  0  0  0
  186.6710  177.8620  143.4800 C   0  0  0  0  0  2  0  0  0  0  0  0
  186.5070  177.2660  144.8740 C   0  0  0  0  0  2  0  0  0  0  0  0
  185.6170  178.9260  146.5370 C   0  0  0  0  0  0  0  0  0  0  0  0
  185.8350  179.8060  147.4090 O   0  0  0  0  0  1  0  0  0  0  0  0
  184.3090  178.5840  146.2150 O   0  0  0  0  0  0  0  0  0  0  0  0
  186.7140  178.2880  145.8870 N   0  0  0  0  0  2  0  0  0  0  0  0
  1  7  1  0  0  0  0
  2  1  1  0  0  0  0
  3  2  1  1  0  0  0
  3  4  1  0  0  0  0
  4  5  1  0  0  0  0
  5 22  1  0  0  0  0
  5  6  1  0  0  0  0
  7  6  1  0  0  0  0
  8  3  1  0  0  0  0
  8  4  1  0  0  0  0
  9 13  1  0  0  0  0
 10 11  2  0  0  0  0
 11 14  1  0  0  0  0
 12  9  2  0  0  0  0
 12 10  1  0  0  0  0
 13  8  1  0  0  0  0
 13 14  2  0  0  0  0
 15  9  1  0  0  0  0
 16 19  1  0  0  0  0
 17 16  1  0  0  0  0
 17 21  1  0  0  0  0
 17 18  1  0  0  0  0
 18 19  1  0  0  0  0
 18 15  1  0  0  0  0
 19 15  1  0  0  0  0
 20 19  1  0  0  0  0
 21 18  1  0  0  0  0
 22 23  1  0  0  0  0
 23 27  1  0  0  0  0
 24 25  1  0  0  0  0
 26 24  2  0  0  0  0
 27 24  1  0  0  0  0
M  END
>  <MODEL>
4

>  <REMARK>
 VINA RESULT:      -7.8      3.157      7.415
  Name = 
  5 active torsions:
  status: ('A' for Active; 'I' for Inactive)
    1  A    between atoms: C_1  and  C_6
    2  A    between atoms: C_2  and  C_14
    3  A    between atoms: C_2  and  N_20
    4  A    between atoms: C_14  and  C_19
    5  A    between atoms: C_17  and  C_27
                            x       y       z     vdW  Elec       q    Type
                         _______ _______ _______ _____ _____    ______ ____

>  <TORSDO>
F 5

$$$$
=
 OpenBabel11032419493D

 27 32  0  0  1  0  0  0  0  0999 V2000
  191.3850  177.1220  142.4120 C   0  0  0  0  0  2  0  0  0  0  0  0
  191.3190  177.4080  140.8960 C   0  0  0  0  0  2  0  0  0  0  0  0
  189.9070  177.1840  140.3970 C   0  0  1  0  0  3  0  0  0  0  0  0
  189.0790  178.1390  141.1500 N   0  0  2  0  0  0  0  0  0  0  0  0
  188.2270  177.1810  141.8560 C   0  0  1  0  0  3  0  0  0  0  0  0
  188.9550  176.7000  143.1360 C   0  0  0  0  0  2  0  0  0  0  0  0
  190.3520  176.0850  142.9020 C   0  0  0  0  0  2  0  0  0  0  0  0
  189.2110  178.2150  139.6630 C   0  0  2  0  0  3  0  0  0  0  0  0
  188.0770  176.5870  138.0220 C   0  0  0  0  0  0  0  0  0  0  0  0
  185.7830  177.0280  137.3130 C   0  0  0  0  0  3  0  0  0  0  0  0
  185.7200  178.1200  138.1730 C   0  0  0  0  0  3  0  0  0  0  0  0
  186.9600  176.2850  137.2230 C   0  0  0  0  0  3  0  0  0  0  0  0
  188.0050  177.6950  138.9110 C   0  0  0  0  0  0  0  0  0  0  0  0
  186.8300  178.4620  138.9430 C   0  0  0  0  0  3  0  0  0  0  0  0
  189.3720  175.8540  137.7290 C   0  0  1  0  0  3  0  0  0  0  0  0
  191.3450  175.7250  136.1750 N   0  0  0  0  0  2  0  0  0  0  0  0
  190.6350  174.5740  135.7970 N   0  0  2  0  0  0  0  0  0  0  0  0
  189.3710  175.1020  136.3970 C   0  0  1  0  0  0  0  0  0  0  0  0
  190.1390  176.4150  136.5750 C   0  0  1  0  0  0  0  0  0  0  0  0
  189.5620  177.3710  135.5350 C   0  0  0  0  0  1  0  0  0  0  0  0
  190.0490  173.9100  136.9360 C   0  0  0  0  0  2  0  0  0  0  0  0
  186.8870  177.8130  142.2440 C   0  0  0  0  0  2  0  0  0  0  0  0
  186.6710  177.9070  143.7510 C   0  0  0  0  0  2  0  0  0  0  0  0
  184.9260  178.7780  145.3350 C   0  0  0  0  0  0  0  0  0  0  0  0
  183.7350  179.1240  145.5470 O   0  0  0  0  0  0  0  0  0  0  0  0
  185.8580  178.8480  146.3630 O   0  0  0  0  0  1  0  0  0  0  0  0
  185.3070  178.3160  144.0410 N   0  0  0  0  0  2  0  0  0  0  0  0
  1  7  1  0  0  0  0
  2  1  1  0  0  0  0
  3  2  1  1  0  0  0
  3  4  1  0  0  0  0
  4  5  1  0  0  0  0
  5 22  1  0  0  0  0
  5  6  1  0  0  0  0
  7  6  1  0  0  0  0
  8  3  1  0  0  0  0
  8  4  1  0  0  0  0
  9 13  1  0  0  0  0
 10 11  2  0  0  0  0
 11 14  1  0  0  0  0
 12 10  1  0  0  0  0
 12  9  2  0  0  0  0
 13 14  2  0  0  0  0
 13  8  1  0  0  0  0
 15  9  1  0  0  0  0
 16 19  1  0  0  0  0
 17 16  1  0  0  0  0
 17 18  1  0  0  0  0
 17 21  1  0  0  0  0
 18 19  1  0  0  0  0
 18 21  1  0  0  0  0
 18 15  1  0  0  0  0
 19 15  1  0  0  0  0
 20 19  1  0  0  0  0
 22 23  1  0  0  0  0
 23 27  1  0  0  0  0
 24 25  2  0  0  0  0
 24 26  1  0  0  0  0
 27 24  1  0  0  0  0
M  END
>  <MODEL>
5

>  <REMARK>
 VINA RESULT:      -7.7      3.405      7.655
  Name = 
  5 active torsions:
  status: ('A' for Active; 'I' for Inactive)
    1  A    between atoms: C_1  and  C_6
    2  A    between atoms: C_2  and  C_14
    3  A    between atoms: C_2  and  N_20
    4  A    between atoms: C_14  and  C_19
    5  A    between atoms: C_17  and  C_27
                            x       y       z     vdW  Elec       q    Type
                         _______ _______ _______ _____ _____    ______ ____

>  <TORSDO>
F 5

$$$$
=
 OpenBabel11032419493D

 27 32  0  0  1  0  0  0  0  0999 V2000
  188.7590  177.7730  141.9300 C   0  0  0  0  0  2  0  0  0  0  0  0
  187.6100  178.3860  141.1010 C   0  0  0  0  0  2  0  0  0  0  0  0
  186.3030  178.2310  141.8490 C   0  0  1  0  0  3  0  0  0  0  0  0
  186.4930  178.9660  143.1080 N   0  0  2  0  0  0  0  0  0  0  0  0
  186.3450  177.8460  144.0400 C   0  0  1  0  0  3  0  0  0  0  0  0
  187.7050  177.1180  144.1810 C   0  0  0  0  0  2  0  0  0  0  0  0
  188.3200  176.6190  142.8570 C   0  0  0  0  0  2  0  0  0  0  0  0
  185.4600  179.3750  142.1080 C   0  0  2  0  0  3  0  0  0  0  0  0
  183.2110  178.2050  141.6540 C   0  0  0  0  0  0  0  0  0  0  0  0
  181.3320  178.6320  143.1530 C   0  0  0  0  0  3  0  0  0  0  0  0
  182.1470  179.4150  143.9640 C   0  0  0  0  0  3  0  0  0  0  0  0
  181.8560  178.0540  141.9970 C   0  0  0  0  0  3  0  0  0  0  0  0
  184.0470  178.9940  142.4930 C   0  0  0  0  0  0  0  0  0  0  0  0
  183.4840  179.6120  143.6210 C   0  0  0  0  0  3  0  0  0  0  0  0
  183.6550  177.7060  140.2930 C   0  0  1  0  0  3  0  0  0  0  0  0
  183.7490  178.2580  137.8420 N   0  0  0  0  0  2  0  0  0  0  0  0
  182.7500  177.2720  137.8520 N   0  0  2  0  0  0  0  0  0  0  0  0
  182.5040  177.4730  139.3130 C   0  0  1  0  0  0  0  0  0  0  0  0
  183.4310  178.6850  139.1860 C   0  0  1  0  0  0  0  0  0  0  0  0
  182.5240  179.9070  139.2820 C   0  0  0  0  0  1  0  0  0  0  0  0
  183.0540  176.2130  138.7830 C   0  0  0  0  0  2  0  0  0  0  0  0
  185.8840  178.3310  145.4190 C   0  0  0  0  0  2  0  0  0  0  0  0
  186.3770  177.4570  146.5670 C   0  0  0  0  0  2  0  0  0  0  0  0
  188.4480  177.8810  147.9260 C   0  0  0  0  0  0  0  0  0  0  0  0
  189.0710  178.5960  148.7520 O   0  0  0  0  0  1  0  0  0  0  0  0
  189.0460  176.7340  147.4180 O   0  0  0  0  0  0  0  0  0  0  0  0
  187.1330  178.2530  147.5200 N   0  0  0  0  0  2  0  0  0  0  0  0
  1  7  1  0  0  0  0
  2  1  1  0  0  0  0
  3  2  1  6  0  0  0
  3  8  1  0  0  0  0
  3  4  1  0  0  0  0
  4  5  1  0  0  0  0
  5  6  1  0  0  0  0
  5 22  1  0  0  0  0
  7  6  1  0  0  0  0
  8 13  1  0  0  0  0
  8  4  1  0  0  0  0
  9 12  2  0  0  0  0
  9 13  1  0  0  0  0
 10 11  2  0  0  0  0
 12 10  1  0  0  0  0
 13 14  2  0  0  0  0
 14 11  1  0  0  0  0
 15  9  1  0  0  0  0
 16 17  1  0  0  0  0
 16 19  1  0  0  0  0
 17 21  1  0  0  0  0
 17 18  1  0  0  0  0
 18 15  1  0  0  0  0
 19 20  1  0  0  0  0
 19 18  1  0  0  0  0
 19 15  1  0  0  0  0
 21 18  1  0  0  0  0
 22 23  1  0  0  0  0
 23 27  1  0  0  0  0
 24 25  1  0  0  0  0
 26 24  2  0  0  0  0
 27 24  1  0  0  0  0
M  END
>  <MODEL>
6

>  <REMARK>
 VINA RESULT:      -7.5      4.052      7.334
  Name = 
  5 active torsions:
  status: ('A' for Active; 'I' for Inactive)
    1  A    between atoms: C_1  and  C_6
    2  A    between atoms: C_2  and  C_14
    3  A    between atoms: C_2  and  N_20
    4  A    between atoms: C_14  and  C_19
    5  A    between atoms: C_17  and  C_27
                            x       y       z     vdW  Elec       q    Type
                         _______ _______ _______ _____ _____    ______ ____

>  <TORSDO>
F 5

$$$$
=
 OpenBabel11032419493D

 27 32  0  0  1  0  0  0  0  0999 V2000
  184.7690  178.3630  144.1300 C   0  0  0  0  0  2  0  0  0  0  0  0
  185.4040  178.0530  142.7570 C   0  0  0  0  0  2  0  0  0  0  0  0
  186.9100  177.9860  142.8960 C   0  0  1  0  0  3  0  0  0  0  0  0
  187.1590  176.8940  143.8500 N   0  0  2  0  0  0  0  0  0  0  0  0
  187.8020  177.6710  144.9110 C   0  0  1  0  0  3  0  0  0  0  0  0
  186.7110  178.3010  145.8120 C   0  0  0  0  0  2  0  0  0  0  0  0
  185.6780  179.1780  145.0730 C   0  0  0  0  0  2  0  0  0  0  0  0
  187.6440  176.8290  142.4370 C   0  0  2  0  0  3  0  0  0  0  0  0
  189.6920  177.6160  141.0890 C   0  0  0  0  0  0  0  0  0  0  0  0
  191.9250  177.2180  141.9900 C   0  0  0  0  0  3  0  0  0  0  0  0
  191.3710  176.6910  143.1510 C   0  0  0  0  0  3  0  0  0  0  0  0
  191.0910  177.6540  140.9600 C   0  0  0  0  0  3  0  0  0  0  0  0
  189.1260  177.0900  142.2840 C   0  0  0  0  0  0  0  0  0  0  0  0
  189.9860  176.6070  143.2830 C   0  0  0  0  0  3  0  0  0  0  0  0
  188.8620  177.9300  139.8590 C   0  0  1  0  0  3  0  0  0  0  0  0
  188.2830  177.1710  137.5330 N   0  0  0  0  0  2  0  0  0  0  0  0
  189.0770  178.2950  137.2540 N   0  0  2  0  0  0  0  0  0  0  0  0
  189.6920  178.2530  138.6160 C   0  0  1  0  0  0  0  0  0  0  0  0
  188.9760  176.9080  138.7740 C   0  0  1  0  0  0  0  0  0  0  0  0
  190.0710  175.8490  138.6940 C   0  0  0  0  0  1  0  0  0  0  0  0
  188.8300  179.3670  138.1860 C   0  0  0  0  0  2  0  0  0  0  0  0
  188.7180  176.7890  145.7650 C   0  0  0  0  0  2  0  0  0  0  0  0
  189.2900  177.5060  146.9830 C   0  0  0  0  0  2  0  0  0  0  0  0
  191.5400  176.4430  147.3320 C   0  0  0  0  0  0  0  0  0  0  0  0
  192.2790  175.6680  147.9940 O   0  0  0  0  0  1  0  0  0  0  0  0
  192.0560  177.1160  146.2320 O   0  0  0  0  0  0  0  0  0  0  0  0
  190.1800  176.6210  147.7180 N   0  0  0  0  0  2  0  0  0  0  0  0
  1  7  1  0  0  0  0
  2  1  1  0  0  0  0
  3  2  1  6  0  0  0
  3  4  1  0  0  0  0
  4  5  1  0  0  0  0
  5 22  1  0  0  0  0
  5  6  1  0  0  0  0
  7  6  1  0  0  0  0
  8  3  1  0  0  0  0
  8  4  1  0  0  0  0
  9 13  1  0  0  0  0
 10 11  2  0  0  0  0
 11 14  1  0  0  0  0
 12  9  2  0  0  0  0
 12 10  1  0  0  0  0
 13  8  1  0  0  0  0
 13 14  2  0  0  0  0
 15  9  1  0  0  0  0
 16 19  1  0  0  0  0
 17 16  1  0  0  0  0
 17 21  1  0  0  0  0
 17 18  1  0  0  0  0
 18 19  1  0  0  0  0
 18 15  1  0  0  0  0
 19 15  1  0  0  0  0
 20 19  1  0  0  0  0
 21 18  1  0  0  0  0
 22 23  1  0  0  0  0
 23 27  1  0  0  0  0
 24 27  1  0  0  0  0
 24 25  1  0  0  0  0
 26 24  2  0  0  0  0
M  END
>  <MODEL>
7

>  <REMARK>
 VINA RESULT:      -7.5      3.349      7.655
  Name = 
  5 active torsions:
  status: ('A' for Active; 'I' for Inactive)
    1  A    between atoms: C_1  and  C_6
    2  A    between atoms: C_2  and  C_14
    3  A    between atoms: C_2  and  N_20
    4  A    between atoms: C_14  and  C_19
    5  A    between atoms: C_17  and  C_27
                            x       y       z     vdW  Elec       q    Type
                         _______ _______ _______ _____ _____    ______ ____

>  <TORSDO>
F 5

$$$$
=
 OpenBabel11032419493D

 27 32  0  0  1  0  0  0  0  0999 V2000
  184.4150  179.0160  142.3510 C   0  0  0  0  0  2  0  0  0  0  0  0
  185.5530  179.1040  141.3110 C   0  0  0  0  0  2  0  0  0  0  0  0
  186.8870  178.9000  141.9970 C   0  0  1  0  0  3  0  0  0  0  0  0
  186.8140  177.5540  142.5850 N   0  0  2  0  0  0  0  0  0  0  0  0
  186.9430  177.9240  143.9960 C   0  0  1  0  0  3  0  0  0  0  0  0
  185.5500  178.3150  144.5490 C   0  0  0  0  0  2  0  0  0  0  0  0
  184.8320  179.4420  143.7760 C   0  0  0  0  0  2  0  0  0  0  0  0
  187.8140  177.8960  141.5270 C   0  0  2  0  0  3  0  0  0  0  0  0
  190.3500  177.4570  141.4720 C   0  0  0  0  0  0  0  0  0  0  0  0
  191.7320  178.2700  143.3130 C   0  0  0  0  0  3  0  0  0  0  0  0
  190.6220  178.8810  143.8860 C   0  0  0  0  0  3  0  0  0  0  0  0
  191.5900  177.5450  142.1300 C   0  0  0  0  0  3  0  0  0  0  0  0
  189.2190  178.0960  142.0520 C   0  0  0  0  0  0  0  0  0  0  0  0
  189.3750  178.7720  143.2720 C   0  0  0  0  0  3  0  0  0  0  0  0
  190.2400  176.5000  140.3000 C   0  0  1  0  0  3  0  0  0  0  0  0
  191.4480  175.5590  138.3060 N   0  0  0  0  0  2  0  0  0  0  0  0
  190.5150  176.3980  137.6770 N   0  0  2  0  0  0  0  0  0  0  0  0
  190.3080  177.1830  138.9340 C   0  0  1  0  0  0  0  0  0  0  0  0
  191.4910  176.3870  139.4910 C   0  0  1  0  0  0  0  0  0  0  0  0
  192.6550  177.3710  139.5530 C   0  0  0  0  0  1  0  0  0  0  0  0
  189.2350  176.3660  138.3410 C   0  0  0  0  0  2  0  0  0  0  0  0
  187.5080  176.7640  144.8220 C   0  0  0  0  0  2  0  0  0  0  0  0
  187.9080  177.1650  146.2390 C   0  0  0  0  0  2  0  0  0  0  0  0
  190.0030  177.3220  147.6160 C   0  0  0  0  0  0  0  0  0  0  0  0
  191.2040  176.9920  147.8010 O   0  0  0  0  0  0  0  0  0  0  0  0
  189.3790  178.1830  148.5110 O   0  0  0  0  0  1  0  0  0  0  0  0
  189.2960  176.8100  146.4900 N   0  0  0  0  0  2  0  0  0  0  0  0
  1  7  1  0  0  0  0
  2  1  1  0  0  0  0
  3  2  1  6  0  0  0
  3  4  1  0  0  0  0
  4  5  1  0  0  0  0
  5  6  1  0  0  0  0
  5 22  1  0  0  0  0
  7  6  1  0  0  0  0
  8  3  1  0  0  0  0
  8 13  1  0  0  0  0
  8  4  1  0  0  0  0
  9 13  2  0  0  0  0
  9 12  1  0  0  0  0
 10 11  1  0  0  0  0
 12 10  2  0  0  0  0
 13 14  1  0  0  0  0
 14 11  2  0  0  0  0
 15  9  1  0  0  0  0
 16 19  1  0  0  0  0
 17 16  1  0  0  0  0
 17 21  1  0  0  0  0
 17 18  1  0  0  0  0
 18 19  1  0  0  0  0
 18 15  1  0  0  0  0
 19 20  1  0  0  0  0
 19 15  1  0  0  0  0
 21 18  1  0  0  0  0
 22 23  1  0  0  0  0
 23 27  1  0  0  0  0
 24 25  2  0  0  0  0
 24 26  1  0  0  0  0
 27 24  1  0  0  0  0
M  END
>  <MODEL>
8

>  <REMARK>
 VINA RESULT:      -7.2      3.533      7.551
  Name = 
  5 active torsions:
  status: ('A' for Active; 'I' for Inactive)
    1  A    between atoms: C_1  and  C_6
    2  A    between atoms: C_2  and  C_14
    3  A    between atoms: C_2  and  N_20
    4  A    between atoms: C_14  and  C_19
    5  A    between atoms: C_17  and  C_27
                            x       y       z     vdW  Elec       q    Type
                         _______ _______ _______ _____ _____    ______ ____

>  <TORSDO>
F 5

$$$$
=
 OpenBabel11032419493D

 27 32  0  0  1  0  0  0  0  0999 V2000
  191.6800  176.7020  143.8580 C   0  0  0  0  0  2  0  0  0  0  0  0
  190.2730  176.7770  144.4910 C   0  0  0  0  0  2  0  0  0  0  0  0
  189.3110  177.4250  143.5180 C   0  0  1  0  0  3  0  0  0  0  0  0
  189.3110  176.5480  142.3380 N   0  0  2  0  0  0  0  0  0  0  0  0
  189.8360  177.5000  141.3570 C   0  0  1  0  0  3  0  0  0  0  0  0
  191.3840  177.5080  141.4350 C   0  0  0  0  0  2  0  0  0  0  0  0
  191.9660  177.8180  142.8300 C   0  0  0  0  0  2  0  0  0  0  0  0
  188.0770  176.7690  143.1520 C   0  0  2  0  0  3  0  0  0  0  0  0
  185.9650  178.2400  143.2190 C   0  0  0  0  0  0  0  0  0  0  0  0
  185.0970  179.1600  141.1310 C   0  0  0  0  0  3  0  0  0  0  0  0
  186.1780  178.6240  140.4370 C   0  0  0  0  0  3  0  0  0  0  0  0
  184.9820  178.9480  142.5040 C   0  0  0  0  0  3  0  0  0  0  0  0
  187.0770  177.7050  142.5100 C   0  0  0  0  0  0  0  0  0  0  0  0
  187.1420  177.8840  141.1200 C   0  0  0  0  0  3  0  0  0  0  0  0
  185.6720  177.8940  144.6660 C   0  0  1  0  0  3  0  0  0  0  0  0
  184.1800  178.3900  146.6280 N   0  0  0  0  0  2  0  0  0  0  0  0
  185.3730  179.0040  147.0410 N   0  0  2  0  0  0  0  0  0  0  0  0
  185.8850  179.0550  145.6370 C   0  0  1  0  0  0  0  0  0  0  0  0
  184.4810  178.6000  145.2290 C   0  0  1  0  0  0  0  0  0  0  0  0
  183.8210  179.8220  144.5990 C   0  0  0  0  0  1  0  0  0  0  0  0
  186.5300  178.2270  146.6710 C   0  0  0  0  0  2  0  0  0  0  0  0
  189.4030  177.1270  139.9360 C   0  0  0  0  0  2  0  0  0  0  0  0
  190.0340  178.0010  138.8580 C   0  0  0  0  0  2  0  0  0  0  0  0
  188.2510  178.6350  137.2050 C   0  0  0  0  0  0  0  0  0  0  0  0
  187.4160  179.4780  136.7850 O   0  0  0  0  0  1  0  0  0  0  0  0
  188.3780  177.4110  136.5610 O   0  0  0  0  0  0  0  0  0  0  0  0
  189.0580  178.9450  138.3380 N   0  0  0  0  0  2  0  0  0  0  0  0
  1  2  1  0  0  0  0
  3  2  1  1  0  0  0
  4  8  1  0  0  0  0
  4  3  1  0  0  0  0
  5  6  1  0  0  0  0
  5  4  1  0  0  0  0
  6  7  1  0  0  0  0
  7  1  1  0  0  0  0
  8  3  1  0  0  0  0
  9 15  1  0  0  0  0
 10 12  1  0  0  0  0
 11 14  1  0  0  0  0
 11 10  2  0  0  0  0
 12  9  2  0  0  0  0
 13  8  1  0  0  0  0
 13  9  1  0  0  0  0
 14 13  2  0  0  0  0
 15 19  1  0  0  0  0
 15 18  1  0  0  0  0
 16 17  1  0  0  0  0
 18 21  1  0  0  0  0
 18 17  1  0  0  0  0
 19 18  1  0  0  0  0
 19 16  1  0  0  0  0
 20 19  1  0  0  0  0
 21 17  1  0  0  0  0
 22  5  1  0  0  0  0
 23 22  1  0  0  0  0
 24 27  1  0  0  0  0
 25 24  1  0  0  0  0
 26 24  2  0  0  0  0
 27 23  1  0  0  0  0
M  END
>  <MODEL>
9

>  <REMARK>
 VINA RESULT:      -7.2      1.620      2.453
  Name = 
  5 active torsions:
  status: ('A' for Active; 'I' for Inactive)
    1  A    between atoms: C_1  and  C_6
    2  A    between atoms: C_2  and  C_14
    3  A    between atoms: C_2  and  N_20
    4  A    between atoms: C_14  and  C_19
    5  A    between atoms: C_17  and  C_27
                            x       y       z     vdW  Elec       q    Type
                         _______ _______ _______ _____ _____    ______ ____

>  <TORSDO>
F 5

$$$$
