=
 OpenBabel11032419343D

 31 33  0  0  1  0  0  0  0  0999 V2000
  186.6330  177.7170  143.5360 N   0  0  0  0  0  0  0  0  0  0  0  0
  185.1750  179.2850  142.5800 O   0  0  0  0  0  0  0  0  0  0  0  0
  185.6180  178.7340  143.6250 C   0  0  0  0  0  0  0  0  0  0  0  0
  185.0510  179.1330  144.9470 C   0  0  0  0  0  2  0  0  0  0  0  0
  183.5440  178.9550  144.9370 C   0  0  0  0  0  1  0  0  0  0  0  0
  187.0350  177.0170  144.6850 N   0  0  0  0  0  2  0  0  0  0  0  0
  188.4300  176.8810  144.6190 N   0  0  0  0  0  2  0  0  0  0  0  0
  190.1380  178.6050  144.3630 C   0  0  0  0  0  2  0  0  0  0  0  0
  190.7190  176.7990  146.5990 C   0  0  0  0  0  0  0  0  0  0  0  0
  191.3260  177.6840  144.3490 C   0  0  0  0  0  0  0  0  0  0  0  0
  189.0130  178.0600  145.2450 C   0  0  2  0  0  3  0  0  0  0  0  0
  189.5410  177.7400  146.6560 C   0  0  1  0  0  3  0  0  0  0  0  0
  192.1180  177.7010  143.3710 O   0  0  0  0  0  0  0  0  0  0  0  0
  190.9920  176.0420  147.5720 O   0  0  0  0  0  0  0  0  0  0  0  0
  191.5880  176.8220  145.4610 N   0  0  0  0  0  2  0  0  0  0  0  0
  188.4720  178.0010  148.8820 C   0  0  0  0  0  2  0  0  0  0  0  0
  188.4290  177.2330  147.5750 C   0  0  0  0  0  3  0  0  0  0  0  0
  187.4310  178.3450  147.8410 C   0  0  0  0  0  2  0  0  0  0  0  0
  187.1580  177.2880  142.2440 C   0  0  0  0  0  2  0  0  0  0  0  0
  187.9130  178.4200  141.5500 C   0  0  0  0  0  2  0  0  0  0  0  0
  187.1860  178.4030  138.7680 F   0  0  0  0  0  0  0  0  0  0  0  0
  188.8020  177.9020  140.4670 C   0  0  0  0  0  0  0  0  0  0  0  0
  190.0570  177.3810  140.7970 C   0  0  0  0  0  2  0  0  0  0  0  0
  190.5020  176.8860  138.5110 C   0  0  0  0  0  0  0  0  0  0  0  0
  189.2480  177.3930  138.1460 C   0  0  0  0  0  2  0  0  0  0  0  0
  188.3970  177.9060  139.1260 C   0  0  0  0  0  0  0  0  0  0  0  0
  190.8700  176.8920  139.8230 N   0  0  0  0  0  0  0  0  0  0  0  0
  192.6190  174.5940  136.1920 C   0  0  0  0  0  1  0  0  0  0  0  0
  190.8530  174.0800  137.6900 O   0  0  0  0  0  0  0  0  0  0  0  0
  191.4120  176.3570  137.5330 N   0  0  0  0  0  2  0  0  0  0  0  0
  191.5820  174.9750  137.1870 C   0  0  0  0  0  0  0  0  0  0  0  0
  1  3  1  0  0  0  0
  1  6  1  0  0  0  0
  2  3  2  0  0  0  0
  3  4  1  0  0  0  0
  5  4  1  0  0  0  0
  7  6  1  0  0  0  0
  8 11  1  0  0  0  0
  9 12  1  0  0  0  0
  9 14  2  0  0  0  0
 10  8  1  0  0  0  0
 10 15  1  0  0  0  0
 11  7  1  6  0  0  0
 11 12  1  0  0  0  0
 12 17  1  1  0  0  0
 13 10  2  0  0  0  0
 15  9  1  0  0  0  0
 17 18  1  0  0  0  0
 17 16  1  0  0  0  0
 18 16  1  0  0  0  0
 19  1  1  0  0  0  0
 20 19  1  0  0  0  0
 21 26  1  0  0  0  0
 22 23  1  0  0  0  0
 22 20  1  0  0  0  0
 24 27  2  0  0  0  0
 25 24  1  0  0  0  0
 25 26  1  0  0  0  0
 26 22  2  0  0  0  0
 27 23  1  0  0  0  0
 28 31  1  0  0  0  0
 30 24  1  0  0  0  0
 31 30  1  0  0  0  0
 31 29  2  0  0  0  0
M  END
>  <MODEL>
1

>  <REMARK>
 VINA RESULT:      -8.3      0.000      0.000
  Name = 
  9 active torsions:
  status: ('A' for Active; 'I' for Inactive)
    1  A    between atoms: N_2  and  N_3
    2  A    between atoms: N_2  and  N_9
    3  A    between atoms: N_3  and  C_15
    4  A    between atoms: C_7  and  C_27
    5  A    between atoms: N_9  and  C_25
    6  A    between atoms: C_10  and  C_14
    7  A    between atoms: C_14  and  C_25
    8  A    between atoms: N_17  and  C_19
    9  A    between atoms: C_18  and  C_26
                            x       y       z     vdW  Elec       q    Type
                         _______ _______ _______ _____ _____    ______ ____

>  <TORSDO>
F 9

$$$$
=
 OpenBabel11032419343D

 31 33  0  0  1  0  0  0  0  0999 V2000
  190.4250  177.0430  144.3100 N   0  0  0  0  0  0  0  0  0  0  0  0
  192.0010  175.3150  144.4800 O   0  0  0  0  0  0  0  0  0  0  0  0
  191.4440  176.3120  145.0170 C   0  0  0  0  0  0  0  0  0  0  0  0
  191.8820  176.7370  146.3800 C   0  0  0  0  0  2  0  0  0  0  0  0
  192.2030  175.5170  147.2230 C   0  0  0  0  0  1  0  0  0  0  0  0
  189.8950  178.2240  144.8550 N   0  0  0  0  0  2  0  0  0  0  0  0
  188.5900  178.3580  144.3590 N   0  0  0  0  0  2  0  0  0  0  0  0
  186.7110  176.8640  143.9190 C   0  0  0  0  0  2  0  0  0  0  0  0
  186.1320  178.7580  146.0810 C   0  0  0  0  0  0  0  0  0  0  0  0
  185.6610  177.9290  143.7780 C   0  0  0  0  0  0  0  0  0  0  0  0
  187.7970  177.2720  144.9170 C   0  0  2  0  0  3  0  0  0  0  0  0
  187.1670  177.6750  146.2640 C   0  0  1  0  0  3  0  0  0  0  0  0
  184.9820  178.0010  142.7210 O   0  0  0  0  0  0  0  0  0  0  0  0
  185.8570  179.5560  147.0200 O   0  0  0  0  0  0  0  0  0  0  0  0
  185.3940  178.8320  144.8570 N   0  0  0  0  0  2  0  0  0  0  0  0
  187.7370  177.6670  148.6810 C   0  0  0  0  0  2  0  0  0  0  0  0
  188.2300  178.0480  147.2980 C   0  0  0  0  0  3  0  0  0  0  0  0
  188.7520  176.7940  147.9770 C   0  0  0  0  0  2  0  0  0  0  0  0
  190.0260  176.6630  142.9590 C   0  0  0  0  0  2  0  0  0  0  0  0
  190.7320  177.5220  141.9110 C   0  0  0  0  0  2  0  0  0  0  0  0
  191.6880  176.8230  139.2900 F   0  0  0  0  0  0  0  0  0  0  0  0
  189.9110  177.6550  140.6700 C   0  0  0  0  0  0  0  0  0  0  0  0
  188.6080  178.1520  140.7560 C   0  0  0  0  0  2  0  0  0  0  0  0
  188.3310  177.9630  138.3990 C   0  0  0  0  0  0  0  0  0  0  0  0
  189.6360  177.4680  138.2750 C   0  0  0  0  0  2  0  0  0  0  0  0
  190.4270  177.3100  139.4140 C   0  0  0  0  0  0  0  0  0  0  0  0
  187.8550  178.2920  139.6320 N   0  0  0  0  0  0  0  0  0  0  0  0
  185.9350  177.4490  135.3810 C   0  0  0  0  0  1  0  0  0  0  0  0
  186.6750  175.9350  137.0510 O   0  0  0  0  0  0  0  0  0  0  0  0
  187.4810  178.1330  137.2540 N   0  0  0  0  0  2  0  0  0  0  0  0
  186.7170  177.1100  136.5990 C   0  0  0  0  0  0  0  0  0  0  0  0
  1  6  1  0  0  0  0
  1  3  1  0  0  0  0
  2  3  2  0  0  0  0
  3  4  1  0  0  0  0
  4  5  1  0  0  0  0
  7  6  1  0  0  0  0
  8 11  1  0  0  0  0
  9 12  1  0  0  0  0
  9 14  2  0  0  0  0
 10  8  1  0  0  0  0
 10 15  1  0  0  0  0
 11  7  1  6  0  0  0
 11 12  1  0  0  0  0
 12 17  1  1  0  0  0
 13 10  2  0  0  0  0
 15  9  1  0  0  0  0
 17 18  1  0  0  0  0
 17 16  1  0  0  0  0
 18 16  1  0  0  0  0
 19  1  1  0  0  0  0
 20 19  1  0  0  0  0
 21 26  1  0  0  0  0
 22 23  1  0  0  0  0
 22 20  1  0  0  0  0
 24 27  2  0  0  0  0
 25 24  1  0  0  0  0
 25 26  1  0  0  0  0
 26 22  2  0  0  0  0
 27 23  1  0  0  0  0
 28 31  1  0  0  0  0
 30 24  1  0  0  0  0
 31 29  2  0  0  0  0
 31 30  1  0  0  0  0
M  END
>  <MODEL>
2

>  <REMARK>
 VINA RESULT:      -7.8      2.369      4.717
  Name = 
  9 active torsions:
  status: ('A' for Active; 'I' for Inactive)
    1  A    between atoms: N_2  and  N_3
    2  A    between atoms: N_2  and  N_9
    3  A    between atoms: N_3  and  C_15
    4  A    between atoms: C_7  and  C_27
    5  A    between atoms: N_9  and  C_25
    6  A    between atoms: C_10  and  C_14
    7  A    between atoms: C_14  and  C_25
    8  A    between atoms: N_17  and  C_19
    9  A    between atoms: C_18  and  C_26
                            x       y       z     vdW  Elec       q    Type
                         _______ _______ _______ _____ _____    ______ ____

>  <TORSDO>
F 9

$$$$
=
 OpenBabel11032419343D

 31 33  0  0  1  0  0  0  0  0999 V2000
  187.3500  178.0090  145.2700 N   0  0  0  0  0  0  0  0  0  0  0  0
  185.5740  177.4270  146.6870 O   0  0  0  0  0  0  0  0  0  0  0  0
  186.7150  177.9510  146.5610 C   0  0  0  0  0  0  0  0  0  0  0  0
  187.4060  178.4800  147.7740 C   0  0  0  0  0  2  0  0  0  0  0  0
  188.1790  177.3660  148.4540 C   0  0  0  0  0  1  0  0  0  0  0  0
  188.6670  178.4770  145.1490 N   0  0  0  0  0  2  0  0  0  0  0  0
  189.4820  177.3620  144.9050 N   0  0  0  0  0  2  0  0  0  0  0  0
  191.3580  178.4150  143.7520 C   0  0  0  0  0  2  0  0  0  0  0  0
  191.8810  175.5950  144.3630 C   0  0  0  0  0  0  0  0  0  0  0  0
  191.5070  177.3840  142.6680 C   0  0  0  0  0  0  0  0  0  0  0  0
  190.8660  177.7900  145.0590 C   0  0  2  0  0  3  0  0  0  0  0  0
  191.7730  176.6150  145.4700 C   0  0  1  0  0  3  0  0  0  0  0  0
  191.4390  177.7330  141.4610 O   0  0  0  0  0  0  0  0  0  0  0  0
  192.1370  174.3860  144.6180 O   0  0  0  0  0  0  0  0  0  0  0  0
  191.7730  176.0180  142.9990 N   0  0  0  0  0  2  0  0  0  0  0  0
  192.5590  175.5960  147.5930 C   0  0  0  0  0  2  0  0  0  0  0  0
  191.3320  175.9960  146.7960 C   0  0  0  0  0  3  0  0  0  0  0  0
  191.8070  176.8580  147.9520 C   0  0  0  0  0  2  0  0  0  0  0  0
  186.7010  177.4510  144.0870 C   0  0  0  0  0  2  0  0  0  0  0  0
  185.7160  178.4450  143.4760 C   0  0  0  0  0  2  0  0  0  0  0  0
  183.4950  178.7320  141.6710 F   0  0  0  0  0  0  0  0  0  0  0  0
  185.8620  178.5170  141.9910 C   0  0  0  0  0  0  0  0  0  0  0  0
  187.1350  178.4340  141.4200 C   0  0  0  0  0  2  0  0  0  0  0  0
  186.2140  178.6110  139.2310 C   0  0  0  0  0  0  0  0  0  0  0  0
  184.9230  178.6900  139.7690 C   0  0  0  0  0  2  0  0  0  0  0  0
  184.7470  178.6470  141.1530 C   0  0  0  0  0  0  0  0  0  0  0  0
  187.2820  178.4830  140.0690 N   0  0  0  0  0  0  0  0  0  0  0  0
  186.6490  177.7790  135.4590 C   0  0  0  0  0  1  0  0  0  0  0  0
  185.8950  176.4400  137.2670 O   0  0  0  0  0  0  0  0  0  0  0  0
  186.4420  178.6590  137.8130 N   0  0  0  0  0  2  0  0  0  0  0  0
  186.3130  177.5680  136.8920 C   0  0  0  0  0  0  0  0  0  0  0  0
  1  3  1  0  0  0  0
  3  2  2  0  0  0  0
  3  4  1  0  0  0  0
  4  5  1  0  0  0  0
  6  1  1  0  0  0  0
  7  6  1  0  0  0  0
  8 11  1  0  0  0  0
  9 14  2  0  0  0  0
  9 12  1  0  0  0  0
 10 15  1  0  0  0  0
 10  8  1  0  0  0  0
 11  7  1  6  0  0  0
 11 12  1  0  0  0  0
 12 17  1  1  0  0  0
 13 10  2  0  0  0  0
 15  9  1  0  0  0  0
 16 18  1  0  0  0  0
 17 16  1  0  0  0  0
 17 18  1  0  0  0  0
 19  1  1  0  0  0  0
 20 19  1  0  0  0  0
 22 20  1  0  0  0  0
 23 22  1  0  0  0  0
 24 25  1  0  0  0  0
 24 27  2  0  0  0  0
 25 26  1  0  0  0  0
 26 21  1  0  0  0  0
 26 22  2  0  0  0  0
 27 23  1  0  0  0  0
 28 31  1  0  0  0  0
 30 24  1  0  0  0  0
 31 29  2  0  0  0  0
 31 30  1  0  0  0  0
M  END
>  <MODEL>
3

>  <REMARK>
 VINA RESULT:      -7.7      3.053      3.895
  Name = 
  9 active torsions:
  status: ('A' for Active; 'I' for Inactive)
    1  A    between atoms: N_2  and  N_3
    2  A    between atoms: N_2  and  N_9
    3  A    between atoms: N_3  and  C_15
    4  A    between atoms: C_7  and  C_27
    5  A    between atoms: N_9  and  C_25
    6  A    between atoms: C_10  and  C_14
    7  A    between atoms: C_14  and  C_25
    8  A    between atoms: N_17  and  C_19
    9  A    between atoms: C_18  and  C_26
                            x       y       z     vdW  Elec       q    Type
                         _______ _______ _______ _____ _____    ______ ____

>  <TORSDO>
F 9

$$$$
=
 OpenBabel11032419343D

 31 33  0  0  1  0  0  0  0  0999 V2000
  184.5170  178.5300  140.8490 N   0  0  0  0  0  0  0  0  0  0  0  0
  186.1690  178.9080  139.2270 O   0  0  0  0  0  0  0  0  0  0  0  0
  185.0060  178.4980  139.4950 C   0  0  0  0  0  0  0  0  0  0  0  0
  184.1620  177.9490  138.3930 C   0  0  0  0  0  2  0  0  0  0  0  0
  185.0430  177.3100  137.3360 C   0  0  0  0  0  1  0  0  0  0  0  0
  183.2750  177.9590  141.1670 N   0  0  0  0  0  2  0  0  0  0  0  0
  182.3190  178.9830  141.0980 N   0  0  0  0  0  2  0  0  0  0  0  0
  180.6070  178.0940  139.6030 C   0  0  0  0  0  2  0  0  0  0  0  0
  179.7030  180.5060  141.0070 C   0  0  0  0  0  0  0  0  0  0  0  0
  180.3200  179.3760  138.8720 C   0  0  0  0  0  0  0  0  0  0  0  0
  181.0070  178.3530  141.0570 C   0  0  2  0  0  3  0  0  0  0  0  0
  179.9470  179.2210  141.7620 C   0  0  1  0  0  3  0  0  0  0  0  0
  180.4370  179.4200  137.6200 O   0  0  0  0  0  0  0  0  0  0  0  0
  179.2840  181.5370  141.6010 O   0  0  0  0  0  0  0  0  0  0  0  0
  179.8700  180.5320  139.5850 N   0  0  0  0  0  2  0  0  0  0  0  0
  179.0510  179.2850  144.0760 C   0  0  0  0  0  2  0  0  0  0  0  0
  180.2980  179.4620  143.2300 C   0  0  0  0  0  3  0  0  0  0  0  0
  180.0890  178.1870  144.0270 C   0  0  0  0  0  2  0  0  0  0  0  0
  185.3550  179.0200  141.9400 C   0  0  0  0  0  2  0  0  0  0  0  0
  184.8680  178.4960  143.2890 C   0  0  0  0  0  2  0  0  0  0  0  0
  185.0700  179.1330  146.0870 F   0  0  0  0  0  0  0  0  0  0  0  0
  186.0080  178.0680  144.1540 C   0  0  0  0  0  0  0  0  0  0  0  0
  187.0530  177.3250  143.5970 C   0  0  0  0  0  3  0  0  0  0  0  0
  188.1850  177.2620  145.6910 C   0  0  0  0  0  0  0  0  0  0  0  0
  187.1590  178.0120  146.2800 C   0  0  0  0  0  3  0  0  0  0  0  0
  186.0650  178.4130  145.5100 C   0  0  0  0  0  0  0  0  0  0  0  0
  188.1050  176.9420  144.3680 N   0  0  0  0  0  0  0  0  0  0  0  0
  191.7600  176.4400  146.9760 C   0  0  0  0  0  1  0  0  0  0  0  0
  191.0360  177.6950  145.0980 O   0  0  0  0  0  0  0  0  0  0  0  0
  189.3230  176.8220  146.4480 N   0  0  0  0  0  2  0  0  0  0  0  0
  190.7030  177.0190  146.1060 C   0  0  0  0  0  0  0  0  0  0  0  0
  1  6  1  0  0  0  0
  1 19  1  0  0  0  0
  2  3  2  0  0  0  0
  3  1  1  0  0  0  0
  4  3  1  0  0  0  0
  5  4  1  0  0  0  0
  7  6  1  0  0  0  0
  8 11  1  0  0  0  0
  9 14  2  0  0  0  0
  9 12  1  0  0  0  0
 10 15  1  0  0  0  0
 10  8  1  0  0  0  0
 11  7  1  6  0  0  0
 11 12  1  0  0  0  0
 12 17  1  1  0  0  0
 13 10  2  0  0  0  0
 15  9  1  0  0  0  0
 17 18  1  0  0  0  0
 17 16  1  0  0  0  0
 18 16  1  0  0  0  0
 19 20  1  0  0  0  0
 20 22  1  0  0  0  0
 22 26  1  0  0  0  0
 23 22  2  0  0  0  0
 23 27  1  0  0  0  0
 24 25  1  0  0  0  0
 24 30  1  0  0  0  0
 26 21  1  0  0  0  0
 26 25  2  0  0  0  0
 27 24  2  0  0  0  0
 29 31  2  0  0  0  0
 31 30  1  0  0  0  0
 31 28  1  0  0  0  0
M  END
>  <MODEL>
4

>  <REMARK>
 VINA RESULT:      -7.4      4.259      8.751
  Name = 
  9 active torsions:
  status: ('A' for Active; 'I' for Inactive)
    1  A    between atoms: N_2  and  N_3
    2  A    between atoms: N_2  and  N_9
    3  A    between atoms: N_3  and  C_15
    4  A    between atoms: C_7  and  C_27
    5  A    between atoms: N_9  and  C_25
    6  A    between atoms: C_10  and  C_14
    7  A    between atoms: C_14  and  C_25
    8  A    between atoms: N_17  and  C_19
    9  A    between atoms: C_18  and  C_26
                            x       y       z     vdW  Elec       q    Type
                         _______ _______ _______ _____ _____    ______ ____

>  <TORSDO>
F 9

$$$$
=
 OpenBabel11032419343D

 31 33  0  0  1  0  0  0  0  0999 V2000
  183.7540  178.9690  140.3070 N   0  0  0  0  0  0  0  0  0  0  0  0
  181.4290  178.6680  140.3440 O   0  0  0  0  0  0  0  0  0  0  0  0
  182.4250  179.2410  139.8240 C   0  0  0  0  0  0  0  0  0  0  0  0
  182.2000  180.2280  138.7260 C   0  0  0  0  0  2  0  0  0  0  0  0
  181.4000  179.5840  137.6100 C   0  0  0  0  0  1  0  0  0  0  0  0
  184.8490  179.6980  139.8150 N   0  0  0  0  0  2  0  0  0  0  0  0
  185.0910  179.2500  138.5080 N   0  0  0  0  0  2  0  0  0  0  0  0
  187.2310  178.1000  138.7460 C   0  0  0  0  0  2  0  0  0  0  0  0
  186.0040  177.6190  136.1260 C   0  0  0  0  0  0  0  0  0  0  0  0
  187.8520  178.6070  137.4760 C   0  0  0  0  0  0  0  0  0  0  0  0
  185.7160  177.9380  138.6060 C   0  0  2  0  0  3  0  0  0  0  0  0
  185.3770  177.0650  137.3830 C   0  0  1  0  0  3  0  0  0  0  0  0
  188.9450  179.2300  137.5210 O   0  0  0  0  0  0  0  0  0  0  0  0
  185.4980  177.3880  134.9930 O   0  0  0  0  0  0  0  0  0  0  0  0
  187.2350  178.3460  136.2110 N   0  0  0  0  0  2  0  0  0  0  0  0
  183.6040  175.3930  136.9060 C   0  0  0  0  0  2  0  0  0  0  0  0
  183.8700  176.8490  137.2400 C   0  0  0  0  0  3  0  0  0  0  0  0
  183.3810  175.8950  138.3150 C   0  0  0  0  0  2  0  0  0  0  0  0
  183.9790  178.0420  141.4120 C   0  0  0  0  0  2  0  0  0  0  0  0
  184.1760  178.7900  142.7290 C   0  0  0  0  0  2  0  0  0  0  0  0
  184.4130  178.7270  145.5950 F   0  0  0  0  0  0  0  0  0  0  0  0
  185.3980  178.3190  143.4470 C   0  0  0  0  0  0  0  0  0  0  0  0
  186.5060  177.8880  142.7110 C   0  0  0  0  0  3  0  0  0  0  0  0
  187.7240  177.4580  144.7110 C   0  0  0  0  0  0  0  0  0  0  0  0
  186.6360  177.8890  145.4800 C   0  0  0  0  0  3  0  0  0  0  0  0
  185.4680  178.3170  144.8460 C   0  0  0  0  0  0  0  0  0  0  0  0
  187.6310  177.4710  143.3510 N   0  0  0  0  0  0  0  0  0  0  0  0
  191.4110  176.9550  145.8390 C   0  0  0  0  0  1  0  0  0  0  0  0
  190.4050  178.6670  144.5400 O   0  0  0  0  0  0  0  0  0  0  0  0
  188.9420  177.0020  145.3220 N   0  0  0  0  0  2  0  0  0  0  0  0
  190.2400  177.5960  145.1840 C   0  0  0  0  0  0  0  0  0  0  0  0
  1 19  1  0  0  0  0
  3  1  1  0  0  0  0
  3  2  2  0  0  0  0
  4  3  1  0  0  0  0
  5  4  1  0  0  0  0
  6  1  1  0  0  0  0
  7  6  1  0  0  0  0
  9 15  1  0  0  0  0
  9 12  1  0  0  0  0
 10 13  2  0  0  0  0
 10  8  1  0  0  0  0
 11  7  1  6  0  0  0
 11  8  1  0  0  0  0
 12 17  1  6  0  0  0
 12 11  1  0  0  0  0
 14  9  2  0  0  0  0
 15 10  1  0  0  0  0
 16 17  1  0  0  0  0
 16 18  1  0  0  0  0
 17 18  1  0  0  0  0
 19 20  1  0  0  0  0
 20 22  1  0  0  0  0
 22 26  1  0  0  0  0
 23 27  1  0  0  0  0
 23 22  2  0  0  0  0
 24 30  1  0  0  0  0
 24 25  1  0  0  0  0
 26 25  2  0  0  0  0
 26 21  1  0  0  0  0
 27 24  2  0  0  0  0
 29 31  2  0  0  0  0
 31 30  1  0  0  0  0
 31 28  1  0  0  0  0
M  END
>  <MODEL>
5

>  <REMARK>
 VINA RESULT:      -7.4      4.100      8.052
  Name = 
  9 active torsions:
  status: ('A' for Active; 'I' for Inactive)
    1  A    between atoms: N_2  and  N_3
    2  A    between atoms: N_2  and  N_9
    3  A    between atoms: N_3  and  C_15
    4  A    between atoms: C_7  and  C_27
    5  A    between atoms: N_9  and  C_25
    6  A    between atoms: C_10  and  C_14
    7  A    between atoms: C_14  and  C_25
    8  A    between atoms: N_17  and  C_19
    9  A    between atoms: C_18  and  C_26
                            x       y       z     vdW  Elec       q    Type
                         _______ _______ _______ _____ _____    ______ ____

>  <TORSDO>
F 9

$$$$
=
 OpenBabel11032419343D

 31 33  0  0  1  0  0  0  0  0999 V2000
  188.5460  177.0040  142.1920 N   0  0  0  0  0  0  0  0  0  0  0  0
  188.4520  177.9140  140.0330 O   0  0  0  0  0  0  0  0  0  0  0  0
  189.1580  177.4320  140.9610 C   0  0  0  0  0  0  0  0  0  0  0  0
  190.6360  177.3450  140.7730 C   0  0  0  0  0  2  0  0  0  0  0  0
  190.9500  176.7580  139.4100 C   0  0  0  0  0  1  0  0  0  0  0  0
  189.3430  176.5850  143.2700 N   0  0  0  0  0  2  0  0  0  0  0  0
  188.5370  176.6190  144.4170 N   0  0  0  0  0  2  0  0  0  0  0  0
  190.2850  178.0860  145.2820 C   0  0  0  0  0  2  0  0  0  0  0  0
  188.6180  176.9750  147.4230 C   0  0  0  0  0  0  0  0  0  0  0  0
  190.8380  177.1290  146.3000 C   0  0  0  0  0  0  0  0  0  0  0  0
  188.7800  177.8900  145.0850 C   0  0  2  0  0  3  0  0  0  0  0  0
  188.0450  177.9630  146.4360 C   0  0  1  0  0  3  0  0  0  0  0  0
  192.0550  176.8130  146.2630 O   0  0  0  0  0  0  0  0  0  0  0  0
  187.9130  176.5180  148.3660 O   0  0  0  0  0  0  0  0  0  0  0  0
  190.0010  176.6130  147.3400 N   0  0  0  0  0  2  0  0  0  0  0  0
  185.8290  178.6280  147.3350 C   0  0  0  0  0  2  0  0  0  0  0  0
  186.5330  177.8130  146.2670 C   0  0  0  0  0  3  0  0  0  0  0  0
  185.9170  179.1570  145.9210 C   0  0  0  0  0  2  0  0  0  0  0  0
  187.1070  177.1310  142.4020 C   0  0  0  0  0  2  0  0  0  0  0  0
  186.6620  178.5890  142.3120 C   0  0  0  0  0  2  0  0  0  0  0  0
  184.1810  178.2430  143.7260 F   0  0  0  0  0  0  0  0  0  0  0  0
  185.3200  178.7130  141.6680 C   0  0  0  0  0  0  0  0  0  0  0  0
  185.2360  179.0030  140.3030 C   0  0  0  0  0  3  0  0  0  0  0  0
  182.8580  178.9270  140.3870 C   0  0  0  0  0  0  0  0  0  0  0  0
  182.9050  178.6280  141.7550 C   0  0  0  0  0  3  0  0  0  0  0  0
  184.1400  178.5250  142.3990 C   0  0  0  0  0  0  0  0  0  0  0  0
  184.0210  179.1030  139.7000 N   0  0  0  0  0  0  0  0  0  0  0  0
  179.7700  178.4210  138.0800 C   0  0  0  0  0  1  0  0  0  0  0  0
  181.6100  176.9980  138.5450 O   0  0  0  0  0  0  0  0  0  0  0  0
  181.6090  179.0510  139.6880 N   0  0  0  0  0  2  0  0  0  0  0  0
  181.0510  178.1040  138.7660 C   0  0  0  0  0  0  0  0  0  0  0  0
  1 19  1  0  0  0  0
  1  6  1  0  0  0  0
  2  3  2  0  0  0  0
  3  1  1  0  0  0  0
  4  3  1  0  0  0  0
  5  4  1  0  0  0  0
  6  7  1  0  0  0  0
  8 10  1  0  0  0  0
  9 14  2  0  0  0  0
 10 15  1  0  0  0  0
 11  7  1  1  0  0  0
 11  8  1  0  0  0  0
 11 12  1  0  0  0  0
 12 17  1  6  0  0  0
 12  9  1  0  0  0  0
 13 10  2  0  0  0  0
 15  9  1  0  0  0  0
 17 16  1  0  0  0  0
 18 17  1  0  0  0  0
 18 16  1  0  0  0  0
 20 19  1  0  0  0  0
 22 20  1  0  0  0  0
 22 26  1  0  0  0  0
 23 22  2  0  0  0  0
 24 25  1  0  0  0  0
 25 26  2  0  0  0  0
 26 21  1  0  0  0  0
 27 23  1  0  0  0  0
 27 24  2  0  0  0  0
 28 31  1  0  0  0  0
 29 31  2  0  0  0  0
 30 24  1  0  0  0  0
 31 30  1  0  0  0  0
M  END
>  <MODEL>
6

>  <REMARK>
 VINA RESULT:      -7.3      3.353      5.803
  Name = 
  9 active torsions:
  status: ('A' for Active; 'I' for Inactive)
    1  A    between atoms: N_2  and  N_3
    2  A    between atoms: N_2  and  N_9
    3  A    between atoms: N_3  and  C_15
    4  A    between atoms: C_7  and  C_27
    5  A    between atoms: N_9  and  C_25
    6  A    between atoms: C_10  and  C_14
    7  A    between atoms: C_14  and  C_25
    8  A    between atoms: N_17  and  C_19
    9  A    between atoms: C_18  and  C_26
                            x       y       z     vdW  Elec       q    Type
                         _______ _______ _______ _____ _____    ______ ____

>  <TORSDO>
F 9

$$$$
=
 OpenBabel11032419343D

 31 33  0  0  1  0  0  0  0  0999 V2000
  191.3720  176.6060  139.2470 N   0  0  0  0  0  0  0  0  0  0  0  0
  193.5690  177.4040  139.4360 O   0  0  0  0  0  0  0  0  0  0  0  0
  192.7640  176.6090  138.8790 C   0  0  0  0  0  0  0  0  0  0  0  0
  193.2840  175.6510  137.8580 C   0  0  0  0  0  2  0  0  0  0  0  0
  193.4440  176.3560  136.5240 C   0  0  0  0  0  1  0  0  0  0  0  0
  190.5020  175.6390  138.7200 N   0  0  0  0  0  2  0  0  0  0  0  0
  189.2460  176.2460  138.5750 N   0  0  0  0  0  2  0  0  0  0  0  0
  189.4990  177.8740  136.7740 C   0  0  0  0  0  2  0  0  0  0  0  0
  186.6820  177.3440  137.3940 C   0  0  0  0  0  0  0  0  0  0  0  0
  188.6040  178.9310  137.3570 C   0  0  0  0  0  0  0  0  0  0  0  0
  189.0300  176.4680  137.1520 C   0  0  2  0  0  3  0  0  0  0  0  0
  187.5490  176.2740  136.7740 C   0  0  1  0  0  3  0  0  0  0  0  0
  189.0550  180.0880  137.5590 O   0  0  0  0  0  0  0  0  0  0  0  0
  185.4620  177.1310  137.6340 O   0  0  0  0  0  0  0  0  0  0  0  0
  187.2310  178.6440  137.6380 N   0  0  0  0  0  2  0  0  0  0  0  0
  186.1670  174.3710  135.9780 C   0  0  0  0  0  2  0  0  0  0  0  0
  187.0610  174.8620  137.1010 C   0  0  0  0  0  3  0  0  0  0  0  0
  187.5950  173.8800  136.0730 C   0  0  0  0  0  2  0  0  0  0  0  0
  190.8650  177.5050  140.2790 C   0  0  0  0  0  2  0  0  0  0  0  0
  191.3950  177.1210  141.6580 C   0  0  0  0  0  2  0  0  0  0  0  0
  191.6300  178.9270  143.8840 F   0  0  0  0  0  0  0  0  0  0  0  0
  190.3470  177.2750  142.7110 C   0  0  0  0  0  0  0  0  0  0  0  0
  189.1820  176.5060  142.6400 C   0  0  0  0  0  3  0  0  0  0  0  0
  188.3610  177.4810  144.6510 C   0  0  0  0  0  0  0  0  0  0  0  0
  189.5190  178.2620  144.7570 C   0  0  0  0  0  3  0  0  0  0  0  0
  190.5130  178.1620  143.7820 C   0  0  0  0  0  0  0  0  0  0  0  0
  188.2260  176.6240  143.5990 N   0  0  0  0  0  0  0  0  0  0  0  0
  185.0930  178.2560  146.6080 C   0  0  0  0  0  1  0  0  0  0  0  0
  185.7140  178.7420  144.3710 O   0  0  0  0  0  0  0  0  0  0  0  0
  187.3100  177.5590  145.6270 N   0  0  0  0  0  2  0  0  0  0  0  0
  186.0450  178.2180  145.4670 C   0  0  0  0  0  0  0  0  0  0  0  0
  1 19  1  0  0  0  0
  3  1  1  0  0  0  0
  3  2  2  0  0  0  0
  4  3  1  0  0  0  0
  5  4  1  0  0  0  0
  6  1  1  0  0  0  0
  7  6  1  0  0  0  0
  8 11  1  0  0  0  0
  8 10  1  0  0  0  0
  9 14  2  0  0  0  0
  9 15  1  0  0  0  0
 10 13  2  0  0  0  0
 10 15  1  0  0  0  0
 11  7  1  1  0  0  0
 12 17  1  1  0  0  0
 12 11  1  0  0  0  0
 12  9  1  0  0  0  0
 16 18  1  0  0  0  0
 16 17  1  0  0  0  0
 18 17  1  0  0  0  0
 19 20  1  0  0  0  0
 20 22  1  0  0  0  0
 22 26  1  0  0  0  0
 23 22  2  0  0  0  0
 23 27  1  0  0  0  0
 24 25  1  0  0  0  0
 24 30  1  0  0  0  0
 26 21  1  0  0  0  0
 26 25  2  0  0  0  0
 27 24  2  0  0  0  0
 29 31  2  0  0  0  0
 31 30  1  0  0  0  0
 31 28  1  0  0  0  0
M  END
>  <MODEL>
7

>  <REMARK>
 VINA RESULT:      -7.2      2.976      8.799
  Name = 
  9 active torsions:
  status: ('A' for Active; 'I' for Inactive)
    1  A    between atoms: N_2  and  N_3
    2  A    between atoms: N_2  and  N_9
    3  A    between atoms: N_3  and  C_15
    4  A    between atoms: C_7  and  C_27
    5  A    between atoms: N_9  and  C_25
    6  A    between atoms: C_10  and  C_14
    7  A    between atoms: C_14  and  C_25
    8  A    between atoms: N_17  and  C_19
    9  A    between atoms: C_18  and  C_26
                            x       y       z     vdW  Elec       q    Type
                         _______ _______ _______ _____ _____    ______ ____

>  <TORSDO>
F 9

$$$$
=
 OpenBabel11032419343D

 31 33  0  0  1  0  0  0  0  0999 V2000
  187.0590  177.7130  145.8900 N   0  0  0  0  0  0  0  0  0  0  0  0
  185.7190  179.1710  147.1460 O   0  0  0  0  0  0  0  0  0  0  0  0
  186.8210  178.5690  147.0230 C   0  0  0  0  0  0  0  0  0  0  0  0
  187.8580  178.7340  148.0850 C   0  0  0  0  0  2  0  0  0  0  0  0
  187.9250  177.4830  148.9390 C   0  0  0  0  0  1  0  0  0  0  0  0
  188.2330  176.9470  145.8150 N   0  0  0  0  0  2  0  0  0  0  0  0
  188.7960  177.1750  144.5510 N   0  0  0  0  0  2  0  0  0  0  0  0
  190.4450  178.6010  143.4510 C   0  0  0  0  0  2  0  0  0  0  0  0
  191.5530  175.9810  144.1660 C   0  0  0  0  0  0  0  0  0  0  0  0
  190.8730  177.6100  142.4060 C   0  0  0  0  0  0  0  0  0  0  0  0
  190.0410  177.9050  144.7530 C   0  0  2  0  0  3  0  0  0  0  0  0
  191.1660  176.9710  145.2380 C   0  0  1  0  0  3  0  0  0  0  0  0
  190.7890  177.9120  141.1870 O   0  0  0  0  0  0  0  0  0  0  0  0
  192.0590  174.8650  144.4680 O   0  0  0  0  0  0  0  0  0  0  0  0
  191.4200  176.3430  142.7870 N   0  0  0  0  0  2  0  0  0  0  0  0
  192.0850  175.9010  147.2810 C   0  0  0  0  0  2  0  0  0  0  0  0
  190.8090  176.2930  146.5610 C   0  0  0  0  0  3  0  0  0  0  0  0
  191.3180  177.1280  147.7220 C   0  0  0  0  0  2  0  0  0  0  0  0
  186.0330  177.5090  144.8720 C   0  0  0  0  0  2  0  0  0  0  0  0
  185.7860  178.7850  144.0710 C   0  0  0  0  0  2  0  0  0  0  0  0
  183.2910  179.3780  145.3740 F   0  0  0  0  0  0  0  0  0  0  0  0
  184.4630  178.7500  143.3780 C   0  0  0  0  0  0  0  0  0  0  0  0
  184.4040  178.4030  142.0260 C   0  0  0  0  0  3  0  0  0  0  0  0
  182.0340  178.6280  142.0250 C   0  0  0  0  0  0  0  0  0  0  0  0
  182.0550  178.9720  143.3830 C   0  0  0  0  0  3  0  0  0  0  0  0
  183.2740  179.0370  144.0600 C   0  0  0  0  0  0  0  0  0  0  0  0
  183.2050  178.3510  141.3860 N   0  0  0  0  0  0  0  0  0  0  0  0
  179.0370  179.2720  139.6330 C   0  0  0  0  0  1  0  0  0  0  0  0
  181.1250  180.3800  139.8390 O   0  0  0  0  0  0  0  0  0  0  0  0
  180.8030  178.5570  141.2870 N   0  0  0  0  0  2  0  0  0  0  0  0
  180.3760  179.4550  140.2520 C   0  0  0  0  0  0  0  0  0  0  0  0
  1  3  1  0  0  0  0
  3  2  2  0  0  0  0
  3  4  1  0  0  0  0
  4  5  1  0  0  0  0
  6  1  1  0  0  0  0
  7  6  1  0  0  0  0
  8 11  1  0  0  0  0
  9 14  2  0  0  0  0
  9 12  1  0  0  0  0
 10 15  1  0  0  0  0
 10  8  1  0  0  0  0
 11  7  1  6  0  0  0
 11 12  1  0  0  0  0
 12 17  1  1  0  0  0
 13 10  2  0  0  0  0
 15  9  1  0  0  0  0
 16 18  1  0  0  0  0
 17 16  1  0  0  0  0
 17 18  1  0  0  0  0
 19  1  1  0  0  0  0
 20 19  1  0  0  0  0
 22 26  1  0  0  0  0
 22 20  1  0  0  0  0
 23 22  2  0  0  0  0
 24 25  1  0  0  0  0
 25 26  2  0  0  0  0
 26 21  1  0  0  0  0
 27 24  2  0  0  0  0
 27 23  1  0  0  0  0
 28 31  1  0  0  0  0
 29 31  2  0  0  0  0
 30 24  1  0  0  0  0
 31 30  1  0  0  0  0
M  END
>  <MODEL>
8

>  <REMARK>
 VINA RESULT:      -7.2      3.407      6.366
  Name = 
  9 active torsions:
  status: ('A' for Active; 'I' for Inactive)
    1  A    between atoms: N_2  and  N_3
    2  A    between atoms: N_2  and  N_9
    3  A    between atoms: N_3  and  C_15
    4  A    between atoms: C_7  and  C_27
    5  A    between atoms: N_9  and  C_25
    6  A    between atoms: C_10  and  C_14
    7  A    between atoms: C_14  and  C_25
    8  A    between atoms: N_17  and  C_19
    9  A    between atoms: C_18  and  C_26
                            x       y       z     vdW  Elec       q    Type
                         _______ _______ _______ _____ _____    ______ ____

>  <TORSDO>
F 9

$$$$
=
 OpenBabel11032419343D

 31 33  0  0  1  0  0  0  0  0999 V2000
  189.1740  177.3070  142.5940 N   0  0  0  0  0  0  0  0  0  0  0  0
  188.8530  176.7570  144.8520 O   0  0  0  0  0  0  0  0  0  0  0  0
  189.6600  177.0400  143.9230 C   0  0  0  0  0  0  0  0  0  0  0  0
  191.1230  177.0590  144.2180 C   0  0  0  0  0  2  0  0  0  0  0  0
  191.6100  178.4910  144.3250 C   0  0  0  0  0  1  0  0  0  0  0  0
  190.0760  177.4980  141.5360 N   0  0  0  0  0  2  0  0  0  0  0  0
  189.5430  176.8450  140.4150 N   0  0  0  0  0  2  0  0  0  0  0  0
  188.8340  178.6320  138.9100 C   0  0  0  0  0  2  0  0  0  0  0  0
  188.9160  176.0260  137.5680 C   0  0  0  0  0  0  0  0  0  0  0  0
  187.5870  177.9610  138.4060 C   0  0  0  0  0  0  0  0  0  0  0  0
  189.9270  177.6130  139.2380 C   0  0  2  0  0  3  0  0  0  0  0  0
  190.1880  176.6940  138.0300 C   0  0  1  0  0  3  0  0  0  0  0  0
  186.4750  178.5360  138.5290 O   0  0  0  0  0  0  0  0  0  0  0  0
  188.9490  174.9190  136.9610 O   0  0  0  0  0  0  0  0  0  0  0  0
  187.6620  176.6930  137.7450 N   0  0  0  0  0  2  0  0  0  0  0  0
  192.1340  175.4980  137.0560 C   0  0  0  0  0  2  0  0  0  0  0  0
  191.3080  175.6910  138.3130 C   0  0  0  0  0  3  0  0  0  0  0  0
  192.6580  176.3720  138.1740 C   0  0  0  0  0  2  0  0  0  0  0  0
  187.7490  177.2430  142.2870 C   0  0  0  0  0  2  0  0  0  0  0  0
  187.1360  178.6400  142.2100 C   0  0  0  0  0  2  0  0  0  0  0  0
  186.4330  178.6530  144.9990 F   0  0  0  0  0  0  0  0  0  0  0  0
  185.7270  178.6490  142.7070 C   0  0  0  0  0  0  0  0  0  0  0  0
  184.6740  178.6400  141.7880 C   0  0  0  0  0  3  0  0  0  0  0  0
  183.0760  178.6290  143.5530 C   0  0  0  0  0  0  0  0  0  0  0  0
  184.1070  178.6310  144.5010 C   0  0  0  0  0  3  0  0  0  0  0  0
  185.4370  178.6450  144.0770 C   0  0  0  0  0  0  0  0  0  0  0  0
  183.3860  178.6310  142.2260 N   0  0  0  0  0  0  0  0  0  0  0  0
  179.2660  179.3080  143.9250 C   0  0  0  0  0  1  0  0  0  0  0  0
  180.8350  180.0990  142.3320 O   0  0  0  0  0  0  0  0  0  0  0  0
  181.6940  178.6240  143.9470 N   0  0  0  0  0  2  0  0  0  0  0  0
  180.6350  179.3860  143.3500 C   0  0  0  0  0  0  0  0  0  0  0  0
  1  3  1  0  0  0  0
  3  4  1  0  0  0  0
  3  2  2  0  0  0  0
  4  5  1  0  0  0  0
  6  1  1  0  0  0  0
  7  6  1  0  0  0  0
  8 11  1  0  0  0  0
  9 15  1  0  0  0  0
  9 12  1  0  0  0  0
 10 13  2  0  0  0  0
 10  8  1  0  0  0  0
 11  7  1  1  0  0  0
 12 17  1  1  0  0  0
 12 11  1  0  0  0  0
 14  9  2  0  0  0  0
 15 10  1  0  0  0  0
 16 18  1  0  0  0  0
 16 17  1  0  0  0  0
 18 17  1  0  0  0  0
 19  1  1  0  0  0  0
 20 19  1  0  0  0  0
 20 22  1  0  0  0  0
 22 26  1  0  0  0  0
 23 27  1  0  0  0  0
 23 22  2  0  0  0  0
 24 30  1  0  0  0  0
 24 25  1  0  0  0  0
 26 25  2  0  0  0  0
 26 21  1  0  0  0  0
 27 24  2  0  0  0  0
 29 31  2  0  0  0  0
 31 28  1  0  0  0  0
 31 30  1  0  0  0  0
M  END
>  <MODEL>
9

>  <REMARK>
 VINA RESULT:      -7.1      2.739      8.388
  Name = 
  9 active torsions:
  status: ('A' for Active; 'I' for Inactive)
    1  A    between atoms: N_2  and  N_3
    2  A    between atoms: N_2  and  N_9
    3  A    between atoms: N_3  and  C_15
    4  A    between atoms: C_7  and  C_27
    5  A    between atoms: N_9  and  C_25
    6  A    between atoms: C_10  and  C_14
    7  A    between atoms: C_14  and  C_25
    8  A    between atoms: N_17  and  C_19
    9  A    between atoms: C_18  and  C_26
                            x       y       z     vdW  Elec       q    Type
                         _______ _______ _______ _____ _____    ______ ____

>  <TORSDO>
F 9

$$$$
