=
 OpenBabel11032419293D

 36 39  0  0  1  0  0  0  0  0999 V2000
  189.4930  177.8140  142.9700 C   0  0  2  0  0  3  0  0  0  0  0  0
  187.2760  177.2280  143.8770 C   0  0  2  0  0  3  0  0  0  0  0  0
  188.2510  177.0890  144.8820 O   0  0  0  0  0  0  0  0  0  0  0  0
  188.4200  178.1660  143.9950 C   0  0  1  0  0  3  0  0  0  0  0  0
  186.0140  177.7730  144.4840 C   0  0  0  0  0  0  0  0  0  0  0  0
  185.8910  177.9000  145.6940 O   0  0  0  0  0  0  0  0  0  0  0  0
  184.9190  178.2260  143.5770 C   0  0  0  0  0  2  0  0  0  0  0  0
  185.3500  178.0850  142.1230 C   0  0  0  0  0  2  0  0  0  0  0  0
  183.2480  179.2860  141.9170 N   0  0  0  0  0  2  0  0  0  0  0  0
  180.9240  179.0390  142.0400 O   0  0  0  0  0  0  0  0  0  0  0  0
  183.6760  177.5710  140.2990 C   0  0  0  0  0  2  0  0  0  0  0  0
  182.0240  178.7010  141.5300 C   0  0  0  0  0  0  0  0  0  0  0  0
  184.3220  178.6710  141.1600 C   0  0  2  0  0  0  0  0  0  0  0  0
  181.5130  178.1100  139.2060 C   0  0  0  0  0  1  0  0  0  0  0  0
  184.9160  179.6300  140.3380 O   0  0  0  0  0  1  0  0  0  0  0  0
  182.1640  177.6550  140.4980 C   0  0  1  0  0  3  0  0  0  0  0  0
  190.9090  178.1640  143.4480 C   0  0  1  0  0  3  0  0  0  0  0  0
  191.0050  179.5580  144.0560 C   0  0  0  0  0  1  0  0  0  0  0  0
  192.1560  176.1000  146.2540 C   0  0  1  0  0  3  0  0  0  0  0  0
  192.1220  175.1520  145.1150 C   0  0  0  0  0  0  0  0  0  0  0  0
  192.4520  173.9390  145.1730 O   0  0  0  0  0  0  0  0  0  0  0  0
  191.4620  177.1150  144.3600 C   0  0  0  0  0  0  0  0  0  0  0  0
  191.6930  177.3260  145.6200 N   0  0  0  0  0  0  0  0  0  0  0  0
  191.6800  175.7780  143.9250 N   0  0  0  0  0  2  0  0  0  0  0  0
  191.1630  175.6730  147.3190 C   0  0  0  0  0  1  0  0  0  0  0  0
  189.2080  178.4820  141.7060 N   0  0  0  0  0  2  0  0  0  0  0  0
  190.0990  176.2580  138.5940 C   0  0  2  0  0  3  0  0  0  0  0  0
  188.3140  178.1950  139.1930 S   0  0  0  0  0  0  0  0  0  0  0  0
  188.6620  176.6510  138.3240 C   0  0  0  0  0  2  0  0  0  0  0  0
  190.5240  176.5880  140.3400 S   0  0  0  0  0  0  0  0  0  0  0  0
  188.9670  177.4500  140.7090 C   0  0  1  0  0  3  0  0  0  0  0  0
  190.9840  177.0160  137.7240 N   0  0  0  0  0  2  0  0  0  0  0  0
  191.9230  176.0770  137.1320 C   0  0  0  0  0  2  0  0  0  0  0  0
  193.5870  176.9870  138.5720 O   0  0  0  0  0  1  0  0  0  0  0  0
  194.3140  176.3600  136.4900 O   0  0  0  0  0  0  0  0  0  0  0  0
  193.3180  176.4870  137.4490 C   0  0  0  0  0  0  0  0  0  0  0  0
  1 26  1  6  0  0  0
  1 17  1  0  0  0  0
  2  4  1  0  0  0  0
  2  5  1  1  0  0  0
  2  3  1  0  0  0  0
  4  1  1  6  0  0  0
  4  3  1  0  0  0  0
  5  6  2  0  0  0  0
  7  5  1  0  0  0  0
  8  7  1  0  0  0  0
 11 16  1  0  0  0  0
 11 13  1  0  0  0  0
 12  9  1  0  0  0  0
 12 10  2  0  0  0  0
 13 15  1  6  0  0  0
 13  9  1  0  0  0  0
 13  8  1  0  0  0  0
 16 14  1  6  0  0  0
 16 12  1  0  0  0  0
 17 18  1  1  0  0  0
 17 22  1  0  0  0  0
 19 25  1  1  0  0  0
 20 21  2  0  0  0  0
 20 19  1  0  0  0  0
 22 23  2  0  0  0  0
 23 19  1  0  0  0  0
 24 22  1  0  0  0  0
 24 20  1  0  0  0  0
 27 32  1  6  0  0  0
 27 30  1  0  0  0  0
 28 31  1  0  0  0  0
 29 27  1  0  0  0  0
 29 28  1  0  0  0  0
 30 31  1  0  0  0  0
 31 26  1  1  0  0  0
 33 36  1  0  0  0  0
 33 32  1  0  0  0  0
 35 36  2  0  0  0  0
 36 34  1  0  0  0  0
M  END
>  <MODEL>
1

>  <REMARK>
 VINA RESULT:      -7.0      0.000      0.000
  Name = 
  12 active torsions:
  status: ('A' for Active; 'I' for Inactive)
    1  A    between atoms: C_1  and  C_12
    2  A    between atoms: C_1  and  N_17
    3  A    between atoms: C_1  and  C_21
    4  A    between atoms: C_5  and  C_9
    5  A    between atoms: C_5  and  C_29
    6  A    between atoms: C_6  and  N_16
    7  A    between atoms: C_12  and  C_15
    8  A    between atoms: N_16  and  C_35
    9  A    between atoms: N_17  and  C_28
   10  A    between atoms: C_23  and  C_35
   11  A    between atoms: C_24  and  C_26
   12  A    between atoms: C_26  and  C_29
                            x       y       z     vdW  Elec       q    Type
                         _______ _______ _______ _____ _____    ______ ____

>  <TORSDO>
F 12

$$$$
=
 OpenBabel11032419293D

 36 39  0  0  1  0  0  0  0  0999 V2000
  188.8790  177.4780  137.9290 C   0  0  2  0  0  3  0  0  0  0  0  0
  189.4140  177.8930  140.3000 C   0  0  2  0  0  3  0  0  0  0  0  0
  188.1260  177.3340  140.1960 O   0  0  0  0  0  0  0  0  0  0  0  0
  189.0920  176.8440  139.3000 C   0  0  1  0  0  3  0  0  0  0  0  0
  190.0950  177.3410  141.5210 C   0  0  0  0  0  0  0  0  0  0  0  0
  191.3140  177.2680  141.5930 O   0  0  0  0  0  0  0  0  0  0  0  0
  189.2590  176.9350  142.6880 C   0  0  0  0  0  2  0  0  0  0  0  0
  190.1450  176.4210  143.8140 C   0  0  0  0  0  2  0  0  0  0  0  0
  191.4270  177.1860  145.7310 N   0  0  0  0  0  2  0  0  0  0  0  0
  191.9970  176.6620  147.9400 O   0  0  0  0  0  0  0  0  0  0  0  0
  189.0450  177.1170  145.9810 C   0  0  0  0  0  2  0  0  0  0  0  0
  191.1120  176.8950  147.0750 C   0  0  0  0  0  0  0  0  0  0  0  0
  190.1940  177.3870  144.9940 C   0  0  2  0  0  0  0  0  0  0  0  0
  189.2950  178.0100  148.2840 C   0  0  0  0  0  1  0  0  0  0  0  0
  190.1330  178.7080  144.5450 O   0  0  0  0  0  1  0  0  0  0  0  0
  189.6630  176.8690  147.3560 C   0  0  1  0  0  3  0  0  0  0  0  0
  187.6800  176.8800  137.1790 C   0  0  1  0  0  3  0  0  0  0  0  0
  187.6050  175.3610  137.2880 C   0  0  0  0  0  1  0  0  0  0  0  0
  184.1870  177.8210  137.9550 C   0  0  1  0  0  3  0  0  0  0  0  0
  184.9780  178.9570  138.4860 C   0  0  0  0  0  0  0  0  0  0  0  0
  184.4970  179.9680  139.0600 O   0  0  0  0  0  0  0  0  0  0  0  0
  186.3940  177.5340  137.5750 C   0  0  0  0  0  0  0  0  0  0  0  0
  185.2360  176.9740  137.4060 N   0  0  0  0  0  0  0  0  0  0  0  0
  186.3640  178.7820  138.2590 N   0  0  0  0  0  2  0  0  0  0  0  0
  183.4910  177.0930  139.0910 C   0  0  0  0  0  1  0  0  0  0  0  0
  190.0900  177.3470  137.1290 N   0  0  0  0  0  2  0  0  0  0  0  0
  193.2710  175.1760  137.9030 C   0  0  2  0  0  3  0  0  0  0  0  0
  191.1710  175.0710  136.2060 S   0  0  0  0  0  0  0  0  0  0  0  0
  192.3310  174.1760  137.2620 C   0  0  0  0  0  2  0  0  0  0  0  0
  192.3510  176.6730  138.4020 S   0  0  0  0  0  0  0  0  0  0  0  0
  190.8000  176.1680  137.5990 C   0  0  1  0  0  3  0  0  0  0  0  0
  194.3160  175.5370  136.9580 N   0  0  0  0  0  2  0  0  0  0  0  0
  195.2240  174.4060  136.8600 C   0  0  0  0  0  2  0  0  0  0  0  0
  195.6260  173.1230  138.8260 O   0  0  0  0  0  1  0  0  0  0  0  0
  196.7430  175.1220  138.7010 O   0  0  0  0  0  0  0  0  0  0  0  0
  195.8820  174.1680  138.1740 C   0  0  0  0  0  0  0  0  0  0  0  0
  1 26  1  6  0  0  0
  2  5  1  1  0  0  0
  3  2  1  0  0  0  0
  4  1  1  6  0  0  0
  4  3  1  0  0  0  0
  4  2  1  0  0  0  0
  5  6  2  0  0  0  0
  5  7  1  0  0  0  0
  7  8  1  0  0  0  0
  8 13  1  0  0  0  0
  9 12  1  0  0  0  0
 11 16  1  0  0  0  0
 12 16  1  0  0  0  0
 12 10  2  0  0  0  0
 13 15  1  6  0  0  0
 13  9  1  0  0  0  0
 13 11  1  0  0  0  0
 16 14  1  1  0  0  0
 17 18  1  1  0  0  0
 17 22  1  0  0  0  0
 17  1  1  0  0  0  0
 19 20  1  0  0  0  0
 19 25  1  1  0  0  0
 20 21  2  0  0  0  0
 22 24  1  0  0  0  0
 23 22  2  0  0  0  0
 23 19  1  0  0  0  0
 24 20  1  0  0  0  0
 27 32  1  6  0  0  0
 27 30  1  0  0  0  0
 28 29  1  0  0  0  0
 28 31  1  0  0  0  0
 29 27  1  0  0  0  0
 31 26  1  6  0  0  0
 31 30  1  0  0  0  0
 33 32  1  0  0  0  0
 33 36  1  0  0  0  0
 36 35  2  0  0  0  0
 36 34  1  0  0  0  0
M  END
>  <MODEL>
2

>  <REMARK>
 VINA RESULT:      -6.9      2.806      7.538
  Name = 
  12 active torsions:
  status: ('A' for Active; 'I' for Inactive)
    1  A    between atoms: C_1  and  C_12
    2  A    between atoms: C_1  and  N_17
    3  A    between atoms: C_1  and  C_21
    4  A    between atoms: C_5  and  C_9
    5  A    between atoms: C_5  and  C_29
    6  A    between atoms: C_6  and  N_16
    7  A    between atoms: C_12  and  C_15
    8  A    between atoms: N_16  and  C_35
    9  A    between atoms: N_17  and  C_28
   10  A    between atoms: C_23  and  C_35
   11  A    between atoms: C_24  and  C_26
   12  A    between atoms: C_26  and  C_29
                            x       y       z     vdW  Elec       q    Type
                         _______ _______ _______ _____ _____    ______ ____

>  <TORSDO>
F 12

$$$$
=
 OpenBabel11032419293D

 36 39  0  0  1  0  0  0  0  0999 V2000
  188.6790  176.7870  137.1080 C   0  0  2  0  0  3  0  0  0  0  0  0
  188.7960  178.2180  139.1130 C   0  0  2  0  0  3  0  0  0  0  0  0
  187.5470  178.3840  138.4850 O   0  0  0  0  0  0  0  0  0  0  0  0
  188.0790  177.0830  138.4790 C   0  0  1  0  0  3  0  0  0  0  0  0
  188.6090  178.2610  140.6040 C   0  0  0  0  0  0  0  0  0  0  0  0
  187.6260  178.7870  141.1090 O   0  0  0  0  0  0  0  0  0  0  0  0
  189.6170  177.5880  141.4740 C   0  0  0  0  0  2  0  0  0  0  0  0
  189.6690  178.2650  142.8370 C   0  0  0  0  0  2  0  0  0  0  0  0
  187.9780  177.1400  144.1700 N   0  0  0  0  0  2  0  0  0  0  0  0
  186.4850  177.4360  145.9480 O   0  0  0  0  0  0  0  0  0  0  0  0
  189.9780  177.8120  145.3050 C   0  0  0  0  0  2  0  0  0  0  0  0
  187.6640  177.4630  145.5070 C   0  0  0  0  0  0  0  0  0  0  0  0
  189.4080  177.2840  143.9760 C   0  0  2  0  0  0  0  0  0  0  0  0
  189.0850  176.8160  147.3970 C   0  0  0  0  0  1  0  0  0  0  0  0
  189.9630  176.0380  143.6820 O   0  0  0  0  0  1  0  0  0  0  0  0
  188.8350  177.8520  146.3170 C   0  0  1  0  0  3  0  0  0  0  0  0
  187.6110  176.4900  136.0450 C   0  0  1  0  0  3  0  0  0  0  0  0
  188.0980  176.7410  134.6230 C   0  0  0  0  0  1  0  0  0  0  0  0
  186.7020  172.9060  135.9010 C   0  0  1  0  0  3  0  0  0  0  0  0
  185.9320  173.4120  137.0630 C   0  0  0  0  0  0  0  0  0  0  0  0
  185.1720  172.7170  137.7850 O   0  0  0  0  0  0  0  0  0  0  0  0
  187.0340  175.1180  136.2060 C   0  0  0  0  0  0  0  0  0  0  0  0
  187.3760  174.1170  135.4550 N   0  0  0  0  0  0  0  0  0  0  0  0
  186.1410  174.7980  137.2660 N   0  0  0  0  0  2  0  0  0  0  0  0
  187.7340  171.8920  136.3610 C   0  0  0  0  0  1  0  0  0  0  0  0
  189.6150  175.6750  137.2070 N   0  0  0  0  0  2  0  0  0  0  0  0
  193.3920  175.3200  136.1900 C   0  0  2  0  0  3  0  0  0  0  0  0
  191.9890  176.3820  138.2400 S   0  0  0  0  0  0  0  0  0  0  0  0
  193.4090  176.5060  137.1320 C   0  0  0  0  0  2  0  0  0  0  0  0
  191.6820  174.9670  135.6540 S   0  0  0  0  0  0  0  0  0  0  0  0
  190.9210  176.1630  136.7930 C   0  0  1  0  0  3  0  0  0  0  0  0
  193.9430  174.1540  136.8630 N   0  0  0  0  0  2  0  0  0  0  0  0
  195.2770  174.5070  137.3230 C   0  0  0  0  0  2  0  0  0  0  0  0
  195.8100  174.9250  139.6070 O   0  0  0  0  0  1  0  0  0  0  0  0
  195.2670  172.7560  139.0960 O   0  0  0  0  0  0  0  0  0  0  0  0
  195.4530  174.0860  138.7390 C   0  0  0  0  0  0  0  0  0  0  0  0
  1 26  1  1  0  0  0
  2  5  1  1  0  0  0
  3  2  1  0  0  0  0
  4  1  1  6  0  0  0
  4  3  1  0  0  0  0
  4  2  1  0  0  0  0
  5  6  2  0  0  0  0
  5  7  1  0  0  0  0
  7  8  1  0  0  0  0
  8 13  1  0  0  0  0
  9 12  1  0  0  0  0
 11 16  1  0  0  0  0
 12 10  2  0  0  0  0
 12 16  1  0  0  0  0
 13 15  1  6  0  0  0
 13  9  1  0  0  0  0
 13 11  1  0  0  0  0
 16 14  1  1  0  0  0
 17 18  1  6  0  0  0
 17 22  1  0  0  0  0
 17  1  1  0  0  0  0
 19 25  1  1  0  0  0
 19 20  1  0  0  0  0
 20 24  1  0  0  0  0
 20 21  2  0  0  0  0
 22 24  1  0  0  0  0
 23 19  1  0  0  0  0
 23 22  2  0  0  0  0
 27 32  1  1  0  0  0
 27 29  1  0  0  0  0
 29 28  1  0  0  0  0
 30 27  1  0  0  0  0
 30 31  1  0  0  0  0
 31 26  1  1  0  0  0
 31 28  1  0  0  0  0
 32 33  1  0  0  0  0
 33 36  1  0  0  0  0
 36 35  2  0  0  0  0
 36 34  1  0  0  0  0
M  END
>  <MODEL>
3

>  <REMARK>
 VINA RESULT:      -6.9      3.514      7.272
  Name = 
  12 active torsions:
  status: ('A' for Active; 'I' for Inactive)
    1  A    between atoms: C_1  and  C_12
    2  A    between atoms: C_1  and  N_17
    3  A    between atoms: C_1  and  C_21
    4  A    between atoms: C_5  and  C_9
    5  A    between atoms: C_5  and  C_29
    6  A    between atoms: C_6  and  N_16
    7  A    between atoms: C_12  and  C_15
    8  A    between atoms: N_16  and  C_35
    9  A    between atoms: N_17  and  C_28
   10  A    between atoms: C_23  and  C_35
   11  A    between atoms: C_24  and  C_26
   12  A    between atoms: C_26  and  C_29
                            x       y       z     vdW  Elec       q    Type
                         _______ _______ _______ _____ _____    ______ ____

>  <TORSDO>
F 12

$$$$
=
 OpenBabel11032419293D

 36 39  0  0  1  0  0  0  0  0999 V2000
  188.3180  177.2600  137.7510 C   0  0  2  0  0  3  0  0  0  0  0  0
  189.8990  177.7930  139.5680 C   0  0  2  0  0  3  0  0  0  0  0  0
  188.7180  178.5420  139.7320 O   0  0  0  0  0  0  0  0  0  0  0  0
  188.5610  177.2280  139.2570 C   0  0  1  0  0  3  0  0  0  0  0  0
  190.4070  177.3700  140.9170 C   0  0  0  0  0  0  0  0  0  0  0  0
  191.4760  176.7880  141.0420 O   0  0  0  0  0  0  0  0  0  0  0  0
  189.6130  177.7270  142.1290 C   0  0  0  0  0  2  0  0  0  0  0  0
  190.0250  176.8500  143.3030 C   0  0  0  0  0  2  0  0  0  0  0  0
  191.4210  177.2780  145.2450 N   0  0  0  0  0  2  0  0  0  0  0  0
  192.0270  176.4380  147.3440 O   0  0  0  0  0  0  0  0  0  0  0  0
  189.0500  177.3310  145.5860 C   0  0  0  0  0  2  0  0  0  0  0  0
  191.1320  176.8370  146.5540 C   0  0  0  0  0  0  0  0  0  0  0  0
  190.1800  177.6520  144.5920 C   0  0  2  0  0  0  0  0  0  0  0  0
  189.4390  177.9030  147.9700 C   0  0  0  0  0  1  0  0  0  0  0  0
  190.1970  179.0200  144.3160 O   0  0  0  0  0  1  0  0  0  0  0  0
  189.6960  176.8690  146.8900 C   0  0  1  0  0  3  0  0  0  0  0  0
  187.3150  178.3450  137.3360 C   0  0  1  0  0  3  0  0  0  0  0  0
  187.2150  178.5180  135.8250 C   0  0  0  0  0  1  0  0  0  0  0  0
  184.1800  178.4520  139.2990 C   0  0  1  0  0  3  0  0  0  0  0  0
  183.9250  177.3910  138.2950 C   0  0  0  0  0  0  0  0  0  0  0  0
  182.8580  176.7300  138.1970 O   0  0  0  0  0  0  0  0  0  0  0  0
  185.9740  178.1320  137.9660 C   0  0  0  0  0  0  0  0  0  0  0  0
  185.5390  178.8480  138.9570 N   0  0  0  0  0  0  0  0  0  0  0  0
  185.0420  177.1890  137.4500 N   0  0  0  0  0  2  0  0  0  0  0  0
  183.2400  179.6220  139.0720 C   0  0  0  0  0  1  0  0  0  0  0  0
  187.8650  175.9520  137.2960 N   0  0  0  0  0  2  0  0  0  0  0  0
  191.1930  174.0080  136.5410 C   0  0  2  0  0  3  0  0  0  0  0  0
  190.3010  176.5510  136.3430 S   0  0  0  0  0  0  0  0  0  0  0  0
  191.3030  175.2230  135.6420 C   0  0  0  0  0  2  0  0  0  0  0  0
  189.4750  173.8150  137.1290 S   0  0  0  0  0  0  0  0  0  0  0  0
  188.9060  175.4000  136.4430 C   0  0  1  0  0  3  0  0  0  0  0  0
  192.0850  174.1620  137.6790 N   0  0  0  0  0  2  0  0  0  0  0  0
  193.4470  174.0480  137.1840 C   0  0  0  0  0  2  0  0  0  0  0  0
  195.5460  174.9390  137.8740 O   0  0  0  0  0  0  0  0  0  0  0  0
  193.7160  176.2420  138.3340 O   0  0  0  0  0  1  0  0  0  0  0  0
  194.3000  175.1010  137.8000 C   0  0  0  0  0  0  0  0  0  0  0  0
  1 26  1  1  0  0  0
  2  3  1  0  0  0  0
  2  5  1  1  0  0  0
  4  1  1  6  0  0  0
  4  2  1  0  0  0  0
  4  3  1  0  0  0  0
  5  6  2  0  0  0  0
  5  7  1  0  0  0  0
  7  8  1  0  0  0  0
  8 13  1  0  0  0  0
  9 12  1  0  0  0  0
 11 16  1  0  0  0  0
 12 16  1  0  0  0  0
 12 10  2  0  0  0  0
 13 15  1  6  0  0  0
 13  9  1  0  0  0  0
 13 11  1  0  0  0  0
 16 14  1  1  0  0  0
 17 18  1  6  0  0  0
 17  1  1  0  0  0  0
 17 22  1  0  0  0  0
 19 25  1  6  0  0  0
 20 19  1  0  0  0  0
 21 20  2  0  0  0  0
 22 23  2  0  0  0  0
 23 19  1  0  0  0  0
 24 22  1  0  0  0  0
 24 20  1  0  0  0  0
 27 30  1  0  0  0  0
 27 32  1  1  0  0  0
 28 31  1  0  0  0  0
 29 28  1  0  0  0  0
 29 27  1  0  0  0  0
 31 30  1  0  0  0  0
 31 26  1  1  0  0  0
 33 32  1  0  0  0  0
 33 36  1  0  0  0  0
 36 34  2  0  0  0  0
 36 35  1  0  0  0  0
M  END
>  <MODEL>
4

>  <REMARK>
 VINA RESULT:      -6.8      2.729      7.511
  Name = 
  12 active torsions:
  status: ('A' for Active; 'I' for Inactive)
    1  A    between atoms: C_1  and  C_12
    2  A    between atoms: C_1  and  N_17
    3  A    between atoms: C_1  and  C_21
    4  A    between atoms: C_5  and  C_9
    5  A    between atoms: C_5  and  C_29
    6  A    between atoms: C_6  and  N_16
    7  A    between atoms: C_12  and  C_15
    8  A    between atoms: N_16  and  C_35
    9  A    between atoms: N_17  and  C_28
   10  A    between atoms: C_23  and  C_35
   11  A    between atoms: C_24  and  C_26
   12  A    between atoms: C_26  and  C_29
                            x       y       z     vdW  Elec       q    Type
                         _______ _______ _______ _____ _____    ______ ____

>  <TORSDO>
F 12

$$$$
=
 OpenBabel11032419293D

 36 39  0  0  1  0  0  0  0  0999 V2000
  189.4830  175.5410  136.8850 C   0  0  2  0  0  3  0  0  0  0  0  0
  188.8360  176.7530  138.9330 C   0  0  2  0  0  3  0  0  0  0  0  0
  190.0350  176.0500  139.1580 O   0  0  0  0  0  0  0  0  0  0  0  0
  189.8780  176.6240  137.8840 C   0  0  1  0  0  3  0  0  0  0  0  0
  188.8960  178.0730  139.6500 C   0  0  0  0  0  0  0  0  0  0  0  0
  189.0680  179.1210  139.0440 O   0  0  0  0  0  0  0  0  0  0  0  0
  188.6760  178.0980  141.1260 C   0  0  0  0  0  2  0  0  0  0  0  0
  189.9540  177.7050  141.8540 C   0  0  0  0  0  2  0  0  0  0  0  0
  188.2430  176.6800  143.2400 N   0  0  0  0  0  2  0  0  0  0  0  0
  186.5790  177.1430  144.8190 O   0  0  0  0  0  0  0  0  0  0  0  0
  190.0760  177.7220  144.3790 C   0  0  0  0  0  2  0  0  0  0  0  0
  187.7860  177.2020  144.4680 C   0  0  0  0  0  0  0  0  0  0  0  0
  189.6690  176.9190  143.1300 C   0  0  2  0  0  0  0  0  0  0  0  0
  189.0780  177.0310  146.5450 C   0  0  0  0  0  1  0  0  0  0  0  0
  190.3440  175.6970  143.1110 O   0  0  0  0  0  1  0  0  0  0  0  0
  188.8460  177.8330  145.2790 C   0  0  1  0  0  3  0  0  0  0  0  0
  190.5580  174.4570  136.7290 C   0  0  1  0  0  3  0  0  0  0  0  0
  190.4200  173.6600  135.4370 C   0  0  0  0  0  1  0  0  0  0  0  0
  194.0290  175.2920  137.7010 C   0  0  1  0  0  3  0  0  0  0  0  0
  193.8020  176.1140  136.4870 C   0  0  0  0  0  0  0  0  0  0  0  0
  194.6480  176.8870  135.9680 O   0  0  0  0  0  0  0  0  0  0  0  0
  191.9370  175.0140  136.8990 C   0  0  0  0  0  0  0  0  0  0  0  0
  192.7430  174.6260  137.8400 N   0  0  0  0  0  0  0  0  0  0  0  0
  192.4950  175.9390  135.9730 N   0  0  0  0  0  2  0  0  0  0  0  0
  195.1090  174.2590  137.4370 C   0  0  0  0  0  1  0  0  0  0  0  0
  189.1840  176.1450  135.5930 N   0  0  0  0  0  2  0  0  0  0  0  0
  185.5780  177.3760  136.5450 C   0  0  2  0  0  3  0  0  0  0  0  0
  186.9570  175.0530  136.6160 S   0  0  0  0  0  0  0  0  0  0  0  0
  185.3810  175.8880  136.3370 C   0  0  0  0  0  2  0  0  0  0  0  0
  187.1750  177.9030  135.8320 S   0  0  0  0  0  0  0  0  0  0  0  0
  187.7370  176.2140  135.4640 C   0  0  1  0  0  3  0  0  0  0  0  0
  185.5540  177.6770  137.9670 N   0  0  0  0  0  2  0  0  0  0  0  0
  184.2310  178.1920  138.2810 C   0  0  0  0  0  2  0  0  0  0  0  0
  185.1860  179.4280  140.0800 O   0  0  0  0  0  1  0  0  0  0  0  0
  183.5030  180.4840  138.9340 O   0  0  0  0  0  0  0  0  0  0  0  0
  184.3490  179.4020  139.1400 C   0  0  0  0  0  0  0  0  0  0  0  0
  1 26  1  6  0  0  0
  2  3  1  0  0  0  0
  2  5  1  1  0  0  0
  4  1  1  6  0  0  0
  4  2  1  0  0  0  0
  4  3  1  0  0  0  0
  5  7  1  0  0  0  0
  6  5  2  0  0  0  0
  7  8  1  0  0  0  0
  8 13  1  0  0  0  0
  9 12  1  0  0  0  0
 11 16  1  0  0  0  0
 12 10  2  0  0  0  0
 12 16  1  0  0  0  0
 13 15  1  6  0  0  0
 13  9  1  0  0  0  0
 13 11  1  0  0  0  0
 16 14  1  1  0  0  0
 17 18  1  6  0  0  0
 17  1  1  0  0  0  0
 17 22  1  0  0  0  0
 19 25  1  6  0  0  0
 19 23  1  0  0  0  0
 20 19  1  0  0  0  0
 21 20  2  0  0  0  0
 22 23  2  0  0  0  0
 24 20  1  0  0  0  0
 24 22  1  0  0  0  0
 27 32  1  1  0  0  0
 29 27  1  0  0  0  0
 29 28  1  0  0  0  0
 30 27  1  0  0  0  0
 31 26  1  1  0  0  0
 31 30  1  0  0  0  0
 31 28  1  0  0  0  0
 32 33  1  0  0  0  0
 33 36  1  0  0  0  0
 35 36  2  0  0  0  0
 36 34  1  0  0  0  0
M  END
>  <MODEL>
5

>  <REMARK>
 VINA RESULT:      -6.7      2.692      7.502
  Name = 
  12 active torsions:
  status: ('A' for Active; 'I' for Inactive)
    1  A    between atoms: C_1  and  C_12
    2  A    between atoms: C_1  and  N_17
    3  A    between atoms: C_1  and  C_21
    4  A    between atoms: C_5  and  C_9
    5  A    between atoms: C_5  and  C_29
    6  A    between atoms: C_6  and  N_16
    7  A    between atoms: C_12  and  C_15
    8  A    between atoms: N_16  and  C_35
    9  A    between atoms: N_17  and  C_28
   10  A    between atoms: C_23  and  C_35
   11  A    between atoms: C_24  and  C_26
   12  A    between atoms: C_26  and  C_29
                            x       y       z     vdW  Elec       q    Type
                         _______ _______ _______ _____ _____    ______ ____

>  <TORSDO>
F 12

$$$$
=
 OpenBabel11032419293D

 36 39  0  0  1  0  0  0  0  0999 V2000
  189.7440  177.7540  142.6910 C   0  0  2  0  0  3  0  0  0  0  0  0
  190.3410  177.4690  140.3150 C   0  0  2  0  0  3  0  0  0  0  0  0
  191.4130  177.0530  141.1250 O   0  0  0  0  0  0  0  0  0  0  0  0
  190.1230  176.7580  141.6000 C   0  0  1  0  0  3  0  0  0  0  0  0
  190.2390  176.5590  139.1230 C   0  0  0  0  0  0  0  0  0  0  0  0
  191.0160  175.6280  138.9640 O   0  0  0  0  0  0  0  0  0  0  0  0
  189.1230  176.7670  138.1550 C   0  0  0  0  0  2  0  0  0  0  0  0
  188.2620  177.9450  138.5920 C   0  0  0  0  0  2  0  0  0  0  0  0
  185.9540  178.6260  138.2550 N   0  0  0  0  0  2  0  0  0  0  0  0
  183.7480  177.8460  138.2500 O   0  0  0  0  0  0  0  0  0  0  0  0
  186.8600  177.0600  136.6830 C   0  0  0  0  0  2  0  0  0  0  0  0
  184.9240  177.7740  137.8060 C   0  0  0  0  0  0  0  0  0  0  0  0
  187.1830  178.2790  137.5660 C   0  0  2  0  0  0  0  0  0  0  0  0
  184.6970  177.0850  135.4640 C   0  0  0  0  0  1  0  0  0  0  0  0
  187.5850  179.3510  136.7680 O   0  0  0  0  0  1  0  0  0  0  0  0
  185.3610  176.7910  136.7960 C   0  0  1  0  0  3  0  0  0  0  0  0
  190.8920  178.0190  143.6760 C   0  0  1  0  0  3  0  0  0  0  0  0
  191.2370  179.4970  143.8070 C   0  0  0  0  0  1  0  0  0  0  0  0
  190.8740  176.0010  146.7770 C   0  0  1  0  0  3  0  0  0  0  0  0
  189.8810  177.0670  147.0520 C   0  0  0  0  0  0  0  0  0  0  0  0
  189.2290  177.1910  148.1210 O   0  0  0  0  0  0  0  0  0  0  0  0
  190.6390  177.3820  145.0060 C   0  0  0  0  0  0  0  0  0  0  0  0
  191.2890  176.3380  145.4240 N   0  0  0  0  0  0  0  0  0  0  0  0
  189.7330  177.9420  145.9490 N   0  0  0  0  0  2  0  0  0  0  0  0
  192.0560  176.1340  147.7190 C   0  0  0  0  0  1  0  0  0  0  0  0
  188.5660  177.2810  143.4050 N   0  0  0  0  0  2  0  0  0  0  0  0
  184.9470  178.8070  143.3960 C   0  0  2  0  0  3  0  0  0  0  0  0
  187.0500  178.6990  141.7040 S   0  0  0  0  0  0  0  0  0  0  0  0
  185.6700  179.6540  142.3690 C   0  0  0  0  0  2  0  0  0  0  0  0
  186.1520  177.8780  144.4060 S   0  0  0  0  0  0  0  0  0  0  0  0
  187.5880  178.3580  143.4000 C   0  0  1  0  0  3  0  0  0  0  0  0
  184.0560  177.8760  142.7200 N   0  0  0  0  0  2  0  0  0  0  0  0
  183.3140  178.6300  141.7220 C   0  0  0  0  0  2  0  0  0  0  0  0
  181.0140  178.1280  141.3640 O   0  0  0  0  0  0  0  0  0  0  0  0
  181.4750  179.3880  143.2230 O   0  0  0  0  0  1  0  0  0  0  0  0
  181.8740  178.6840  142.0940 C   0  0  0  0  0  0  0  0  0  0  0  0
  1 26  1  1  0  0  0
  1 17  1  0  0  0  0
  2  5  1  6  0  0  0
  2  3  1  0  0  0  0
  2  4  1  0  0  0  0
  3  4  1  0  0  0  0
  4  1  1  1  0  0  0
  6  5  2  0  0  0  0
  7  8  1  0  0  0  0
  7  5  1  0  0  0  0
 11 16  1  0  0  0  0
 11 13  1  0  0  0  0
 12 10  2  0  0  0  0
 12  9  1  0  0  0  0
 13 15  1  6  0  0  0
 13  9  1  0  0  0  0
 13  8  1  0  0  0  0
 16 14  1  6  0  0  0
 16 12  1  0  0  0  0
 17 18  1  1  0  0  0
 17 22  1  0  0  0  0
 19 20  1  0  0  0  0
 19 25  1  1  0  0  0
 20 21  2  0  0  0  0
 22 23  2  0  0  0  0
 22 24  1  0  0  0  0
 23 19  1  0  0  0  0
 24 20  1  0  0  0  0
 27 32  1  6  0  0  0
 27 30  1  0  0  0  0
 28 29  1  0  0  0  0
 28 31  1  0  0  0  0
 29 27  1  0  0  0  0
 31 26  1  6  0  0  0
 31 30  1  0  0  0  0
 33 36  1  0  0  0  0
 33 32  1  0  0  0  0
 34 36  2  0  0  0  0
 36 35  1  0  0  0  0
M  END
>  <MODEL>
6

>  <REMARK>
 VINA RESULT:      -6.5      2.451      6.157
  Name = 
  12 active torsions:
  status: ('A' for Active; 'I' for Inactive)
    1  A    between atoms: C_1  and  C_12
    2  A    between atoms: C_1  and  N_17
    3  A    between atoms: C_1  and  C_21
    4  A    between atoms: C_5  and  C_9
    5  A    between atoms: C_5  and  C_29
    6  A    between atoms: C_6  and  N_16
    7  A    between atoms: C_12  and  C_15
    8  A    between atoms: N_16  and  C_35
    9  A    between atoms: N_17  and  C_28
   10  A    between atoms: C_23  and  C_35
   11  A    between atoms: C_24  and  C_26
   12  A    between atoms: C_26  and  C_29
                            x       y       z     vdW  Elec       q    Type
                         _______ _______ _______ _____ _____    ______ ____

>  <TORSDO>
F 12

$$$$
=
 OpenBabel11032419293D

 36 39  0  0  1  0  0  0  0  0999 V2000
  189.2520  177.4120  138.7620 C   0  0  2  0  0  3  0  0  0  0  0  0
  191.3770  176.1990  138.4500 C   0  0  2  0  0  3  0  0  0  0  0  0
  190.6720  176.2410  137.2320 O   0  0  0  0  0  0  0  0  0  0  0  0
  190.5940  177.3910  138.0380 C   0  0  1  0  0  3  0  0  0  0  0  0
  192.8470  176.3470  138.1760 C   0  0  0  0  0  0  0  0  0  0  0  0
  193.5490  177.0910  138.8470 O   0  0  0  0  0  0  0  0  0  0  0  0
  193.4640  175.5160  137.1020 C   0  0  0  0  0  2  0  0  0  0  0  0
  193.6540  174.0860  137.5900 C   0  0  0  0  0  2  0  0  0  0  0  0
  195.9390  174.8990  137.7330 N   0  0  0  0  0  2  0  0  0  0  0  0
  197.6910  175.8070  136.4750 O   0  0  0  0  0  0  0  0  0  0  0  0
  195.5720  172.9330  136.4130 C   0  0  0  0  0  2  0  0  0  0  0  0
  196.8660  174.8760  136.6710 C   0  0  0  0  0  0  0  0  0  0  0  0
  195.1270  173.6980  137.6720 C   0  0  2  0  0  0  0  0  0  0  0  0
  198.0090  172.8300  135.9500 C   0  0  0  0  0  1  0  0  0  0  0  0
  195.3640  172.9210  138.8080 O   0  0  0  0  0  1  0  0  0  0  0  0
  196.7610  173.6810  135.8120 C   0  0  1  0  0  3  0  0  0  0  0  0
  188.1410  178.0730  137.9340 C   0  0  1  0  0  3  0  0  0  0  0  0
  188.6760  178.9930  136.8440 C   0  0  0  0  0  1  0  0  0  0  0  0
  185.4530  176.1880  136.2280 C   0  0  1  0  0  3  0  0  0  0  0  0
  186.2870  175.1250  136.8410 C   0  0  0  0  0  0  0  0  0  0  0  0
  186.0660  173.8900  136.7500 O   0  0  0  0  0  0  0  0  0  0  0  0
  187.1770  177.0640  137.3930 C   0  0  0  0  0  0  0  0  0  0  0  0
  186.1560  177.3870  136.6600 N   0  0  0  0  0  0  0  0  0  0  0  0
  187.3750  175.6660  137.5670 N   0  0  0  0  0  2  0  0  0  0  0  0
  185.5080  176.0860  134.7140 C   0  0  0  0  0  1  0  0  0  0  0  0
  189.3940  178.0870  140.0460 N   0  0  0  0  0  2  0  0  0  0  0  0
  188.2670  177.0210  143.6540 C   0  0  2  0  0  3  0  0  0  0  0  0
  190.4540  176.7200  142.0970 S   0  0  0  0  0  0  0  0  0  0  0  0
  189.3400  176.0040  143.3240 C   0  0  0  0  0  2  0  0  0  0  0  0
  187.7270  177.8810  142.1350 S   0  0  0  0  0  0  0  0  0  0  0  0
  189.0130  177.1420  141.0830 C   0  0  1  0  0  3  0  0  0  0  0  0
  188.7890  177.9890  144.6050 N   0  0  0  0  0  2  0  0  0  0  0  0
  188.1310  177.7460  145.8790 C   0  0  0  0  0  2  0  0  0  0  0  0
  188.8180  177.3480  148.1250 O   0  0  0  0  0  1  0  0  0  0  0  0
  190.4520  177.1200  146.5330 O   0  0  0  0  0  0  0  0  0  0  0  0
  189.1410  177.3810  146.9090 C   0  0  0  0  0  0  0  0  0  0  0  0
  1 26  1  1  0  0  0
  2  5  1  6  0  0  0
  3  4  1  0  0  0  0
  3  2  1  0  0  0  0
  4  2  1  0  0  0  0
  4  1  1  1  0  0  0
  5  6  2  0  0  0  0
  7  8  1  0  0  0  0
  7  5  1  0  0  0  0
  8 13  1  0  0  0  0
 10 12  2  0  0  0  0
 11 13  1  0  0  0  0
 12  9  1  0  0  0  0
 13  9  1  0  0  0  0
 13 15  1  1  0  0  0
 16 14  1  1  0  0  0
 16 11  1  0  0  0  0
 16 12  1  0  0  0  0
 17 18  1  6  0  0  0
 17  1  1  0  0  0  0
 19 25  1  6  0  0  0
 19 23  1  0  0  0  0
 19 20  1  0  0  0  0
 20 24  1  0  0  0  0
 21 20  2  0  0  0  0
 22 24  1  0  0  0  0
 22 17  1  0  0  0  0
 23 22  2  0  0  0  0
 27 32  1  1  0  0  0
 28 29  1  0  0  0  0
 29 27  1  0  0  0  0
 30 27  1  0  0  0  0
 31 26  1  6  0  0  0
 31 28  1  0  0  0  0
 31 30  1  0  0  0  0
 32 33  1  0  0  0  0
 33 36  1  0  0  0  0
 35 36  2  0  0  0  0
 36 34  1  0  0  0  0
M  END
>  <MODEL>
7

>  <REMARK>
 VINA RESULT:      -6.5      3.769     10.378
  Name = 
  12 active torsions:
  status: ('A' for Active; 'I' for Inactive)
    1  A    between atoms: C_1  and  C_12
    2  A    between atoms: C_1  and  N_17
    3  A    between atoms: C_1  and  C_21
    4  A    between atoms: C_5  and  C_9
    5  A    between atoms: C_5  and  C_29
    6  A    between atoms: C_6  and  N_16
    7  A    between atoms: C_12  and  C_15
    8  A    between atoms: N_16  and  C_35
    9  A    between atoms: N_17  and  C_28
   10  A    between atoms: C_23  and  C_35
   11  A    between atoms: C_24  and  C_26
   12  A    between atoms: C_26  and  C_29
                            x       y       z     vdW  Elec       q    Type
                         _______ _______ _______ _____ _____    ______ ____

>  <TORSDO>
F 12

$$$$
=
 OpenBabel11032419293D

 36 39  0  0  1  0  0  0  0  0999 V2000
  186.9080  177.6840  142.1470 C   0  0  2  0  0  3  0  0  0  0  0  0
  187.7820  177.8440  139.8470 C   0  0  2  0  0  3  0  0  0  0  0  0
  187.0080  178.9830  140.1400 O   0  0  0  0  0  0  0  0  0  0  0  0
  187.7930  178.4760  141.1910 C   0  0  1  0  0  3  0  0  0  0  0  0
  188.9600  178.2500  139.0060 C   0  0  0  0  0  0  0  0  0  0  0  0
  189.0550  179.3780  138.5430 O   0  0  0  0  0  0  0  0  0  0  0  0
  190.0620  177.2670  138.7910 C   0  0  0  0  0  2  0  0  0  0  0  0
  189.5430  176.0570  138.0250 C   0  0  0  0  0  2  0  0  0  0  0  0
  191.8470  175.3640  138.3630 N   0  0  0  0  0  2  0  0  0  0  0  0
  194.0700  175.9990  138.0030 O   0  0  0  0  0  0  0  0  0  0  0  0
  191.0880  175.5240  136.0960 C   0  0  0  0  0  2  0  0  0  0  0  0
  192.9280  175.7440  137.5410 C   0  0  0  0  0  0  0  0  0  0  0  0
  190.6740  175.1600  137.5330 C   0  0  2  0  0  0  0  0  0  0  0  0
  193.3220  174.7590  135.3310 C   0  0  0  0  0  1  0  0  0  0  0  0
  190.2940  173.8180  137.5920 O   0  0  0  0  0  1  0  0  0  0  0  0
  192.5840  175.8320  136.1080 C   0  0  1  0  0  3  0  0  0  0  0  0
  185.8040  178.5410  142.7810 C   0  0  1  0  0  3  0  0  0  0  0  0
  184.4210  178.2500  142.2120 C   0  0  0  0  0  1  0  0  0  0  0  0
  186.1300  177.6220  146.3500 C   0  0  1  0  0  3  0  0  0  0  0  0
  185.7990  179.0660  146.3940 C   0  0  0  0  0  0  0  0  0  0  0  0
  185.6790  179.7500  147.4430 O   0  0  0  0  0  0  0  0  0  0  0  0
  185.8250  178.4580  144.2750 C   0  0  0  0  0  0  0  0  0  0  0  0
  186.1240  177.3700  144.9170 N   0  0  0  0  0  0  0  0  0  0  0  0
  185.6140  179.6010  145.0960 N   0  0  0  0  0  2  0  0  0  0  0  0
  187.5250  177.3900  146.9000 C   0  0  0  0  0  1  0  0  0  0  0  0
  187.7270  177.0690  143.1840 N   0  0  0  0  0  2  0  0  0  0  0  0
  191.6240  176.6450  143.4310 C   0  0  2  0  0  3  0  0  0  0  0  0
  189.7710  178.4180  144.2800 S   0  0  0  0  0  0  0  0  0  0  0  0
  191.4350  178.1330  143.6400 C   0  0  0  0  0  2  0  0  0  0  0  0
  190.1020  175.9090  142.7380 S   0  0  0  0  0  0  0  0  0  0  0  0
  189.1120  177.4240  142.9170 C   0  0  1  0  0  3  0  0  0  0  0  0
  191.9390  176.0100  144.7010 N   0  0  0  0  0  2  0  0  0  0  0  0
  191.6910  176.9870  145.7490 C   0  0  0  0  0  2  0  0  0  0  0  0
  190.5610  176.2590  147.7160 O   0  0  0  0  0  1  0  0  0  0  0  0
  192.8000  175.7710  147.6200 O   0  0  0  0  0  0  0  0  0  0  0  0
  191.6420  176.3080  147.0730 C   0  0  0  0  0  0  0  0  0  0  0  0
  1 17  1  0  0  0  0
  1 26  1  1  0  0  0
  2  5  1  6  0  0  0
  2  3  1  0  0  0  0
  2  4  1  0  0  0  0
  3  4  1  0  0  0  0
  4  1  1  1  0  0  0
  6  5  2  0  0  0  0
  7  5  1  0  0  0  0
  8  7  1  0  0  0  0
 11 16  1  0  0  0  0
 11 13  1  0  0  0  0
 12 10  2  0  0  0  0
 12  9  1  0  0  0  0
 13 15  1  1  0  0  0
 13  8  1  0  0  0  0
 13  9  1  0  0  0  0
 16 14  1  6  0  0  0
 16 12  1  0  0  0  0
 17 18  1  6  0  0  0
 17 22  1  0  0  0  0
 19 20  1  0  0  0  0
 19 25  1  6  0  0  0
 20 21  2  0  0  0  0
 22 23  2  0  0  0  0
 22 24  1  0  0  0  0
 23 19  1  0  0  0  0
 24 20  1  0  0  0  0
 27 29  1  0  0  0  0
 27 32  1  1  0  0  0
 29 28  1  0  0  0  0
 30 31  1  0  0  0  0
 30 27  1  0  0  0  0
 31 26  1  1  0  0  0
 31 28  1  0  0  0  0
 32 33  1  0  0  0  0
 33 36  1  0  0  0  0
 36 35  2  0  0  0  0
 36 34  1  0  0  0  0
M  END
>  <MODEL>
8

>  <REMARK>
 VINA RESULT:      -6.5      2.366      7.720
  Name = 
  12 active torsions:
  status: ('A' for Active; 'I' for Inactive)
    1  A    between atoms: C_1  and  C_12
    2  A    between atoms: C_1  and  N_17
    3  A    between atoms: C_1  and  C_21
    4  A    between atoms: C_5  and  C_9
    5  A    between atoms: C_5  and  C_29
    6  A    between atoms: C_6  and  N_16
    7  A    between atoms: C_12  and  C_15
    8  A    between atoms: N_16  and  C_35
    9  A    between atoms: N_17  and  C_28
   10  A    between atoms: C_23  and  C_35
   11  A    between atoms: C_24  and  C_26
   12  A    between atoms: C_26  and  C_29
                            x       y       z     vdW  Elec       q    Type
                         _______ _______ _______ _____ _____    ______ ____

>  <TORSDO>
F 12

$$$$
=
 OpenBabel11032419293D

 36 39  0  0  1  0  0  0  0  0999 V2000
  190.6130  177.4850  139.9010 C   0  0  2  0  0  3  0  0  0  0  0  0
  188.6100  178.1320  138.6170 C   0  0  2  0  0  3  0  0  0  0  0  0
  189.6960  177.9500  137.7400 O   0  0  0  0  0  0  0  0  0  0  0  0
  189.6170  177.0620  138.8270 C   0  0  1  0  0  3  0  0  0  0  0  0
  187.3550  177.6280  137.9620 C   0  0  0  0  0  0  0  0  0  0  0  0
  187.2450  176.4620  137.6060 O   0  0  0  0  0  0  0  0  0  0  0  0
  186.2020  178.5610  137.8050 C   0  0  0  0  0  2  0  0  0  0  0  0
  184.9100  177.8750  138.2300 C   0  0  0  0  0  2  0  0  0  0  0  0
  185.1260  179.3780  140.1260 N   0  0  0  0  0  2  0  0  0  0  0  0
  185.6510  179.4620  142.4050 O   0  0  0  0  0  0  0  0  0  0  0  0
  183.3960  177.7250  140.2480 C   0  0  0  0  0  2  0  0  0  0  0  0
  184.9420  179.0020  141.4730 C   0  0  0  0  0  0  0  0  0  0  0  0
  184.1680  178.6640  139.3040 C   0  0  2  0  0  0  0  0  0  0  0  0
  182.7260  178.6390  142.4570 C   0  0  0  0  0  1  0  0  0  0  0  0
  183.2890  179.5760  138.7190 O   0  0  0  0  0  1  0  0  0  0  0  0
  183.8640  178.0140  141.6730 C   0  0  1  0  0  3  0  0  0  0  0  0
  192.0710  177.3870  139.4290 C   0  0  1  0  0  3  0  0  0  0  0  0
  193.0520  177.1410  140.5690 C   0  0  0  0  0  1  0  0  0  0  0  0
  193.0370  175.3890  136.4680 C   0  0  1  0  0  3  0  0  0  0  0  0
  192.0690  174.5160  137.1750 C   0  0  0  0  0  0  0  0  0  0  0  0
  191.7150  173.3700  136.7930 O   0  0  0  0  0  0  0  0  0  0  0  0
  192.2320  176.3880  138.3260 C   0  0  0  0  0  0  0  0  0  0  0  0
  193.0510  176.5590  137.3330 N   0  0  0  0  0  0  0  0  0  0  0  0
  191.5650  175.1310  138.3460 N   0  0  0  0  0  2  0  0  0  0  0  0
  194.4120  174.7460  136.4620 C   0  0  0  0  0  1  0  0  0  0  0  0
  190.4170  176.6820  141.1010 N   0  0  0  0  0  2  0  0  0  0  0  0
  189.6450  178.0710  144.6930 C   0  0  2  0  0  3  0  0  0  0  0  0
  188.3740  176.5730  142.8380 S   0  0  0  0  0  0  0  0  0  0  0  0
  188.2630  177.8410  144.1190 C   0  0  0  0  0  2  0  0  0  0  0  0
  190.8930  178.0470  143.3590 S   0  0  0  0  0  0  0  0  0  0  0  0
  189.7230  177.5110  142.0740 C   0  0  1  0  0  3  0  0  0  0  0  0
  189.9480  177.0310  145.6640 N   0  0  0  0  0  2  0  0  0  0  0  0
  191.3880  176.8280  145.6500 C   0  0  0  0  0  2  0  0  0  0  0  0
  191.7010  177.1320  147.9910 O   0  0  0  0  0  1  0  0  0  0  0  0
  192.4900  175.1570  147.1350 O   0  0  0  0  0  0  0  0  0  0  0  0
  191.8510  176.3820  146.9920 C   0  0  0  0  0  0  0  0  0  0  0  0
  1 26  1  1  0  0  0
  2  5  1  6  0  0  0
  2  4  1  0  0  0  0
  3  2  1  0  0  0  0
  3  4  1  0  0  0  0
  4  1  1  1  0  0  0
  6  5  2  0  0  0  0
  7  5  1  0  0  0  0
  7  8  1  0  0  0  0
  8 13  1  0  0  0  0
  9 12  1  0  0  0  0
 11 16  1  0  0  0  0
 12 16  1  0  0  0  0
 12 10  2  0  0  0  0
 13 15  1  6  0  0  0
 13  9  1  0  0  0  0
 13 11  1  0  0  0  0
 16 14  1  1  0  0  0
 17  1  1  0  0  0  0
 17 18  1  1  0  0  0
 19 25  1  1  0  0  0
 19 20  1  0  0  0  0
 19 23  1  0  0  0  0
 20 24  1  0  0  0  0
 21 20  2  0  0  0  0
 22 24  1  0  0  0  0
 22 17  1  0  0  0  0
 23 22  2  0  0  0  0
 27 32  1  1  0  0  0
 28 29  1  0  0  0  0
 29 27  1  0  0  0  0
 30 27  1  0  0  0  0
 31 26  1  6  0  0  0
 31 28  1  0  0  0  0
 31 30  1  0  0  0  0
 33 32  1  0  0  0  0
 33 36  1  0  0  0  0
 36 35  2  0  0  0  0
 36 34  1  0  0  0  0
M  END
>  <MODEL>
9

>  <REMARK>
 VINA RESULT:      -6.4      2.352      6.336
  Name = 
  12 active torsions:
  status: ('A' for Active; 'I' for Inactive)
    1  A    between atoms: C_1  and  C_12
    2  A    between atoms: C_1  and  N_17
    3  A    between atoms: C_1  and  C_21
    4  A    between atoms: C_5  and  C_9
    5  A    between atoms: C_5  and  C_29
    6  A    between atoms: C_6  and  N_16
    7  A    between atoms: C_12  and  C_15
    8  A    between atoms: N_16  and  C_35
    9  A    between atoms: N_17  and  C_28
   10  A    between atoms: C_23  and  C_35
   11  A    between atoms: C_24  and  C_26
   12  A    between atoms: C_26  and  C_29
                            x       y       z     vdW  Elec       q    Type
                         _______ _______ _______ _____ _____    ______ ____

>  <TORSDO>
F 12

$$$$
