=
 OpenBabel11042409553D

 66 68  0  0  1  0  0  0  0  0999 V2000
  188.4180  177.0460  136.6890 C   0  0  1  0  0  3  0  0  0  0  0  0
  190.2320  176.8210  135.4280 C   0  0  0  0  0  1  0  0  0  0  0  0
  188.8400  176.8910  135.3630 O   0  0  0  0  0  0  0  0  0  0  0  0
  186.9590  176.6070  136.8350 C   0  0  2  0  0  3  0  0  0  0  0  0
  186.8830  175.2720  137.2500 O   0  0  0  0  0  0  0  0  0  0  0  0
  187.8500  174.5930  136.5130 C   0  0  0  0  0  1  0  0  0  0  0  0
  186.3170  176.7320  135.5990 O   0  0  0  0  0  0  0  0  0  0  0  0
  184.3850  177.7030  134.5940 C   0  0  0  0  0  1  0  0  0  0  0  0
  185.0130  177.1710  135.8720 C   0  0  1  0  0  3  0  0  0  0  0  0
  182.2650  173.9210  136.7880 C   0  0  0  0  0  2  0  0  0  0  0  0
  184.1510  176.0430  136.4460 C   0  0  2  0  0  3  0  0  0  0  0  0
  184.3120  174.7720  135.6010 C   0  0  0  0  0  2  0  0  0  0  0  0
  181.8270  175.3270  137.2560 C   0  0  1  0  0  0  0  0  0  0  0  0
  182.6840  176.4580  136.6270 C   0  0  0  0  0  2  0  0  0  0  0  0
  183.0230  173.9570  135.4640 C   0  0  0  0  0  2  0  0  0  0  0  0
  180.4420  175.5200  137.0030 O   0  0  0  0  0  0  0  0  0  0  0  0
  180.2050  175.6070  135.6190 C   0  0  0  0  0  1  0  0  0  0  0  0
  182.0360  175.3390  138.7740 C   0  0  0  0  0  2  0  0  0  0  0  0
  182.6930  176.6190  139.2790 C   0  0  0  0  0  2  0  0  0  0  0  0
  182.0130  177.1130  140.5430 C   0  0  0  0  0  2  0  0  0  0  0  0
  180.5780  177.5090  140.2390 C   0  0  0  0  0  2  0  0  0  0  0  0
  180.2440  178.7320  140.9510 N   0  0  0  0  0  2  0  0  0  0  0  0
  179.2550  179.4360  140.1530 C   0  0  0  0  0  2  0  0  0  0  0  0
  179.7090  179.5380  138.8390 O   0  0  0  0  0  0  0  0  0  0  0  0
  180.6550  180.5650  138.8740 C   0  0  0  0  0  2  0  0  0  0  0  0
  180.1950  181.7200  138.0000 C   0  0  2  0  0  3  0  0  0  0  0  0
  179.6260  181.1860  136.7240 C   0  0  0  0  0  3  0  0  0  0  0  0
  180.0430  180.1400  136.2510 O   0  0  0  0  0  0  0  0  0  0  0  0
  181.3740  182.6310  137.6950 C   0  0  0  0  0  2  0  0  0  0  0  0
  181.8530  185.2600  137.3660 O   0  0  0  0  0  0  0  0  0  0  0  0
  180.6000  184.1220  135.5900 O   0  0  0  0  0  0  0  0  0  0  0  0
  180.8180  184.2090  137.0740 S   0  0  0  0  0  0  0  0  0  0  0  0
  178.9750  186.1020  137.6500 C   0  0  0  0  0  1  0  0  0  0  0  0
  179.2890  184.6380  137.8770 C   0  0  0  0  0  2  0  0  0  0  0  0
  189.3190  176.2510  137.6320 C   0  0  0  0  0  2  0  0  0  0  0  0
  189.6290  177.0290  138.8230 N   0  0  0  0  0  0  0  0  0  0  0  0
  190.6100  176.3490  139.5210 O   0  0  0  0  0  0  0  0  0  0  0  0
  191.9180  177.8000  140.7570 O   0  0  0  0  0  0  0  0  0  0  0  0
  193.0080  176.6000  139.0940 N   0  0  0  0  0  2  0  0  0  0  0  0
  191.8400  176.9370  139.8400 C   0  0  0  0  0  0  0  0  0  0  0  0
  192.9710  174.7190  137.2840 C   0  0  0  0  0  3  0  0  0  0  0  0
  192.9930  175.5880  138.1210 C   0  0  0  0  0  0  0  0  0  0  0  0
  188.4350  177.0050  139.6570 C   0  0  0  0  0  2  0  0  0  0  0  0
  188.6270  177.8890  140.8810 C   0  0  0  0  0  2  0  0  0  0  0  0
  188.0390  177.2330  142.1220 C   0  0  1  0  0  3  0  0  0  0  0  0
  189.0590  176.6120  142.8450 O   0  0  0  0  0  1  0  0  0  0  0  0
  187.4250  178.2600  142.9530 N   0  0  0  0  0  2  0  0  0  0  0  0
  185.0170  178.3440  143.2370 C   0  0  0  0  0  1  0  0  0  0  0  0
  186.3020  177.6620  143.6660 C   0  0  2  0  0  3  0  0  0  0  0  0
  186.4740  177.8000  145.1490 C   0  0  0  0  0  0  0  0  0  0  0  0
  185.4810  178.1740  145.9840 N   0  0  0  0  0  0  0  0  0  0  0  0
  187.3470  177.7350  147.0700 C   0  0  0  0  0  0  0  0  0  0  0  0
  187.6350  177.5180  145.7740 N   0  0  0  0  0  0  0  0  0  0  0  0
  186.0410  178.1500  147.2090 C   0  0  0  0  0  2  0  0  0  0  0  0
  189.8060  177.4610  148.0050 C   0  0  2  0  0  3  0  0  0  0  0  0
  187.8530  177.3070  149.4440 O   0  0  0  0  0  1  0  0  0  0  0  0
  188.3490  177.6190  148.1790 C   0  0  2  0  0  0  0  0  0  0  0  0
  189.2240  178.8000  148.2370 N   0  0  0  0  0  2  0  0  0  0  0  0
  189.3880  176.4660  145.8740 O   0  0  0  0  0  1  0  0  0  0  0  0
  190.3230  177.2500  146.5560 C   0  0  2  0  0  0  0  0  0  0  0  0
  192.0680  176.3860  147.9840 O   0  0  0  0  0  1  0  0  0  0  0  0
  191.6140  176.4330  146.6620 C   0  0  0  0  0  2  0  0  0  0  0  0
  190.5470  178.5470  145.7380 C   0  0  0  0  0  2  0  0  0  0  0  0
  191.1550  178.3510  144.3810 C   0  0  0  0  0  0  0  0  0  0  0  0
  191.9380  177.2310  144.1300 O   0  0  0  0  0  1  0  0  0  0  0  0
  190.9570  179.1910  143.4660 O   0  0  0  0  0  0  0  0  0  0  0  0
  1  4  1  0  0  0  0
  1 35  1  1  0  0  0
  3  2  1  0  0  0  0
  3  1  1  0  0  0  0
  4  7  1  6  0  0  0
  4  5  1  0  0  0  0
  6  5  1  0  0  0  0
  7  9  1  0  0  0  0
  9  8  1  6  0  0  0
 10 13  1  0  0  0  0
 11  9  1  6  0  0  0
 11 14  1  0  0  0  0
 12 11  1  0  0  0  0
 13 18  1  1  0  0  0
 14 13  1  0  0  0  0
 15 12  1  0  0  0  0
 15 10  1  0  0  0  0
 16 13  1  0  0  0  0
 17 16  1  0  0  0  0
 18 19  1  0  0  0  0
 19 20  1  0  0  0  0
 21 20  1  0  0  0  0
 21 22  1  0  0  0  0
 23 22  1  0  0  0  0
 24 25  1  0  0  0  0
 24 23  1  0  0  0  0
 26 27  1  6  0  0  0
 26 25  1  0  0  0  0
 28 27  2  0  0  0  0
 29 26  1  0  0  0  0
 31 32  2  0  0  0  0
 32 30  2  0  0  0  0
 32 29  1  0  0  0  0
 32 34  1  0  0  0  0
 33 34  1  0  0  0  0
 35 36  1  0  0  0  0
 36 37  1  0  0  0  0
 36 43  1  0  0  0  0
 37 40  1  0  0  0  0
 39 40  1  0  0  0  0
 40 38  2  0  0  0  0
 41 42  3  0  0  0  0
 42 39  1  0  0  0  0
 43 44  1  0  0  0  0
 44 45  1  0  0  0  0
 45 46  1  1  0  0  0
 45 47  1  0  0  0  0
 47 49  1  0  0  0  0
 49 48  1  6  0  0  0
 49 50  1  0  0  0  0
 50 53  1  0  0  0  0
 50 51  2  0  0  0  0
 51 54  1  0  0  0  0
 52 54  1  0  0  0  0
 52 57  1  0  0  0  0
 53 52  2  0  0  0  0
 55 60  1  6  0  0  0
 55 57  1  0  0  0  0
 55 58  1  0  0  0  0
 57 58  1  0  0  0  0
 57 56  1  1  0  0  0
 60 59  1  6  0  0  0
 60 62  1  0  0  0  0
 62 61  1  0  0  0  0
 63 60  1  0  0  0  0
 64 63  1  0  0  0  0
 65 64  1  0  0  0  0
 66 64  2  0  0  0  0
M  END
>  <MODEL>
1

>  <REMARK>
 VINA RESULT:      -4.9      0.000      0.000
  Name = 
  36 active torsions:
  status: ('A' for Active; 'I' for Inactive)
    1  A    between atoms: C_4  and  C_44
    2  A    between atoms: C_6  and  N_25
    3  A    between atoms: C_6  and  C_62
    4  A    between atoms: C_8  and  C_29
    5  A    between atoms: C_8  and  C_49
    6  A    between atoms: N_9  and  C_61
    7  A    between atoms: C_10  and  C_33
    8  A    between atoms: C_10  and  S_48
    9  A    between atoms: C_11  and  C_34
   10  A    between atoms: C_11  and  N_42
   11  A    between atoms: O_14  and  C_45
   12  A    between atoms: C_15  and  C_58
   13  A    between atoms: C_18  and  C_24
   14  A    between atoms: C_18  and  C_50
   15  A    between atoms: C_19  and  C_30
   16  A    between atoms: C_22  and  C_33
   17  A    between atoms: N_25  and  C_46
   18  A    between atoms: N_25  and  O_54
   19  A    between atoms: C_26  and  S_48
   20  A    between atoms: C_27  and  C_45
   21  A    between atoms: C_27  and  C_49
   22  A    between atoms: C_28  and  O_54
   23  A    between atoms: C_29  and  N_56
   24  A    between atoms: C_30  and  O_36
   25  A    between atoms: C_31  and  O_52
   26  A    between atoms: C_31  and  N_56
   27  A    between atoms: C_33  and  C_64
   28  A    between atoms: C_34  and  C_46
   29  A    between atoms: O_36  and  C_39
   30  A    between atoms: C_39  and  O_41
   31  A    between atoms: C_39  and  C_62
   32  A    between atoms: O_40  and  C_62
   33  A    between atoms: N_42  and  C_44
   34  A    between atoms: C_43  and  C_50
   35  A    between atoms: C_50  and  C_60
   36  A    between atoms: O_52  and  C_64
                            x       y       z     vdW  Elec       q    Type
                         _______ _______ _______ _____ _____    ______ ____

>  <TORSDO>
F 36

$$$$
=
 OpenBabel11042409553D

 66 68  0  0  1  0  0  0  0  0999 V2000
  184.6850  177.7680  137.0360 C   0  0  1  0  0  3  0  0  0  0  0  0
  186.4170  178.9190  136.2570 C   0  0  0  0  0  1  0  0  0  0  0  0
  185.3910  178.0600  135.8620 O   0  0  0  0  0  0  0  0  0  0  0  0
  183.2650  177.3080  136.6980 C   0  0  2  0  0  3  0  0  0  0  0  0
  183.2880  176.0820  136.0240 O   0  0  0  0  0  0  0  0  0  0  0  0
  182.5810  175.1940  136.8320 C   0  0  0  0  0  1  0  0  0  0  0  0
  182.6580  178.2630  135.8760 O   0  0  0  0  0  0  0  0  0  0  0  0
  180.4060  179.0340  135.7270 C   0  0  0  0  0  1  0  0  0  0  0  0
  181.6150  178.8260  136.6250 C   0  0  1  0  0  3  0  0  0  0  0  0
  179.8030  176.4560  139.7960 C   0  0  0  0  0  2  0  0  0  0  0  0
  181.2350  177.9370  137.8130 C   0  0  2  0  0  3  0  0  0  0  0  0
  180.2850  176.8210  137.3560 C   0  0  0  0  0  2  0  0  0  0  0  0
  180.3490  177.8400  140.2160 C   0  0  1  0  0  0  0  0  0  0  0  0
  180.6840  178.7420  138.9980 C   0  0  0  0  0  2  0  0  0  0  0  0
  179.2130  176.4650  138.3890 C   0  0  0  0  0  2  0  0  0  0  0  0
  179.4410  178.4780  141.1040 O   0  0  0  0  0  0  0  0  0  0  0  0
  178.9740  179.6820  140.5440 C   0  0  0  0  0  1  0  0  0  0  0  0
  181.6420  177.5550  140.9880 C   0  0  0  0  0  2  0  0  0  0  0  0
  182.2060  178.7870  141.6860 C   0  0  0  0  0  2  0  0  0  0  0  0
  183.3910  178.4170  142.5600 C   0  0  0  0  0  2  0  0  0  0  0  0
  184.1310  179.6730  142.9890 C   0  0  0  0  0  2  0  0  0  0  0  0
  184.8850  179.4090  144.2050 N   0  0  0  0  0  2  0  0  0  0  0  0
  185.2950  178.0160  144.1600 C   0  0  0  0  0  2  0  0  0  0  0  0
  186.5670  177.8910  144.7170 O   0  0  0  0  0  0  0  0  0  0  0  0
  187.3010  177.1880  143.7600 C   0  0  0  0  0  2  0  0  0  0  0  0
  188.7680  177.5790  143.8430 C   0  0  2  0  0  3  0  0  0  0  0  0
  189.2970  177.8270  142.4660 C   0  0  0  0  0  3  0  0  0  0  0  0
  188.6740  177.4510  141.4870 O   0  0  0  0  0  0  0  0  0  0  0  0
  189.5580  176.4600  144.5030 C   0  0  0  0  0  2  0  0  0  0  0  0
  191.9160  176.3380  145.7970 O   0  0  0  0  0  0  0  0  0  0  0  0
  190.8960  178.5550  145.5400 O   0  0  0  0  0  0  0  0  0  0  0  0
  190.6190  177.0990  145.7870 S   0  0  0  0  0  0  0  0  0  0  0  0
  188.6400  177.8710  147.4610 C   0  0  0  0  0  1  0  0  0  0  0  0
  189.8030  176.9070  147.3570 C   0  0  0  0  0  2  0  0  0  0  0  0
  185.4200  176.7020  137.8480 C   0  0  0  0  0  2  0  0  0  0  0  0
  186.5710  176.1990  137.1100 N   0  0  0  0  0  0  0  0  0  0  0  0
  186.1780  175.0400  136.4660 O   0  0  0  0  0  0  0  0  0  0  0  0
  184.8790  173.7490  137.8750 O   0  0  0  0  0  0  0  0  0  0  0  0
  186.8450  172.7740  137.1120 N   0  0  0  0  0  2  0  0  0  0  0  0
  185.9150  173.8550  137.1630 C   0  0  0  0  0  0  0  0  0  0  0  0
  188.9300  172.8440  135.5430 C   0  0  0  0  0  3  0  0  0  0  0  0
  187.9680  172.8090  136.2720 C   0  0  0  0  0  0  0  0  0  0  0  0
  187.5620  175.8070  138.1030 C   0  0  0  0  0  2  0  0  0  0  0  0
  188.9660  175.9590  137.5360 C   0  0  0  0  0  2  0  0  0  0  0  0
  189.3430  177.4280  137.4060 C   0  0  1  0  0  3  0  0  0  0  0  0
  188.3720  178.2130  138.0310 O   0  0  0  0  0  1  0  0  0  0  0  0
  190.6250  177.6470  138.0640 N   0  0  0  0  0  2  0  0  0  0  0  0
  192.0790  176.2240  139.3860 C   0  0  0  0  0  1  0  0  0  0  0  0
  191.3620  176.3880  138.0610 C   0  0  2  0  0  3  0  0  0  0  0  0
  192.3590  176.3550  136.9420 C   0  0  0  0  0  0  0  0  0  0  0  0
  192.0310  176.1150  135.6550 N   0  0  0  0  0  0  0  0  0  0  0  0
  194.1850  176.5110  135.8930 C   0  0  0  0  0  0  0  0  0  0  0  0
  193.6710  176.6060  137.1320 N   0  0  0  0  0  0  0  0  0  0  0  0
  193.1970  176.1970  134.9860 C   0  0  0  0  0  2  0  0  0  0  0  0
  196.6960  175.6850  135.9680 C   0  0  2  0  0  3  0  0  0  0  0  0
  196.0910  177.9090  135.1950 O   0  0  0  0  0  1  0  0  0  0  0  0
  195.6450  176.6460  135.5810 C   0  0  2  0  0  0  0  0  0  0  0  0
  196.0860  175.6210  134.6240 N   0  0  0  0  0  2  0  0  0  0  0  0
  195.1570  174.9320  137.6320 O   0  0  0  0  0  1  0  0  0  0  0  0
  196.2740  174.5180  136.9000 C   0  0  2  0  0  0  0  0  0  0  0  0
  198.5370  175.0710  137.5360 O   0  0  0  0  0  1  0  0  0  0  0  0
  197.4200  174.3080  137.8940 C   0  0  0  0  0  2  0  0  0  0  0  0
  195.9090  173.1950  136.1800 C   0  0  0  0  0  2  0  0  0  0  0  0
  194.5050  172.7140  136.3970 C   0  0  0  0  0  0  0  0  0  0  0  0
  193.6250  172.6440  135.3250 O   0  0  0  0  0  0  0  0  0  0  0  0
  194.1200  172.3670  137.5440 O   0  0  0  0  0  1  0  0  0  0  0  0
  1 35  1  6  0  0  0
  3  2  1  0  0  0  0
  3  1  1  0  0  0  0
  4  7  1  6  0  0  0
  4  1  1  0  0  0  0
  5  4  1  0  0  0  0
  5  6  1  0  0  0  0
  7  9  1  0  0  0  0
  9  8  1  6  0  0  0
 10 13  1  0  0  0  0
 11  9  1  6  0  0  0
 11 14  1  0  0  0  0
 12 11  1  0  0  0  0
 12 15  1  0  0  0  0
 13 18  1  1  0  0  0
 13 16  1  0  0  0  0
 14 13  1  0  0  0  0
 15 10  1  0  0  0  0
 17 16  1  0  0  0  0
 18 19  1  0  0  0  0
 19 20  1  0  0  0  0
 20 21  1  0  0  0  0
 21 22  1  0  0  0  0
 23 22  1  0  0  0  0
 23 24  1  0  0  0  0
 25 26  1  0  0  0  0
 25 24  1  0  0  0  0
 26 27  1  6  0  0  0
 26 29  1  0  0  0  0
 28 27  2  0  0  0  0
 29 32  1  0  0  0  0
 31 32  2  0  0  0  0
 32 30  2  0  0  0  0
 32 34  1  0  0  0  0
 34 33  1  0  0  0  0
 36 35  1  0  0  0  0
 36 43  1  0  0  0  0
 37 36  1  0  0  0  0
 37 40  1  0  0  0  0
 39 40  1  0  0  0  0
 40 38  2  0  0  0  0
 41 42  3  0  0  0  0
 42 39  1  0  0  0  0
 44 43  1  0  0  0  0
 45 44  1  0  0  0  0
 45 46  1  1  0  0  0
 45 47  1  0  0  0  0
 49 47  1  0  0  0  0
 49 48  1  1  0  0  0
 50 53  1  0  0  0  0
 50 49  1  0  0  0  0
 51 50  2  0  0  0  0
 52 53  2  0  0  0  0
 54 51  1  0  0  0  0
 54 52  1  0  0  0  0
 55 60  1  1  0  0  0
 57 56  1  6  0  0  0
 57 52  1  0  0  0  0
 57 55  1  0  0  0  0
 58 57  1  0  0  0  0
 58 55  1  0  0  0  0
 60 59  1  1  0  0  0
 60 62  1  0  0  0  0
 61 62  1  0  0  0  0
 63 64  1  0  0  0  0
 63 60  1  0  0  0  0
 64 66  1  0  0  0  0
 65 64  2  0  0  0  0
M  END
>  <MODEL>
2

>  <REMARK>
 VINA RESULT:      -4.2      3.454      9.177
  Name = 
  36 active torsions:
  status: ('A' for Active; 'I' for Inactive)
    1  A    between atoms: C_4  and  C_44
    2  A    between atoms: C_6  and  N_25
    3  A    between atoms: C_6  and  C_62
    4  A    between atoms: C_8  and  C_29
    5  A    between atoms: C_8  and  C_49
    6  A    between atoms: N_9  and  C_61
    7  A    between atoms: C_10  and  C_33
    8  A    between atoms: C_10  and  S_48
    9  A    between atoms: C_11  and  C_34
   10  A    between atoms: C_11  and  N_42
   11  A    between atoms: O_14  and  C_45
   12  A    between atoms: C_15  and  C_58
   13  A    between atoms: C_18  and  C_24
   14  A    between atoms: C_18  and  C_50
   15  A    between atoms: C_19  and  C_30
   16  A    between atoms: C_22  and  C_33
   17  A    between atoms: N_25  and  C_46
   18  A    between atoms: N_25  and  O_54
   19  A    between atoms: C_26  and  S_48
   20  A    between atoms: C_27  and  C_45
   21  A    between atoms: C_27  and  C_49
   22  A    between atoms: C_28  and  O_54
   23  A    between atoms: C_29  and  N_56
   24  A    between atoms: C_30  and  O_36
   25  A    between atoms: C_31  and  O_52
   26  A    between atoms: C_31  and  N_56
   27  A    between atoms: C_33  and  C_64
   28  A    between atoms: C_34  and  C_46
   29  A    between atoms: O_36  and  C_39
   30  A    between atoms: C_39  and  O_41
   31  A    between atoms: C_39  and  C_62
   32  A    between atoms: O_40  and  C_62
   33  A    between atoms: N_42  and  C_44
   34  A    between atoms: C_43  and  C_50
   35  A    between atoms: C_50  and  C_60
   36  A    between atoms: O_52  and  C_64
                            x       y       z     vdW  Elec       q    Type
                         _______ _______ _______ _____ _____    ______ ____

>  <TORSDO>
F 36

$$$$
=
 OpenBabel11042409553D

 66 68  0  0  1  0  0  0  0  0999 V2000
  185.3990  177.6970  137.0150 C   0  0  1  0  0  3  0  0  0  0  0  0
  186.7820  179.1940  136.1320 C   0  0  0  0  0  1  0  0  0  0  0  0
  186.1690  177.9670  135.8770 O   0  0  0  0  0  0  0  0  0  0  0  0
  183.9970  177.2380  136.6080 C   0  0  2  0  0  3  0  0  0  0  0  0
  184.0670  176.1170  135.7710 O   0  0  0  0  0  0  0  0  0  0  0  0
  183.7200  175.0290  136.5680 C   0  0  0  0  0  1  0  0  0  0  0  0
  183.3560  178.2740  135.9200 O   0  0  0  0  0  0  0  0  0  0  0  0
  181.0330  178.8130  135.9470 C   0  0  0  0  0  1  0  0  0  0  0  0
  182.3190  178.7200  136.7530 C   0  0  1  0  0  3  0  0  0  0  0  0
  180.9970  176.2270  140.0680 C   0  0  0  0  0  2  0  0  0  0  0  0
  182.1200  177.7840  137.9480 C   0  0  2  0  0  3  0  0  0  0  0  0
  181.1030  176.6890  137.5990 C   0  0  0  0  0  2  0  0  0  0  0  0
  181.6110  177.5920  140.4530 C   0  0  1  0  0  0  0  0  0  0  0  0
  181.7620  178.5420  139.2350 C   0  0  0  0  0  2  0  0  0  0  0  0
  180.1990  176.2920  138.7700 C   0  0  0  0  0  2  0  0  0  0  0  0
  180.8550  178.1950  141.4940 O   0  0  0  0  0  0  0  0  0  0  0  0
  180.2540  179.3820  141.0380 C   0  0  0  0  0  1  0  0  0  0  0  0
  183.0050  177.2750  141.0060 C   0  0  0  0  0  2  0  0  0  0  0  0
  183.8290  178.5230  141.3030 C   0  0  0  0  0  2  0  0  0  0  0  0
  185.2890  178.1670  141.5210 C   0  0  0  0  0  2  0  0  0  0  0  0
  186.1490  178.8310  140.4590 C   0  0  0  0  0  2  0  0  0  0  0  0
  187.4980  179.0210  140.9670 N   0  0  0  0  0  2  0  0  0  0  0  0
  187.8320  177.8430  141.7490 C   0  0  0  0  0  2  0  0  0  0  0  0
  187.8910  178.1860  143.0990 O   0  0  0  0  0  0  0  0  0  0  0  0
  187.8450  176.9650  143.7730 C   0  0  0  0  0  2  0  0  0  0  0  0
  187.8340  177.2030  145.2740 C   0  0  2  0  0  3  0  0  0  0  0  0
  186.6960  178.1070  145.6270 C   0  0  0  0  0  3  0  0  0  0  0  0
  185.8350  177.7410  146.4120 O   0  0  0  0  0  0  0  0  0  0  0  0
  189.1470  177.8430  145.6990 C   0  0  0  0  0  2  0  0  0  0  0  0
  190.0760  175.9410  144.0350 O   0  0  0  0  0  0  0  0  0  0  0  0
  190.9760  178.2070  143.7560 O   0  0  0  0  0  0  0  0  0  0  0  0
  190.5120  177.1860  144.7570 S   0  0  0  0  0  0  0  0  0  0  0  0
  191.2980  176.4850  147.2480 C   0  0  0  0  0  1  0  0  0  0  0  0
  191.8440  176.7940  145.8690 C   0  0  0  0  0  2  0  0  0  0  0  0
  186.0830  176.6440  137.8840 C   0  0  0  0  0  2  0  0  0  0  0  0
  187.3440  176.2260  137.2860 N   0  0  0  0  0  0  0  0  0  0  0  0
  187.1110  175.0430  136.6080 O   0  0  0  0  0  0  0  0  0  0  0  0
  188.8180  175.3850  135.0890 O   0  0  0  0  0  0  0  0  0  0  0  0
  187.6270  173.4040  134.8640 N   0  0  0  0  0  2  0  0  0  0  0  0
  187.8960  174.6410  135.5220 C   0  0  0  0  0  0  0  0  0  0  0  0
  185.8460  171.7320  135.7850 C   0  0  0  0  0  3  0  0  0  0  0  0
  186.6710  172.5020  135.3550 C   0  0  0  0  0  0  0  0  0  0  0  0
  188.2400  175.9040  138.3880 C   0  0  0  0  0  2  0  0  0  0  0  0
  189.6820  176.1880  137.9970 C   0  0  0  0  0  2  0  0  0  0  0  0
  189.9240  177.6850  137.8650 C   0  0  1  0  0  3  0  0  0  0  0  0
  188.8190  178.3780  138.3630 O   0  0  0  0  0  1  0  0  0  0  0  0
  191.1000  178.0440  138.6470 N   0  0  0  0  0  2  0  0  0  0  0  0
  192.7910  177.0770  140.0940 C   0  0  0  0  0  1  0  0  0  0  0  0
  191.8490  176.8250  138.9330 C   0  0  2  0  0  3  0  0  0  0  0  0
  192.6340  176.3840  137.7350 C   0  0  0  0  0  0  0  0  0  0  0  0
  192.1260  175.6100  136.7530 N   0  0  0  0  0  0  0  0  0  0  0  0
  194.2120  176.1930  136.3440 C   0  0  0  0  0  0  0  0  0  0  0  0
  193.9090  176.7670  137.5220 N   0  0  0  0  0  0  0  0  0  0  0  0
  193.1370  175.4710  135.8720 C   0  0  0  0  0  2  0  0  0  0  0  0
  196.6120  175.2340  135.7840 C   0  0  2  0  0  3  0  0  0  0  0  0
  195.9850  177.5270  135.2720 O   0  0  0  0  0  1  0  0  0  0  0  0
  195.5620  176.2680  135.6990 C   0  0  2  0  0  0  0  0  0  0  0  0
  195.6990  175.2770  134.6220 N   0  0  0  0  0  2  0  0  0  0  0  0
  195.0810  174.2130  137.3070 O   0  0  0  0  0  1  0  0  0  0  0  0
  196.3480  174.0400  136.7400 C   0  0  2  0  0  0  0  0  0  0  0  0
  196.9920  175.1170  138.8030 O   0  0  0  0  0  1  0  0  0  0  0  0
  197.3730  174.1450  137.8730 C   0  0  0  0  0  2  0  0  0  0  0  0
  196.3880  172.6400  136.0770 C   0  0  0  0  0  2  0  0  0  0  0  0
  197.5270  171.7620  136.5030 C   0  0  0  0  0  0  0  0  0  0  0  0
  198.8270  172.0930  136.1430 O   0  0  0  0  0  0  0  0  0  0  0  0
  197.3130  170.7300  137.1900 O   0  0  0  0  0  1  0  0  0  0  0  0
  1 35  1  6  0  0  0
  3  2  1  0  0  0  0
  3  1  1  0  0  0  0
  4  5  1  6  0  0  0
  4  1  1  0  0  0  0
  5  6  1  0  0  0  0
  7  4  1  0  0  0  0
  7  9  1  0  0  0  0
  9  8  1  6  0  0  0
 10 13  1  0  0  0  0
 11  9  1  6  0  0  0
 11 14  1  0  0  0  0
 12 11  1  0  0  0  0
 12 15  1  0  0  0  0
 13 18  1  1  0  0  0
 13 16  1  0  0  0  0
 14 13  1  0  0  0  0
 15 10  1  0  0  0  0
 17 16  1  0  0  0  0
 18 19  1  0  0  0  0
 19 20  1  0  0  0  0
 21 22  1  0  0  0  0
 21 20  1  0  0  0  0
 22 23  1  0  0  0  0
 23 24  1  0  0  0  0
 24 25  1  0  0  0  0
 26 25  1  6  0  0  0
 26 27  1  0  0  0  0
 26 29  1  0  0  0  0
 27 28  2  0  0  0  0
 30 32  2  0  0  0  0
 31 32  2  0  0  0  0
 32 29  1  0  0  0  0
 32 34  1  0  0  0  0
 34 33  1  0  0  0  0
 36 35  1  0  0  0  0
 36 43  1  0  0  0  0
 37 36  1  0  0  0  0
 38 40  2  0  0  0  0
 39 42  1  0  0  0  0
 39 40  1  0  0  0  0
 40 37  1  0  0  0  0
 42 41  3  0  0  0  0
 44 43  1  0  0  0  0
 45 44  1  0  0  0  0
 45 46  1  1  0  0  0
 45 47  1  0  0  0  0
 47 49  1  0  0  0  0
 49 48  1  1  0  0  0
 50 49  1  0  0  0  0
 51 50  2  0  0  0  0
 52 53  2  0  0  0  0
 53 50  1  0  0  0  0
 54 52  1  0  0  0  0
 54 51  1  0  0  0  0
 55 60  1  1  0  0  0
 57 56  1  6  0  0  0
 57 55  1  0  0  0  0
 57 52  1  0  0  0  0
 58 57  1  0  0  0  0
 58 55  1  0  0  0  0
 60 59  1  1  0  0  0
 60 62  1  0  0  0  0
 62 61  1  0  0  0  0
 63 64  1  0  0  0  0
 63 60  1  0  0  0  0
 64 66  1  0  0  0  0
 65 64  2  0  0  0  0
M  END
>  <MODEL>
3

>  <REMARK>
 VINA RESULT:      -4.1      3.601      9.249
  Name = 
  36 active torsions:
  status: ('A' for Active; 'I' for Inactive)
    1  A    between atoms: C_4  and  C_44
    2  A    between atoms: C_6  and  N_25
    3  A    between atoms: C_6  and  C_62
    4  A    between atoms: C_8  and  C_29
    5  A    between atoms: C_8  and  C_49
    6  A    between atoms: N_9  and  C_61
    7  A    between atoms: C_10  and  C_33
    8  A    between atoms: C_10  and  S_48
    9  A    between atoms: C_11  and  C_34
   10  A    between atoms: C_11  and  N_42
   11  A    between atoms: O_14  and  C_45
   12  A    between atoms: C_15  and  C_58
   13  A    between atoms: C_18  and  C_24
   14  A    between atoms: C_18  and  C_50
   15  A    between atoms: C_19  and  C_30
   16  A    between atoms: C_22  and  C_33
   17  A    between atoms: N_25  and  C_46
   18  A    between atoms: N_25  and  O_54
   19  A    between atoms: C_26  and  S_48
   20  A    between atoms: C_27  and  C_45
   21  A    between atoms: C_27  and  C_49
   22  A    between atoms: C_28  and  O_54
   23  A    between atoms: C_29  and  N_56
   24  A    between atoms: C_30  and  O_36
   25  A    between atoms: C_31  and  O_52
   26  A    between atoms: C_31  and  N_56
   27  A    between atoms: C_33  and  C_64
   28  A    between atoms: C_34  and  C_46
   29  A    between atoms: O_36  and  C_39
   30  A    between atoms: C_39  and  O_41
   31  A    between atoms: C_39  and  C_62
   32  A    between atoms: O_40  and  C_62
   33  A    between atoms: N_42  and  C_44
   34  A    between atoms: C_43  and  C_50
   35  A    between atoms: C_50  and  C_60
   36  A    between atoms: O_52  and  C_64
                            x       y       z     vdW  Elec       q    Type
                         _______ _______ _______ _____ _____    ______ ____

>  <TORSDO>
F 36

$$$$
