=
 OpenBabel11042411193D

 48 54  0  0  1  0  0  0  0  0999 V2000
  188.2770  176.1830  143.5910 C   0  0  0  0  0  2  0  0  0  0  0  0
  186.0380  178.0040  144.3340 C   0  0  0  0  0  0  0  0  0  0  0  0
  185.6350  178.5750  147.0230 C   0  0  0  0  0  3  0  0  0  0  0  0
  186.0070  177.9150  142.8680 C   0  0  0  0  0  0  0  0  0  0  0  0
  187.0000  177.5730  145.2620 C   0  0  0  0  0  0  0  0  0  0  0  0
  186.7970  177.8880  146.6150 C   0  0  0  0  0  3  0  0  0  0  0  0
  188.1630  176.8360  144.8800 N   0  0  0  0  0  2  0  0  0  0  0  0
  187.1150  177.8740  142.1030 C   0  0  2  0  0  3  0  0  0  0  0  0
  188.2930  177.1810  142.5350 N   0  0  0  0  0  2  0  0  0  0  0  0
  184.6720  178.4340  142.4750 C   0  0  0  0  0  0  0  0  0  0  0  0
  184.9080  178.6820  144.7380 C   0  0  1  0  0  3  0  0  0  0  0  0
  184.0650  178.9230  143.5660 C   0  0  0  0  0  0  0  0  0  0  0  0
  184.6710  178.9660  146.0800 C   0  0  0  0  0  3  0  0  0  0  0  0
  184.0980  178.7930  140.0340 C   0  0  0  0  0  0  0  0  0  0  0  0
  184.3100  179.5690  138.8880 C   0  0  2  0  0  0  0  0  0  0  0  0
  183.5930  180.7620  138.8030 O   0  0  0  0  0  1  0  0  0  0  0  0
  182.8140  177.2780  138.4790 C   0  0  0  0  0  3  0  0  0  0  0  0
  183.9630  178.1170  141.2080 C   0  0  0  0  0  0  0  0  0  0  0  0
  183.1760  176.9320  140.9910 C   0  0  0  0  0  3  0  0  0  0  0  0
  183.5550  178.3960  138.7330 C   0  0  0  0  0  0  0  0  0  0  0  0
  181.8750  175.3560  139.6230 O   0  0  0  0  0  1  0  0  0  0  0  0
  182.6170  176.5310  139.6940 C   0  0  0  0  0  0  0  0  0  0  0  0
  185.6340  179.5350  138.2930 N   0  0  0  0  0  0  0  0  0  0  0  0
  185.9310  178.5960  137.4850 N   0  0  0  0  0  0  0  0  0  0  0  0
  187.2060  178.5420  136.9080 N   0  0  0  0  0  2  0  0  0  0  0  0
  186.8040  176.2540  136.2200 C   0  0  0  0  0  1  0  0  0  0  0  0
  187.5090  177.5530  135.8880 C   0  0  2  0  0  3  0  0  0  0  0  0
  188.9450  177.3290  135.8170 N   0  0  0  0  0  2  0  0  0  0  0  0
  189.3060  176.5120  136.9640 C   0  0  0  0  0  2  0  0  0  0  0  0
  190.4390  177.1680  137.7310 C   0  0  0  0  0  2  0  0  0  0  0  0
  191.3600  176.0880  138.2530 C   0  0  0  0  0  2  0  0  0  0  0  0
  190.8910  174.7820  137.8090 N   0  0  0  0  0  2  0  0  0  0  0  0
  193.2630  174.0260  137.5130 C   0  0  0  0  0  2  0  0  0  0  0  0
  192.9990  175.1850  136.5480 C   0  0  0  0  0  2  0  0  0  0  0  0
  191.4680  173.2720  135.8060 C   0  0  0  0  0  1  0  0  0  0  0  0
  191.8930  174.2220  136.9090 C   0  0  0  0  0  0  0  0  0  0  0  0
  187.1360  178.5600  140.8020 C   0  0  0  0  0  3  0  0  0  0  0  0
  188.2430  178.6790  140.0780 C   0  0  0  0  0  2  0  0  0  0  0  0
  182.7990  179.5140  143.5640 O   0  0  0  0  0  0  0  0  0  0  0  0
  181.6230  178.8150  143.9350 C   0  0  0  0  0  2  0  0  0  0  0  0
  180.4300  179.4230  143.2220 C   0  0  0  0  0  2  0  0  0  0  0  0
  180.2720  178.8540  141.8180 C   0  0  0  0  0  2  0  0  0  0  0  0
  179.0500  179.4620  141.1090 C   0  0  1  0  0  3  0  0  0  0  0  0
  179.9210  179.8440  138.9690 C   0  0  0  0  0  2  0  0  0  0  0  0
  179.8480  181.2780  139.4580 C   0  0  0  0  0  2  0  0  0  0  0  0
  179.1910  177.6520  139.4960 C   0  0  0  0  0  1  0  0  0  0  0  0
  179.1800  181.2730  141.1510 S   0  0  0  0  0  0  0  0  0  0  0  0
  178.9310  179.0720  139.6990 N   0  0  0  0  0  0  0  0  0  0  0  0
  1  7  1  0  0  0  0
  2 11  1  0  0  0  0
  2  5  1  0  0  0  0
  4  2  2  0  0  0  0
  5  6  2  0  0  0  0
  6  3  1  0  0  0  0
  7  5  1  0  0  0  0
  8 37  1  1  0  0  0
  8  9  1  0  0  0  0
  8  4  1  0  0  0  0
  9  1  1  0  0  0  0
 10  4  1  0  0  0  0
 10 12  2  0  0  0  0
 11 13  1  1  0  0  0
 12 11  1  0  0  0  0
 13  3  2  0  0  0  0
 14 18  1  0  0  0  0
 15 16  1  6  0  0  0
 15 14  1  0  0  0  0
 17 20  1  0  0  0  0
 17 22  2  0  0  0  0
 18 10  1  0  0  0  0
 19 18  2  0  0  0  0
 20 15  1  0  0  0  0
 20 14  2  0  0  0  0
 21 22  1  0  0  0  0
 22 19  1  0  0  0  0
 23 15  1  0  0  0  0
 24 23  2  0  0  0  0
 25 24  1  0  0  0  0
 27 26  1  1  0  0  0
 27 25  1  0  0  0  0
 28 27  1  0  0  0  0
 28 29  1  0  0  0  0
 29 30  1  0  0  0  0
 30 31  1  0  0  0  0
 32 31  1  0  0  0  0
 34 36  1  0  0  0  0
 34 33  1  0  0  0  0
 35 36  1  0  0  0  0
 36 33  1  0  0  0  0
 36 32  1  0  0  0  0
 38 37  2  0  0  0  0
 39 12  1  0  0  0  0
 39 40  1  0  0  0  0
 41 40  1  0  0  0  0
 42 41  1  0  0  0  0
 43 47  1  0  0  0  0
 43 42  1  6  0  0  0
 44 45  1  0  0  0  0
 44 48  1  0  0  0  0
 45 47  1  0  0  0  0
 46 48  1  0  0  0  0
 48 43  1  0  0  0  0
M  END
>  <MODEL>
1

>  <REMARK>
 VINA RESULT:      -7.1      0.000      0.000
  Name = 
  16 active torsions:
  status: ('A' for Active; 'I' for Inactive)
    1  A    between atoms: C_6  and  C_13
    2  A    between atoms: C_6  and  C_16
    3  A    between atoms: N_7  and  C_41
    4  A    between atoms: N_7  and  N_44
    5  A    between atoms: C_9  and  C_33
    6  A    between atoms: C_9  and  C_35
    7  A    between atoms: C_12  and  N_28
    8  A    between atoms: C_16  and  C_36
    9  A    between atoms: C_20  and  C_34
   10  A    between atoms: N_22  and  C_24
   11  A    between atoms: N_22  and  C_35
   12  A    between atoms: C_25  and  C_27
   13  A    between atoms: C_33  and  N_40
   14  A    between atoms: C_36  and  O_42
   15  A    between atoms: C_39  and  O_42
   16  A    between atoms: N_40  and  C_41
                            x       y       z     vdW  Elec       q    Type
                         _______ _______ _______ _____ _____    ______ ____

>  <TORSDO>
F 16

$$$$
=
 OpenBabel11042411193D

 48 54  0  0  1  0  0  0  0  0999 V2000
  188.2840  176.1680  143.5890 C   0  0  0  0  0  2  0  0  0  0  0  0
  186.0560  178.0010  144.3330 C   0  0  0  0  0  0  0  0  0  0  0  0
  185.6510  178.5660  147.0230 C   0  0  0  0  0  3  0  0  0  0  0  0
  186.0280  177.9180  142.8670 C   0  0  0  0  0  0  0  0  0  0  0  0
  187.0130  177.5610  145.2620 C   0  0  0  0  0  0  0  0  0  0  0  0
  186.8090  177.8730  146.6150 C   0  0  0  0  0  3  0  0  0  0  0  0
  188.1720  176.8180  144.8800 N   0  0  0  0  0  2  0  0  0  0  0  0
  187.1360  177.8720  142.1050 C   0  0  2  0  0  3  0  0  0  0  0  0
  188.3090  177.1700  142.5360 N   0  0  0  0  0  2  0  0  0  0  0  0
  184.6960  178.4470  142.4740 C   0  0  0  0  0  0  0  0  0  0  0  0
  184.9300  178.6860  144.7380 C   0  0  1  0  0  3  0  0  0  0  0  0
  184.0900  178.9360  143.5650 C   0  0  0  0  0  0  0  0  0  0  0  0
  184.6920  178.9670  146.0800 C   0  0  0  0  0  3  0  0  0  0  0  0
  184.1040  178.8380  140.0420 C   0  0  0  0  0  0  0  0  0  0  0  0
  184.2940  179.6390  138.9090 C   0  0  2  0  0  0  0  0  0  0  0  0
  183.5530  180.8190  138.8490 O   0  0  0  0  0  1  0  0  0  0  0  0
  182.8430  177.3270  138.4650 C   0  0  0  0  0  3  0  0  0  0  0  0
  183.9870  178.1380  141.2040 C   0  0  0  0  0  0  0  0  0  0  0  0
  183.2240  176.9420  140.9690 C   0  0  0  0  0  3  0  0  0  0  0  0
  183.5620  178.4540  138.7360 C   0  0  0  0  0  0  0  0  0  0  0  0
  181.9480  175.3660  139.5790 O   0  0  0  0  0  1  0  0  0  0  0  0
  182.6660  176.5530  139.6670 C   0  0  0  0  0  0  0  0  0  0  0  0
  185.6160  179.6420  138.3080 N   0  0  0  0  0  0  0  0  0  0  0  0
  185.8540  178.8730  137.3210 N   0  0  0  0  0  0  0  0  0  0  0  0
  187.1260  178.8570  136.7340 N   0  0  0  0  0  2  0  0  0  0  0  0
  186.3070  177.2400  135.1250 C   0  0  0  0  0  1  0  0  0  0  0  0
  187.5210  177.7580  135.8700 C   0  0  2  0  0  3  0  0  0  0  0  0
  188.1080  176.6850  136.6590 N   0  0  0  0  0  2  0  0  0  0  0  0
  187.2030  175.5510  136.5770 C   0  0  0  0  0  2  0  0  0  0  0  0
  187.9600  174.3150  136.1310 C   0  0  0  0  0  2  0  0  0  0  0  0
  187.4150  173.1170  136.8770 C   0  0  0  0  0  2  0  0  0  0  0  0
  186.5720  172.3250  135.9920 N   0  0  0  0  0  2  0  0  0  0  0  0
  184.2740  171.3220  135.9740 C   0  0  0  0  0  2  0  0  0  0  0  0
  184.1860  172.7470  135.4220 C   0  0  0  0  0  2  0  0  0  0  0  0
  184.9260  172.9700  137.8620 C   0  0  0  0  0  1  0  0  0  0  0  0
  185.2020  172.4000  136.4840 C   0  0  0  0  0  0  0  0  0  0  0  0
  187.1640  178.5620  140.8060 C   0  0  0  0  0  3  0  0  0  0  0  0
  188.1740  178.4330  139.9530 C   0  0  0  0  0  2  0  0  0  0  0  0
  182.8290  179.5350  143.5630 O   0  0  0  0  0  0  0  0  0  0  0  0
  181.6290  178.8030  143.7460 C   0  0  0  0  0  2  0  0  0  0  0  0
  180.5080  179.4710  142.9720 C   0  0  0  0  0  2  0  0  0  0  0  0
  180.0440  178.6060  141.8080 C   0  0  0  0  0  2  0  0  0  0  0  0
  178.9310  179.3040  141.0080 C   0  0  1  0  0  3  0  0  0  0  0  0
  180.0400  179.7510  138.9940 C   0  0  0  0  0  2  0  0  0  0  0  0
  179.9740  181.1610  139.5500 C   0  0  0  0  0  2  0  0  0  0  0  0
  179.1700  177.5710  139.3230 C   0  0  0  0  0  1  0  0  0  0  0  0
  179.1280  181.1020  141.1610 S   0  0  0  0  0  0  0  0  0  0  0  0
  178.9470  178.9890  139.5740 N   0  0  0  0  0  0  0  0  0  0  0  0
  1  7  1  0  0  0  0
  2 11  1  0  0  0  0
  2  5  1  0  0  0  0
  4  2  2  0  0  0  0
  5  6  2  0  0  0  0
  6  3  1  0  0  0  0
  7  5  1  0  0  0  0
  8 37  1  1  0  0  0
  8  9  1  0  0  0  0
  8  4  1  0  0  0  0
  9  1  1  0  0  0  0
 10  4  1  0  0  0  0
 10 12  2  0  0  0  0
 11 13  1  1  0  0  0
 12 11  1  0  0  0  0
 13  3  2  0  0  0  0
 14 18  1  0  0  0  0
 15 16  1  6  0  0  0
 15 14  1  0  0  0  0
 17 20  1  0  0  0  0
 17 22  2  0  0  0  0
 18 10  1  0  0  0  0
 19 18  2  0  0  0  0
 20 15  1  0  0  0  0
 20 14  2  0  0  0  0
 21 22  1  0  0  0  0
 22 19  1  0  0  0  0
 23 15  1  0  0  0  0
 24 23  2  0  0  0  0
 25 24  1  0  0  0  0
 27 26  1  1  0  0  0
 27 28  1  0  0  0  0
 27 25  1  0  0  0  0
 29 28  1  0  0  0  0
 30 29  1  0  0  0  0
 30 31  1  0  0  0  0
 32 36  1  0  0  0  0
 32 31  1  0  0  0  0
 33 36  1  0  0  0  0
 34 33  1  0  0  0  0
 34 36  1  0  0  0  0
 36 35  1  0  0  0  0
 38 37  2  0  0  0  0
 39 12  1  0  0  0  0
 39 40  1  0  0  0  0
 41 40  1  0  0  0  0
 42 41  1  0  0  0  0
 43 47  1  0  0  0  0
 43 42  1  1  0  0  0
 44 45  1  0  0  0  0
 44 48  1  0  0  0  0
 45 47  1  0  0  0  0
 46 48  1  0  0  0  0
 48 43  1  0  0  0  0
M  END
>  <MODEL>
2

>  <REMARK>
 VINA RESULT:      -7.1      1.695      2.710
  Name = 
  16 active torsions:
  status: ('A' for Active; 'I' for Inactive)
    1  A    between atoms: C_6  and  C_13
    2  A    between atoms: C_6  and  C_16
    3  A    between atoms: N_7  and  C_41
    4  A    between atoms: N_7  and  N_44
    5  A    between atoms: C_9  and  C_33
    6  A    between atoms: C_9  and  C_35
    7  A    between atoms: C_12  and  N_28
    8  A    between atoms: C_16  and  C_36
    9  A    between atoms: C_20  and  C_34
   10  A    between atoms: N_22  and  C_24
   11  A    between atoms: N_22  and  C_35
   12  A    between atoms: C_25  and  C_27
   13  A    between atoms: C_33  and  N_40
   14  A    between atoms: C_36  and  O_42
   15  A    between atoms: C_39  and  O_42
   16  A    between atoms: N_40  and  C_41
                            x       y       z     vdW  Elec       q    Type
                         _______ _______ _______ _____ _____    ______ ____

>  <TORSDO>
F 16

$$$$
=
 OpenBabel11042411193D

 48 54  0  0  1  0  0  0  0  0999 V2000
  180.7990  179.1030  141.4050 C   0  0  0  0  0  2  0  0  0  0  0  0
  183.6160  178.6480  142.2640 C   0  0  0  0  0  0  0  0  0  0  0  0
  184.3480  179.3860  144.8400 C   0  0  0  0  0  3  0  0  0  0  0  0
  183.5360  178.1460  140.8860 C   0  0  0  0  0  0  0  0  0  0  0  0
  182.6100  179.0470  143.1580 C   0  0  0  0  0  0  0  0  0  0  0  0
  182.9890  179.3950  144.4640 C   0  0  0  0  0  3  0  0  0  0  0  0
  181.2300  179.1080  142.7890 N   0  0  0  0  0  2  0  0  0  0  0  0
  182.4690  177.4840  140.3980 C   0  0  2  0  0  3  0  0  0  0  0  0
  181.1350  177.8290  140.7910 N   0  0  0  0  0  2  0  0  0  0  0  0
  184.9460  178.0190  140.4360 C   0  0  0  0  0  0  0  0  0  0  0  0
  184.9420  178.6340  142.6400 C   0  0  1  0  0  3  0  0  0  0  0  0
  185.7520  178.2580  141.4800 C   0  0  0  0  0  0  0  0  0  0  0  0
  185.3400  179.0160  143.9180 C   0  0  0  0  0  3  0  0  0  0  0  0
  186.7000  178.0200  138.6080 C   0  0  0  0  0  0  0  0  0  0  0  0
  188.0670  178.0210  138.3040 C   0  0  2  0  0  0  0  0  0  0  0  0
  188.7160  179.2540  138.3540 O   0  0  0  0  0  1  0  0  0  0  0  0
  186.3930  177.6730  136.1290 C   0  0  0  0  0  3  0  0  0  0  0  0
  185.4030  178.0300  139.0210 C   0  0  0  0  0  0  0  0  0  0  0  0
  184.5370  177.8580  137.8850 C   0  0  0  0  0  3  0  0  0  0  0  0
  187.1750  177.8490  137.2330 C   0  0  0  0  0  0  0  0  0  0  0  0
  184.0550  177.5370  135.4960 O   0  0  0  0  0  1  0  0  0  0  0  0
  185.0020  177.6970  136.5010 C   0  0  0  0  0  0  0  0  0  0  0  0
  188.8330  176.8410  138.6650 N   0  0  0  0  0  0  0  0  0  0  0  0
  189.9650  176.6400  138.1190 N   0  0  0  0  0  0  0  0  0  0  0  0
  190.7140  175.5040  138.4500 N   0  0  0  0  0  2  0  0  0  0  0  0
  192.4720  174.3370  137.2590 C   0  0  0  0  0  1  0  0  0  0  0  0
  190.9770  174.4820  137.4510 C   0  0  2  0  0  3  0  0  0  0  0  0
  190.3510  174.8420  136.1880 N   0  0  0  0  0  2  0  0  0  0  0  0
  189.6220  173.6740  135.7240 C   0  0  0  0  0  2  0  0  0  0  0  0
  188.8010  173.0910  136.8590 C   0  0  0  0  0  2  0  0  0  0  0  0
  187.4210  172.7570  136.3360 C   0  0  0  0  0  2  0  0  0  0  0  0
  186.7530  173.9730  135.8940 N   0  0  0  0  0  2  0  0  0  0  0  0
  184.8640  174.1040  137.5380 C   0  0  0  0  0  2  0  0  0  0  0  0
  184.9740  172.6610  137.0380 C   0  0  0  0  0  2  0  0  0  0  0  0
  184.3420  174.0790  135.0020 C   0  0  0  0  0  1  0  0  0  0  0  0
  185.3220  173.8150  136.1280 C   0  0  0  0  0  0  0  0  0  0  0  0
  182.6630  176.3750  139.4510 C   0  0  0  0  0  3  0  0  0  0  0  0
  181.7810  175.3910  139.3180 C   0  0  0  0  0  2  0  0  0  0  0  0
  187.1460  178.2030  141.4270 O   0  0  0  0  0  0  0  0  0  0  0  0
  187.9570  178.1010  142.5850 C   0  0  0  0  0  2  0  0  0  0  0  0
  188.0310  176.6500  143.0220 C   0  0  0  0  0  2  0  0  0  0  0  0
  189.2520  176.3950  143.8970 C   0  0  0  0  0  2  0  0  0  0  0  0
  189.5740  177.6200  144.7690 C   0  0  1  0  0  3  0  0  0  0  0  0
  191.5620  176.9280  145.7950 C   0  0  0  0  0  2  0  0  0  0  0  0
  190.6290  176.8270  146.9870 C   0  0  0  0  0  2  0  0  0  0  0  0
  191.6920  177.7950  143.5940 C   0  0  0  0  0  1  0  0  0  0  0  0
  188.9620  177.3280  146.4530 S   0  0  0  0  0  0  0  0  0  0  0  0
  191.0090  177.9080  144.8760 N   0  0  0  0  0  0  0  0  0  0  0  0
  1  7  1  0  0  0  0
  2 11  1  0  0  0  0
  2  5  1  0  0  0  0
  4  2  2  0  0  0  0
  5  6  2  0  0  0  0
  6  3  1  0  0  0  0
  7  5  1  0  0  0  0
  8 37  1  1  0  0  0
  8  9  1  0  0  0  0
  8  4  1  0  0  0  0
  9  1  1  0  0  0  0
 10  4  1  0  0  0  0
 10 12  2  0  0  0  0
 11 13  1  6  0  0  0
 12 11  1  0  0  0  0
 13  3  2  0  0  0  0
 14 18  1  0  0  0  0
 15 16  1  1  0  0  0
 15 14  1  0  0  0  0
 15 23  1  0  0  0  0
 17 22  2  0  0  0  0
 17 20  1  0  0  0  0
 18 10  1  0  0  0  0
 19 18  2  0  0  0  0
 20 15  1  0  0  0  0
 20 14  2  0  0  0  0
 21 22  1  0  0  0  0
 22 19  1  0  0  0  0
 24 25  1  0  0  0  0
 24 23  2  0  0  0  0
 27 26  1  6  0  0  0
 27 25  1  0  0  0  0
 28 27  1  0  0  0  0
 29 28  1  0  0  0  0
 29 30  1  0  0  0  0
 31 30  1  0  0  0  0
 32 36  1  0  0  0  0
 32 31  1  0  0  0  0
 34 33  1  0  0  0  0
 35 36  1  0  0  0  0
 36 34  1  0  0  0  0
 36 33  1  0  0  0  0
 38 37  2  0  0  0  0
 39 12  1  0  0  0  0
 39 40  1  0  0  0  0
 40 41  1  0  0  0  0
 41 42  1  0  0  0  0
 43 42  1  6  0  0  0
 43 48  1  0  0  0  0
 43 47  1  0  0  0  0
 44 45  1  0  0  0  0
 46 48  1  0  0  0  0
 47 45  1  0  0  0  0
 48 44  1  0  0  0  0
M  END
>  <MODEL>
3

>  <REMARK>
 VINA RESULT:      -6.9      3.043      6.780
  Name = 
  16 active torsions:
  status: ('A' for Active; 'I' for Inactive)
    1  A    between atoms: C_6  and  C_13
    2  A    between atoms: C_6  and  C_16
    3  A    between atoms: N_7  and  C_41
    4  A    between atoms: N_7  and  N_44
    5  A    between atoms: C_9  and  C_33
    6  A    between atoms: C_9  and  C_35
    7  A    between atoms: C_12  and  N_28
    8  A    between atoms: C_16  and  C_36
    9  A    between atoms: C_20  and  C_34
   10  A    between atoms: N_22  and  C_24
   11  A    between atoms: N_22  and  C_35
   12  A    between atoms: C_25  and  C_27
   13  A    between atoms: C_33  and  N_40
   14  A    between atoms: C_36  and  O_42
   15  A    between atoms: C_39  and  O_42
   16  A    between atoms: N_40  and  C_41
                            x       y       z     vdW  Elec       q    Type
                         _______ _______ _______ _____ _____    ______ ____

>  <TORSDO>
F 16

$$$$
=
 OpenBabel11042411193D

 48 54  0  0  1  0  0  0  0  0999 V2000
  181.1040  179.2070  143.7120 C   0  0  0  0  0  2  0  0  0  0  0  0
  183.5010  178.6990  142.0170 C   0  0  0  0  0  0  0  0  0  0  0  0
  185.9580  178.3580  143.2680 C   0  0  0  0  0  3  0  0  0  0  0  0
  182.3730  178.8120  141.0840 C   0  0  0  0  0  0  0  0  0  0  0  0
  183.5310  178.5920  143.4160 C   0  0  0  0  0  0  0  0  0  0  0  0
  184.7760  178.3970  144.0360 C   0  0  0  0  0  3  0  0  0  0  0  0
  182.3530  178.6730  144.2210 N   0  0  0  0  0  2  0  0  0  0  0  0
  181.1460  178.3190  141.3380 C   0  0  2  0  0  3  0  0  0  0  0  0
  180.5940  178.3430  142.6610 N   0  0  0  0  0  2  0  0  0  0  0  0
  182.9920  179.0170  139.7480 C   0  0  0  0  0  0  0  0  0  0  0  0
  184.6600  178.6520  141.2710 C   0  0  1  0  0  3  0  0  0  0  0  0
  184.3190  178.8710  139.8650 C   0  0  0  0  0  0  0  0  0  0  0  0
  185.9070  178.5010  141.8730 C   0  0  0  0  0  3  0  0  0  0  0  0
  181.8720  179.0100  137.4760 C   0  0  0  0  0  0  0  0  0  0  0  0
  181.4500  178.2390  136.3860 C   0  0  2  0  0  0  0  0  0  0  0  0
  182.4250  177.9040  135.4460 O   0  0  0  0  0  1  0  0  0  0  0  0
  180.6320  180.8800  136.3250 C   0  0  0  0  0  3  0  0  0  0  0  0
  182.3310  179.6590  138.5820 C   0  0  0  0  0  0  0  0  0  0  0  0
  181.9100  181.0330  138.5400 C   0  0  0  0  0  3  0  0  0  0  0  0
  181.0620  179.5880  136.4010 C   0  0  0  0  0  0  0  0  0  0  0  0
  180.7680  182.9710  137.5480 O   0  0  0  0  0  1  0  0  0  0  0  0
  181.1080  181.6260  137.4610 C   0  0  0  0  0  0  0  0  0  0  0  0
  180.3810  177.2850  136.6170 N   0  0  0  0  0  0  0  0  0  0  0  0
  180.4940  176.0990  136.1660 N   0  0  0  0  0  0  0  0  0  0  0  0
  179.4680  175.1680  136.3720 N   0  0  0  0  0  2  0  0  0  0  0  0
  179.7550  173.5870  138.1860 C   0  0  0  0  0  1  0  0  0  0  0  0
  179.7840  173.7850  136.6840 C   0  0  2  0  0  3  0  0  0  0  0  0
  181.1010  173.4420  136.1680 N   0  0  0  0  0  2  0  0  0  0  0  0
  181.7710  172.6630  137.1960 C   0  0  0  0  0  2  0  0  0  0  0  0
  182.3620  171.4040  136.5890 C   0  0  0  0  0  2  0  0  0  0  0  0
  183.8380  171.6290  136.3470 C   0  0  0  0  0  2  0  0  0  0  0  0
  184.3670  172.5480  137.3450 N   0  0  0  0  0  2  0  0  0  0  0  0
  184.7550  174.7720  136.2540 C   0  0  0  0  0  2  0  0  0  0  0  0
  185.0200  173.6730  135.2220 C   0  0  0  0  0  2  0  0  0  0  0  0
  186.7860  173.3780  137.0520 C   0  0  0  0  0  1  0  0  0  0  0  0
  185.3160  173.4380  136.6840 C   0  0  0  0  0  0  0  0  0  0  0  0
  180.3510  177.7290  140.2510 C   0  0  0  0  0  3  0  0  0  0  0  0
  179.1570  178.1990  139.9070 C   0  0  0  0  0  2  0  0  0  0  0  0
  185.2180  178.9730  138.8010 O   0  0  0  0  0  0  0  0  0  0  0  0
  185.4960  177.8960  137.9230 C   0  0  0  0  0  2  0  0  0  0  0  0
  186.6880  178.2490  137.0530 C   0  0  0  0  0  2  0  0  0  0  0  0
  187.8210  177.2460  137.2290 C   0  0  0  0  0  2  0  0  0  0  0  0
  189.1300  177.9530  137.6220 C   0  0  1  0  0  3  0  0  0  0  0  0
  190.3710  176.1560  138.4680 C   0  0  0  0  0  2  0  0  0  0  0  0
  190.0630  176.8710  139.7710 C   0  0  0  0  0  2  0  0  0  0  0  0
  190.2980  176.4460  136.1180 C   0  0  0  0  0  1  0  0  0  0  0  0
  189.0800  178.3540  139.3920 S   0  0  0  0  0  0  0  0  0  0  0  0
  190.3310  177.1390  137.3990 N   0  0  0  0  0  0  0  0  0  0  0  0
  1  7  1  0  0  0  0
  2  5  1  0  0  0  0
  3  6  1  0  0  0  0
  4  8  1  0  0  0  0
  4  2  2  0  0  0  0
  5  6  2  0  0  0  0
  5  7  1  0  0  0  0
  8 37  1  1  0  0  0
  8  9  1  0  0  0  0
  9  1  1  0  0  0  0
 10 12  2  0  0  0  0
 10  4  1  0  0  0  0
 11 13  1  1  0  0  0
 11  2  1  0  0  0  0
 12 11  1  0  0  0  0
 13  3  2  0  0  0  0
 14 18  1  0  0  0  0
 15 16  1  6  0  0  0
 15 20  1  0  0  0  0
 15 23  1  0  0  0  0
 15 14  1  0  0  0  0
 17 20  1  0  0  0  0
 17 22  2  0  0  0  0
 18 10  1  0  0  0  0
 19 18  2  0  0  0  0
 20 14  2  0  0  0  0
 22 21  1  0  0  0  0
 22 19  1  0  0  0  0
 24 25  1  0  0  0  0
 24 23  2  0  0  0  0
 25 27  1  0  0  0  0
 27 26  1  1  0  0  0
 28 27  1  0  0  0  0
 28 29  1  0  0  0  0
 30 29  1  0  0  0  0
 31 30  1  0  0  0  0
 31 32  1  0  0  0  0
 33 36  1  0  0  0  0
 34 33  1  0  0  0  0
 34 36  1  0  0  0  0
 36 35  1  0  0  0  0
 36 32  1  0  0  0  0
 38 37  2  0  0  0  0
 39 12  1  0  0  0  0
 40 39  1  0  0  0  0
 41 42  1  0  0  0  0
 41 40  1  0  0  0  0
 43 42  1  1  0  0  0
 43 47  1  0  0  0  0
 44 45  1  0  0  0  0
 46 48  1  0  0  0  0
 47 45  1  0  0  0  0
 48 43  1  0  0  0  0
 48 44  1  0  0  0  0
M  END
>  <MODEL>
4

>  <REMARK>
 VINA RESULT:      -6.9      3.516      7.249
  Name = 
  16 active torsions:
  status: ('A' for Active; 'I' for Inactive)
    1  A    between atoms: C_6  and  C_13
    2  A    between atoms: C_6  and  C_16
    3  A    between atoms: N_7  and  C_41
    4  A    between atoms: N_7  and  N_44
    5  A    between atoms: C_9  and  C_33
    6  A    between atoms: C_9  and  C_35
    7  A    between atoms: C_12  and  N_28
    8  A    between atoms: C_16  and  C_36
    9  A    between atoms: C_20  and  C_34
   10  A    between atoms: N_22  and  C_24
   11  A    between atoms: N_22  and  C_35
   12  A    between atoms: C_25  and  C_27
   13  A    between atoms: C_33  and  N_40
   14  A    between atoms: C_36  and  O_42
   15  A    between atoms: C_39  and  O_42
   16  A    between atoms: N_40  and  C_41
                            x       y       z     vdW  Elec       q    Type
                         _______ _______ _______ _____ _____    ______ ____

>  <TORSDO>
F 16

$$$$
=
 OpenBabel11042411193D

 48 54  0  0  1  0  0  0  0  0999 V2000
  182.2220  178.3410  142.8620 C   0  0  0  0  0  2  0  0  0  0  0  0
  181.4940  179.1320  140.0830 C   0  0  0  0  0  0  0  0  0  0  0  0
  179.0130  180.3040  139.6490 C   0  0  0  0  0  3  0  0  0  0  0  0
  182.8490  178.5710  139.9940 C   0  0  2  0  0  3  0  0  0  0  0  0
  180.7180  179.4900  141.1970 C   0  0  0  0  0  0  0  0  0  0  0  0
  179.4760  180.1020  140.9650 C   0  0  0  0  0  3  0  0  0  0  0  0
  181.1450  179.2560  142.5410 N   0  0  0  0  0  2  0  0  0  0  0  0
  183.7990  178.7730  140.9260 C   0  0  2  0  0  3  0  0  0  0  0  0
  183.4720  178.8450  142.3200 N   0  0  0  0  0  2  0  0  0  0  0  0
  183.0610  178.2970  138.5490 C   0  0  0  0  0  0  0  0  0  0  0  0
  181.0390  179.3390  138.7990 C   0  0  0  0  0  0  0  0  0  0  0  0
  182.0230  178.7940  137.8620 C   0  0  0  0  0  0  0  0  0  0  0  0
  179.7920  179.9070  138.5510 C   0  0  0  0  0  3  0  0  0  0  0  0
  185.3000  177.5840  137.6020 C   0  0  0  0  0  0  0  0  0  0  0  0
  186.5870  177.9850  137.2230 C   0  0  2  0  0  0  0  0  0  0  0  0
  186.7110  178.5760  135.9660 O   0  0  0  0  0  1  0  0  0  0  0  0
  186.1660  175.2520  137.1900 C   0  0  0  0  0  3  0  0  0  0  0  0
  184.0240  177.3110  137.9920 C   0  0  0  0  0  0  0  0  0  0  0  0
  183.8090  175.8890  137.9630 C   0  0  0  0  0  3  0  0  0  0  0  0
  186.3220  176.6060  137.2210 C   0  0  0  0  0  0  0  0  0  0  0  0
  184.4800  173.5530  137.5920 O   0  0  0  0  0  1  0  0  0  0  0  0
  184.8220  174.9010  137.5730 C   0  0  0  0  0  0  0  0  0  0  0  0
  187.4800  178.4410  138.2730 N   0  0  0  0  0  0  0  0  0  0  0  0
  188.5060  177.7460  138.5660 N   0  0  0  0  0  0  0  0  0  0  0  0
  189.3750  178.1660  139.5810 N   0  0  0  0  0  2  0  0  0  0  0  0
  190.7070  176.2630  138.8930 C   0  0  0  0  0  1  0  0  0  0  0  0
  190.6020  177.4360  139.8460 C   0  0  2  0  0  3  0  0  0  0  0  0
  190.6140  176.9560  141.2190 N   0  0  0  0  0  2  0  0  0  0  0  0
  189.2600  177.0920  141.7300 C   0  0  0  0  0  2  0  0  0  0  0  0
  189.1610  176.4690  143.1100 C   0  0  0  0  0  2  0  0  0  0  0  0
  188.9130  177.5660  144.1210 C   0  0  0  0  0  2  0  0  0  0  0  0
  189.3080  177.1130  145.4470 N   0  0  0  0  0  2  0  0  0  0  0  0
  188.7530  178.2530  147.6110 C   0  0  0  0  0  2  0  0  0  0  0  0
  188.3340  176.7850  147.7140 C   0  0  0  0  0  2  0  0  0  0  0  0
  186.8720  177.8190  145.8840 C   0  0  0  0  0  1  0  0  0  0  0  0
  188.2680  177.5080  146.3900 C   0  0  0  0  0  0  0  0  0  0  0  0
  185.2030  178.9380  140.5200 C   0  0  0  0  0  3  0  0  0  0  0  0
  186.1960  179.0000  141.4010 C   0  0  0  0  0  2  0  0  0  0  0  0
  181.9000  178.7370  136.4720 O   0  0  0  0  0  0  0  0  0  0  0  0
  181.4490  177.5810  135.7860 C   0  0  0  0  0  2  0  0  0  0  0  0
  179.9350  177.5140  135.8550 C   0  0  0  0  0  2  0  0  0  0  0  0
  179.4620  176.1730  136.4010 C   0  0  0  0  0  2  0  0  0  0  0  0
  180.3450  175.7100  137.5730 C   0  0  1  0  0  3  0  0  0  0  0  0
  179.5280  173.5430  137.9200 C   0  0  0  0  0  2  0  0  0  0  0  0
  178.9480  174.2190  139.1480 C   0  0  0  0  0  2  0  0  0  0  0  0
  181.0940  173.8730  136.1720 C   0  0  0  0  0  1  0  0  0  0  0  0
  179.4490  175.9680  139.1300 S   0  0  0  0  0  0  0  0  0  0  0  0
  180.7070  174.2890  137.5140 N   0  0  0  0  0  0  0  0  0  0  0  0
  2  5  1  0  0  0  0
  3  6  1  0  0  0  0
  4 10  1  6  0  0  0
  4  2  1  0  0  0  0
  4  8  1  0  0  0  0
  5  7  1  0  0  0  0
  6  5  2  0  0  0  0
  7  1  1  0  0  0  0
  8 37  1  6  0  0  0
  8  9  1  0  0  0  0
  9  1  1  0  0  0  0
 11  2  2  0  0  0  0
 12 10  2  0  0  0  0
 12 11  1  0  0  0  0
 13 11  1  0  0  0  0
 13  3  2  0  0  0  0
 14 18  1  0  0  0  0
 15 16  1  6  0  0  0
 15 14  1  0  0  0  0
 15 23  1  0  0  0  0
 17 20  1  0  0  0  0
 17 22  2  0  0  0  0
 18 10  1  0  0  0  0
 19 18  2  0  0  0  0
 20 15  1  0  0  0  0
 20 14  2  0  0  0  0
 22 21  1  0  0  0  0
 22 19  1  0  0  0  0
 23 24  2  0  0  0  0
 24 25  1  0  0  0  0
 25 27  1  0  0  0  0
 27 26  1  6  0  0  0
 27 28  1  0  0  0  0
 28 29  1  0  0  0  0
 29 30  1  0  0  0  0
 30 31  1  0  0  0  0
 31 32  1  0  0  0  0
 32 36  1  0  0  0  0
 33 34  1  0  0  0  0
 35 36  1  0  0  0  0
 36 33  1  0  0  0  0
 36 34  1  0  0  0  0
 37 38  2  0  0  0  0
 39 12  1  0  0  0  0
 40 41  1  0  0  0  0
 40 39  1  0  0  0  0
 41 42  1  0  0  0  0
 43 42  1  6  0  0  0
 43 47  1  0  0  0  0
 44 45  1  0  0  0  0
 46 48  1  0  0  0  0
 47 45  1  0  0  0  0
 48 43  1  0  0  0  0
 48 44  1  0  0  0  0
M  END
>  <MODEL>
5

>  <REMARK>
 VINA RESULT:      -6.7      2.656      6.470
  Name = 
  16 active torsions:
  status: ('A' for Active; 'I' for Inactive)
    1  A    between atoms: C_6  and  C_13
    2  A    between atoms: C_6  and  C_16
    3  A    between atoms: N_7  and  C_41
    4  A    between atoms: N_7  and  N_44
    5  A    between atoms: C_9  and  C_33
    6  A    between atoms: C_9  and  C_35
    7  A    between atoms: C_12  and  N_28
    8  A    between atoms: C_16  and  C_36
    9  A    between atoms: C_20  and  C_34
   10  A    between atoms: N_22  and  C_24
   11  A    between atoms: N_22  and  C_35
   12  A    between atoms: C_25  and  C_27
   13  A    between atoms: C_33  and  N_40
   14  A    between atoms: C_36  and  O_42
   15  A    between atoms: C_39  and  O_42
   16  A    between atoms: N_40  and  C_41
                            x       y       z     vdW  Elec       q    Type
                         _______ _______ _______ _____ _____    ______ ____

>  <TORSDO>
F 16

$$$$
=
 OpenBabel11042411193D

 48 54  0  0  1  0  0  0  0  0999 V2000
  185.1400  175.9600  137.1460 C   0  0  0  0  0  2  0  0  0  0  0  0
  187.5130  174.2340  136.6260 C   0  0  0  0  0  0  0  0  0  0  0  0
  187.0870  171.6180  135.7930 C   0  0  0  0  0  3  0  0  0  0  0  0
  188.0530  175.5400  137.0240 C   0  0  0  0  0  0  0  0  0  0  0  0
  186.2060  173.8400  136.2950 C   0  0  0  0  0  0  0  0  0  0  0  0
  186.0080  172.5230  135.8530 C   0  0  0  0  0  3  0  0  0  0  0  0
  185.0870  174.7250  136.3900 N   0  0  0  0  0  2  0  0  0  0  0  0
  187.5090  176.7140  136.6500 C   0  0  2  0  0  3  0  0  0  0  0  0
  186.0900  176.8720  136.5300 N   0  0  0  0  0  2  0  0  0  0  0  0
  189.4780  175.2850  137.3620 C   0  0  0  0  0  0  0  0  0  0  0  0
  188.5660  173.3470  136.5580 C   0  0  0  0  0  0  0  0  0  0  0  0
  189.7740  174.0190  137.0380 C   0  0  0  0  0  0  0  0  0  0  0  0
  188.3790  172.0250  136.1620 C   0  0  0  0  0  2  0  0  0  0  0  0
  189.8460  176.9400  139.2440 C   0  0  0  0  0  0  0  0  0  0  0  0
  189.2500  177.7490  140.2190 C   0  0  2  0  0  0  0  0  0  0  0  0
  188.7560  178.9800  139.7890 O   0  0  0  0  0  1  0  0  0  0  0  0
  192.0080  177.5890  140.3700 C   0  0  0  0  0  3  0  0  0  0  0  0
  190.3140  176.1260  138.2570 C   0  0  0  0  0  0  0  0  0  0  0  0
  191.7490  176.0550  138.3350 C   0  0  0  0  0  3  0  0  0  0  0  0
  190.6500  177.6360  140.2520 C   0  0  0  0  0  0  0  0  0  0  0  0
  193.9450  176.5980  139.2970 O   0  0  0  0  0  1  0  0  0  0  0  0
  192.5640  176.7580  139.3340 C   0  0  0  0  0  0  0  0  0  0  0  0
  188.5510  177.0830  141.3030 N   0  0  0  0  0  0  0  0  0  0  0  0
  188.5970  177.5810  142.4750 N   0  0  0  0  0  0  0  0  0  0  0  0
  187.9360  176.9480  143.5340 N   0  0  0  0  0  2  0  0  0  0  0  0
  188.2470  177.2700  145.9160 C   0  0  0  0  0  1  0  0  0  0  0  0
  187.4880  177.7160  144.6830 C   0  0  2  0  0  3  0  0  0  0  0  0
  186.0600  177.5230  144.8890 N   0  0  0  0  0  2  0  0  0  0  0  0
  185.3780  178.5810  144.1620 C   0  0  0  0  0  2  0  0  0  0  0  0
  183.9620  178.7380  144.6830 C   0  0  0  0  0  2  0  0  0  0  0  0
  183.0690  179.1620  143.5380 C   0  0  0  0  0  2  0  0  0  0  0  0
  183.5570  178.5860  142.2920 N   0  0  0  0  0  2  0  0  0  0  0  0
  182.6430  177.5040  140.2230 C   0  0  0  0  0  2  0  0  0  0  0  0
  182.6720  179.0190  140.0070 C   0  0  0  0  0  2  0  0  0  0  0  0
  181.0120  178.5990  141.9100 C   0  0  0  0  0  1  0  0  0  0  0  0
  182.4260  178.4470  141.3830 C   0  0  0  0  0  0  0  0  0  0  0  0
  188.3760  177.8620  136.3430 C   0  0  0  0  0  3  0  0  0  0  0  0
  187.9810  179.1180  136.5130 C   0  0  0  0  0  2  0  0  0  0  0  0
  191.0350  173.4410  137.1980 O   0  0  0  0  0  0  0  0  0  0  0  0
  191.8190  172.9910  136.1060 C   0  0  0  0  0  2  0  0  0  0  0  0
  192.6060  174.1570  135.5370 C   0  0  0  0  0  2  0  0  0  0  0  0
  194.1050  173.8930  135.5860 C   0  0  0  0  0  2  0  0  0  0  0  0
  194.7530  174.6040  136.7870 C   0  0  1  0  0  3  0  0  0  0  0  0
  197.0250  174.2460  136.3450 C   0  0  0  0  0  2  0  0  0  0  0  0
  196.8540  173.2930  137.5130 C   0  0  0  0  0  2  0  0  0  0  0  0
  195.9370  176.0150  135.2040 C   0  0  0  0  0  1  0  0  0  0  0  0
  195.1250  173.3780  138.0730 S   0  0  0  0  0  0  0  0  0  0  0  0
  196.0130  175.2820  136.4610 N   0  0  0  0  0  0  0  0  0  0  0  0
  2  4  1  0  0  0  0
  3  6  2  0  0  0  0
  3 13  1  0  0  0  0
  4 10  2  0  0  0  0
  5  7  1  0  0  0  0
  5  2  2  0  0  0  0
  6  5  1  0  0  0  0
  7  1  1  0  0  0  0
  8 37  1  6  0  0  0
  8  4  1  0  0  0  0
  9  8  1  0  0  0  0
  9  1  1  0  0  0  0
 10 18  1  0  0  0  0
 11  2  1  0  0  0  0
 11 12  2  0  0  0  0
 12 39  1  0  0  0  0
 12 10  1  0  0  0  0
 13 11  1  0  0  0  0
 14 15  1  0  0  0  0
 14 20  1  0  0  0  0
 15 16  1  6  0  0  0
 15 20  1  0  0  0  0
 15 23  1  0  0  0  0
 18 19  1  0  0  0  0
 18 14  2  0  0  0  0
 19 22  2  0  0  0  0
 20 17  2  0  0  0  0
 21 22  1  0  0  0  0
 22 17  1  0  0  0  0
 23 24  2  0  0  0  0
 24 25  1  0  0  0  0
 25 27  1  0  0  0  0
 27 28  1  0  0  0  0
 27 26  1  1  0  0  0
 29 30  1  0  0  0  0
 29 28  1  0  0  0  0
 31 30  1  0  0  0  0
 32 31  1  0  0  0  0
 33 36  1  0  0  0  0
 34 33  1  0  0  0  0
 34 36  1  0  0  0  0
 36 35  1  0  0  0  0
 36 32  1  0  0  0  0
 37 38  2  0  0  0  0
 40 39  1  0  0  0  0
 41 42  1  0  0  0  0
 41 40  1  0  0  0  0
 43 42  1  6  0  0  0
 43 47  1  0  0  0  0
 44 48  1  0  0  0  0
 44 45  1  0  0  0  0
 45 47  1  0  0  0  0
 46 48  1  0  0  0  0
 48 43  1  0  0  0  0
M  END
>  <MODEL>
6

>  <REMARK>
 VINA RESULT:      -6.7      4.139     11.067
  Name = 
  16 active torsions:
  status: ('A' for Active; 'I' for Inactive)
    1  A    between atoms: C_6  and  C_13
    2  A    between atoms: C_6  and  C_16
    3  A    between atoms: N_7  and  C_41
    4  A    between atoms: N_7  and  N_44
    5  A    between atoms: C_9  and  C_33
    6  A    between atoms: C_9  and  C_35
    7  A    between atoms: C_12  and  N_28
    8  A    between atoms: C_16  and  C_36
    9  A    between atoms: C_20  and  C_34
   10  A    between atoms: N_22  and  C_24
   11  A    between atoms: N_22  and  C_35
   12  A    between atoms: C_25  and  C_27
   13  A    between atoms: C_33  and  N_40
   14  A    between atoms: C_36  and  O_42
   15  A    between atoms: C_39  and  O_42
   16  A    between atoms: N_40  and  C_41
                            x       y       z     vdW  Elec       q    Type
                         _______ _______ _______ _____ _____    ______ ____

>  <TORSDO>
F 16

$$$$
=
 OpenBabel11042411193D

 48 54  0  0  1  0  0  0  0  0999 V2000
  182.4720  178.1350  144.6780 C   0  0  0  0  0  2  0  0  0  0  0  0
  184.5100  178.6670  142.5710 C   0  0  0  0  0  0  0  0  0  0  0  0
  183.6480  178.9910  139.9500 C   0  0  0  0  0  3  0  0  0  0  0  0
  185.2590  178.5670  143.8300 C   0  0  2  0  0  3  0  0  0  0  0  0
  183.1300  178.7540  142.3250 C   0  0  0  0  0  0  0  0  0  0  0  0
  182.7080  178.9410  140.9990 C   0  0  0  0  0  3  0  0  0  0  0  0
  182.1550  178.6620  143.3660 N   0  0  0  0  0  2  0  0  0  0  0  0
  184.8110  179.0560  145.0020 C   0  0  2  0  0  3  0  0  0  0  0  0
  183.4200  179.0140  145.3430 N   0  0  0  0  0  2  0  0  0  0  0  0
  186.6770  178.3810  143.4250 C   0  0  0  0  0  0  0  0  0  0  0  0
  185.4240  178.7250  141.5410 C   0  0  0  0  0  0  0  0  0  0  0  0
  186.7640  178.5250  142.0950 C   0  0  0  0  0  0  0  0  0  0  0  0
  185.0200  178.8680  140.2160 C   0  0  0  0  0  3  0  0  0  0  0  0
  188.8060  177.0590  143.7870 C   0  0  0  0  0  0  0  0  0  0  0  0
  189.8580  176.3530  143.1890 C   0  0  2  0  0  0  0  0  0  0  0  0
  189.5930  175.0350  142.8200 O   0  0  0  0  0  1  0  0  0  0  0  0
  190.1390  176.7690  145.9090 C   0  0  0  0  0  3  0  0  0  0  0  0
  187.7360  177.7550  144.2590 C   0  0  0  0  0  0  0  0  0  0  0  0
  187.8840  177.9600  145.6750 C   0  0  0  0  0  3  0  0  0  0  0  0
  189.9530  176.5890  144.5690 C   0  0  0  0  0  0  0  0  0  0  0  0
  189.0410  177.7530  147.8350 O   0  0  0  0  0  1  0  0  0  0  0  0
  189.0230  177.4840  146.4710 C   0  0  0  0  0  0  0  0  0  0  0  0
  190.7870  177.1090  142.3670 N   0  0  0  0  0  0  0  0  0  0  0  0
  191.1280  176.6520  141.2290 N   0  0  0  0  0  0  0  0  0  0  0  0
  192.0300  177.3630  140.4270 N   0  0  0  0  0  2  0  0  0  0  0  0
  191.2120  175.9360  138.6470 C   0  0  0  0  0  1  0  0  0  0  0  0
  192.0800  177.1280  138.9940 C   0  0  2  0  0  3  0  0  0  0  0  0
  193.4500  176.8780  138.5740 N   0  0  0  0  0  2  0  0  0  0  0  0
  193.4030  175.8280  137.5710 C   0  0  0  0  0  2  0  0  0  0  0  0
  193.9820  176.3350  136.2630 C   0  0  0  0  0  2  0  0  0  0  0  0
  195.2260  175.5370  135.9420 C   0  0  0  0  0  2  0  0  0  0  0  0
  195.8050  175.0110  137.1700 N   0  0  0  0  0  2  0  0  0  0  0  0
  197.7640  175.2530  135.6240 C   0  0  0  0  0  2  0  0  0  0  0  0
  197.4220  173.7660  135.7450 C   0  0  0  0  0  2  0  0  0  0  0  0
  198.1640  174.5200  138.0760 C   0  0  0  0  0  1  0  0  0  0  0  0
  197.2060  174.6980  136.9130 C   0  0  0  0  0  0  0  0  0  0  0  0
  185.7550  179.6600  145.9550 C   0  0  0  0  0  3  0  0  0  0  0  0
  185.7310  179.3820  147.2530 C   0  0  0  0  0  2  0  0  0  0  0  0
  187.9550  178.4390  141.3710 O   0  0  0  0  0  0  0  0  0  0  0  0
  188.0560  177.7540  140.1340 C   0  0  0  0  0  2  0  0  0  0  0  0
  188.7960  178.6240  139.1350 C   0  0  0  0  0  2  0  0  0  0  0  0
  188.0970  178.6330  137.7820 C   0  0  0  0  0  2  0  0  0  0  0  0
  187.8120  177.2020  137.2960 C   0  0  1  0  0  3  0  0  0  0  0  0
  187.5530  177.5550  134.9950 C   0  0  0  0  0  2  0  0  0  0  0  0
  186.1050  177.2880  135.3630 C   0  0  0  0  0  2  0  0  0  0  0  0
  189.7560  177.3970  135.8530 C   0  0  0  0  0  1  0  0  0  0  0  0
  186.0180  176.9680  137.1520 S   0  0  0  0  0  0  0  0  0  0  0  0
  188.3930  176.8980  135.9820 N   0  0  0  0  0  0  0  0  0  0  0  0
  1  9  1  0  0  0  0
  3 13  2  0  0  0  0
  3  6  1  0  0  0  0
  4  2  1  6  0  0  0
  4  8  1  0  0  0  0
  5  2  1  0  0  0  0
  5  7  1  0  0  0  0
  6  5  2  0  0  0  0
  7  1  1  0  0  0  0
  8  9  1  0  0  0  0
  8 37  1  6  0  0  0
 10  4  1  0  0  0  0
 10 18  1  0  0  0  0
 11 12  1  0  0  0  0
 11  2  2  0  0  0  0
 12 10  2  0  0  0  0
 13 11  1  0  0  0  0
 14 18  2  0  0  0  0
 14 20  1  0  0  0  0
 15 16  1  6  0  0  0
 15 14  1  0  0  0  0
 15 20  1  0  0  0  0
 17 22  1  0  0  0  0
 18 19  1  0  0  0  0
 19 22  2  0  0  0  0
 20 17  2  0  0  0  0
 22 21  1  0  0  0  0
 23 15  1  0  0  0  0
 24 23  2  0  0  0  0
 25 24  1  0  0  0  0
 27 26  1  1  0  0  0
 27 25  1  0  0  0  0
 28 27  1  0  0  0  0
 29 28  1  0  0  0  0
 30 29  1  0  0  0  0
 31 30  1  0  0  0  0
 31 32  1  0  0  0  0
 33 34  1  0  0  0  0
 33 36  1  0  0  0  0
 34 36  1  0  0  0  0
 36 32  1  0  0  0  0
 36 35  1  0  0  0  0
 37 38  2  0  0  0  0
 39 12  1  0  0  0  0
 40 39  1  0  0  0  0
 41 40  1  0  0  0  0
 42 41  1  0  0  0  0
 43 42  1  6  0  0  0
 44 45  1  0  0  0  0
 44 48  1  0  0  0  0
 45 47  1  0  0  0  0
 46 48  1  0  0  0  0
 47 43  1  0  0  0  0
 48 43  1  0  0  0  0
M  END
>  <MODEL>
7

>  <REMARK>
 VINA RESULT:      -6.5      3.256      6.928
  Name = 
  16 active torsions:
  status: ('A' for Active; 'I' for Inactive)
    1  A    between atoms: C_6  and  C_13
    2  A    between atoms: C_6  and  C_16
    3  A    between atoms: N_7  and  C_41
    4  A    between atoms: N_7  and  N_44
    5  A    between atoms: C_9  and  C_33
    6  A    between atoms: C_9  and  C_35
    7  A    between atoms: C_12  and  N_28
    8  A    between atoms: C_16  and  C_36
    9  A    between atoms: C_20  and  C_34
   10  A    between atoms: N_22  and  C_24
   11  A    between atoms: N_22  and  C_35
   12  A    between atoms: C_25  and  C_27
   13  A    between atoms: C_33  and  N_40
   14  A    between atoms: C_36  and  O_42
   15  A    between atoms: C_39  and  O_42
   16  A    between atoms: N_40  and  C_41
                            x       y       z     vdW  Elec       q    Type
                         _______ _______ _______ _____ _____    ______ ____

>  <TORSDO>
F 16

$$$$
=
 OpenBabel11042411193D

 48 54  0  0  1  0  0  0  0  0999 V2000
  183.6920  178.2530  142.8650 C   0  0  0  0  0  2  0  0  0  0  0  0
  181.8460  178.4590  140.5350 C   0  0  0  0  0  0  0  0  0  0  0  0
  179.2490  179.3400  140.9800 C   0  0  0  0  0  3  0  0  0  0  0  0
  183.1270  177.9950  139.9860 C   0  0  2  0  0  3  0  0  0  0  0  0
  181.5160  178.9580  141.8060 C   0  0  0  0  0  0  0  0  0  0  0  0
  180.2070  179.4210  142.0110 C   0  0  0  0  0  3  0  0  0  0  0  0
  182.4560  179.0090  142.8810 N   0  0  0  0  0  2  0  0  0  0  0  0
  184.3230  178.4380  140.4170 C   0  0  2  0  0  3  0  0  0  0  0  0
  184.5520  178.7410  141.7990 N   0  0  0  0  0  2  0  0  0  0  0  0
  182.8040  177.4750  138.6320 C   0  0  0  0  0  0  0  0  0  0  0  0
  180.9070  178.3900  139.5280 C   0  0  0  0  0  0  0  0  0  0  0  0
  181.5220  177.7570  138.3600 C   0  0  0  0  0  0  0  0  0  0  0  0
  179.5940  178.8070  139.7280 C   0  0  0  0  0  3  0  0  0  0  0  0
  184.5210  176.7690  136.9100 C   0  0  0  0  0  0  0  0  0  0  0  0
  185.4250  177.1850  135.9250 C   0  0  2  0  0  0  0  0  0  0  0  0
  184.8900  177.4670  134.6680 O   0  0  0  0  0  1  0  0  0  0  0  0
  185.5570  174.4960  136.5590 C   0  0  0  0  0  3  0  0  0  0  0  0
  183.6080  176.4790  137.8770 C   0  0  0  0  0  0  0  0  0  0  0  0
  183.6750  175.0780  138.1960 C   0  0  0  0  0  3  0  0  0  0  0  0
  185.4520  175.8280  136.2810 C   0  0  0  0  0  0  0  0  0  0  0  0
  184.5570  172.7940  137.9690 O   0  0  0  0  0  1  0  0  0  0  0  0
  184.5960  174.1240  137.5640 C   0  0  0  0  0  0  0  0  0  0  0  0
  186.5740  177.9600  136.3570 N   0  0  0  0  0  0  0  0  0  0  0  0
  187.7300  177.4250  136.3410 N   0  0  0  0  0  0  0  0  0  0  0  0
  188.8490  178.1550  136.7630 N   0  0  0  0  0  2  0  0  0  0  0  0
  189.7710  175.9940  137.3570 C   0  0  0  0  0  1  0  0  0  0  0  0
  189.9260  177.4970  137.4810 C   0  0  2  0  0  3  0  0  0  0  0  0
  189.9020  177.8800  138.8840 N   0  0  0  0  0  2  0  0  0  0  0  0
  190.4690  176.7740  139.6380 C   0  0  0  0  0  2  0  0  0  0  0  0
  190.1320  176.9220  141.1090 C   0  0  0  0  0  2  0  0  0  0  0  0
  191.3530  177.4380  141.8360 C   0  0  0  0  0  2  0  0  0  0  0  0
  191.5020  176.7420  143.1070 N   0  0  0  0  0  2  0  0  0  0  0  0
  191.3090  177.1280  145.5770 C   0  0  0  0  0  2  0  0  0  0  0  0
  189.9150  177.2490  144.9560 C   0  0  0  0  0  2  0  0  0  0  0  0
  191.3060  179.1590  143.9690 C   0  0  0  0  0  1  0  0  0  0  0  0
  191.1390  177.6650  144.1750 C   0  0  0  0  0  0  0  0  0  0  0  0
  185.4240  178.6300  139.4610 C   0  0  0  0  0  3  0  0  0  0  0  0
  186.7000  178.5930  139.8270 C   0  0  0  0  0  2  0  0  0  0  0  0
  180.8820  177.4340  137.1610 O   0  0  0  0  0  0  0  0  0  0  0  0
  179.9870  178.3160  136.5050 C   0  0  0  0  0  2  0  0  0  0  0  0
  180.7350  179.5620  136.0700 C   0  0  0  0  0  2  0  0  0  0  0  0
  179.9470  180.8250  136.3910 C   0  0  0  0  0  2  0  0  0  0  0  0
  180.8050  182.0830  136.1740 C   0  0  1  0  0  3  0  0  0  0  0  0
  179.8580  183.5450  137.7400 C   0  0  0  0  0  2  0  0  0  0  0  0
  179.3250  184.1770  136.4680 C   0  0  0  0  0  2  0  0  0  0  0  0
  181.4350  181.9560  138.5160 C   0  0  0  0  0  1  0  0  0  0  0  0
  179.9320  183.2100  135.0500 S   0  0  0  0  0  0  0  0  0  0  0  0
  181.0790  182.8310  137.4070 N   0  0  0  0  0  0  0  0  0  0  0  0
  1  7  1  0  0  0  0
  2  5  1  0  0  0  0
  3  6  1  0  0  0  0
  4 10  1  6  0  0  0
  4  8  1  0  0  0  0
  4  2  1  0  0  0  0
  5  6  2  0  0  0  0
  5  7  1  0  0  0  0
  8 37  1  6  0  0  0
  8  9  1  0  0  0  0
  9  1  1  0  0  0  0
 11 13  1  0  0  0  0
 11  2  2  0  0  0  0
 12 10  2  0  0  0  0
 12 11  1  0  0  0  0
 13  3  2  0  0  0  0
 14 18  1  0  0  0  0
 15 16  1  6  0  0  0
 15 20  1  0  0  0  0
 15 23  1  0  0  0  0
 15 14  1  0  0  0  0
 17 22  2  0  0  0  0
 18 19  2  0  0  0  0
 18 10  1  0  0  0  0
 20 17  1  0  0  0  0
 20 14  2  0  0  0  0
 22 21  1  0  0  0  0
 22 19  1  0  0  0  0
 24 23  2  0  0  0  0
 24 25  1  0  0  0  0
 25 27  1  0  0  0  0
 27 26  1  1  0  0  0
 27 28  1  0  0  0  0
 28 29  1  0  0  0  0
 29 30  1  0  0  0  0
 30 31  1  0  0  0  0
 31 32  1  0  0  0  0
 32 36  1  0  0  0  0
 34 33  1  0  0  0  0
 35 36  1  0  0  0  0
 36 34  1  0  0  0  0
 36 33  1  0  0  0  0
 37 38  2  0  0  0  0
 39 12  1  0  0  0  0
 40 39  1  0  0  0  0
 41 42  1  0  0  0  0
 41 40  1  0  0  0  0
 43 42  1  1  0  0  0
 43 48  1  0  0  0  0
 45 44  1  0  0  0  0
 47 43  1  0  0  0  0
 47 45  1  0  0  0  0
 48 44  1  0  0  0  0
 48 46  1  0  0  0  0
M  END
>  <MODEL>
8

>  <REMARK>
 VINA RESULT:      -6.5      2.815      5.486
  Name = 
  16 active torsions:
  status: ('A' for Active; 'I' for Inactive)
    1  A    between atoms: C_6  and  C_13
    2  A    between atoms: C_6  and  C_16
    3  A    between atoms: N_7  and  C_41
    4  A    between atoms: N_7  and  N_44
    5  A    between atoms: C_9  and  C_33
    6  A    between atoms: C_9  and  C_35
    7  A    between atoms: C_12  and  N_28
    8  A    between atoms: C_16  and  C_36
    9  A    between atoms: C_20  and  C_34
   10  A    between atoms: N_22  and  C_24
   11  A    between atoms: N_22  and  C_35
   12  A    between atoms: C_25  and  C_27
   13  A    between atoms: C_33  and  N_40
   14  A    between atoms: C_36  and  O_42
   15  A    between atoms: C_39  and  O_42
   16  A    between atoms: N_40  and  C_41
                            x       y       z     vdW  Elec       q    Type
                         _______ _______ _______ _____ _____    ______ ____

>  <TORSDO>
F 16

$$$$
=
 OpenBabel11042411193D

 48 54  0  0  1  0  0  0  0  0999 V2000
  182.5180  177.3020  136.4700 C   0  0  0  0  0  2  0  0  0  0  0  0
  184.8490  178.0640  138.1610 C   0  0  0  0  0  0  0  0  0  0  0  0
  187.3980  177.3970  137.2790 C   0  0  0  0  0  3  0  0  0  0  0  0
  183.6650  178.5630  138.8710 C   0  0  0  0  0  0  0  0  0  0  0  0
  184.9950  177.5500  136.8630 C   0  0  0  0  0  0  0  0  0  0  0  0
  186.2910  177.2380  136.4200 C   0  0  0  0  0  3  0  0  0  0  0  0
  183.8850  177.3370  135.9890 N   0  0  0  0  0  2  0  0  0  0  0  0
  182.5990  179.1040  138.2500 C   0  0  2  0  0  3  0  0  0  0  0  0
  182.1450  178.6090  136.9840 N   0  0  0  0  0  2  0  0  0  0  0  0
  184.1310  178.8510  140.2530 C   0  0  0  0  0  0  0  0  0  0  0  0
  185.9370  178.2250  138.9930 C   0  0  0  0  0  0  0  0  0  0  0  0
  185.4630  178.6980  140.2950 C   0  0  0  0  0  0  0  0  0  0  0  0
  187.2230  177.8820  138.5840 C   0  0  0  0  0  2  0  0  0  0  0  0
  181.9490  178.5640  141.5060 C   0  0  0  0  0  0  0  0  0  0  0  0
  180.5980  178.2020  141.4280 C   0  0  2  0  0  0  0  0  0  0  0  0
  179.7190  179.1770  140.9550 O   0  0  0  0  0  1  0  0  0  0  0  0
  181.5400  178.6300  143.9930 C   0  0  0  0  0  3  0  0  0  0  0  0
  183.2670  178.9010  141.4610 C   0  0  0  0  0  0  0  0  0  0  0  0
  183.7480  179.1310  142.7970 C   0  0  0  0  0  3  0  0  0  0  0  0
  181.1240  178.4320  142.7090 C   0  0  0  0  0  0  0  0  0  0  0  0
  183.5220  179.2620  145.2410 O   0  0  0  0  0  1  0  0  0  0  0  0
  182.9280  179.0130  144.0090 C   0  0  0  0  0  0  0  0  0  0  0  0
  180.2940  176.8160  141.1240 N   0  0  0  0  0  0  0  0  0  0  0  0
  180.5900  176.3490  139.9770 N   0  0  0  0  0  0  0  0  0  0  0  0
  180.2960  175.0150  139.6630 N   0  0  0  0  0  2  0  0  0  0  0  0
  178.9320  173.6900  138.1620 C   0  0  0  0  0  1  0  0  0  0  0  0
  180.1330  174.6060  138.2790 C   0  0  2  0  0  3  0  0  0  0  0  0
  181.3260  173.9130  137.8170 N   0  0  0  0  0  2  0  0  0  0  0  0
  181.3460  174.0190  136.3680 C   0  0  0  0  0  2  0  0  0  0  0  0
  181.5890  172.6550  135.7510 C   0  0  0  0  0  2  0  0  0  0  0  0
  182.8970  172.6910  134.9930 C   0  0  0  0  0  2  0  0  0  0  0  0
  183.8100  173.6320  135.6290 N   0  0  0  0  0  2  0  0  0  0  0  0
  184.8280  173.0810  137.8530 C   0  0  0  0  0  2  0  0  0  0  0  0
  185.9060  173.7130  136.9680 C   0  0  0  0  0  2  0  0  0  0  0  0
  185.2520  171.5110  135.8370 C   0  0  0  0  0  1  0  0  0  0  0  0
  184.8140  172.8660  136.3580 C   0  0  0  0  0  0  0  0  0  0  0  0
  181.8850  180.2340  138.8640 C   0  0  0  0  0  3  0  0  0  0  0  0
  180.7760  180.7430  138.3420 C   0  0  0  0  0  2  0  0  0  0  0  0
  186.2430  178.9100  141.4330 O   0  0  0  0  0  0  0  0  0  0  0  0
  187.2340  177.9940  141.8690 C   0  0  0  0  0  2  0  0  0  0  0  0
  186.9840  177.6340  143.3210 C   0  0  0  0  0  2  0  0  0  0  0  0
  188.2430  177.0910  143.9840 C   0  0  0  0  0  2  0  0  0  0  0  0
  188.7840  178.0770  145.0340 C   0  0  1  0  0  3  0  0  0  0  0  0
  190.7510  176.9900  145.6950 C   0  0  0  0  0  2  0  0  0  0  0  0
  189.9140  176.7490  146.9370 C   0  0  0  0  0  2  0  0  0  0  0  0
  190.8030  178.2630  143.6970 C   0  0  0  0  0  1  0  0  0  0  0  0
  188.2830  177.5170  146.6870 S   0  0  0  0  0  0  0  0  0  0  0  0
  190.2480  178.1870  145.0420 N   0  0  0  0  0  0  0  0  0  0  0  0
  1  9  1  0  0  0  0
  2  4  1  0  0  0  0
  2 11  1  0  0  0  0
  3 13  1  0  0  0  0
  4 10  2  0  0  0  0
  5  2  2  0  0  0  0
  6  5  1  0  0  0  0
  6  3  2  0  0  0  0
  7  1  1  0  0  0  0
  7  5  1  0  0  0  0
  8 37  1  6  0  0  0
  8  4  1  0  0  0  0
  9  8  1  0  0  0  0
 10 12  1  0  0  0  0
 10 18  1  0  0  0  0
 11 12  2  0  0  0  0
 12 39  1  0  0  0  0
 13 11  1  0  0  0  0
 14 20  1  0  0  0  0
 15 16  1  6  0  0  0
 15 14  1  0  0  0  0
 15 20  1  0  0  0  0
 17 22  1  0  0  0  0
 18 14  2  0  0  0  0
 18 19  1  0  0  0  0
 19 22  2  0  0  0  0
 20 17  2  0  0  0  0
 22 21  1  0  0  0  0
 23 15  1  0  0  0  0
 24 23  2  0  0  0  0
 25 24  1  0  0  0  0
 27 26  1  1  0  0  0
 27 25  1  0  0  0  0
 28 27  1  0  0  0  0
 29 28  1  0  0  0  0
 30 29  1  0  0  0  0
 31 32  1  0  0  0  0
 31 30  1  0  0  0  0
 32 36  1  0  0  0  0
 34 33  1  0  0  0  0
 35 36  1  0  0  0  0
 36 34  1  0  0  0  0
 36 33  1  0  0  0  0
 38 37  2  0  0  0  0
 39 40  1  0  0  0  0
 40 41  1  0  0  0  0
 41 42  1  0  0  0  0
 43 42  1  6  0  0  0
 43 48  1  0  0  0  0
 43 47  1  0  0  0  0
 44 45  1  0  0  0  0
 46 48  1  0  0  0  0
 47 45  1  0  0  0  0
 48 44  1  0  0  0  0
M  END
>  <MODEL>
9

>  <REMARK>
 VINA RESULT:      -6.4      3.455      7.920
  Name = 
  16 active torsions:
  status: ('A' for Active; 'I' for Inactive)
    1  A    between atoms: C_6  and  C_13
    2  A    between atoms: C_6  and  C_16
    3  A    between atoms: N_7  and  C_41
    4  A    between atoms: N_7  and  N_44
    5  A    between atoms: C_9  and  C_33
    6  A    between atoms: C_9  and  C_35
    7  A    between atoms: C_12  and  N_28
    8  A    between atoms: C_16  and  C_36
    9  A    between atoms: C_20  and  C_34
   10  A    between atoms: N_22  and  C_24
   11  A    between atoms: N_22  and  C_35
   12  A    between atoms: C_25  and  C_27
   13  A    between atoms: C_33  and  N_40
   14  A    between atoms: C_36  and  O_42
   15  A    between atoms: C_39  and  O_42
   16  A    between atoms: N_40  and  C_41
                            x       y       z     vdW  Elec       q    Type
                         _______ _______ _______ _____ _____    ______ ____

>  <TORSDO>
F 16

$$$$
