=
 OpenBabel11042410303D

 35 39  0  0  1  0  0  0  0  0999 V2000
  192.2490  175.7940  136.0490 N   0  0  0  0  0  0  0  0  0  0  0  0
  189.3810  178.0100  137.7320 C   0  0  0  0  0  2  0  0  0  0  0  0
  183.8840  176.6000  137.0260 N   0  0  0  0  0  1  0  0  0  0  0  0
  189.9820  175.6750  136.9550 C   0  0  2  0  0  3  0  0  0  0  0  0
  186.9170  177.4330  135.4800 C   0  0  0  0  0  3  0  0  0  0  0  0
  190.5060  176.6640  134.7000 N   0  0  0  0  0  2  0  0  0  0  0  0
  192.7650  175.2430  137.2690 C   0  0  0  0  0  3  0  0  0  0  0  0
  184.3620  179.6180  139.9610 N   0  0  0  0  0  0  0  0  0  0  0  0
  185.0720  178.2480  138.4760 C   0  0  0  0  0  0  0  0  0  0  0  0
  190.6340  175.4420  138.2420 N   0  0  0  0  0  2  0  0  0  0  0  0
  185.6420  179.4780  140.1530 O   0  0  0  0  0  0  0  0  0  0  0  0
  186.1300  178.6350  139.2740 C   0  0  0  0  0  0  0  0  0  0  0  0
  190.9850  176.0530  135.8990 C   0  0  0  0  0  0  0  0  0  0  0  0
  191.9940  175.0960  138.3030 N   0  0  0  0  0  0  0  0  0  0  0  0
  185.0700  177.3250  137.3280 C   0  0  0  0  0  0  0  0  0  0  0  0
  183.9710  178.8700  138.9390 N   0  0  0  0  0  0  0  0  0  0  0  0
  189.1330  177.0620  134.5980 C   0  0  0  0  0  3  0  0  0  0  0  0
  188.8750  176.7350  137.0450 C   0  0  2  0  0  3  0  0  0  0  0  0
  188.2770  178.8630  138.1660 N   0  0  0  0  0  2  0  0  0  0  0  0
  188.3250  177.0560  135.6700 C   0  0  0  0  0  0  0  0  0  0  0  0
  187.5480  178.1630  139.2140 C   0  0  1  0  0  3  0  0  0  0  0  0
  186.0170  177.3750  136.4270 C   0  0  0  0  0  0  0  0  0  0  0  0
  188.2530  178.3090  140.5600 C   0  0  0  0  0  2  0  0  0  0  0  0
  188.9760  177.0190  140.9190 C   0  0  0  0  0  2  0  0  0  0  0  0
  189.9520  177.2750  141.8870 O   0  0  0  0  0  0  0  0  0  0  0  0
  188.8130  177.6860  144.5350 C   0  0  1  0  0  3  0  0  0  0  0  0
  189.8580  176.2090  142.7880 C   0  0  1  0  0  3  0  0  0  0  0  0
  191.2520  177.1500  144.6850 C   0  0  0  0  0  3  0  0  0  0  0  0
  191.1410  176.0910  143.6180 C   0  0  0  0  0  2  0  0  0  0  0  0
  190.1910  177.8390  145.1320 C   0  0  0  0  0  3  0  0  0  0  0  0
  188.6580  176.4000  143.7160 C   0  0  0  0  0  2  0  0  0  0  0  0
  186.4650  178.2680  145.2350 N   0  0  0  0  0  2  0  0  0  0  0  0
  185.3920  178.3770  146.2100 C   0  0  0  0  0  1  0  0  0  0  0  0
  187.7630  177.7860  145.5880 C   0  0  0  0  0  0  0  0  0  0  0  0
  188.0200  177.4520  146.7780 O   0  0  0  0  0  0  0  0  0  0  0  0
  1  7  1  0  0  0  0
  2 19  1  0  0  0  0
  3 15  1  0  0  0  0
  4 13  1  6  0  0  0
  4 18  1  0  0  0  0
  4 10  1  0  0  0  0
  5 20  1  0  0  0  0
  5 22  2  0  0  0  0
  6 13  1  0  0  0  0
  7 14  2  0  0  0  0
  8 11  1  0  0  0  0
  9 16  1  0  0  0  0
  9 12  2  0  0  0  0
 10 14  1  0  0  0  0
 12 11  1  0  0  0  0
 13  1  2  0  0  0  0
 15  9  1  0  0  0  0
 16  8  2  0  0  0  0
 17  6  1  0  0  0  0
 17 20  2  0  0  0  0
 18  2  1  6  0  0  0
 19 21  1  0  0  0  0
 20 18  1  0  0  0  0
 21 12  1  0  0  0  0
 21 23  1  1  0  0  0
 22 15  2  0  0  0  0
 23 24  1  0  0  0  0
 24 25  1  0  0  0  0
 26 30  1  0  0  0  0
 26 34  1  1  0  0  0
 27 25  1  6  0  0  0
 27 29  1  0  0  0  0
 27 31  1  0  0  0  0
 28 30  2  0  0  0  0
 29 28  1  0  0  0  0
 31 26  1  0  0  0  0
 32 34  1  0  0  0  0
 32 33  1  0  0  0  0
 34 35  2  0  0  0  0
M  END
>  <MODEL>
1

>  <REMARK>
 VINA RESULT:      -9.3      0.000      0.000
  Name = 
  5 active torsions:
  status: ('A' for Active; 'I' for Inactive)
    1  A    between atoms: C_2  and  C_22
    2  A    between atoms: C_6  and  O_20
    3  A    between atoms: C_18  and  O_20
    4  A    between atoms: C_18  and  C_24
    5  A    between atoms: C_24  and  C_34
                            x       y       z     vdW  Elec       q    Type
                         _______ _______ _______ _____ _____    ______ ____

>  <TORSDO>
F 5

$$$$
=
 OpenBabel11042410303D

 35 39  0  0  1  0  0  0  0  0999 V2000
  188.0710  177.4210  137.6040 N   0  0  0  0  0  0  0  0  0  0  0  0
  188.6410  176.4710  141.4440 C   0  0  0  0  0  2  0  0  0  0  0  0
  192.3990  179.4140  144.5950 N   0  0  0  0  0  1  0  0  0  0  0  0
  188.7070  178.3680  139.7660 C   0  0  2  0  0  3  0  0  0  0  0  0
  191.8670  177.4660  141.7300 C   0  0  0  0  0  3  0  0  0  0  0  0
  190.2630  176.9570  138.3770 N   0  0  0  0  0  2  0  0  0  0  0  0
  186.7470  177.9490  137.7630 C   0  0  0  0  0  3  0  0  0  0  0  0
  190.0250  176.8430  146.9840 N   0  0  0  0  0  0  0  0  0  0  0  0
  190.6660  177.6990  145.1280 C   0  0  0  0  0  0  0  0  0  0  0  0
  187.2730  178.5650  139.9690 N   0  0  0  0  0  2  0  0  0  0  0  0
  189.0890  176.6020  146.1100 O   0  0  0  0  0  0  0  0  0  0  0  0
  189.4260  177.1170  144.9520 C   0  0  0  0  0  0  0  0  0  0  0  0
  188.9720  177.5510  138.5300 C   0  0  0  0  0  0  0  0  0  0  0  0
  186.3770  178.4740  138.8920 N   0  0  0  0  0  0  0  0  0  0  0  0
  191.5030  178.4050  144.1430 C   0  0  0  0  0  0  0  0  0  0  0  0
  191.0110  177.5240  146.4180 N   0  0  0  0  0  0  0  0  0  0  0  0
  191.2030  176.9980  139.4580 C   0  0  0  0  0  3  0  0  0  0  0  0
  189.3880  177.7310  140.9850 C   0  0  2  0  0  3  0  0  0  0  0  0
  189.0310  176.0770  142.7960 N   0  0  0  0  0  2  0  0  0  0  0  0
  190.8380  177.4070  140.6830 C   0  0  0  0  0  0  0  0  0  0  0  0
  188.5810  177.1090  143.7180 C   0  0  1  0  0  3  0  0  0  0  0  0
  191.6520  177.9350  142.9320 C   0  0  0  0  0  0  0  0  0  0  0  0
  187.0990  176.9420  144.0440 C   0  0  0  0  0  2  0  0  0  0  0  0
  186.5540  178.2080  144.6880 C   0  0  0  0  0  2  0  0  0  0  0  0
  185.1570  178.1970  144.6510 O   0  0  0  0  0  0  0  0  0  0  0  0
  182.5030  178.6020  143.5250 C   0  0  1  0  0  3  0  0  0  0  0  0
  184.7970  179.4410  144.1220 C   0  0  1  0  0  3  0  0  0  0  0  0
  184.2570  178.7360  141.7470 C   0  0  0  0  0  3  0  0  0  0  0  0
  185.1800  179.5260  142.6400 C   0  0  0  0  0  2  0  0  0  0  0  0
  183.0290  178.3590  142.1320 C   0  0  0  0  0  3  0  0  0  0  0  0
  183.2950  179.6740  144.2820 C   0  0  0  0  0  2  0  0  0  0  0  0
  180.6000  180.0490  142.7350 N   0  0  0  0  0  2  0  0  0  0  0  0
  179.1950  180.4130  142.6520 C   0  0  0  0  0  1  0  0  0  0  0  0
  181.0480  178.9260  143.4950 C   0  0  0  0  0  0  0  0  0  0  0  0
  180.2240  178.2180  144.1370 O   0  0  0  0  0  0  0  0  0  0  0  0
  1  7  1  0  0  0  0
  1 13  2  0  0  0  0
  2 19  1  0  0  0  0
  4 13  1  6  0  0  0
  4 10  1  0  0  0  0
  4 18  1  0  0  0  0
  5 22  2  0  0  0  0
  6 13  1  0  0  0  0
  6 17  1  0  0  0  0
  7 14  2  0  0  0  0
  9 16  1  0  0  0  0
 11  8  1  0  0  0  0
 12  9  2  0  0  0  0
 12 11  1  0  0  0  0
 14 10  1  0  0  0  0
 15  3  1  0  0  0  0
 15  9  1  0  0  0  0
 16  8  2  0  0  0  0
 17 20  2  0  0  0  0
 18  2  1  6  0  0  0
 19 21  1  0  0  0  0
 20 18  1  0  0  0  0
 20  5  1  0  0  0  0
 21 23  1  1  0  0  0
 21 12  1  0  0  0  0
 22 15  2  0  0  0  0
 23 24  1  0  0  0  0
 25 24  1  0  0  0  0
 26 34  1  6  0  0  0
 26 31  1  0  0  0  0
 27 31  1  0  0  0  0
 27 25  1  6  0  0  0
 28 30  2  0  0  0  0
 28 29  1  0  0  0  0
 29 27  1  0  0  0  0
 30 26  1  0  0  0  0
 32 34  1  0  0  0  0
 33 32  1  0  0  0  0
 34 35  2  0  0  0  0
M  END
>  <MODEL>
2

>  <REMARK>
 VINA RESULT:      -8.9      3.300      6.835
  Name = 
  5 active torsions:
  status: ('A' for Active; 'I' for Inactive)
    1  A    between atoms: C_2  and  C_22
    2  A    between atoms: C_6  and  O_20
    3  A    between atoms: C_18  and  O_20
    4  A    between atoms: C_18  and  C_24
    5  A    between atoms: C_24  and  C_34
                            x       y       z     vdW  Elec       q    Type
                         _______ _______ _______ _____ _____    ______ ____

>  <TORSDO>
F 5

$$$$
=
 OpenBabel11042410303D

 35 39  0  0  1  0  0  0  0  0999 V2000
  191.0260  177.8690  140.0520 N   0  0  0  0  0  0  0  0  0  0  0  0
  187.3420  178.9710  141.1370 C   0  0  0  0  0  2  0  0  0  0  0  0
  182.7840  176.4610  138.7630 N   0  0  0  0  0  1  0  0  0  0  0  0
  188.7370  177.0420  140.2710 C   0  0  2  0  0  3  0  0  0  0  0  0
  185.7370  178.2750  138.2360 C   0  0  0  0  0  3  0  0  0  0  0  0
  189.4760  178.5460  138.3920 N   0  0  0  0  0  2  0  0  0  0  0  0
  191.3750  177.2300  141.2880 C   0  0  0  0  0  3  0  0  0  0  0  0
  181.6970  178.8780  142.0700 N   0  0  0  0  0  0  0  0  0  0  0  0
  183.0890  178.0300  140.6800 C   0  0  0  0  0  0  0  0  0  0  0  0
  189.1080  176.7250  141.6480 N   0  0  0  0  0  2  0  0  0  0  0  0
  182.8830  179.0100  142.5910 O   0  0  0  0  0  0  0  0  0  0  0  0
  183.7790  178.4950  141.7830 C   0  0  0  0  0  0  0  0  0  0  0  0
  189.8130  177.8450  139.5910 C   0  0  0  0  0  0  0  0  0  0  0  0
  190.4570  176.7060  142.0410 N   0  0  0  0  0  0  0  0  0  0  0  0
  183.6150  177.3740  139.4710 C   0  0  0  0  0  0  0  0  0  0  0  0
  181.7820  178.2710  140.8950 N   0  0  0  0  0  0  0  0  0  0  0  0
  188.1100  178.6190  137.9640 C   0  0  0  0  0  3  0  0  0  0  0  0
  187.3880  177.7710  140.1830 C   0  0  2  0  0  3  0  0  0  0  0  0
  185.9730  179.4360  141.3510 N   0  0  0  0  0  2  0  0  0  0  0  0
  187.1080  178.2130  138.7600 C   0  0  0  0  0  0  0  0  0  0  0  0
  185.2450  178.3940  142.0600 C   0  0  1  0  0  3  0  0  0  0  0  0
  184.6930  177.8220  138.8820 C   0  0  0  0  0  0  0  0  0  0  0  0
  185.5450  178.4380  143.5560 C   0  0  0  0  0  2  0  0  0  0  0  0
  186.3620  177.2220  143.9660 C   0  0  0  0  0  2  0  0  0  0  0  0
  186.4650  177.1670  145.3590 O   0  0  0  0  0  0  0  0  0  0  0  0
  189.1310  176.8910  146.4940 C   0  0  1  0  0  3  0  0  0  0  0  0
  187.2010  178.3010  145.7150 C   0  0  1  0  0  3  0  0  0  0  0  0
  187.5350  177.8200  148.1810 C   0  0  0  0  0  3  0  0  0  0  0  0
  186.8880  178.7160  147.1570 C   0  0  0  0  0  2  0  0  0  0  0  0
  188.5790  177.0290  147.8920 C   0  0  0  0  0  3  0  0  0  0  0  0
  188.6990  178.0330  145.5670 C   0  0  0  0  0  2  0  0  0  0  0  0
  191.2220  175.9590  147.5430 N   0  0  0  0  0  2  0  0  0  0  0  0
  192.6610  175.7690  147.6190 C   0  0  0  0  0  1  0  0  0  0  0  0
  190.6150  176.7500  146.5200 C   0  0  0  0  0  0  0  0  0  0  0  0
  191.3260  177.3270  145.6510 O   0  0  0  0  0  0  0  0  0  0  0  0
  1  7  1  0  0  0  0
  2 19  1  0  0  0  0
  3 15  1  0  0  0  0
  4 13  1  1  0  0  0
  4 10  1  0  0  0  0
  5 20  1  0  0  0  0
  5 22  2  0  0  0  0
  6 13  1  0  0  0  0
  7 14  2  0  0  0  0
  8 11  1  0  0  0  0
  9 16  1  0  0  0  0
  9 12  2  0  0  0  0
 10 14  1  0  0  0  0
 12 21  1  0  0  0  0
 12 11  1  0  0  0  0
 13  1  2  0  0  0  0
 15  9  1  0  0  0  0
 16  8  2  0  0  0  0
 17  6  1  0  0  0  0
 17 20  2  0  0  0  0
 18  4  1  0  0  0  0
 18  2  1  1  0  0  0
 19 21  1  0  0  0  0
 20 18  1  0  0  0  0
 21 23  1  1  0  0  0
 22 15  2  0  0  0  0
 23 24  1  0  0  0  0
 24 25  1  0  0  0  0
 26 34  1  1  0  0  0
 26 30  1  0  0  0  0
 27 25  1  1  0  0  0
 27 29  1  0  0  0  0
 29 28  1  0  0  0  0
 30 28  2  0  0  0  0
 31 27  1  0  0  0  0
 31 26  1  0  0  0  0
 32 33  1  0  0  0  0
 34 32  1  0  0  0  0
 35 34  2  0  0  0  0
M  END
>  <MODEL>
3

>  <REMARK>
 VINA RESULT:      -8.7      2.715      4.067
  Name = 
  5 active torsions:
  status: ('A' for Active; 'I' for Inactive)
    1  A    between atoms: C_2  and  C_22
    2  A    between atoms: C_6  and  O_20
    3  A    between atoms: C_18  and  O_20
    4  A    between atoms: C_18  and  C_24
    5  A    between atoms: C_24  and  C_34
                            x       y       z     vdW  Elec       q    Type
                         _______ _______ _______ _____ _____    ______ ____

>  <TORSDO>
F 5

$$$$
=
 OpenBabel11042410303D

 35 39  0  0  1  0  0  0  0  0999 V2000
  191.1920  177.3750  144.5370 N   0  0  0  0  0  0  0  0  0  0  0  0
  188.9120  178.5870  141.4870 C   0  0  0  0  0  2  0  0  0  0  0  0
  188.0280  175.1290  137.0180 N   0  0  0  0  0  1  0  0  0  0  0  0
  189.7010  176.5570  142.7810 C   0  0  2  0  0  3  0  0  0  0  0  0
  190.3800  176.7880  139.0200 C   0  0  0  0  0  3  0  0  0  0  0  0
  192.0620  177.3090  142.3330 N   0  0  0  0  0  2  0  0  0  0  0  0
  190.1310  177.2530  145.4940 C   0  0  0  0  0  3  0  0  0  0  0  0
  185.4930  178.5220  136.8990 N   0  0  0  0  0  0  0  0  0  0  0  0
  187.0420  177.3050  137.7400 C   0  0  0  0  0  0  0  0  0  0  0  0
  188.6290  176.7870  143.7470 N   0  0  0  0  0  2  0  0  0  0  0  0
  185.6480  178.9030  138.1350 O   0  0  0  0  0  0  0  0  0  0  0  0
  186.5820  178.1800  138.7050 C   0  0  0  0  0  0  0  0  0  0  0  0
  191.0070  177.1150  143.2780 C   0  0  0  0  0  0  0  0  0  0  0  0
  188.9200  176.9900  145.1060 N   0  0  0  0  0  0  0  0  0  0  0  0
  188.0970  176.2840  137.8480 C   0  0  0  0  0  0  0  0  0  0  0  0
  186.3300  177.5330  136.6200 N   0  0  0  0  0  0  0  0  0  0  0  0
  191.8090  177.1420  140.9320 C   0  0  0  0  0  3  0  0  0  0  0  0
  189.3690  177.1260  141.3940 C   0  0  2  0  0  3  0  0  0  0  0  0
  188.2400  179.0200  140.2640 N   0  0  0  0  0  2  0  0  0  0  0  0
  190.5590  177.0000  140.4630 C   0  0  0  0  0  0  0  0  0  0  0  0
  186.9980  178.2700  140.1380 C   0  0  1  0  0  3  0  0  0  0  0  0
  189.2220  176.5450  138.4610 C   0  0  0  0  0  0  0  0  0  0  0  0
  185.9030  178.8750  141.0120 C   0  0  0  0  0  2  0  0  0  0  0  0
  184.9990  177.7800  141.5600 C   0  0  0  0  0  2  0  0  0  0  0  0
  185.1020  177.7320  142.9530 O   0  0  0  0  0  0  0  0  0  0  0  0
  185.4560  178.4080  145.7620 C   0  0  1  0  0  3  0  0  0  0  0  0
  185.0730  179.0680  143.3660 C   0  0  1  0  0  3  0  0  0  0  0  0
  183.1370  178.9520  144.9980 C   0  0  0  0  0  3  0  0  0  0  0  0
  183.6380  179.5010  143.6870 C   0  0  0  0  0  2  0  0  0  0  0  0
  183.9620  178.5010  145.9550 C   0  0  0  0  0  3  0  0  0  0  0  0
  185.9600  179.2640  144.5960 C   0  0  0  0  0  2  0  0  0  0  0  0
  187.1990  177.8580  147.4940 N   0  0  0  0  0  2  0  0  0  0  0  0
  187.9490  178.1260  148.7100 C   0  0  0  0  0  1  0  0  0  0  0  0
  186.1760  178.7380  147.0250 C   0  0  0  0  0  0  0  0  0  0  0  0
  185.8820  179.7790  147.6730 O   0  0  0  0  0  0  0  0  0  0  0  0
  1  7  1  0  0  0  0
  3 15  1  0  0  0  0
  4 13  1  1  0  0  0
  4 10  1  0  0  0  0
  5 20  1  0  0  0  0
  6 13  1  0  0  0  0
  8 11  1  0  0  0  0
  9 15  1  0  0  0  0
  9 12  2  0  0  0  0
 10 14  1  0  0  0  0
 11 12  1  0  0  0  0
 12 21  1  0  0  0  0
 13  1  2  0  0  0  0
 14  7  2  0  0  0  0
 15 22  2  0  0  0  0
 16  8  2  0  0  0  0
 16  9  1  0  0  0  0
 17  6  1  0  0  0  0
 18  2  1  1  0  0  0
 18  4  1  0  0  0  0
 19  2  1  0  0  0  0
 20 17  2  0  0  0  0
 20 18  1  0  0  0  0
 21 19  1  0  0  0  0
 21 23  1  1  0  0  0
 22  5  2  0  0  0  0
 23 24  1  0  0  0  0
 24 25  1  0  0  0  0
 26 30  1  0  0  0  0
 26 34  1  1  0  0  0
 27 25  1  1  0  0  0
 27 29  1  0  0  0  0
 27 31  1  0  0  0  0
 28 30  2  0  0  0  0
 29 28  1  0  0  0  0
 31 26  1  0  0  0  0
 32 33  1  0  0  0  0
 34 32  1  0  0  0  0
 34 35  2  0  0  0  0
M  END
>  <MODEL>
4

>  <REMARK>
 VINA RESULT:      -8.6      2.464      5.187
  Name = 
  5 active torsions:
  status: ('A' for Active; 'I' for Inactive)
    1  A    between atoms: C_2  and  C_22
    2  A    between atoms: C_6  and  O_20
    3  A    between atoms: C_18  and  O_20
    4  A    between atoms: C_18  and  C_24
    5  A    between atoms: C_24  and  C_34
                            x       y       z     vdW  Elec       q    Type
                         _______ _______ _______ _____ _____    ______ ____

>  <TORSDO>
F 5

$$$$
=
 OpenBabel11042410303D

 35 39  0  0  1  0  0  0  0  0999 V2000
  186.1740  175.1760  134.6270 N   0  0  0  0  0  0  0  0  0  0  0  0
  188.7290  175.7880  137.6380 C   0  0  0  0  0  2  0  0  0  0  0  0
  194.3050  176.4750  136.5700 N   0  0  0  0  0  1  0  0  0  0  0  0
  188.2990  176.2470  135.1840 C   0  0  2  0  0  3  0  0  0  0  0  0
  191.4900  174.4130  136.2380 C   0  0  0  0  0  3  0  0  0  0  0  0
  188.0620  173.7620  134.8590 N   0  0  0  0  0  2  0  0  0  0  0  0
  185.5110  176.4450  134.7160 C   0  0  0  0  0  3  0  0  0  0  0  0
  193.3560  177.4010  140.5940 N   0  0  0  0  0  0  0  0  0  0  0  0
  192.8900  176.7530  138.6070 C   0  0  0  0  0  0  0  0  0  0  0  0
  187.4840  177.3980  135.5680 N   0  0  0  0  0  2  0  0  0  0  0  0
  192.0650  177.5030  140.4530 O   0  0  0  0  0  0  0  0  0  0  0  0
  191.7230  177.1280  139.2440 C   0  0  0  0  0  0  0  0  0  0  0  0
  187.4390  175.0480  134.8900 C   0  0  0  0  0  0  0  0  0  0  0  0
  186.1380  177.4840  135.1770 N   0  0  0  0  0  0  0  0  0  0  0  0
  193.0710  176.2410  137.2380 C   0  0  0  0  0  0  0  0  0  0  0  0
  193.9010  176.9490  139.4740 N   0  0  0  0  0  0  0  0  0  0  0  0
  189.4260  173.6160  135.2760 C   0  0  0  0  0  3  0  0  0  0  0  0
  189.3560  175.9020  136.2430 C   0  0  2  0  0  3  0  0  0  0  0  0
  189.7420  175.8410  138.6900 N   0  0  0  0  0  2  0  0  0  0  0  0
  190.0800  174.6200  135.8810 C   0  0  0  0  0  0  0  0  0  0  0  0
  190.3390  177.1690  138.6790 C   0  0  1  0  0  3  0  0  0  0  0  0
  192.2540  175.3460  136.7440 C   0  0  0  0  0  0  0  0  0  0  0  0
  189.4540  178.1720  139.4130 C   0  0  0  0  0  2  0  0  0  0  0  0
  188.6160  177.4640  140.4680 C   0  0  0  0  0  2  0  0  0  0  0  0
  189.1330  177.7260  141.7400 O   0  0  0  0  0  0  0  0  0  0  0  0
  188.8320  177.7790  144.6350 C   0  0  1  0  0  3  0  0  0  0  0  0
  188.9620  176.5350  142.4540 C   0  0  1  0  0  3  0  0  0  0  0  0
  190.9800  176.6770  143.9810 C   0  0  0  0  0  3  0  0  0  0  0  0
  190.3200  175.9410  142.8430 C   0  0  0  0  0  2  0  0  0  0  0  0
  190.2980  177.4720  144.8190 C   0  0  0  0  0  3  0  0  0  0  0  0
  188.1260  176.7830  143.7100 C   0  0  0  0  0  2  0  0  0  0  0  0
  188.9070  177.7640  147.1520 N   0  0  0  0  0  2  0  0  0  0  0  0
  188.2980  177.8640  148.4680 C   0  0  0  0  0  1  0  0  0  0  0  0
  188.1410  177.8770  145.9520 C   0  0  0  0  0  0  0  0  0  0  0  0
  186.8920  178.0540  146.0040 O   0  0  0  0  0  0  0  0  0  0  0  0
  1  7  1  0  0  0  0
  1 13  2  0  0  0  0
  2 19  1  0  0  0  0
  3 15  1  0  0  0  0
  4 13  1  1  0  0  0
  4 10  1  0  0  0  0
  4 18  1  0  0  0  0
  5 22  2  0  0  0  0
  6 13  1  0  0  0  0
  6 17  1  0  0  0  0
  7 14  2  0  0  0  0
  9 12  2  0  0  0  0
  9 16  1  0  0  0  0
 11  8  1  0  0  0  0
 12 11  1  0  0  0  0
 14 10  1  0  0  0  0
 15  9  1  0  0  0  0
 16  8  2  0  0  0  0
 17 20  2  0  0  0  0
 18  2  1  1  0  0  0
 20  5  1  0  0  0  0
 20 18  1  0  0  0  0
 21 19  1  0  0  0  0
 21 12  1  0  0  0  0
 21 23  1  1  0  0  0
 22 15  2  0  0  0  0
 23 24  1  0  0  0  0
 24 25  1  0  0  0  0
 26 30  1  0  0  0  0
 26 34  1  1  0  0  0
 27 25  1  1  0  0  0
 27 29  1  0  0  0  0
 27 31  1  0  0  0  0
 28 30  2  0  0  0  0
 29 28  1  0  0  0  0
 31 26  1  0  0  0  0
 32 33  1  0  0  0  0
 34 35  2  0  0  0  0
 34 32  1  0  0  0  0
M  END
>  <MODEL>
5

>  <REMARK>
 VINA RESULT:      -8.2      2.332      4.979
  Name = 
  5 active torsions:
  status: ('A' for Active; 'I' for Inactive)
    1  A    between atoms: C_2  and  C_22
    2  A    between atoms: C_6  and  O_20
    3  A    between atoms: C_18  and  O_20
    4  A    between atoms: C_18  and  C_24
    5  A    between atoms: C_24  and  C_34
                            x       y       z     vdW  Elec       q    Type
                         _______ _______ _______ _____ _____    ______ ____

>  <TORSDO>
F 5

$$$$
=
 OpenBabel11042410303D

 35 39  0  0  1  0  0  0  0  0999 V2000
  189.1910  177.4450  136.6310 N   0  0  0  0  0  0  0  0  0  0  0  0
  188.6580  176.8250  140.5430 C   0  0  0  0  0  2  0  0  0  0  0  0
  192.0550  179.4170  144.3440 N   0  0  0  0  0  1  0  0  0  0  0  0
  189.4690  178.4960  138.8200 C   0  0  2  0  0  3  0  0  0  0  0  0
  191.8550  177.2930  141.5630 C   0  0  0  0  0  3  0  0  0  0  0  0
  191.0140  176.7070  137.9530 N   0  0  0  0  0  2  0  0  0  0  0  0
  187.9900  178.2010  136.4210 C   0  0  0  0  0  3  0  0  0  0  0  0
  188.7500  177.5430  146.2190 N   0  0  0  0  0  0  0  0  0  0  0  0
  189.9560  178.0800  144.5330 C   0  0  0  0  0  0  0  0  0  0  0  0
  188.0910  178.9500  138.6470 N   0  0  0  0  0  2  0  0  0  0  0  0
  188.0170  177.3710  145.1560 O   0  0  0  0  0  0  0  0  0  0  0  0
  188.7060  177.6970  144.0880 C   0  0  0  0  0  0  0  0  0  0  0  0
  189.8580  177.5210  137.7420 C   0  0  0  0  0  0  0  0  0  0  0  0
  187.4710  178.8960  137.3880 N   0  0  0  0  0  0  0  0  0  0  0  0
  191.1180  178.5290  143.7460 C   0  0  0  0  0  0  0  0  0  0  0  0
  189.9500  177.9870  145.8760 N   0  0  0  0  0  0  0  0  0  0  0  0
  191.6660  176.7050  139.2300 C   0  0  0  0  0  3  0  0  0  0  0  0
  189.7140  177.8870  140.2080 C   0  0  2  0  0  3  0  0  0  0  0  0
  188.6390  176.5160  141.9710 N   0  0  0  0  0  2  0  0  0  0  0  0
  191.1070  177.2960  140.2980 C   0  0  0  0  0  0  0  0  0  0  0  0
  188.1870  177.7000  142.6860 C   0  0  1  0  0  3  0  0  0  0  0  0
  191.4560  177.9150  142.6420 C   0  0  0  0  0  0  0  0  0  0  0  0
  186.6660  177.8180  142.6420 C   0  0  0  0  0  2  0  0  0  0  0  0
  186.2520  179.0030  141.7830 C   0  0  0  0  0  2  0  0  0  0  0  0
  184.9640  179.4180  142.1330 O   0  0  0  0  0  0  0  0  0  0  0  0
  182.3230  178.6280  141.1990 C   0  0  1  0  0  3  0  0  0  0  0  0
  184.3440  178.2770  142.6530 C   0  0  1  0  0  3  0  0  0  0  0  0
  182.2460  179.3420  143.5940 C   0  0  0  0  0  3  0  0  0  0  0  0
  183.5360  178.6280  143.9070 C   0  0  0  0  0  2  0  0  0  0  0  0
  181.6740  179.3030  142.3820 C   0  0  0  0  0  3  0  0  0  0  0  0
  183.4270  177.6450  141.6050 C   0  0  0  0  0  2  0  0  0  0  0  0
  181.6960  176.8810  139.4960 N   0  0  0  0  0  2  0  0  0  0  0  0
  180.7490  176.1830  138.6430 C   0  0  0  0  0  1  0  0  0  0  0  0
  181.3010  177.9660  140.3380 C   0  0  0  0  0  0  0  0  0  0  0  0
  180.1040  178.3620  140.3520 O   0  0  0  0  0  0  0  0  0  0  0  0
  1 13  2  0  0  0  0
  2 19  1  0  0  0  0
  4 13  1  6  0  0  0
  4 18  1  0  0  0  0
  5 22  2  0  0  0  0
  6 17  1  0  0  0  0
  7  1  1  0  0  0  0
  7 14  2  0  0  0  0
  9 16  1  0  0  0  0
 10  4  1  0  0  0  0
 11  8  1  0  0  0  0
 12  9  2  0  0  0  0
 12 11  1  0  0  0  0
 13  6  1  0  0  0  0
 14 10  1  0  0  0  0
 15  3  1  0  0  0  0
 15  9  1  0  0  0  0
 16  8  2  0  0  0  0
 17 20  2  0  0  0  0
 18 20  1  0  0  0  0
 18  2  1  6  0  0  0
 19 21  1  0  0  0  0
 20  5  1  0  0  0  0
 21 23  1  1  0  0  0
 21 12  1  0  0  0  0
 22 15  2  0  0  0  0
 24 25  1  0  0  0  0
 24 23  1  0  0  0  0
 26 34  1  1  0  0  0
 26 31  1  0  0  0  0
 26 30  1  0  0  0  0
 27 25  1  6  0  0  0
 27 29  1  0  0  0  0
 28 29  1  0  0  0  0
 30 28  2  0  0  0  0
 31 27  1  0  0  0  0
 32 34  1  0  0  0  0
 33 32  1  0  0  0  0
 34 35  2  0  0  0  0
M  END
>  <MODEL>
6

>  <REMARK>
 VINA RESULT:      -8.1      2.986      6.701
  Name = 
  5 active torsions:
  status: ('A' for Active; 'I' for Inactive)
    1  A    between atoms: C_2  and  C_22
    2  A    between atoms: C_6  and  O_20
    3  A    between atoms: C_18  and  O_20
    4  A    between atoms: C_18  and  C_24
    5  A    between atoms: C_24  and  C_34
                            x       y       z     vdW  Elec       q    Type
                         _______ _______ _______ _____ _____    ______ ____

>  <TORSDO>
F 5

$$$$
=
 OpenBabel11042410303D

 35 39  0  0  1  0  0  0  0  0999 V2000
  189.0960  177.7040  136.2940 N   0  0  0  0  0  0  0  0  0  0  0  0
  186.0760  178.9140  138.6140 C   0  0  0  0  0  2  0  0  0  0  0  0
  181.5560  175.5090  139.4420 N   0  0  0  0  0  1  0  0  0  0  0  0
  187.3340  176.8820  137.7750 C   0  0  2  0  0  3  0  0  0  0  0  0
  183.5740  177.1870  137.1190 C   0  0  0  0  0  3  0  0  0  0  0  0
  186.8880  177.6920  135.4330 N   0  0  0  0  0  2  0  0  0  0  0  0
  190.0560  177.5430  137.3470 C   0  0  0  0  0  3  0  0  0  0  0  0
  181.5020  178.8460  142.0520 N   0  0  0  0  0  0  0  0  0  0  0  0
  182.3170  177.6510  140.4730 C   0  0  0  0  0  0  0  0  0  0  0  0
  188.3080  177.0720  138.8470 N   0  0  0  0  0  2  0  0  0  0  0  0
  182.7430  179.2110  141.9000 O   0  0  0  0  0  0  0  0  0  0  0  0
  183.2970  178.4990  140.9480 C   0  0  0  0  0  0  0  0  0  0  0  0
  187.8340  177.4600  136.4790 C   0  0  0  0  0  0  0  0  0  0  0  0
  189.6690  177.2600  138.5540 N   0  0  0  0  0  0  0  0  0  0  0  0
  182.4040  176.6510  139.3950 C   0  0  0  0  0  0  0  0  0  0  0  0
  181.2030  177.8810  141.1950 N   0  0  0  0  0  0  0  0  0  0  0  0
  185.4850  177.5430  135.6890 C   0  0  0  0  0  3  0  0  0  0  0  0
  185.9570  177.4640  138.1250 C   0  0  2  0  0  3  0  0  0  0  0  0
  184.8630  179.3510  139.3020 N   0  0  0  0  0  2  0  0  0  0  0  0
  185.0190  177.3800  136.9380 C   0  0  0  0  0  0  0  0  0  0  0  0
  184.7300  178.5760  140.5270 C   0  0  1  0  0  3  0  0  0  0  0  0
  183.0160  176.9270  138.2730 C   0  0  0  0  0  0  0  0  0  0  0  0
  185.6180  179.1430  141.6300 C   0  0  0  0  0  2  0  0  0  0  0  0
  186.3740  178.0220  142.3290 C   0  0  0  0  0  2  0  0  0  0  0  0
  187.7490  178.2630  142.2640 O   0  0  0  0  0  0  0  0  0  0  0  0
  188.9390  177.8620  144.8900 C   0  0  1  0  0  3  0  0  0  0  0  0
  188.3480  177.0410  142.5880 C   0  0  1  0  0  3  0  0  0  0  0  0
  190.6920  177.8560  143.1050 C   0  0  0  0  0  3  0  0  0  0  0  0
  189.8250  177.0400  142.1800 C   0  0  0  0  0  2  0  0  0  0  0  0
  190.3100  178.1880  144.3480 C   0  0  0  0  0  3  0  0  0  0  0  0
  188.2260  176.7690  144.0880 C   0  0  0  0  0  2  0  0  0  0  0  0
  187.9320  177.8810  147.1980 N   0  0  0  0  0  2  0  0  0  0  0  0
  187.9320  177.5580  148.6150 C   0  0  0  0  0  1  0  0  0  0  0  0
  189.0110  177.5110  146.3370 C   0  0  0  0  0  0  0  0  0  0  0  0
  190.0140  176.8970  146.7950 O   0  0  0  0  0  0  0  0  0  0  0  0
  1 13  2  0  0  0  0
  1  7  1  0  0  0  0
  2 19  1  0  0  0  0
  4 13  1  6  0  0  0
  4 18  1  0  0  0  0
  4 10  1  0  0  0  0
  5 22  2  0  0  0  0
  6 17  1  0  0  0  0
  6 13  1  0  0  0  0
  7 14  2  0  0  0  0
  9 12  2  0  0  0  0
  9 16  1  0  0  0  0
 11  8  1  0  0  0  0
 12 11  1  0  0  0  0
 14 10  1  0  0  0  0
 15  3  1  0  0  0  0
 15  9  1  0  0  0  0
 16  8  2  0  0  0  0
 17 20  2  0  0  0  0
 18  2  1  6  0  0  0
 19 21  1  0  0  0  0
 20  5  1  0  0  0  0
 20 18  1  0  0  0  0
 21 12  1  0  0  0  0
 21 23  1  1  0  0  0
 22 15  2  0  0  0  0
 23 24  1  0  0  0  0
 25 24  1  0  0  0  0
 26 34  1  1  0  0  0
 27 25  1  1  0  0  0
 27 31  1  0  0  0  0
 28 30  2  0  0  0  0
 29 27  1  0  0  0  0
 29 28  1  0  0  0  0
 30 26  1  0  0  0  0
 31 26  1  0  0  0  0
 32 33  1  0  0  0  0
 34 35  2  0  0  0  0
 34 32  1  0  0  0  0
M  END
>  <MODEL>
7

>  <REMARK>
 VINA RESULT:      -8.1      2.235      3.064
  Name = 
  5 active torsions:
  status: ('A' for Active; 'I' for Inactive)
    1  A    between atoms: C_2  and  C_22
    2  A    between atoms: C_6  and  O_20
    3  A    between atoms: C_18  and  O_20
    4  A    between atoms: C_18  and  C_24
    5  A    between atoms: C_24  and  C_34
                            x       y       z     vdW  Elec       q    Type
                         _______ _______ _______ _____ _____    ______ ____

>  <TORSDO>
F 5

$$$$
=
 OpenBabel11042410303D

 35 39  0  0  1  0  0  0  0  0999 V2000
  185.0720  176.8720  137.2290 N   0  0  0  0  0  0  0  0  0  0  0  0
  188.8140  176.0950  138.3960 C   0  0  0  0  0  2  0  0  0  0  0  0
  193.0840  176.2180  134.5940 N   0  0  0  0  0  1  0  0  0  0  0  0
  187.4090  177.3700  136.7170 C   0  0  2  0  0  3  0  0  0  0  0  0
  189.9920  174.8270  135.4840 C   0  0  0  0  0  3  0  0  0  0  0  0
  186.3110  175.1840  136.1200 N   0  0  0  0  0  2  0  0  0  0  0  0
  184.9500  178.1330  137.9010 C   0  0  0  0  0  3  0  0  0  0  0  0
  194.5320  175.9530  138.5670 N   0  0  0  0  0  0  0  0  0  0  0  0
  192.9910  176.0490  137.0820 C   0  0  0  0  0  0  0  0  0  0  0  0
  187.2700  178.4500  137.6910 N   0  0  0  0  0  2  0  0  0  0  0  0
  193.4330  176.2920  139.1790 O   0  0  0  0  0  0  0  0  0  0  0  0
  192.4540  176.3780  138.3110 C   0  0  0  0  0  0  0  0  0  0  0  0
  186.2000  176.4740  136.7250 C   0  0  0  0  0  0  0  0  0  0  0  0
  186.0000  178.8630  138.1270 N   0  0  0  0  0  0  0  0  0  0  0  0
  192.3230  175.9770  135.7710 C   0  0  0  0  0  0  0  0  0  0  0  0
  194.3010  175.8010  137.2710 N   0  0  0  0  0  0  0  0  0  0  0  0
  187.5900  174.7050  135.6830 C   0  0  0  0  0  3  0  0  0  0  0  0
  188.6870  176.5480  136.9350 C   0  0  2  0  0  3  0  0  0  0  0  0
  190.1720  175.6550  138.7070 N   0  0  0  0  0  2  0  0  0  0  0  0
  188.7220  175.3520  136.0040 C   0  0  0  0  0  0  0  0  0  0  0  0
  191.0550  176.8090  138.6170 C   0  0  1  0  0  3  0  0  0  0  0  0
  191.1450  175.4220  135.6510 C   0  0  0  0  0  0  0  0  0  0  0  0
  190.9850  177.6510  139.8880 C   0  0  0  0  0  2  0  0  0  0  0  0
  190.8770  176.7520  141.1120 C   0  0  0  0  0  2  0  0  0  0  0  0
  189.6430  176.9480  141.7380 O   0  0  0  0  0  0  0  0  0  0  0  0
  188.5230  177.6760  144.3250 C   0  0  1  0  0  3  0  0  0  0  0  0
  189.6130  176.0170  142.7810 C   0  0  1  0  0  3  0  0  0  0  0  0
  190.9870  177.2780  144.4980 C   0  0  0  0  0  3  0  0  0  0  0  0
  190.9120  176.0750  143.5920 C   0  0  0  0  0  2  0  0  0  0  0  0
  189.9000  177.9730  144.8670 C   0  0  0  0  0  3  0  0  0  0  0  0
  188.4180  176.2810  143.6980 C   0  0  0  0  0  2  0  0  0  0  0  0
  186.1870  178.3330  144.9950 N   0  0  0  0  0  2  0  0  0  0  0  0
  185.1250  178.5360  145.9670 C   0  0  0  0  0  1  0  0  0  0  0  0
  187.4850  177.8750  145.3760 C   0  0  0  0  0  0  0  0  0  0  0  0
  187.7520  177.6440  146.5880 O   0  0  0  0  0  0  0  0  0  0  0  0
  1  7  1  0  0  0  0
  2 19  1  0  0  0  0
  3 15  1  0  0  0  0
  4 13  1  1  0  0  0
  4 18  1  0  0  0  0
  4 10  1  0  0  0  0
  5 22  2  0  0  0  0
  5 20  1  0  0  0  0
  6 13  1  0  0  0  0
  7 14  2  0  0  0  0
  8 11  1  0  0  0  0
  9 16  1  0  0  0  0
  9 12  2  0  0  0  0
 10 14  1  0  0  0  0
 12 21  1  0  0  0  0
 12 11  1  0  0  0  0
 13  1  2  0  0  0  0
 15  9  1  0  0  0  0
 16  8  2  0  0  0  0
 17 20  2  0  0  0  0
 17  6  1  0  0  0  0
 18  2  1  1  0  0  0
 20 18  1  0  0  0  0
 21 19  1  0  0  0  0
 21 23  1  1  0  0  0
 22 15  2  0  0  0  0
 23 24  1  0  0  0  0
 24 25  1  0  0  0  0
 26 30  1  0  0  0  0
 26 34  1  1  0  0  0
 27 25  1  6  0  0  0
 27 29  1  0  0  0  0
 27 31  1  0  0  0  0
 28 30  2  0  0  0  0
 29 28  1  0  0  0  0
 31 26  1  0  0  0  0
 32 34  1  0  0  0  0
 32 33  1  0  0  0  0
 34 35  2  0  0  0  0
M  END
>  <MODEL>
8

>  <REMARK>
 VINA RESULT:      -8.1      1.648      5.150
  Name = 
  5 active torsions:
  status: ('A' for Active; 'I' for Inactive)
    1  A    between atoms: C_2  and  C_22
    2  A    between atoms: C_6  and  O_20
    3  A    between atoms: C_18  and  O_20
    4  A    between atoms: C_18  and  C_24
    5  A    between atoms: C_24  and  C_34
                            x       y       z     vdW  Elec       q    Type
                         _______ _______ _______ _____ _____    ______ ____

>  <TORSDO>
F 5

$$$$
=
 OpenBabel11042410303D

 35 39  0  0  1  0  0  0  0  0999 V2000
  189.1660  177.8480  146.0630 N   0  0  0  0  0  0  0  0  0  0  0  0
  188.6890  178.6880  142.1850 C   0  0  0  0  0  2  0  0  0  0  0  0
  190.9500  175.2520  138.2110 N   0  0  0  0  0  1  0  0  0  0  0  0
  189.0110  176.8110  143.8550 C   0  0  2  0  0  3  0  0  0  0  0  0
  191.5360  177.2730  141.0140 C   0  0  0  0  0  3  0  0  0  0  0  0
  191.0710  178.0120  144.6640 N   0  0  0  0  0  2  0  0  0  0  0  0
  187.7990  177.4980  146.3220 C   0  0  0  0  0  3  0  0  0  0  0  0
  188.3160  178.0990  136.5050 N   0  0  0  0  0  0  0  0  0  0  0  0
  189.3650  177.1780  138.1300 C   0  0  0  0  0  0  0  0  0  0  0  0
  187.5690  176.8040  144.0890 N   0  0  0  0  0  2  0  0  0  0  0  0
  187.7180  178.4670  137.6020 O   0  0  0  0  0  0  0  0  0  0  0  0
  188.3150  177.9200  138.6340 C   0  0  0  0  0  0  0  0  0  0  0  0
  189.7290  177.5930  144.9210 C   0  0  0  0  0  0  0  0  0  0  0  0
  187.0500  177.0200  145.3760 N   0  0  0  0  0  0  0  0  0  0  0  0
  190.3610  176.3740  138.8580 C   0  0  0  0  0  0  0  0  0  0  0  0
  189.3320  177.2970  136.7890 N   0  0  0  0  0  0  0  0  0  0  0  0
  191.6370  177.8400  143.3580 C   0  0  0  0  0  3  0  0  0  0  0  0
  189.3750  177.3440  142.4620 C   0  0  2  0  0  3  0  0  0  0  0  0
  188.7080  179.0180  140.7620 N   0  0  0  0  0  2  0  0  0  0  0  0
  190.8780  177.4750  142.3120 C   0  0  0  0  0  0  0  0  0  0  0  0
  187.8800  178.0480  140.0590 C   0  0  1  0  0  3  0  0  0  0  0  0
  190.9190  176.8290  139.9500 C   0  0  0  0  0  0  0  0  0  0  0  0
  186.4020  178.4080  140.1730 C   0  0  0  0  0  2  0  0  0  0  0  0
  186.1760  179.3520  141.3440 C   0  0  0  0  0  2  0  0  0  0  0  0
  184.8060  179.5160  141.5660 O   0  0  0  0  0  0  0  0  0  0  0  0
  181.9550  178.9590  141.7470 C   0  0  1  0  0  3  0  0  0  0  0  0
  184.3580  178.2670  142.0080 C   0  0  1  0  0  3  0  0  0  0  0  0
  183.0010  179.0030  144.0180 C   0  0  0  0  0  3  0  0  0  0  0  0
  184.2160  178.2540  143.5340 C   0  0  0  0  0  2  0  0  0  0  0  0
  181.9580  179.2810  143.2210 C   0  0  0  0  0  3  0  0  0  0  0  0
  183.0160  177.9230  141.3610 C   0  0  0  0  0  2  0  0  0  0  0  0
  180.3900  177.1810  140.8910 N   0  0  0  0  0  2  0  0  0  0  0  0
  179.0900  176.6980  140.4560 C   0  0  0  0  0  1  0  0  0  0  0  0
  180.5970  178.5350  141.3000 C   0  0  0  0  0  0  0  0  0  0  0  0
  179.6450  179.3620  141.2800 O   0  0  0  0  0  0  0  0  0  0  0  0
  1  7  1  0  0  0  0
  3 15  1  0  0  0  0
  4 10  1  1  0  0  0
  4 13  1  0  0  0  0
  5 20  1  0  0  0  0
  6 13  1  0  0  0  0
  8 16  2  0  0  0  0
  8 11  1  0  0  0  0
  9 12  2  0  0  0  0
  9 15  1  0  0  0  0
 10 14  1  0  0  0  0
 11 12  1  0  0  0  0
 12 21  1  0  0  0  0
 13  1  2  0  0  0  0
 14  7  2  0  0  0  0
 15 22  2  0  0  0  0
 16  9  1  0  0  0  0
 17  6  1  0  0  0  0
 18  2  1  1  0  0  0
 18  4  1  0  0  0  0
 19  2  1  0  0  0  0
 20 18  1  0  0  0  0
 20 17  2  0  0  0  0
 21 23  1  6  0  0  0
 21 19  1  0  0  0  0
 22  5  2  0  0  0  0
 23 24  1  0  0  0  0
 24 25  1  0  0  0  0
 26 34  1  1  0  0  0
 26 30  1  0  0  0  0
 27 25  1  6  0  0  0
 27 29  1  0  0  0  0
 29 28  1  0  0  0  0
 30 28  2  0  0  0  0
 31 26  1  0  0  0  0
 31 27  1  0  0  0  0
 32 34  1  0  0  0  0
 33 32  1  0  0  0  0
 35 34  2  0  0  0  0
M  END
>  <MODEL>
9

>  <REMARK>
 VINA RESULT:      -8.0      2.994      7.051
  Name = 
  5 active torsions:
  status: ('A' for Active; 'I' for Inactive)
    1  A    between atoms: C_2  and  C_22
    2  A    between atoms: C_6  and  O_20
    3  A    between atoms: C_18  and  O_20
    4  A    between atoms: C_18  and  C_24
    5  A    between atoms: C_24  and  C_34
                            x       y       z     vdW  Elec       q    Type
                         _______ _______ _______ _____ _____    ______ ____

>  <TORSDO>
F 5

$$$$
