=
 OpenBabel11042411263D

 55 61  0  0  1  0  0  0  0  0999 V2000
  183.7310  178.3680  141.6620 C   0  0  0  0  0  3  0  0  0  0  0  0
  181.7380  178.8530  142.9700 C   0  0  0  0  0  0  0  0  0  0  0  0
  184.5050  178.3840  142.8250 C   0  0  0  0  0  3  0  0  0  0  0  0
  183.9030  178.6330  144.0600 C   0  0  0  0  0  0  0  0  0  0  0  0
  182.3550  178.6100  141.7240 C   0  0  0  0  0  0  0  0  0  0  0  0
  182.5250  178.8550  144.1330 C   0  0  0  0  0  3  0  0  0  0  0  0
  180.2580  179.0810  143.0620 C   0  0  2  0  0  3  0  0  0  0  0  0
  179.9140  180.5620  143.0050 C   0  0  0  0  0  1  0  0  0  0  0  0
  179.6610  177.2440  144.4200 O   0  0  0  0  0  0  0  0  0  0  0  0
  179.7080  178.4570  144.3060 C   0  0  0  0  0  3  0  0  0  0  0  0
  184.7200  178.6400  145.3060 C   0  0  0  0  0  2  0  0  0  0  0  0
  190.9800  176.7080  145.1030 C   0  0  0  0  0  3  0  0  0  0  0  0
  189.5490  177.1780  141.7170 C   0  0  0  0  0  0  0  0  0  0  0  0
  190.6020  176.8280  146.4480 C   0  0  0  0  0  0  0  0  0  0  0  0
  190.4540  176.8760  142.7470 C   0  0  0  0  0  3  0  0  0  0  0  0
  186.6660  178.1530  147.2880 O   0  0  0  0  0  0  0  0  0  0  0  0
  188.7660  177.4320  144.4050 C   0  0  0  0  0  0  0  0  0  0  0  0
  189.3060  177.2550  146.7650 C   0  0  0  0  0  3  0  0  0  0  0  0
  190.0720  177.0030  144.0850 C   0  0  0  0  0  0  0  0  0  0  0  0
  187.8570  177.7260  143.3730 C   0  0  0  0  0  0  0  0  0  0  0  0
  188.2540  177.6020  142.0380 C   0  0  0  0  0  3  0  0  0  0  0  0
  187.0230  178.0170  146.0860 C   0  0  0  0  0  0  0  0  0  0  0  0
  188.3850  177.5610  145.7540 C   0  0  0  0  0  0  0  0  0  0  0  0
  186.1080  178.3020  145.0170 N   0  0  0  0  0  0  0  0  0  0  0  0
  186.5230  178.1420  143.6830 N   0  0  0  0  0  2  0  0  0  0  0  0
  191.9820  177.4280  148.2800 O   0  0  0  0  0  1  0  0  0  0  0  0
  191.5570  176.5170  147.5220 C   0  0  0  0  0  0  0  0  0  0  0  0
  191.9930  175.2090  147.7160 O   0  0  0  0  0  0  0  0  0  0  0  0
  189.9110  177.0750  140.3710 O   0  0  0  0  0  0  0  0  0  0  0  0
  191.2500  176.8430  139.9540 C   0  0  0  0  0  2  0  0  0  0  0  0
  191.2650  176.4810  138.4810 C   0  0  0  0  0  2  0  0  0  0  0  0
  190.8710  175.1510  138.3100 O   0  0  0  0  0  0  0  0  0  0  0  0
  191.9490  174.5270  137.7740 N   0  0  0  0  0  0  0  0  0  0  0  0
  192.4580  172.7880  136.1790 C   0  0  0  0  0  1  0  0  0  0  0  0
  191.5020  173.9010  136.5560 C   0  0  2  0  0  3  0  0  0  0  0  0
  192.1580  175.0900  136.5250 O   0  0  0  0  0  0  0  0  0  0  0  0
  181.5640  178.5540  140.4590 C   0  0  0  0  0  2  0  0  0  0  0  0
  182.0250  179.5600  139.5670 O   0  0  0  0  0  0  0  0  0  0  0  0
  183.0860  179.3580  138.6770 C   0  0  0  0  0  0  0  0  0  0  0  0
  184.1080  180.0850  138.7850 O   0  0  0  0  0  0  0  0  0  0  0  0
  183.0310  178.3580  137.5910 C   0  0  0  0  0  0  0  0  0  0  0  0
  181.9260  178.1190  137.0380 O   0  0  0  0  0  0  0  0  0  0  0  0
  184.1680  177.6800  137.1390 O   0  0  0  0  0  0  0  0  0  0  0  0
  184.3310  177.2270  135.7980 C   0  0  0  0  0  2  0  0  0  0  0  0
  185.0630  175.8800  135.7490 C   0  0  2  0  0  0  0  0  0  0  0  0
  186.4030  175.9250  135.0130 C   0  0  2  0  0  3  0  0  0  0  0  0
  187.7410  176.3100  137.4900 C   0  0  0  0  0  2  0  0  0  0  0  0
  184.2500  174.9200  135.1480 O   0  0  0  0  0  1  0  0  0  0  0  0
  189.3750  176.8730  135.8610 F   0  0  0  0  0  0  0  0  0  0  0  0
  188.1430  177.2680  136.3520 C   0  0  2  0  0  0  0  0  0  0  0  0
  188.2710  178.6700  136.9100 C   0  0  0  0  0  1  0  0  0  0  0  0
  187.1810  174.9140  135.6080 O   0  0  0  0  0  0  0  0  0  0  0  0
  186.9390  175.0960  136.9840 C   0  0  2  0  0  3  0  0  0  0  0  0
  185.4570  175.4080  137.1270 C   0  0  0  0  0  2  0  0  0  0  0  0
  187.1330  177.2790  135.1890 C   0  0  0  0  0  2  0  0  0  0  0  0
  1  5  2  0  0  0  0
  1  3  1  0  0  0  0
  2  7  1  0  0  0  0
  2  6  2  0  0  0  0
  3  4  2  0  0  0  0
  4  6  1  0  0  0  0
  4 11  1  0  0  0  0
  5  2  1  0  0  0  0
  7  8  1  1  0  0  0
  7 10  1  0  0  0  0
 10  9  2  0  0  0  0
 12 14  1  0  0  0  0
 13 21  1  0  0  0  0
 13 15  2  0  0  0  0
 14 18  2  0  0  0  0
 14 27  1  0  0  0  0
 15 19  1  0  0  0  0
 17 23  2  0  0  0  0
 19 17  1  0  0  0  0
 19 12  2  0  0  0  0
 20 25  1  0  0  0  0
 20 17  1  0  0  0  0
 21 20  2  0  0  0  0
 22 16  2  0  0  0  0
 23 22  1  0  0  0  0
 23 18  1  0  0  0  0
 24 11  1  0  0  0  0
 24 22  1  0  0  0  0
 25 24  1  0  0  0  0
 27 28  2  0  0  0  0
 27 26  1  0  0  0  0
 29 13  1  0  0  0  0
 30 29  1  0  0  0  0
 31 30  1  0  0  0  0
 32 31  1  0  0  0  0
 33 32  1  0  0  0  0
 35 34  1  6  0  0  0
 35 33  1  0  0  0  0
 36 35  1  0  0  0  0
 36 33  1  0  0  0  0
 37  5  1  0  0  0  0
 38 37  1  0  0  0  0
 39 40  2  0  0  0  0
 39 38  1  0  0  0  0
 41 39  1  0  0  0  0
 42 41  2  0  0  0  0
 43 41  1  0  0  0  0
 44 43  1  0  0  0  0
 45 48  1  6  0  0  0
 45 44  1  0  0  0  0
 45 54  1  0  0  0  0
 46 55  1  1  0  0  0
 46 52  1  0  0  0  0
 46 45  1  0  0  0  0
 49 50  1  0  0  0  0
 50 51  1  1  0  0  0
 50 47  1  0  0  0  0
 52 53  1  0  0  0  0
 53 54  1  6  0  0  0
 53 47  1  0  0  0  0
 55 50  1  0  0  0  0
M  END
>  <MODEL>
1

>  <REMARK>
 VINA RESULT:      -9.5      0.000      0.000
  Name = 
  17 active torsions:
  status: ('A' for Active; 'I' for Inactive)
    1  A    between atoms: C_2  and  C_8
    2  A    between atoms: C_2  and  O_48
    3  A    between atoms: O_3  and  C_4
    4  A    between atoms: O_3  and  C_8
    5  A    between atoms: C_4  and  C_7
    6  A    between atoms: C_5  and  C_16
    7  A    between atoms: C_5  and  C_47
    8  A    between atoms: C_6  and  C_22
    9  A    between atoms: C_6  and  N_52
   10  A    between atoms: N_10  and  O_28
   11  A    between atoms: C_11  and  O_36
   12  A    between atoms: C_12  and  C_39
   13  A    between atoms: O_28  and  C_34
   14  A    between atoms: C_34  and  C_44
   15  A    between atoms: O_36  and  C_44
   16  A    between atoms: C_43  and  O_48
   17  A    between atoms: C_43  and  C_49
                            x       y       z     vdW  Elec       q    Type
                         _______ _______ _______ _____ _____    ______ ____

>  <TORSDO>
F 17

$$$$
=
 OpenBabel11042411263D

 55 61  0  0  1  0  0  0  0  0999 V2000
  184.2850  178.5710  141.5690 C   0  0  0  0  0  3  0  0  0  0  0  0
  182.2340  178.7640  142.8620 C   0  0  0  0  0  0  0  0  0  0  0  0
  185.0330  178.5340  142.7480 C   0  0  0  0  0  3  0  0  0  0  0  0
  184.3880  178.6110  143.9840 C   0  0  0  0  0  0  0  0  0  0  0  0
  182.8930  178.6950  141.6150 C   0  0  0  0  0  0  0  0  0  0  0  0
  182.9950  178.7140  144.0410 C   0  0  0  0  0  3  0  0  0  0  0  0
  180.7390  178.8630  142.9350 C   0  0  2  0  0  3  0  0  0  0  0  0
  180.2540  180.2700  142.6210 C   0  0  0  0  0  1  0  0  0  0  0  0
  179.1090  178.0120  144.4180 O   0  0  0  0  0  0  0  0  0  0  0  0
  180.2500  178.4210  144.2780 C   0  0  0  0  0  3  0  0  0  0  0  0
  185.1770  178.5610  145.2480 C   0  0  0  0  0  2  0  0  0  0  0  0
  191.3850  176.4550  145.1920 C   0  0  0  0  0  3  0  0  0  0  0  0
  189.9220  176.5930  141.7890 C   0  0  0  0  0  0  0  0  0  0  0  0
  191.0270  176.7310  146.5200 C   0  0  0  0  0  0  0  0  0  0  0  0
  190.8330  176.3810  142.8370 C   0  0  0  0  0  3  0  0  0  0  0  0
  187.1360  178.2400  147.2500 O   0  0  0  0  0  0  0  0  0  0  0  0
  189.1800  177.1570  144.4420 C   0  0  0  0  0  0  0  0  0  0  0  0
  189.7470  177.2220  146.8010 C   0  0  0  0  0  3  0  0  0  0  0  0
  190.4710  176.6620  144.1570 C   0  0  0  0  0  0  0  0  0  0  0  0
  188.2660  177.3610  143.3930 C   0  0  0  0  0  0  0  0  0  0  0  0
  188.6420  177.0830  142.0760 C   0  0  0  0  0  3  0  0  0  0  0  0
  187.4740  177.9660  146.0670 C   0  0  0  0  0  0  0  0  0  0  0  0
  188.8200  177.4420  145.7730 C   0  0  0  0  0  0  0  0  0  0  0  0
  186.5530  178.1570  144.9830 N   0  0  0  0  0  0  0  0  0  0  0  0
  186.9470  177.8430  143.6700 N   0  0  0  0  0  2  0  0  0  0  0  0
  192.0670  177.3320  148.5630 O   0  0  0  0  0  1  0  0  0  0  0  0
  191.9880  176.5130  147.6110 C   0  0  0  0  0  0  0  0  0  0  0  0
  192.8140  175.3920  147.6060 O   0  0  0  0  0  0  0  0  0  0  0  0
  190.2640  176.3350  140.4590 O   0  0  0  0  0  0  0  0  0  0  0  0
  190.7530  177.3430  139.5850 C   0  0  0  0  0  2  0  0  0  0  0  0
  190.0880  177.2010  138.2290 C   0  0  0  0  0  2  0  0  0  0  0  0
  188.6990  177.2710  138.3660 O   0  0  0  0  0  0  0  0  0  0  0  0
  188.2400  177.6370  137.1430 N   0  0  0  0  0  0  0  0  0  0  0  0
  186.2130  177.5270  135.8360 C   0  0  0  0  0  1  0  0  0  0  0  0
  186.8010  177.6450  137.2270 C   0  0  2  0  0  3  0  0  0  0  0  0
  187.5090  178.8010  137.3220 O   0  0  0  0  0  0  0  0  0  0  0  0
  182.1350  178.7010  140.3300 C   0  0  0  0  0  2  0  0  0  0  0  0
  182.6210  177.6660  139.4870 O   0  0  0  0  0  0  0  0  0  0  0  0
  182.1420  177.4550  138.1890 C   0  0  0  0  0  0  0  0  0  0  0  0
  182.9190  177.6590  137.2200 O   0  0  0  0  0  0  0  0  0  0  0  0
  180.7490  177.0470  137.9150 C   0  0  0  0  0  0  0  0  0  0  0  0
  180.0070  177.8200  137.2540 O   0  0  0  0  0  0  0  0  0  0  0  0
  180.2290  175.8220  138.3430 O   0  0  0  0  0  0  0  0  0  0  0  0
  180.9830  174.6130  138.3660 C   0  0  0  0  0  2  0  0  0  0  0  0
  180.6590  173.7300  137.1540 C   0  0  2  0  0  0  0  0  0  0  0  0
  181.6670  173.8450  136.0100 C   0  0  2  0  0  3  0  0  0  0  0  0
  183.0520  171.5760  137.0140 C   0  0  0  0  0  2  0  0  0  0  0  0
  179.3890  174.0390  136.6680 O   0  0  0  0  0  1  0  0  0  0  0  0
  184.5780  172.5440  135.4730 F   0  0  0  0  0  0  0  0  0  0  0  0
  183.9250  172.7970  136.6670 C   0  0  2  0  0  0  0  0  0  0  0  0
  184.9610  172.9880  137.7550 C   0  0  0  0  0  1  0  0  0  0  0  0
  181.6280  172.5970  135.3610 O   0  0  0  0  0  0  0  0  0  0  0  0
  181.6290  171.6820  136.4320 C   0  0  2  0  0  3  0  0  0  0  0  0
  180.7170  172.2620  137.5010 C   0  0  0  0  0  2  0  0  0  0  0  0
  183.1110  174.0960  136.5140 C   0  0  0  0  0  2  0  0  0  0  0  0
  1  5  2  0  0  0  0
  1  3  1  0  0  0  0
  2  7  1  0  0  0  0
  2  6  2  0  0  0  0
  3  4  2  0  0  0  0
  4  6  1  0  0  0  0
  4 11  1  0  0  0  0
  5  2  1  0  0  0  0
  7  8  1  1  0  0  0
  7 10  1  0  0  0  0
 10  9  2  0  0  0  0
 12 14  1  0  0  0  0
 13 21  1  0  0  0  0
 13 15  2  0  0  0  0
 14 18  2  0  0  0  0
 14 27  1  0  0  0  0
 15 19  1  0  0  0  0
 17 23  2  0  0  0  0
 19 17  1  0  0  0  0
 19 12  2  0  0  0  0
 20 25  1  0  0  0  0
 20 17  1  0  0  0  0
 21 20  2  0  0  0  0
 22 16  2  0  0  0  0
 23 22  1  0  0  0  0
 23 18  1  0  0  0  0
 24 11  1  0  0  0  0
 24 22  1  0  0  0  0
 25 24  1  0  0  0  0
 27 26  1  0  0  0  0
 28 27  2  0  0  0  0
 29 13  1  0  0  0  0
 30 29  1  0  0  0  0
 31 32  1  0  0  0  0
 31 30  1  0  0  0  0
 33 35  1  0  0  0  0
 33 36  1  0  0  0  0
 33 32  1  0  0  0  0
 35 34  1  6  0  0  0
 35 36  1  0  0  0  0
 37  5  1  0  0  0  0
 38 37  1  0  0  0  0
 39 38  1  0  0  0  0
 40 39  2  0  0  0  0
 41 39  1  0  0  0  0
 41 43  1  0  0  0  0
 42 41  2  0  0  0  0
 43 44  1  0  0  0  0
 45 48  1  6  0  0  0
 45 54  1  0  0  0  0
 45 44  1  0  0  0  0
 46 55  1  1  0  0  0
 46 45  1  0  0  0  0
 49 50  1  0  0  0  0
 50 47  1  0  0  0  0
 50 51  1  1  0  0  0
 52 46  1  0  0  0  0
 52 53  1  0  0  0  0
 53 47  1  1  0  0  0
 53 54  1  0  0  0  0
 55 50  1  0  0  0  0
M  END
>  <MODEL>
2

>  <REMARK>
 VINA RESULT:      -9.4      2.447      3.410
  Name = 
  17 active torsions:
  status: ('A' for Active; 'I' for Inactive)
    1  A    between atoms: C_2  and  C_8
    2  A    between atoms: C_2  and  O_48
    3  A    between atoms: O_3  and  C_4
    4  A    between atoms: O_3  and  C_8
    5  A    between atoms: C_4  and  C_7
    6  A    between atoms: C_5  and  C_16
    7  A    between atoms: C_5  and  C_47
    8  A    between atoms: C_6  and  C_22
    9  A    between atoms: C_6  and  N_52
   10  A    between atoms: N_10  and  O_28
   11  A    between atoms: C_11  and  O_36
   12  A    between atoms: C_12  and  C_39
   13  A    between atoms: O_28  and  C_34
   14  A    between atoms: C_34  and  C_44
   15  A    between atoms: O_36  and  C_44
   16  A    between atoms: C_43  and  O_48
   17  A    between atoms: C_43  and  C_49
                            x       y       z     vdW  Elec       q    Type
                         _______ _______ _______ _____ _____    ______ ____

>  <TORSDO>
F 17

$$$$
=
 OpenBabel11042411263D

 55 61  0  0  1  0  0  0  0  0999 V2000
  185.5390  178.7860  141.4020 C   0  0  0  0  0  3  0  0  0  0  0  0
  183.4430  178.0160  140.4360 C   0  0  0  0  0  0  0  0  0  0  0  0
  186.1060  178.8600  140.1280 C   0  0  0  0  0  3  0  0  0  0  0  0
  185.3490  178.5140  139.0060 C   0  0  0  0  0  0  0  0  0  0  0  0
  184.2170  178.3590  141.5660 C   0  0  0  0  0  0  0  0  0  0  0  0
  184.0210  178.1060  139.1590 C   0  0  0  0  0  3  0  0  0  0  0  0
  182.0130  177.5880  140.5870 C   0  0  2  0  0  3  0  0  0  0  0  0
  181.7310  176.3000  139.8300 C   0  0  0  0  0  1  0  0  0  0  0  0
  181.1160  179.7700  140.6830 O   0  0  0  0  0  0  0  0  0  0  0  0
  181.0900  178.6780  140.1420 C   0  0  0  0  0  3  0  0  0  0  0  0
  185.9430  178.6000  137.6420 C   0  0  0  0  0  2  0  0  0  0  0  0
  191.3060  174.8340  137.5090 C   0  0  0  0  0  3  0  0  0  0  0  0
  188.2370  172.9310  136.6780 C   0  0  0  0  0  0  0  0  0  0  0  0
  191.6960  176.1400  137.8380 C   0  0  0  0  0  0  0  0  0  0  0  0
  189.5830  173.2340  136.9370 C   0  0  0  0  0  3  0  0  0  0  0  0
  188.6910  179.1240  137.9940 O   0  0  0  0  0  0  0  0  0  0  0  0
  188.9920  175.5590  137.3320 C   0  0  0  0  0  0  0  0  0  0  0  0
  190.7300  177.1520  137.9080 C   0  0  0  0  0  3  0  0  0  0  0  0
  189.9650  174.5380  137.2590 C   0  0  0  0  0  0  0  0  0  0  0  0
  187.6420  175.2520  137.0790 C   0  0  0  0  0  0  0  0  0  0  0  0
  187.2740  173.9440  136.7510 C   0  0  0  0  0  3  0  0  0  0  0  0
  188.3630  177.9370  137.7200 C   0  0  0  0  0  0  0  0  0  0  0  0
  189.3800  176.8730  137.6540 C   0  0  0  0  0  0  0  0  0  0  0  0
  186.9900  177.6000  137.4700 N   0  0  0  0  0  0  0  0  0  0  0  0
  186.6420  176.2710  137.1690 N   0  0  0  0  0  2  0  0  0  0  0  0
  194.0070  176.0550  137.3150 O   0  0  0  0  0  0  0  0  0  0  0  0
  193.1080  176.4530  138.1020 C   0  0  0  0  0  0  0  0  0  0  0  0
  193.4640  177.2010  139.2210 O   0  0  0  0  0  1  0  0  0  0  0  0
  187.8310  171.6370  136.3370 O   0  0  0  0  0  0  0  0  0  0  0  0
  187.7680  171.1830  134.9930 C   0  0  0  0  0  2  0  0  0  0  0  0
  186.3680  170.6820  134.6930 C   0  0  0  0  0  2  0  0  0  0  0  0
  185.5500  170.8440  135.8160 O   0  0  0  0  0  0  0  0  0  0  0  0
  184.3680  171.2980  135.3310 N   0  0  0  0  0  0  0  0  0  0  0  0
  182.0080  170.8190  135.5060 C   0  0  0  0  0  1  0  0  0  0  0  0
  183.3430  170.8150  136.2220 C   0  0  2  0  0  3  0  0  0  0  0  0
  183.8070  172.0890  136.3210 O   0  0  0  0  0  0  0  0  0  0  0  0
  183.6460  178.3240  142.9440 C   0  0  0  0  0  2  0  0  0  0  0  0
  184.7000  178.2500  143.8940 O   0  0  0  0  0  0  0  0  0  0  0  0
  184.5540  178.6580  145.2240 C   0  0  0  0  0  0  0  0  0  0  0  0
  183.4500  179.1420  145.5880 O   0  0  0  0  0  0  0  0  0  0  0  0
  185.6600  178.5840  146.2020 C   0  0  0  0  0  0  0  0  0  0  0  0
  185.7300  179.4540  147.1090 O   0  0  0  0  0  0  0  0  0  0  0  0
  186.6200  177.5680  146.1710 O   0  0  0  0  0  0  0  0  0  0  0  0
  187.4940  177.3470  145.0680 C   0  0  0  0  0  2  0  0  0  0  0  0
  188.9470  177.1750  145.5320 C   0  0  2  0  0  0  0  0  0  0  0  0
  189.7790  176.2480  144.6470 C   0  0  2  0  0  3  0  0  0  0  0  0
  190.7390  178.4990  143.2030 C   0  0  0  0  0  2  0  0  0  0  0  0
  188.9730  176.6950  146.8410 O   0  0  0  0  0  1  0  0  0  0  0  0
  191.3160  176.6480  141.8300 F   0  0  0  0  0  0  0  0  0  0  0  0
  190.2260  177.3230  142.3510 C   0  0  2  0  0  0  0  0  0  0  0  0
  189.4010  177.8680  141.2040 C   0  0  0  0  0  1  0  0  0  0  0  0
  191.1030  176.7090  144.7750 O   0  0  0  0  0  0  0  0  0  0  0  0
  190.9610  178.1080  144.6770 C   0  0  2  0  0  3  0  0  0  0  0  0
  189.7120  178.4750  145.4620 C   0  0  0  0  0  2  0  0  0  0  0  0
  189.3700  176.3250  143.1550 C   0  0  0  0  0  2  0  0  0  0  0  0
  1  5  1  0  0  0  0
  2  7  1  0  0  0  0
  2  5  2  0  0  0  0
  3  1  2  0  0  0  0
  4  6  2  0  0  0  0
  4  3  1  0  0  0  0
  5 37  1  0  0  0  0
  6  2  1  0  0  0  0
  7  8  1  6  0  0  0
 10  7  1  0  0  0  0
 10  9  2  0  0  0  0
 11  4  1  0  0  0  0
 12 14  1  0  0  0  0
 13 21  1  0  0  0  0
 13 15  2  0  0  0  0
 14 18  2  0  0  0  0
 14 27  1  0  0  0  0
 15 19  1  0  0  0  0
 17 23  2  0  0  0  0
 19 17  1  0  0  0  0
 19 12  2  0  0  0  0
 20 25  1  0  0  0  0
 20 17  1  0  0  0  0
 21 20  2  0  0  0  0
 22 16  2  0  0  0  0
 23 22  1  0  0  0  0
 23 18  1  0  0  0  0
 24 11  1  0  0  0  0
 24 22  1  0  0  0  0
 25 24  1  0  0  0  0
 26 27  2  0  0  0  0
 27 28  1  0  0  0  0
 29 13  1  0  0  0  0
 30 29  1  0  0  0  0
 31 30  1  0  0  0  0
 31 32  1  0  0  0  0
 33 32  1  0  0  0  0
 33 35  1  0  0  0  0
 33 36  1  0  0  0  0
 35 34  1  6  0  0  0
 35 36  1  0  0  0  0
 37 38  1  0  0  0  0
 38 39  1  0  0  0  0
 39 40  2  0  0  0  0
 39 41  1  0  0  0  0
 41 42  2  0  0  0  0
 43 41  1  0  0  0  0
 44 45  1  0  0  0  0
 44 43  1  0  0  0  0
 45 48  1  1  0  0  0
 46 55  1  6  0  0  0
 46 52  1  0  0  0  0
 46 45  1  0  0  0  0
 49 50  1  0  0  0  0
 50 51  1  6  0  0  0
 50 55  1  0  0  0  0
 50 47  1  0  0  0  0
 53 47  1  6  0  0  0
 53 52  1  0  0  0  0
 53 54  1  0  0  0  0
 54 45  1  0  0  0  0
M  END
>  <MODEL>
3

>  <REMARK>
 VINA RESULT:      -9.4      2.982      7.794
  Name = 
  17 active torsions:
  status: ('A' for Active; 'I' for Inactive)
    1  A    between atoms: C_2  and  C_8
    2  A    between atoms: C_2  and  O_48
    3  A    between atoms: O_3  and  C_4
    4  A    between atoms: O_3  and  C_8
    5  A    between atoms: C_4  and  C_7
    6  A    between atoms: C_5  and  C_16
    7  A    between atoms: C_5  and  C_47
    8  A    between atoms: C_6  and  C_22
    9  A    between atoms: C_6  and  N_52
   10  A    between atoms: N_10  and  O_28
   11  A    between atoms: C_11  and  O_36
   12  A    between atoms: C_12  and  C_39
   13  A    between atoms: O_28  and  C_34
   14  A    between atoms: C_34  and  C_44
   15  A    between atoms: O_36  and  C_44
   16  A    between atoms: C_43  and  O_48
   17  A    between atoms: C_43  and  C_49
                            x       y       z     vdW  Elec       q    Type
                         _______ _______ _______ _____ _____    ______ ____

>  <TORSDO>
F 17

$$$$
=
 OpenBabel11042411263D

 55 61  0  0  1  0  0  0  0  0999 V2000
  182.4420  178.7140  144.3420 C   0  0  0  0  0  3  0  0  0  0  0  0
  184.3610  178.9180  142.8620 C   0  0  0  0  0  0  0  0  0  0  0  0
  183.2940  178.6260  145.4450 C   0  0  0  0  0  3  0  0  0  0  0  0
  184.6770  178.6830  145.2640 C   0  0  0  0  0  0  0  0  0  0  0  0
  182.9640  178.8490  143.0520 C   0  0  0  0  0  0  0  0  0  0  0  0
  185.2080  178.8400  143.9800 C   0  0  0  0  0  3  0  0  0  0  0  0
  184.9410  179.0980  141.4900 C   0  0  2  0  0  3  0  0  0  0  0  0
  184.6660  177.8930  140.6030 C   0  0  0  0  0  1  0  0  0  0  0  0
  187.1860  178.8200  140.8100 O   0  0  0  0  0  0  0  0  0  0  0  0
  186.4100  179.3700  141.5730 C   0  0  0  0  0  3  0  0  0  0  0  0
  185.5930  178.6020  146.4360 C   0  0  0  0  0  2  0  0  0  0  0  0
  191.6830  176.2820  145.7190 C   0  0  0  0  0  3  0  0  0  0  0  0
  189.8850  176.5240  142.4860 C   0  0  0  0  0  0  0  0  0  0  0  0
  191.4730  176.5500  147.0790 C   0  0  0  0  0  0  0  0  0  0  0  0
  190.8900  176.2640  143.4320 C   0  0  0  0  0  3  0  0  0  0  0  0
  187.7340  178.1820  148.2230 O   0  0  0  0  0  0  0  0  0  0  0  0
  189.4400  177.0720  145.2080 C   0  0  0  0  0  0  0  0  0  0  0  0
  190.2460  177.0810  147.4970 C   0  0  0  0  0  3  0  0  0  0  0  0
  190.6760  176.5370  144.7850 C   0  0  0  0  0  0  0  0  0  0  0  0
  188.4310  177.3240  144.2600 C   0  0  0  0  0  0  0  0  0  0  0  0
  188.6600  177.0530  142.9090 C   0  0  0  0  0  3  0  0  0  0  0  0
  187.9390  177.9150  147.0080 C   0  0  0  0  0  0  0  0  0  0  0  0
  189.2280  177.3480  146.5720 C   0  0  0  0  0  0  0  0  0  0  0  0
  186.9190  178.1550  146.0270 N   0  0  0  0  0  0  0  0  0  0  0  0
  187.1660  177.8470  144.6770 N   0  0  0  0  0  2  0  0  0  0  0  0
  193.1920  175.2110  148.0130 O   0  0  0  0  0  0  0  0  0  0  0  0
  192.5310  176.2820  148.0640 C   0  0  0  0  0  0  0  0  0  0  0  0
  192.8190  177.2140  149.0560 O   0  0  0  0  0  1  0  0  0  0  0  0
  190.0810  176.2740  141.1250 O   0  0  0  0  0  0  0  0  0  0  0  0
  190.8870  177.1060  140.3020 C   0  0  0  0  0  2  0  0  0  0  0  0
  190.3500  177.0870  138.8840 C   0  0  0  0  0  2  0  0  0  0  0  0
  189.2950  177.9960  138.7580 O   0  0  0  0  0  0  0  0  0  0  0  0
  189.0700  178.0960  137.4250 N   0  0  0  0  0  0  0  0  0  0  0  0
  187.2200  178.1260  135.8740 C   0  0  0  0  0  1  0  0  0  0  0  0
  187.6920  178.4890  137.2670 C   0  0  2  0  0  3  0  0  0  0  0  0
  188.6910  179.4070  137.1800 O   0  0  0  0  0  0  0  0  0  0  0  0
  182.0140  178.9690  141.9080 C   0  0  0  0  0  2  0  0  0  0  0  0
  180.8240  179.6130  142.3430 O   0  0  0  0  0  0  0  0  0  0  0  0
  179.8840  180.1520  141.4580 C   0  0  0  0  0  0  0  0  0  0  0  0
  179.3610  181.2630  141.7370 O   0  0  0  0  0  0  0  0  0  0  0  0
  179.4500  179.4450  140.2350 C   0  0  0  0  0  0  0  0  0  0  0  0
  178.9310  178.3040  140.3440 O   0  0  0  0  0  0  0  0  0  0  0  0
  179.5760  180.0070  138.9610 O   0  0  0  0  0  0  0  0  0  0  0  0
  180.8140  180.1010  138.2620 C   0  0  0  0  0  2  0  0  0  0  0  0
  180.7370  179.4110  136.8940 C   0  0  2  0  0  0  0  0  0  0  0  0
  181.8580  178.4040  136.6390 C   0  0  2  0  0  3  0  0  0  0  0  0
  180.1680  176.3070  137.5440 C   0  0  0  0  0  2  0  0  0  0  0  0
  180.7500  180.3670  135.8790 O   0  0  0  0  0  1  0  0  0  0  0  0
  182.3350  175.3330  137.5340 F   0  0  0  0  0  0  0  0  0  0  0  0
  181.5890  176.3290  138.1390 C   0  0  2  0  0  0  0  0  0  0  0  0
  181.5060  176.0380  139.6240 C   0  0  0  0  0  1  0  0  0  0  0  0
  181.3050  177.4550  135.7580 O   0  0  0  0  0  0  0  0  0  0  0  0
  180.0300  177.2160  136.3080 C   0  0  2  0  0  3  0  0  0  0  0  0
  179.4940  178.5640  136.7650 C   0  0  0  0  0  2  0  0  0  0  0  0
  182.3080  177.6760  137.9310 C   0  0  0  0  0  2  0  0  0  0  0  0
  1  3  1  0  0  0  0
  2  5  1  0  0  0  0
  2  6  2  0  0  0  0
  4  3  2  0  0  0  0
  4 11  1  0  0  0  0
  5  1  2  0  0  0  0
  6  4  1  0  0  0  0
  7  8  1  6  0  0  0
  7 10  1  0  0  0  0
  7  2  1  0  0  0  0
  9 10  2  0  0  0  0
 12 14  1  0  0  0  0
 13 21  1  0  0  0  0
 13 15  2  0  0  0  0
 14 18  2  0  0  0  0
 14 27  1  0  0  0  0
 15 19  1  0  0  0  0
 17 23  2  0  0  0  0
 19 17  1  0  0  0  0
 19 12  2  0  0  0  0
 20 25  1  0  0  0  0
 20 17  1  0  0  0  0
 21 20  2  0  0  0  0
 22 16  2  0  0  0  0
 23 22  1  0  0  0  0
 23 18  1  0  0  0  0
 24 11  1  0  0  0  0
 24 22  1  0  0  0  0
 25 24  1  0  0  0  0
 26 27  2  0  0  0  0
 27 28  1  0  0  0  0
 29 13  1  0  0  0  0
 30 29  1  0  0  0  0
 31 30  1  0  0  0  0
 32 31  1  0  0  0  0
 33 32  1  0  0  0  0
 35 34  1  6  0  0  0
 35 33  1  0  0  0  0
 36 35  1  0  0  0  0
 36 33  1  0  0  0  0
 37 38  1  0  0  0  0
 37  5  1  0  0  0  0
 39 40  2  0  0  0  0
 39 38  1  0  0  0  0
 41 42  2  0  0  0  0
 41 39  1  0  0  0  0
 43 41  1  0  0  0  0
 44 43  1  0  0  0  0
 45 48  1  6  0  0  0
 45 44  1  0  0  0  0
 46 45  1  0  0  0  0
 46 55  1  1  0  0  0
 47 50  1  0  0  0  0
 49 50  1  0  0  0  0
 50 51  1  1  0  0  0
 52 53  1  0  0  0  0
 52 46  1  0  0  0  0
 53 54  1  1  0  0  0
 53 47  1  0  0  0  0
 54 45  1  0  0  0  0
 55 50  1  0  0  0  0
M  END
>  <MODEL>
4

>  <REMARK>
 VINA RESULT:      -9.4      2.496      4.408
  Name = 
  17 active torsions:
  status: ('A' for Active; 'I' for Inactive)
    1  A    between atoms: C_2  and  C_8
    2  A    between atoms: C_2  and  O_48
    3  A    between atoms: O_3  and  C_4
    4  A    between atoms: O_3  and  C_8
    5  A    between atoms: C_4  and  C_7
    6  A    between atoms: C_5  and  C_16
    7  A    between atoms: C_5  and  C_47
    8  A    between atoms: C_6  and  C_22
    9  A    between atoms: C_6  and  N_52
   10  A    between atoms: N_10  and  O_28
   11  A    between atoms: C_11  and  O_36
   12  A    between atoms: C_12  and  C_39
   13  A    between atoms: O_28  and  C_34
   14  A    between atoms: C_34  and  C_44
   15  A    between atoms: O_36  and  C_44
   16  A    between atoms: C_43  and  O_48
   17  A    between atoms: C_43  and  C_49
                            x       y       z     vdW  Elec       q    Type
                         _______ _______ _______ _____ _____    ______ ____

>  <TORSDO>
F 17

$$$$
=
 OpenBabel11042411263D

 55 61  0  0  1  0  0  0  0  0999 V2000
  184.4990  178.8140  141.5150 C   0  0  0  0  0  3  0  0  0  0  0  0
  182.0770  178.5880  141.4630 C   0  0  0  0  0  0  0  0  0  0  0  0
  184.5550  178.6030  140.1360 C   0  0  0  0  0  3  0  0  0  0  0  0
  183.3780  178.3840  139.4160 C   0  0  0  0  0  0  0  0  0  0  0  0
  183.2710  178.7990  142.1860 C   0  0  0  0  0  0  0  0  0  0  0  0
  182.1450  178.3880  140.0740 C   0  0  0  0  0  3  0  0  0  0  0  0
  180.7470  178.6020  142.1570 C   0  0  2  0  0  3  0  0  0  0  0  0
  179.7960  177.5730  141.5670 C   0  0  0  0  0  1  0  0  0  0  0  0
  179.0840  180.2000  142.6630 O   0  0  0  0  0  0  0  0  0  0  0  0
  180.1450  179.9710  142.1080 C   0  0  0  0  0  3  0  0  0  0  0  0
  183.4280  178.1690  137.9420 C   0  0  0  0  0  2  0  0  0  0  0  0
  185.1120  172.0680  136.2350 C   0  0  0  0  0  3  0  0  0  0  0  0
  188.0220  174.3630  136.2860 C   0  0  0  0  0  0  0  0  0  0  0  0
  183.7330  172.0880  136.4850 C   0  0  0  0  0  0  0  0  0  0  0  0
  187.2480  173.2020  136.1300 C   0  0  0  0  0  3  0  0  0  0  0  0
  182.0010  175.7450  137.7430 O   0  0  0  0  0  0  0  0  0  0  0  0
  185.2590  174.4300  136.7970 C   0  0  0  0  0  0  0  0  0  0  0  0
  183.1230  173.2810  136.8940 C   0  0  0  0  0  3  0  0  0  0  0  0
  185.8750  173.2280  136.3850 C   0  0  0  0  0  0  0  0  0  0  0  0
  186.0340  175.5940  136.9450 C   0  0  0  0  0  0  0  0  0  0  0  0
  187.4090  175.5530  136.6930 C   0  0  0  0  0  3  0  0  0  0  0  0
  183.2370  175.7070  137.4930 C   0  0  0  0  0  0  0  0  0  0  0  0
  183.8750  174.4520  137.0560 C   0  0  0  0  0  0  0  0  0  0  0  0
  184.0440  176.8860  137.6270 N   0  0  0  0  0  0  0  0  0  0  0  0
  185.4200  176.8240  137.3410 N   0  0  0  0  0  2  0  0  0  0  0  0
  183.4830  169.7690  136.0650 O   0  0  0  0  0  0  0  0  0  0  0  0
  182.9280  170.8680  136.3270 C   0  0  0  0  0  0  0  0  0  0  0  0
  181.5450  170.9150  136.4740 O   0  0  0  0  0  1  0  0  0  0  0  0
  189.4010  174.3590  136.0520 O   0  0  0  0  0  0  0  0  0  0  0  0
  190.3280  173.7690  136.9530 C   0  0  0  0  0  2  0  0  0  0  0  0
  191.3010  174.8260  137.4410 C   0  0  0  0  0  2  0  0  0  0  0  0
  190.8270  175.4060  138.6210 O   0  0  0  0  0  0  0  0  0  0  0  0
  190.6700  176.7220  138.3320 N   0  0  0  0  0  0  0  0  0  0  0  0
  189.0690  178.4960  138.6710 C   0  0  0  0  0  1  0  0  0  0  0  0
  189.6710  177.2280  139.2400 C   0  0  2  0  0  3  0  0  0  0  0  0
  190.9940  177.4250  139.4820 O   0  0  0  0  0  0  0  0  0  0  0  0
  183.2590  179.0590  143.6550 C   0  0  0  0  0  2  0  0  0  0  0  0
  184.5420  178.7780  144.1980 O   0  0  0  0  0  0  0  0  0  0  0  0
  184.7810  178.6830  145.5740 C   0  0  0  0  0  0  0  0  0  0  0  0
  183.8110  178.8220  146.3640 O   0  0  0  0  0  0  0  0  0  0  0  0
  186.1330  178.4720  146.1310 C   0  0  0  0  0  0  0  0  0  0  0  0
  186.2840  178.4720  147.3800 O   0  0  0  0  0  0  0  0  0  0  0  0
  187.2500  178.2490  145.3200 O   0  0  0  0  0  0  0  0  0  0  0  0
  187.5040  177.0140  144.6550 C   0  0  0  0  0  2  0  0  0  0  0  0
  188.3330  177.2260  143.3820 C   0  0  2  0  0  0  0  0  0  0  0  0
  189.4640  178.2430  143.5360 C   0  0  2  0  0  3  0  0  0  0  0  0
  191.2770  176.1300  144.0990 C   0  0  0  0  0  2  0  0  0  0  0  0
  187.5030  177.6300  142.3360 O   0  0  0  0  0  1  0  0  0  0  0  0
  192.4460  178.0840  144.7770 F   0  0  0  0  0  0  0  0  0  0  0  0
  191.3220  177.3280  145.0650 C   0  0  2  0  0  0  0  0  0  0  0  0
  191.4350  176.8130  146.4850 C   0  0  0  0  0  1  0  0  0  0  0  0
  190.4490  177.8380  142.6160 O   0  0  0  0  0  0  0  0  0  0  0  0
  190.5040  176.4430  142.8030 C   0  0  2  0  0  3  0  0  0  0  0  0
  189.0690  175.9710  142.9790 C   0  0  0  0  0  2  0  0  0  0  0  0
  190.0810  178.2360  144.9570 C   0  0  0  0  0  2  0  0  0  0  0  0
  1  5  1  0  0  0  0
  2  7  1  0  0  0  0
  2  5  2  0  0  0  0
  3  1  2  0  0  0  0
  4  6  2  0  0  0  0
  4  3  1  0  0  0  0
  5 37  1  0  0  0  0
  6  2  1  0  0  0  0
  7  8  1  6  0  0  0
 10  7  1  0  0  0  0
 10  9  2  0  0  0  0
 11  4  1  0  0  0  0
 12 19  2  0  0  0  0
 12 14  1  0  0  0  0
 13 21  1  0  0  0  0
 14 18  2  0  0  0  0
 15 13  2  0  0  0  0
 15 19  1  0  0  0  0
 17 20  1  0  0  0  0
 17 23  2  0  0  0  0
 18 23  1  0  0  0  0
 19 17  1  0  0  0  0
 20 25  1  0  0  0  0
 21 20  2  0  0  0  0
 22 24  1  0  0  0  0
 22 16  2  0  0  0  0
 23 22  1  0  0  0  0
 24 11  1  0  0  0  0
 25 24  1  0  0  0  0
 26 27  2  0  0  0  0
 27 28  1  0  0  0  0
 27 14  1  0  0  0  0
 29 13  1  0  0  0  0
 29 30  1  0  0  0  0
 30 31  1  0  0  0  0
 31 32  1  0  0  0  0
 33 32  1  0  0  0  0
 33 35  1  0  0  0  0
 33 36  1  0  0  0  0
 35 34  1  6  0  0  0
 35 36  1  0  0  0  0
 37 38  1  0  0  0  0
 38 39  1  0  0  0  0
 39 41  1  0  0  0  0
 39 40  2  0  0  0  0
 41 42  2  0  0  0  0
 43 41  1  0  0  0  0
 44 43  1  0  0  0  0
 45 48  1  6  0  0  0
 45 46  1  0  0  0  0
 45 44  1  0  0  0  0
 46 55  1  1  0  0  0
 47 50  1  0  0  0  0
 49 50  1  0  0  0  0
 50 51  1  1  0  0  0
 52 53  1  0  0  0  0
 52 46  1  0  0  0  0
 53 54  1  1  0  0  0
 53 47  1  0  0  0  0
 54 45  1  0  0  0  0
 55 50  1  0  0  0  0
M  END
>  <MODEL>
5

>  <REMARK>
 VINA RESULT:      -9.4      2.836      8.141
  Name = 
  17 active torsions:
  status: ('A' for Active; 'I' for Inactive)
    1  A    between atoms: C_2  and  C_8
    2  A    between atoms: C_2  and  O_48
    3  A    between atoms: O_3  and  C_4
    4  A    between atoms: O_3  and  C_8
    5  A    between atoms: C_4  and  C_7
    6  A    between atoms: C_5  and  C_16
    7  A    between atoms: C_5  and  C_47
    8  A    between atoms: C_6  and  C_22
    9  A    between atoms: C_6  and  N_52
   10  A    between atoms: N_10  and  O_28
   11  A    between atoms: C_11  and  O_36
   12  A    between atoms: C_12  and  C_39
   13  A    between atoms: O_28  and  C_34
   14  A    between atoms: C_34  and  C_44
   15  A    between atoms: O_36  and  C_44
   16  A    between atoms: C_43  and  O_48
   17  A    between atoms: C_43  and  C_49
                            x       y       z     vdW  Elec       q    Type
                         _______ _______ _______ _____ _____    ______ ____

>  <TORSDO>
F 17

$$$$
=
 OpenBabel11042411263D

 55 61  0  0  1  0  0  0  0  0999 V2000
  190.0820  177.1860  136.9420 C   0  0  0  0  0  3  0  0  0  0  0  0
  188.9960  175.0910  136.3530 C   0  0  0  0  0  0  0  0  0  0  0  0
  188.9300  177.8900  136.5870 C   0  0  0  0  0  3  0  0  0  0  0  0
  187.8100  177.2020  136.1150 C   0  0  0  0  0  0  0  0  0  0  0  0
  190.1280  175.7930  136.8200 C   0  0  0  0  0  0  0  0  0  0  0  0
  187.8390  175.8080  136.0090 C   0  0  0  0  0  3  0  0  0  0  0  0
  189.0120  173.5940  136.2470 C   0  0  2  0  0  3  0  0  0  0  0  0
  189.3630  173.1350  134.8400 C   0  0  0  0  0  1  0  0  0  0  0  0
  187.6450  172.1950  137.5700 O   0  0  0  0  0  0  0  0  0  0  0  0
  187.6980  173.0240  136.6780 C   0  0  0  0  0  3  0  0  0  0  0  0
  186.5720  177.9450  135.7440 C   0  0  0  0  0  2  0  0  0  0  0  0
  181.6960  176.5600  139.9000 C   0  0  0  0  0  3  0  0  0  0  0  0
  184.2700  178.7390  141.4370 C   0  0  0  0  0  0  0  0  0  0  0  0
  181.4200  175.9340  138.6760 C   0  0  0  0  0  0  0  0  0  0  0  0
  183.1180  177.9530  141.2770 C   0  0  0  0  0  3  0  0  0  0  0  0
  184.1550  176.5150  135.4930 O   0  0  0  0  0  0  0  0  0  0  0  0
  183.7400  177.4960  138.9720 C   0  0  0  0  0  0  0  0  0  0  0  0
  182.3050  176.0950  137.6030 C   0  0  0  0  0  3  0  0  0  0  0  0
  182.8470  177.3350  140.0540 C   0  0  0  0  0  0  0  0  0  0  0  0
  184.8980  178.2780  139.1350 C   0  0  0  0  0  0  0  0  0  0  0  0
  185.1530  178.8960  140.3620 C   0  0  0  0  0  3  0  0  0  0  0  0
  184.3910  177.0520  136.6090 C   0  0  0  0  0  0  0  0  0  0  0  0
  183.4620  176.8750  137.7390 C   0  0  0  0  0  0  0  0  0  0  0  0
  185.5730  177.8450  136.8010 N   0  0  0  0  0  0  0  0  0  0  0  0
  185.8210  178.4330  138.0540 N   0  0  0  0  0  2  0  0  0  0  0  0
  179.4180  175.3340  137.5580 O   0  0  0  0  0  0  0  0  0  0  0  0
  180.2080  175.1170  138.5130 C   0  0  0  0  0  0  0  0  0  0  0  0
  179.9290  174.0890  139.4100 O   0  0  0  0  0  1  0  0  0  0  0  0
  184.5560  179.3800  142.6460 O   0  0  0  0  0  0  0  0  0  0  0  0
  184.0480  178.9250  143.8920 C   0  0  0  0  0  2  0  0  0  0  0  0
  184.9320  179.4360  145.0150 C   0  0  0  0  0  2  0  0  0  0  0  0
  185.1730  178.4150  145.9380 O   0  0  0  0  0  0  0  0  0  0  0  0
  186.5050  178.4700  146.1890 N   0  0  0  0  0  0  0  0  0  0  0  0
  188.0250  178.3520  148.0610 C   0  0  0  0  0  1  0  0  0  0  0  0
  186.7050  177.8780  147.4880 C   0  0  2  0  0  3  0  0  0  0  0  0
  186.9350  177.1640  146.3550 O   0  0  0  0  0  0  0  0  0  0  0  0
  191.3710  175.0820  137.2390 C   0  0  0  0  0  2  0  0  0  0  0  0
  192.4830  175.9580  137.1200 O   0  0  0  0  0  0  0  0  0  0  0  0
  193.4440  176.1070  138.1260 C   0  0  0  0  0  0  0  0  0  0  0  0
  194.5420  175.5030  138.0040 O   0  0  0  0  0  0  0  0  0  0  0  0
  193.2000  176.9070  139.3440 C   0  0  0  0  0  0  0  0  0  0  0  0
  194.1850  177.3740  139.9730 O   0  0  0  0  0  0  0  0  0  0  0  0
  191.9120  177.1850  139.8120 O   0  0  0  0  0  0  0  0  0  0  0  0
  191.5890  177.3140  141.1930 C   0  0  0  0  0  2  0  0  0  0  0  0
  190.0950  177.0700  141.4430 C   0  0  2  0  0  0  0  0  0  0  0  0
  189.8050  176.0680  142.5600 C   0  0  2  0  0  3  0  0  0  0  0  0
  189.5370  178.2130  144.4040 C   0  0  0  0  0  2  0  0  0  0  0  0
  189.4840  176.6280  140.2700 O   0  0  0  0  0  1  0  0  0  0  0  0
  189.7350  176.2900  145.7850 F   0  0  0  0  0  0  0  0  0  0  0  0
  190.4320  177.0440  144.8580 C   0  0  2  0  0  0  0  0  0  0  0  0
  191.6730  177.6030  145.5230 C   0  0  0  0  0  1  0  0  0  0  0  0
  188.5560  176.4530  143.0830 O   0  0  0  0  0  0  0  0  0  0  0  0
  188.6720  177.8540  143.1810 C   0  0  2  0  0  3  0  0  0  0  0  0
  189.3990  178.3180  141.9290 C   0  0  0  0  0  2  0  0  0  0  0  0
  190.8560  176.1240  143.6970 C   0  0  0  0  0  2  0  0  0  0  0  0
  2  5  2  0  0  0  0
  3  1  2  0  0  0  0
  4  3  1  0  0  0  0
  5  1  1  0  0  0  0
  5 37  1  0  0  0  0
  6  4  2  0  0  0  0
  6  2  1  0  0  0  0
  7  8  1  6  0  0  0
  7  2  1  0  0  0  0
  7 10  1  0  0  0  0
 10  9  2  0  0  0  0
 11  4  1  0  0  0  0
 11 24  1  0  0  0  0
 12 19  1  0  0  0  0
 13 29  1  0  0  0  0
 14 12  2  0  0  0  0
 15 13  1  0  0  0  0
 16 22  2  0  0  0  0
 17 20  2  0  0  0  0
 17 19  1  0  0  0  0
 18 23  2  0  0  0  0
 18 14  1  0  0  0  0
 19 15  2  0  0  0  0
 20 21  1  0  0  0  0
 21 13  2  0  0  0  0
 22 24  1  0  0  0  0
 22 23  1  0  0  0  0
 23 17  1  0  0  0  0
 24 25  1  0  0  0  0
 25 20  1  0  0  0  0
 26 27  2  0  0  0  0
 27 14  1  0  0  0  0
 27 28  1  0  0  0  0
 29 30  1  0  0  0  0
 30 31  1  0  0  0  0
 31 32  1  0  0  0  0
 32 33  1  0  0  0  0
 33 36  1  0  0  0  0
 33 35  1  0  0  0  0
 35 34  1  6  0  0  0
 36 35  1  0  0  0  0
 38 37  1  0  0  0  0
 38 39  1  0  0  0  0
 39 41  1  0  0  0  0
 40 39  2  0  0  0  0
 41 43  1  0  0  0  0
 41 42  2  0  0  0  0
 43 44  1  0  0  0  0
 44 45  1  0  0  0  0
 45 48  1  6  0  0  0
 45 54  1  0  0  0  0
 45 46  1  0  0  0  0
 46 52  1  0  0  0  0
 46 55  1  1  0  0  0
 47 50  1  0  0  0  0
 50 51  1  1  0  0  0
 50 49  1  0  0  0  0
 52 53  1  0  0  0  0
 53 54  1  6  0  0  0
 53 47  1  0  0  0  0
 55 50  1  0  0  0  0
M  END
>  <MODEL>
6

>  <REMARK>
 VINA RESULT:      -9.0      2.860     10.090
  Name = 
  17 active torsions:
  status: ('A' for Active; 'I' for Inactive)
    1  A    between atoms: C_2  and  C_8
    2  A    between atoms: C_2  and  O_48
    3  A    between atoms: O_3  and  C_4
    4  A    between atoms: O_3  and  C_8
    5  A    between atoms: C_4  and  C_7
    6  A    between atoms: C_5  and  C_16
    7  A    between atoms: C_5  and  C_47
    8  A    between atoms: C_6  and  C_22
    9  A    between atoms: C_6  and  N_52
   10  A    between atoms: N_10  and  O_28
   11  A    between atoms: C_11  and  O_36
   12  A    between atoms: C_12  and  C_39
   13  A    between atoms: O_28  and  C_34
   14  A    between atoms: C_34  and  C_44
   15  A    between atoms: O_36  and  C_44
   16  A    between atoms: C_43  and  O_48
   17  A    between atoms: C_43  and  C_49
                            x       y       z     vdW  Elec       q    Type
                         _______ _______ _______ _____ _____    ______ ____

>  <TORSDO>
F 17

$$$$
=
 OpenBabel11042411263D

 55 61  0  0  1  0  0  0  0  0999 V2000
  182.4850  178.7460  144.0110 C   0  0  0  0  0  3  0  0  0  0  0  0
  184.4320  178.5580  142.5650 C   0  0  0  0  0  0  0  0  0  0  0  0
  183.3140  178.7550  145.1350 C   0  0  0  0  0  3  0  0  0  0  0  0
  184.6990  178.6670  144.9810 C   0  0  0  0  0  0  0  0  0  0  0  0
  183.0320  178.6380  142.7290 C   0  0  0  0  0  0  0  0  0  0  0  0
  185.2550  178.5800  143.7020 C   0  0  0  0  0  3  0  0  0  0  0  0
  185.0400  178.4770  141.1960 C   0  0  2  0  0  3  0  0  0  0  0  0
  186.4750  178.9800  141.1890 C   0  0  0  0  0  1  0  0  0  0  0  0
  184.7330  179.7980  139.2620 O   0  0  0  0  0  0  0  0  0  0  0  0
  184.2090  179.2330  140.2070 C   0  0  0  0  0  3  0  0  0  0  0  0
  185.5910  178.6870  146.1750 C   0  0  0  0  0  2  0  0  0  0  0  0
  191.6760  176.2940  145.7040 C   0  0  0  0  0  3  0  0  0  0  0  0
  190.1090  176.8010  142.3840 C   0  0  0  0  0  0  0  0  0  0  0  0
  191.3770  176.4700  147.0630 C   0  0  0  0  0  0  0  0  0  0  0  0
  191.0420  176.4540  143.3740 C   0  0  0  0  0  3  0  0  0  0  0  0
  187.5970  178.0980  148.0670 O   0  0  0  0  0  0  0  0  0  0  0  0
  189.4870  177.1650  145.1010 C   0  0  0  0  0  0  0  0  0  0  0  0
  190.1340  176.9970  147.4350 C   0  0  0  0  0  3  0  0  0  0  0  0
  190.7400  176.6350  144.7260 C   0  0  0  0  0  0  0  0  0  0  0  0
  188.5500  177.5050  144.1090 C   0  0  0  0  0  0  0  0  0  0  0  0
  188.8670  177.3250  142.7600 C   0  0  0  0  0  3  0  0  0  0  0  0
  187.8800  177.9120  146.8530 C   0  0  0  0  0  0  0  0  0  0  0  0
  189.1870  177.3500  146.4640 C   0  0  0  0  0  0  0  0  0  0  0  0
  186.9340  178.2420  145.8240 N   0  0  0  0  0  0  0  0  0  0  0  0
  187.2670  178.0240  144.4760 N   0  0  0  0  0  2  0  0  0  0  0  0
  192.6840  174.9070  148.2770 O   0  0  0  0  0  0  0  0  0  0  0  0
  192.3620  176.1100  148.0950 C   0  0  0  0  0  0  0  0  0  0  0  0
  192.9530  177.1000  148.8750 O   0  0  0  0  0  1  0  0  0  0  0  0
  190.3930  176.6430  141.0250 O   0  0  0  0  0  0  0  0  0  0  0  0
  189.5580  177.1680  140.0020 C   0  0  0  0  0  2  0  0  0  0  0  0
  190.1080  176.7690  138.6460 C   0  0  0  0  0  2  0  0  0  0  0  0
  190.7650  175.5390  138.7370 O   0  0  0  0  0  0  0  0  0  0  0  0
  191.9920  175.7510  138.2000 N   0  0  0  0  0  0  0  0  0  0  0  0
  193.9000  174.4880  137.4300 C   0  0  0  0  0  1  0  0  0  0  0  0
  192.3930  174.5100  137.5850 C   0  0  2  0  0  3  0  0  0  0  0  0
  191.8770  175.5210  136.8380 O   0  0  0  0  0  0  0  0  0  0  0  0
  182.1090  178.6620  141.5560 C   0  0  0  0  0  2  0  0  0  0  0  0
  180.9080  179.3340  141.9110 O   0  0  0  0  0  0  0  0  0  0  0  0
  179.8660  179.5570  141.0040 C   0  0  0  0  0  0  0  0  0  0  0  0
  179.2950  180.6800  141.0070 O   0  0  0  0  0  0  0  0  0  0  0  0
  179.3830  178.5120  140.0790 C   0  0  0  0  0  0  0  0  0  0  0  0
  179.0800  177.3810  140.5420 O   0  0  0  0  0  0  0  0  0  0  0  0
  179.2270  178.7390  138.7080 O   0  0  0  0  0  0  0  0  0  0  0  0
  179.7150  177.8530  137.7040 C   0  0  0  0  0  2  0  0  0  0  0  0
  181.2190  178.0460  137.4730 C   0  0  2  0  0  0  0  0  0  0  0  0
  182.0990  177.0330  138.2060 C   0  0  2  0  0  3  0  0  0  0  0  0
  182.1710  175.4160  135.8700 C   0  0  0  0  0  2  0  0  0  0  0  0
  181.5980  179.3320  137.8550 O   0  0  0  0  0  1  0  0  0  0  0  0
  182.9640  173.9790  137.5870 F   0  0  0  0  0  0  0  0  0  0  0  0
  181.8430  174.6840  137.1850 C   0  0  2  0  0  0  0  0  0  0  0  0
  180.7180  173.7010  136.9340 C   0  0  0  0  0  1  0  0  0  0  0  0
  183.2570  176.9120  137.4150 O   0  0  0  0  0  0  0  0  0  0  0  0
  182.7400  176.8290  136.1070 C   0  0  2  0  0  3  0  0  0  0  0  0
  181.5940  177.8250  136.0270 C   0  0  0  0  0  2  0  0  0  0  0  0
  181.4310  175.6390  138.3210 C   0  0  0  0  0  2  0  0  0  0  0  0
  1  3  1  0  0  0  0
  2  5  1  0  0  0  0
  2  6  2  0  0  0  0
  4  3  2  0  0  0  0
  4 11  1  0  0  0  0
  5  1  2  0  0  0  0
  6  4  1  0  0  0  0
  7  8  1  1  0  0  0
  7  2  1  0  0  0  0
  9 10  2  0  0  0  0
 10  7  1  0  0  0  0
 12 14  1  0  0  0  0
 13 21  1  0  0  0  0
 13 15  2  0  0  0  0
 14 18  2  0  0  0  0
 14 27  1  0  0  0  0
 15 19  1  0  0  0  0
 17 23  2  0  0  0  0
 19 17  1  0  0  0  0
 19 12  2  0  0  0  0
 20 25  1  0  0  0  0
 20 17  1  0  0  0  0
 21 20  2  0  0  0  0
 22 16  2  0  0  0  0
 23 22  1  0  0  0  0
 23 18  1  0  0  0  0
 24 11  1  0  0  0  0
 24 22  1  0  0  0  0
 25 24  1  0  0  0  0
 27 26  2  0  0  0  0
 27 28  1  0  0  0  0
 29 13  1  0  0  0  0
 30 29  1  0  0  0  0
 31 32  1  0  0  0  0
 31 30  1  0  0  0  0
 33 32  1  0  0  0  0
 35 34  1  6  0  0  0
 35 33  1  0  0  0  0
 36 35  1  0  0  0  0
 36 33  1  0  0  0  0
 37 38  1  0  0  0  0
 37  5  1  0  0  0  0
 39 40  2  0  0  0  0
 39 38  1  0  0  0  0
 41 42  2  0  0  0  0
 41 39  1  0  0  0  0
 43 41  1  0  0  0  0
 44 43  1  0  0  0  0
 45 44  1  0  0  0  0
 45 48  1  1  0  0  0
 45 46  1  0  0  0  0
 46 55  1  6  0  0  0
 47 50  1  0  0  0  0
 50 51  1  6  0  0  0
 50 49  1  0  0  0  0
 50 55  1  0  0  0  0
 52 46  1  0  0  0  0
 53 47  1  1  0  0  0
 53 52  1  0  0  0  0
 54 53  1  0  0  0  0
 54 45  1  0  0  0  0
M  END
>  <MODEL>
7

>  <REMARK>
 VINA RESULT:      -8.8      2.185      3.841
  Name = 
  17 active torsions:
  status: ('A' for Active; 'I' for Inactive)
    1  A    between atoms: C_2  and  C_8
    2  A    between atoms: C_2  and  O_48
    3  A    between atoms: O_3  and  C_4
    4  A    between atoms: O_3  and  C_8
    5  A    between atoms: C_4  and  C_7
    6  A    between atoms: C_5  and  C_16
    7  A    between atoms: C_5  and  C_47
    8  A    between atoms: C_6  and  C_22
    9  A    between atoms: C_6  and  N_52
   10  A    between atoms: N_10  and  O_28
   11  A    between atoms: C_11  and  O_36
   12  A    between atoms: C_12  and  C_39
   13  A    between atoms: O_28  and  C_34
   14  A    between atoms: C_34  and  C_44
   15  A    between atoms: O_36  and  C_44
   16  A    between atoms: C_43  and  O_48
   17  A    between atoms: C_43  and  C_49
                            x       y       z     vdW  Elec       q    Type
                         _______ _______ _______ _____ _____    ______ ____

>  <TORSDO>
F 17

$$$$
=
 OpenBabel11042411263D

 55 61  0  0  1  0  0  0  0  0999 V2000
  184.0970  178.2880  141.4900 C   0  0  0  0  0  3  0  0  0  0  0  0
  182.0970  178.9290  142.7170 C   0  0  0  0  0  0  0  0  0  0  0  0
  184.8360  178.3040  142.6740 C   0  0  0  0  0  3  0  0  0  0  0  0
  184.2140  178.6320  143.8810 C   0  0  0  0  0  0  0  0  0  0  0  0
  182.7350  178.6060  141.5000 C   0  0  0  0  0  0  0  0  0  0  0  0
  182.8490  178.9310  143.9040 C   0  0  0  0  0  3  0  0  0  0  0  0
  180.6300  179.2410  142.7550 C   0  0  2  0  0  3  0  0  0  0  0  0
  180.3450  180.5030  143.5540 C   0  0  0  0  0  1  0  0  0  0  0  0
  179.6850  177.0800  142.6330 O   0  0  0  0  0  0  0  0  0  0  0  0
  179.8620  178.0810  143.3060 C   0  0  0  0  0  3  0  0  0  0  0  0
  184.9930  178.6410  145.1510 C   0  0  0  0  0  2  0  0  0  0  0  0
  191.1940  176.5140  145.2060 C   0  0  0  0  0  3  0  0  0  0  0  0
  189.8300  176.7670  141.7690 C   0  0  0  0  0  0  0  0  0  0  0  0
  190.7990  176.7480  146.5310 C   0  0  0  0  0  0  0  0  0  0  0  0
  190.7100  176.5180  142.8350 C   0  0  0  0  0  3  0  0  0  0  0  0
  186.8930  178.2490  147.1980 O   0  0  0  0  0  0  0  0  0  0  0  0
  189.0140  177.2480  144.4160 C   0  0  0  0  0  0  0  0  0  0  0  0
  189.5120  177.2350  146.7920 C   0  0  0  0  0  3  0  0  0  0  0  0
  190.3110  176.7580  144.1520 C   0  0  0  0  0  0  0  0  0  0  0  0
  188.1310  177.4900  143.3480 C   0  0  0  0  0  0  0  0  0  0  0  0
  188.5450  177.2530  142.0340 C   0  0  0  0  0  3  0  0  0  0  0  0
  187.2640  178.0110  146.0160 C   0  0  0  0  0  0  0  0  0  0  0  0
  188.6170  177.4910  145.7450 C   0  0  0  0  0  0  0  0  0  0  0  0
  186.3750  178.2410  144.9130 N   0  0  0  0  0  0  0  0  0  0  0  0
  186.8060  177.9670  143.6020 N   0  0  0  0  0  2  0  0  0  0  0  0
  192.2570  175.3580  147.7810 O   0  0  0  0  0  0  0  0  0  0  0  0
  191.7270  176.4910  147.6430 C   0  0  0  0  0  0  0  0  0  0  0  0
  192.0350  177.5040  148.5470 O   0  0  0  0  0  1  0  0  0  0  0  0
  190.2110  176.5500  140.4420 O   0  0  0  0  0  0  0  0  0  0  0  0
  190.0800  177.5450  139.4360 C   0  0  0  0  0  2  0  0  0  0  0  0
  190.1230  176.8900  138.0680 C   0  0  0  0  0  2  0  0  0  0  0  0
  191.4460  176.6190  137.7080 O   0  0  0  0  0  0  0  0  0  0  0  0
  191.3930  175.4540  137.0140 N   0  0  0  0  0  0  0  0  0  0  0  0
  192.7450  173.4950  136.6140 C   0  0  0  0  0  1  0  0  0  0  0  0
  192.3700  174.5760  137.6070 C   0  0  2  0  0  3  0  0  0  0  0  0
  191.0530  174.4640  137.9220 O   0  0  0  0  0  0  0  0  0  0  0  0
  181.9800  178.5470  140.2140 C   0  0  0  0  0  2  0  0  0  0  0  0
  182.6990  179.2480  139.2090 O   0  0  0  0  0  0  0  0  0  0  0  0
  183.6980  178.6500  138.4320 C   0  0  0  0  0  0  0  0  0  0  0  0
  184.8700  179.1020  138.5070 O   0  0  0  0  0  0  0  0  0  0  0  0
  183.4170  177.5410  137.4970 C   0  0  0  0  0  0  0  0  0  0  0  0
  182.3130  176.9420  137.5760 O   0  0  0  0  0  0  0  0  0  0  0  0
  184.3270  177.1450  136.5110 O   0  0  0  0  0  0  0  0  0  0  0  0
  184.3320  175.8470  135.9230 C   0  0  0  0  0  2  0  0  0  0  0  0
  185.3740  174.9380  136.5870 C   0  0  2  0  0  0  0  0  0  0  0  0
  184.7880  173.9540  137.6010 C   0  0  2  0  0  3  0  0  0  0  0  0
  184.6590  171.9610  135.5810 C   0  0  0  0  0  2  0  0  0  0  0  0
  186.3460  175.7120  137.2190 O   0  0  0  0  0  1  0  0  0  0  0  0
  183.2940  171.1000  137.3240 F   0  0  0  0  0  0  0  0  0  0  0  0
  183.3830  172.1470  136.4240 C   0  0  2  0  0  0  0  0  0  0  0  0
  182.1770  172.1020  135.5080 C   0  0  0  0  0  1  0  0  0  0  0  0
  185.6590  172.8490  137.5840 O   0  0  0  0  0  0  0  0  0  0  0  0
  185.8880  172.6460  136.2090 C   0  0  2  0  0  3  0  0  0  0  0  0
  186.0370  174.0240  135.5850 C   0  0  0  0  0  2  0  0  0  0  0  0
  183.3690  173.4720  137.2090 C   0  0  0  0  0  2  0  0  0  0  0  0
  1  5  2  0  0  0  0
  1  3  1  0  0  0  0
  2  7  1  0  0  0  0
  2  6  2  0  0  0  0
  3  4  2  0  0  0  0
  4  6  1  0  0  0  0
  4 11  1  0  0  0  0
  5  2  1  0  0  0  0
  7 10  1  0  0  0  0
  7  8  1  1  0  0  0
  9 10  2  0  0  0  0
 12 14  1  0  0  0  0
 13 21  1  0  0  0  0
 13 15  2  0  0  0  0
 14 18  2  0  0  0  0
 14 27  1  0  0  0  0
 15 19  1  0  0  0  0
 17 23  2  0  0  0  0
 19 17  1  0  0  0  0
 19 12  2  0  0  0  0
 20 25  1  0  0  0  0
 20 17  1  0  0  0  0
 21 20  2  0  0  0  0
 22 16  2  0  0  0  0
 23 22  1  0  0  0  0
 23 18  1  0  0  0  0
 24 11  1  0  0  0  0
 24 22  1  0  0  0  0
 25 24  1  0  0  0  0
 27 26  2  0  0  0  0
 27 28  1  0  0  0  0
 29 13  1  0  0  0  0
 30 29  1  0  0  0  0
 31 30  1  0  0  0  0
 32 31  1  0  0  0  0
 33 35  1  0  0  0  0
 33 32  1  0  0  0  0
 33 36  1  0  0  0  0
 35 34  1  6  0  0  0
 35 36  1  0  0  0  0
 37  5  1  0  0  0  0
 38 37  1  0  0  0  0
 39 40  2  0  0  0  0
 39 38  1  0  0  0  0
 41 42  2  0  0  0  0
 41 39  1  0  0  0  0
 43 41  1  0  0  0  0
 44 43  1  0  0  0  0
 44 45  1  0  0  0  0
 45 48  1  1  0  0  0
 45 46  1  0  0  0  0
 46 55  1  6  0  0  0
 47 50  1  0  0  0  0
 50 51  1  6  0  0  0
 50 55  1  0  0  0  0
 50 49  1  0  0  0  0
 52 46  1  0  0  0  0
 53 47  1  6  0  0  0
 53 52  1  0  0  0  0
 54 53  1  0  0  0  0
 54 45  1  0  0  0  0
M  END
>  <MODEL>
8

>  <REMARK>
 VINA RESULT:      -8.8      1.863      2.551
  Name = 
  17 active torsions:
  status: ('A' for Active; 'I' for Inactive)
    1  A    between atoms: C_2  and  C_8
    2  A    between atoms: C_2  and  O_48
    3  A    between atoms: O_3  and  C_4
    4  A    between atoms: O_3  and  C_8
    5  A    between atoms: C_4  and  C_7
    6  A    between atoms: C_5  and  C_16
    7  A    between atoms: C_5  and  C_47
    8  A    between atoms: C_6  and  C_22
    9  A    between atoms: C_6  and  N_52
   10  A    between atoms: N_10  and  O_28
   11  A    between atoms: C_11  and  O_36
   12  A    between atoms: C_12  and  C_39
   13  A    between atoms: O_28  and  C_34
   14  A    between atoms: C_34  and  C_44
   15  A    between atoms: O_36  and  C_44
   16  A    between atoms: C_43  and  O_48
   17  A    between atoms: C_43  and  C_49
                            x       y       z     vdW  Elec       q    Type
                         _______ _______ _______ _____ _____    ______ ____

>  <TORSDO>
F 17

$$$$
=
 OpenBabel11042411263D

 55 61  0  0  1  0  0  0  0  0999 V2000
  188.5600  175.3200  137.5490 C   0  0  0  0  0  3  0  0  0  0  0  0
  190.9470  174.8860  137.3700 C   0  0  0  0  0  0  0  0  0  0  0  0
  188.8140  176.3960  138.4020 C   0  0  0  0  0  3  0  0  0  0  0  0
  190.1290  176.7210  138.7430 C   0  0  0  0  0  0  0  0  0  0  0  0
  189.6150  174.5570  137.0380 C   0  0  0  0  0  0  0  0  0  0  0  0
  191.1900  175.9770  138.2190 C   0  0  0  0  0  3  0  0  0  0  0  0
  192.0940  174.1010  136.8040 C   0  0  2  0  0  3  0  0  0  0  0  0
  193.3590  174.2860  137.6280 C   0  0  0  0  0  1  0  0  0  0  0  0
  192.3720  175.6500  135.0430 O   0  0  0  0  0  0  0  0  0  0  0  0
  192.3320  174.4780  135.3760 C   0  0  0  0  0  3  0  0  0  0  0  0
  190.4090  177.8750  139.6440 C   0  0  0  0  0  2  0  0  0  0  0  0
  188.1160  177.4610  145.7710 C   0  0  0  0  0  3  0  0  0  0  0  0
  185.4360  178.1970  143.3190 C   0  0  0  0  0  0  0  0  0  0  0  0
  189.4980  177.2230  145.8030 C   0  0  0  0  0  0  0  0  0  0  0  0
  186.0940  177.9520  144.5350 C   0  0  0  0  0  3  0  0  0  0  0  0
  191.5970  177.2450  142.1220 O   0  0  0  0  0  0  0  0  0  0  0  0
  188.2070  177.7200  143.3540 C   0  0  0  0  0  0  0  0  0  0  0  0
  190.2270  177.2320  144.6070 C   0  0  0  0  0  3  0  0  0  0  0  0
  187.4700  177.7110  144.5590 C   0  0  0  0  0  0  0  0  0  0  0  0
  187.5470  177.9740  142.1380 C   0  0  0  0  0  0  0  0  0  0  0  0
  186.1690  178.2060  142.1270 C   0  0  0  0  0  3  0  0  0  0  0  0
  190.3570  177.4760  142.1220 C   0  0  0  0  0  0  0  0  0  0  0  0
  189.5920  177.4740  143.3820 C   0  0  0  0  0  0  0  0  0  0  0  0
  189.6670  177.7480  140.8920 N   0  0  0  0  0  0  0  0  0  0  0  0
  188.2850  178.0060  140.9120 N   0  0  0  0  0  2  0  0  0  0  0  0
  189.8150  177.5500  148.1290 O   0  0  0  0  0  1  0  0  0  0  0  0
  190.1800  176.9610  147.0790 C   0  0  0  0  0  0  0  0  0  0  0  0
  191.2310  176.0490  147.1380 O   0  0  0  0  0  0  0  0  0  0  0  0
  184.0580  178.4250  143.2670 O   0  0  0  0  0  0  0  0  0  0  0  0
  183.2700  178.6210  144.4320 C   0  0  0  0  0  2  0  0  0  0  0  0
  181.8770  179.0690  144.0310 C   0  0  0  0  0  2  0  0  0  0  0  0
  181.6490  178.7780  142.6830 O   0  0  0  0  0  0  0  0  0  0  0  0
  180.7720  179.7220  142.2590 N   0  0  0  0  0  0  0  0  0  0  0  0
  180.0580  180.7740  140.2060 C   0  0  0  0  0  1  0  0  0  0  0  0
  180.5810  179.5040  140.8470 C   0  0  2  0  0  3  0  0  0  0  0  0
  179.6730  179.0480  141.7500 O   0  0  0  0  0  0  0  0  0  0  0  0
  189.2960  173.4350  136.1070 C   0  0  0  0  0  2  0  0  0  0  0  0
  187.9150  173.4710  135.7750 O   0  0  0  0  0  0  0  0  0  0  0  0
  187.0420  172.4090  136.0400 C   0  0  0  0  0  0  0  0  0  0  0  0
  187.2310  171.3130  135.4500 O   0  0  0  0  0  0  0  0  0  0  0  0
  185.8830  172.5430  136.9470 C   0  0  0  0  0  0  0  0  0  0  0  0
  186.0870  172.6390  138.1850 O   0  0  0  0  0  0  0  0  0  0  0  0
  184.5660  172.5890  136.4780 O   0  0  0  0  0  0  0  0  0  0  0  0
  183.6500  173.6270  136.8110 C   0  0  0  0  0  2  0  0  0  0  0  0
  183.9890  174.9290  136.0730 C   0  0  2  0  0  0  0  0  0  0  0  0
  182.8420  175.9390  136.0320 C   0  0  2  0  0  3  0  0  0  0  0  0
  183.9040  177.2270  138.3310 C   0  0  0  0  0  2  0  0  0  0  0  0
  184.3870  174.6440  134.7670 O   0  0  0  0  0  1  0  0  0  0  0  0
  181.7000  178.0970  138.1530 F   0  0  0  0  0  0  0  0  0  0  0  0
  182.3950  176.9190  138.3700 C   0  0  2  0  0  0  0  0  0  0  0  0
  182.0340  176.3910  139.7430 C   0  0  0  0  0  1  0  0  0  0  0  0
  183.4660  177.1990  135.9630 O   0  0  0  0  0  0  0  0  0  0  0  0
  184.4980  177.0950  136.9160 C   0  0  2  0  0  3  0  0  0  0  0  0
  185.0830  175.6990  136.7720 C   0  0  0  0  0  2  0  0  0  0  0  0
  181.9620  175.8920  137.3060 C   0  0  0  0  0  2  0  0  0  0  0  0
  1  3  1  0  0  0  0
  2  6  2  0  0  0  0
  3  4  2  0  0  0  0
  4 11  1  0  0  0  0
  5  2  1  0  0  0  0
  5  1  2  0  0  0  0
  6  4  1  0  0  0  0
  7  2  1  0  0  0  0
  7  8  1  1  0  0  0
  9 10  2  0  0  0  0
 10  7  1  0  0  0  0
 11 24  1  0  0  0  0
 12 14  1  0  0  0  0
 13 15  2  0  0  0  0
 14 27  1  0  0  0  0
 15 19  1  0  0  0  0
 17 23  2  0  0  0  0
 17 19  1  0  0  0  0
 18 14  2  0  0  0  0
 19 12  2  0  0  0  0
 20 17  1  0  0  0  0
 21 20  2  0  0  0  0
 21 13  1  0  0  0  0
 22 16  2  0  0  0  0
 22 23  1  0  0  0  0
 23 18  1  0  0  0  0
 24 25  1  0  0  0  0
 24 22  1  0  0  0  0
 25 20  1  0  0  0  0
 27 28  2  0  0  0  0
 27 26  1  0  0  0  0
 29 13  1  0  0  0  0
 29 30  1  0  0  0  0
 31 30  1  0  0  0  0
 32 31  1  0  0  0  0
 33 32  1  0  0  0  0
 35 34  1  6  0  0  0
 35 36  1  0  0  0  0
 35 33  1  0  0  0  0
 36 33  1  0  0  0  0
 37  5  1  0  0  0  0
 38 39  1  0  0  0  0
 38 37  1  0  0  0  0
 39 41  1  0  0  0  0
 40 39  2  0  0  0  0
 41 42  2  0  0  0  0
 43 44  1  0  0  0  0
 43 41  1  0  0  0  0
 45 48  1  6  0  0  0
 45 54  1  0  0  0  0
 45 44  1  0  0  0  0
 46 45  1  0  0  0  0
 46 55  1  1  0  0  0
 47 50  1  0  0  0  0
 49 50  1  0  0  0  0
 50 51  1  1  0  0  0
 52 46  1  0  0  0  0
 52 53  1  0  0  0  0
 53 54  1  1  0  0  0
 53 47  1  0  0  0  0
 55 50  1  0  0  0  0
M  END
>  <MODEL>
9

>  <REMARK>
 VINA RESULT:      -8.6      2.421      8.124
  Name = 
  17 active torsions:
  status: ('A' for Active; 'I' for Inactive)
    1  A    between atoms: C_2  and  C_8
    2  A    between atoms: C_2  and  O_48
    3  A    between atoms: O_3  and  C_4
    4  A    between atoms: O_3  and  C_8
    5  A    between atoms: C_4  and  C_7
    6  A    between atoms: C_5  and  C_16
    7  A    between atoms: C_5  and  C_47
    8  A    between atoms: C_6  and  C_22
    9  A    between atoms: C_6  and  N_52
   10  A    between atoms: N_10  and  O_28
   11  A    between atoms: C_11  and  O_36
   12  A    between atoms: C_12  and  C_39
   13  A    between atoms: O_28  and  C_34
   14  A    between atoms: C_34  and  C_44
   15  A    between atoms: O_36  and  C_44
   16  A    between atoms: C_43  and  O_48
   17  A    between atoms: C_43  and  C_49
                            x       y       z     vdW  Elec       q    Type
                         _______ _______ _______ _____ _____    ______ ____

>  <TORSDO>
F 17

$$$$
