=
 OpenBabel11042412493D

 66 71  0  0  1  0  0  0  0  0999 V2000
  184.3170  178.4780  138.4340 C   0  0  2  0  0  3  0  0  0  0  0  0
  184.4050  179.2080  142.2410 C   0  0  2  0  0  3  0  0  0  0  0  0
  184.5970  178.2290  139.9210 C   0  0  2  0  0  3  0  0  0  0  0  0
  183.2090  178.7810  140.9790 S   0  0  0  0  0  0  0  0  0  0  0  0
  185.8340  179.0080  140.3730 C   0  0  0  0  0  2  0  0  0  0  0  0
  185.6630  179.2620  141.8270 C   0  0  0  0  0  2  0  0  0  0  0  0
  184.0480  179.3480  143.6890 C   0  0  1  0  0  3  0  0  0  0  0  0
  182.9600  178.5200  143.9840 O   0  0  0  0  0  1  0  0  0  0  0  0
  186.6370  177.5220  146.6260 C   0  0  0  0  0  2  0  0  0  0  0  0
  185.2430  179.0090  144.5820 C   0  0  2  0  0  3  0  0  0  0  0  0
  186.9750  177.2730  145.1540 C   0  0  1  0  0  3  0  0  0  0  0  0
  185.7770  177.6070  144.2660 C   0  0  0  0  0  2  0  0  0  0  0  0
  184.8510  179.0710  145.9910 N   0  0  0  0  0  2  0  0  0  0  0  0
  186.0460  178.9170  146.8160 C   0  0  0  0  0  2  0  0  0  0  0  0
  188.2010  178.0650  144.7130 C   0  0  0  0  0  2  0  0  0  0  0  0
  190.5150  177.3320  145.6100 N   0  0  0  0  0  1  0  0  0  0  0  0
  189.5380  176.9480  144.1920 S   0  0  0  0  0  0  0  0  0  0  0  0
  182.4110  178.5390  136.9260 N   0  0  0  0  0  0  0  0  0  0  0  0
  182.8480  178.5640  138.1330 C   0  0  0  0  0  3  0  0  0  0  0  0
  180.9980  178.6030  136.6660 C   0  0  1  0  0  3  0  0  0  0  0  0
  180.2890  177.4470  137.3540 C   0  0  0  0  0  2  0  0  0  0  0  0
  179.7010  176.4970  136.3280 C   0  0  0  0  0  2  0  0  0  0  0  0
  180.7530  175.6690  135.7620 N   0  0  0  0  0  2  0  0  0  0  0  0
  181.5070  175.0860  136.8690 C   0  0  1  0  0  3  0  0  0  0  0  0
  180.6230  174.3130  137.7360 N   0  0  0  0  0  2  0  0  0  0  0  0
  180.3590  176.0660  139.5870 C   0  0  0  0  0  3  0  0  0  0  0  0
  179.6770  176.0730  140.7210 C   0  0  0  0  0  0  0  0  0  0  0  0
  179.2880  174.0450  139.6880 N   0  0  0  0  0  0  0  0  0  0  0  0
  178.9360  174.7840  140.8890 C   0  0  0  0  0  2  0  0  0  0  0  0
  180.0800  174.7740  138.9780 C   0  0  0  0  0  0  0  0  0  0  0  0
  179.4860  179.5660  142.1500 C   0  0  0  0  0  0  0  0  0  0  0  0
  179.3510  180.9690  141.6860 C   0  0  0  0  0  1  0  0  0  0  0  0
  179.7200  176.9580  143.0500 C   0  0  0  0  0  3  0  0  0  0  0  0
  179.5740  179.2820  143.5110 C   0  0  0  0  0  3  0  0  0  0  0  0
  179.6430  177.1960  141.6740 C   0  0  0  0  0  0  0  0  0  0  0  0
  179.6880  177.9940  143.9290 N   0  0  0  0  0  0  0  0  0  0  0  0
  179.5240  178.5210  141.2290 C   0  0  0  0  0  3  0  0  0  0  0  0
  185.2430  174.2030  136.8370 C   0  0  0  0  0  2  0  0  0  0  0  0
  183.4840  174.9030  135.3720 N   0  0  0  0  0  2  0  0  0  0  0  0
  184.7950  174.2850  135.3990 C   0  0  0  0  0  2  0  0  0  0  0  0
  183.7730  173.8320  137.8220 S   0  0  0  0  0  0  0  0  0  0  0  0
  182.7020  174.2380  136.4070 C   0  0  1  0  0  3  0  0  0  0  0  0
  180.4950  179.8130  137.1430 O   0  0  0  0  0  0  0  0  0  0  0  0
  180.5200  180.6750  136.0440 C   0  0  0  0  0  2  0  0  0  0  0  0
  181.2380  182.3190  137.8960 C   0  0  0  0  0  1  0  0  0  0  0  0
  180.6870  183.0850  135.6440 C   0  0  0  0  0  2  0  0  0  0  0  0
  180.7690  182.0720  136.5030 C   0  0  0  0  0  0  0  0  0  0  0  0
  184.9580  177.3980  137.5740 C   0  0  0  0  0  2  0  0  0  0  0  0
  186.9860  177.6270  136.2290 C   0  0  0  0  0  3  0  0  0  0  0  0
  186.4080  177.6920  137.4240 C   0  0  0  0  0  3  0  0  0  0  0  0
  188.4450  177.9290  136.0760 C   0  0  2  0  0  3  0  0  0  0  0  0
  189.2090  176.6620  135.8480 C   0  0  0  0  0  0  0  0  0  0  0  0
  188.7660  175.7850  135.0560 O   0  0  0  0  0  0  0  0  0  0  0  0
  190.4570  176.4680  136.5180 N   0  0  0  0  0  2  0  0  0  0  0  0
  190.6700  174.1110  137.1540 C   0  0  0  0  0  1  0  0  0  0  0  0
  191.2800  175.2690  136.3870 C   0  0  2  0  0  3  0  0  0  0  0  0
  192.6320  175.5350  136.8550 N   0  0  0  0  0  2  0  0  0  0  0  0
  194.5440  174.0770  136.5750 C   0  0  0  0  0  1  0  0  0  0  0  0
  193.5610  174.9930  135.8770 C   0  0  2  0  0  3  0  0  0  0  0  0
  194.4720  176.3440  135.0650 S   0  0  0  0  0  1  0  0  0  0  0  0
  188.9780  178.7120  137.2450 C   0  0  0  0  0  0  0  0  0  0  0  0
  188.7360  179.9470  137.3340 O   0  0  0  0  0  0  0  0  0  0  0  0
  189.8120  178.0920  138.1780 O   0  0  0  0  0  0  0  0  0  0  0  0
  189.6160  178.2450  139.5760 C   0  0  0  0  0  3  0  0  0  0  0  0
  188.7760  177.0930  140.0880 C   0  0  0  0  0  2  0  0  0  0  0  0
  190.2720  177.0870  140.3010 C   0  0  0  0  0  2  0  0  0  0  0  0
  1 48  1  6  0  0  0
  2  7  1  1  0  0  0
  3  1  1  6  0  0  0
  3  5  1  0  0  0  0
  3  4  1  0  0  0  0
  4  2  1  0  0  0  0
  5  6  1  0  0  0  0
  6  2  1  0  0  0  0
  7  8  1  1  0  0  0
  9 14  1  0  0  0  0
 10  7  1  6  0  0  0
 10 13  1  0  0  0  0
 11 15  1  6  0  0  0
 11  9  1  0  0  0  0
 12 10  1  0  0  0  0
 12 11  1  0  0  0  0
 13 14  1  0  0  0  0
 17 15  1  0  0  0  0
 17 16  1  0  0  0  0
 18 19  2  0  0  0  0
 19  1  1  0  0  0  0
 20 18  1  0  0  0  0
 20 43  1  0  0  0  0
 20 21  1  1  0  0  0
 22 21  1  0  0  0  0
 23 22  1  0  0  0  0
 24 23  1  6  0  0  0
 24 25  1  0  0  0  0
 25 30  1  0  0  0  0
 26 27  2  0  0  0  0
 27 29  1  0  0  0  0
 27 35  1  0  0  0  0
 28 29  1  0  0  0  0
 30 26  1  0  0  0  0
 30 28  2  0  0  0  0
 31 34  1  0  0  0  0
 32 31  1  0  0  0  0
 33 36  1  0  0  0  0
 34 36  2  0  0  0  0
 35 33  2  0  0  0  0
 37 35  1  0  0  0  0
 37 31  2  0  0  0  0
 38 41  1  0  0  0  0
 39 40  1  0  0  0  0
 39 42  1  0  0  0  0
 40 38  1  0  0  0  0
 42 24  1  1  0  0  0
 42 41  1  0  0  0  0
 44 47  1  0  0  0  0
 44 43  1  0  0  0  0
 46 47  2  0  0  0  0
 47 45  1  0  0  0  0
 49 50  2  0  0  0  0
 50 48  1  0  0  0  0
 51 49  1  1  0  0  0
 51 61  1  0  0  0  0
 52 51  1  0  0  0  0
 52 54  1  0  0  0  0
 53 52  2  0  0  0  0
 56 54  1  0  0  0  0
 56 57  1  0  0  0  0
 56 55  1  1  0  0  0
 59 58  1  1  0  0  0
 59 57  1  0  0  0  0
 60 59  1  0  0  0  0
 61 62  2  0  0  0  0
 61 63  1  0  0  0  0
 63 64  1  0  0  0  0
 64 65  1  0  0  0  0
 64 66  1  0  0  0  0
 65 66  1  0  0  0  0
M  END
>  <MODEL>
1

>  <REMARK>
 VINA RESULT:      -5.9      0.000      0.000
  Name = 
  27 active torsions:
  status: ('A' for Active; 'I' for Inactive)
    1  A    between atoms: C_3  and  C_5
    2  A    between atoms: C_3  and  C_14
    3  A    between atoms: C_6  and  N_10
    4  A    between atoms: C_6  and  N_50
    5  A    between atoms: C_6  and  C_61
    6  A    between atoms: O_7  and  C_37
    7  A    between atoms: O_7  and  C_45
    8  A    between atoms: C_8  and  C_17
    9  A    between atoms: C_9  and  C_42
   10  A    between atoms: N_11  and  C_37
   11  A    between atoms: C_13  and  C_42
   12  A    between atoms: C_13  and  O_53
   13  A    between atoms: C_17  and  C_18
   14  A    between atoms: C_17  and  C_26
   15  A    between atoms: C_18  and  C_48
   16  A    between atoms: C_23  and  C_49
   17  A    between atoms: C_27  and  C_28
   18  A    between atoms: C_27  and  C_37
   19  A    between atoms: C_28  and  N_50
   20  A    between atoms: C_29  and  C_55
   21  A    between atoms: C_31  and  C_42
   22  A    between atoms: C_35  and  O_53
   23  A    between atoms: C_44  and  C_45
   24  A    between atoms: C_46  and  N_59
   25  A    between atoms: C_46  and  N_66
   26  A    between atoms: C_51  and  N_59
   27  A    between atoms: C_55  and  S_60
                            x       y       z     vdW  Elec       q    Type
                         _______ _______ _______ _____ _____    ______ ____

>  <TORSDO>
F 27

$$$$
=
 OpenBabel11042412493D

 66 71  0  0  1  0  0  0  0  0999 V2000
  189.1330  177.0310  138.4430 C   0  0  2  0  0  3  0  0  0  0  0  0
  192.0510  174.9520  136.9610 C   0  0  2  0  0  3  0  0  0  0  0  0
  190.4540  176.7570  137.7140 C   0  0  2  0  0  3  0  0  0  0  0  0
  190.3330  175.3080  136.6020 S   0  0  0  0  0  0  0  0  0  0  0  0
  191.5690  176.4540  138.7160 C   0  0  0  0  0  2  0  0  0  0  0  0
  192.5520  175.5950  138.0060 C   0  0  0  0  0  2  0  0  0  0  0  0
  192.9130  174.1110  136.0680 C   0  0  1  0  0  3  0  0  0  0  0  0
  193.0610  174.7450  134.8310 O   0  0  0  0  0  1  0  0  0  0  0  0
  196.8070  172.4970  137.0150 C   0  0  0  0  0  2  0  0  0  0  0  0
  194.2770  173.8530  136.7120 C   0  0  2  0  0  3  0  0  0  0  0  0
  196.7710  173.8820  136.3620 C   0  0  1  0  0  3  0  0  0  0  0  0
  195.4090  174.1330  135.7160 C   0  0  0  0  0  2  0  0  0  0  0  0
  194.3640  172.4640  137.1650 N   0  0  0  0  0  2  0  0  0  0  0  0
  195.5990  172.2980  137.9270 C   0  0  0  0  0  2  0  0  0  0  0  0
  197.0970  174.9870  137.3610 C   0  0  0  0  0  2  0  0  0  0  0  0
  196.1040  175.3350  139.7250 N   0  0  0  0  0  1  0  0  0  0  0  0
  197.3480  174.2980  139.0250 S   0  0  0  0  0  0  0  0  0  0  0  0
  187.1890  177.1160  136.9860 N   0  0  0  0  0  0  0  0  0  0  0  0
  187.9540  176.4170  137.7440 C   0  0  0  0  0  3  0  0  0  0  0  0
  186.0770  176.5000  136.3120 C   0  0  1  0  0  3  0  0  0  0  0  0
  184.9330  177.4930  136.1830 C   0  0  0  0  0  2  0  0  0  0  0  0
  183.6560  176.9100  136.7570 C   0  0  0  0  0  2  0  0  0  0  0  0
  183.4540  177.4000  138.1110 N   0  0  0  0  0  2  0  0  0  0  0  0
  182.0720  177.8590  138.2190 C   0  0  1  0  0  3  0  0  0  0  0  0
  181.3520  177.0780  139.2200 N   0  0  0  0  0  2  0  0  0  0  0  0
  180.9770  174.9810  137.7940 C   0  0  0  0  0  3  0  0  0  0  0  0
  180.3880  173.8230  138.0440 C   0  0  0  0  0  0  0  0  0  0  0  0
  180.2520  175.1020  139.9620 N   0  0  0  0  0  0  0  0  0  0  0  0
  179.8690  173.7980  139.4480 C   0  0  0  0  0  2  0  0  0  0  0  0
  180.8670  175.7440  139.0270 C   0  0  0  0  0  0  0  0  0  0  0  0
  181.2480  170.8830  135.8320 C   0  0  0  0  0  0  0  0  0  0  0  0
  182.4190  170.0450  135.4730 C   0  0  0  0  0  1  0  0  0  0  0  0
  179.0380  172.4140  136.4920 C   0  0  0  0  0  3  0  0  0  0  0  0
  180.0020  170.6260  135.2650 C   0  0  0  0  0  3  0  0  0  0  0  0
  180.2720  172.7140  137.0810 C   0  0  0  0  0  0  0  0  0  0  0  0
  178.9310  171.3910  135.6060 N   0  0  0  0  0  0  0  0  0  0  0  0
  181.3840  171.9320  136.7390 C   0  0  0  0  0  3  0  0  0  0  0  0
  180.1010  180.9760  139.2870 C   0  0  0  0  0  2  0  0  0  0  0  0
  181.3100  180.0880  137.4210 N   0  0  0  0  0  2  0  0  0  0  0  0
  180.8080  181.3190  138.0000 C   0  0  0  0  0  2  0  0  0  0  0  0
  181.0410  179.6390  140.0590 S   0  0  0  0  0  0  0  0  0  0  0  0
  181.9550  179.3630  138.5090 C   0  0  1  0  0  3  0  0  0  0  0  0
  186.4800  176.0820  135.0440 O   0  0  0  0  0  0  0  0  0  0  0  0
  185.4520  175.2500  134.5940 C   0  0  0  0  0  2  0  0  0  0  0  0
  186.8680  173.3270  135.5660 C   0  0  0  0  0  1  0  0  0  0  0  0
  184.4320  173.3410  135.7380 C   0  0  0  0  0  2  0  0  0  0  0  0
  185.5350  173.9280  135.2790 C   0  0  0  0  0  0  0  0  0  0  0  0
  188.9090  178.5260  138.6160 C   0  0  0  0  0  2  0  0  0  0  0  0
  187.2720  178.4020  140.4270 C   0  0  0  0  0  3  0  0  0  0  0  0
  188.4710  178.7950  140.0120 C   0  0  0  0  0  3  0  0  0  0  0  0
  186.8330  178.6670  141.8340 C   0  0  2  0  0  3  0  0  0  0  0  0
  187.5350  177.7360  142.7740 C   0  0  0  0  0  0  0  0  0  0  0  0
  188.1280  176.7140  142.3320 O   0  0  0  0  0  0  0  0  0  0  0  0
  187.5450  178.0320  144.1730 N   0  0  0  0  0  2  0  0  0  0  0  0
  187.1540  176.6640  146.1690 C   0  0  0  0  0  1  0  0  0  0  0  0
  188.1800  177.1910  145.1830 C   0  0  2  0  0  3  0  0  0  0  0  0
  189.2180  177.9390  145.8780 N   0  0  0  0  0  2  0  0  0  0  0  0
  189.3140  178.3930  148.2540 C   0  0  0  0  0  1  0  0  0  0  0  0
  189.4160  177.3280  147.1820 C   0  0  2  0  0  3  0  0  0  0  0  0
  191.0590  176.5490  147.2630 S   0  0  0  0  0  1  0  0  0  0  0  0
  185.3370  178.5950  141.9740 C   0  0  0  0  0  0  0  0  0  0  0  0
  184.5990  179.0680  141.0660 O   0  0  0  0  0  0  0  0  0  0  0  0
  184.7690  178.0880  143.1450 O   0  0  0  0  0  0  0  0  0  0  0  0
  183.5130  178.5440  143.6270 C   0  0  0  0  0  3  0  0  0  0  0  0
  183.5910  178.7140  145.1300 C   0  0  0  0  0  2  0  0  0  0  0  0
  183.6830  179.9250  144.2290 C   0  0  0  0  0  2  0  0  0  0  0  0
  1 19  1  6  0  0  0
  1 48  1  0  0  0  0
  2  7  1  6  0  0  0
  2  6  1  0  0  0  0
  3  1  1  1  0  0  0
  3  5  1  0  0  0  0
  4  2  1  0  0  0  0
  4  3  1  0  0  0  0
  6  5  1  0  0  0  0
  7  8  1  6  0  0  0
  9 14  1  0  0  0  0
 10  7  1  6  0  0  0
 10 13  1  0  0  0  0
 11  9  1  0  0  0  0
 11 15  1  1  0  0  0
 12 11  1  0  0  0  0
 12 10  1  0  0  0  0
 13 14  1  0  0  0  0
 15 17  1  0  0  0  0
 17 16  1  0  0  0  0
 18 19  2  0  0  0  0
 20 21  1  6  0  0  0
 20 18  1  0  0  0  0
 21 22  1  0  0  0  0
 22 23  1  0  0  0  0
 24 23  1  1  0  0  0
 24 25  1  0  0  0  0
 26 27  2  0  0  0  0
 26 30  1  0  0  0  0
 27 29  1  0  0  0  0
 29 28  1  0  0  0  0
 30 25  1  0  0  0  0
 30 28  2  0  0  0  0
 31 37  1  0  0  0  0
 32 31  1  0  0  0  0
 33 35  1  0  0  0  0
 34 36  1  0  0  0  0
 34 31  2  0  0  0  0
 35 27  1  0  0  0  0
 36 33  2  0  0  0  0
 37 35  2  0  0  0  0
 38 41  1  0  0  0  0
 39 40  1  0  0  0  0
 39 42  1  0  0  0  0
 40 38  1  0  0  0  0
 42 24  1  6  0  0  0
 42 41  1  0  0  0  0
 43 20  1  0  0  0  0
 44 43  1  0  0  0  0
 44 47  1  0  0  0  0
 47 45  1  0  0  0  0
 47 46  2  0  0  0  0
 48 50  1  0  0  0  0
 50 49  2  0  0  0  0
 51 49  1  6  0  0  0
 51 61  1  0  0  0  0
 51 52  1  0  0  0  0
 52 54  1  0  0  0  0
 53 52  2  0  0  0  0
 54 56  1  0  0  0  0
 56 57  1  0  0  0  0
 56 55  1  1  0  0  0
 57 59  1  0  0  0  0
 59 60  1  0  0  0  0
 59 58  1  1  0  0  0
 61 63  1  0  0  0  0
 62 61  2  0  0  0  0
 63 64  1  0  0  0  0
 64 66  1  0  0  0  0
 64 65  1  0  0  0  0
 66 65  1  0  0  0  0
M  END
>  <MODEL>
2

>  <REMARK>
 VINA RESULT:      -5.9      2.656      8.834
  Name = 
  27 active torsions:
  status: ('A' for Active; 'I' for Inactive)
    1  A    between atoms: C_3  and  C_5
    2  A    between atoms: C_3  and  C_14
    3  A    between atoms: C_6  and  N_10
    4  A    between atoms: C_6  and  N_50
    5  A    between atoms: C_6  and  C_61
    6  A    between atoms: O_7  and  C_37
    7  A    between atoms: O_7  and  C_45
    8  A    between atoms: C_8  and  C_17
    9  A    between atoms: C_9  and  C_42
   10  A    between atoms: N_11  and  C_37
   11  A    between atoms: C_13  and  C_42
   12  A    between atoms: C_13  and  O_53
   13  A    between atoms: C_17  and  C_18
   14  A    between atoms: C_17  and  C_26
   15  A    between atoms: C_18  and  C_48
   16  A    between atoms: C_23  and  C_49
   17  A    between atoms: C_27  and  C_28
   18  A    between atoms: C_27  and  C_37
   19  A    between atoms: C_28  and  N_50
   20  A    between atoms: C_29  and  C_55
   21  A    between atoms: C_31  and  C_42
   22  A    between atoms: C_35  and  O_53
   23  A    between atoms: C_44  and  C_45
   24  A    between atoms: C_46  and  N_59
   25  A    between atoms: C_46  and  N_66
   26  A    between atoms: C_51  and  N_59
   27  A    between atoms: C_55  and  S_60
                            x       y       z     vdW  Elec       q    Type
                         _______ _______ _______ _____ _____    ______ ____

>  <TORSDO>
F 27

$$$$
=
 OpenBabel11042412493D

 66 71  0  0  1  0  0  0  0  0999 V2000
  189.0370  177.2120  139.2350 C   0  0  2  0  0  3  0  0  0  0  0  0
  192.3540  176.3140  137.4390 C   0  0  2  0  0  3  0  0  0  0  0  0
  190.3900  177.4450  138.5510 C   0  0  2  0  0  3  0  0  0  0  0  0
  190.6020  176.3830  137.0760 S   0  0  0  0  0  0  0  0  0  0  0  0
  191.5390  177.1130  139.5040 C   0  0  0  0  0  2  0  0  0  0  0  0
  192.6930  176.7230  138.6530 C   0  0  0  0  0  2  0  0  0  0  0  0
  193.3870  175.9660  136.4100 C   0  0  1  0  0  3  0  0  0  0  0  0
  194.3880  176.9430  136.4050 O   0  0  0  0  0  1  0  0  0  0  0  0
  194.9360  171.9600  135.9400 C   0  0  0  0  0  2  0  0  0  0  0  0
  193.9820  174.5830  136.6800 C   0  0  2  0  0  3  0  0  0  0  0  0
  195.9470  173.0590  136.2800 C   0  0  1  0  0  3  0  0  0  0  0  0
  195.3510  174.4380  136.0030 C   0  0  0  0  0  2  0  0  0  0  0  0
  193.0830  173.5430  136.1770 N   0  0  0  0  0  2  0  0  0  0  0  0
  193.5890  172.2410  136.6040 C   0  0  0  0  0  2  0  0  0  0  0  0
  196.4200  172.9640  137.7260 C   0  0  0  0  0  2  0  0  0  0  0  0
  198.7740  173.6010  136.8590 N   0  0  0  0  0  1  0  0  0  0  0  0
  197.6700  174.2360  138.0810 S   0  0  0  0  0  0  0  0  0  0  0  0
  187.2160  177.3240  137.6290 N   0  0  0  0  0  0  0  0  0  0  0  0
  188.0260  176.5970  138.3100 C   0  0  0  0  0  3  0  0  0  0  0  0
  186.2690  176.7120  136.7350 C   0  0  1  0  0  3  0  0  0  0  0  0
  184.9450  177.4590  136.7890 C   0  0  0  0  0  2  0  0  0  0  0  0
  183.7860  176.4830  136.8290 C   0  0  0  0  0  2  0  0  0  0  0  0
  183.2570  176.3980  138.1800 N   0  0  0  0  0  2  0  0  0  0  0  0
  181.9150  176.9760  138.1730 C   0  0  1  0  0  3  0  0  0  0  0  0
  180.9380  175.9970  138.6390 N   0  0  0  0  0  2  0  0  0  0  0  0
  181.7580  174.0160  137.2350 C   0  0  0  0  0  3  0  0  0  0  0  0
  181.3510  172.7610  137.1350 C   0  0  0  0  0  0  0  0  0  0  0  0
  179.9990  173.8100  138.6850 N   0  0  0  0  0  0  0  0  0  0  0  0
  180.1900  172.5180  138.0480 C   0  0  0  0  0  2  0  0  0  0  0  0
  180.8800  174.6290  138.2200 C   0  0  0  0  0  0  0  0  0  0  0  0
  183.9000  170.5480  135.4370 C   0  0  0  0  0  0  0  0  0  0  0  0
  185.3630  170.2960  135.4490 C   0  0  0  0  0  1  0  0  0  0  0  0
  181.1650  170.9800  135.4010 C   0  0  0  0  0  3  0  0  0  0  0  0
  183.0690  169.8140  134.5940 C   0  0  0  0  0  3  0  0  0  0  0  0
  181.9620  171.7460  136.2590 C   0  0  0  0  0  0  0  0  0  0  0  0
  181.7290  170.0430  134.5950 N   0  0  0  0  0  0  0  0  0  0  0  0
  183.3460  171.5190  136.2680 C   0  0  0  0  0  3  0  0  0  0  0  0
  181.2470  178.9350  141.4060 C   0  0  0  0  0  2  0  0  0  0  0  0
  180.4320  178.7060  139.1660 N   0  0  0  0  0  2  0  0  0  0  0  0
  180.4370  179.5910  140.3150 C   0  0  0  0  0  2  0  0  0  0  0  0
  182.6240  178.0880  140.5970 S   0  0  0  0  0  0  0  0  0  0  0  0
  181.8140  178.2790  138.9780 C   0  0  1  0  0  3  0  0  0  0  0  0
  186.7730  176.7440  135.4360 O   0  0  0  0  0  0  0  0  0  0  0  0
  187.5220  175.5720  135.3090 C   0  0  0  0  0  2  0  0  0  0  0  0
  186.6760  173.6660  136.8270 C   0  0  0  0  0  1  0  0  0  0  0  0
  185.7490  174.0390  134.5990 C   0  0  0  0  0  2  0  0  0  0  0  0
  186.6430  174.3850  135.5220 C   0  0  0  0  0  0  0  0  0  0  0  0
  188.4890  178.5100  139.8100 C   0  0  0  0  0  2  0  0  0  0  0  0
  187.7750  177.8140  142.0420 C   0  0  0  0  0  3  0  0  0  0  0  0
  188.6380  178.4880  141.2900 C   0  0  0  0  0  3  0  0  0  0  0  0
  187.9280  177.7870  143.5310 C   0  0  2  0  0  3  0  0  0  0  0  0
  189.3620  177.5490  143.8950 C   0  0  0  0  0  0  0  0  0  0  0  0
  189.9800  176.5540  143.4270 O   0  0  0  0  0  0  0  0  0  0  0  0
  190.0270  178.4750  144.7580 N   0  0  0  0  0  2  0  0  0  0  0  0
  192.3690  178.7400  144.0870 C   0  0  0  0  0  1  0  0  0  0  0  0
  191.4130  178.3370  145.1940 C   0  0  2  0  0  3  0  0  0  0  0  0
  191.6710  176.9690  145.6190 N   0  0  0  0  0  2  0  0  0  0  0  0
  192.2520  175.7570  147.6320 C   0  0  0  0  0  1  0  0  0  0  0  0
  191.4330  176.8900  147.0500 C   0  0  2  0  0  3  0  0  0  0  0  0
  189.6680  176.5820  147.3740 S   0  0  0  0  0  1  0  0  0  0  0  0
  187.0060  176.7840  144.1680 C   0  0  0  0  0  0  0  0  0  0  0  0
  186.8560  175.6470  143.6410 O   0  0  0  0  0  0  0  0  0  0  0  0
  186.2500  177.1420  145.2860 O   0  0  0  0  0  0  0  0  0  0  0  0
  185.7530  178.4610  145.4640 C   0  0  0  0  0  3  0  0  0  0  0  0
  184.8390  178.4880  146.6710 C   0  0  0  0  0  2  0  0  0  0  0  0
  186.2540  179.0080  146.7860 C   0  0  0  0  0  2  0  0  0  0  0  0
  1 19  1  6  0  0  0
  1 48  1  0  0  0  0
  2  7  1  6  0  0  0
  2  6  1  0  0  0  0
  3  1  1  1  0  0  0
  3  5  1  0  0  0  0
  4  2  1  0  0  0  0
  4  3  1  0  0  0  0
  6  5  1  0  0  0  0
  7  8  1  1  0  0  0
  9 11  1  0  0  0  0
  9 14  1  0  0  0  0
 10  7  1  6  0  0  0
 11 15  1  1  0  0  0
 12 11  1  0  0  0  0
 12 10  1  0  0  0  0
 13 14  1  0  0  0  0
 13 10  1  0  0  0  0
 15 17  1  0  0  0  0
 16 17  1  0  0  0  0
 18 19  2  0  0  0  0
 20 21  1  6  0  0  0
 20 18  1  0  0  0  0
 21 22  1  0  0  0  0
 22 23  1  0  0  0  0
 24 23  1  1  0  0  0
 24 25  1  0  0  0  0
 26 30  1  0  0  0  0
 27 26  2  0  0  0  0
 27 29  1  0  0  0  0
 29 28  1  0  0  0  0
 30 25  1  0  0  0  0
 30 28  2  0  0  0  0
 31 32  1  0  0  0  0
 31 37  1  0  0  0  0
 33 35  1  0  0  0  0
 34 36  1  0  0  0  0
 34 31  2  0  0  0  0
 35 37  2  0  0  0  0
 35 27  1  0  0  0  0
 36 33  2  0  0  0  0
 39 40  1  0  0  0  0
 40 38  1  0  0  0  0
 41 38  1  0  0  0  0
 42 24  1  1  0  0  0
 42 39  1  0  0  0  0
 42 41  1  0  0  0  0
 43 20  1  0  0  0  0
 44 43  1  0  0  0  0
 44 47  1  0  0  0  0
 46 47  2  0  0  0  0
 47 45  1  0  0  0  0
 48 50  1  0  0  0  0
 50 49  2  0  0  0  0
 51 49  1  6  0  0  0
 51 52  1  0  0  0  0
 51 61  1  0  0  0  0
 52 54  1  0  0  0  0
 53 52  2  0  0  0  0
 54 56  1  0  0  0  0
 56 55  1  6  0  0  0
 56 57  1  0  0  0  0
 57 59  1  0  0  0  0
 59 60  1  0  0  0  0
 59 58  1  6  0  0  0
 61 63  1  0  0  0  0
 62 61  2  0  0  0  0
 63 64  1  0  0  0  0
 64 65  1  0  0  0  0
 64 66  1  0  0  0  0
 65 66  1  0  0  0  0
M  END
>  <MODEL>
3

>  <REMARK>
 VINA RESULT:      -5.9      2.823      9.009
  Name = 
  27 active torsions:
  status: ('A' for Active; 'I' for Inactive)
    1  A    between atoms: C_3  and  C_5
    2  A    between atoms: C_3  and  C_14
    3  A    between atoms: C_6  and  N_10
    4  A    between atoms: C_6  and  N_50
    5  A    between atoms: C_6  and  C_61
    6  A    between atoms: O_7  and  C_37
    7  A    between atoms: O_7  and  C_45
    8  A    between atoms: C_8  and  C_17
    9  A    between atoms: C_9  and  C_42
   10  A    between atoms: N_11  and  C_37
   11  A    between atoms: C_13  and  C_42
   12  A    between atoms: C_13  and  O_53
   13  A    between atoms: C_17  and  C_18
   14  A    between atoms: C_17  and  C_26
   15  A    between atoms: C_18  and  C_48
   16  A    between atoms: C_23  and  C_49
   17  A    between atoms: C_27  and  C_28
   18  A    between atoms: C_27  and  C_37
   19  A    between atoms: C_28  and  N_50
   20  A    between atoms: C_29  and  C_55
   21  A    between atoms: C_31  and  C_42
   22  A    between atoms: C_35  and  O_53
   23  A    between atoms: C_44  and  C_45
   24  A    between atoms: C_46  and  N_59
   25  A    between atoms: C_46  and  N_66
   26  A    between atoms: C_51  and  N_59
   27  A    between atoms: C_55  and  S_60
                            x       y       z     vdW  Elec       q    Type
                         _______ _______ _______ _____ _____    ______ ____

>  <TORSDO>
F 27

$$$$
=
 OpenBabel11042412493D

 66 71  0  0  1  0  0  0  0  0999 V2000
  185.9390  178.3840  141.9060 C   0  0  2  0  0  3  0  0  0  0  0  0
  182.1120  179.0060  141.8930 C   0  0  2  0  0  3  0  0  0  0  0  0
  184.4510  178.0850  142.1280 C   0  0  2  0  0  3  0  0  0  0  0  0
  183.4230  178.6560  140.7250 S   0  0  0  0  0  0  0  0  0  0  0  0
  183.9380  178.8070  143.3750 C   0  0  0  0  0  2  0  0  0  0  0  0
  182.4830  179.0270  143.1650 C   0  0  0  0  0  2  0  0  0  0  0  0
  180.6720  179.1190  141.4930 C   0  0  1  0  0  3  0  0  0  0  0  0
  180.2300  180.4290  141.7070 O   0  0  0  0  0  1  0  0  0  0  0  0
  179.0630  178.6040  137.5170 C   0  0  0  0  0  2  0  0  0  0  0  0
  180.4780  178.7140  140.0300 C   0  0  2  0  0  3  0  0  0  0  0  0
  180.2630  179.5440  137.6620 C   0  0  1  0  0  3  0  0  0  0  0  0
  180.4490  179.9510  139.1230 C   0  0  0  0  0  2  0  0  0  0  0  0
  179.2260  177.9730  139.8760 N   0  0  0  0  0  2  0  0  0  0  0  0
  179.1550  177.4510  138.5140 C   0  0  0  0  0  2  0  0  0  0  0  0
  181.5410  178.9180  137.1170 C   0  0  0  0  0  2  0  0  0  0  0  0
  181.5580  176.6160  135.9350 N   0  0  0  0  0  1  0  0  0  0  0  0
  181.2810  178.2850  135.4320 S   0  0  0  0  0  0  0  0  0  0  0  0
  187.3830  177.9640  139.9960 N   0  0  0  0  0  0  0  0  0  0  0  0
  186.2950  178.4730  140.4490 C   0  0  0  0  0  3  0  0  0  0  0  0
  187.6920  178.0460  138.5930 C   0  0  1  0  0  3  0  0  0  0  0  0
  188.6430  176.9250  138.2040 C   0  0  0  0  0  2  0  0  0  0  0  0
  189.8800  177.4870  137.5310 C   0  0  0  0  0  2  0  0  0  0  0  0
  190.2470  176.6560  136.3960 N   0  0  0  0  0  2  0  0  0  0  0  0
  190.9220  175.4680  136.9120 C   0  0  1  0  0  3  0  0  0  0  0  0
  190.8690  174.3870  135.9330 N   0  0  0  0  0  2  0  0  0  0  0  0
  188.4650  173.6330  136.4020 C   0  0  0  0  0  3  0  0  0  0  0  0
  187.7060  172.6850  135.8770 C   0  0  0  0  0  0  0  0  0  0  0  0
  189.7430  172.6270  134.7920 N   0  0  0  0  0  0  0  0  0  0  0  0
  188.4550  171.9560  134.8050 C   0  0  0  0  0  2  0  0  0  0  0  0
  189.7290  173.5560  135.6860 C   0  0  0  0  0  0  0  0  0  0  0  0
  184.2510  171.1620  136.0290 C   0  0  0  0  0  0  0  0  0  0  0  0
  183.4460  170.1210  135.3440 C   0  0  0  0  0  1  0  0  0  0  0  0
  185.7320  173.0980  137.3410 C   0  0  0  0  0  3  0  0  0  0  0  0
  183.7060  171.8890  137.0850 C   0  0  0  0  0  3  0  0  0  0  0  0
  186.3190  172.3980  136.2810 C   0  0  0  0  0  0  0  0  0  0  0  0
  184.4530  172.8340  137.7150 N   0  0  0  0  0  0  0  0  0  0  0  0
  185.5590  171.4200  135.6240 C   0  0  0  0  0  3  0  0  0  0  0  0
  194.7240  175.2700  136.4180 C   0  0  0  0  0  2  0  0  0  0  0  0
  193.0030  174.5540  137.9200 N   0  0  0  0  0  2  0  0  0  0  0  0
  194.4320  174.7730  137.8120 C   0  0  0  0  0  2  0  0  0  0  0  0
  193.3530  176.3520  135.9520 S   0  0  0  0  0  0  0  0  0  0  0  0
  192.3680  175.7380  137.3540 C   0  0  1  0  0  3  0  0  0  0  0  0
  186.5140  177.9390  137.8540 O   0  0  0  0  0  0  0  0  0  0  0  0
  186.8870  178.2180  136.5370 C   0  0  0  0  0  2  0  0  0  0  0  0
  185.1740  176.4120  135.8620 C   0  0  0  0  0  1  0  0  0  0  0  0
  187.2360  176.7600  134.6010 C   0  0  0  0  0  2  0  0  0  0  0  0
  186.4850  177.0880  135.6490 C   0  0  0  0  0  0  0  0  0  0  0  0
  186.8090  177.3380  142.5870 C   0  0  0  0  0  2  0  0  0  0  0  0
  187.5110  177.3760  144.9280 C   0  0  0  0  0  3  0  0  0  0  0  0
  187.5140  177.9650  143.7370 C   0  0  0  0  0  3  0  0  0  0  0  0
  188.2250  178.0030  146.0850 C   0  0  2  0  0  3  0  0  0  0  0  0
  189.7030  177.8100  145.9410 C   0  0  0  0  0  0  0  0  0  0  0  0
  190.3680  177.2710  146.8680 O   0  0  0  0  0  0  0  0  0  0  0  0
  190.3470  178.2210  144.7320 N   0  0  0  0  0  2  0  0  0  0  0  0
  192.3790  179.4410  144.1090 C   0  0  0  0  0  1  0  0  0  0  0  0
  191.7810  178.0990  144.4860 C   0  0  2  0  0  3  0  0  0  0  0  0
  192.0280  177.1180  143.4390 N   0  0  0  0  0  2  0  0  0  0  0  0
  190.2180  175.6740  142.7340 C   0  0  0  0  0  1  0  0  0  0  0  0
  190.8430  177.0470  142.6010 C   0  0  2  0  0  3  0  0  0  0  0  0
  191.2900  177.3370  140.8600 S   0  0  0  0  0  1  0  0  0  0  0  0
  187.7110  177.4910  147.4020 C   0  0  0  0  0  0  0  0  0  0  0  0
  187.8630  176.2750  147.7040 O   0  0  0  0  0  0  0  0  0  0  0  0
  186.9870  178.3370  148.2460 O   0  0  0  0  0  0  0  0  0  0  0  0
  186.0050  179.2320  147.7470 C   0  0  0  0  0  3  0  0  0  0  0  0
  185.7330  178.9090  146.2920 C   0  0  0  0  0  2  0  0  0  0  0  0
  184.7670  178.4480  147.3590 C   0  0  0  0  0  2  0  0  0  0  0  0
  1 19  1  6  0  0  0
  1 48  1  0  0  0  0
  2  7  1  1  0  0  0
  2  6  1  0  0  0  0
  3  1  1  6  0  0  0
  3  5  1  0  0  0  0
  4  2  1  0  0  0  0
  4  3  1  0  0  0  0
  6  5  1  0  0  0  0
  7  8  1  6  0  0  0
  9 11  1  0  0  0  0
  9 14  1  0  0  0  0
 10  7  1  1  0  0  0
 11 15  1  1  0  0  0
 11 12  1  0  0  0  0
 12 10  1  0  0  0  0
 13 10  1  0  0  0  0
 14 13  1  0  0  0  0
 17 16  1  0  0  0  0
 17 15  1  0  0  0  0
 18 19  2  0  0  0  0
 20 21  1  6  0  0  0
 20 18  1  0  0  0  0
 22 21  1  0  0  0  0
 23 24  1  0  0  0  0
 23 22  1  0  0  0  0
 24 25  1  6  0  0  0
 27 35  1  0  0  0  0
 27 26  2  0  0  0  0
 28 29  1  0  0  0  0
 28 30  2  0  0  0  0
 29 27  1  0  0  0  0
 30 25  1  0  0  0  0
 30 26  1  0  0  0  0
 31 34  1  0  0  0  0
 32 31  1  0  0  0  0
 33 36  1  0  0  0  0
 34 36  2  0  0  0  0
 35 33  2  0  0  0  0
 37 31  2  0  0  0  0
 37 35  1  0  0  0  0
 38 40  1  0  0  0  0
 40 39  1  0  0  0  0
 41 38  1  0  0  0  0
 41 42  1  0  0  0  0
 42 24  1  6  0  0  0
 42 39  1  0  0  0  0
 43 20  1  0  0  0  0
 44 43  1  0  0  0  0
 46 47  2  0  0  0  0
 47 45  1  0  0  0  0
 47 44  1  0  0  0  0
 48 50  1  0  0  0  0
 50 49  2  0  0  0  0
 51 49  1  6  0  0  0
 51 61  1  0  0  0  0
 52 51  1  0  0  0  0
 52 53  2  0  0  0  0
 54 52  1  0  0  0  0
 56 55  1  6  0  0  0
 56 54  1  0  0  0  0
 57 56  1  0  0  0  0
 59 58  1  6  0  0  0
 59 57  1  0  0  0  0
 60 59  1  0  0  0  0
 61 62  2  0  0  0  0
 61 63  1  0  0  0  0
 64 63  1  0  0  0  0
 65 66  1  0  0  0  0
 65 64  1  0  0  0  0
 66 64  1  0  0  0  0
M  END
>  <MODEL>
4

>  <REMARK>
 VINA RESULT:      -5.8      2.765      8.894
  Name = 
  27 active torsions:
  status: ('A' for Active; 'I' for Inactive)
    1  A    between atoms: C_3  and  C_5
    2  A    between atoms: C_3  and  C_14
    3  A    between atoms: C_6  and  N_10
    4  A    between atoms: C_6  and  N_50
    5  A    between atoms: C_6  and  C_61
    6  A    between atoms: O_7  and  C_37
    7  A    between atoms: O_7  and  C_45
    8  A    between atoms: C_8  and  C_17
    9  A    between atoms: C_9  and  C_42
   10  A    between atoms: N_11  and  C_37
   11  A    between atoms: C_13  and  C_42
   12  A    between atoms: C_13  and  O_53
   13  A    between atoms: C_17  and  C_18
   14  A    between atoms: C_17  and  C_26
   15  A    between atoms: C_18  and  C_48
   16  A    between atoms: C_23  and  C_49
   17  A    between atoms: C_27  and  C_28
   18  A    between atoms: C_27  and  C_37
   19  A    between atoms: C_28  and  N_50
   20  A    between atoms: C_29  and  C_55
   21  A    between atoms: C_31  and  C_42
   22  A    between atoms: C_35  and  O_53
   23  A    between atoms: C_44  and  C_45
   24  A    between atoms: C_46  and  N_59
   25  A    between atoms: C_46  and  N_66
   26  A    between atoms: C_51  and  N_59
   27  A    between atoms: C_55  and  S_60
                            x       y       z     vdW  Elec       q    Type
                         _______ _______ _______ _____ _____    ______ ____

>  <TORSDO>
F 27

$$$$
=
 OpenBabel11042412493D

 66 71  0  0  1  0  0  0  0  0999 V2000
  185.3780  178.4150  140.9880 C   0  0  2  0  0  3  0  0  0  0  0  0
  185.1670  178.9150  144.8270 C   0  0  2  0  0  3  0  0  0  0  0  0
  185.3860  179.1670  142.3250 C   0  0  2  0  0  3  0  0  0  0  0  0
  186.3090  178.2550  143.6160 S   0  0  0  0  0  0  0  0  0  0  0  0
  183.9610  179.3530  142.8470 C   0  0  0  0  0  2  0  0  0  0  0  0
  184.0630  179.4510  144.3260 C   0  0  0  0  0  2  0  0  0  0  0  0
  185.4870  178.9990  146.2890 C   0  0  1  0  0  3  0  0  0  0  0  0
  184.5860  178.2100  147.0100 O   0  0  0  0  0  1  0  0  0  0  0  0
  188.9960  176.6580  147.2270 C   0  0  0  0  0  2  0  0  0  0  0  0
  186.9280  178.5580  146.5590 C   0  0  2  0  0  3  0  0  0  0  0  0
  188.8330  177.1110  145.7730 C   0  0  1  0  0  3  0  0  0  0  0  0
  187.3920  177.5440  145.5060 C   0  0  0  0  0  2  0  0  0  0  0  0
  187.0280  177.9550  147.8890 N   0  0  0  0  0  2  0  0  0  0  0  0
  188.4360  177.7070  148.1850 C   0  0  0  0  0  2  0  0  0  0  0  0
  189.8010  178.2340  145.4180 C   0  0  0  0  0  2  0  0  0  0  0  0
  191.1750  179.4820  143.6160 N   0  0  0  0  0  1  0  0  0  0  0  0
  190.7920  177.7940  143.9590 S   0  0  0  0  0  0  0  0  0  0  0  0
  187.1030  178.2550  139.2840 N   0  0  0  0  0  0  0  0  0  0  0  0
  186.7610  178.0820  140.5090 C   0  0  0  0  0  3  0  0  0  0  0  0
  188.4410  177.9460  138.8540 C   0  0  1  0  0  3  0  0  0  0  0  0
  188.6340  178.3720  137.4070 C   0  0  0  0  0  2  0  0  0  0  0  0
  188.5050  177.1790  136.4790 C   0  0  0  0  0  2  0  0  0  0  0  0
  187.5780  176.2120  137.0440 N   0  0  0  0  0  2  0  0  0  0  0  0
  188.1950  174.8910  136.9470 C   0  0  1  0  0  3  0  0  0  0  0  0
  187.5890  174.1260  135.8620 N   0  0  0  0  0  2  0  0  0  0  0  0
  185.1470  174.7220  136.3610 C   0  0  0  0  0  3  0  0  0  0  0  0
  184.0080  174.3920  135.7740 C   0  0  0  0  0  0  0  0  0  0  0  0
  185.7170  173.3820  134.5950 N   0  0  0  0  0  0  0  0  0  0  0  0
  184.2690  173.5050  134.5970 C   0  0  0  0  0  2  0  0  0  0  0  0
  186.1860  174.0660  135.5830 C   0  0  0  0  0  0  0  0  0  0  0  0
  180.5120  175.8250  135.7370 C   0  0  0  0  0  0  0  0  0  0  0  0
  179.5440  176.4150  134.7790 C   0  0  0  0  0  1  0  0  0  0  0  0
  182.2860  174.7110  137.5470 C   0  0  0  0  0  3  0  0  0  0  0  0
  180.1700  175.6790  137.0790 C   0  0  0  0  0  3  0  0  0  0  0  0
  182.6760  174.8450  136.2100 C   0  0  0  0  0  0  0  0  0  0  0  0
  181.0570  175.1280  137.9490 N   0  0  0  0  0  0  0  0  0  0  0  0
  181.7700  175.4110  135.3020 C   0  0  0  0  0  3  0  0  0  0  0  0
  191.5190  173.6190  135.5080 C   0  0  0  0  0  2  0  0  0  0  0  0
  190.3970  173.9370  137.5980 N   0  0  0  0  0  2  0  0  0  0  0  0
  191.7040  173.7510  136.9990 C   0  0  0  0  0  2  0  0  0  0  0  0
  190.1890  174.7520  135.0440 S   0  0  0  0  0  0  0  0  0  0  0  0
  189.7220  174.9480  136.7930 C   0  0  1  0  0  3  0  0  0  0  0  0
  189.3540  178.6170  139.6660 O   0  0  0  0  0  0  0  0  0  0  0  0
  189.8980  177.6310  140.4920 C   0  0  0  0  0  2  0  0  0  0  0  0
  192.3600  177.3990  141.2230 C   0  0  0  0  0  1  0  0  0  0  0  0
  191.6820  177.1220  138.8940 C   0  0  0  0  0  2  0  0  0  0  0  0
  191.3320  177.4150  140.1440 C   0  0  0  0  0  0  0  0  0  0  0  0
  184.6410  179.2120  139.9220 C   0  0  0  0  0  2  0  0  0  0  0  0
  182.3870  179.1890  138.9750 C   0  0  0  0  0  3  0  0  0  0  0  0
  183.1890  178.8930  139.9920 C   0  0  0  0  0  3  0  0  0  0  0  0
  180.9280  178.8630  139.0410 C   0  0  2  0  0  3  0  0  0  0  0  0
  180.2130  179.4680  137.8730 C   0  0  0  0  0  0  0  0  0  0  0  0
  179.2080  178.8920  137.3740 O   0  0  0  0  0  0  0  0  0  0  0  0
  180.6670  180.7180  137.3460 N   0  0  0  0  0  2  0  0  0  0  0  0
  179.9790  180.4610  135.0080 C   0  0  0  0  0  1  0  0  0  0  0  0
  180.0620  181.3930  136.2030 C   0  0  2  0  0  3  0  0  0  0  0  0
  180.8220  182.5880  135.8660 N   0  0  0  0  0  2  0  0  0  0  0  0
  180.7780  184.9950  136.1170 C   0  0  0  0  0  1  0  0  0  0  0  0
  179.9430  183.7360  136.0120 C   0  0  2  0  0  3  0  0  0  0  0  0
  178.9310  183.5610  137.5150 S   0  0  0  0  0  1  0  0  0  0  0  0
  180.3230  179.2770  140.3540 C   0  0  0  0  0  0  0  0  0  0  0  0
  179.5320  180.2580  140.3980 O   0  0  0  0  0  0  0  0  0  0  0  0
  180.7070  178.6340  141.5340 O   0  0  0  0  0  0  0  0  0  0  0  0
  180.7480  179.3150  142.7790 C   0  0  0  0  0  3  0  0  0  0  0  0
  179.3470  179.7610  143.1460 C   0  0  0  0  0  2  0  0  0  0  0  0
  179.9430  178.5350  143.8000 C   0  0  0  0  0  2  0  0  0  0  0  0
  1 48  1  6  0  0  0
  2  7  1  6  0  0  0
  3  1  1  6  0  0  0
  3  5  1  0  0  0  0
  3  4  1  0  0  0  0
  4  2  1  0  0  0  0
  5  6  1  0  0  0  0
  6  2  1  0  0  0  0
  7  8  1  1  0  0  0
  9 14  1  0  0  0  0
 10  7  1  6  0  0  0
 10 13  1  0  0  0  0
 11 15  1  1  0  0  0
 11  9  1  0  0  0  0
 12 11  1  0  0  0  0
 12 10  1  0  0  0  0
 13 14  1  0  0  0  0
 16 17  1  0  0  0  0
 17 15  1  0  0  0  0
 18 19  2  0  0  0  0
 19  1  1  0  0  0  0
 20 21  1  6  0  0  0
 20 18  1  0  0  0  0
 20 43  1  0  0  0  0
 22 23  1  0  0  0  0
 22 21  1  0  0  0  0
 24 25  1  6  0  0  0
 24 23  1  0  0  0  0
 27 35  1  0  0  0  0
 27 26  2  0  0  0  0
 28 29  1  0  0  0  0
 28 30  2  0  0  0  0
 29 27  1  0  0  0  0
 30 25  1  0  0  0  0
 30 26  1  0  0  0  0
 31 34  1  0  0  0  0
 32 31  1  0  0  0  0
 33 36  1  0  0  0  0
 34 36  2  0  0  0  0
 35 33  2  0  0  0  0
 37 31  2  0  0  0  0
 37 35  1  0  0  0  0
 38 40  1  0  0  0  0
 40 39  1  0  0  0  0
 41 38  1  0  0  0  0
 41 42  1  0  0  0  0
 42 24  1  6  0  0  0
 42 39  1  0  0  0  0
 43 44  1  0  0  0  0
 46 47  2  0  0  0  0
 47 44  1  0  0  0  0
 47 45  1  0  0  0  0
 48 50  1  0  0  0  0
 49 50  2  0  0  0  0
 51 49  1  1  0  0  0
 51 61  1  0  0  0  0
 52 51  1  0  0  0  0
 53 52  2  0  0  0  0
 54 52  1  0  0  0  0
 56 55  1  6  0  0  0
 56 54  1  0  0  0  0
 57 59  1  0  0  0  0
 57 56  1  0  0  0  0
 59 58  1  1  0  0  0
 59 60  1  0  0  0  0
 61 62  2  0  0  0  0
 61 63  1  0  0  0  0
 63 64  1  0  0  0  0
 64 65  1  0  0  0  0
 64 66  1  0  0  0  0
 65 66  1  0  0  0  0
M  END
>  <MODEL>
5

>  <REMARK>
 VINA RESULT:      -5.2      2.401      8.256
  Name = 
  27 active torsions:
  status: ('A' for Active; 'I' for Inactive)
    1  A    between atoms: C_3  and  C_5
    2  A    between atoms: C_3  and  C_14
    3  A    between atoms: C_6  and  N_10
    4  A    between atoms: C_6  and  N_50
    5  A    between atoms: C_6  and  C_61
    6  A    between atoms: O_7  and  C_37
    7  A    between atoms: O_7  and  C_45
    8  A    between atoms: C_8  and  C_17
    9  A    between atoms: C_9  and  C_42
   10  A    between atoms: N_11  and  C_37
   11  A    between atoms: C_13  and  C_42
   12  A    between atoms: C_13  and  O_53
   13  A    between atoms: C_17  and  C_18
   14  A    between atoms: C_17  and  C_26
   15  A    between atoms: C_18  and  C_48
   16  A    between atoms: C_23  and  C_49
   17  A    between atoms: C_27  and  C_28
   18  A    between atoms: C_27  and  C_37
   19  A    between atoms: C_28  and  N_50
   20  A    between atoms: C_29  and  C_55
   21  A    between atoms: C_31  and  C_42
   22  A    between atoms: C_35  and  O_53
   23  A    between atoms: C_44  and  C_45
   24  A    between atoms: C_46  and  N_59
   25  A    between atoms: C_46  and  N_66
   26  A    between atoms: C_51  and  N_59
   27  A    between atoms: C_55  and  S_60
                            x       y       z     vdW  Elec       q    Type
                         _______ _______ _______ _____ _____    ______ ____

>  <TORSDO>
F 27

$$$$
=
 OpenBabel11042412493D

 66 71  0  0  1  0  0  0  0  0999 V2000
  185.7220  178.5040  142.5460 C   0  0  2  0  0  3  0  0  0  0  0  0
  181.9820  179.2830  143.2060 C   0  0  2  0  0  3  0  0  0  0  0  0
  184.2960  178.2840  143.0660 C   0  0  2  0  0  3  0  0  0  0  0  0
  183.0360  178.7990  141.8420 S   0  0  0  0  0  0  0  0  0  0  0  0
  184.0510  179.1110  144.3290 C   0  0  0  0  0  2  0  0  0  0  0  0
  182.5890  179.3770  144.3810 C   0  0  0  0  0  2  0  0  0  0  0  0
  180.4960  179.4290  143.0770 C   0  0  1  0  0  3  0  0  0  0  0  0
  180.1730  180.7780  142.8950 O   0  0  0  0  0  1  0  0  0  0  0  0
  180.0780  177.3750  139.2990 C   0  0  0  0  0  2  0  0  0  0  0  0
  179.9630  178.5840  141.9180 C   0  0  2  0  0  3  0  0  0  0  0  0
  180.3120  176.5060  140.5380 C   0  0  1  0  0  3  0  0  0  0  0  0
  180.8490  177.3520  141.6910 C   0  0  0  0  0  2  0  0  0  0  0  0
  179.9220  179.3820  140.6920 N   0  0  0  0  0  2  0  0  0  0  0  0
  179.2500  178.6080  139.6520 C   0  0  0  0  0  2  0  0  0  0  0  0
  179.0440  175.7730  140.9610 C   0  0  0  0  0  2  0  0  0  0  0  0
  179.2790  173.5070  142.1890 N   0  0  0  0  0  1  0  0  0  0  0  0
  179.1320  174.0160  140.5050 S   0  0  0  0  0  0  0  0  0  0  0  0
  186.4150  178.2270  140.2330 N   0  0  0  0  0  0  0  0  0  0  0  0
  185.7490  178.9020  141.0980 C   0  0  0  0  0  3  0  0  0  0  0  0
  186.4100  178.6180  138.8480 C   0  0  1  0  0  3  0  0  0  0  0  0
  186.4990  177.3870  137.9600 C   0  0  0  0  0  2  0  0  0  0  0  0
  187.6950  177.4880  137.0320 C   0  0  0  0  0  2  0  0  0  0  0  0
  187.6990  176.3660  136.1070 N   0  0  0  0  0  2  0  0  0  0  0  0
  188.7910  175.4750  136.4900 C   0  0  1  0  0  3  0  0  0  0  0  0
  188.4870  174.1010  136.1000 N   0  0  0  0  0  2  0  0  0  0  0  0
  185.9800  174.1560  136.6280 C   0  0  0  0  0  3  0  0  0  0  0  0
  185.0230  173.2490  136.5150 C   0  0  0  0  0  0  0  0  0  0  0  0
  186.9850  172.2860  135.7700 N   0  0  0  0  0  0  0  0  0  0  0  0
  185.5780  171.9740  135.9610 C   0  0  0  0  0  2  0  0  0  0  0  0
  187.1880  173.5030  136.1460 C   0  0  0  0  0  0  0  0  0  0  0  0
  181.3520  172.6510  137.1860 C   0  0  0  0  0  0  0  0  0  0  0  0
  180.3660  171.5420  137.1630 C   0  0  0  0  0  1  0  0  0  0  0  0
  183.1690  174.7400  137.2580 C   0  0  0  0  0  3  0  0  0  0  0  0
  180.9560  173.9340  137.5580 C   0  0  0  0  0  3  0  0  0  0  0  0
  183.6100  173.4700  136.8710 C   0  0  0  0  0  0  0  0  0  0  0  0
  181.8670  174.9430  137.5870 N   0  0  0  0  0  0  0  0  0  0  0  0
  182.6820  172.4200  136.8380 C   0  0  0  0  0  3  0  0  0  0  0  0
  192.4750  174.8410  135.6140 C   0  0  0  0  0  2  0  0  0  0  0  0
  191.1040  176.2400  136.9900 N   0  0  0  0  0  2  0  0  0  0  0  0
  192.4210  176.1300  136.3950 C   0  0  0  0  0  2  0  0  0  0  0  0
  190.8470  174.6180  134.8610 S   0  0  0  0  0  0  0  0  0  0  0  0
  190.1530  175.9150  135.9330 C   0  0  1  0  0  3  0  0  0  0  0  0
  185.2330  179.3130  138.5690 O   0  0  0  0  0  0  0  0  0  0  0  0
  184.3120  178.3300  138.1980 C   0  0  0  0  0  2  0  0  0  0  0  0
  182.6050  180.2200  138.6010 C   0  0  0  0  0  1  0  0  0  0  0  0
  182.2130  178.4690  136.9450 C   0  0  0  0  0  2  0  0  0  0  0  0
  182.9920  178.9600  137.9050 C   0  0  0  0  0  0  0  0  0  0  0  0
  186.5730  177.2610  142.7560 C   0  0  0  0  0  2  0  0  0  0  0  0
  188.7790  176.7740  143.6920 C   0  0  0  0  0  3  0  0  0  0  0  0
  187.9360  177.6700  143.1890 C   0  0  0  0  0  3  0  0  0  0  0  0
  190.1530  177.1850  144.1220 C   0  0  2  0  0  3  0  0  0  0  0  0
  190.1880  177.3790  145.6070 C   0  0  0  0  0  0  0  0  0  0  0  0
  191.1860  176.9920  146.2750 O   0  0  0  0  0  0  0  0  0  0  0  0
  189.0910  178.0300  146.2530 N   0  0  0  0  0  2  0  0  0  0  0  0
  189.9460  177.3300  148.4410 C   0  0  0  0  0  1  0  0  0  0  0  0
  189.0080  178.2580  147.6920 C   0  0  2  0  0  3  0  0  0  0  0  0
  187.6380  178.0770  148.1500 N   0  0  0  0  0  2  0  0  0  0  0  0
  186.0400  179.7830  147.5220 C   0  0  0  0  0  1  0  0  0  0  0  0
  186.7480  178.5160  147.0880 C   0  0  2  0  0  3  0  0  0  0  0  0
  185.5110  177.2280  146.7370 S   0  0  0  0  0  1  0  0  0  0  0  0
  190.6300  178.4010  143.3780 C   0  0  0  0  0  0  0  0  0  0  0  0
  190.6470  179.5230  143.9560 O   0  0  0  0  0  0  0  0  0  0  0  0
  190.9660  178.3050  142.0250 O   0  0  0  0  0  0  0  0  0  0  0  0
  191.6130  177.1580  141.4940 C   0  0  0  0  0  3  0  0  0  0  0  0
  190.8490  176.6770  140.2770 C   0  0  0  0  0  2  0  0  0  0  0  0
  192.1210  177.4730  140.1010 C   0  0  0  0  0  2  0  0  0  0  0  0
  1 19  1  6  0  0  0
  1 48  1  0  0  0  0
  2  7  1  1  0  0  0
  2  6  1  0  0  0  0
  3  1  1  6  0  0  0
  3  5  1  0  0  0  0
  4  3  1  0  0  0  0
  4  2  1  0  0  0  0
  5  6  1  0  0  0  0
  7  8  1  6  0  0  0
  9 14  1  0  0  0  0
  9 11  1  0  0  0  0
 10  7  1  1  0  0  0
 11 15  1  1  0  0  0
 11 12  1  0  0  0  0
 12 10  1  0  0  0  0
 13 10  1  0  0  0  0
 14 13  1  0  0  0  0
 17 15  1  0  0  0  0
 17 16  1  0  0  0  0
 18 19  2  0  0  0  0
 20 21  1  6  0  0  0
 20 18  1  0  0  0  0
 22 21  1  0  0  0  0
 23 24  1  0  0  0  0
 23 22  1  0  0  0  0
 24 25  1  6  0  0  0
 25 30  1  0  0  0  0
 27 26  2  0  0  0  0
 27 35  1  0  0  0  0
 28 29  1  0  0  0  0
 28 30  2  0  0  0  0
 29 27  1  0  0  0  0
 30 26  1  0  0  0  0
 31 34  1  0  0  0  0
 32 31  1  0  0  0  0
 33 36  1  0  0  0  0
 34 36  2  0  0  0  0
 35 33  2  0  0  0  0
 37 35  1  0  0  0  0
 37 31  2  0  0  0  0
 38 40  1  0  0  0  0
 40 39  1  0  0  0  0
 41 38  1  0  0  0  0
 41 42  1  0  0  0  0
 42 24  1  1  0  0  0
 42 39  1  0  0  0  0
 43 20  1  0  0  0  0
 44 43  1  0  0  0  0
 46 47  2  0  0  0  0
 47 44  1  0  0  0  0
 47 45  1  0  0  0  0
 48 50  1  0  0  0  0
 50 49  2  0  0  0  0
 51 49  1  6  0  0  0
 51 52  1  0  0  0  0
 52 54  1  0  0  0  0
 52 53  2  0  0  0  0
 54 56  1  0  0  0  0
 56 57  1  0  0  0  0
 56 55  1  1  0  0  0
 59 58  1  1  0  0  0
 59 57  1  0  0  0  0
 60 59  1  0  0  0  0
 61 62  2  0  0  0  0
 61 51  1  0  0  0  0
 63 61  1  0  0  0  0
 64 63  1  0  0  0  0
 65 64  1  0  0  0  0
 66 65  1  0  0  0  0
 66 64  1  0  0  0  0
M  END
>  <MODEL>
6

>  <REMARK>
 VINA RESULT:      -5.2      2.615      7.887
  Name = 
  27 active torsions:
  status: ('A' for Active; 'I' for Inactive)
    1  A    between atoms: C_3  and  C_5
    2  A    between atoms: C_3  and  C_14
    3  A    between atoms: C_6  and  N_10
    4  A    between atoms: C_6  and  N_50
    5  A    between atoms: C_6  and  C_61
    6  A    between atoms: O_7  and  C_37
    7  A    between atoms: O_7  and  C_45
    8  A    between atoms: C_8  and  C_17
    9  A    between atoms: C_9  and  C_42
   10  A    between atoms: N_11  and  C_37
   11  A    between atoms: C_13  and  C_42
   12  A    between atoms: C_13  and  O_53
   13  A    between atoms: C_17  and  C_18
   14  A    between atoms: C_17  and  C_26
   15  A    between atoms: C_18  and  C_48
   16  A    between atoms: C_23  and  C_49
   17  A    between atoms: C_27  and  C_28
   18  A    between atoms: C_27  and  C_37
   19  A    between atoms: C_28  and  N_50
   20  A    between atoms: C_29  and  C_55
   21  A    between atoms: C_31  and  C_42
   22  A    between atoms: C_35  and  O_53
   23  A    between atoms: C_44  and  C_45
   24  A    between atoms: C_46  and  N_59
   25  A    between atoms: C_46  and  N_66
   26  A    between atoms: C_51  and  N_59
   27  A    between atoms: C_55  and  S_60
                            x       y       z     vdW  Elec       q    Type
                         _______ _______ _______ _____ _____    ______ ____

>  <TORSDO>
F 27

$$$$
=
 OpenBabel11042412493D

 66 71  0  0  1  0  0  0  0  0999 V2000
  184.7760  177.8210  137.4260 C   0  0  2  0  0  3  0  0  0  0  0  0
  185.5760  174.5320  135.5350 C   0  0  2  0  0  3  0  0  0  0  0  0
  184.6860  176.7590  136.3220 C   0  0  2  0  0  3  0  0  0  0  0  0
  184.7010  175.0610  137.0060 S   0  0  0  0  0  0  0  0  0  0  0  0
  185.8810  176.8660  135.3750 C   0  0  0  0  0  2  0  0  0  0  0  0
  186.0880  175.5100  134.8020 C   0  0  0  0  0  2  0  0  0  0  0  0
  185.6060  173.1060  135.0740 C   0  0  1  0  0  3  0  0  0  0  0  0
  186.4940  172.3770  135.8720 O   0  0  0  0  0  1  0  0  0  0  0  0
  182.2250  170.5690  135.9670 C   0  0  0  0  0  2  0  0  0  0  0  0
  184.2070  172.4880  135.1170 C   0  0  2  0  0  3  0  0  0  0  0  0
  182.2110  171.9790  136.5650 C   0  0  1  0  0  3  0  0  0  0  0  0
  183.6110  172.5900  136.5260 C   0  0  0  0  0  2  0  0  0  0  0  0
  184.2680  171.0800  134.7190 N   0  0  0  0  0  2  0  0  0  0  0  0
  182.9050  170.5690  134.5990 C   0  0  0  0  0  2  0  0  0  0  0  0
  181.2140  172.8860  135.8530 C   0  0  0  0  0  2  0  0  0  0  0  0
  180.1080  172.0700  138.0460 N   0  0  0  0  0  1  0  0  0  0  0  0
  179.9510  173.4920  137.0120 S   0  0  0  0  0  0  0  0  0  0  0  0
  187.1010  178.5280  137.4170 N   0  0  0  0  0  0  0  0  0  0  0  0
  186.1510  177.9120  138.0230 C   0  0  0  0  0  3  0  0  0  0  0  0
  188.4050  178.6170  138.0190 C   0  0  1  0  0  3  0  0  0  0  0  0
  188.4160  177.8790  139.3490 C   0  0  0  0  0  2  0  0  0  0  0  0
  189.8000  177.9210  139.9680 C   0  0  0  0  0  2  0  0  0  0  0  0
  190.0440  176.6980  140.7150 N   0  0  0  0  0  2  0  0  0  0  0  0
  191.4880  176.5640  140.8950 C   0  0  1  0  0  3  0  0  0  0  0  0
  192.1990  177.2290  139.8070 N   0  0  0  0  0  2  0  0  0  0  0  0
  192.6060  175.1530  138.3610 C   0  0  0  0  0  3  0  0  0  0  0  0
  193.2000  174.9810  137.1920 C   0  0  0  0  0  0  0  0  0  0  0  0
  193.3030  177.2310  137.6990 N   0  0  0  0  0  0  0  0  0  0  0  0
  193.7000  176.2890  136.6660 C   0  0  0  0  0  2  0  0  0  0  0  0
  192.6960  176.5790  138.6320 C   0  0  0  0  0  0  0  0  0  0  0  0
  194.1290  171.3980  136.4240 C   0  0  0  0  0  0  0  0  0  0  0  0
  194.8420  170.2580  137.0510 C   0  0  0  0  0  1  0  0  0  0  0  0
  192.7740  173.4990  135.2330 C   0  0  0  0  0  3  0  0  0  0  0  0
  193.5590  171.2600  135.1600 C   0  0  0  0  0  3  0  0  0  0  0  0
  193.3360  173.6860  136.5010 C   0  0  0  0  0  0  0  0  0  0  0  0
  192.8980  172.3060  134.5960 N   0  0  0  0  0  0  0  0  0  0  0  0
  194.0200  172.6160  137.0940 C   0  0  0  0  0  3  0  0  0  0  0  0
  191.0940  177.0530  144.6820 C   0  0  0  0  0  2  0  0  0  0  0  0
  191.3210  178.3100  142.6580 N   0  0  0  0  0  2  0  0  0  0  0  0
  191.4590  178.3950  144.0980 C   0  0  0  0  0  2  0  0  0  0  0  0
  191.7120  175.7990  143.5370 S   0  0  0  0  0  0  0  0  0  0  0  0
  191.9760  177.0700  142.2600 C   0  0  1  0  0  3  0  0  0  0  0  0
  189.3490  178.0530  137.1620 O   0  0  0  0  0  0  0  0  0  0  0  0
  189.2260  176.6740  137.3460 C   0  0  0  0  0  2  0  0  0  0  0  0
  190.3070  176.6920  135.0050 C   0  0  0  0  0  1  0  0  0  0  0  0
  189.3710  174.6530  135.9700 C   0  0  0  0  0  2  0  0  0  0  0  0
  189.5860  175.9620  136.0860 C   0  0  0  0  0  0  0  0  0  0  0  0
  183.7540  177.5520  138.5210 C   0  0  0  0  0  2  0  0  0  0  0  0
  183.8520  177.9710  140.9280 C   0  0  0  0  0  3  0  0  0  0  0  0
  184.0570  178.4170  139.6930 C   0  0  0  0  0  3  0  0  0  0  0  0
  184.1630  178.8380  142.1080 C   0  0  2  0  0  3  0  0  0  0  0  0
  185.6180  178.7390  142.4480 C   0  0  0  0  0  0  0  0  0  0  0  0
  186.4930  179.0670  141.6000 O   0  0  0  0  0  0  0  0  0  0  0  0
  186.0030  178.2940  143.7510 N   0  0  0  0  0  2  0  0  0  0  0  0
  187.8210  176.6900  144.1100 C   0  0  0  0  0  1  0  0  0  0  0  0
  187.3870  178.1420  144.1890 C   0  0  2  0  0  3  0  0  0  0  0  0
  187.5420  178.6480  145.5450 N   0  0  0  0  0  2  0  0  0  0  0  0
  185.5940  178.7230  146.9800 C   0  0  0  0  0  1  0  0  0  0  0  0
  186.6990  177.8510  146.4210 C   0  0  2  0  0  3  0  0  0  0  0  0
  187.6850  177.1770  147.7950 S   0  0  0  0  0  1  0  0  0  0  0  0
  183.2820  178.5170  143.2830 C   0  0  0  0  0  0  0  0  0  0  0  0
  183.7950  178.3430  144.4220 O   0  0  0  0  0  0  0  0  0  0  0  0
  181.9110  178.3220  143.0960 O   0  0  0  0  0  0  0  0  0  0  0  0
  181.0850  179.3220  142.5170 C   0  0  0  0  0  3  0  0  0  0  0  0
  180.4180  178.7580  141.2790 C   0  0  0  0  0  2  0  0  0  0  0  0
  179.6400  178.8670  142.5710 C   0  0  0  0  0  2  0  0  0  0  0  0
  1 19  1  1  0  0  0
  1 48  1  0  0  0  0
  2  7  1  6  0  0  0
  2  4  1  0  0  0  0
  3  4  1  0  0  0  0
  3  1  1  1  0  0  0
  5  3  1  0  0  0  0
  6  5  1  0  0  0  0
  6  2  1  0  0  0  0
  7  8  1  1  0  0  0
  9 11  1  0  0  0  0
 10  7  1  1  0  0  0
 10 12  1  0  0  0  0
 11 15  1  6  0  0  0
 12 11  1  0  0  0  0
 13 10  1  0  0  0  0
 14 13  1  0  0  0  0
 14  9  1  0  0  0  0
 15 17  1  0  0  0  0
 17 16  1  0  0  0  0
 18 20  1  0  0  0  0
 18 19  2  0  0  0  0
 20 21  1  1  0  0  0
 21 22  1  0  0  0  0
 22 23  1  0  0  0  0
 23 24  1  0  0  0  0
 24 25  1  6  0  0  0
 26 30  1  0  0  0  0
 27 26  2  0  0  0  0
 28 30  2  0  0  0  0
 29 27  1  0  0  0  0
 29 28  1  0  0  0  0
 30 25  1  0  0  0  0
 31 32  1  0  0  0  0
 31 37  1  0  0  0  0
 33 35  1  0  0  0  0
 34 31  2  0  0  0  0
 35 37  2  0  0  0  0
 35 27  1  0  0  0  0
 36 34  1  0  0  0  0
 36 33  2  0  0  0  0
 39 40  1  0  0  0  0
 40 38  1  0  0  0  0
 41 38  1  0  0  0  0
 42 24  1  6  0  0  0
 42 39  1  0  0  0  0
 42 41  1  0  0  0  0
 43 44  1  0  0  0  0
 43 20  1  0  0  0  0
 45 47  1  0  0  0  0
 46 47  2  0  0  0  0
 47 44  1  0  0  0  0
 48 50  1  0  0  0  0
 50 49  2  0  0  0  0
 51 49  1  6  0  0  0
 51 52  1  0  0  0  0
 51 61  1  0  0  0  0
 52 54  1  0  0  0  0
 53 52  2  0  0  0  0
 54 56  1  0  0  0  0
 56 55  1  1  0  0  0
 56 57  1  0  0  0  0
 57 59  1  0  0  0  0
 59 58  1  1  0  0  0
 59 60  1  0  0  0  0
 61 62  2  0  0  0  0
 63 61  1  0  0  0  0
 64 66  1  0  0  0  0
 64 63  1  0  0  0  0
 65 64  1  0  0  0  0
 65 66  1  0  0  0  0
M  END
>  <MODEL>
7

>  <REMARK>
 VINA RESULT:      -5.1      3.042     11.254
  Name = 
  27 active torsions:
  status: ('A' for Active; 'I' for Inactive)
    1  A    between atoms: C_3  and  C_5
    2  A    between atoms: C_3  and  C_14
    3  A    between atoms: C_6  and  N_10
    4  A    between atoms: C_6  and  N_50
    5  A    between atoms: C_6  and  C_61
    6  A    between atoms: O_7  and  C_37
    7  A    between atoms: O_7  and  C_45
    8  A    between atoms: C_8  and  C_17
    9  A    between atoms: C_9  and  C_42
   10  A    between atoms: N_11  and  C_37
   11  A    between atoms: C_13  and  C_42
   12  A    between atoms: C_13  and  O_53
   13  A    between atoms: C_17  and  C_18
   14  A    between atoms: C_17  and  C_26
   15  A    between atoms: C_18  and  C_48
   16  A    between atoms: C_23  and  C_49
   17  A    between atoms: C_27  and  C_28
   18  A    between atoms: C_27  and  C_37
   19  A    between atoms: C_28  and  N_50
   20  A    between atoms: C_29  and  C_55
   21  A    between atoms: C_31  and  C_42
   22  A    between atoms: C_35  and  O_53
   23  A    between atoms: C_44  and  C_45
   24  A    between atoms: C_46  and  N_59
   25  A    between atoms: C_46  and  N_66
   26  A    between atoms: C_51  and  N_59
   27  A    between atoms: C_55  and  S_60
                            x       y       z     vdW  Elec       q    Type
                         _______ _______ _______ _____ _____    ______ ____

>  <TORSDO>
F 27

$$$$
=
 OpenBabel11042412493D

 66 71  0  0  1  0  0  0  0  0999 V2000
  188.9380  178.5040  140.6850 C   0  0  2  0  0  3  0  0  0  0  0  0
  190.5890  175.9280  143.0670 C   0  0  2  0  0  3  0  0  0  0  0  0
  189.2650  177.7980  142.0070 C   0  0  2  0  0  3  0  0  0  0  0  0
  191.0440  177.3930  142.1440 S   0  0  0  0  0  0  0  0  0  0  0  0
  188.5010  176.4780  142.1150 C   0  0  0  0  0  2  0  0  0  0  0  0
  189.3080  175.5950  142.9960 C   0  0  0  0  0  2  0  0  0  0  0  0
  191.5390  175.2090  143.9770 C   0  0  1  0  0  3  0  0  0  0  0  0
  192.8520  175.5620  143.6530 O   0  0  0  0  0  1  0  0  0  0  0  0
  191.6190  176.9170  147.9440 C   0  0  0  0  0  2  0  0  0  0  0  0
  191.2380  175.5280  145.4430 C   0  0  2  0  0  3  0  0  0  0  0  0
  190.4260  177.2820  147.0570 C   0  0  1  0  0  3  0  0  0  0  0  0
  190.7320  176.9680  145.5930 C   0  0  0  0  0  2  0  0  0  0  0  0
  192.4450  175.3530  146.2520 N   0  0  0  0  0  2  0  0  0  0  0  0
  192.0870  175.4910  147.6610 C   0  0  0  0  0  2  0  0  0  0  0  0
  189.1530  176.5690  147.4990 C   0  0  0  0  0  2  0  0  0  0  0  0
  188.4770  178.1760  149.4110 N   0  0  0  0  0  1  0  0  0  0  0  0
  187.8230  177.7660  147.8240 S   0  0  0  0  0  0  0  0  0  0  0  0
  186.6920  178.9730  141.4840 N   0  0  0  0  0  0  0  0  0  0  0  0
  187.4630  178.7080  140.4930 C   0  0  0  0  0  3  0  0  0  0  0  0
  185.2840  179.1830  141.2720 C   0  0  1  0  0  3  0  0  0  0  0  0
  184.8430  178.4920  139.9910 C   0  0  0  0  0  2  0  0  0  0  0  0
  184.1250  179.4690  139.0800 C   0  0  0  0  0  2  0  0  0  0  0  0
  183.0600  178.7860  138.3640 N   0  0  0  0  0  2  0  0  0  0  0  0
  182.4530  177.8230  139.2790 C   0  0  1  0  0  3  0  0  0  0  0  0
  181.3960  178.4590  140.0590 N   0  0  0  0  0  2  0  0  0  0  0  0
  180.9740  180.4410  138.4890 C   0  0  0  0  0  3  0  0  0  0  0  0
  180.1290  181.4580  138.5400 C   0  0  0  0  0  0  0  0  0  0  0  0
  179.7640  180.1560  140.4110 N   0  0  0  0  0  0  0  0  0  0  0  0
  179.2850  181.3700  139.7720 C   0  0  0  0  0  2  0  0  0  0  0  0
  180.7030  179.6550  139.6820 C   0  0  0  0  0  0  0  0  0  0  0  0
  179.4590  184.7800  136.8670 C   0  0  0  0  0  0  0  0  0  0  0  0
  178.9520  186.1320  137.2060 C   0  0  0  0  0  1  0  0  0  0  0  0
  180.4270  182.2720  136.2030 C   0  0  0  0  0  3  0  0  0  0  0  0
  179.8610  184.4870  135.5660 C   0  0  0  0  0  3  0  0  0  0  0  0
  180.0270  182.5180  137.5210 C   0  0  0  0  0  0  0  0  0  0  0  0
  180.3340  183.2490  135.2640 N   0  0  0  0  0  0  0  0  0  0  0  0
  179.5390  183.7910  137.8460 C   0  0  0  0  0  3  0  0  0  0  0  0
  180.3370  176.0480  136.6110 C   0  0  0  0  0  2  0  0  0  0  0  0
  180.5770  176.2170  138.9880 N   0  0  0  0  0  2  0  0  0  0  0  0
  180.0310  175.3860  137.9320 C   0  0  0  0  0  2  0  0  0  0  0  0
  181.9800  176.7860  136.7650 S   0  0  0  0  0  0  0  0  0  0  0  0
  181.9300  176.5640  138.5710 C   0  0  1  0  0  3  0  0  0  0  0  0
  184.5720  178.6660  142.3530 O   0  0  0  0  0  0  0  0  0  0  0  0
  185.4410  177.7530  142.9550 C   0  0  0  0  0  2  0  0  0  0  0  0
  186.4970  177.4460  145.2880 C   0  0  0  0  0  1  0  0  0  0  0  0
  184.2950  178.4620  145.0000 C   0  0  0  0  0  2  0  0  0  0  0  0
  185.3480  177.8710  144.4390 C   0  0  0  0  0  0  0  0  0  0  0  0
  189.5110  177.7340  139.5040 C   0  0  0  0  0  2  0  0  0  0  0  0
  188.1290  176.6830  137.7830 C   0  0  0  0  0  3  0  0  0  0  0  0
  188.5520  177.7980  138.3690 C   0  0  0  0  0  3  0  0  0  0  0  0
  187.1590  176.7460  136.6450 C   0  0  2  0  0  3  0  0  0  0  0  0
  186.5930  175.3850  136.3770 C   0  0  0  0  0  0  0  0  0  0  0  0
  186.2480  175.0590  135.2090 O   0  0  0  0  0  0  0  0  0  0  0  0
  186.4710  174.4540  137.4550 N   0  0  0  0  0  2  0  0  0  0  0  0
  186.4570  172.4310  136.0710 C   0  0  0  0  0  1  0  0  0  0  0  0
  185.9200  173.1100  137.3180 C   0  0  2  0  0  3  0  0  0  0  0  0
  184.4650  173.1660  137.2820 N   0  0  0  0  0  2  0  0  0  0  0  0
  183.0480  173.5490  135.3570 C   0  0  0  0  0  1  0  0  0  0  0  0
  184.0250  172.5990  136.0180 C   0  0  2  0  0  3  0  0  0  0  0  0
  183.2070  170.9980  136.3020 S   0  0  0  0  0  1  0  0  0  0  0  0
  187.7780  177.3550  135.4170 C   0  0  0  0  0  0  0  0  0  0  0  0
  187.2600  178.3820  134.8980 O   0  0  0  0  0  0  0  0  0  0  0  0
  188.8690  176.7350  134.8040 O   0  0  0  0  0  0  0  0  0  0  0  0
  190.1810  176.8240  135.3410 C   0  0  0  0  0  3  0  0  0  0  0  0
  190.4430  175.6120  136.2110 C   0  0  0  0  0  2  0  0  0  0  0  0
  191.0140  175.6730  134.8130 C   0  0  0  0  0  2  0  0  0  0  0  0
  1 48  1  6  0  0  0
  2  7  1  1  0  0  0
  3  1  1  6  0  0  0
  3  5  1  0  0  0  0
  3  4  1  0  0  0  0
  4  2  1  0  0  0  0
  5  6  1  0  0  0  0
  6  2  1  0  0  0  0
  7  8  1  6  0  0  0
 10  7  1  6  0  0  0
 10 12  1  0  0  0  0
 10 13  1  0  0  0  0
 11 15  1  1  0  0  0
 11  9  1  0  0  0  0
 12 11  1  0  0  0  0
 13 14  1  0  0  0  0
 14  9  1  0  0  0  0
 15 17  1  0  0  0  0
 17 16  1  0  0  0  0
 19  1  1  0  0  0  0
 19 18  2  0  0  0  0
 20 21  1  6  0  0  0
 20 18  1  0  0  0  0
 20 43  1  0  0  0  0
 22 21  1  0  0  0  0
 23 22  1  0  0  0  0
 24 23  1  6  0  0  0
 24 25  1  0  0  0  0
 26 27  2  0  0  0  0
 26 30  1  0  0  0  0
 27 29  1  0  0  0  0
 29 28  1  0  0  0  0
 30 25  1  0  0  0  0
 30 28  2  0  0  0  0
 31 32  1  0  0  0  0
 31 37  1  0  0  0  0
 33 35  1  0  0  0  0
 34 31  2  0  0  0  0
 35 37  2  0  0  0  0
 35 27  1  0  0  0  0
 36 34  1  0  0  0  0
 36 33  2  0  0  0  0
 38 41  1  0  0  0  0
 38 40  1  0  0  0  0
 40 39  1  0  0  0  0
 41 42  1  0  0  0  0
 42 39  1  0  0  0  0
 42 24  1  1  0  0  0
 43 44  1  0  0  0  0
 44 47  1  0  0  0  0
 47 46  2  0  0  0  0
 47 45  1  0  0  0  0
 49 50  2  0  0  0  0
 50 48  1  0  0  0  0
 51 49  1  1  0  0  0
 52 51  1  0  0  0  0
 52 54  1  0  0  0  0
 53 52  2  0  0  0  0
 56 55  1  6  0  0  0
 56 54  1  0  0  0  0
 57 56  1  0  0  0  0
 59 58  1  1  0  0  0
 59 60  1  0  0  0  0
 59 57  1  0  0  0  0
 61 51  1  0  0  0  0
 62 61  2  0  0  0  0
 63 64  1  0  0  0  0
 63 61  1  0  0  0  0
 64 65  1  0  0  0  0
 66 64  1  0  0  0  0
 66 65  1  0  0  0  0
M  END
>  <MODEL>
8

>  <REMARK>
 VINA RESULT:      -5.0      2.758      6.491
  Name = 
  27 active torsions:
  status: ('A' for Active; 'I' for Inactive)
    1  A    between atoms: C_3  and  C_5
    2  A    between atoms: C_3  and  C_14
    3  A    between atoms: C_6  and  N_10
    4  A    between atoms: C_6  and  N_50
    5  A    between atoms: C_6  and  C_61
    6  A    between atoms: O_7  and  C_37
    7  A    between atoms: O_7  and  C_45
    8  A    between atoms: C_8  and  C_17
    9  A    between atoms: C_9  and  C_42
   10  A    between atoms: N_11  and  C_37
   11  A    between atoms: C_13  and  C_42
   12  A    between atoms: C_13  and  O_53
   13  A    between atoms: C_17  and  C_18
   14  A    between atoms: C_17  and  C_26
   15  A    between atoms: C_18  and  C_48
   16  A    between atoms: C_23  and  C_49
   17  A    between atoms: C_27  and  C_28
   18  A    between atoms: C_27  and  C_37
   19  A    between atoms: C_28  and  N_50
   20  A    between atoms: C_29  and  C_55
   21  A    between atoms: C_31  and  C_42
   22  A    between atoms: C_35  and  O_53
   23  A    between atoms: C_44  and  C_45
   24  A    between atoms: C_46  and  N_59
   25  A    between atoms: C_46  and  N_66
   26  A    between atoms: C_51  and  N_59
   27  A    between atoms: C_55  and  S_60
                            x       y       z     vdW  Elec       q    Type
                         _______ _______ _______ _____ _____    ______ ____

>  <TORSDO>
F 27

$$$$
=
 OpenBabel11042412493D

 66 71  0  0  1  0  0  0  0  0999 V2000
  183.7980  178.4260  139.1790 C   0  0  2  0  0  3  0  0  0  0  0  0
  184.6750  179.1110  142.8930 C   0  0  2  0  0  3  0  0  0  0  0  0
  184.4640  178.2110  140.5440 C   0  0  2  0  0  3  0  0  0  0  0  0
  183.2990  178.4970  141.9260 S   0  0  0  0  0  0  0  0  0  0  0  0
  185.6250  179.1880  140.7350 C   0  0  0  0  0  2  0  0  0  0  0  0
  185.7690  179.3900  142.2000 C   0  0  0  0  0  2  0  0  0  0  0  0
  184.6570  179.1690  144.3910 C   0  0  1  0  0  3  0  0  0  0  0  0
  183.6590  178.3190  144.8790 O   0  0  0  0  0  1  0  0  0  0  0  0
  187.8580  177.1270  146.4540 C   0  0  0  0  0  2  0  0  0  0  0  0
  186.0220  178.7870  144.9680 C   0  0  2  0  0  3  0  0  0  0  0  0
  187.8920  177.1010  144.9230 C   0  0  1  0  0  3  0  0  0  0  0  0
  186.5260  177.4760  144.3510 C   0  0  0  0  0  2  0  0  0  0  0  0
  185.9280  178.6330  146.4210 N   0  0  0  0  0  2  0  0  0  0  0  0
  187.2720  178.4440  146.9590 C   0  0  0  0  0  2  0  0  0  0  0  0
  188.9740  178.0210  144.3660 C   0  0  0  0  0  2  0  0  0  0  0  0
  191.4140  177.2740  143.9400 N   0  0  0  0  0  1  0  0  0  0  0  0
  189.9000  177.1960  143.0370 S   0  0  0  0  0  0  0  0  0  0  0  0
  185.3280  177.7220  137.4260 N   0  0  0  0  0  0  0  0  0  0  0  0
  184.7960  178.6860  138.0880 C   0  0  0  0  0  3  0  0  0  0  0  0
  186.2680  177.9990  136.3730 C   0  0  1  0  0  3  0  0  0  0  0  0
  187.5800  177.2790  136.6440 C   0  0  0  0  0  2  0  0  0  0  0  0
  188.7480  178.0850  136.1090 C   0  0  0  0  0  2  0  0  0  0  0  0
  189.7120  177.1980  135.4770 N   0  0  0  0  0  2  0  0  0  0  0  0
  190.1850  176.2590  136.4900 C   0  0  1  0  0  3  0  0  0  0  0  0
  190.4230  174.9470  135.8950 N   0  0  0  0  0  2  0  0  0  0  0  0
  188.0900  173.9690  136.3100 C   0  0  0  0  0  3  0  0  0  0  0  0
  187.5490  172.7960  136.0250 C   0  0  0  0  0  0  0  0  0  0  0  0
  189.7210  172.7690  135.2420 N   0  0  0  0  0  0  0  0  0  0  0  0
  188.5410  171.9240  135.3220 C   0  0  0  0  0  2  0  0  0  0  0  0
  189.4500  173.9010  135.7960 C   0  0  0  0  0  0  0  0  0  0  0  0
  184.0840  171.3110  135.7650 C   0  0  0  0  0  0  0  0  0  0  0  0
  183.2630  170.5210  134.8140 C   0  0  0  0  0  1  0  0  0  0  0  0
  185.5930  172.7710  137.5700 C   0  0  0  0  0  3  0  0  0  0  0  0
  183.5550  171.6990  136.9940 C   0  0  0  0  0  3  0  0  0  0  0  0
  186.1630  172.4100  136.3440 C   0  0  0  0  0  0  0  0  0  0  0  0
  184.3160  172.4140  137.8650 N   0  0  0  0  0  0  0  0  0  0  0  0
  185.3900  171.6710  135.4380 C   0  0  0  0  0  3  0  0  0  0  0  0
  193.6390  175.7240  138.0780 C   0  0  0  0  0  2  0  0  0  0  0  0
  191.4100  176.3840  138.6500 N   0  0  0  0  0  2  0  0  0  0  0  0
  192.7880  176.4360  139.0990 C   0  0  0  0  0  2  0  0  0  0  0  0
  192.9400  176.1090  136.4560 S   0  0  0  0  0  0  0  0  0  0  0  0
  191.4300  176.7550  137.2400 C   0  0  1  0  0  3  0  0  0  0  0  0
  185.7390  177.5670  135.1570 O   0  0  0  0  0  0  0  0  0  0  0  0
  184.3970  177.2830  135.4260 C   0  0  0  0  0  2  0  0  0  0  0  0
  183.0820  175.2200  136.2400 C   0  0  0  0  0  1  0  0  0  0  0  0
  184.8920  175.0270  134.6130 C   0  0  0  0  0  2  0  0  0  0  0  0
  184.1830  175.8070  135.4250 C   0  0  0  0  0  0  0  0  0  0  0  0
  182.7910  179.5650  139.2410 C   0  0  0  0  0  2  0  0  0  0  0  0
  180.9920  180.2530  137.7350 C   0  0  0  0  0  3  0  0  0  0  0  0
  181.6600  179.2660  138.3230 C   0  0  0  0  0  3  0  0  0  0  0  0
  179.8580  179.9530  136.8060 C   0  0  2  0  0  3  0  0  0  0  0  0
  179.8680  178.5020  136.4350 C   0  0  0  0  0  0  0  0  0  0  0  0
  179.8900  178.1550  135.2230 O   0  0  0  0  0  0  0  0  0  0  0  0
  179.8800  177.5160  137.4710 N   0  0  0  0  0  2  0  0  0  0  0  0
  179.4990  175.7710  135.7920 C   0  0  0  0  0  1  0  0  0  0  0  0
  179.8730  176.0760  137.2310 C   0  0  2  0  0  3  0  0  0  0  0  0
  178.9520  175.4190  138.1470 N   0  0  0  0  0  2  0  0  0  0  0  0
  180.9500  175.4240  139.5130 C   0  0  0  0  0  1  0  0  0  0  0  0
  179.7360  174.6290  139.0810 C   0  0  2  0  0  3  0  0  0  0  0  0
  180.2820  173.0840  138.2890 S   0  0  0  0  0  1  0  0  0  0  0  0
  179.8750  180.8490  135.5980 C   0  0  0  0  0  0  0  0  0  0  0  0
  180.6020  180.5540  134.6100 O   0  0  0  0  0  0  0  0  0  0  0  0
  179.1580  182.0470  135.6070 O   0  0  0  0  0  0  0  0  0  0  0  0
  179.7150  183.2570  135.1140 C   0  0  0  0  0  3  0  0  0  0  0  0
  179.2670  184.4050  135.9950 C   0  0  0  0  0  2  0  0  0  0  0  0
  180.6570  183.8320  136.1530 C   0  0  0  0  0  2  0  0  0  0  0  0
  1 19  1  6  0  0  0
  1 48  1  0  0  0  0
  2  7  1  1  0  0  0
  3  1  1  6  0  0  0
  3  5  1  0  0  0  0
  3  4  1  0  0  0  0
  4  2  1  0  0  0  0
  5  6  1  0  0  0  0
  6  2  1  0  0  0  0
  7  8  1  1  0  0  0
  9 14  1  0  0  0  0
 10  7  1  6  0  0  0
 10 13  1  0  0  0  0
 11 15  1  6  0  0  0
 11  9  1  0  0  0  0
 12 11  1  0  0  0  0
 12 10  1  0  0  0  0
 13 14  1  0  0  0  0
 17 16  1  0  0  0  0
 17 15  1  0  0  0  0
 18 19  2  0  0  0  0
 20 21  1  1  0  0  0
 20 18  1  0  0  0  0
 22 21  1  0  0  0  0
 23 22  1  0  0  0  0
 24 23  1  6  0  0  0
 25 24  1  0  0  0  0
 27 26  2  0  0  0  0
 27 35  1  0  0  0  0
 28 29  1  0  0  0  0
 28 30  2  0  0  0  0
 29 27  1  0  0  0  0
 30 25  1  0  0  0  0
 30 26  1  0  0  0  0
 31 34  1  0  0  0  0
 32 31  1  0  0  0  0
 33 36  1  0  0  0  0
 34 36  2  0  0  0  0
 35 33  2  0  0  0  0
 37 31  2  0  0  0  0
 37 35  1  0  0  0  0
 38 40  1  0  0  0  0
 39 40  1  0  0  0  0
 41 42  1  0  0  0  0
 41 38  1  0  0  0  0
 42 24  1  6  0  0  0
 42 39  1  0  0  0  0
 43 44  1  0  0  0  0
 43 20  1  0  0  0  0
 46 47  2  0  0  0  0
 47 44  1  0  0  0  0
 47 45  1  0  0  0  0
 49 50  2  0  0  0  0
 50 48  1  0  0  0  0
 51 49  1  1  0  0  0
 52 51  1  0  0  0  0
 52 54  1  0  0  0  0
 53 52  2  0  0  0  0
 56 55  1  6  0  0  0
 56 54  1  0  0  0  0
 56 57  1  0  0  0  0
 57 59  1  0  0  0  0
 59 58  1  6  0  0  0
 60 59  1  0  0  0  0
 61 63  1  0  0  0  0
 61 51  1  0  0  0  0
 62 61  2  0  0  0  0
 64 63  1  0  0  0  0
 64 65  1  0  0  0  0
 64 66  1  0  0  0  0
 65 66  1  0  0  0  0
M  END
>  <MODEL>
9

>  <REMARK>
 VINA RESULT:      -4.9      2.386      8.462
  Name = 
  27 active torsions:
  status: ('A' for Active; 'I' for Inactive)
    1  A    between atoms: C_3  and  C_5
    2  A    between atoms: C_3  and  C_14
    3  A    between atoms: C_6  and  N_10
    4  A    between atoms: C_6  and  N_50
    5  A    between atoms: C_6  and  C_61
    6  A    between atoms: O_7  and  C_37
    7  A    between atoms: O_7  and  C_45
    8  A    between atoms: C_8  and  C_17
    9  A    between atoms: C_9  and  C_42
   10  A    between atoms: N_11  and  C_37
   11  A    between atoms: C_13  and  C_42
   12  A    between atoms: C_13  and  O_53
   13  A    between atoms: C_17  and  C_18
   14  A    between atoms: C_17  and  C_26
   15  A    between atoms: C_18  and  C_48
   16  A    between atoms: C_23  and  C_49
   17  A    between atoms: C_27  and  C_28
   18  A    between atoms: C_27  and  C_37
   19  A    between atoms: C_28  and  N_50
   20  A    between atoms: C_29  and  C_55
   21  A    between atoms: C_31  and  C_42
   22  A    between atoms: C_35  and  O_53
   23  A    between atoms: C_44  and  C_45
   24  A    between atoms: C_46  and  N_59
   25  A    between atoms: C_46  and  N_66
   26  A    between atoms: C_51  and  N_59
   27  A    between atoms: C_55  and  S_60
                            x       y       z     vdW  Elec       q    Type
                         _______ _______ _______ _____ _____    ______ ____

>  <TORSDO>
F 27

$$$$
