=
 OpenBabel11042410523D

 26 31  0  0  1  0  0  0  0  0999 V2000
  189.6830  177.3690  141.5380 N   0  0  0  0  0  0  0  0  0  0  0  0
  191.1240  178.6870  143.1850 C   0  0  0  0  0  2  0  0  0  0  0  0
  190.6570  177.3410  142.6530 C   0  0  0  0  0  0  0  0  0  0  0  0
  192.0690  177.8230  142.3510 C   0  0  0  0  0  2  0  0  0  0  0  0
  191.5820  175.9970  145.2740 C   0  0  2  0  0  0  0  0  0  0  0  0
  189.5340  177.1720  145.9260 C   0  0  0  0  0  3  0  0  0  0  0  0
  191.3420  176.6030  147.5370 C   0  0  0  0  0  3  0  0  0  0  0  0
  190.5660  176.1480  143.6290 C   0  0  1  0  0  0  0  0  0  0  0  0
  192.1380  175.9860  146.5400 C   0  0  0  0  0  3  0  0  0  0  0  0
  190.3390  176.5660  144.9790 C   0  0  0  0  0  0  0  0  0  0  0  0
  190.0700  177.1830  147.2370 C   0  0  0  0  0  2  0  0  0  0  0  0
  191.8120  175.6010  143.9180 O   0  0  0  0  0  0  0  0  0  0  0  0
  190.2400  177.5120  140.1770 C   0  0  0  0  0  2  0  0  0  0  0  0
  189.2110  177.7450  139.1070 C   0  0  0  0  0  0  0  0  0  0  0  0
  188.4730  176.8010  138.7230 O   0  0  0  0  0  0  0  0  0  0  0  0
  189.0440  179.0420  138.5430 N   0  0  0  0  0  1  0  0  0  0  0  0
  188.6030  178.3200  141.8000 C   0  0  0  0  0  2  0  0  0  0  0  0
  187.4490  177.6270  142.5120 C   0  0  0  0  0  2  0  0  0  0  0  0
  187.2540  178.1730  143.9200 C   0  0  0  0  0  2  0  0  0  0  0  0
  182.4860  178.7450  144.4970 O   0  0  0  0  0  1  0  0  0  0  0  0
  185.8060  178.1670  145.9570 C   0  0  0  0  0  2  0  0  0  0  0  0
  185.9210  177.7250  144.5080 C   0  0  1  0  0  3  0  0  0  0  0  0
  183.8410  178.9280  144.7590 C   0  0  1  0  0  0  0  0  0  0  0  0
  184.3770  178.6340  146.1450 C   0  0  0  0  0  2  0  0  0  0  0  0
  184.7260  178.2750  143.7270 C   0  0  1  0  0  3  0  0  0  0  0  0
  184.6150  179.8010  143.7990 C   0  0  0  0  0  2  0  0  0  0  0  0
  1 17  1  0  0  0  0
  1  3  1  0  0  0  0
  3  2  1  0  0  0  0
  4  3  1  0  0  0  0
  4  2  1  0  0  0  0
  5  9  1  1  0  0  0
  6 11  1  0  0  0  0
  8  3  1  6  0  0  0
  8 12  1  0  0  0  0
  8 10  1  0  0  0  0
  8  5  1  0  0  0  0
  9  7  2  0  0  0  0
 10  5  1  0  0  0  0
 10  6  2  0  0  0  0
 11  7  1  0  0  0  0
 12  5  1  0  0  0  0
 13  1  1  0  0  0  0
 14 13  1  0  0  0  0
 15 14  2  0  0  0  0
 16 14  1  0  0  0  0
 17 18  1  0  0  0  0
 18 19  1  0  0  0  0
 21 24  1  0  0  0  0
 22 19  1  6  0  0  0
 22 21  1  0  0  0  0
 23 20  1  6  0  0  0
 23 24  1  0  0  0  0
 25 26  1  6  0  0  0
 25 22  1  0  0  0  0
 25 23  1  0  0  0  0
 26 23  1  0  0  0  0
M  END
>  <MODEL>
1

>  <REMARK>
 VINA RESULT:      -8.0      0.000      0.000
  Name = 
  8 active torsions:
  status: ('A' for Active; 'I' for Inactive)
    1  A    between atoms: C_5  and  C_8
    2  A    between atoms: C_6  and  N_9
    3  A    between atoms: C_6  and  C_11
    4  A    between atoms: C_7  and  C_8
    5  A    between atoms: C_7  and  C_18
    6  A    between atoms: N_9  and  C_12
    7  A    between atoms: N_9  and  C_18
    8  A    between atoms: C_12  and  C_16
                            x       y       z     vdW  Elec       q    Type
                         _______ _______ _______ _____ _____    ______ ____

>  <TORSDO>
F 8

$$$$
=
 OpenBabel11042410523D

 26 31  0  0  1  0  0  0  0  0999 V2000
  189.5300  177.3830  142.5230 N   0  0  0  0  0  0  0  0  0  0  0  0
  190.4670  179.1700  144.0890 C   0  0  0  0  0  2  0  0  0  0  0  0
  190.1590  177.7050  143.8240 C   0  0  0  0  0  0  0  0  0  0  0  0
  191.6010  178.1900  143.7940 C   0  0  0  0  0  2  0  0  0  0  0  0
  189.6090  177.4090  146.8480 C   0  0  2  0  0  0  0  0  0  0  0  0
  187.3730  177.6690  145.8830 C   0  0  0  0  0  3  0  0  0  0  0  0
  187.9080  178.2550  148.2400 C   0  0  0  0  0  3  0  0  0  0  0  0
  189.7970  176.7940  145.0170 C   0  0  1  0  0  0  0  0  0  0  0  0
  189.2670  177.8750  148.1030 C   0  0  0  0  0  3  0  0  0  0  0  0
  188.7050  177.3120  145.7850 C   0  0  0  0  0  0  0  0  0  0  0  0
  186.9830  178.1540  147.1550 C   0  0  0  0  0  2  0  0  0  0  0  0
  190.7020  176.9110  146.0680 O   0  0  0  0  0  0  0  0  0  0  0  0
  190.2600  176.4410  141.6500 C   0  0  0  0  0  2  0  0  0  0  0  0
  190.8710  177.0710  140.4300 C   0  0  0  0  0  0  0  0  0  0  0  0
  191.9880  177.6460  140.5090 O   0  0  0  0  0  0  0  0  0  0  0  0
  190.2070  176.9940  139.1740 N   0  0  0  0  0  1  0  0  0  0  0  0
  189.1240  178.5970  141.8150 C   0  0  0  0  0  2  0  0  0  0  0  0
  187.7040  178.4490  141.2830 C   0  0  0  0  0  2  0  0  0  0  0  0
  186.7000  178.2770  142.4150 C   0  0  0  0  0  2  0  0  0  0  0  0
  182.4160  179.9950  143.8610 O   0  0  0  0  0  1  0  0  0  0  0  0
  184.4390  178.2340  141.3510 C   0  0  0  0  0  2  0  0  0  0  0  0
  185.4260  179.0700  142.1490 C   0  0  1  0  0  3  0  0  0  0  0  0
  183.3170  179.0760  143.3280 C   0  0  1  0  0  0  0  0  0  0  0  0
  183.0720  178.5130  141.9430 C   0  0  0  0  0  2  0  0  0  0  0  0
  184.7490  179.5340  143.4410 C   0  0  1  0  0  3  0  0  0  0  0  0
  184.2370  178.3730  144.2990 C   0  0  0  0  0  2  0  0  0  0  0  0
  1  3  1  0  0  0  0
  3  2  1  0  0  0  0
  4  3  1  0  0  0  0
  4  2  1  0  0  0  0
  5  9  1  1  0  0  0
  6 11  1  0  0  0  0
  8  3  1  6  0  0  0
  8 10  1  0  0  0  0
  8 12  1  0  0  0  0
  8  5  1  0  0  0  0
  9  7  2  0  0  0  0
 10  6  2  0  0  0  0
 10  5  1  0  0  0  0
 11  7  1  0  0  0  0
 12  5  1  0  0  0  0
 13  1  1  0  0  0  0
 14 15  2  0  0  0  0
 14 13  1  0  0  0  0
 16 14  1  0  0  0  0
 17  1  1  0  0  0  0
 18 17  1  0  0  0  0
 18 19  1  0  0  0  0
 21 24  1  0  0  0  0
 21 22  1  0  0  0  0
 22 19  1  1  0  0  0
 22 25  1  0  0  0  0
 23 25  1  0  0  0  0
 23 20  1  1  0  0  0
 23 26  1  0  0  0  0
 24 23  1  0  0  0  0
 25 26  1  1  0  0  0
M  END
>  <MODEL>
2

>  <REMARK>
 VINA RESULT:      -7.9      1.742      2.544
  Name = 
  8 active torsions:
  status: ('A' for Active; 'I' for Inactive)
    1  A    between atoms: C_5  and  C_8
    2  A    between atoms: C_6  and  N_9
    3  A    between atoms: C_6  and  C_11
    4  A    between atoms: C_7  and  C_8
    5  A    between atoms: C_7  and  C_18
    6  A    between atoms: N_9  and  C_12
    7  A    between atoms: N_9  and  C_18
    8  A    between atoms: C_12  and  C_16
                            x       y       z     vdW  Elec       q    Type
                         _______ _______ _______ _____ _____    ______ ____

>  <TORSDO>
F 8

$$$$
=
 OpenBabel11042410523D

 26 31  0  0  1  0  0  0  0  0999 V2000
  189.6450  177.3960  142.5500 N   0  0  0  0  0  0  0  0  0  0  0  0
  190.5170  179.1610  144.1770 C   0  0  0  0  0  2  0  0  0  0  0  0
  190.2160  177.7000  143.8820 C   0  0  0  0  0  0  0  0  0  0  0  0
  191.6600  178.1790  143.9230 C   0  0  0  0  0  2  0  0  0  0  0  0
  189.6500  177.3450  146.8960 C   0  0  2  0  0  0  0  0  0  0  0  0
  187.4350  177.7790  145.9460 C   0  0  0  0  0  3  0  0  0  0  0  0
  188.0090  178.2550  148.3190 C   0  0  0  0  0  3  0  0  0  0  0  0
  189.7960  176.7780  145.0470 C   0  0  1  0  0  0  0  0  0  0  0  0
  189.3400  177.7930  148.1660 C   0  0  0  0  0  3  0  0  0  0  0  0
  188.7410  177.3410  145.8330 C   0  0  0  0  0  0  0  0  0  0  0  0
  187.0780  178.2490  147.2340 C   0  0  0  0  0  2  0  0  0  0  0  0
  190.7080  176.8030  146.0980 O   0  0  0  0  0  0  0  0  0  0  0  0
  188.2350  176.9540  142.5190 C   0  0  0  0  0  2  0  0  0  0  0  0
  187.2480  178.0480  142.2210 C   0  0  0  0  0  0  0  0  0  0  0  0
  187.5880  179.0300  141.5100 O   0  0  0  0  0  0  0  0  0  0  0  0
  185.9160  177.9660  142.7160 N   0  0  0  0  0  1  0  0  0  0  0  0
  190.5230  176.5100  141.7850 C   0  0  0  0  0  2  0  0  0  0  0  0
  190.9830  177.1950  140.5060 C   0  0  0  0  0  2  0  0  0  0  0  0
  190.3510  176.5600  139.2750 C   0  0  0  0  0  2  0  0  0  0  0  0
  187.5550  179.6110  136.7710 O   0  0  0  0  0  1  0  0  0  0  0  0
  190.0130  176.8830  136.8190 C   0  0  0  0  0  2  0  0  0  0  0  0
  190.1620  177.5820  138.1600 C   0  0  1  0  0  3  0  0  0  0  0  0
  188.1430  178.3960  137.1130 C   0  0  1  0  0  0  0  0  0  0  0  0
  188.9300  177.6310  136.0690 C   0  0  0  0  0  2  0  0  0  0  0  0
  188.9410  178.4750  138.3890 C   0  0  1  0  0  3  0  0  0  0  0  0
  187.6190  177.7030  138.3490 C   0  0  0  0  0  2  0  0  0  0  0  0
  1  3  1  0  0  0  0
  3  4  1  0  0  0  0
  3  2  1  0  0  0  0
  4  2  1  0  0  0  0
  5  9  1  1  0  0  0
  6 11  1  0  0  0  0
  8  3  1  6  0  0  0
  8 10  1  0  0  0  0
  8 12  1  0  0  0  0
  8  5  1  0  0  0  0
  9  7  2  0  0  0  0
 10  6  2  0  0  0  0
 10  5  1  0  0  0  0
 11  7  1  0  0  0  0
 12  5  1  0  0  0  0
 13  1  1  0  0  0  0
 14 13  1  0  0  0  0
 14 16  1  0  0  0  0
 15 14  2  0  0  0  0
 17  1  1  0  0  0  0
 18 17  1  0  0  0  0
 19 18  1  0  0  0  0
 21 22  1  0  0  0  0
 22 25  1  0  0  0  0
 22 19  1  1  0  0  0
 23 20  1  6  0  0  0
 23 26  1  0  0  0  0
 23 25  1  0  0  0  0
 24 21  1  0  0  0  0
 24 23  1  0  0  0  0
 25 26  1  1  0  0  0
M  END
>  <MODEL>
3

>  <REMARK>
 VINA RESULT:      -7.6      2.481      5.309
  Name = 
  8 active torsions:
  status: ('A' for Active; 'I' for Inactive)
    1  A    between atoms: C_5  and  C_8
    2  A    between atoms: C_6  and  N_9
    3  A    between atoms: C_6  and  C_11
    4  A    between atoms: C_7  and  C_8
    5  A    between atoms: C_7  and  C_18
    6  A    between atoms: N_9  and  C_12
    7  A    between atoms: N_9  and  C_18
    8  A    between atoms: C_12  and  C_16
                            x       y       z     vdW  Elec       q    Type
                         _______ _______ _______ _____ _____    ______ ____

>  <TORSDO>
F 8

$$$$
=
 OpenBabel11042410523D

 26 31  0  0  1  0  0  0  0  0999 V2000
  189.7770  177.5690  142.2040 N   0  0  0  0  0  0  0  0  0  0  0  0
  190.5460  179.1780  144.0340 C   0  0  0  0  0  2  0  0  0  0  0  0
  190.2020  177.7580  143.6100 C   0  0  0  0  0  0  0  0  0  0  0  0
  191.6550  178.1450  143.8470 C   0  0  0  0  0  2  0  0  0  0  0  0
  189.1580  177.2940  146.4780 C   0  0  2  0  0  0  0  0  0  0  0  0
  187.1250  177.7800  145.2010 C   0  0  0  0  0  3  0  0  0  0  0  0
  187.3100  178.1610  147.6520 C   0  0  0  0  0  3  0  0  0  0  0  0
  189.6000  176.7960  144.6560 C   0  0  1  0  0  0  0  0  0  0  0  0
  188.6480  177.6960  147.6980 C   0  0  0  0  0  3  0  0  0  0  0  0
  188.4320  177.3360  145.2830 C   0  0  0  0  0  0  0  0  0  0  0  0
  186.5660  178.2030  146.4320 C   0  0  0  0  0  2  0  0  0  0  0  0
  190.3300  176.7740  145.8410 O   0  0  0  0  0  0  0  0  0  0  0  0
  190.8530  177.4370  141.2000 C   0  0  0  0  0  2  0  0  0  0  0  0
  190.3680  177.1770  139.8010 C   0  0  0  0  0  0  0  0  0  0  0  0
  189.9140  178.1210  139.1040 O   0  0  0  0  0  0  0  0  0  0  0  0
  190.4460  175.8680  139.2480 N   0  0  0  0  0  1  0  0  0  0  0  0
  188.7710  178.5570  141.8160 C   0  0  0  0  0  2  0  0  0  0  0  0
  187.4090  177.8930  141.6600 C   0  0  0  0  0  2  0  0  0  0  0  0
  186.2770  178.8970  141.8270 C   0  0  0  0  0  2  0  0  0  0  0  0
  181.6550  177.8030  140.9110 O   0  0  0  0  0  1  0  0  0  0  0  0
  184.2200  179.0190  143.2410 C   0  0  0  0  0  2  0  0  0  0  0  0
  184.9740  178.2030  142.2050 C   0  0  1  0  0  3  0  0  0  0  0  0
  182.7260  178.5540  141.3910 C   0  0  1  0  0  0  0  0  0  0  0  0
  182.7570  178.9530  142.8520 C   0  0  0  0  0  2  0  0  0  0  0  0
  184.0620  177.9780  140.9960 C   0  0  1  0  0  3  0  0  0  0  0  0
  183.5650  179.2850  140.3700 C   0  0  0  0  0  2  0  0  0  0  0  0
  1  3  1  0  0  0  0
  3  4  1  0  0  0  0
  3  2  1  0  0  0  0
  4  2  1  0  0  0  0
  5  9  1  1  0  0  0
  6 10  2  0  0  0  0
  6 11  1  0  0  0  0
  7  9  2  0  0  0  0
  8  3  1  6  0  0  0
  8 10  1  0  0  0  0
  8 12  1  0  0  0  0
  8  5  1  0  0  0  0
 10  5  1  0  0  0  0
 11  7  1  0  0  0  0
 12  5  1  0  0  0  0
 13  1  1  0  0  0  0
 14 13  1  0  0  0  0
 15 14  2  0  0  0  0
 16 14  1  0  0  0  0
 17  1  1  0  0  0  0
 18 17  1  0  0  0  0
 18 19  1  0  0  0  0
 22 19  1  6  0  0  0
 22 21  1  0  0  0  0
 23 20  1  6  0  0  0
 23 24  1  0  0  0  0
 24 21  1  0  0  0  0
 25 26  1  6  0  0  0
 25 23  1  0  0  0  0
 25 22  1  0  0  0  0
 26 23  1  0  0  0  0
M  END
>  <MODEL>
4

>  <REMARK>
 VINA RESULT:      -7.6      1.920      2.704
  Name = 
  8 active torsions:
  status: ('A' for Active; 'I' for Inactive)
    1  A    between atoms: C_5  and  C_8
    2  A    between atoms: C_6  and  N_9
    3  A    between atoms: C_6  and  C_11
    4  A    between atoms: C_7  and  C_8
    5  A    between atoms: C_7  and  C_18
    6  A    between atoms: N_9  and  C_12
    7  A    between atoms: N_9  and  C_18
    8  A    between atoms: C_12  and  C_16
                            x       y       z     vdW  Elec       q    Type
                         _______ _______ _______ _____ _____    ______ ____

>  <TORSDO>
F 8

$$$$
=
 OpenBabel11042410523D

 26 31  0  0  1  0  0  0  0  0999 V2000
  188.6460  177.7870  141.6730 N   0  0  0  0  0  0  0  0  0  0  0  0
  189.4920  175.6390  142.7660 C   0  0  0  0  0  2  0  0  0  0  0  0
  189.0840  177.0970  142.9080 C   0  0  0  0  0  0  0  0  0  0  0  0
  188.1750  176.0020  143.4480 C   0  0  0  0  0  2  0  0  0  0  0  0
  189.8100  177.5450  145.8750 C   0  0  2  0  0  0  0  0  0  0  0  0
  191.7840  176.4150  144.9680 C   0  0  0  0  0  3  0  0  0  0  0  0
  191.1650  176.3380  147.3760 C   0  0  0  0  0  3  0  0  0  0  0  0
  189.7790  177.9620  143.9800 C   0  0  1  0  0  0  0  0  0  0  0  0
  190.0150  177.1440  147.1810 C   0  0  0  0  0  3  0  0  0  0  0  0
  190.6540  177.1950  144.8150 C   0  0  0  0  0  0  0  0  0  0  0  0
  192.0290  175.9820  146.2940 C   0  0  0  0  0  2  0  0  0  0  0  0
  188.9280  178.2930  145.0310 O   0  0  0  0  0  0  0  0  0  0  0  0
  189.7060  178.1710  140.7180 C   0  0  0  0  0  2  0  0  0  0  0  0
  189.3670  177.9100  139.2770 C   0  0  0  0  0  0  0  0  0  0  0  0
  189.3520  176.7310  138.8350 O   0  0  0  0  0  0  0  0  0  0  0  0
  189.0340  178.9900  138.4120 N   0  0  0  0  0  1  0  0  0  0  0  0
  187.7420  178.8960  141.9760 C   0  0  0  0  0  2  0  0  0  0  0  0
  186.3770  178.6540  141.3450 C   0  0  0  0  0  2  0  0  0  0  0  0
  185.4060  178.0290  142.3380 C   0  0  0  0  0  2  0  0  0  0  0  0
  185.3280  179.3760  146.9830 O   0  0  0  0  0  1  0  0  0  0  0  0
  183.5570  178.8430  143.8090 C   0  0  0  0  0  2  0  0  0  0  0  0
  185.0180  179.0190  143.4300 C   0  0  1  0  0  3  0  0  0  0  0  0
  184.8970  178.7310  145.8260 C   0  0  1  0  0  0  0  0  0  0  0  0
  183.4910  178.9770  145.3170 C   0  0  0  0  0  2  0  0  0  0  0  0
  185.8770  178.8640  144.6880 C   0  0  1  0  0  3  0  0  0  0  0  0
  185.6780  177.5150  145.3860 C   0  0  0  0  0  2  0  0  0  0  0  0
  1 17  1  0  0  0  0
  1  3  1  0  0  0  0
  2  3  1  0  0  0  0
  2  4  1  0  0  0  0
  3  4  1  0  0  0  0
  5  9  1  1  0  0  0
  6 11  1  0  0  0  0
  8  3  1  6  0  0  0
  8 10  1  0  0  0  0
  8 12  1  0  0  0  0
  8  5  1  0  0  0  0
  9  7  2  0  0  0  0
 10  6  2  0  0  0  0
 10  5  1  0  0  0  0
 11  7  1  0  0  0  0
 12  5  1  0  0  0  0
 13  1  1  0  0  0  0
 14 13  1  0  0  0  0
 15 14  2  0  0  0  0
 16 14  1  0  0  0  0
 18 17  1  0  0  0  0
 18 19  1  0  0  0  0
 21 24  1  0  0  0  0
 22 19  1  6  0  0  0
 22 21  1  0  0  0  0
 22 25  1  0  0  0  0
 23 20  1  1  0  0  0
 24 23  1  0  0  0  0
 25 26  1  6  0  0  0
 25 23  1  0  0  0  0
 26 23  1  0  0  0  0
M  END
>  <MODEL>
5

>  <REMARK>
 VINA RESULT:      -7.5      1.540      2.307
  Name = 
  8 active torsions:
  status: ('A' for Active; 'I' for Inactive)
    1  A    between atoms: C_5  and  C_8
    2  A    between atoms: C_6  and  N_9
    3  A    between atoms: C_6  and  C_11
    4  A    between atoms: C_7  and  C_8
    5  A    between atoms: C_7  and  C_18
    6  A    between atoms: N_9  and  C_12
    7  A    between atoms: N_9  and  C_18
    8  A    between atoms: C_12  and  C_16
                            x       y       z     vdW  Elec       q    Type
                         _______ _______ _______ _____ _____    ______ ____

>  <TORSDO>
F 8

$$$$
=
 OpenBabel11042410523D

 26 31  0  0  1  0  0  0  0  0999 V2000
  189.9950  177.5390  144.7560 N   0  0  0  0  0  0  0  0  0  0  0  0
  188.7740  175.9990  143.1250 C   0  0  0  0  0  2  0  0  0  0  0  0
  189.9020  176.9850  143.3860 C   0  0  0  0  0  0  0  0  0  0  0  0
  190.2170  175.5060  143.2140 C   0  0  0  0  0  2  0  0  0  0  0  0
  190.3970  177.3750  140.3640 C   0  0  2  0  0  0  0  0  0  0  0  0
  188.1680  178.3310  140.7060 C   0  0  0  0  0  3  0  0  0  0  0  0
  188.9400  177.4440  138.5150 C   0  0  0  0  0  3  0  0  0  0  0  0
  190.3740  177.8960  142.2330 C   0  0  1  0  0  0  0  0  0  0  0  0
  190.2140  177.0880  139.0240 C   0  0  0  0  0  3  0  0  0  0  0  0
  189.4180  177.9680  141.1700 C   0  0  0  0  0  0  0  0  0  0  0  0
  187.9400  178.0510  139.3360 C   0  0  0  0  0  2  0  0  0  0  0  0
  191.3400  177.2870  141.4370 O   0  0  0  0  0  0  0  0  0  0  0  0
  191.3530  177.6940  145.3160 C   0  0  0  0  0  2  0  0  0  0  0  0
  191.6800  176.7370  146.4280 C   0  0  0  0  0  0  0  0  0  0  0  0
  191.5950  177.1100  147.6270 O   0  0  0  0  0  0  0  0  0  0  0  0
  192.0590  175.3980  146.1330 N   0  0  0  0  0  1  0  0  0  0  0  0
  189.0920  176.8430  145.6730 C   0  0  0  0  0  2  0  0  0  0  0  0
  188.1130  177.8280  146.3000 C   0  0  0  0  0  2  0  0  0  0  0  0
  186.6820  177.5440  145.8660 C   0  0  0  0  0  2  0  0  0  0  0  0
  183.3430  180.4500  143.9160 O   0  0  0  0  0  1  0  0  0  0  0  0
  185.8040  177.7510  143.5350 C   0  0  0  0  0  2  0  0  0  0  0  0
  186.2320  178.5120  144.7780 C   0  0  1  0  0  3  0  0  0  0  0  0
  184.0160  179.2580  144.1700 C   0  0  1  0  0  0  0  0  0  0  0  0
  184.5680  178.4530  143.0110 C   0  0  0  0  0  2  0  0  0  0  0  0
  185.0740  179.4030  145.2340 C   0  0  1  0  0  3  0  0  0  0  0  0
  183.7910  178.6170  145.5200 C   0  0  0  0  0  2  0  0  0  0  0  0
  1 13  1  0  0  0  0
  1 17  1  0  0  0  0
  2  4  1  0  0  0  0
  2  3  1  0  0  0  0
  3  1  1  0  0  0  0
  4  3  1  0  0  0  0
  5  9  1  6  0  0  0
  5 10  1  0  0  0  0
  5 12  1  0  0  0  0
  5  8  1  0  0  0  0
  6 10  2  0  0  0  0
  7  9  2  0  0  0  0
  7 11  1  0  0  0  0
  8  3  1  1  0  0  0
 10  8  1  0  0  0  0
 11  6  1  0  0  0  0
 12  8  1  0  0  0  0
 13 14  1  0  0  0  0
 14 15  2  0  0  0  0
 16 14  1  0  0  0  0
 17 18  1  0  0  0  0
 19 18  1  0  0  0  0
 21 22  1  0  0  0  0
 22 25  1  0  0  0  0
 22 19  1  1  0  0  0
 23 20  1  6  0  0  0
 23 25  1  0  0  0  0
 23 26  1  0  0  0  0
 24 21  1  0  0  0  0
 24 23  1  0  0  0  0
 25 26  1  1  0  0  0
M  END
>  <MODEL>
6

>  <REMARK>
 VINA RESULT:      -7.4      2.052      5.056
  Name = 
  8 active torsions:
  status: ('A' for Active; 'I' for Inactive)
    1  A    between atoms: C_5  and  C_8
    2  A    between atoms: C_6  and  N_9
    3  A    between atoms: C_6  and  C_11
    4  A    between atoms: C_7  and  C_8
    5  A    between atoms: C_7  and  C_18
    6  A    between atoms: N_9  and  C_12
    7  A    between atoms: N_9  and  C_18
    8  A    between atoms: C_12  and  C_16
                            x       y       z     vdW  Elec       q    Type
                         _______ _______ _______ _____ _____    ______ ____

>  <TORSDO>
F 8

$$$$
=
 OpenBabel11042410523D

 26 31  0  0  1  0  0  0  0  0999 V2000
  189.9460  177.6690  142.1840 N   0  0  0  0  0  0  0  0  0  0  0  0
  190.5420  179.2910  144.0660 C   0  0  0  0  0  2  0  0  0  0  0  0
  190.3140  177.8590  143.6060 C   0  0  0  0  0  0  0  0  0  0  0  0
  191.7280  178.3430  143.8960 C   0  0  0  0  0  2  0  0  0  0  0  0
  189.4180  177.2120  146.4880 C   0  0  2  0  0  0  0  0  0  0  0  0
  187.3290  177.8180  145.3620 C   0  0  0  0  0  3  0  0  0  0  0  0
  187.6530  178.0240  147.8200 C   0  0  0  0  0  3  0  0  0  0  0  0
  189.7500  176.8360  144.6140 C   0  0  1  0  0  0  0  0  0  0  0  0
  188.9820  177.5350  147.7600 C   0  0  0  0  0  3  0  0  0  0  0  0
  188.6290  177.3490  145.3410 C   0  0  0  0  0  0  0  0  0  0  0  0
  186.8450  178.1630  146.6490 C   0  0  0  0  0  2  0  0  0  0  0  0
  190.5430  176.7200  145.7530 O   0  0  0  0  0  0  0  0  0  0  0  0
  188.5410  177.3050  141.9070 C   0  0  0  0  0  2  0  0  0  0  0  0
  187.7600  178.3590  141.1740 C   0  0  0  0  0  0  0  0  0  0  0  0
  188.1220  178.7320  140.0280 O   0  0  0  0  0  0  0  0  0  0  0  0
  186.5900  178.9200  141.7580 N   0  0  0  0  0  1  0  0  0  0  0  0
  190.8940  176.7870  141.5030 C   0  0  0  0  0  2  0  0  0  0  0  0
  191.2200  177.3290  140.1180 C   0  0  0  0  0  2  0  0  0  0  0  0
  190.7700  176.3700  139.0240 C   0  0  0  0  0  2  0  0  0  0  0  0
  192.6380  174.6300  134.9160 O   0  0  0  0  0  1  0  0  0  0  0  0
  193.0770  176.4620  138.0690 C   0  0  0  0  0  2  0  0  0  0  0  0
  191.5930  176.5520  137.7550 C   0  0  1  0  0  3  0  0  0  0  0  0
  192.5710  174.9090  136.2790 C   0  0  1  0  0  0  0  0  0  0  0  0
  193.7030  175.6700  136.9380 C   0  0  0  0  0  2  0  0  0  0  0  0
  191.2510  175.5130  136.6840 C   0  0  1  0  0  3  0  0  0  0  0  0
  191.6100  174.0840  137.1020 C   0  0  0  0  0  2  0  0  0  0  0  0
  1  3  1  0  0  0  0
  3  4  1  0  0  0  0
  3  2  1  0  0  0  0
  4  2  1  0  0  0  0
  5  9  1  1  0  0  0
  6 11  1  0  0  0  0
  8  3  1  6  0  0  0
  8 10  1  0  0  0  0
  8 12  1  0  0  0  0
  8  5  1  0  0  0  0
  9  7  2  0  0  0  0
 10  6  2  0  0  0  0
 10  5  1  0  0  0  0
 11  7  1  0  0  0  0
 12  5  1  0  0  0  0
 13  1  1  0  0  0  0
 14 16  1  0  0  0  0
 14 13  1  0  0  0  0
 15 14  2  0  0  0  0
 17  1  1  0  0  0  0
 18 17  1  0  0  0  0
 19 18  1  0  0  0  0
 22 21  1  0  0  0  0
 22 19  1  1  0  0  0
 23 20  1  6  0  0  0
 23 25  1  0  0  0  0
 23 24  1  0  0  0  0
 23 26  1  0  0  0  0
 24 21  1  0  0  0  0
 25 26  1  1  0  0  0
 25 22  1  0  0  0  0
M  END
>  <MODEL>
7

>  <REMARK>
 VINA RESULT:      -7.3      2.776      6.664
  Name = 
  8 active torsions:
  status: ('A' for Active; 'I' for Inactive)
    1  A    between atoms: C_5  and  C_8
    2  A    between atoms: C_6  and  N_9
    3  A    between atoms: C_6  and  C_11
    4  A    between atoms: C_7  and  C_8
    5  A    between atoms: C_7  and  C_18
    6  A    between atoms: N_9  and  C_12
    7  A    between atoms: N_9  and  C_18
    8  A    between atoms: C_12  and  C_16
                            x       y       z     vdW  Elec       q    Type
                         _______ _______ _______ _____ _____    ______ ____

>  <TORSDO>
F 8

$$$$
=
 OpenBabel11042410523D

 26 31  0  0  1  0  0  0  0  0999 V2000
  188.4300  177.5260  140.8270 N   0  0  0  0  0  0  0  0  0  0  0  0
  189.8030  176.3390  139.0300 C   0  0  0  0  0  2  0  0  0  0  0  0
  189.1330  177.6110  139.5270 C   0  0  0  0  0  0  0  0  0  0  0  0
  190.6510  177.4970  139.5530 C   0  0  0  0  0  2  0  0  0  0  0  0
  188.2660  178.1870  136.6210 C   0  0  2  0  0  0  0  0  0  0  0  0
  186.1720  177.5690  137.7310 C   0  0  0  0  0  3  0  0  0  0  0  0
  186.5320  177.3200  135.2820 C   0  0  0  0  0  3  0  0  0  0  0  0
  188.5670  178.6050  138.4910 C   0  0  1  0  0  0  0  0  0  0  0  0
  187.8520  177.8320  135.3500 C   0  0  0  0  0  3  0  0  0  0  0  0
  187.4640  178.0590  137.7600 C   0  0  0  0  0  0  0  0  0  0  0  0
  185.7110  177.1920  136.4450 C   0  0  0  0  0  2  0  0  0  0  0  0
  189.3730  178.7120  137.3610 O   0  0  0  0  0  0  0  0  0  0  0  0
  187.8590  178.7830  141.3540 C   0  0  0  0  0  2  0  0  0  0  0  0
  186.3600  178.7880  141.4610 C   0  0  0  0  0  0  0  0  0  0  0  0
  185.6690  179.4180  140.6190 O   0  0  0  0  0  0  0  0  0  0  0  0
  185.7130  178.0570  142.4960 N   0  0  0  0  0  1  0  0  0  0  0  0
  189.2360  176.8210  141.8230 C   0  0  0  0  0  2  0  0  0  0  0  0
  189.6520  177.7720  142.9370 C   0  0  0  0  0  2  0  0  0  0  0  0
  189.5660  177.1020  144.3020 C   0  0  0  0  0  2  0  0  0  0  0  0
  188.3680  178.2580  148.8430 O   0  0  0  0  0  1  0  0  0  0  0  0
  187.3560  177.5280  145.3890 C   0  0  0  0  0  2  0  0  0  0  0  0
  188.8070  177.9710  145.2980 C   0  0  1  0  0  3  0  0  0  0  0  0
  188.2870  177.5870  147.6260 C   0  0  1  0  0  0  0  0  0  0  0  0
  186.9820  177.5980  146.8560 C   0  0  0  0  0  2  0  0  0  0  0  0
  189.4250  177.9280  146.6980 C   0  0  1  0  0  3  0  0  0  0  0  0
  189.3420  176.5430  147.3460 C   0  0  0  0  0  2  0  0  0  0  0  0
  1 13  1  0  0  0  0
  1 17  1  0  0  0  0
  2  3  1  0  0  0  0
  2  4  1  0  0  0  0
  3  4  1  0  0  0  0
  3  1  1  0  0  0  0
  5  9  1  6  0  0  0
  5 12  1  0  0  0  0
  5 10  1  0  0  0  0
  5  8  1  0  0  0  0
  6 10  2  0  0  0  0
  7  9  2  0  0  0  0
  7 11  1  0  0  0  0
  8  3  1  1  0  0  0
 10  8  1  0  0  0  0
 11  6  1  0  0  0  0
 12  8  1  0  0  0  0
 13 14  1  0  0  0  0
 14 16  1  0  0  0  0
 15 14  2  0  0  0  0
 17 18  1  0  0  0  0
 18 19  1  0  0  0  0
 21 24  1  0  0  0  0
 22 19  1  6  0  0  0
 22 21  1  0  0  0  0
 22 25  1  0  0  0  0
 23 20  1  1  0  0  0
 24 23  1  0  0  0  0
 25 26  1  6  0  0  0
 25 23  1  0  0  0  0
 26 23  1  0  0  0  0
M  END
>  <MODEL>
8

>  <REMARK>
 VINA RESULT:      -7.0      2.737      6.493
  Name = 
  8 active torsions:
  status: ('A' for Active; 'I' for Inactive)
    1  A    between atoms: C_5  and  C_8
    2  A    between atoms: C_6  and  N_9
    3  A    between atoms: C_6  and  C_11
    4  A    between atoms: C_7  and  C_8
    5  A    between atoms: C_7  and  C_18
    6  A    between atoms: N_9  and  C_12
    7  A    between atoms: N_9  and  C_18
    8  A    between atoms: C_12  and  C_16
                            x       y       z     vdW  Elec       q    Type
                         _______ _______ _______ _____ _____    ______ ____

>  <TORSDO>
F 8

$$$$
=
 OpenBabel11042410523D

 26 31  0  0  1  0  0  0  0  0999 V2000
  190.0190  177.1660  142.2410 N   0  0  0  0  0  0  0  0  0  0  0  0
  190.8830  176.0650  140.1050 C   0  0  0  0  0  2  0  0  0  0  0  0
  190.0540  177.1580  140.7610 C   0  0  0  0  0  0  0  0  0  0  0  0
  191.3780  177.5100  140.0980 C   0  0  0  0  0  2  0  0  0  0  0  0
  188.8120  178.5260  138.2880 C   0  0  2  0  0  0  0  0  0  0  0  0
  188.5730  176.1380  137.8000 C   0  0  0  0  0  3  0  0  0  0  0  0
  188.6610  177.8820  136.0280 C   0  0  0  0  0  3  0  0  0  0  0  0
  188.7960  177.6750  140.0310 C   0  0  1  0  0  0  0  0  0  0  0  0
  188.7950  178.9350  136.9670 C   0  0  0  0  0  3  0  0  0  0  0  0
  188.7090  177.1890  138.6870 C   0  0  0  0  0  0  0  0  0  0  0  0
  188.5530  176.5160  136.4340 C   0  0  0  0  0  2  0  0  0  0  0  0
  188.9210  179.0030  139.6340 O   0  0  0  0  0  0  0  0  0  0  0  0
  191.3230  177.1680  142.9340 C   0  0  0  0  0  2  0  0  0  0  0  0
  191.3960  178.0880  144.1200 C   0  0  0  0  0  0  0  0  0  0  0  0
  191.1780  179.3200  143.9780 O   0  0  0  0  0  0  0  0  0  0  0  0
  191.6810  177.5680  145.4140 N   0  0  0  0  0  1  0  0  0  0  0  0
  189.1160  176.1370  142.7570 C   0  0  0  0  0  2  0  0  0  0  0  0
  187.8060  176.7640  143.2170 C   0  0  0  0  0  2  0  0  0  0  0  0
  187.9760  177.5060  144.5360 C   0  0  0  0  0  2  0  0  0  0  0  0
  183.5050  179.0040  145.6090 O   0  0  0  0  0  1  0  0  0  0  0  0
  186.9080  178.1590  146.6990 C   0  0  0  0  0  2  0  0  0  0  0  0
  186.7130  177.4230  145.3840 C   0  0  1  0  0  3  0  0  0  0  0  0
  184.8970  178.9960  145.6380 C   0  0  1  0  0  0  0  0  0  0  0  0
  185.6120  178.8960  146.9700 C   0  0  0  0  0  2  0  0  0  0  0  0
  185.4920  178.0060  144.6690 C   0  0  1  0  0  3  0  0  0  0  0  0
  185.6120  179.5120  144.4110 C   0  0  0  0  0  2  0  0  0  0  0  0
  1 17  1  0  0  0  0
  1 13  1  0  0  0  0
  2  3  1  0  0  0  0
  3  1  1  0  0  0  0
  4  2  1  0  0  0  0
  4  3  1  0  0  0  0
  5  9  1  1  0  0  0
  5 10  1  0  0  0  0
  5 12  1  0  0  0  0
  5  8  1  0  0  0  0
  6 10  2  0  0  0  0
  7 11  1  0  0  0  0
  7  9  2  0  0  0  0
  8  3  1  6  0  0  0
 10  8  1  0  0  0  0
 11  6  1  0  0  0  0
 12  8  1  0  0  0  0
 13 14  1  0  0  0  0
 14 16  1  0  0  0  0
 15 14  2  0  0  0  0
 17 18  1  0  0  0  0
 18 19  1  0  0  0  0
 21 24  1  0  0  0  0
 22 19  1  6  0  0  0
 22 21  1  0  0  0  0
 23 20  1  1  0  0  0
 23 24  1  0  0  0  0
 25 26  1  6  0  0  0
 25 22  1  0  0  0  0
 25 23  1  0  0  0  0
 26 23  1  0  0  0  0
M  END
>  <MODEL>
9

>  <REMARK>
 VINA RESULT:      -6.9      2.074      5.502
  Name = 
  8 active torsions:
  status: ('A' for Active; 'I' for Inactive)
    1  A    between atoms: C_5  and  C_8
    2  A    between atoms: C_6  and  N_9
    3  A    between atoms: C_6  and  C_11
    4  A    between atoms: C_7  and  C_8
    5  A    between atoms: C_7  and  C_18
    6  A    between atoms: N_9  and  C_12
    7  A    between atoms: N_9  and  C_18
    8  A    between atoms: C_12  and  C_16
                            x       y       z     vdW  Elec       q    Type
                         _______ _______ _______ _____ _____    ______ ____

>  <TORSDO>
F 8

$$$$
