=
 OpenBabel11032420243D

 39 44  0  0  1  0  0  0  0  0999 V2000
  188.3620  178.6870  141.0000 N   0  0  0  0  0  1  0  0  0  0  0  0
  189.1100  177.4990  140.6220 C   0  0  1  0  0  3  0  0  0  0  0  0
  190.0250  177.8220  139.4460 C   0  0  0  0  0  2  0  0  0  0  0  0
  190.1970  177.3490  137.1490 F   0  0  0  0  0  0  0  0  0  0  0  0
  189.3050  177.8130  138.0960 C   0  0  0  0  0  0  0  0  0  0  0  0
  188.9290  179.0980  137.7380 F   0  0  0  0  0  0  0  0  0  0  0  0
  188.1040  176.8650  138.1040 C   0  0  0  0  0  2  0  0  0  0  0  0
  185.7570  178.9630  138.5370 N   0  0  0  0  0  0  0  0  0  0  0  0
  184.5320  179.3250  139.0420 C   0  0  0  0  0  3  0  0  0  0  0  0
  187.0300  177.2440  137.0900 C   0  0  1  0  0  3  0  0  0  0  0  0
  185.2090  176.0000  136.6750 N   0  0  0  0  0  2  0  0  0  0  0  0
  186.5560  176.0670  136.4170 O   0  0  0  0  0  0  0  0  0  0  0  0
  183.4190  178.5110  138.7560 C   0  0  0  0  0  0  0  0  0  0  0  0
  182.0880  178.7210  139.1720 N   0  0  0  0  0  2  0  0  0  0  0  0
  183.5470  177.3860  137.9890 C   0  0  0  0  0  0  0  0  0  0  0  0
  184.8040  177.0550  137.5040 C   0  0  0  0  0  0  0  0  0  0  0  0
  182.2380  176.7150  137.8180 C   0  0  0  0  0  2  0  0  0  0  0  0
  185.8610  177.8260  137.7860 C   0  0  0  0  0  0  0  0  0  0  0  0
  181.2780  177.6340  138.6110 C   0  0  1  0  0  3  0  0  0  0  0  0
  180.6290  176.8560  139.7090 C   0  0  0  0  0  3  0  0  0  0  0  0
  180.3180  177.4410  140.8620 C   0  0  0  0  0  2  0  0  0  0  0  0
  189.8840  176.9610  141.8250 C   0  0  0  0  0  2  0  0  0  0  0  0
  186.1650  178.4310  146.5320 C   0  0  0  0  0  0  0  0  0  0  0  0
  184.2680  178.2970  142.4060 C   0  0  0  0  0  3  0  0  0  0  0  0
  189.3730  177.5010  143.0790 N   0  0  0  0  0  2  0  0  0  0  0  0
  188.3950  177.9180  147.2750 C   0  0  0  0  0  0  0  0  0  0  0  0
  187.1130  178.3790  147.5510 C   0  0  0  0  0  3  0  0  0  0  0  0
  185.5220  178.1670  144.2370 C   0  0  0  0  0  0  0  0  0  0  0  0
  187.7880  177.5240  144.9830 N   0  0  0  0  0  0  0  0  0  0  0  0
  184.2910  178.6540  144.5700 C   0  0  0  0  0  0  0  0  0  0  0  0
  185.5320  177.9450  142.8760 C   0  0  0  0  0  3  0  0  0  0  0  0
  184.9120  178.9070  146.7950 N   0  0  0  0  0  0  0  0  0  0  0  0
  183.9860  179.0160  145.8370 N   0  0  0  0  0  0  0  0  0  0  0  0
  189.4180  177.8670  148.3520 C   0  0  0  0  0  1  0  0  0  0  0  0
  188.7110  177.4910  145.9860 C   0  0  0  0  0  3  0  0  0  0  0  0
  186.5200  178.0110  145.2210 C   0  0  0  0  0  0  0  0  0  0  0  0
  183.4830  178.7450  143.4650 C   0  0  0  0  0  3  0  0  0  0  0  0
  187.5770  176.0150  143.2130 O   0  0  0  0  0  0  0  0  0  0  0  0
  188.2060  176.9810  143.7230 C   0  0  0  0  0  0  0  0  0  0  0  0
  2  1  1  1  0  0  0
  2 22  1  0  0  0  0
  3  2  1  0  0  0  0
  4  5  1  0  0  0  0
  5  7  1  0  0  0  0
  5  3  1  0  0  0  0
  6  5  1  0  0  0  0
  8  9  1  0  0  0  0
 10 18  1  0  0  0  0
 10  7  1  1  0  0  0
 11 16  1  0  0  0  0
 12 11  1  0  0  0  0
 12 10  1  0  0  0  0
 13  9  2  0  0  0  0
 13 14  1  0  0  0  0
 15 13  1  0  0  0  0
 16 18  1  0  0  0  0
 16 15  2  0  0  0  0
 17 15  1  0  0  0  0
 17 19  1  0  0  0  0
 18  8  2  0  0  0  0
 19 14  1  0  0  0  0
 19 20  1  1  0  0  0
 20 21  2  0  0  0  0
 22 25  1  0  0  0  0
 23 32  1  0  0  0  0
 23 27  2  0  0  0  0
 24 31  2  0  0  0  0
 24 37  1  0  0  0  0
 25 39  1  0  0  0  0
 26 27  1  0  0  0  0
 26 34  1  0  0  0  0
 28 30  1  0  0  0  0
 28 36  2  0  0  0  0
 29 36  1  0  0  0  0
 29 35  1  0  0  0  0
 30 33  1  0  0  0  0
 31 28  1  0  0  0  0
 33 32  2  0  0  0  0
 35 26  2  0  0  0  0
 36 23  1  0  0  0  0
 37 30  2  0  0  0  0
 38 39  2  0  0  0  0
 39 29  1  0  0  0  0
M  END
>  <MODEL>
1

>  <REMARK>
 VINA RESULT:     -10.5      0.000      0.000
  Name = 
  7 active torsions:
  status: ('A' for Active; 'I' for Inactive)
    1  A    between atoms: C_3  and  C_13
    2  A    between atoms: C_3  and  C_17
    3  A    between atoms: C_4  and  C_35
    4  A    between atoms: C_8  and  C_17
    5  A    between atoms: C_8  and  C_23
    6  A    between atoms: N_10  and  C_14
    7  A    between atoms: C_14  and  C_23
                            x       y       z     vdW  Elec       q    Type
                         _______ _______ _______ _____ _____    ______ ____

>  <TORSDO>
F 7

$$$$
=
 OpenBabel11032420243D

 39 44  0  0  1  0  0  0  0  0999 V2000
  189.0630  178.9970  139.0750 N   0  0  0  0  0  1  0  0  0  0  0  0
  188.9820  177.5500  139.1780 C   0  0  1  0  0  3  0  0  0  0  0  0
  189.5810  176.9110  137.9300 C   0  0  0  0  0  2  0  0  0  0  0  0
  188.9730  175.6910  136.0150 F   0  0  0  0  0  0  0  0  0  0  0  0
  188.5830  176.7740  136.7790 C   0  0  0  0  0  0  0  0  0  0  0  0
  188.6130  177.9010  135.9740 F   0  0  0  0  0  0  0  0  0  0  0  0
  187.1680  176.4950  137.2910 C   0  0  0  0  0  2  0  0  0  0  0  0
  185.7600  178.6340  139.1720 N   0  0  0  0  0  0  0  0  0  0  0  0
  184.8160  178.9950  140.1010 C   0  0  0  0  0  3  0  0  0  0  0  0
  186.1540  177.5500  136.8620 C   0  0  1  0  0  3  0  0  0  0  0  0
  183.9790  177.1210  136.5090 N   0  0  0  0  0  2  0  0  0  0  0  0
  185.2170  176.9790  135.9340 O   0  0  0  0  0  0  0  0  0  0  0  0
  183.4650  178.7030  139.8370 C   0  0  0  0  0  0  0  0  0  0  0  0
  182.3570  179.0030  140.6580 N   0  0  0  0  0  2  0  0  0  0  0  0
  183.0920  178.0770  138.6790 C   0  0  0  0  0  0  0  0  0  0  0  0
  184.0780  177.7240  137.7700 C   0  0  0  0  0  0  0  0  0  0  0  0
  181.6220  177.8980  138.6270 C   0  0  0  0  0  2  0  0  0  0  0  0
  185.3640  177.9960  138.0310 C   0  0  0  0  0  0  0  0  0  0  0  0
  181.1550  178.5360  139.9580 C   0  0  1  0  0  3  0  0  0  0  0  0
  180.4440  177.5120  140.7830 C   0  0  0  0  0  3  0  0  0  0  0  0
  179.6470  177.8810  141.7820 C   0  0  0  0  0  2  0  0  0  0  0  0
  189.6710  177.0760  140.4570 C   0  0  0  0  0  2  0  0  0  0  0  0
  187.2840  177.7360  146.1160 C   0  0  0  0  0  0  0  0  0  0  0  0
  191.6730  176.5830  145.8810 C   0  0  0  0  0  3  0  0  0  0  0  0
  188.7540  177.0670  141.5910 N   0  0  0  0  0  2  0  0  0  0  0  0
  185.6830  178.2590  144.3980 C   0  0  0  0  0  0  0  0  0  0  0  0
  185.9810  178.0530  145.7410 C   0  0  0  0  0  3  0  0  0  0  0  0
  189.5670  177.2310  145.5830 C   0  0  0  0  0  0  0  0  0  0  0  0
  187.9790  177.8740  143.8020 N   0  0  0  0  0  0  0  0  0  0  0  0
  189.7860  177.0150  146.9120 C   0  0  0  0  0  0  0  0  0  0  0  0
  190.7410  176.9550  144.9140 C   0  0  0  0  0  3  0  0  0  0  0  0
  187.5750  177.5070  147.4310 N   0  0  0  0  0  0  0  0  0  0  0  0
  188.8020  177.1570  147.8300 N   0  0  0  0  0  0  0  0  0  0  0  0
  184.2950  178.5900  143.9850 C   0  0  0  0  0  1  0  0  0  0  0  0
  186.6970  178.1690  143.4450 C   0  0  0  0  0  3  0  0  0  0  0  0
  188.2950  177.6280  145.1220 C   0  0  0  0  0  0  0  0  0  0  0  0
  191.0800  176.6180  147.1390 C   0  0  0  0  0  3  0  0  0  0  0  0
  189.9370  178.6710  142.8100 O   0  0  0  0  0  0  0  0  0  0  0  0
  188.9480  177.8920  142.7440 C   0  0  0  0  0  0  0  0  0  0  0  0
  2  1  1  6  0  0  0
  2 22  1  0  0  0  0
  3  2  1  0  0  0  0
  4  5  1  0  0  0  0
  5  7  1  0  0  0  0
  5  3  1  0  0  0  0
  6  5  1  0  0  0  0
  8  9  1  0  0  0  0
 10  7  1  1  0  0  0
 10 18  1  0  0  0  0
 11 16  1  0  0  0  0
 12 11  1  0  0  0  0
 12 10  1  0  0  0  0
 13  9  2  0  0  0  0
 13 14  1  0  0  0  0
 15 13  1  0  0  0  0
 16 18  1  0  0  0  0
 16 15  2  0  0  0  0
 17 15  1  0  0  0  0
 17 19  1  0  0  0  0
 18  8  2  0  0  0  0
 19 14  1  0  0  0  0
 19 20  1  1  0  0  0
 20 21  2  0  0  0  0
 22 25  1  0  0  0  0
 23 32  1  0  0  0  0
 24 37  1  0  0  0  0
 25 39  1  0  0  0  0
 26 27  1  0  0  0  0
 27 23  2  0  0  0  0
 28 30  1  0  0  0  0
 29 36  1  0  0  0  0
 30 37  2  0  0  0  0
 30 33  1  0  0  0  0
 31 28  1  0  0  0  0
 31 24  2  0  0  0  0
 32 33  2  0  0  0  0
 34 26  1  0  0  0  0
 35 29  1  0  0  0  0
 35 26  2  0  0  0  0
 36 28  2  0  0  0  0
 36 23  1  0  0  0  0
 39 38  2  0  0  0  0
 39 29  1  0  0  0  0
M  END
>  <MODEL>
2

>  <REMARK>
 VINA RESULT:      -9.9      1.607      3.308
  Name = 
  7 active torsions:
  status: ('A' for Active; 'I' for Inactive)
    1  A    between atoms: C_3  and  C_13
    2  A    between atoms: C_3  and  C_17
    3  A    between atoms: C_4  and  C_35
    4  A    between atoms: C_8  and  C_17
    5  A    between atoms: C_8  and  C_23
    6  A    between atoms: N_10  and  C_14
    7  A    between atoms: C_14  and  C_23
                            x       y       z     vdW  Elec       q    Type
                         _______ _______ _______ _____ _____    ______ ____

>  <TORSDO>
F 7

$$$$
=
 OpenBabel11032420243D

 39 44  0  0  1  0  0  0  0  0999 V2000
  191.3640  177.3350  140.2460 N   0  0  0  0  0  1  0  0  0  0  0  0
  189.9240  177.4930  140.1270 C   0  0  1  0  0  3  0  0  0  0  0  0
  189.4990  177.2590  138.6820 C   0  0  0  0  0  2  0  0  0  0  0  0
  189.8280  178.7090  136.8610 F   0  0  0  0  0  0  0  0  0  0  0  0
  189.0290  178.5310  137.9730 C   0  0  0  0  0  0  0  0  0  0  0  0
  189.1890  179.6330  138.7980 F   0  0  0  0  0  0  0  0  0  0  0  0
  187.5830  178.4050  137.4900 C   0  0  0  0  0  2  0  0  0  0  0  0
  184.6900  177.1790  137.0140 N   0  0  0  0  0  0  0  0  0  0  0  0
  183.3460  177.3060  136.7620 C   0  0  0  0  0  3  0  0  0  0  0  0
  186.6320  177.8830  138.5630 C   0  0  1  0  0  3  0  0  0  0  0  0
  185.3490  179.2050  139.8440 N   0  0  0  0  0  2  0  0  0  0  0  0
  186.6410  178.7670  139.6950 O   0  0  0  0  0  0  0  0  0  0  0  0
  182.5830  178.1490  137.5910 C   0  0  0  0  0  0  0  0  0  0  0  0
  181.1970  178.3990  137.4990 N   0  0  0  0  0  2  0  0  0  0  0  0
  183.1590  178.8260  138.6310 C   0  0  0  0  0  0  0  0  0  0  0  0
  184.5210  178.6730  138.8470 C   0  0  0  0  0  0  0  0  0  0  0  0
  182.1500  179.6270  139.3610 C   0  0  0  0  0  2  0  0  0  0  0  0
  185.2450  177.8780  138.0480 C   0  0  0  0  0  0  0  0  0  0  0  0
  180.8440  179.3150  138.5900 C   0  0  1  0  0  3  0  0  0  0  0  0
  180.2740  180.5800  138.0360 C   0  0  0  0  0  3  0  0  0  0  0  0
  181.0640  181.4890  137.4690 C   0  0  0  0  0  2  0  0  0  0  0  0
  189.2100  176.5520  141.0980 C   0  0  0  0  0  2  0  0  0  0  0  0
  187.8140  178.0260  146.9320 C   0  0  0  0  0  0  0  0  0  0  0  0
  184.5080  178.5400  143.8570 C   0  0  0  0  0  3  0  0  0  0  0  0
  189.3000  177.0290  142.4730 N   0  0  0  0  0  2  0  0  0  0  0  0
  190.0490  177.1600  146.7340 C   0  0  0  0  0  0  0  0  0  0  0  0
  189.0540  177.7530  147.5030 C   0  0  0  0  0  3  0  0  0  0  0  0
  186.3220  178.0720  145.0540 C   0  0  0  0  0  0  0  0  0  0  0  0
  188.5720  177.0710  144.8400 N   0  0  0  0  0  0  0  0  0  0  0  0
  185.3990  178.6780  145.8560 C   0  0  0  0  0  0  0  0  0  0  0  0
  185.7840  177.9840  143.7880 C   0  0  0  0  0  3  0  0  0  0  0  0
  186.8420  178.6320  147.6770 N   0  0  0  0  0  0  0  0  0  0  0  0
  185.6530  178.9520  147.1560 N   0  0  0  0  0  0  0  0  0  0  0  0
  191.3800  176.8720  147.3290 C   0  0  0  0  0  1  0  0  0  0  0  0
  189.7870  176.8230  145.4070 C   0  0  0  0  0  3  0  0  0  0  0  0
  187.5790  177.6930  145.5700 C   0  0  0  0  0  0  0  0  0  0  0  0
  184.2600  178.9800  145.1530 C   0  0  0  0  0  3  0  0  0  0  0  0
  187.4770  175.7820  143.2310 O   0  0  0  0  0  0  0  0  0  0  0  0
  188.3950  176.6050  143.4960 C   0  0  0  0  0  0  0  0  0  0  0  0
  2  1  1  6  0  0  0
  2 22  1  0  0  0  0
  3  2  1  0  0  0  0
  4  5  1  0  0  0  0
  5  3  1  0  0  0  0
  5  6  1  0  0  0  0
  7  5  1  0  0  0  0
  8 18  1  0  0  0  0
  9  8  2  0  0  0  0
  9 13  1  0  0  0  0
 10  7  1  6  0  0  0
 10 12  1  0  0  0  0
 12 11  1  0  0  0  0
 13 15  2  0  0  0  0
 14 13  1  0  0  0  0
 14 19  1  0  0  0  0
 15 16  1  0  0  0  0
 15 17  1  0  0  0  0
 16 11  1  0  0  0  0
 18 10  1  0  0  0  0
 18 16  2  0  0  0  0
 19 20  1  6  0  0  0
 19 17  1  0  0  0  0
 21 20  2  0  0  0  0
 22 25  1  0  0  0  0
 23 27  2  0  0  0  0
 23 32  1  0  0  0  0
 24 37  1  0  0  0  0
 25 39  1  0  0  0  0
 26 34  1  0  0  0  0
 26 27  1  0  0  0  0
 28 36  2  0  0  0  0
 28 30  1  0  0  0  0
 29 35  1  0  0  0  0
 29 36  1  0  0  0  0
 30 33  1  0  0  0  0
 31 24  2  0  0  0  0
 31 28  1  0  0  0  0
 33 32  2  0  0  0  0
 35 26  2  0  0  0  0
 36 23  1  0  0  0  0
 37 30  2  0  0  0  0
 38 39  2  0  0  0  0
 39 29  1  0  0  0  0
M  END
>  <MODEL>
3

>  <REMARK>
 VINA RESULT:      -9.8      1.639      2.233
  Name = 
  7 active torsions:
  status: ('A' for Active; 'I' for Inactive)
    1  A    between atoms: C_3  and  C_13
    2  A    between atoms: C_3  and  C_17
    3  A    between atoms: C_4  and  C_35
    4  A    between atoms: C_8  and  C_17
    5  A    between atoms: C_8  and  C_23
    6  A    between atoms: N_10  and  C_14
    7  A    between atoms: C_14  and  C_23
                            x       y       z     vdW  Elec       q    Type
                         _______ _______ _______ _____ _____    ______ ____

>  <TORSDO>
F 7

$$$$
=
 OpenBabel11032420243D

 39 44  0  0  1  0  0  0  0  0999 V2000
  192.0660  177.5910  141.0590 N   0  0  0  0  0  1  0  0  0  0  0  0
  190.6380  177.3400  140.9570 C   0  0  1  0  0  3  0  0  0  0  0  0
  190.2870  176.9430  139.5270 C   0  0  0  0  0  2  0  0  0  0  0  0
  189.6150  178.6070  138.0090 F   0  0  0  0  0  0  0  0  0  0  0  0
  189.1090  177.7310  138.9490 C   0  0  0  0  0  0  0  0  0  0  0  0
  188.4910  178.4760  139.9410 F   0  0  0  0  0  0  0  0  0  0  0  0
  188.1110  176.8140  138.2410 C   0  0  0  0  0  2  0  0  0  0  0  0
  185.6680  178.7690  138.7870 N   0  0  0  0  0  0  0  0  0  0  0  0
  184.3520  179.0070  139.1010 C   0  0  0  0  0  3  0  0  0  0  0  0
  187.2740  177.5330  137.1880 C   0  0  1  0  0  3  0  0  0  0  0  0
  185.6250  176.5550  136.0220 N   0  0  0  0  0  2  0  0  0  0  0  0
  186.9930  176.6430  136.0960 O   0  0  0  0  0  0  0  0  0  0  0  0
  183.3520  178.3690  138.3430 C   0  0  0  0  0  0  0  0  0  0  0  0
  181.9570  178.4950  138.5050 N   0  0  0  0  0  2  0  0  0  0  0  0
  183.6770  177.5330  137.3100 C   0  0  0  0  0  0  0  0  0  0  0  0
  185.0180  177.3170  137.0300 C   0  0  0  0  0  0  0  0  0  0  0  0
  182.4560  177.0020  136.6590 C   0  0  0  0  0  2  0  0  0  0  0  0
  185.9650  177.9180  137.7610 C   0  0  0  0  0  0  0  0  0  0  0  0
  181.3200  177.6690  137.4720 C   0  0  1  0  0  3  0  0  0  0  0  0
  180.4700  176.6170  138.1050 C   0  0  0  0  0  3  0  0  0  0  0  0
  181.0230  175.5310  138.6410 C   0  0  0  0  0  2  0  0  0  0  0  0
  190.2180  176.2770  141.9710 C   0  0  0  0  0  2  0  0  0  0  0  0
  185.6820  178.4500  145.5560 C   0  0  0  0  0  0  0  0  0  0  0  0
  189.6070  177.4580  147.6190 C   0  0  0  0  0  3  0  0  0  0  0  0
  188.9030  176.5600  142.5340 N   0  0  0  0  0  2  0  0  0  0  0  0
  185.0430  178.3880  143.2380 C   0  0  0  0  0  0  0  0  0  0  0  0
  184.7070  178.5910  144.5720 C   0  0  0  0  0  3  0  0  0  0  0  0
  187.9110  177.9050  146.2520 C   0  0  0  0  0  0  0  0  0  0  0  0
  187.3230  177.9390  143.8520 N   0  0  0  0  0  0  0  0  0  0  0  0
  187.5090  178.0930  147.5430 C   0  0  0  0  0  0  0  0  0  0  0  0
  189.2270  177.4950  146.2790 C   0  0  0  0  0  3  0  0  0  0  0  0
  185.3490  178.6240  146.8700 N   0  0  0  0  0  0  0  0  0  0  0  0
  186.2420  178.4540  147.8500 N   0  0  0  0  0  0  0  0  0  0  0  0
  184.0100  178.5270  142.1780 C   0  0  0  0  0  1  0  0  0  0  0  0
  186.3570  178.0670  142.8990 C   0  0  0  0  0  3  0  0  0  0  0  0
  187.0090  178.1000  145.1860 C   0  0  0  0  0  0  0  0  0  0  0  0
  188.5320  177.8310  148.4200 C   0  0  0  0  0  3  0  0  0  0  0  0
  189.5820  178.4940  143.6530 O   0  0  0  0  0  0  0  0  0  0  0  0
  188.6520  177.6900  143.3750 C   0  0  0  0  0  0  0  0  0  0  0  0
  2  1  1  6  0  0  0
  2 22  1  0  0  0  0
  3  2  1  0  0  0  0
  4  5  1  0  0  0  0
  5  3  1  0  0  0  0
  5  6  1  0  0  0  0
  7  5  1  0  0  0  0
  8  9  1  0  0  0  0
 10 18  1  0  0  0  0
 10  7  1  1  0  0  0
 11 12  1  0  0  0  0
 11 16  1  0  0  0  0
 12 10  1  0  0  0  0
 13 14  1  0  0  0  0
 13  9  2  0  0  0  0
 15 13  1  0  0  0  0
 16 15  2  0  0  0  0
 16 18  1  0  0  0  0
 17 15  1  0  0  0  0
 17 19  1  0  0  0  0
 18  8  2  0  0  0  0
 19 20  1  1  0  0  0
 19 14  1  0  0  0  0
 20 21  2  0  0  0  0
 22 25  1  0  0  0  0
 23 32  1  0  0  0  0
 24 37  1  0  0  0  0
 25 39  1  0  0  0  0
 26 27  1  0  0  0  0
 27 23  2  0  0  0  0
 28 31  1  0  0  0  0
 28 30  1  0  0  0  0
 29 36  1  0  0  0  0
 30 33  1  0  0  0  0
 30 37  2  0  0  0  0
 31 24  2  0  0  0  0
 32 33  2  0  0  0  0
 34 26  1  0  0  0  0
 35 26  2  0  0  0  0
 35 29  1  0  0  0  0
 36 23  1  0  0  0  0
 36 28  2  0  0  0  0
 39 38  2  0  0  0  0
 39 29  1  0  0  0  0
M  END
>  <MODEL>
4

>  <REMARK>
 VINA RESULT:      -9.5      1.216      3.033
  Name = 
  7 active torsions:
  status: ('A' for Active; 'I' for Inactive)
    1  A    between atoms: C_3  and  C_13
    2  A    between atoms: C_3  and  C_17
    3  A    between atoms: C_4  and  C_35
    4  A    between atoms: C_8  and  C_17
    5  A    between atoms: C_8  and  C_23
    6  A    between atoms: N_10  and  C_14
    7  A    between atoms: C_14  and  C_23
                            x       y       z     vdW  Elec       q    Type
                         _______ _______ _______ _____ _____    ______ ____

>  <TORSDO>
F 7

$$$$
=
 OpenBabel11032420243D

 39 44  0  0  1  0  0  0  0  0999 V2000
  187.4730  178.2730  139.7550 N   0  0  0  0  0  1  0  0  0  0  0  0
  188.6360  177.4690  139.4190 C   0  0  1  0  0  3  0  0  0  0  0  0
  189.4920  178.2070  138.3950 C   0  0  0  0  0  2  0  0  0  0  0  0
  190.9330  177.0100  136.9740 F   0  0  0  0  0  0  0  0  0  0  0  0
  189.6300  177.4590  137.0670 C   0  0  0  0  0  0  0  0  0  0  0  0
  189.3930  178.3140  136.0030 F   0  0  0  0  0  0  0  0  0  0  0  0
  188.7120  176.2370  137.0110 C   0  0  0  0  0  2  0  0  0  0  0  0
  185.5770  176.6940  137.2360 N   0  0  0  0  0  0  0  0  0  0  0  0
  184.3030  176.2530  137.5010 C   0  0  0  0  0  3  0  0  0  0  0  0
  187.7190  176.2810  135.8550 C   0  0  1  0  0  3  0  0  0  0  0  0
  186.9070  174.4550  134.8350 N   0  0  0  0  0  2  0  0  0  0  0  0
  188.0250  175.2470  134.9070 O   0  0  0  0  0  0  0  0  0  0  0  0
  183.8380  175.1010  136.8380 C   0  0  0  0  0  0  0  0  0  0  0  0
  182.5670  174.5050  136.9670 N   0  0  0  0  0  2  0  0  0  0  0  0
  184.6310  174.4340  135.9450 C   0  0  0  0  0  0  0  0  0  0  0  0
  185.9120  174.9100  135.7120 C   0  0  0  0  0  0  0  0  0  0  0  0
  183.9130  173.2720  135.3710 C   0  0  0  0  0  2  0  0  0  0  0  0
  186.3530  176.0010  136.3520 C   0  0  0  0  0  0  0  0  0  0  0  0
  182.5310  173.3490  136.0640 C   0  0  1  0  0  3  0  0  0  0  0  0
  182.2890  172.0960  136.8400 C   0  0  0  0  0  3  0  0  0  0  0  0
  183.1910  171.1180  136.8490 C   0  0  0  0  0  2  0  0  0  0  0  0
  189.4190  177.1240  140.6850 C   0  0  0  0  0  2  0  0  0  0  0  0
  187.3170  177.7300  146.4620 C   0  0  0  0  0  0  0  0  0  0  0  0
  191.6800  176.5490  145.9990 C   0  0  0  0  0  3  0  0  0  0  0  0
  188.5590  177.1080  141.8630 N   0  0  0  0  0  2  0  0  0  0  0  0
  185.6380  178.2870  144.8310 C   0  0  0  0  0  0  0  0  0  0  0  0
  186.0000  178.0620  146.1550 C   0  0  0  0  0  3  0  0  0  0  0  0
  189.5670  177.2150  145.8110 C   0  0  0  0  0  0  0  0  0  0  0  0
  187.8990  177.8920  144.1180 N   0  0  0  0  0  0  0  0  0  0  0  0
  189.8490  176.9810  147.1260 C   0  0  0  0  0  0  0  0  0  0  0  0
  190.7040  176.9390  145.0820 C   0  0  0  0  0  3  0  0  0  0  0  0
  187.6700  177.4830  147.7580 N   0  0  0  0  0  0  0  0  0  0  0  0
  188.9120  177.1180  148.0920 N   0  0  0  0  0  0  0  0  0  0  0  0
  184.2340  178.6330  144.4900 C   0  0  0  0  0  1  0  0  0  0  0  0
  186.6030  178.2020  143.8290 C   0  0  0  0  0  3  0  0  0  0  0  0
  188.2770  177.6280  145.4180 C   0  0  0  0  0  0  0  0  0  0  0  0
  191.1490  176.5710  147.2840 C   0  0  0  0  0  3  0  0  0  0  0  0
  189.8120  178.6870  143.0410 O   0  0  0  0  0  0  0  0  0  0  0  0
  188.8150  177.9160  143.0150 C   0  0  0  0  0  0  0  0  0  0  0  0
  2  1  1  1  0  0  0
  2 22  1  0  0  0  0
  3  2  1  0  0  0  0
  4  5  1  0  0  0  0
  5  3  1  0  0  0  0
  6  5  1  0  0  0  0
  7  5  1  0  0  0  0
  8  9  1  0  0  0  0
 10 18  1  0  0  0  0
 10  7  1  1  0  0  0
 11 12  1  0  0  0  0
 11 16  1  0  0  0  0
 12 10  1  0  0  0  0
 13 14  1  0  0  0  0
 13  9  2  0  0  0  0
 15 13  1  0  0  0  0
 16 15  2  0  0  0  0
 16 18  1  0  0  0  0
 17 15  1  0  0  0  0
 17 19  1  0  0  0  0
 18  8  2  0  0  0  0
 19 20  1  1  0  0  0
 19 14  1  0  0  0  0
 20 21  2  0  0  0  0
 22 25  1  0  0  0  0
 23 32  1  0  0  0  0
 24 37  1  0  0  0  0
 25 39  1  0  0  0  0
 26 27  1  0  0  0  0
 27 23  2  0  0  0  0
 28 30  1  0  0  0  0
 29 36  1  0  0  0  0
 30 37  2  0  0  0  0
 30 33  1  0  0  0  0
 31 28  1  0  0  0  0
 31 24  2  0  0  0  0
 32 33  2  0  0  0  0
 34 26  1  0  0  0  0
 35 29  1  0  0  0  0
 35 26  2  0  0  0  0
 36 28  2  0  0  0  0
 36 23  1  0  0  0  0
 39 38  2  0  0  0  0
 39 29  1  0  0  0  0
M  END
>  <MODEL>
5

>  <REMARK>
 VINA RESULT:      -9.1      2.368      4.047
  Name = 
  7 active torsions:
  status: ('A' for Active; 'I' for Inactive)
    1  A    between atoms: C_3  and  C_13
    2  A    between atoms: C_3  and  C_17
    3  A    between atoms: C_4  and  C_35
    4  A    between atoms: C_8  and  C_17
    5  A    between atoms: C_8  and  C_23
    6  A    between atoms: N_10  and  C_14
    7  A    between atoms: C_14  and  C_23
                            x       y       z     vdW  Elec       q    Type
                         _______ _______ _______ _____ _____    ______ ____

>  <TORSDO>
F 7

$$$$
=
 OpenBabel11032420243D

 39 44  0  0  1  0  0  0  0  0999 V2000
  191.7280  177.3830  141.4140 N   0  0  0  0  0  1  0  0  0  0  0  0
  190.6690  177.5050  140.4270 C   0  0  1  0  0  3  0  0  0  0  0  0
  190.9100  176.5170  139.2910 C   0  0  0  0  0  2  0  0  0  0  0  0
  189.0090  175.9770  138.0170 F   0  0  0  0  0  0  0  0  0  0  0  0
  190.0960  176.8290  138.0330 C   0  0  0  0  0  0  0  0  0  0  0  0
  190.8490  176.5840  136.8950 F   0  0  0  0  0  0  0  0  0  0  0  0
  189.5630  178.2620  138.0470 C   0  0  0  0  0  2  0  0  0  0  0  0
  186.4130  178.6200  138.2540 N   0  0  0  0  0  0  0  0  0  0  0  0
  185.1400  178.1160  138.3600 C   0  0  0  0  0  3  0  0  0  0  0  0
  188.6090  178.5630  136.8960 C   0  0  1  0  0  3  0  0  0  0  0  0
  187.8680  177.0130  135.4520 N   0  0  0  0  0  2  0  0  0  0  0  0
  188.9680  177.7800  135.7470 O   0  0  0  0  0  0  0  0  0  0  0  0
  184.7210  177.1440  137.4320 C   0  0  0  0  0  0  0  0  0  0  0  0
  183.4570  176.5200  137.3720 N   0  0  0  0  0  2  0  0  0  0  0  0
  185.5560  176.7100  136.4400 C   0  0  0  0  0  0  0  0  0  0  0  0
  186.8360  177.2420  136.3720 C   0  0  0  0  0  0  0  0  0  0  0  0
  184.8820  175.7050  135.5860 C   0  0  0  0  0  2  0  0  0  0  0  0
  187.2330  178.1590  137.2630 C   0  0  0  0  0  0  0  0  0  0  0  0
  183.4760  175.6040  136.2250 C   0  0  1  0  0  3  0  0  0  0  0  0
  183.2310  174.2030  136.6810 C   0  0  0  0  0  3  0  0  0  0  0  0
  183.7690  173.1740  136.0310 C   0  0  0  0  0  2  0  0  0  0  0  0
  189.3070  177.3010  141.0900 C   0  0  0  0  0  2  0  0  0  0  0  0
  187.7640  177.8860  147.0430 C   0  0  0  0  0  0  0  0  0  0  0  0
  184.5030  178.7580  144.0010 C   0  0  0  0  0  3  0  0  0  0  0  0
  189.3580  177.5770  142.5210 N   0  0  0  0  0  2  0  0  0  0  0  0
  190.0250  177.1110  146.7720 C   0  0  0  0  0  0  0  0  0  0  0  0
  189.0010  177.5640  147.5960 C   0  0  0  0  0  3  0  0  0  0  0  0
  186.3070  178.1660  145.1590 C   0  0  0  0  0  0  0  0  0  0  0  0
  188.5860  177.2610  144.8530 N   0  0  0  0  0  0  0  0  0  0  0  0
  185.3530  178.6290  146.0180 C   0  0  0  0  0  0  0  0  0  0  0  0
  185.7950  178.2480  143.8810 C   0  0  0  0  0  3  0  0  0  0  0  0
  186.7630  178.3560  147.8450 N   0  0  0  0  0  0  0  0  0  0  0  0
  185.5760  178.7190  147.3500 N   0  0  0  0  0  0  0  0  0  0  0  0
  191.3520  176.7730  147.3500 C   0  0  0  0  0  1  0  0  0  0  0  0
  189.7960  176.9630  145.4050 C   0  0  0  0  0  3  0  0  0  0  0  0
  187.5630  177.7470  145.6420 C   0  0  0  0  0  0  0  0  0  0  0  0
  184.2190  179.0020  145.3410 C   0  0  0  0  0  3  0  0  0  0  0  0
  187.5550  176.1910  143.0520 O   0  0  0  0  0  0  0  0  0  0  0  0
  188.4460  176.9880  143.4530 C   0  0  0  0  0  0  0  0  0  0  0  0
  2 22  1  0  0  0  0
  2  1  1  1  0  0  0
  3  2  1  0  0  0  0
  4  5  1  0  0  0  0
  5  7  1  0  0  0  0
  5  3  1  0  0  0  0
  6  5  1  0  0  0  0
  8  9  1  0  0  0  0
 10 18  1  0  0  0  0
 10  7  1  1  0  0  0
 11 12  1  0  0  0  0
 11 16  1  0  0  0  0
 12 10  1  0  0  0  0
 13  9  2  0  0  0  0
 14 13  1  0  0  0  0
 15 13  1  0  0  0  0
 16 15  2  0  0  0  0
 16 18  1  0  0  0  0
 17 19  1  0  0  0  0
 17 15  1  0  0  0  0
 18  8  2  0  0  0  0
 19 20  1  1  0  0  0
 19 14  1  0  0  0  0
 21 20  2  0  0  0  0
 22 25  1  0  0  0  0
 23 27  2  0  0  0  0
 23 32  1  0  0  0  0
 24 37  1  0  0  0  0
 25 39  1  0  0  0  0
 26 34  1  0  0  0  0
 26 27  1  0  0  0  0
 28 36  2  0  0  0  0
 28 30  1  0  0  0  0
 29 35  1  0  0  0  0
 29 36  1  0  0  0  0
 30 33  1  0  0  0  0
 31 24  2  0  0  0  0
 31 28  1  0  0  0  0
 33 32  2  0  0  0  0
 35 26  2  0  0  0  0
 36 23  1  0  0  0  0
 37 30  2  0  0  0  0
 38 39  2  0  0  0  0
 39 29  1  0  0  0  0
M  END
>  <MODEL>
6

>  <REMARK>
 VINA RESULT:      -9.0      1.903      2.498
  Name = 
  7 active torsions:
  status: ('A' for Active; 'I' for Inactive)
    1  A    between atoms: C_3  and  C_13
    2  A    between atoms: C_3  and  C_17
    3  A    between atoms: C_4  and  C_35
    4  A    between atoms: C_8  and  C_17
    5  A    between atoms: C_8  and  C_23
    6  A    between atoms: N_10  and  C_14
    7  A    between atoms: C_14  and  C_23
                            x       y       z     vdW  Elec       q    Type
                         _______ _______ _______ _____ _____    ______ ____

>  <TORSDO>
F 7

$$$$
=
 OpenBabel11032420243D

 39 44  0  0  1  0  0  0  0  0999 V2000
  182.7480  178.6020  141.7660 N   0  0  0  0  0  1  0  0  0  0  0  0
  184.1830  178.4780  141.5740 C   0  0  1  0  0  3  0  0  0  0  0  0
  184.6180  179.3290  140.3860 C   0  0  0  0  0  2  0  0  0  0  0  0
  184.5080  179.2460  138.0390 F   0  0  0  0  0  0  0  0  0  0  0  0
  184.9240  178.5090  139.1310 C   0  0  0  0  0  0  0  0  0  0  0  0
  184.2120  177.3200  139.1430 F   0  0  0  0  0  0  0  0  0  0  0  0
  186.4240  178.2560  138.9750 C   0  0  0  0  0  2  0  0  0  0  0  0
  186.9260  175.6690  137.2000 N   0  0  0  0  0  0  0  0  0  0  0  0
  187.6880  174.5940  136.8120 C   0  0  0  0  0  3  0  0  0  0  0  0
  186.8840  178.2310  137.5210 C   0  0  1  0  0  3  0  0  0  0  0  0
  189.0160  178.5120  136.8800 N   0  0  0  0  0  2  0  0  0  0  0  0
  187.9170  179.2080  137.3180 O   0  0  0  0  0  0  0  0  0  0  0  0
  189.0210  174.8200  136.4210 C   0  0  0  0  0  0  0  0  0  0  0  0
  189.9500  173.8530  135.9830 N   0  0  0  0  0  2  0  0  0  0  0  0
  189.5520  176.0810  136.4190 C   0  0  0  0  0  0  0  0  0  0  0  0
  188.7490  177.1370  136.8230 C   0  0  0  0  0  0  0  0  0  0  0  0
  190.9570  176.0590  135.9520 C   0  0  0  0  0  2  0  0  0  0  0  0
  187.4840  176.9160  137.2040 C   0  0  0  0  0  0  0  0  0  0  0  0
  191.1960  174.5580  135.6570 C   0  0  1  0  0  3  0  0  0  0  0  0
  192.3130  174.0500  136.5090 C   0  0  0  0  0  3  0  0  0  0  0  0
  192.7000  174.7210  137.5910 C   0  0  0  0  0  2  0  0  0  0  0  0
  184.9200  178.8600  142.8580 C   0  0  0  0  0  2  0  0  0  0  0  0
  190.7430  177.0420  143.8260 C   0  0  0  0  0  0  0  0  0  0  0  0
  188.2010  177.7760  147.5190 C   0  0  0  0  0  3  0  0  0  0  0  0
  186.3600  178.6750  142.7280 N   0  0  0  0  0  2  0  0  0  0  0  0
  190.2050  177.1260  141.4830 C   0  0  0  0  0  0  0  0  0  0  0  0
  191.1440  176.9590  142.4950 C   0  0  0  0  0  3  0  0  0  0  0  0
  189.0760  177.4360  145.5040 C   0  0  0  0  0  0  0  0  0  0  0  0
  188.4620  177.4210  143.1100 N   0  0  0  0  0  0  0  0  0  0  0  0
  190.0510  177.2880  146.4480 C   0  0  0  0  0  0  0  0  0  0  0  0
  187.9040  177.7540  146.1580 C   0  0  0  0  0  3  0  0  0  0  0  0
  191.6670  176.9030  144.8230 N   0  0  0  0  0  0  0  0  0  0  0  0
  191.3330  177.0190  146.1120 N   0  0  0  0  0  0  0  0  0  0  0  0
  190.6230  177.0490  140.0580 C   0  0  0  0  0  1  0  0  0  0  0  0
  188.8690  177.3520  141.8110 C   0  0  0  0  0  3  0  0  0  0  0  0
  189.3780  177.2950  144.1340 C   0  0  0  0  0  0  0  0  0  0  0  0
  189.5480  177.4860  147.7090 C   0  0  0  0  0  3  0  0  0  0  0  0
  186.4180  176.7080  143.9860 O   0  0  0  0  0  0  0  0  0  0  0  0
  187.0520  177.5730  143.3220 C   0  0  0  0  0  0  0  0  0  0  0  0
  2  1  1  1  0  0  0
  2 22  1  0  0  0  0
  3  2  1  0  0  0  0
  4  5  1  0  0  0  0
  5  6  1  0  0  0  0
  5  3  1  0  0  0  0
  7  5  1  0  0  0  0
  8 18  1  0  0  0  0
  9  8  2  0  0  0  0
 10  7  1  1  0  0  0
 11 12  1  0  0  0  0
 12 10  1  0  0  0  0
 13  9  1  0  0  0  0
 14 13  1  0  0  0  0
 15 13  2  0  0  0  0
 15 16  1  0  0  0  0
 16 11  1  0  0  0  0
 16 18  2  0  0  0  0
 17 15  1  0  0  0  0
 18 10  1  0  0  0  0
 19 17  1  0  0  0  0
 19 14  1  0  0  0  0
 19 20  1  1  0  0  0
 20 21  2  0  0  0  0
 23 36  1  0  0  0  0
 23 32  1  0  0  0  0
 24 37  1  0  0  0  0
 25 22  1  0  0  0  0
 25 39  1  0  0  0  0
 26 35  2  0  0  0  0
 26 27  1  0  0  0  0
 27 23  2  0  0  0  0
 28 31  1  0  0  0  0
 28 30  1  0  0  0  0
 29 39  1  0  0  0  0
 29 36  1  0  0  0  0
 30 37  2  0  0  0  0
 31 24  2  0  0  0  0
 32 33  2  0  0  0  0
 33 30  1  0  0  0  0
 34 26  1  0  0  0  0
 35 29  1  0  0  0  0
 36 28  2  0  0  0  0
 39 38  2  0  0  0  0
M  END
>  <MODEL>
7

>  <REMARK>
 VINA RESULT:      -9.0      2.617      6.270
  Name = 
  7 active torsions:
  status: ('A' for Active; 'I' for Inactive)
    1  A    between atoms: C_3  and  C_13
    2  A    between atoms: C_3  and  C_17
    3  A    between atoms: C_4  and  C_35
    4  A    between atoms: C_8  and  C_17
    5  A    between atoms: C_8  and  C_23
    6  A    between atoms: N_10  and  C_14
    7  A    between atoms: C_14  and  C_23
                            x       y       z     vdW  Elec       q    Type
                         _______ _______ _______ _____ _____    ______ ____

>  <TORSDO>
F 7

$$$$
=
 OpenBabel11032420243D

 39 44  0  0  1  0  0  0  0  0999 V2000
  192.1020  177.2180  141.6750 N   0  0  0  0  0  1  0  0  0  0  0  0
  191.0160  177.4810  140.7450 C   0  0  1  0  0  3  0  0  0  0  0  0
  191.2850  176.7640  139.4260 C   0  0  0  0  0  2  0  0  0  0  0  0
  191.0350  177.1480  137.1200 F   0  0  0  0  0  0  0  0  0  0  0  0
  190.3270  177.1740  138.3050 C   0  0  0  0  0  0  0  0  0  0  0  0
  189.8710  178.4680  138.5050 F   0  0  0  0  0  0  0  0  0  0  0  0
  189.1630  176.1910  138.1730 C   0  0  0  0  0  2  0  0  0  0  0  0
  186.8170  175.9100  136.0480 N   0  0  0  0  0  0  0  0  0  0  0  0
  185.6280  175.3740  135.6190 C   0  0  0  0  0  3  0  0  0  0  0  0
  189.2030  175.3800  136.8820 C   0  0  1  0  0  3  0  0  0  0  0  0
  188.9160  173.1560  136.7940 N   0  0  0  0  0  2  0  0  0  0  0  0
  189.8420  174.1160  137.1180 O   0  0  0  0  0  0  0  0  0  0  0  0
  185.4950  173.9730  135.5840 C   0  0  0  0  0  0  0  0  0  0  0  0
  184.3640  173.2400  135.1660 N   0  0  0  0  0  2  0  0  0  0  0  0
  186.5250  173.1570  135.9610 C   0  0  0  0  0  0  0  0  0  0  0  0
  187.7070  173.7400  136.3940 C   0  0  0  0  0  0  0  0  0  0  0  0
  186.1480  171.7320  135.8190 C   0  0  0  0  0  2  0  0  0  0  0  0
  187.8260  175.0740  136.4350 C   0  0  0  0  0  0  0  0  0  0  0  0
  184.7010  171.8160  135.2750 C   0  0  1  0  0  3  0  0  0  0  0  0
  183.7670  171.1370  136.2240 C   0  0  0  0  0  3  0  0  0  0  0  0
  183.1990  171.8160  137.2170 C   0  0  0  0  0  2  0  0  0  0  0  0
  189.6820  177.0680  141.3640 C   0  0  0  0  0  2  0  0  0  0  0  0
  187.6600  177.9290  147.1370 C   0  0  0  0  0  0  0  0  0  0  0  0
  184.6660  178.6730  143.8010 C   0  0  0  0  0  3  0  0  0  0  0  0
  189.6180  177.4090  142.7810 N   0  0  0  0  0  2  0  0  0  0  0  0
  189.9300  177.1350  147.0890 C   0  0  0  0  0  0  0  0  0  0  0  0
  188.8450  177.6290  147.8040 C   0  0  0  0  0  3  0  0  0  0  0  0
  186.3640  178.1280  145.1290 C   0  0  0  0  0  0  0  0  0  0  0  0
  188.6540  177.2020  145.0530 N   0  0  0  0  0  0  0  0  0  0  0  0
  185.3470  178.6330  145.8850 C   0  0  0  0  0  0  0  0  0  0  0  0
  185.9600  178.1530  143.8110 C   0  0  0  0  0  3  0  0  0  0  0  0
  186.6000  178.4390  147.8320 N   0  0  0  0  0  0  0  0  0  0  0  0
  185.4600  178.7830  147.2250 N   0  0  0  0  0  0  0  0  0  0  0  0
  191.2030  176.8190  147.7880 C   0  0  0  0  0  1  0  0  0  0  0  0
  189.8130  176.9250  145.7150 C   0  0  0  0  0  3  0  0  0  0  0  0
  187.5740  177.7270  145.7320 C   0  0  0  0  0  0  0  0  0  0  0  0
  184.2750  178.9780  145.1010 C   0  0  0  0  0  3  0  0  0  0  0  0
  187.7680  176.0540  143.2230 O   0  0  0  0  0  0  0  0  0  0  0  0
  188.6280  176.8660  143.6590 C   0  0  0  0  0  0  0  0  0  0  0  0
  2 22  1  0  0  0  0
  2  1  1  1  0  0  0
  3  2  1  0  0  0  0
  4  5  1  0  0  0  0
  5  6  1  0  0  0  0
  5  3  1  0  0  0  0
  7  5  1  0  0  0  0
  8 18  1  0  0  0  0
  9  8  2  0  0  0  0
 10 12  1  0  0  0  0
 10  7  1  1  0  0  0
 11 12  1  0  0  0  0
 13  9  1  0  0  0  0
 13 15  2  0  0  0  0
 14 19  1  0  0  0  0
 14 13  1  0  0  0  0
 15 16  1  0  0  0  0
 16 18  2  0  0  0  0
 16 11  1  0  0  0  0
 17 15  1  0  0  0  0
 18 10  1  0  0  0  0
 19 17  1  0  0  0  0
 19 20  1  1  0  0  0
 20 21  2  0  0  0  0
 22 25  1  0  0  0  0
 23 27  2  0  0  0  0
 23 32  1  0  0  0  0
 24 31  2  0  0  0  0
 24 37  1  0  0  0  0
 25 39  1  0  0  0  0
 26 34  1  0  0  0  0
 26 27  1  0  0  0  0
 28 36  2  0  0  0  0
 28 30  1  0  0  0  0
 29 35  1  0  0  0  0
 29 36  1  0  0  0  0
 30 33  1  0  0  0  0
 31 28  1  0  0  0  0
 33 32  2  0  0  0  0
 35 26  2  0  0  0  0
 36 23  1  0  0  0  0
 37 30  2  0  0  0  0
 38 39  2  0  0  0  0
 39 29  1  0  0  0  0
M  END
>  <MODEL>
8

>  <REMARK>
 VINA RESULT:      -9.0      2.809      3.640
  Name = 
  7 active torsions:
  status: ('A' for Active; 'I' for Inactive)
    1  A    between atoms: C_3  and  C_13
    2  A    between atoms: C_3  and  C_17
    3  A    between atoms: C_4  and  C_35
    4  A    between atoms: C_8  and  C_17
    5  A    between atoms: C_8  and  C_23
    6  A    between atoms: N_10  and  C_14
    7  A    between atoms: C_14  and  C_23
                            x       y       z     vdW  Elec       q    Type
                         _______ _______ _______ _____ _____    ______ ____

>  <TORSDO>
F 7

$$$$
=
 OpenBabel11032420243D

 39 44  0  0  1  0  0  0  0  0999 V2000
  185.6540  175.4710  137.2240 N   0  0  0  0  0  1  0  0  0  0  0  0
  186.5710  176.5380  137.5870 C   0  0  1  0  0  3  0  0  0  0  0  0
  187.7630  176.5370  136.6360 C   0  0  0  0  0  2  0  0  0  0  0  0
  189.1460  178.3820  137.0940 F   0  0  0  0  0  0  0  0  0  0  0  0
  189.0610  177.0180  137.2890 C   0  0  0  0  0  0  0  0  0  0  0  0
  190.1570  176.4270  136.6800 F   0  0  0  0  0  0  0  0  0  0  0  0
  189.0600  176.7630  138.7970 C   0  0  0  0  0  2  0  0  0  0  0  0
  191.2320  177.1280  141.0870 N   0  0  0  0  0  0  0  0  0  0  0  0
  191.6810  176.9470  142.3730 C   0  0  0  0  0  3  0  0  0  0  0  0
  189.3050  178.0230  139.6210 C   0  0  1  0  0  3  0  0  0  0  0  0
  188.0400  178.6360  141.3700 N   0  0  0  0  0  2  0  0  0  0  0  0
  188.0500  178.6110  139.9980 O   0  0  0  0  0  0  0  0  0  0  0  0
  190.8510  177.3450  143.4380 C   0  0  0  0  0  0  0  0  0  0  0  0
  191.1380  177.2520  144.8150 N   0  0  0  0  0  2  0  0  0  0  0  0
  189.6250  177.9060  143.2040 C   0  0  0  0  0  0  0  0  0  0  0  0
  189.2090  178.0650  141.8910 C   0  0  0  0  0  0  0  0  0  0  0  0
  188.9550  178.2540  144.4790 C   0  0  0  0  0  2  0  0  0  0  0  0
  189.9980  177.6760  140.8810 C   0  0  0  0  0  0  0  0  0  0  0  0
  189.9930  177.8160  145.5400 C   0  0  1  0  0  3  0  0  0  0  0  0
  189.3900  176.7820  146.4350 C   0  0  0  0  0  3  0  0  0  0  0  0
  188.9350  177.1110  147.6410 C   0  0  0  0  0  2  0  0  0  0  0  0
  185.8390  177.8800  137.5940 C   0  0  0  0  0  2  0  0  0  0  0  0
  181.1320  178.6050  141.5280 C   0  0  0  0  0  0  0  0  0  0  0  0
  185.3040  178.5920  143.3280 C   0  0  0  0  0  3  0  0  0  0  0  0
  184.5350  177.7780  138.2390 N   0  0  0  0  0  2  0  0  0  0  0  0
  180.3850  178.4850  139.2440 C   0  0  0  0  0  0  0  0  0  0  0  0
  180.0940  178.5290  140.6030 C   0  0  0  0  0  3  0  0  0  0  0  0
  183.4660  178.6380  142.0770 C   0  0  0  0  0  0  0  0  0  0  0  0
  182.7370  178.6270  139.7160 N   0  0  0  0  0  0  0  0  0  0  0  0
  183.1130  178.6520  143.3950 C   0  0  0  0  0  0  0  0  0  0  0  0
  184.8430  178.5900  142.0130 C   0  0  0  0  0  3  0  0  0  0  0  0
  180.8510  178.6230  142.8650 N   0  0  0  0  0  0  0  0  0  0  0  0
  181.8180  178.6500  143.7870 N   0  0  0  0  0  0  0  0  0  0  0  0
  179.2860  178.3950  138.2480 C   0  0  0  0  0  1  0  0  0  0  0  0
  181.7130  178.5390  138.8220 C   0  0  0  0  0  3  0  0  0  0  0  0
  182.4780  178.6370  141.0710 C   0  0  0  0  0  0  0  0  0  0  0  0
  184.2230  178.6300  144.2020 C   0  0  0  0  0  3  0  0  0  0  0  0
  184.7550  179.7690  139.4390 O   0  0  0  0  0  0  0  0  0  0  0  0
  184.0520  178.7610  139.1590 C   0  0  0  0  0  0  0  0  0  0  0  0
  2  1  1  6  0  0  0
  2 22  1  0  0  0  0
  3  5  1  0  0  0  0
  3  2  1  0  0  0  0
  4  5  1  0  0  0  0
  5  7  1  0  0  0  0
  6  5  1  0  0  0  0
  8  9  1  0  0  0  0
  9 13  2  0  0  0  0
 10  7  1  6  0  0  0
 10 12  1  0  0  0  0
 10 18  1  0  0  0  0
 11 16  1  0  0  0  0
 12 11  1  0  0  0  0
 13 14  1  0  0  0  0
 14 19  1  0  0  0  0
 15 13  1  0  0  0  0
 15 17  1  0  0  0  0
 16 15  2  0  0  0  0
 17 19  1  0  0  0  0
 18  8  2  0  0  0  0
 18 16  1  0  0  0  0
 19 20  1  1  0  0  0
 20 21  2  0  0  0  0
 22 25  1  0  0  0  0
 23 32  1  0  0  0  0
 24 37  1  0  0  0  0
 25 39  1  0  0  0  0
 26 27  1  0  0  0  0
 27 23  2  0  0  0  0
 28 30  1  0  0  0  0
 29 36  1  0  0  0  0
 30 33  1  0  0  0  0
 30 37  2  0  0  0  0
 31 28  1  0  0  0  0
 31 24  2  0  0  0  0
 32 33  2  0  0  0  0
 34 26  1  0  0  0  0
 35 26  2  0  0  0  0
 35 29  1  0  0  0  0
 36 23  1  0  0  0  0
 36 28  2  0  0  0  0
 39 38  2  0  0  0  0
 39 29  1  0  0  0  0
M  END
>  <MODEL>
9

>  <REMARK>
 VINA RESULT:      -9.0      1.909      7.032
  Name = 
  7 active torsions:
  status: ('A' for Active; 'I' for Inactive)
    1  A    between atoms: C_3  and  C_13
    2  A    between atoms: C_3  and  C_17
    3  A    between atoms: C_4  and  C_35
    4  A    between atoms: C_8  and  C_17
    5  A    between atoms: C_8  and  C_23
    6  A    between atoms: N_10  and  C_14
    7  A    between atoms: C_14  and  C_23
                            x       y       z     vdW  Elec       q    Type
                         _______ _______ _______ _____ _____    ______ ____

>  <TORSDO>
F 7

$$$$
