=
 OpenBabel11032419433D

 45 49  0  0  1  0  0  0  0  0999 V2000
  189.6190  177.9470  141.6020 C   0  0  0  0  0  0  0  0  0  0  0  0
  189.8230  177.5290  140.1410 C   0  0  0  0  0  2  0  0  0  0  0  0
  184.2980  179.3610  140.0080 O   0  0  0  0  0  0  0  0  0  0  0  0
  186.2630  178.5380  139.2360 O   0  0  0  0  0  0  0  0  0  0  0  0
  188.6380  177.7530  139.2310 C   0  0  0  0  0  0  0  0  0  0  0  0
  187.4100  178.2870  139.8110 C   0  0  0  0  0  0  0  0  0  0  0  0
  188.7070  177.4450  137.9660 C   0  0  0  0  0  0  0  0  0  0  0  0
  188.4480  178.4430  142.0450 C   0  0  0  0  0  3  0  0  0  0  0  0
  187.3230  178.6070  141.1240 C   0  0  0  0  0  0  0  0  0  0  0  0
  185.4910  179.0070  140.1980 C   0  0  0  0  0  0  0  0  0  0  0  0
  188.7680  177.1370  136.7010 C   0  0  0  0  0  3  0  0  0  0  0  0
  186.0950  179.0780  141.4090 N   0  0  0  0  0  2  0  0  0  0  0  0
  188.2950  175.8050  136.2370 C   0  0  0  0  0  2  0  0  0  0  0  0
  186.9010  175.5220  136.7770 C   0  0  2  0  0  3  0  0  0  0  0  0
  187.8260  173.5180  136.6000 C   0  0  0  0  0  1  0  0  0  0  0  0
  186.8520  174.2290  137.3020 O   0  0  0  0  0  0  0  0  0  0  0  0
  185.9310  175.6440  135.7020 N   0  0  0  0  0  2  0  0  0  0  0  0
  185.0760  176.7730  136.0250 C   0  0  0  0  0  2  0  0  0  0  0  0
  182.6320  176.4800  140.0620 O   0  0  0  0  0  0  0  0  0  0  0  0
  182.6800  176.1030  138.8630 C   0  0  0  0  0  0  0  0  0  0  0  0
  181.6030  175.1790  138.3360 C   0  0  2  0  0  3  0  0  0  0  0  0
  182.1640  174.1790  136.9130 S   0  0  0  0  0  0  0  0  0  0  0  0
  182.7860  175.6180  135.9940 C   0  0  0  0  0  2  0  0  0  0  0  0
  183.7680  176.5400  138.0360 N   0  0  0  0  0  0  0  0  0  0  0  0
  183.8720  176.3020  136.7630 C   0  0  0  0  0  0  0  0  0  0  0  0
  180.4000  177.2620  137.9710 C   0  0  0  0  0  1  0  0  0  0  0  0
  180.2980  175.8100  138.0780 N   0  0  0  0  0  0  0  0  0  0  0  0
  179.4150  175.5060  139.1950 C   0  0  0  0  0  2  0  0  0  0  0  0
  179.3400  174.0120  141.1890 C   0  0  0  0  0  1  0  0  0  0  0  0
  179.6780  174.1020  139.7120 C   0  0  0  0  0  2  0  0  0  0  0  0
  190.6770  177.8170  142.5630 N   0  0  0  0  0  2  0  0  0  0  0  0
  190.1690  175.5520  143.5440 C   0  0  0  0  0  2  0  0  0  0  0  0
  190.7850  176.9210  143.7200 C   0  0  0  0  0  0  0  0  0  0  0  0
  191.6900  175.7180  143.5890 C   0  0  0  0  0  2  0  0  0  0  0  0
  190.6360  177.5280  145.1130 C   0  0  2  0  0  3  0  0  0  0  0  0
  191.7640  177.2070  145.8730 O   0  0  0  0  0  1  0  0  0  0  0  0
  187.6380  178.2170  148.0120 C   0  0  0  0  0  2  0  0  0  0  0  0
  189.6220  176.8170  147.3220 C   0  0  0  0  0  2  0  0  0  0  0  0
  187.1060  177.8530  146.6170 C   0  0  2  0  0  3  0  0  0  0  0  0
  189.3660  177.0390  145.8190 C   0  0  1  0  0  3  0  0  0  0  0  0
  188.1850  177.9880  145.5470 C   0  0  0  0  0  2  0  0  0  0  0  0
  189.1490  178.0020  148.1610 C   0  0  0  0  0  2  0  0  0  0  0  0
  185.6800  178.8740  146.1900 S   0  0  0  0  0  3  0  0  0  0  0  0
  184.5410  178.2950  147.0190 O   0  0  0  0  0  1  0  0  0  0  0  0
  185.2970  178.3930  144.6020 O   0  0  0  0  0  1  0  0  0  0  0  0
  1  8  2  0  0  0  0
  1 31  1  0  0  0  0
  2  1  1  0  0  0  0
  3 10  2  0  0  0  0
  4  6  1  0  0  0  0
  4 10  1  0  0  0  0
  5  6  1  0  0  0  0
  5  2  1  0  0  0  0
  6  9  2  0  0  0  0
  7  5  2  0  0  0  0
  9 12  1  0  0  0  0
  9  8  1  0  0  0  0
 10 12  1  0  0  0  0
 11  7  2  0  0  0  0
 13 11  1  0  0  0  0
 14 13  1  6  0  0  0
 14 16  1  0  0  0  0
 15 16  1  0  0  0  0
 17 18  1  0  0  0  0
 17 14  1  0  0  0  0
 18 25  1  0  0  0  0
 20 19  2  0  0  0  0
 21 27  1  6  0  0  0
 21 20  1  0  0  0  0
 22 21  1  0  0  0  0
 23 25  1  0  0  0  0
 23 22  1  0  0  0  0
 24 20  1  0  0  0  0
 25 24  2  0  0  0  0
 26 27  1  0  0  0  0
 27 28  1  0  0  0  0
 28 30  1  0  0  0  0
 30 29  1  0  0  0  0
 31 33  1  0  0  0  0
 32 34  1  0  0  0  0
 32 33  1  0  0  0  0
 33 35  1  0  0  0  0
 34 33  1  0  0  0  0
 35 36  1  1  0  0  0
 37 42  1  0  0  0  0
 38 42  1  0  0  0  0
 39 43  1  6  0  0  0
 39 37  1  0  0  0  0
 40 35  1  1  0  0  0
 40 38  1  0  0  0  0
 41 40  1  0  0  0  0
 41 39  1  0  0  0  0
 43 44  1  0  0  0  0
 45 43  1  0  0  0  0
M  END
>  <MODEL>
1

>  <REMARK>
 VINA RESULT:      -8.2      0.000      0.000
  Name = 
  14 active torsions:
  status: ('A' for Active; 'I' for Inactive)
    1  A    between atoms: C_3  and  N_32
    2  A    between atoms: C_5  and  N_31
    3  A    between atoms: C_6  and  C_24
    4  A    between atoms: C_6  and  N_31
    5  A    between atoms: S_12  and  C_14
    6  A    between atoms: C_15  and  C_25
    7  A    between atoms: C_15  and  C_28
    8  A    between atoms: N_18  and  C_29
    9  A    between atoms: N_18  and  C_39
   10  A    between atoms: C_23  and  C_29
   11  A    between atoms: C_23  and  C_38
   12  A    between atoms: C_25  and  N_32
   13  A    between atoms: C_29  and  O_36
   14  A    between atoms: C_39  and  C_43
                            x       y       z     vdW  Elec       q    Type
                         _______ _______ _______ _____ _____    ______ ____

>  <TORSDO>
F 14

$$$$
=
 OpenBabel11032419433D

 45 49  0  0  1  0  0  0  0  0999 V2000
  189.5800  177.9780  141.4580 C   0  0  0  0  0  0  0  0  0  0  0  0
  189.8050  177.5980  139.9900 C   0  0  0  0  0  2  0  0  0  0  0  0
  184.2090  179.2030  139.8760 O   0  0  0  0  0  0  0  0  0  0  0  0
  186.2080  178.4780  139.0940 O   0  0  0  0  0  0  0  0  0  0  0  0
  188.6130  177.7910  139.0800 C   0  0  0  0  0  0  0  0  0  0  0  0
  187.3640  178.2630  139.6670 C   0  0  0  0  0  0  0  0  0  0  0  0
  188.6980  177.5120  137.8100 C   0  0  0  0  0  0  0  0  0  0  0  0
  188.3890  178.4160  141.9070 C   0  0  0  0  0  3  0  0  0  0  0  0
  187.2610  178.5530  140.9860 C   0  0  0  0  0  0  0  0  0  0  0  0
  185.4150  178.8960  140.0620 C   0  0  0  0  0  0  0  0  0  0  0  0
  188.7740  177.2320  136.5390 C   0  0  0  0  0  3  0  0  0  0  0  0
  186.0140  178.9660  141.2770 N   0  0  0  0  0  2  0  0  0  0  0  0
  188.3580  175.8920  136.0470 C   0  0  0  0  0  2  0  0  0  0  0  0
  187.3090  175.2930  136.9720 C   0  0  2  0  0  3  0  0  0  0  0  0
  188.6200  173.5160  136.8000 C   0  0  0  0  0  1  0  0  0  0  0  0
  187.2790  173.9050  136.8160 O   0  0  0  0  0  0  0  0  0  0  0  0
  186.0040  175.8420  136.6450 N   0  0  0  0  0  2  0  0  0  0  0  0
  185.0090  174.9290  137.1830 C   0  0  0  0  0  2  0  0  0  0  0  0
  181.0070  175.2690  139.6780 O   0  0  0  0  0  0  0  0  0  0  0  0
  181.6820  175.7810  138.7480 C   0  0  0  0  0  0  0  0  0  0  0  0
  181.1430  176.9980  138.0280 C   0  0  2  0  0  3  0  0  0  0  0  0
  181.8060  177.1680  136.3340 S   0  0  0  0  0  0  0  0  0  0  0  0
  183.5360  177.0050  136.8660 C   0  0  0  0  0  2  0  0  0  0  0  0
  182.9320  175.1810  138.3800 N   0  0  0  0  0  0  0  0  0  0  0  0
  183.7620  175.6740  137.5100 C   0  0  0  0  0  0  0  0  0  0  0  0
  180.4750  178.2170  140.0270 C   0  0  0  0  0  1  0  0  0  0  0  0
  181.2270  178.2640  138.7750 N   0  0  0  0  0  0  0  0  0  0  0  0
  180.6520  179.3200  137.9520 C   0  0  0  0  0  2  0  0  0  0  0  0
  181.0140  181.6800  138.6690 C   0  0  0  0  0  1  0  0  0  0  0  0
  181.5920  180.5130  137.8900 C   0  0  0  0  0  2  0  0  0  0  0  0
  190.6410  177.8720  142.4190 N   0  0  0  0  0  2  0  0  0  0  0  0
  190.1640  175.6250  143.4530 C   0  0  0  0  0  2  0  0  0  0  0  0
  190.7490  177.0100  143.6010 C   0  0  0  0  0  0  0  0  0  0  0  0
  191.6810  175.8230  143.5170 C   0  0  0  0  0  2  0  0  0  0  0  0
  190.5660  177.6510  144.9750 C   0  0  2  0  0  3  0  0  0  0  0  0
  191.7610  177.5420  145.6910 O   0  0  0  0  0  1  0  0  0  0  0  0
  187.7030  177.9630  148.0690 C   0  0  0  0  0  2  0  0  0  0  0  0
  189.7990  176.8240  147.2420 C   0  0  0  0  0  2  0  0  0  0  0  0
  187.1300  177.5290  146.7100 C   0  0  2  0  0  3  0  0  0  0  0  0
  189.4180  177.0070  145.7600 C   0  0  1  0  0  3  0  0  0  0  0  0
  188.1110  177.7970  145.5720 C   0  0  0  0  0  2  0  0  0  0  0  0
  189.2360  177.9420  148.1170 C   0  0  0  0  0  2  0  0  0  0  0  0
  185.5610  178.3600  146.3830 S   0  0  0  0  0  3  0  0  0  0  0  0
  185.6960  178.8660  144.9520 O   0  0  0  0  0  1  0  0  0  0  0  0
  185.6510  179.7810  147.3150 O   0  0  0  0  0  1  0  0  0  0  0  0
  1  8  2  0  0  0  0
  1 31  1  0  0  0  0
  2  1  1  0  0  0  0
  3 10  2  0  0  0  0
  4  6  1  0  0  0  0
  4 10  1  0  0  0  0
  5  6  1  0  0  0  0
  5  2  1  0  0  0  0
  6  9  2  0  0  0  0
  7  5  2  0  0  0  0
  9 12  1  0  0  0  0
  9  8  1  0  0  0  0
 10 12  1  0  0  0  0
 11  7  2  0  0  0  0
 13 11  1  0  0  0  0
 14 13  1  6  0  0  0
 15 16  1  0  0  0  0
 16 14  1  0  0  0  0
 17 14  1  0  0  0  0
 17 18  1  0  0  0  0
 18 25  1  0  0  0  0
 20 19  2  0  0  0  0
 21 20  1  0  0  0  0
 21 27  1  1  0  0  0
 22 23  1  0  0  0  0
 22 21  1  0  0  0  0
 23 25  1  0  0  0  0
 24 20  1  0  0  0  0
 25 24  2  0  0  0  0
 27 26  1  0  0  0  0
 28 27  1  0  0  0  0
 30 28  1  0  0  0  0
 30 29  1  0  0  0  0
 31 33  1  0  0  0  0
 32 34  1  0  0  0  0
 32 33  1  0  0  0  0
 33 35  1  0  0  0  0
 34 33  1  0  0  0  0
 35 36  1  1  0  0  0
 37 42  1  0  0  0  0
 38 42  1  0  0  0  0
 39 43  1  6  0  0  0
 39 37  1  0  0  0  0
 40 35  1  6  0  0  0
 40 38  1  0  0  0  0
 41 40  1  0  0  0  0
 41 39  1  0  0  0  0
 43 45  1  0  0  0  0
 44 43  1  0  0  0  0
M  END
>  <MODEL>
2

>  <REMARK>
 VINA RESULT:      -8.0      1.328      2.083
  Name = 
  14 active torsions:
  status: ('A' for Active; 'I' for Inactive)
    1  A    between atoms: C_3  and  N_32
    2  A    between atoms: C_5  and  N_31
    3  A    between atoms: C_6  and  C_24
    4  A    between atoms: C_6  and  N_31
    5  A    between atoms: S_12  and  C_14
    6  A    between atoms: C_15  and  C_25
    7  A    between atoms: C_15  and  C_28
    8  A    between atoms: N_18  and  C_29
    9  A    between atoms: N_18  and  C_39
   10  A    between atoms: C_23  and  C_29
   11  A    between atoms: C_23  and  C_38
   12  A    between atoms: C_25  and  N_32
   13  A    between atoms: C_29  and  O_36
   14  A    between atoms: C_39  and  C_43
                            x       y       z     vdW  Elec       q    Type
                         _______ _______ _______ _____ _____    ______ ____

>  <TORSDO>
F 14

$$$$
=
 OpenBabel11032419433D

 45 49  0  0  1  0  0  0  0  0999 V2000
  191.2610  177.3620  141.0270 C   0  0  0  0  0  0  0  0  0  0  0  0
  189.9540  177.0600  140.2850 C   0  0  0  0  0  2  0  0  0  0  0  0
  193.8580  176.1750  136.0570 O   0  0  0  0  0  0  0  0  0  0  0  0
  191.8300  176.2800  137.0630 O   0  0  0  0  0  0  0  0  0  0  0  0
  190.1100  176.6320  138.8440 C   0  0  0  0  0  0  0  0  0  0  0  0
  191.4530  176.5900  138.2760 C   0  0  0  0  0  0  0  0  0  0  0  0
  189.0630  176.3380  138.1240 C   0  0  0  0  0  0  0  0  0  0  0  0
  192.4590  177.2870  140.4190 C   0  0  0  0  0  3  0  0  0  0  0  0
  192.5480  176.8980  139.0120 C   0  0  0  0  0  0  0  0  0  0  0  0
  193.1440  176.3990  137.0690 C   0  0  0  0  0  0  0  0  0  0  0  0
  188.0230  176.0450  137.3970 C   0  0  0  0  0  3  0  0  0  0  0  0
  193.6600  176.7830  138.2630 N   0  0  0  0  0  2  0  0  0  0  0  0
  187.3950  177.0900  136.5430 C   0  0  0  0  0  2  0  0  0  0  0  0
  185.9800  177.3810  137.0200 C   0  0  2  0  0  3  0  0  0  0  0  0
  184.4200  176.2390  135.9390 C   0  0  0  0  0  1  0  0  0  0  0  0
  185.1170  177.4480  135.9230 O   0  0  0  0  0  0  0  0  0  0  0  0
  185.9590  178.6500  137.7280 N   0  0  0  0  0  2  0  0  0  0  0  0
  185.5730  178.3650  139.1000 C   0  0  0  0  0  2  0  0  0  0  0  0
  181.5430  175.9400  139.5860 O   0  0  0  0  0  0  0  0  0  0  0  0
  182.0360  177.0810  139.3910 C   0  0  0  0  0  0  0  0  0  0  0  0
  181.1100  178.2650  139.2160 C   0  0  2  0  0  3  0  0  0  0  0  0
  181.8710  179.6220  138.2580 S   0  0  0  0  0  0  0  0  0  0  0  0
  183.3700  179.6660  139.2840 C   0  0  0  0  0  2  0  0  0  0  0  0
  183.4610  177.2220  139.3140 N   0  0  0  0  0  0  0  0  0  0  0  0
  184.0890  178.3560  139.2180 C   0  0  0  0  0  0  0  0  0  0  0  0
  180.2230  180.1960  140.4030 C   0  0  0  0  0  1  0  0  0  0  0  0
  180.4750  178.7590  140.4490 N   0  0  0  0  0  0  0  0  0  0  0  0
  181.3780  178.5020  141.5630 C   0  0  0  0  0  2  0  0  0  0  0  0
  180.4480  178.5420  143.8760 C   0  0  0  0  0  1  0  0  0  0  0  0
  181.0200  179.3820  142.7490 C   0  0  0  0  0  2  0  0  0  0  0  0
  191.2540  177.7480  142.4090 N   0  0  0  0  0  2  0  0  0  0  0  0
  190.2650  175.6430  143.3780 C   0  0  0  0  0  2  0  0  0  0  0  0
  191.0170  176.9330  143.6070 C   0  0  0  0  0  0  0  0  0  0  0  0
  191.7580  175.6210  143.7150 C   0  0  0  0  0  2  0  0  0  0  0  0
  190.6900  177.6550  144.9110 C   0  0  2  0  0  3  0  0  0  0  0  0
  191.7700  177.5230  145.7880 O   0  0  0  0  0  1  0  0  0  0  0  0
  187.5790  178.1870  147.7230 C   0  0  0  0  0  2  0  0  0  0  0  0
  189.6240  176.8620  147.0680 C   0  0  0  0  0  2  0  0  0  0  0  0
  187.1040  177.8420  146.3030 C   0  0  2  0  0  3  0  0  0  0  0  0
  189.4120  177.1130  145.5630 C   0  0  1  0  0  3  0  0  0  0  0  0
  188.2140  178.0340  145.2730 C   0  0  0  0  0  2  0  0  0  0  0  0
  189.0890  178.0130  147.9180 C   0  0  0  0  0  2  0  0  0  0  0  0
  185.6630  178.8320  145.8510 S   0  0  0  0  0  3  0  0  0  0  0  0
  184.5940  178.4160  146.8520 O   0  0  0  0  0  1  0  0  0  0  0  0
  185.1320  178.1340  144.3920 O   0  0  0  0  0  1  0  0  0  0  0  0
  1 31  1  0  0  0  0
  2  1  1  0  0  0  0
  3 10  2  0  0  0  0
  4 10  1  0  0  0  0
  4  6  1  0  0  0  0
  5  2  1  0  0  0  0
  6  5  1  0  0  0  0
  6  9  2  0  0  0  0
  7  5  2  0  0  0  0
  8  1  2  0  0  0  0
  9  8  1  0  0  0  0
 10 12  1  0  0  0  0
 11  7  2  0  0  0  0
 12  9  1  0  0  0  0
 13 11  1  0  0  0  0
 14 13  1  6  0  0  0
 14 17  1  0  0  0  0
 16 15  1  0  0  0  0
 16 14  1  0  0  0  0
 17 18  1  0  0  0  0
 18 25  1  0  0  0  0
 20 19  2  0  0  0  0
 21 20  1  0  0  0  0
 21 27  1  1  0  0  0
 22 21  1  0  0  0  0
 22 23  1  0  0  0  0
 24 20  1  0  0  0  0
 25 23  1  0  0  0  0
 25 24  2  0  0  0  0
 26 27  1  0  0  0  0
 27 28  1  0  0  0  0
 28 30  1  0  0  0  0
 30 29  1  0  0  0  0
 31 33  1  0  0  0  0
 32 33  1  0  0  0  0
 32 34  1  0  0  0  0
 33 34  1  0  0  0  0
 33 35  1  0  0  0  0
 35 36  1  1  0  0  0
 37 42  1  0  0  0  0
 38 42  1  0  0  0  0
 39 43  1  6  0  0  0
 39 37  1  0  0  0  0
 40 35  1  1  0  0  0
 40 38  1  0  0  0  0
 41 40  1  0  0  0  0
 41 39  1  0  0  0  0
 43 44  1  0  0  0  0
 45 43  1  0  0  0  0
M  END
>  <MODEL>
3

>  <REMARK>
 VINA RESULT:      -7.9      2.760      3.835
  Name = 
  14 active torsions:
  status: ('A' for Active; 'I' for Inactive)
    1  A    between atoms: C_3  and  N_32
    2  A    between atoms: C_5  and  N_31
    3  A    between atoms: C_6  and  C_24
    4  A    between atoms: C_6  and  N_31
    5  A    between atoms: S_12  and  C_14
    6  A    between atoms: C_15  and  C_25
    7  A    between atoms: C_15  and  C_28
    8  A    between atoms: N_18  and  C_29
    9  A    between atoms: N_18  and  C_39
   10  A    between atoms: C_23  and  C_29
   11  A    between atoms: C_23  and  C_38
   12  A    between atoms: C_25  and  N_32
   13  A    between atoms: C_29  and  O_36
   14  A    between atoms: C_39  and  C_43
                            x       y       z     vdW  Elec       q    Type
                         _______ _______ _______ _____ _____    ______ ____

>  <TORSDO>
F 14

$$$$
=
 OpenBabel11032419433D

 45 49  0  0  1  0  0  0  0  0999 V2000
  185.2600  179.0440  141.7610 C   0  0  0  0  0  0  0  0  0  0  0  0
  186.5850  178.2960  141.9420 C   0  0  0  0  0  2  0  0  0  0  0  0
  184.6170  178.4060  147.4200 O   0  0  0  0  0  0  0  0  0  0  0  0
  185.9990  177.9330  145.6880 O   0  0  0  0  0  0  0  0  0  0  0  0
  186.8870  177.8430  143.3520 C   0  0  0  0  0  0  0  0  0  0  0  0
  185.9410  178.1890  144.4070 C   0  0  0  0  0  0  0  0  0  0  0  0
  187.9810  177.1850  143.6160 C   0  0  0  0  0  0  0  0  0  0  0  0
  184.4440  179.3110  142.7970 C   0  0  0  0  0  3  0  0  0  0  0  0
  184.8030  178.8760  144.1470 C   0  0  0  0  0  0  0  0  0  0  0  0
  184.9010  178.4610  146.1950 C   0  0  0  0  0  0  0  0  0  0  0  0
  189.0740  176.5300  143.8880 C   0  0  0  0  0  3  0  0  0  0  0  0
  184.1050  179.0680  145.2810 N   0  0  0  0  0  2  0  0  0  0  0  0
  190.2830  177.2620  144.3510 C   0  0  0  0  0  2  0  0  0  0  0  0
  191.3210  177.3240  143.2400 C   0  0  2  0  0  3  0  0  0  0  0  0
  191.3000  179.3350  144.1670 C   0  0  0  0  0  1  0  0  0  0  0  0
  191.6960  178.6510  143.0170 O   0  0  0  0  0  0  0  0  0  0  0  0
  190.7580  176.7700  142.0200 N   0  0  0  0  0  2  0  0  0  0  0  0
  191.5250  177.3130  140.9120 C   0  0  0  0  0  2  0  0  0  0  0  0
  191.5670  175.9440  136.3850 O   0  0  0  0  0  0  0  0  0  0  0  0
  190.8650  176.4550  137.2960 C   0  0  0  0  0  0  0  0  0  0  0  0
  189.4370  176.8550  136.9900 C   0  0  2  0  0  3  0  0  0  0  0  0
  188.8230  178.1760  138.0930 S   0  0  0  0  0  0  0  0  0  0  0  0
  189.3160  177.3050  139.6090 C   0  0  0  0  0  2  0  0  0  0  0  0
  191.4460  176.6670  138.5900 N   0  0  0  0  0  0  0  0  0  0  0  0
  190.7960  177.0900  139.6330 C   0  0  0  0  0  0  0  0  0  0  0  0
  188.8100  174.8300  135.7950 C   0  0  0  0  0  1  0  0  0  0  0  0
  188.4780  175.7430  136.8850 N   0  0  0  0  0  0  0  0  0  0  0  0
  187.1600  176.3010  136.6110 C   0  0  0  0  0  2  0  0  0  0  0  0
  186.5540  177.9480  134.8400 C   0  0  0  0  0  1  0  0  0  0  0  0
  186.9760  176.5170  135.1180 C   0  0  0  0  0  2  0  0  0  0  0  0
  184.8400  179.5000  140.4660 N   0  0  0  0  0  2  0  0  0  0  0  0
  184.1050  178.5460  138.2530 C   0  0  0  0  0  2  0  0  0  0  0  0
  183.7260  179.0410  139.6280 C   0  0  0  0  0  0  0  0  0  0  0  0
  183.6410  177.5630  139.3300 C   0  0  0  0  0  2  0  0  0  0  0  0
  182.4090  179.8110  139.7040 C   0  0  2  0  0  3  0  0  0  0  0  0
  181.4320  178.9870  140.2680 O   0  0  0  0  0  1  0  0  0  0  0  0
  179.4950  181.7990  137.3760 C   0  0  0  0  0  2  0  0  0  0  0  0
  180.6440  179.6140  137.8980 C   0  0  0  0  0  2  0  0  0  0  0  0
  180.9290  182.3170  137.1810 C   0  0  2  0  0  3  0  0  0  0  0  0
  181.9540  180.3040  138.3260 C   0  0  1  0  0  3  0  0  0  0  0  0
  181.8580  181.8400  138.2950 C   0  0  0  0  0  2  0  0  0  0  0  0
  179.4230  180.4900  138.1700 C   0  0  0  0  0  2  0  0  0  0  0  0
  180.9530  184.1190  137.0870 S   0  0  0  0  0  3  0  0  0  0  0  0
  181.0590  184.4150  135.5970 O   0  0  0  0  0  1  0  0  0  0  0  0
  182.4910  184.5380  137.6830 O   0  0  0  0  0  1  0  0  0  0  0  0
  1  2  1  0  0  0  0
  1  8  2  0  0  0  0
  2  5  1  0  0  0  0
  4 10  1  0  0  0  0
  5  7  2  0  0  0  0
  5  6  1  0  0  0  0
  6  4  1  0  0  0  0
  7 11  2  0  0  0  0
  8  9  1  0  0  0  0
  9  6  2  0  0  0  0
  9 12  1  0  0  0  0
 10  3  2  0  0  0  0
 11 13  1  0  0  0  0
 12 10  1  0  0  0  0
 14 13  1  1  0  0  0
 16 14  1  0  0  0  0
 16 15  1  0  0  0  0
 17 14  1  0  0  0  0
 18 17  1  0  0  0  0
 19 20  2  0  0  0  0
 20 24  1  0  0  0  0
 21 27  1  1  0  0  0
 21 20  1  0  0  0  0
 21 22  1  0  0  0  0
 22 23  1  0  0  0  0
 23 25  1  0  0  0  0
 24 25  2  0  0  0  0
 25 18  1  0  0  0  0
 26 27  1  0  0  0  0
 28 27  1  0  0  0  0
 29 30  1  0  0  0  0
 30 28  1  0  0  0  0
 31  1  1  0  0  0  0
 32 34  1  0  0  0  0
 32 33  1  0  0  0  0
 33 35  1  0  0  0  0
 33 31  1  0  0  0  0
 34 33  1  0  0  0  0
 35 36  1  6  0  0  0
 37 42  1  0  0  0  0
 38 42  1  0  0  0  0
 38 40  1  0  0  0  0
 39 43  1  1  0  0  0
 39 37  1  0  0  0  0
 39 41  1  0  0  0  0
 40 35  1  1  0  0  0
 41 40  1  0  0  0  0
 43 45  1  0  0  0  0
 44 43  1  0  0  0  0
M  END
>  <MODEL>
4

>  <REMARK>
 VINA RESULT:      -7.9      3.483      8.862
  Name = 
  14 active torsions:
  status: ('A' for Active; 'I' for Inactive)
    1  A    between atoms: C_3  and  N_32
    2  A    between atoms: C_5  and  N_31
    3  A    between atoms: C_6  and  C_24
    4  A    between atoms: C_6  and  N_31
    5  A    between atoms: S_12  and  C_14
    6  A    between atoms: C_15  and  C_25
    7  A    between atoms: C_15  and  C_28
    8  A    between atoms: N_18  and  C_29
    9  A    between atoms: N_18  and  C_39
   10  A    between atoms: C_23  and  C_29
   11  A    between atoms: C_23  and  C_38
   12  A    between atoms: C_25  and  N_32
   13  A    between atoms: C_29  and  O_36
   14  A    between atoms: C_39  and  C_43
                            x       y       z     vdW  Elec       q    Type
                         _______ _______ _______ _____ _____    ______ ____

>  <TORSDO>
F 14

$$$$
=
 OpenBabel11032419433D

 45 49  0  0  1  0  0  0  0  0999 V2000
  185.6550  177.8730  143.7590 C   0  0  0  0  0  0  0  0  0  0  0  0
  186.9770  177.8970  142.9820 C   0  0  0  0  0  2  0  0  0  0  0  0
  183.2920  179.9360  138.9620 O   0  0  0  0  0  0  0  0  0  0  0  0
  185.2600  179.2910  139.8810 O   0  0  0  0  0  0  0  0  0  0  0  0
  186.8910  178.4340  141.5730 C   0  0  0  0  0  0  0  0  0  0  0  0
  185.5830  178.8290  141.0600 C   0  0  0  0  0  0  0  0  0  0  0  0
  187.9580  178.5120  140.8280 C   0  0  0  0  0  0  0  0  0  0  0  0
  184.4950  178.2680  143.2030 C   0  0  0  0  0  3  0  0  0  0  0  0
  184.4660  178.7490  141.8230 C   0  0  0  0  0  0  0  0  0  0  0  0
  183.9570  179.4890  139.9330 C   0  0  0  0  0  0  0  0  0  0  0  0
  189.0200  178.5900  140.0760 C   0  0  0  0  0  3  0  0  0  0  0  0
  183.3950  179.1690  141.1250 N   0  0  0  0  0  2  0  0  0  0  0  0
  189.3550  177.4790  139.1460 C   0  0  0  0  0  2  0  0  0  0  0  0
  189.7310  178.0290  137.7790 C   0  0  2  0  0  3  0  0  0  0  0  0
  187.8380  178.5970  136.7790 C   0  0  0  0  0  1  0  0  0  0  0  0
  188.9240  179.1290  137.4750 O   0  0  0  0  0  0  0  0  0  0  0  0
  189.5400  176.9990  136.7720 N   0  0  0  0  0  2  0  0  0  0  0  0
  190.0000  175.7470  137.3510 C   0  0  0  0  0  2  0  0  0  0  0  0
  194.5750  175.4660  138.5140 O   0  0  0  0  0  0  0  0  0  0  0  0
  193.7550  175.4310  137.5600 C   0  0  0  0  0  0  0  0  0  0  0  0
  194.2700  175.2280  136.1510 C   0  0  2  0  0  3  0  0  0  0  0  0
  193.1430  175.9050  134.8830 S   0  0  0  0  0  0  0  0  0  0  0  0
  191.6860  175.0470  135.5490 C   0  0  0  0  0  2  0  0  0  0  0  0
  192.3580  175.6090  137.8330 N   0  0  0  0  0  0  0  0  0  0  0  0
  191.4110  175.4920  136.9500 C   0  0  0  0  0  0  0  0  0  0  0  0
  194.3970  172.9160  136.9000 C   0  0  0  0  0  1  0  0  0  0  0  0
  194.6980  173.8580  135.8250 N   0  0  0  0  0  0  0  0  0  0  0  0
  196.1420  173.8630  135.6300 C   0  0  0  0  0  2  0  0  0  0  0  0
  198.2360  173.6400  136.9630 C   0  0  0  0  0  1  0  0  0  0  0  0
  196.8300  173.1070  136.7540 C   0  0  0  0  0  2  0  0  0  0  0  0
  185.6060  177.4160  145.1190 N   0  0  0  0  0  2  0  0  0  0  0  0
  186.3970  179.4340  146.4030 C   0  0  0  0  0  2  0  0  0  0  0  0
  186.3020  177.9300  146.3040 C   0  0  0  0  0  0  0  0  0  0  0  0
  185.4740  178.6520  147.3410 C   0  0  0  0  0  2  0  0  0  0  0  0
  187.5260  177.1650  146.8030 C   0  0  2  0  0  3  0  0  0  0  0  0
  187.5030  177.1300  148.2000 O   0  0  0  0  0  1  0  0  0  0  0  0
  191.6560  176.7300  146.0160 C   0  0  0  0  0  2  0  0  0  0  0  0
  189.8860  177.8310  147.4380 C   0  0  0  0  0  2  0  0  0  0  0  0
  190.8410  177.3050  144.8470 C   0  0  2  0  0  3  0  0  0  0  0  0
  188.8350  177.7950  146.3120 C   0  0  1  0  0  3  0  0  0  0  0  0
  189.3430  177.0880  145.0420 C   0  0  0  0  0  2  0  0  0  0  0  0
  190.8740  176.6710  147.3330 C   0  0  0  0  0  2  0  0  0  0  0  0
  191.3710  176.5830  143.2800 S   0  0  0  0  0  3  0  0  0  0  0  0
  191.6310  177.7850  142.3820 O   0  0  0  0  0  1  0  0  0  0  0  0
  189.9440  175.9120  142.6380 O   0  0  0  0  0  1  0  0  0  0  0  0
  1 31  1  0  0  0  0
  2  1  1  0  0  0  0
  3 10  2  0  0  0  0
  4 10  1  0  0  0  0
  4  6  1  0  0  0  0
  5  2  1  0  0  0  0
  6  5  1  0  0  0  0
  6  9  2  0  0  0  0
  7  5  2  0  0  0  0
  8  1  2  0  0  0  0
  9  8  1  0  0  0  0
 10 12  1  0  0  0  0
 11  7  2  0  0  0  0
 12  9  1  0  0  0  0
 13 11  1  0  0  0  0
 14 13  1  1  0  0  0
 15 16  1  0  0  0  0
 16 14  1  0  0  0  0
 17 18  1  0  0  0  0
 17 14  1  0  0  0  0
 20 24  1  0  0  0  0
 20 19  2  0  0  0  0
 21 27  1  6  0  0  0
 21 20  1  0  0  0  0
 22 23  1  0  0  0  0
 22 21  1  0  0  0  0
 23 25  1  0  0  0  0
 25 18  1  0  0  0  0
 25 24  2  0  0  0  0
 27 26  1  0  0  0  0
 28 27  1  0  0  0  0
 28 30  1  0  0  0  0
 30 29  1  0  0  0  0
 31 33  1  0  0  0  0
 32 34  1  0  0  0  0
 33 32  1  0  0  0  0
 33 35  1  0  0  0  0
 33 34  1  0  0  0  0
 35 36  1  1  0  0  0
 37 42  1  0  0  0  0
 39 43  1  6  0  0  0
 39 41  1  0  0  0  0
 39 37  1  0  0  0  0
 40 35  1  1  0  0  0
 40 38  1  0  0  0  0
 41 40  1  0  0  0  0
 42 38  1  0  0  0  0
 44 43  1  0  0  0  0
 45 43  1  0  0  0  0
M  END
>  <MODEL>
5

>  <REMARK>
 VINA RESULT:      -7.7      4.367      7.911
  Name = 
  14 active torsions:
  status: ('A' for Active; 'I' for Inactive)
    1  A    between atoms: C_3  and  N_32
    2  A    between atoms: C_5  and  N_31
    3  A    between atoms: C_6  and  C_24
    4  A    between atoms: C_6  and  N_31
    5  A    between atoms: S_12  and  C_14
    6  A    between atoms: C_15  and  C_25
    7  A    between atoms: C_15  and  C_28
    8  A    between atoms: N_18  and  C_29
    9  A    between atoms: N_18  and  C_39
   10  A    between atoms: C_23  and  C_29
   11  A    between atoms: C_23  and  C_38
   12  A    between atoms: C_25  and  N_32
   13  A    between atoms: C_29  and  O_36
   14  A    between atoms: C_39  and  C_43
                            x       y       z     vdW  Elec       q    Type
                         _______ _______ _______ _____ _____    ______ ____

>  <TORSDO>
F 14

$$$$
=
 OpenBabel11032419433D

 45 49  0  0  1  0  0  0  0  0999 V2000
  191.0550  177.2570  140.7350 C   0  0  0  0  0  0  0  0  0  0  0  0
  189.8940  176.7580  139.8670 C   0  0  0  0  0  2  0  0  0  0  0  0
  194.3850  176.0490  136.2290 O   0  0  0  0  0  0  0  0  0  0  0  0
  192.2440  175.9870  136.9700 O   0  0  0  0  0  0  0  0  0  0  0  0
  190.2800  176.2560  138.4940 C   0  0  0  0  0  0  0  0  0  0  0  0
  191.6820  176.3320  138.0990 C   0  0  0  0  0  0  0  0  0  0  0  0
  189.3730  175.7960  137.6790 C   0  0  0  0  0  0  0  0  0  0  0  0
  192.3230  177.2800  140.2850 C   0  0  0  0  0  3  0  0  0  0  0  0
  192.6340  176.8110  138.9350 C   0  0  0  0  0  0  0  0  0  0  0  0
  193.5270  176.2570  137.1260 C   0  0  0  0  0  0  0  0  0  0  0  0
  188.4720  175.3380  136.8560 C   0  0  0  0  0  3  0  0  0  0  0  0
  193.8390  176.7760  138.3390 N   0  0  0  0  0  2  0  0  0  0  0  0
  187.8540  176.2440  135.8520 C   0  0  0  0  0  2  0  0  0  0  0  0
  186.3510  176.3310  136.0730 C   0  0  2  0  0  3  0  0  0  0  0  0
  184.6120  175.0330  135.6330 C   0  0  0  0  0  1  0  0  0  0  0  0
  185.6820  175.6920  135.0260 O   0  0  0  0  0  0  0  0  0  0  0  0
  185.9480  177.7260  136.1230 N   0  0  0  0  0  2  0  0  0  0  0  0
  186.4050  178.2570  137.3960 C   0  0  0  0  0  2  0  0  0  0  0  0
  184.8130  179.1410  141.7600 O   0  0  0  0  0  0  0  0  0  0  0  0
  184.5130  178.6610  140.6370 C   0  0  0  0  0  0  0  0  0  0  0  0
  183.1270  178.0900  140.4240 C   0  0  2  0  0  3  0  0  0  0  0  0
  183.0750  176.8370  139.0960 S   0  0  0  0  0  0  0  0  0  0  0  0
  183.9130  177.9070  137.8890 C   0  0  0  0  0  2  0  0  0  0  0  0
  185.5010  178.6450  139.5970 N   0  0  0  0  0  0  0  0  0  0  0  0
  185.2810  178.2700  138.3720 C   0  0  0  0  0  0  0  0  0  0  0  0
  181.3650  179.3430  141.5430 C   0  0  0  0  0  1  0  0  0  0  0  0
  182.0500  179.0830  140.2790 N   0  0  0  0  0  0  0  0  0  0  0  0
  181.0670  178.5570  139.3410 C   0  0  0  0  0  2  0  0  0  0  0  0
  181.1590  180.4100  137.6760 C   0  0  0  0  0  1  0  0  0  0  0  0
  180.2920  179.6930  138.6950 C   0  0  0  0  0  2  0  0  0  0  0  0
  190.8270  177.7310  142.0710 N   0  0  0  0  0  2  0  0  0  0  0  0
  189.9610  175.6440  143.1870 C   0  0  0  0  0  2  0  0  0  0  0  0
  190.6690  176.9720  143.3180 C   0  0  0  0  0  0  0  0  0  0  0  0
  191.4650  175.6970  143.4640 C   0  0  0  0  0  2  0  0  0  0  0  0
  190.3640  177.7510  144.5950 C   0  0  2  0  0  3  0  0  0  0  0  0
  191.5400  177.8850  145.3380 O   0  0  0  0  0  1  0  0  0  0  0  0
  187.7850  177.8920  147.9410 C   0  0  0  0  0  2  0  0  0  0  0  0
  189.7870  176.7930  146.8680 C   0  0  0  0  0  2  0  0  0  0  0  0
  187.0910  177.5450  146.6140 C   0  0  2  0  0  3  0  0  0  0  0  0
  189.2820  177.0670  145.4390 C   0  0  1  0  0  3  0  0  0  0  0  0
  187.9720  177.8750  145.4120 C   0  0  0  0  0  2  0  0  0  0  0  0
  189.3150  177.8600  147.8540 C   0  0  0  0  0  2  0  0  0  0  0  0
  185.5090  178.4030  146.4750 S   0  0  0  0  0  3  0  0  0  0  0  0
  185.5310  179.0060  145.0770 O   0  0  0  0  0  1  0  0  0  0  0  0
  185.6890  179.7550  147.4920 O   0  0  0  0  0  1  0  0  0  0  0  0
  1 31  1  0  0  0  0
  2  1  1  0  0  0  0
  3 10  2  0  0  0  0
  4 10  1  0  0  0  0
  4  6  1  0  0  0  0
  5  2  1  0  0  0  0
  6  5  1  0  0  0  0
  6  9  2  0  0  0  0
  7  5  2  0  0  0  0
  8  1  2  0  0  0  0
  9  8  1  0  0  0  0
 10 12  1  0  0  0  0
 11  7  2  0  0  0  0
 12  9  1  0  0  0  0
 13 11  1  0  0  0  0
 14 13  1  6  0  0  0
 14 17  1  0  0  0  0
 16 15  1  0  0  0  0
 16 14  1  0  0  0  0
 17 18  1  0  0  0  0
 18 25  1  0  0  0  0
 20 19  2  0  0  0  0
 21 27  1  6  0  0  0
 21 20  1  0  0  0  0
 22 21  1  0  0  0  0
 23 25  1  0  0  0  0
 23 22  1  0  0  0  0
 24 20  1  0  0  0  0
 25 24  2  0  0  0  0
 27 26  1  0  0  0  0
 28 27  1  0  0  0  0
 29 30  1  0  0  0  0
 30 28  1  0  0  0  0
 31 33  1  0  0  0  0
 32 33  1  0  0  0  0
 32 34  1  0  0  0  0
 33 34  1  0  0  0  0
 33 35  1  0  0  0  0
 35 36  1  1  0  0  0
 38 42  1  0  0  0  0
 39 43  1  6  0  0  0
 39 37  1  0  0  0  0
 40 35  1  6  0  0  0
 40 38  1  0  0  0  0
 41 40  1  0  0  0  0
 41 39  1  0  0  0  0
 42 37  1  0  0  0  0
 43 45  1  0  0  0  0
 44 43  1  0  0  0  0
M  END
>  <MODEL>
6

>  <REMARK>
 VINA RESULT:      -7.7      2.593      3.952
  Name = 
  14 active torsions:
  status: ('A' for Active; 'I' for Inactive)
    1  A    between atoms: C_3  and  N_32
    2  A    between atoms: C_5  and  N_31
    3  A    between atoms: C_6  and  C_24
    4  A    between atoms: C_6  and  N_31
    5  A    between atoms: S_12  and  C_14
    6  A    between atoms: C_15  and  C_25
    7  A    between atoms: C_15  and  C_28
    8  A    between atoms: N_18  and  C_29
    9  A    between atoms: N_18  and  C_39
   10  A    between atoms: C_23  and  C_29
   11  A    between atoms: C_23  and  C_38
   12  A    between atoms: C_25  and  N_32
   13  A    between atoms: C_29  and  O_36
   14  A    between atoms: C_39  and  C_43
                            x       y       z     vdW  Elec       q    Type
                         _______ _______ _______ _____ _____    ______ ____

>  <TORSDO>
F 14

$$$$
=
 OpenBabel11032419433D

 45 49  0  0  1  0  0  0  0  0999 V2000
  188.6420  178.2680  141.7580 C   0  0  0  0  0  0  0  0  0  0  0  0
  187.3030  178.2820  142.5040 C   0  0  0  0  0  2  0  0  0  0  0  0
  185.4900  178.2470  136.9710 O   0  0  0  0  0  0  0  0  0  0  0  0
  185.3510  178.2430  139.2330 O   0  0  0  0  0  0  0  0  0  0  0  0
  186.0720  178.2440  141.6280 C   0  0  0  0  0  0  0  0  0  0  0  0
  186.2520  178.2470  140.1800 C   0  0  0  0  0  0  0  0  0  0  0  0
  184.8820  178.2390  142.1600 C   0  0  0  0  0  0  0  0  0  0  0  0
  188.7090  178.2610  140.4140 C   0  0  0  0  0  3  0  0  0  0  0  0
  187.4840  178.2570  139.6160 C   0  0  0  0  0  0  0  0  0  0  0  0
  186.0360  178.2490  138.1050 C   0  0  0  0  0  0  0  0  0  0  0  0
  183.6880  178.2360  142.6830 C   0  0  0  0  0  3  0  0  0  0  0  0
  187.3810  178.2570  138.2740 N   0  0  0  0  0  2  0  0  0  0  0  0
  182.9570  179.5180  142.8720 C   0  0  0  0  0  2  0  0  0  0  0  0
  181.4570  179.2680  142.9220 C   0  0  2  0  0  3  0  0  0  0  0  0
  179.7160  178.6280  144.1310 C   0  0  0  0  0  1  0  0  0  0  0  0
  181.1040  178.7710  144.1790 O   0  0  0  0  0  0  0  0  0  0  0  0
  181.0930  178.3000  141.9010 N   0  0  0  0  0  2  0  0  0  0  0  0
  181.0440  179.0130  140.6350 C   0  0  0  0  0  2  0  0  0  0  0  0
  183.4320  175.5450  138.4840 O   0  0  0  0  0  0  0  0  0  0  0  0
  182.4520  176.3280  138.3880 C   0  0  0  0  0  0  0  0  0  0  0  0
  181.5840  176.2750  137.1490 C   0  0  2  0  0  3  0  0  0  0  0  0
  180.7240  177.8530  136.8210 S   0  0  0  0  0  0  0  0  0  0  0  0
  180.0570  177.9770  138.5070 C   0  0  0  0  0  2  0  0  0  0  0  0
  182.2010  177.2650  139.4440 N   0  0  0  0  0  0  0  0  0  0  0  0
  181.1670  178.0510  139.5070 C   0  0  0  0  0  0  0  0  0  0  0  0
  180.4360  174.5120  138.3730 C   0  0  0  0  0  1  0  0  0  0  0  0
  180.6660  175.1270  137.0690 N   0  0  0  0  0  0  0  0  0  0  0  0
  181.2660  174.1210  136.2030 C   0  0  0  0  0  2  0  0  0  0  0  0
  183.0670  172.4600  136.6640 C   0  0  0  0  0  1  0  0  0  0  0  0
  181.6540  172.8920  137.0090 C   0  0  0  0  0  2  0  0  0  0  0  0
  189.8870  178.2690  142.4740 N   0  0  0  0  0  2  0  0  0  0  0  0
  189.9900  175.8770  143.2600 C   0  0  0  0  0  2  0  0  0  0  0  0
  190.3930  177.3180  143.4700 C   0  0  0  0  0  0  0  0  0  0  0  0
  191.4340  176.3210  143.0160 C   0  0  0  0  0  2  0  0  0  0  0  0
  190.4560  177.7720  144.9260 C   0  0  2  0  0  3  0  0  0  0  0  0
  191.7120  177.4550  145.4490 O   0  0  0  0  0  1  0  0  0  0  0  0
  187.9390  177.9800  148.3160 C   0  0  0  0  0  2  0  0  0  0  0  0
  189.8670  176.8020  147.1910 C   0  0  0  0  0  2  0  0  0  0  0  0
  187.2080  177.6920  146.9950 C   0  0  2  0  0  3  0  0  0  0  0  0
  189.3530  177.1280  145.7750 C   0  0  1  0  0  3  0  0  0  0  0  0
  188.0860  178.0000  145.7850 C   0  0  0  0  0  2  0  0  0  0  0  0
  189.4640  177.8730  148.2030 C   0  0  0  0  0  2  0  0  0  0  0  0
  185.6690  178.6300  146.8970 S   0  0  0  0  0  3  0  0  0  0  0  0
  185.5980  179.0840  145.4450 O   0  0  0  0  0  1  0  0  0  0  0  0
  186.0130  180.0660  147.7430 O   0  0  0  0  0  1  0  0  0  0  0  0
  1 31  1  0  0  0  0
  1  2  1  0  0  0  0
  3 10  2  0  0  0  0
  4  6  1  0  0  0  0
  5  7  2  0  0  0  0
  5  2  1  0  0  0  0
  6  5  1  0  0  0  0
  7 11  2  0  0  0  0
  8  1  2  0  0  0  0
  9  6  2  0  0  0  0
  9  8  1  0  0  0  0
 10 12  1  0  0  0  0
 10  4  1  0  0  0  0
 11 13  1  0  0  0  0
 12  9  1  0  0  0  0
 14 13  1  1  0  0  0
 14 16  1  0  0  0  0
 15 16  1  0  0  0  0
 17 14  1  0  0  0  0
 18 17  1  0  0  0  0
 20 19  2  0  0  0  0
 20 24  1  0  0  0  0
 21 27  1  1  0  0  0
 21 20  1  0  0  0  0
 22 21  1  0  0  0  0
 22 23  1  0  0  0  0
 23 25  1  0  0  0  0
 24 25  2  0  0  0  0
 25 18  1  0  0  0  0
 27 26  1  0  0  0  0
 28 30  1  0  0  0  0
 28 27  1  0  0  0  0
 29 30  1  0  0  0  0
 31 33  1  0  0  0  0
 32 33  1  0  0  0  0
 33 35  1  0  0  0  0
 34 32  1  0  0  0  0
 34 33  1  0  0  0  0
 35 36  1  1  0  0  0
 38 42  1  0  0  0  0
 39 43  1  6  0  0  0
 39 37  1  0  0  0  0
 40 35  1  6  0  0  0
 40 41  1  0  0  0  0
 40 38  1  0  0  0  0
 41 39  1  0  0  0  0
 42 37  1  0  0  0  0
 43 45  1  0  0  0  0
 44 43  1  0  0  0  0
M  END
>  <MODEL>
7

>  <REMARK>
 VINA RESULT:      -7.6      2.266      4.337
  Name = 
  14 active torsions:
  status: ('A' for Active; 'I' for Inactive)
    1  A    between atoms: C_3  and  N_32
    2  A    between atoms: C_5  and  N_31
    3  A    between atoms: C_6  and  C_24
    4  A    between atoms: C_6  and  N_31
    5  A    between atoms: S_12  and  C_14
    6  A    between atoms: C_15  and  C_25
    7  A    between atoms: C_15  and  C_28
    8  A    between atoms: N_18  and  C_29
    9  A    between atoms: N_18  and  C_39
   10  A    between atoms: C_23  and  C_29
   11  A    between atoms: C_23  and  C_38
   12  A    between atoms: C_25  and  N_32
   13  A    between atoms: C_29  and  O_36
   14  A    between atoms: C_39  and  C_43
                            x       y       z     vdW  Elec       q    Type
                         _______ _______ _______ _____ _____    ______ ____

>  <TORSDO>
F 14

$$$$
=
 OpenBabel11032419433D

 45 49  0  0  1  0  0  0  0  0999 V2000
  185.2960  178.6640  143.9010 C   0  0  0  0  0  0  0  0  0  0  0  0
  185.5030  178.5680  142.3850 C   0  0  0  0  0  2  0  0  0  0  0  0
  179.7120  179.0970  142.6830 O   0  0  0  0  0  0  0  0  0  0  0  0
  181.7630  178.8910  141.7410 O   0  0  0  0  0  0  0  0  0  0  0  0
  184.2470  178.6760  141.5510 C   0  0  0  0  0  0  0  0  0  0  0  0
  182.9680  178.8080  142.2400 C   0  0  0  0  0  0  0  0  0  0  0  0
  184.3100  178.6210  140.2500 C   0  0  0  0  0  0  0  0  0  0  0  0
  184.0730  178.7950  144.4460 C   0  0  0  0  0  3  0  0  0  0  0  0
  182.8890  178.8610  143.5910 C   0  0  0  0  0  0  0  0  0  0  0  0
  180.9630  178.9950  142.7850 C   0  0  0  0  0  0  0  0  0  0  0  0
  184.3640  178.5640  138.9490 C   0  0  0  0  0  3  0  0  0  0  0  0
  181.6060  178.9840  143.9780 N   0  0  0  0  0  2  0  0  0  0  0  0
  184.1690  177.2640  138.2540 C   0  0  0  0  0  2  0  0  0  0  0  0
  183.7280  177.4950  136.8160 C   0  0  2  0  0  3  0  0  0  0  0  0
  182.2400  175.8580  136.9110 C   0  0  0  0  0  1  0  0  0  0  0  0
  182.3620  177.2310  136.6920 O   0  0  0  0  0  0  0  0  0  0  0  0
  184.4720  176.6120  135.9330 N   0  0  0  0  0  2  0  0  0  0  0  0
  185.4230  177.4360  135.2070 C   0  0  0  0  0  2  0  0  0  0  0  0
  188.8420  179.7500  137.5130 O   0  0  0  0  0  0  0  0  0  0  0  0
  188.5100  178.6460  137.0100 C   0  0  0  0  0  0  0  0  0  0  0  0
  189.4770  177.4830  137.0780 C   0  0  2  0  0  3  0  0  0  0  0  0
  189.2070  176.2600  135.7490 S   0  0  0  0  0  0  0  0  0  0  0  0
  187.4280  176.1040  136.0900 C   0  0  0  0  0  2  0  0  0  0  0  0
  187.2350  178.5270  136.3630 N   0  0  0  0  0  0  0  0  0  0  0  0
  186.7410  177.4180  135.8980 C   0  0  0  0  0  0  0  0  0  0  0  0
  189.7400  177.8110  139.4760 C   0  0  0  0  0  1  0  0  0  0  0  0
  189.5980  176.8380  138.3960 N   0  0  0  0  0  0  0  0  0  0  0  0
  190.7940  176.0050  138.3890 C   0  0  0  0  0  2  0  0  0  0  0  0
  193.2490  176.4240  138.2830 C   0  0  0  0  0  1  0  0  0  0  0  0
  191.9610  176.7490  139.0170 C   0  0  0  0  0  2  0  0  0  0  0  0
  186.4110  178.6080  144.8030 N   0  0  0  0  0  2  0  0  0  0  0  0
  186.0850  179.3760  147.1810 C   0  0  0  0  0  2  0  0  0  0  0  0
  186.4440  178.2590  146.2290 C   0  0  0  0  0  0  0  0  0  0  0  0
  185.1250  178.2030  146.9640 C   0  0  0  0  0  2  0  0  0  0  0  0
  187.5480  177.3210  146.7110 C   0  0  2  0  0  3  0  0  0  0  0  0
  187.4700  177.2030  148.1010 O   0  0  0  0  0  1  0  0  0  0  0  0
  191.6310  176.4410  146.0620 C   0  0  0  0  0  2  0  0  0  0  0  0
  189.9390  177.6800  147.4660 C   0  0  0  0  0  2  0  0  0  0  0  0
  190.9380  177.1570  144.8910 C   0  0  2  0  0  3  0  0  0  0  0  0
  188.9400  177.8140  146.3000 C   0  0  1  0  0  3  0  0  0  0  0  0
  189.4180  177.1080  145.0190 C   0  0  0  0  0  2  0  0  0  0  0  0
  190.7900  176.4180  147.3440 C   0  0  0  0  0  2  0  0  0  0  0  0
  191.4490  176.4450  143.3130 S   0  0  0  0  0  3  0  0  0  0  0  0
  191.6820  177.6530  142.4150 O   0  0  0  0  0  1  0  0  0  0  0  0
  190.0180  175.7620  142.6930 O   0  0  0  0  0  1  0  0  0  0  0  0
  1  8  2  0  0  0  0
  1 31  1  0  0  0  0
  2  1  1  0  0  0  0
  3 10  2  0  0  0  0
  4  6  1  0  0  0  0
  4 10  1  0  0  0  0
  5  6  1  0  0  0  0
  5  2  1  0  0  0  0
  6  9  2  0  0  0  0
  7  5  2  0  0  0  0
  9 12  1  0  0  0  0
  9  8  1  0  0  0  0
 10 12  1  0  0  0  0
 11  7  2  0  0  0  0
 13 11  1  0  0  0  0
 14 13  1  1  0  0  0
 16 14  1  0  0  0  0
 16 15  1  0  0  0  0
 17 14  1  0  0  0  0
 18 25  1  0  0  0  0
 18 17  1  0  0  0  0
 20 21  1  0  0  0  0
 20 19  2  0  0  0  0
 21 27  1  1  0  0  0
 22 23  1  0  0  0  0
 22 21  1  0  0  0  0
 24 20  1  0  0  0  0
 25 23  1  0  0  0  0
 25 24  2  0  0  0  0
 27 26  1  0  0  0  0
 28 27  1  0  0  0  0
 28 30  1  0  0  0  0
 29 30  1  0  0  0  0
 31 33  1  0  0  0  0
 33 35  1  0  0  0  0
 33 34  1  0  0  0  0
 33 32  1  0  0  0  0
 34 32  1  0  0  0  0
 35 36  1  1  0  0  0
 37 42  1  0  0  0  0
 39 43  1  6  0  0  0
 39 41  1  0  0  0  0
 39 37  1  0  0  0  0
 40 35  1  1  0  0  0
 40 38  1  0  0  0  0
 41 40  1  0  0  0  0
 42 38  1  0  0  0  0
 44 43  1  0  0  0  0
 45 43  1  0  0  0  0
M  END
>  <MODEL>
8

>  <REMARK>
 VINA RESULT:      -7.6      3.064      6.263
  Name = 
  14 active torsions:
  status: ('A' for Active; 'I' for Inactive)
    1  A    between atoms: C_3  and  N_32
    2  A    between atoms: C_5  and  N_31
    3  A    between atoms: C_6  and  C_24
    4  A    between atoms: C_6  and  N_31
    5  A    between atoms: S_12  and  C_14
    6  A    between atoms: C_15  and  C_25
    7  A    between atoms: C_15  and  C_28
    8  A    between atoms: N_18  and  C_29
    9  A    between atoms: N_18  and  C_39
   10  A    between atoms: C_23  and  C_29
   11  A    between atoms: C_23  and  C_38
   12  A    between atoms: C_25  and  N_32
   13  A    between atoms: C_29  and  O_36
   14  A    between atoms: C_39  and  C_43
                            x       y       z     vdW  Elec       q    Type
                         _______ _______ _______ _____ _____    ______ ____

>  <TORSDO>
F 14

$$$$
=
 OpenBabel11032419433D

 45 49  0  0  1  0  0  0  0  0999 V2000
  189.1670  178.1830  141.5280 C   0  0  0  0  0  0  0  0  0  0  0  0
  189.3910  177.6000  140.1280 C   0  0  0  0  0  2  0  0  0  0  0  0
  183.8270  179.2730  139.7530 O   0  0  0  0  0  0  0  0  0  0  0  0
  185.8170  178.4120  139.0930 O   0  0  0  0  0  0  0  0  0  0  0  0
  188.2080  177.6860  139.1920 C   0  0  0  0  0  0  0  0  0  0  0  0
  186.9650  178.2570  139.6990 C   0  0  0  0  0  0  0  0  0  0  0  0
  188.2940  177.2330  137.9730 C   0  0  0  0  0  0  0  0  0  0  0  0
  187.9820  178.6990  141.9030 C   0  0  0  0  0  3  0  0  0  0  0  0
  186.8610  178.7280  140.9650 C   0  0  0  0  0  0  0  0  0  0  0  0
  185.0270  178.9730  139.9890 C   0  0  0  0  0  0  0  0  0  0  0  0
  188.3710  176.7790  136.7540 C   0  0  0  0  0  3  0  0  0  0  0  0
  185.6210  179.2000  141.1860 N   0  0  0  0  0  2  0  0  0  0  0  0
  187.9320  175.3910  136.4480 C   0  0  0  0  0  2  0  0  0  0  0  0
  188.1610  175.0770  134.9770 C   0  0  2  0  0  3  0  0  0  0  0  0
  186.3220  173.9650  135.5120 C   0  0  0  0  0  1  0  0  0  0  0  0
  187.3800  173.9810  134.6020 O   0  0  0  0  0  0  0  0  0  0  0  0
  189.5640  174.7650  134.7610 N   0  0  0  0  0  2  0  0  0  0  0  0
  189.9150  173.7090  135.6960 C   0  0  0  0  0  2  0  0  0  0  0  0
  193.3810  176.3820  137.4870 O   0  0  0  0  0  0  0  0  0  0  0  0
  193.1100  175.2710  136.9620 C   0  0  0  0  0  0  0  0  0  0  0  0
  194.2220  174.2700  136.7360 C   0  0  2  0  0  3  0  0  0  0  0  0
  193.8550  173.1000  135.3810 S   0  0  0  0  0  0  0  0  0  0  0  0
  192.2250  172.6520  136.0480 C   0  0  0  0  0  2  0  0  0  0  0  0
  191.7580  174.9960  136.5690 N   0  0  0  0  0  0  0  0  0  0  0  0
  191.3370  173.8540  136.1120 C   0  0  0  0  0  0  0  0  0  0  0  0
  195.4840  174.4500  138.8090 C   0  0  0  0  0  1  0  0  0  0  0  0
  194.7010  173.5740  137.9420 N   0  0  0  0  0  0  0  0  0  0  0  0
  195.5630  172.4760  137.5240 C   0  0  0  0  0  2  0  0  0  0  0  0
  197.9220  171.7280  137.2230 C   0  0  0  0  0  1  0  0  0  0  0  0
  197.0230  172.8880  137.6100 C   0  0  0  0  0  2  0  0  0  0  0  0
  190.2210  178.1910  142.5020 N   0  0  0  0  0  2  0  0  0  0  0  0
  190.1350  175.7850  143.2460 C   0  0  0  0  0  2  0  0  0  0  0  0
  190.5380  177.2100  143.5470 C   0  0  0  0  0  0  0  0  0  0  0  0
  191.6110  176.1910  143.2440 C   0  0  0  0  0  2  0  0  0  0  0  0
  190.3790  177.6380  145.0030 C   0  0  2  0  0  3  0  0  0  0  0  0
  191.4650  177.1590  145.7400 O   0  0  0  0  0  1  0  0  0  0  0  0
  187.1980  178.2520  147.7180 C   0  0  0  0  0  2  0  0  0  0  0  0
  189.2200  176.8660  147.1190 C   0  0  0  0  0  2  0  0  0  0  0  0
  186.7580  177.9300  146.2810 C   0  0  2  0  0  3  0  0  0  0  0  0
  189.0650  177.1330  145.6100 C   0  0  1  0  0  3  0  0  0  0  0  0
  187.9060  178.0930  145.2890 C   0  0  0  0  0  2  0  0  0  0  0  0
  188.6950  178.0280  147.9600 C   0  0  0  0  0  2  0  0  0  0  0  0
  185.3640  178.9680  145.7910 S   0  0  0  0  0  3  0  0  0  0  0  0
  184.2530  178.5860  146.7590 O   0  0  0  0  0  1  0  0  0  0  0  0
  184.8530  178.2920  144.3150 O   0  0  0  0  0  1  0  0  0  0  0  0
  1  8  2  0  0  0  0
  1 31  1  0  0  0  0
  2  1  1  0  0  0  0
  3 10  2  0  0  0  0
  4  6  1  0  0  0  0
  4 10  1  0  0  0  0
  5  6  1  0  0  0  0
  5  2  1  0  0  0  0
  6  9  2  0  0  0  0
  7  5  2  0  0  0  0
  9 12  1  0  0  0  0
  9  8  1  0  0  0  0
 10 12  1  0  0  0  0
 11  7  2  0  0  0  0
 13 11  1  0  0  0  0
 14 13  1  1  0  0  0
 16 14  1  0  0  0  0
 16 15  1  0  0  0  0
 17 14  1  0  0  0  0
 17 18  1  0  0  0  0
 18 25  1  0  0  0  0
 20 19  2  0  0  0  0
 21 20  1  0  0  0  0
 21 27  1  1  0  0  0
 22 23  1  0  0  0  0
 22 21  1  0  0  0  0
 23 25  1  0  0  0  0
 24 20  1  0  0  0  0
 25 24  2  0  0  0  0
 27 26  1  0  0  0  0
 28 30  1  0  0  0  0
 28 27  1  0  0  0  0
 29 30  1  0  0  0  0
 31 33  1  0  0  0  0
 32 33  1  0  0  0  0
 33 35  1  0  0  0  0
 34 32  1  0  0  0  0
 34 33  1  0  0  0  0
 35 36  1  1  0  0  0
 37 42  1  0  0  0  0
 38 42  1  0  0  0  0
 39 43  1  6  0  0  0
 39 37  1  0  0  0  0
 40 35  1  1  0  0  0
 40 38  1  0  0  0  0
 41 40  1  0  0  0  0
 41 39  1  0  0  0  0
 43 44  1  0  0  0  0
 45 43  1  0  0  0  0
M  END
>  <MODEL>
9

>  <REMARK>
 VINA RESULT:      -7.5      3.886      7.042
  Name = 
  14 active torsions:
  status: ('A' for Active; 'I' for Inactive)
    1  A    between atoms: C_3  and  N_32
    2  A    between atoms: C_5  and  N_31
    3  A    between atoms: C_6  and  C_24
    4  A    between atoms: C_6  and  N_31
    5  A    between atoms: S_12  and  C_14
    6  A    between atoms: C_15  and  C_25
    7  A    between atoms: C_15  and  C_28
    8  A    between atoms: N_18  and  C_29
    9  A    between atoms: N_18  and  C_39
   10  A    between atoms: C_23  and  C_29
   11  A    between atoms: C_23  and  C_38
   12  A    between atoms: C_25  and  N_32
   13  A    between atoms: C_29  and  O_36
   14  A    between atoms: C_39  and  C_43
                            x       y       z     vdW  Elec       q    Type
                         _______ _______ _______ _____ _____    ______ ____

>  <TORSDO>
F 14

$$$$
