=
 OpenBabel11042410503D

 31 34  0  0  1  0  0  0  0  0999 V2000
  188.4460  178.4600  141.7770 C   0  0  1  0  0  3  0  0  0  0  0  0
  189.0070  177.9360  140.5350 N   0  0  0  0  0  2  0  0  0  0  0  0
  189.9970  177.5400  137.8800 N   0  0  0  0  0  1  0  0  0  0  0  0
  188.5910  178.7800  139.4960 N   0  0  0  0  0  2  0  0  0  0  0  0
  189.1440  178.6380  138.1880 C   0  0  0  0  0  0  0  0  0  0  0  0
  188.9030  179.5060  137.3100 O   0  0  0  0  0  0  0  0  0  0  0  0
  186.9680  178.1240  141.8530 C   0  0  0  0  0  2  0  0  0  0  0  0
  186.1730  179.3430  141.8320 N   0  0  0  0  0  2  0  0  0  0  0  0
  184.7910  179.0110  142.1730 C   0  0  1  0  0  0  0  0  0  0  0  0
  183.8280  179.0720  141.0840 C   0  0  0  0  0  2  0  0  0  0  0  0
  184.3630  177.7660  141.5210 N   0  0  0  0  0  2  0  0  0  0  0  0
  182.7730  179.2140  143.6510 C   0  0  0  0  0  1  0  0  0  0  0  0
  184.2910  179.1140  143.6150 C   0  0  1  0  0  3  0  0  0  0  0  0
  184.7350  177.9890  144.3670 O   0  0  0  0  0  0  0  0  0  0  0  0
  187.6050  177.4280  146.5620 N   0  0  0  0  0  0  0  0  0  0  0  0
  185.3160  178.9200  146.5580 C   0  0  0  0  0  3  0  0  0  0  0  0
  187.3130  178.2330  147.6160 C   0  0  0  0  0  0  0  0  0  0  0  0
  186.7680  177.3400  145.4950 C   0  0  0  0  0  3  0  0  0  0  0  0
  188.2080  178.3170  148.7150 N   0  0  0  0  0  1  0  0  0  0  0  0
  186.1770  178.9800  147.6060 N   0  0  0  0  0  0  0  0  0  0  0  0
  185.5910  178.0860  145.4690 C   0  0  0  0  0  0  0  0  0  0  0  0
  189.1700  177.9050  143.0080 C   0  0  0  0  0  2  0  0  0  0  0  0
  191.2100  178.2290  144.5260 C   0  0  2  0  0  3  0  0  0  0  0  0
  191.7110  176.7940  142.7140 C   0  0  0  0  0  2  0  0  0  0  0  0
  190.3820  178.7670  143.4270 C   0  0  1  0  0  3  0  0  0  0  0  0
  191.7280  178.2000  143.1350 N   0  0  1  0  0  0  0  0  0  0  0  0
  190.9300  176.7870  144.9450 C   0  0  1  0  0  3  0  0  0  0  0  0
  191.6590  175.9330  143.9490 C   0  0  0  0  0  2  0  0  0  0  0  0
  192.3170  175.4260  146.5890 N   0  0  0  0  0  1  0  0  0  0  0  0
  191.4100  176.4970  146.3320 C   0  0  0  0  0  0  0  0  0  0  0  0
  190.9500  177.1630  147.2940 O   0  0  0  0  0  0  0  0  0  0  0  0
  1  7  1  1  0  0  0
  1 22  1  0  0  0  0
  2  1  1  0  0  0  0
  3  5  1  0  0  0  0
  4  2  1  0  0  0  0
  5  4  1  0  0  0  0
  6  5  2  0  0  0  0
  8  7  1  0  0  0  0
  9  8  1  6  0  0  0
  9 13  1  0  0  0  0
 10 11  1  0  0  0  0
 10  9  1  0  0  0  0
 11  9  1  0  0  0  0
 13 12  1  6  0  0  0
 13 14  1  0  0  0  0
 14 21  1  0  0  0  0
 15 17  2  0  0  0  0
 16 20  2  0  0  0  0
 17 19  1  0  0  0  0
 18 15  1  0  0  0  0
 20 17  1  0  0  0  0
 21 18  2  0  0  0  0
 21 16  1  0  0  0  0
 22 25  1  0  0  0  0
 23 27  1  0  0  0  0
 24 26  1  0  0  0  0
 24 28  1  0  0  0  0
 25 23  1  0  0  0  0
 26 25  1  0  0  0  0
 26 23  1  0  0  0  0
 27 30  1  0  0  0  0
 28 27  1  0  0  0  0
 30 29  1  0  0  0  0
 30 31  2  0  0  0  0
M  END
>  <MODEL>
1

>  <REMARK>
 VINA RESULT:      -7.5      0.000      0.000
  Name = 
  11 active torsions:
  status: ('A' for Active; 'I' for Inactive)
    1  A    between atoms: N_3  and  N_9
    2  A    between atoms: N_3  and  C_14
    3  A    between atoms: N_5  and  C_12
    4  A    between atoms: N_5  and  C_19
    5  A    between atoms: C_7  and  C_25
    6  A    between atoms: C_12  and  C_29
    7  A    between atoms: C_14  and  C_19
    8  A    between atoms: C_14  and  C_30
    9  A    between atoms: O_16  and  C_29
   10  A    between atoms: O_16  and  C_31
   11  A    between atoms: C_21  and  C_30
                            x       y       z     vdW  Elec       q    Type
                         _______ _______ _______ _____ _____    ______ ____

>  <TORSDO>
F 11

$$$$
=
 OpenBabel11042410503D

 31 34  0  0  1  0  0  0  0  0999 V2000
  188.3480  177.5120  141.3570 C   0  0  1  0  0  3  0  0  0  0  0  0
  187.5930  178.7610  141.3570 N   0  0  0  0  0  2  0  0  0  0  0  0
  185.1150  179.4320  140.0920 N   0  0  0  0  0  1  0  0  0  0  0  0
  186.3780  178.5190  142.0150 N   0  0  0  0  0  2  0  0  0  0  0  0
  185.1460  178.9260  141.4230 C   0  0  0  0  0  0  0  0  0  0  0  0
  184.0820  178.8700  142.0920 O   0  0  0  0  0  0  0  0  0  0  0  0
  189.4070  177.5550  140.2710 C   0  0  0  0  0  2  0  0  0  0  0  0
  189.0460  178.5330  139.2540 N   0  0  0  0  0  2  0  0  0  0  0  0
  188.7510  177.8300  138.0070 C   0  0  1  0  0  0  0  0  0  0  0  0
  187.7060  178.4080  137.1750 C   0  0  0  0  0  2  0  0  0  0  0  0
  189.1270  178.6350  136.8370 N   0  0  0  0  0  2  0  0  0  0  0  0
  187.9000  175.5620  137.3510 C   0  0  0  0  0  1  0  0  0  0  0  0
  189.1070  176.3520  137.8350 C   0  0  1  0  0  3  0  0  0  0  0  0
  190.1910  176.2140  136.9220 O   0  0  0  0  0  0  0  0  0  0  0  0
  193.2590  174.2710  137.3520 N   0  0  0  0  0  0  0  0  0  0  0  0
  192.3120  176.7410  138.0330 C   0  0  0  0  0  3  0  0  0  0  0  0
  194.0370  175.1280  138.0610 C   0  0  0  0  0  0  0  0  0  0  0  0
  192.0000  174.6150  136.9760 C   0  0  0  0  0  3  0  0  0  0  0  0
  195.3540  174.7500  138.4340 N   0  0  0  0  0  1  0  0  0  0  0  0
  193.5650  176.3600  138.3900 N   0  0  0  0  0  0  0  0  0  0  0  0
  191.4900  175.8680  137.3130 C   0  0  0  0  0  0  0  0  0  0  0  0
  189.0050  177.2440  142.7140 C   0  0  0  0  0  2  0  0  0  0  0  0
  190.4070  178.3020  144.5810 C   0  0  2  0  0  3  0  0  0  0  0  0
  191.7260  176.8920  143.2170 C   0  0  0  0  0  2  0  0  0  0  0  0
  189.7990  178.4590  143.2440 C   0  0  1  0  0  3  0  0  0  0  0  0
  191.2720  178.2790  143.3760 N   0  0  1  0  0  0  0  0  0  0  0  0
  190.3970  176.8940  145.1720 C   0  0  1  0  0  3  0  0  0  0  0  0
  191.5610  176.1880  144.5370 C   0  0  0  0  0  2  0  0  0  0  0  0
  191.8220  176.7960  147.2780 N   0  0  0  0  0  1  0  0  0  0  0  0
  190.5410  176.9030  146.6610 C   0  0  0  0  0  0  0  0  0  0  0  0
  189.5090  176.9340  147.3780 O   0  0  0  0  0  0  0  0  0  0  0  0
  1  7  1  6  0  0  0
  1 22  1  0  0  0  0
  2  1  1  0  0  0  0
  2  4  1  0  0  0  0
  3  5  1  0  0  0  0
  5  4  1  0  0  0  0
  5  6  2  0  0  0  0
  8  7  1  0  0  0  0
  9  8  1  1  0  0  0
 10  9  1  0  0  0  0
 11 10  1  0  0  0  0
 11  9  1  0  0  0  0
 13 12  1  6  0  0  0
 13  9  1  0  0  0  0
 14 21  1  0  0  0  0
 14 13  1  0  0  0  0
 15 17  2  0  0  0  0
 16 20  2  0  0  0  0
 17 20  1  0  0  0  0
 17 19  1  0  0  0  0
 18 21  2  0  0  0  0
 18 15  1  0  0  0  0
 21 16  1  0  0  0  0
 22 25  1  0  0  0  0
 23 27  1  0  0  0  0
 24 26  1  0  0  0  0
 24 28  1  0  0  0  0
 25 26  1  0  0  0  0
 25 23  1  0  0  0  0
 26 23  1  0  0  0  0
 27 30  1  0  0  0  0
 28 27  1  0  0  0  0
 30 29  1  0  0  0  0
 30 31  2  0  0  0  0
M  END
>  <MODEL>
2

>  <REMARK>
 VINA RESULT:      -7.2      2.673      6.781
  Name = 
  11 active torsions:
  status: ('A' for Active; 'I' for Inactive)
    1  A    between atoms: N_3  and  N_9
    2  A    between atoms: N_3  and  C_14
    3  A    between atoms: N_5  and  C_12
    4  A    between atoms: N_5  and  C_19
    5  A    between atoms: C_7  and  C_25
    6  A    between atoms: C_12  and  C_29
    7  A    between atoms: C_14  and  C_19
    8  A    between atoms: C_14  and  C_30
    9  A    between atoms: O_16  and  C_29
   10  A    between atoms: O_16  and  C_31
   11  A    between atoms: C_21  and  C_30
                            x       y       z     vdW  Elec       q    Type
                         _______ _______ _______ _____ _____    ______ ____

>  <TORSDO>
F 11

$$$$
=
 OpenBabel11042410503D

 31 34  0  0  1  0  0  0  0  0999 V2000
  184.4970  178.7320  140.5180 C   0  0  1  0  0  3  0  0  0  0  0  0
  185.1780  179.4080  139.4170 N   0  0  0  0  0  2  0  0  0  0  0  0
  187.9020  178.5440  139.2690 N   0  0  0  0  0  1  0  0  0  0  0  0
  185.5560  178.4260  138.4900 N   0  0  0  0  0  2  0  0  0  0  0  0
  186.9260  178.0520  138.3570 C   0  0  0  0  0  0  0  0  0  0  0  0
  187.2810  177.3070  137.4070 O   0  0  0  0  0  0  0  0  0  0  0  0
  185.2030  179.0450  141.8240 C   0  0  0  0  0  2  0  0  0  0  0  0
  184.8900  178.0310  142.8210 N   0  0  0  0  0  2  0  0  0  0  0  0
  184.6560  178.6880  144.1050 C   0  0  1  0  0  0  0  0  0  0  0  0
  183.7710  179.8430  144.0850 C   0  0  0  0  0  2  0  0  0  0  0  0
  183.2620  178.5330  144.5410 N   0  0  0  0  0  2  0  0  0  0  0  0
  184.9190  178.5160  146.5950 C   0  0  0  0  0  1  0  0  0  0  0  0
  185.6480  178.5310  145.2600 C   0  0  1  0  0  3  0  0  0  0  0  0
  186.4050  177.3360  145.0920 O   0  0  0  0  0  0  0  0  0  0  0  0
  189.5490  177.0710  146.9410 N   0  0  0  0  0  0  0  0  0  0  0  0
  188.7360  177.2410  144.3380 C   0  0  0  0  0  3  0  0  0  0  0  0
  190.4650  177.0790  145.9390 C   0  0  0  0  0  0  0  0  0  0  0  0
  188.2200  177.1560  146.6750 C   0  0  0  0  0  3  0  0  0  0  0  0
  191.8490  176.9790  146.2410 N   0  0  0  0  0  1  0  0  0  0  0  0
  190.0550  177.1550  144.6450 N   0  0  0  0  0  0  0  0  0  0  0  0
  187.7770  177.2480  145.3570 C   0  0  0  0  0  0  0  0  0  0  0  0
  183.0240  179.1400  140.6120 C   0  0  0  0  0  2  0  0  0  0  0  0
  180.8660  177.8980  141.2210 C   0  0  2  0  0  3  0  0  0  0  0  0
  180.4210  179.7470  139.8160 C   0  0  0  0  0  2  0  0  0  0  0  0
  182.0600  177.9600  140.3540 C   0  0  1  0  0  3  0  0  0  0  0  0
  180.7210  178.3100  139.8030 N   0  0  1  0  0  0  0  0  0  0  0  0
  180.5920  179.1250  142.0900 C   0  0  1  0  0  3  0  0  0  0  0  0
  179.9090  180.1090  141.1850 C   0  0  0  0  0  2  0  0  0  0  0  0
  178.9310  179.8120  143.8910 N   0  0  0  0  0  1  0  0  0  0  0  0
  179.7220  178.8040  143.2640 C   0  0  0  0  0  0  0  0  0  0  0  0
  179.7460  177.6440  143.7490 O   0  0  0  0  0  0  0  0  0  0  0  0
  1 22  1  1  0  0  0
  1  7  1  0  0  0  0
  2  1  1  0  0  0  0
  4  2  1  0  0  0  0
  5  4  1  0  0  0  0
  5  3  1  0  0  0  0
  6  5  2  0  0  0  0
  7  8  1  0  0  0  0
  9  8  1  6  0  0  0
  9 11  1  0  0  0  0
  9 13  1  0  0  0  0
 10  9  1  0  0  0  0
 10 11  1  0  0  0  0
 13 12  1  1  0  0  0
 14 13  1  0  0  0  0
 14 21  1  0  0  0  0
 16 20  2  0  0  0  0
 16 21  1  0  0  0  0
 17 19  1  0  0  0  0
 17 15  2  0  0  0  0
 18 15  1  0  0  0  0
 20 17  1  0  0  0  0
 21 18  2  0  0  0  0
 23 27  1  0  0  0  0
 24 28  1  0  0  0  0
 25 22  1  0  0  0  0
 25 23  1  0  0  0  0
 26 24  1  0  0  0  0
 26 25  1  0  0  0  0
 26 23  1  0  0  0  0
 27 30  1  0  0  0  0
 28 27  1  0  0  0  0
 30 31  2  0  0  0  0
 30 29  1  0  0  0  0
M  END
>  <MODEL>
3

>  <REMARK>
 VINA RESULT:      -7.1      2.627      6.989
  Name = 
  11 active torsions:
  status: ('A' for Active; 'I' for Inactive)
    1  A    between atoms: N_3  and  N_9
    2  A    between atoms: N_3  and  C_14
    3  A    between atoms: N_5  and  C_12
    4  A    between atoms: N_5  and  C_19
    5  A    between atoms: C_7  and  C_25
    6  A    between atoms: C_12  and  C_29
    7  A    between atoms: C_14  and  C_19
    8  A    between atoms: C_14  and  C_30
    9  A    between atoms: O_16  and  C_29
   10  A    between atoms: O_16  and  C_31
   11  A    between atoms: C_21  and  C_30
                            x       y       z     vdW  Elec       q    Type
                         _______ _______ _______ _____ _____    ______ ____

>  <TORSDO>
F 11

$$$$
=
 OpenBabel11042410503D

 31 34  0  0  1  0  0  0  0  0999 V2000
  188.4030  178.4270  141.7320 C   0  0  1  0  0  3  0  0  0  0  0  0
  188.9670  177.9260  140.4820 N   0  0  0  0  0  2  0  0  0  0  0  0
  189.9600  177.5870  137.8200 N   0  0  0  0  0  1  0  0  0  0  0  0
  188.5170  178.7630  139.4510 N   0  0  0  0  0  2  0  0  0  0  0  0
  189.0700  178.6510  138.1400 C   0  0  0  0  0  0  0  0  0  0  0  0
  188.7950  179.5180  137.2700 O   0  0  0  0  0  0  0  0  0  0  0  0
  186.9260  178.0880  141.7990 C   0  0  0  0  0  2  0  0  0  0  0  0
  186.1450  179.2880  142.0640 N   0  0  0  0  0  2  0  0  0  0  0  0
  184.9350  178.9130  142.7920 C   0  0  1  0  0  0  0  0  0  0  0  0
  185.1160  178.5240  144.1830 C   0  0  0  0  0  2  0  0  0  0  0  0
  184.6270  179.8790  143.8550 N   0  0  0  0  0  2  0  0  0  0  0  0
  182.4260  178.8610  142.8010 C   0  0  0  0  0  1  0  0  0  0  0  0
  183.6820  178.4490  142.0470 C   0  0  1  0  0  3  0  0  0  0  0  0
  183.6720  178.9890  140.7290 O   0  0  0  0  0  0  0  0  0  0  0  0
  183.3270  176.3850  138.1850 N   0  0  0  0  0  0  0  0  0  0  0  0
  184.9500  178.5240  138.6900 C   0  0  0  0  0  3  0  0  0  0  0  0
  184.3460  176.6830  137.3380 C   0  0  0  0  0  0  0  0  0  0  0  0
  183.0980  177.1310  139.2960 C   0  0  0  0  0  3  0  0  0  0  0  0
  184.5590  175.8950  136.1770 N   0  0  0  0  0  1  0  0  0  0  0  0
  185.1460  177.7530  137.5890 N   0  0  0  0  0  0  0  0  0  0  0  0
  183.9140  178.2260  139.5810 C   0  0  0  0  0  0  0  0  0  0  0  0
  189.1250  177.8510  142.9540 C   0  0  0  0  0  2  0  0  0  0  0  0
  190.8770  178.3660  144.7530 C   0  0  2  0  0  3  0  0  0  0  0  0
  191.7200  176.8480  143.1480 C   0  0  0  0  0  2  0  0  0  0  0  0
  190.2190  178.7950  143.5010 C   0  0  1  0  0  3  0  0  0  0  0  0
  191.6160  178.2770  143.4690 N   0  0  1  0  0  0  0  0  0  0  0  0
  190.5870  176.9410  145.2200 C   0  0  1  0  0  3  0  0  0  0  0  0
  191.5010  176.0630  144.4140 C   0  0  0  0  0  2  0  0  0  0  0  0
  192.1390  176.4020  147.1630 N   0  0  0  0  0  1  0  0  0  0  0  0
  190.8450  176.7610  146.6830 C   0  0  0  0  0  0  0  0  0  0  0  0
  189.8880  176.8560  147.4930 O   0  0  0  0  0  0  0  0  0  0  0  0
  1  7  1  1  0  0  0
  1 22  1  0  0  0  0
  2  1  1  0  0  0  0
  3  5  1  0  0  0  0
  4  2  1  0  0  0  0
  5  4  1  0  0  0  0
  6  5  2  0  0  0  0
  7  8  1  0  0  0  0
  9  8  1  6  0  0  0
  9 11  1  0  0  0  0
  9 10  1  0  0  0  0
 11 10  1  0  0  0  0
 13  9  1  0  0  0  0
 13 12  1  1  0  0  0
 14 13  1  0  0  0  0
 15 18  1  0  0  0  0
 16 21  1  0  0  0  0
 17 20  1  0  0  0  0
 17 15  2  0  0  0  0
 18 21  2  0  0  0  0
 19 17  1  0  0  0  0
 20 16  2  0  0  0  0
 21 14  1  0  0  0  0
 22 25  1  0  0  0  0
 23 27  1  0  0  0  0
 24 26  1  0  0  0  0
 24 28  1  0  0  0  0
 25 23  1  0  0  0  0
 26 25  1  0  0  0  0
 26 23  1  0  0  0  0
 27 30  1  0  0  0  0
 28 27  1  0  0  0  0
 30 29  1  0  0  0  0
 30 31  2  0  0  0  0
M  END
>  <MODEL>
4

>  <REMARK>
 VINA RESULT:      -7.0      2.052      4.694
  Name = 
  11 active torsions:
  status: ('A' for Active; 'I' for Inactive)
    1  A    between atoms: N_3  and  N_9
    2  A    between atoms: N_3  and  C_14
    3  A    between atoms: N_5  and  C_12
    4  A    between atoms: N_5  and  C_19
    5  A    between atoms: C_7  and  C_25
    6  A    between atoms: C_12  and  C_29
    7  A    between atoms: C_14  and  C_19
    8  A    between atoms: C_14  and  C_30
    9  A    between atoms: O_16  and  C_29
   10  A    between atoms: O_16  and  C_31
   11  A    between atoms: C_21  and  C_30
                            x       y       z     vdW  Elec       q    Type
                         _______ _______ _______ _____ _____    ______ ____

>  <TORSDO>
F 11

$$$$
=
 OpenBabel11042410503D

 31 34  0  0  1  0  0  0  0  0999 V2000
  187.5330  178.5470  140.8630 C   0  0  1  0  0  3  0  0  0  0  0  0
  186.1170  178.4770  141.2130 N   0  0  0  0  0  2  0  0  0  0  0  0
  183.9010  178.0490  139.4540 N   0  0  0  0  0  1  0  0  0  0  0  0
  185.4790  179.5680  140.6060 N   0  0  0  0  0  2  0  0  0  0  0  0
  184.4270  179.3550  139.6660 C   0  0  0  0  0  0  0  0  0  0  0  0
  183.9840  180.3220  138.9950 O   0  0  0  0  0  0  0  0  0  0  0  0
  188.3500  177.7770  141.8830 C   0  0  0  0  0  2  0  0  0  0  0  0
  189.5660  178.5090  142.2100 N   0  0  0  0  0  2  0  0  0  0  0  0
  190.6790  177.5640  142.2860 C   0  0  1  0  0  0  0  0  0  0  0  0
  190.5750  176.3790  141.4490 C   0  0  0  0  0  2  0  0  0  0  0  0
  191.4230  177.5110  141.0210 N   0  0  0  0  0  2  0  0  0  0  0  0
  191.6900  178.9130  144.1450 C   0  0  0  0  0  1  0  0  0  0  0  0
  191.6020  177.5350  143.5060 C   0  0  1  0  0  3  0  0  0  0  0  0
  191.1330  176.5760  144.4490 O   0  0  0  0  0  0  0  0  0  0  0  0
  188.2650  177.4930  146.5240 N   0  0  0  0  0  0  0  0  0  0  0  0
  190.9300  176.9910  146.8560 C   0  0  0  0  0  3  0  0  0  0  0  0
  188.8270  177.5780  147.7570 C   0  0  0  0  0  0  0  0  0  0  0  0
  189.0100  177.1670  145.4360 C   0  0  0  0  0  3  0  0  0  0  0  0
  188.0260  177.9100  148.8820 N   0  0  0  0  0  1  0  0  0  0  0  0
  190.1520  177.3190  147.9190 N   0  0  0  0  0  0  0  0  0  0  0  0
  190.3730  176.9100  145.5750 C   0  0  0  0  0  0  0  0  0  0  0  0
  187.7990  177.9940  139.4590 C   0  0  0  0  0  2  0  0  0  0  0  0
  189.8400  177.8580  137.9140 C   0  0  2  0  0  3  0  0  0  0  0  0
  187.8310  177.9610  136.6700 C   0  0  0  0  0  2  0  0  0  0  0  0
  188.9690  178.7110  138.7470 C   0  0  1  0  0  3  0  0  0  0  0  0
  188.8880  178.7910  137.2620 N   0  0  1  0  0  0  0  0  0  0  0  0
  189.3480  176.4360  137.6500 C   0  0  1  0  0  3  0  0  0  0  0  0
  188.3580  176.5580  136.5270 C   0  0  0  0  0  2  0  0  0  0  0  0
  190.3890  174.1160  137.5430 N   0  0  0  0  0  1  0  0  0  0  0  0
  190.4620  175.5130  137.2670 C   0  0  0  0  0  0  0  0  0  0  0  0
  191.5080  175.9900  136.7580 O   0  0  0  0  0  0  0  0  0  0  0  0
  1 22  1  6  0  0  0
  1  2  1  0  0  0  0
  1  7  1  0  0  0  0
  3  5  1  0  0  0  0
  4  2  1  0  0  0  0
  5  4  1  0  0  0  0
  6  5  2  0  0  0  0
  7  8  1  0  0  0  0
  9  8  1  1  0  0  0
  9 13  1  0  0  0  0
 10  9  1  0  0  0  0
 11 10  1  0  0  0  0
 11  9  1  0  0  0  0
 13 12  1  1  0  0  0
 13 14  1  0  0  0  0
 14 21  1  0  0  0  0
 15 17  2  0  0  0  0
 16 20  2  0  0  0  0
 17 20  1  0  0  0  0
 17 19  1  0  0  0  0
 18 21  2  0  0  0  0
 18 15  1  0  0  0  0
 21 16  1  0  0  0  0
 23 25  1  0  0  0  0
 24 26  1  0  0  0  0
 25 22  1  0  0  0  0
 26 23  1  0  0  0  0
 26 25  1  0  0  0  0
 27 23  1  0  0  0  0
 28 24  1  0  0  0  0
 28 27  1  0  0  0  0
 30 29  1  0  0  0  0
 30 27  1  0  0  0  0
 31 30  2  0  0  0  0
M  END
>  <MODEL>
5

>  <REMARK>
 VINA RESULT:      -6.9      2.497      6.013
  Name = 
  11 active torsions:
  status: ('A' for Active; 'I' for Inactive)
    1  A    between atoms: N_3  and  N_9
    2  A    between atoms: N_3  and  C_14
    3  A    between atoms: N_5  and  C_12
    4  A    between atoms: N_5  and  C_19
    5  A    between atoms: C_7  and  C_25
    6  A    between atoms: C_12  and  C_29
    7  A    between atoms: C_14  and  C_19
    8  A    between atoms: C_14  and  C_30
    9  A    between atoms: O_16  and  C_29
   10  A    between atoms: O_16  and  C_31
   11  A    between atoms: C_21  and  C_30
                            x       y       z     vdW  Elec       q    Type
                         _______ _______ _______ _____ _____    ______ ____

>  <TORSDO>
F 11

$$$$
=
 OpenBabel11042410503D

 31 34  0  0  1  0  0  0  0  0999 V2000
  189.0940  178.0480  140.2290 C   0  0  1  0  0  3  0  0  0  0  0  0
  188.0470  179.0160  140.5400 N   0  0  0  0  0  2  0  0  0  0  0  0
  185.2240  179.4120  140.2790 N   0  0  0  0  0  1  0  0  0  0  0  0
  187.1640  178.4070  141.4430 N   0  0  0  0  0  2  0  0  0  0  0  0
  185.7630  178.6660  141.3660 C   0  0  0  0  0  0  0  0  0  0  0  0
  185.0010  178.2630  142.2830 O   0  0  0  0  0  0  0  0  0  0  0  0
  189.4620  177.2730  141.4820 C   0  0  0  0  0  2  0  0  0  0  0  0
  190.8460  177.5370  141.8480 N   0  0  0  0  0  2  0  0  0  0  0  0
  190.9150  177.7770  143.2880 C   0  0  1  0  0  0  0  0  0  0  0  0
  191.8790  178.7750  143.7280 C   0  0  0  0  0  2  0  0  0  0  0  0
  190.4470  179.1270  143.6290 N   0  0  0  0  0  2  0  0  0  0  0  0
  191.5150  175.6910  144.5480 C   0  0  0  0  0  1  0  0  0  0  0  0
  190.4280  176.7230  144.2840 C   0  0  1  0  0  3  0  0  0  0  0  0
  190.0300  177.3490  145.5000 O   0  0  0  0  0  0  0  0  0  0  0  0
  187.0780  178.1920  147.4870 N   0  0  0  0  0  0  0  0  0  0  0  0
  187.6580  177.5080  144.9060 C   0  0  0  0  0  3  0  0  0  0  0  0
  186.0830  178.0880  146.5680 C   0  0  0  0  0  0  0  0  0  0  0  0
  188.3710  177.9520  147.1480 C   0  0  0  0  0  3  0  0  0  0  0  0
  184.7400  178.3540  146.9430 N   0  0  0  0  0  1  0  0  0  0  0  0
  186.3770  177.7550  145.2840 N   0  0  0  0  0  0  0  0  0  0  0  0
  188.6950  177.5960  145.8400 C   0  0  0  0  0  0  0  0  0  0  0  0
  188.6630  177.0770  139.1250 C   0  0  0  0  0  2  0  0  0  0  0  0
  190.3730  177.2760  137.2270 C   0  0  2  0  0  3  0  0  0  0  0  0
  189.2850  175.1780  137.1800 C   0  0  0  0  0  2  0  0  0  0  0  0
  189.0130  177.5890  137.7100 C   0  0  1  0  0  3  0  0  0  0  0  0
  189.2090  176.5490  136.6620 N   0  0  1  0  0  0  0  0  0  0  0  0
  191.1800  176.2830  138.0610 C   0  0  1  0  0  3  0  0  0  0  0  0
  190.6960  174.9240  137.6410 C   0  0  0  0  0  2  0  0  0  0  0  0
  193.5320  176.8210  138.8680 N   0  0  0  0  0  1  0  0  0  0  0  0
  192.6520  176.4090  137.8250 C   0  0  0  0  0  0  0  0  0  0  0  0
  193.1080  176.2170  136.6690 O   0  0  0  0  0  0  0  0  0  0  0  0
  1 22  1  6  0  0  0
  1  2  1  0  0  0  0
  1  7  1  0  0  0  0
  2  4  1  0  0  0  0
  3  5  1  0  0  0  0
  5  4  1  0  0  0  0
  5  6  2  0  0  0  0
  7  8  1  0  0  0  0
  9  8  1  6  0  0  0
  9 11  1  0  0  0  0
  9 10  1  0  0  0  0
  9 13  1  0  0  0  0
 11 10  1  0  0  0  0
 13 12  1  1  0  0  0
 13 14  1  0  0  0  0
 14 21  1  0  0  0  0
 16 20  2  0  0  0  0
 16 21  1  0  0  0  0
 17 19  1  0  0  0  0
 17 15  2  0  0  0  0
 18 15  1  0  0  0  0
 20 17  1  0  0  0  0
 21 18  2  0  0  0  0
 23 25  1  0  0  0  0
 23 27  1  0  0  0  0
 24 28  1  0  0  0  0
 25 22  1  0  0  0  0
 26 24  1  0  0  0  0
 26 23  1  0  0  0  0
 26 25  1  0  0  0  0
 28 27  1  0  0  0  0
 30 27  1  0  0  0  0
 30 29  1  0  0  0  0
 31 30  2  0  0  0  0
M  END
>  <MODEL>
6

>  <REMARK>
 VINA RESULT:      -6.9      2.266      5.823
  Name = 
  11 active torsions:
  status: ('A' for Active; 'I' for Inactive)
    1  A    between atoms: N_3  and  N_9
    2  A    between atoms: N_3  and  C_14
    3  A    between atoms: N_5  and  C_12
    4  A    between atoms: N_5  and  C_19
    5  A    between atoms: C_7  and  C_25
    6  A    between atoms: C_12  and  C_29
    7  A    between atoms: C_14  and  C_19
    8  A    between atoms: C_14  and  C_30
    9  A    between atoms: O_16  and  C_29
   10  A    between atoms: O_16  and  C_31
   11  A    between atoms: C_21  and  C_30
                            x       y       z     vdW  Elec       q    Type
                         _______ _______ _______ _____ _____    ______ ____

>  <TORSDO>
F 11

$$$$
=
 OpenBabel11042410503D

 31 34  0  0  1  0  0  0  0  0999 V2000
  185.4390  178.2440  143.0080 C   0  0  1  0  0  3  0  0  0  0  0  0
  184.6610  178.5740  144.1980 N   0  0  0  0  0  2  0  0  0  0  0  0
  184.5570  178.0000  147.0000 N   0  0  0  0  0  1  0  0  0  0  0  0
  185.5130  179.2450  145.0860 N   0  0  0  0  0  2  0  0  0  0  0  0
  185.4090  179.0220  146.4910 C   0  0  0  0  0  0  0  0  0  0  0  0
  186.0480  179.7540  147.2900 O   0  0  0  0  0  0  0  0  0  0  0  0
  185.1440  179.2480  141.9090 C   0  0  0  0  0  2  0  0  0  0  0  0
  185.8920  178.9120  140.7060 N   0  0  0  0  0  2  0  0  0  0  0  0
  184.9600  178.8030  139.5860 C   0  0  1  0  0  0  0  0  0  0  0  0
  183.6020  179.2640  139.8330 C   0  0  0  0  0  2  0  0  0  0  0  0
  184.5510  180.1280  139.0990 N   0  0  0  0  0  2  0  0  0  0  0  0
  183.9180  177.4850  137.7220 C   0  0  0  0  0  1  0  0  0  0  0  0
  185.2160  177.8180  138.4440 C   0  0  1  0  0  3  0  0  0  0  0  0
  186.1670  178.3610  137.5340 O   0  0  0  0  0  0  0  0  0  0  0  0
  189.7870  177.9510  137.8450 N   0  0  0  0  0  0  0  0  0  0  0  0
  187.7090  176.7200  136.5670 C   0  0  0  0  0  3  0  0  0  0  0  0
  190.0150  176.8680  137.0580 C   0  0  0  0  0  0  0  0  0  0  0  0
  188.5330  178.4480  138.0070 C   0  0  0  0  0  3  0  0  0  0  0  0
  191.3330  176.3600  136.9130 N   0  0  0  0  0  1  0  0  0  0  0  0
  188.9770  176.2540  136.4310 N   0  0  0  0  0  0  0  0  0  0  0  0
  187.4550  177.8420  137.3630 C   0  0  0  0  0  0  0  0  0  0  0  0
  186.9430  178.2190  143.3000 C   0  0  0  0  0  2  0  0  0  0  0  0
  188.8270  176.4830  143.2330 C   0  0  2  0  0  3  0  0  0  0  0  0
  189.1730  178.0540  144.9670 C   0  0  0  0  0  2  0  0  0  0  0  0
  187.4550  176.8100  143.6730 C   0  0  1  0  0  3  0  0  0  0  0  0
  188.5620  176.7520  144.6680 N   0  0  1  0  0  0  0  0  0  0  0  0
  189.6620  177.6420  142.6910 C   0  0  1  0  0  3  0  0  0  0  0  0
  190.1970  178.3490  143.9030 C   0  0  0  0  0  2  0  0  0  0  0  0
  190.5390  176.3780  140.6640 N   0  0  0  0  0  1  0  0  0  0  0  0
  190.7860  177.1720  141.8220 C   0  0  0  0  0  0  0  0  0  0  0  0
  191.9710  177.4220  142.1600 O   0  0  0  0  0  0  0  0  0  0  0  0
  1  7  1  6  0  0  0
  1 22  1  0  0  0  0
  1  2  1  0  0  0  0
  2  4  1  0  0  0  0
  4  5  1  0  0  0  0
  5  3  1  0  0  0  0
  5  6  2  0  0  0  0
  8  7  1  0  0  0  0
  9 10  1  0  0  0  0
  9  8  1  1  0  0  0
 11  9  1  0  0  0  0
 11 10  1  0  0  0  0
 13 12  1  6  0  0  0
 13  9  1  0  0  0  0
 14 13  1  0  0  0  0
 15 18  1  0  0  0  0
 16 21  1  0  0  0  0
 17 15  2  0  0  0  0
 19 17  1  0  0  0  0
 20 16  2  0  0  0  0
 20 17  1  0  0  0  0
 21 14  1  0  0  0  0
 21 18  2  0  0  0  0
 22 25  1  0  0  0  0
 23 25  1  0  0  0  0
 23 26  1  0  0  0  0
 25 26  1  0  0  0  0
 26 24  1  0  0  0  0
 27 23  1  0  0  0  0
 27 28  1  0  0  0  0
 28 24  1  0  0  0  0
 29 30  1  0  0  0  0
 30 31  2  0  0  0  0
 30 27  1  0  0  0  0
M  END
>  <MODEL>
7

>  <REMARK>
 VINA RESULT:      -6.9      2.377      6.780
  Name = 
  11 active torsions:
  status: ('A' for Active; 'I' for Inactive)
    1  A    between atoms: N_3  and  N_9
    2  A    between atoms: N_3  and  C_14
    3  A    between atoms: N_5  and  C_12
    4  A    between atoms: N_5  and  C_19
    5  A    between atoms: C_7  and  C_25
    6  A    between atoms: C_12  and  C_29
    7  A    between atoms: C_14  and  C_19
    8  A    between atoms: C_14  and  C_30
    9  A    between atoms: O_16  and  C_29
   10  A    between atoms: O_16  and  C_31
   11  A    between atoms: C_21  and  C_30
                            x       y       z     vdW  Elec       q    Type
                         _______ _______ _______ _____ _____    ______ ____

>  <TORSDO>
F 11

$$$$
=
 OpenBabel11042410503D

 31 34  0  0  1  0  0  0  0  0999 V2000
  188.4110  178.5750  140.9550 C   0  0  1  0  0  3  0  0  0  0  0  0
  189.1500  178.0520  139.8110 N   0  0  0  0  0  2  0  0  0  0  0  0
  188.9350  179.3470  137.2680 N   0  0  0  0  0  1  0  0  0  0  0  0
  188.2110  177.6050  138.8710 N   0  0  0  0  0  2  0  0  0  0  0  0
  188.0440  178.2980  137.6350 C   0  0  0  0  0  0  0  0  0  0  0  0
  187.0830  178.0040  136.8780 O   0  0  0  0  0  0  0  0  0  0  0  0
  186.9430  178.2110  140.8260 C   0  0  0  0  0  2  0  0  0  0  0  0
  186.1260  179.4160  140.7990 N   0  0  0  0  0  2  0  0  0  0  0  0
  184.7440  179.0420  140.5060 C   0  0  1  0  0  0  0  0  0  0  0  0
  184.2680  179.3410  139.1640 C   0  0  0  0  0  2  0  0  0  0  0  0
  184.6800  177.9650  139.5090 N   0  0  0  0  0  2  0  0  0  0  0  0
  182.3690  178.4600  141.0680 C   0  0  0  0  0  1  0  0  0  0  0  0
  183.7260  178.8540  141.6320 C   0  0  1  0  0  3  0  0  0  0  0  0
  184.1900  177.8680  142.5490 O   0  0  0  0  0  0  0  0  0  0  0  0
  184.1800  178.9980  146.0270 N   0  0  0  0  0  0  0  0  0  0  0  0
  185.9580  177.9370  144.2450 C   0  0  0  0  0  3  0  0  0  0  0  0
  185.4690  178.7790  146.3970 C   0  0  0  0  0  0  0  0  0  0  0  0
  183.7520  178.7040  144.7720 C   0  0  0  0  0  3  0  0  0  0  0  0
  185.8900  179.0840  147.7180 N   0  0  0  0  0  1  0  0  0  0  0  0
  186.3480  178.2440  145.5090 N   0  0  0  0  0  0  0  0  0  0  0  0
  184.6390  178.1660  143.8410 C   0  0  0  0  0  0  0  0  0  0  0  0
  188.9640  178.0430  142.2810 C   0  0  0  0  0  2  0  0  0  0  0  0
  190.7460  178.4270  144.0830 C   0  0  2  0  0  3  0  0  0  0  0  0
  191.3270  176.6170  142.6780 C   0  0  0  0  0  2  0  0  0  0  0  0
  190.2010  178.8290  142.7700 C   0  0  1  0  0  3  0  0  0  0  0  0
  191.4800  178.0680  142.8450 N   0  0  1  0  0  0  0  0  0  0  0  0
  190.1900  177.1370  144.6840 C   0  0  1  0  0  3  0  0  0  0  0  0
  190.9430  176.0270  144.0090 C   0  0  0  0  0  2  0  0  0  0  0  0
  189.2680  177.0380  147.0540 N   0  0  0  0  0  1  0  0  0  0  0  0
  190.3840  177.0730  146.1660 C   0  0  0  0  0  0  0  0  0  0  0  0
  191.5490  177.1240  146.6370 O   0  0  0  0  0  0  0  0  0  0  0  0
  1  7  1  6  0  0  0
  1 22  1  0  0  0  0
  2  1  1  0  0  0  0
  3  5  1  0  0  0  0
  4  2  1  0  0  0  0
  5  4  1  0  0  0  0
  6  5  2  0  0  0  0
  8  7  1  0  0  0  0
  9  8  1  1  0  0  0
  9 13  1  0  0  0  0
 10 11  1  0  0  0  0
 10  9  1  0  0  0  0
 11  9  1  0  0  0  0
 13 12  1  6  0  0  0
 13 14  1  0  0  0  0
 14 21  1  0  0  0  0
 15 17  2  0  0  0  0
 16 20  2  0  0  0  0
 17 19  1  0  0  0  0
 18 15  1  0  0  0  0
 20 17  1  0  0  0  0
 21 16  1  0  0  0  0
 21 18  2  0  0  0  0
 22 25  1  0  0  0  0
 23 27  1  0  0  0  0
 24 26  1  0  0  0  0
 24 28  1  0  0  0  0
 25 26  1  0  0  0  0
 25 23  1  0  0  0  0
 26 23  1  0  0  0  0
 27 30  1  0  0  0  0
 28 27  1  0  0  0  0
 30 31  2  0  0  0  0
 30 29  1  0  0  0  0
M  END
>  <MODEL>
8

>  <REMARK>
 VINA RESULT:      -6.9      1.442      1.922
  Name = 
  11 active torsions:
  status: ('A' for Active; 'I' for Inactive)
    1  A    between atoms: N_3  and  N_9
    2  A    between atoms: N_3  and  C_14
    3  A    between atoms: N_5  and  C_12
    4  A    between atoms: N_5  and  C_19
    5  A    between atoms: C_7  and  C_25
    6  A    between atoms: C_12  and  C_29
    7  A    between atoms: C_14  and  C_19
    8  A    between atoms: C_14  and  C_30
    9  A    between atoms: O_16  and  C_29
   10  A    between atoms: O_16  and  C_31
   11  A    between atoms: C_21  and  C_30
                            x       y       z     vdW  Elec       q    Type
                         _______ _______ _______ _____ _____    ______ ____

>  <TORSDO>
F 11

$$$$
=
 OpenBabel11042410503D

 31 34  0  0  1  0  0  0  0  0999 V2000
  185.6820  179.0340  142.1930 C   0  0  1  0  0  3  0  0  0  0  0  0
  185.0150  178.5030  143.3780 N   0  0  0  0  0  2  0  0  0  0  0  0
  184.8040  178.9150  146.2020 N   0  0  0  0  0  1  0  0  0  0  0  0
  186.0080  178.0120  144.2370 N   0  0  0  0  0  2  0  0  0  0  0  0
  185.9500  178.2860  145.6370 C   0  0  0  0  0  0  0  0  0  0  0  0
  186.9300  177.9990  146.3710 O   0  0  0  0  0  0  0  0  0  0  0  0
  186.9500  178.2440  141.9240 C   0  0  0  0  0  2  0  0  0  0  0  0
  187.8820  179.0400  141.1380 N   0  0  0  0  0  2  0  0  0  0  0  0
  188.5970  178.1580  140.2190 C   0  0  1  0  0  0  0  0  0  0  0  0
  187.9320  177.8680  138.9570 C   0  0  0  0  0  2  0  0  0  0  0  0
  189.0140  178.8740  139.0050 N   0  0  0  0  0  2  0  0  0  0  0  0
  190.4620  176.6090  139.5670 C   0  0  0  0  0  1  0  0  0  0  0  0
  189.6750  177.2000  140.7290 C   0  0  1  0  0  3  0  0  0  0  0  0
  190.5470  177.8800  141.6260 O   0  0  0  0  0  0  0  0  0  0  0  0
  190.2610  177.8540  145.2710 N   0  0  0  0  0  0  0  0  0  0  0  0
  191.5340  176.4180  143.3270 C   0  0  0  0  0  3  0  0  0  0  0  0
  191.0560  176.8060  145.6070 C   0  0  0  0  0  0  0  0  0  0  0  0
  190.0890  178.2140  143.9730 C   0  0  0  0  0  3  0  0  0  0  0  0
  191.2130  176.4420  146.9710 N   0  0  0  0  0  1  0  0  0  0  0  0
  191.6810  176.0890  144.6360 N   0  0  0  0  0  0  0  0  0  0  0  0
  190.7300  177.5020  142.9610 C   0  0  0  0  0  0  0  0  0  0  0  0
  184.7720  178.9930  140.9620 C   0  0  0  0  0  2  0  0  0  0  0  0
  182.2900  178.7870  140.3560 C   0  0  2  0  0  3  0  0  0  0  0  0
  183.6190  177.3670  139.0110 C   0  0  0  0  0  2  0  0  0  0  0  0
  183.3840  178.3860  141.2650 C   0  0  1  0  0  3  0  0  0  0  0  0
  182.8550  177.4180  140.2640 N   0  0  1  0  0  0  0  0  0  0  0  0
  182.6980  179.5420  139.0930 C   0  0  1  0  0  3  0  0  0  0  0  0
  183.1430  178.4860  138.1230 C   0  0  0  0  0  2  0  0  0  0  0  0
  180.8100  181.2330  139.3280 N   0  0  0  0  0  1  0  0  0  0  0  0
  181.5670  180.3360  138.5180 C   0  0  0  0  0  0  0  0  0  0  0  0
  181.2340  180.1520  137.3190 O   0  0  0  0  0  0  0  0  0  0  0  0
  1 22  1  6  0  0  0
  1  2  1  0  0  0  0
  2  4  1  0  0  0  0
  4  5  1  0  0  0  0
  5  3  1  0  0  0  0
  5  6  2  0  0  0  0
  7  1  1  0  0  0  0
  8  7  1  0  0  0  0
  9 13  1  0  0  0  0
  9  8  1  1  0  0  0
 10 11  1  0  0  0  0
 10  9  1  0  0  0  0
 11  9  1  0  0  0  0
 13 12  1  6  0  0  0
 13 14  1  0  0  0  0
 14 21  1  0  0  0  0
 15 17  2  0  0  0  0
 16 20  2  0  0  0  0
 17 19  1  0  0  0  0
 18 15  1  0  0  0  0
 20 17  1  0  0  0  0
 21 16  1  0  0  0  0
 21 18  2  0  0  0  0
 22 25  1  0  0  0  0
 23 25  1  0  0  0  0
 24 26  1  0  0  0  0
 26 23  1  0  0  0  0
 26 25  1  0  0  0  0
 27 23  1  0  0  0  0
 28 24  1  0  0  0  0
 28 27  1  0  0  0  0
 30 27  1  0  0  0  0
 30 29  1  0  0  0  0
 31 30  2  0  0  0  0
M  END
>  <MODEL>
9

>  <REMARK>
 VINA RESULT:      -6.9      2.664      7.846
  Name = 
  11 active torsions:
  status: ('A' for Active; 'I' for Inactive)
    1  A    between atoms: N_3  and  N_9
    2  A    between atoms: N_3  and  C_14
    3  A    between atoms: N_5  and  C_12
    4  A    between atoms: N_5  and  C_19
    5  A    between atoms: C_7  and  C_25
    6  A    between atoms: C_12  and  C_29
    7  A    between atoms: C_14  and  C_19
    8  A    between atoms: C_14  and  C_30
    9  A    between atoms: O_16  and  C_29
   10  A    between atoms: O_16  and  C_31
   11  A    between atoms: C_21  and  C_30
                            x       y       z     vdW  Elec       q    Type
                         _______ _______ _______ _____ _____    ______ ____

>  <TORSDO>
F 11

$$$$
