=
 OpenBabel11032420193D

 32 36  0  0  1  0  0  0  0  0999 V2000
  183.4550  173.9350  136.6810 C   0  0  0  0  0  2  0  0  0  0  0  0
  187.1740  173.9470  136.5310 C   0  0  0  0  0  2  0  0  0  0  0  0
  188.6840  175.9620  136.8140 C   0  0  2  0  0  3  0  0  0  0  0  0
  190.1320  173.9800  135.3180 C   0  0  0  0  0  2  0  0  0  0  0  0
  183.6690  177.3850  137.1290 C   0  0  0  0  0  2  0  0  0  0  0  0
  182.7110  176.3150  136.5910 C   0  0  1  0  0  3  0  0  0  0  0  0
  182.7110  175.0290  137.4390 C   0  0  1  0  0  3  0  0  0  0  0  0
  184.9290  172.6420  137.9660 O   0  0  0  0  0  0  0  0  0  0  0  0
  188.0860  176.8740  137.8980 C   0  0  2  0  0  3  0  0  0  0  0  0
  181.4180  174.5820  137.7230 O   0  0  0  0  0  1  0  0  0  0  0  0
  187.3400  177.9510  137.2510 N   0  0  0  0  0  2  0  0  0  0  0  0
  188.4710  174.4720  137.1510 C   0  0  2  0  0  3  0  0  0  0  0  0
  189.6470  173.5930  136.7140 C   0  0  0  0  0  2  0  0  0  0  0  0
  190.1230  176.3090  136.4110 C   0  0  0  0  0  2  0  0  0  0  0  0
  185.9610  174.6070  137.1720 C   0  0  2  0  0  3  0  0  0  0  0  0
  181.3340  176.9350  136.4130 C   0  0  0  0  0  1  0  0  0  0  0  0
  184.7950  173.6560  137.2990 C   0  0  0  0  0  0  0  0  0  0  0  0
  190.5950  175.4430  135.2380 C   0  0  0  0  0  2  0  0  0  0  0  0
  185.0650  176.8710  137.4820 C   0  0  2  0  0  3  0  0  0  0  0  0
  186.0040  178.0360  137.8460 C   0  0  0  0  0  2  0  0  0  0  0  0
  185.6130  175.9000  136.4450 C   0  0  0  0  0  2  0  0  0  0  0  0
  189.1130  177.4100  138.9180 C   0  0  1  0  0  3  0  0  0  0  0  0
  189.2810  178.9250  138.8540 C   0  0  0  0  0  1  0  0  0  0  0  0
  188.8080  176.9680  140.2820 N   0  0  0  0  0  2  0  0  0  0  0  0
  188.9570  178.0770  141.2270 C   0  0  1  0  0  3  0  0  0  0  0  0
  190.0380  178.5500  143.5240 C   0  0  0  0  0  2  0  0  0  0  0  0
  189.4860  176.0780  142.8710 C   0  0  0  0  0  2  0  0  0  0  0  0
  187.8810  177.9780  142.3050 C   0  0  0  0  0  2  0  0  0  0  0  0
  189.2990  177.5730  142.6200 C   0  0  0  0  0  0  0  0  0  0  0  0
  191.4630  178.0450  143.7410 C   0  0  0  0  0  2  0  0  0  0  0  0
  190.9630  175.8020  143.1470 C   0  0  0  0  0  2  0  0  0  0  0  0
  191.4460  176.6640  144.2250 N   0  0  0  0  0  2  0  0  0  0  0  0
  1 17  1  0  0  0  0
  1  7  1  0  0  0  0
  2 15  1  0  0  0  0
  3 14  1  1  0  0  0
  3 12  1  0  0  0  0
  3  9  1  0  0  0  0
  4 13  1  0  0  0  0
  5 19  1  0  0  0  0
  6 16  1  1  0  0  0
  6  5  1  0  0  0  0
  6  7  1  0  0  0  0
  7 10  1  6  0  0  0
  9 22  1  6  0  0  0
 11 20  1  0  0  0  0
 11  9  1  0  0  0  0
 12  2  1  6  0  0  0
 13 12  1  0  0  0  0
 15 21  1  6  0  0  0
 15 17  1  0  0  0  0
 17  8  2  0  0  0  0
 18  4  1  0  0  0  0
 18 14  1  0  0  0  0
 19 21  1  6  0  0  0
 19 20  1  0  0  0  0
 22 23  1  1  0  0  0
 22 24  1  0  0  0  0
 25 24  1  6  0  0  0
 25 28  1  0  0  0  0
 25 29  1  0  0  0  0
 26 30  1  0  0  0  0
 27 31  1  0  0  0  0
 28 29  1  0  0  0  0
 29 27  1  0  0  0  0
 29 26  1  0  0  0  0
 30 32  1  0  0  0  0
 31 32  1  0  0  0  0
M  END
>  <MODEL>
1

>  <REMARK>
 VINA RESULT:      -6.9      0.000      0.000
  Name = 
  3 active torsions:
  status: ('A' for Active; 'I' for Inactive)
    1  A    between atoms: N_2  and  C_3
    2  A    between atoms: N_2  and  C_15
    3  A    between atoms: C_14  and  C_15
                            x       y       z     vdW  Elec       q    Type
                         _______ _______ _______ _____ _____    ______ ____

>  <TORSDO>
F 3

$$$$
=
 OpenBabel11032420193D

 32 36  0  0  1  0  0  0  0  0999 V2000
  185.3560  178.3010  142.5640 C   0  0  0  0  0  2  0  0  0  0  0  0
  183.1410  177.9190  139.5970 C   0  0  0  0  0  2  0  0  0  0  0  0
  180.6330  178.2770  139.5370 C   0  0  2  0  0  3  0  0  0  0  0  0
  181.3250  176.5300  137.3630 C   0  0  0  0  0  2  0  0  0  0  0  0
  182.4640  179.0260  144.3700 C   0  0  0  0  0  2  0  0  0  0  0  0
  183.8760  178.4610  144.5660 C   0  0  1  0  0  3  0  0  0  0  0  0
  184.9390  179.1950  143.7260 C   0  0  1  0  0  3  0  0  0  0  0  0
  185.5650  179.3760  140.4910 O   0  0  0  0  0  0  0  0  0  0  0  0
  180.2860  179.4700  140.4430 C   0  0  2  0  0  3  0  0  0  0  0  0
  186.0730  179.5210  144.4750 O   0  0  0  0  0  1  0  0  0  0  0  0
  179.8400  178.9650  141.7390 N   0  0  0  0  0  2  0  0  0  0  0  0
  181.9690  178.4990  138.8000 C   0  0  2  0  0  3  0  0  0  0  0  0
  181.9670  177.9160  137.3840 C   0  0  0  0  0  2  0  0  0  0  0  0
  179.4890  177.8150  138.6250 C   0  0  0  0  0  2  0  0  0  0  0  0
  183.3460  178.6890  140.8940 C   0  0  2  0  0  3  0  0  0  0  0  0
  184.1860  178.4240  146.0540 C   0  0  0  0  0  1  0  0  0  0  0  0
  184.8060  178.8080  141.2610 C   0  0  0  0  0  0  0  0  0  0  0  0
  179.8700  176.5460  137.8560 C   0  0  0  0  0  2  0  0  0  0  0  0
  182.0640  179.2460  142.9110 C   0  0  2  0  0  3  0  0  0  0  0  0
  180.5810  179.6480  142.8040 C   0  0  0  0  0  2  0  0  0  0  0  0
  182.4890  178.0970  142.0060 C   0  0  0  0  0  2  0  0  0  0  0  0
  179.2790  180.4650  139.8290 C   0  0  1  0  0  3  0  0  0  0  0  0
  178.9310  181.6150  140.7690 C   0  0  0  0  0  1  0  0  0  0  0  0
  179.7300  180.9640  138.5260 N   0  0  0  0  0  2  0  0  0  0  0  0
  180.4630  182.2220  138.6830 C   0  0  1  0  0  3  0  0  0  0  0  0
  181.2720  184.2000  137.2340 C   0  0  0  0  0  2  0  0  0  0  0  0
  180.7480  181.9160  136.0740 C   0  0  0  0  0  2  0  0  0  0  0  0
  181.9320  182.0050  138.3320 C   0  0  0  0  0  2  0  0  0  0  0  0
  181.0230  182.7040  137.3540 C   0  0  0  0  0  0  0  0  0  0  0  0
  180.2720  184.7930  136.2420 C   0  0  0  0  0  2  0  0  0  0  0  0
  179.7960  182.7190  135.1910 C   0  0  0  0  0  2  0  0  0  0  0  0
  180.3230  184.0660  134.9730 N   0  0  0  0  0  2  0  0  0  0  0  0
  1  7  1  0  0  0  0
  3 14  1  6  0  0  0
  3  9  1  0  0  0  0
  4 13  1  0  0  0  0
  4 18  1  0  0  0  0
  5  6  1  0  0  0  0
  6 16  1  1  0  0  0
  7 10  1  1  0  0  0
  7  6  1  0  0  0  0
  8 17  2  0  0  0  0
  9 22  1  6  0  0  0
  9 11  1  0  0  0  0
 11 20  1  0  0  0  0
 12 13  1  6  0  0  0
 12  3  1  0  0  0  0
 12  2  1  0  0  0  0
 15  2  1  6  0  0  0
 15 17  1  0  0  0  0
 15 21  1  0  0  0  0
 17  1  1  0  0  0  0
 18 14  1  0  0  0  0
 19 21  1  6  0  0  0
 19  5  1  0  0  0  0
 20 19  1  0  0  0  0
 22 23  1  1  0  0  0
 24 22  1  0  0  0  0
 25 24  1  6  0  0  0
 26 29  1  0  0  0  0
 27 29  1  0  0  0  0
 28 25  1  0  0  0  0
 29 28  1  0  0  0  0
 29 25  1  0  0  0  0
 30 26  1  0  0  0  0
 31 27  1  0  0  0  0
 32 31  1  0  0  0  0
 32 30  1  0  0  0  0
M  END
>  <MODEL>
2

>  <REMARK>
 VINA RESULT:      -6.7      6.036      9.848
  Name = 
  3 active torsions:
  status: ('A' for Active; 'I' for Inactive)
    1  A    between atoms: N_2  and  C_3
    2  A    between atoms: N_2  and  C_15
    3  A    between atoms: C_14  and  C_15
                            x       y       z     vdW  Elec       q    Type
                         _______ _______ _______ _____ _____    ______ ____

>  <TORSDO>
F 3

$$$$
=
 OpenBabel11032420193D

 32 36  0  0  1  0  0  0  0  0999 V2000
  190.0260  176.8120  136.9960 C   0  0  0  0  0  2  0  0  0  0  0  0
  190.8650  177.1270  140.6080 C   0  0  0  0  0  2  0  0  0  0  0  0
  189.3860  178.1100  142.4160 C   0  0  2  0  0  3  0  0  0  0  0  0
  192.1110  178.2910  143.3130 C   0  0  0  0  0  2  0  0  0  0  0  0
  187.0250  178.4080  137.7670 C   0  0  0  0  0  2  0  0  0  0  0  0
  187.9900  178.1970  136.5940 C   0  0  1  0  0  3  0  0  0  0  0  0
  188.5700  176.7710  136.5440 C   0  0  1  0  0  3  0  0  0  0  0  0
  190.6780  175.0970  138.4540 O   0  0  0  0  0  0  0  0  0  0  0  0
  187.9300  177.7050  142.1320 C   0  0  2  0  0  3  0  0  0  0  0  0
  188.5110  176.2200  135.2610 O   0  0  0  0  0  1  0  0  0  0  0  0
  187.2560  178.8100  141.4540 N   0  0  0  0  0  2  0  0  0  0  0  0
  190.3680  176.9790  142.0480 C   0  0  2  0  0  3  0  0  0  0  0  0
  191.5620  176.8990  143.0040 C   0  0  0  0  0  2  0  0  0  0  0  0
  189.6210  178.7100  143.8080 C   0  0  0  0  0  2  0  0  0  0  0  0
  189.7290  176.9140  139.6180 C   0  0  2  0  0  3  0  0  0  0  0  0
  187.2990  178.6260  135.3090 C   0  0  0  0  0  1  0  0  0  0  0  0
  190.1910  176.2130  138.3630 C   0  0  0  0  0  0  0  0  0  0  0  0
  191.0630  179.2080  143.9610 C   0  0  0  0  0  2  0  0  0  0  0  0
  187.5370  177.8960  139.1130 C   0  0  2  0  0  3  0  0  0  0  0  0
  186.5860  178.3030  140.2540 C   0  0  0  0  0  2  0  0  0  0  0  0
  189.0050  178.2260  139.3470 C   0  0  0  0  0  2  0  0  0  0  0  0
  187.1500  177.2210  143.3720 C   0  0  1  0  0  3  0  0  0  0  0  0
  187.6840  175.9070  143.9340 C   0  0  0  0  0  1  0  0  0  0  0  0
  187.0820  178.2520  144.4120 N   0  0  0  0  0  2  0  0  0  0  0  0
  185.9510  178.0050  145.3080 C   0  0  1  0  0  3  0  0  0  0  0  0
  183.4310  178.5470  145.4610 C   0  0  0  0  0  2  0  0  0  0  0  0
  184.9590  180.0550  143.9690 C   0  0  0  0  0  2  0  0  0  0  0  0
  185.7620  179.2030  146.2350 C   0  0  0  0  0  2  0  0  0  0  0  0
  184.8280  179.0030  145.0680 C   0  0  0  0  0  0  0  0  0  0  0  0
  182.5970  178.3510  144.1950 C   0  0  0  0  0  2  0  0  0  0  0  0
  183.9860  179.7190  142.8410 C   0  0  0  0  0  2  0  0  0  0  0  0
  182.6320  179.5600  143.3720 N   0  0  0  0  0  2  0  0  0  0  0  0
  1 17  1  0  0  0  0
  3 14  1  1  0  0  0
  4 18  1  0  0  0  0
  6 16  1  6  0  0  0
  6  5  1  0  0  0  0
  7 10  1  6  0  0  0
  7  6  1  0  0  0  0
  7  1  1  0  0  0  0
  9  3  1  0  0  0  0
  9 22  1  1  0  0  0
 11  9  1  0  0  0  0
 12  2  1  6  0  0  0
 12  3  1  0  0  0  0
 12 13  1  0  0  0  0
 13  4  1  0  0  0  0
 14 18  1  0  0  0  0
 15 21  1  6  0  0  0
 15  2  1  0  0  0  0
 17  8  2  0  0  0  0
 17 15  1  0  0  0  0
 19  5  1  6  0  0  0
 19 21  1  0  0  0  0
 19 20  1  0  0  0  0
 20 11  1  0  0  0  0
 22 23  1  1  0  0  0
 22 24  1  0  0  0  0
 25 24  1  6  0  0  0
 25 28  1  0  0  0  0
 27 29  1  0  0  0  0
 29 25  1  0  0  0  0
 29 26  1  0  0  0  0
 29 28  1  0  0  0  0
 30 26  1  0  0  0  0
 31 32  1  0  0  0  0
 31 27  1  0  0  0  0
 32 30  1  0  0  0  0
M  END
>  <MODEL>
3

>  <REMARK>
 VINA RESULT:      -6.5      3.462      6.344
  Name = 
  3 active torsions:
  status: ('A' for Active; 'I' for Inactive)
    1  A    between atoms: N_2  and  C_3
    2  A    between atoms: N_2  and  C_15
    3  A    between atoms: C_14  and  C_15
                            x       y       z     vdW  Elec       q    Type
                         _______ _______ _______ _____ _____    ______ ____

>  <TORSDO>
F 3

$$$$
=
 OpenBabel11032420193D

 32 36  0  0  1  0  0  0  0  0999 V2000
  185.9310  173.9330  135.2790 C   0  0  0  0  0  2  0  0  0  0  0  0
  189.6060  173.8100  135.8550 C   0  0  0  0  0  2  0  0  0  0  0  0
  191.0140  175.5960  136.9710 C   0  0  2  0  0  3  0  0  0  0  0  0
  192.7450  174.0350  135.2900 C   0  0  0  0  0  2  0  0  0  0  0  0
  186.0250  177.1130  136.7010 C   0  0  0  0  0  2  0  0  0  0  0  0
  185.2010  176.2780  135.7130 C   0  0  1  0  0  3  0  0  0  0  0  0
  185.0440  174.8100  136.1540 C   0  0  1  0  0  3  0  0  0  0  0  0
  187.1340  172.2690  136.4120 O   0  0  0  0  0  0  0  0  0  0  0  0
  190.2070  176.2040  138.1300 C   0  0  2  0  0  3  0  0  0  0  0  0
  183.7230  174.3640  136.0490 O   0  0  0  0  0  1  0  0  0  0  0  0
  189.5950  177.4500  137.6770 N   0  0  0  0  0  2  0  0  0  0  0  0
  190.7510  174.0830  136.8330 C   0  0  2  0  0  3  0  0  0  0  0  0
  191.9980  173.3030  136.4040 C   0  0  0  0  0  2  0  0  0  0  0  0
  192.5020  175.9720  136.9640 C   0  0  0  0  0  2  0  0  0  0  0  0
  188.2860  174.3250  136.4090 C   0  0  2  0  0  3  0  0  0  0  0  0
  183.8810  176.9880  135.4540 C   0  0  0  0  0  1  0  0  0  0  0  0
  187.1260  173.4320  136.0400 C   0  0  0  0  0  0  0  0  0  0  0  0
  193.2030  175.4390  135.7100 C   0  0  0  0  0  2  0  0  0  0  0  0
  187.3270  176.4570  137.1580 C   0  0  2  0  0  3  0  0  0  0  0  0
  188.1660  177.4330  138.0050 C   0  0  0  0  0  2  0  0  0  0  0  0
  188.0770  175.7820  136.0170 C   0  0  0  0  0  2  0  0  0  0  0  0
  191.0080  176.3900  139.4360 C   0  0  1  0  0  3  0  0  0  0  0  0
  191.7330  177.7310  139.5030 C   0  0  0  0  0  1  0  0  0  0  0  0
  190.1730  176.1810  140.6230 N   0  0  0  0  0  2  0  0  0  0  0  0
  189.8990  177.4540  141.2910 C   0  0  1  0  0  3  0  0  0  0  0  0
  190.2240  178.5510  143.6060 C   0  0  0  0  0  2  0  0  0  0  0  0
  190.2220  175.9420  143.4330 C   0  0  0  0  0  2  0  0  0  0  0  0
  188.5910  177.3530  142.0700 C   0  0  0  0  0  2  0  0  0  0  0  0
  189.9070  177.2980  142.8030 C   0  0  0  0  0  0  0  0  0  0  0  0
  191.5890  178.3840  144.2710 C   0  0  0  0  0  2  0  0  0  0  0  0
  191.5870  176.0160  144.1130 C   0  0  0  0  0  2  0  0  0  0  0  0
  191.6290  177.1420  145.0450 N   0  0  0  0  0  2  0  0  0  0  0  0
  1 17  1  0  0  0  0
  1  7  1  0  0  0  0
  3 14  1  1  0  0  0
  3  9  1  0  0  0  0
  4 18  1  0  0  0  0
  4 13  1  0  0  0  0
  5 19  1  0  0  0  0
  6 16  1  1  0  0  0
  6  7  1  0  0  0  0
  6  5  1  0  0  0  0
  7 10  1  6  0  0  0
  9 22  1  1  0  0  0
 11 20  1  0  0  0  0
 11  9  1  0  0  0  0
 12  2  1  6  0  0  0
 12  3  1  0  0  0  0
 13 12  1  0  0  0  0
 15  2  1  6  0  0  0
 17 15  1  0  0  0  0
 17  8  2  0  0  0  0
 18 14  1  0  0  0  0
 19 21  1  6  0  0  0
 19 20  1  0  0  0  0
 21 15  1  0  0  0  0
 22 23  1  1  0  0  0
 22 24  1  0  0  0  0
 25 24  1  6  0  0  0
 25 28  1  0  0  0  0
 25 29  1  0  0  0  0
 26 30  1  0  0  0  0
 27 31  1  0  0  0  0
 28 29  1  0  0  0  0
 29 27  1  0  0  0  0
 29 26  1  0  0  0  0
 30 32  1  0  0  0  0
 31 32  1  0  0  0  0
M  END
>  <MODEL>
4

>  <REMARK>
 VINA RESULT:      -6.3      1.651      2.209
  Name = 
  3 active torsions:
  status: ('A' for Active; 'I' for Inactive)
    1  A    between atoms: N_2  and  C_3
    2  A    between atoms: N_2  and  C_15
    3  A    between atoms: C_14  and  C_15
                            x       y       z     vdW  Elec       q    Type
                         _______ _______ _______ _____ _____    ______ ____

>  <TORSDO>
F 3

$$$$
=
 OpenBabel11032420193D

 32 36  0  0  1  0  0  0  0  0999 V2000
  190.1890  176.5370  141.4920 C   0  0  0  0  0  2  0  0  0  0  0  0
  187.9330  177.2760  144.3590 C   0  0  0  0  0  2  0  0  0  0  0  0
  185.8190  178.6700  144.2890 C   0  0  2  0  0  3  0  0  0  0  0  0
  186.7840  178.6720  146.9960 C   0  0  0  0  0  2  0  0  0  0  0  0
  188.0820  178.5540  139.5840 C   0  0  0  0  0  2  0  0  0  0  0  0
  189.5360  178.0690  139.6340 C   0  0  1  0  0  3  0  0  0  0  0  0
  189.6610  176.5940  140.0630 C   0  0  1  0  0  3  0  0  0  0  0  0
  189.1280  174.9890  142.8960 O   0  0  0  0  0  0  0  0  0  0  0  0
  185.0940  178.3940  142.9610 C   0  0  2  0  0  3  0  0  0  0  0  0
  190.5250  175.8730  139.2330 O   0  0  0  0  0  1  0  0  0  0  0  0
  185.4200  179.4580  142.0140 N   0  0  0  0  0  2  0  0  0  0  0  0
  186.4860  177.3950  144.8420 C   0  0  2  0  0  3  0  0  0  0  0  0
  186.4420  177.3210  146.3720 C   0  0  0  0  0  2  0  0  0  0  0  0
  184.9840  179.4350  145.3240 C   0  0  0  0  0  2  0  0  0  0  0  0
  187.9850  177.0500  142.8550 C   0  0  2  0  0  3  0  0  0  0  0  0
  190.2030  178.3820  138.3030 C   0  0  0  0  0  1  0  0  0  0  0  0
  189.1120  176.1270  142.4560 C   0  0  0  0  0  0  0  0  0  0  0  0
  185.8190  179.7850  146.5600 C   0  0  0  0  0  2  0  0  0  0  0  0
  187.2460  178.1880  140.8100 C   0  0  2  0  0  3  0  0  0  0  0  0
  185.8610  178.8600  140.7510 C   0  0  0  0  0  2  0  0  0  0  0  0
  188.0030  178.3820  142.1170 C   0  0  0  0  0  2  0  0  0  0  0  0
  183.5710  178.1850  143.0980 C   0  0  1  0  0  3  0  0  0  0  0  0
  182.9710  178.9360  144.2820 C   0  0  0  0  0  1  0  0  0  0  0  0
  182.8620  178.5050  141.8550 N   0  0  0  0  0  2  0  0  0  0  0  0
  181.4140  178.4930  142.0710 C   0  0  1  0  0  3  0  0  0  0  0  0
  179.3060  177.3690  141.0900 C   0  0  0  0  0  2  0  0  0  0  0  0
  181.4590  177.5220  139.6140 C   0  0  0  0  0  2  0  0  0  0  0  0
  180.7440  179.4650  141.1040 C   0  0  0  0  0  2  0  0  0  0  0  0
  180.6770  177.9820  140.8430 C   0  0  0  0  0  0  0  0  0  0  0  0
  179.3770  175.8670  140.8220 C   0  0  0  0  0  2  0  0  0  0  0  0
  181.3320  176.0050  139.4840 C   0  0  0  0  0  2  0  0  0  0  0  0
  179.9230  175.6130  139.4890 N   0  0  0  0  0  2  0  0  0  0  0  0
  1 17  1  0  0  0  0
  3 12  1  0  0  0  0
  3 14  1  1  0  0  0
  5  6  1  0  0  0  0
  6 16  1  6  0  0  0
  6  7  1  0  0  0  0
  7 10  1  6  0  0  0
  7  1  1  0  0  0  0
  9 22  1  1  0  0  0
  9  3  1  0  0  0  0
 11  9  1  0  0  0  0
 12  2  1  1  0  0  0
 12 13  1  0  0  0  0
 13  4  1  0  0  0  0
 14 18  1  0  0  0  0
 15 21  1  6  0  0  0
 15  2  1  0  0  0  0
 17 15  1  0  0  0  0
 17  8  2  0  0  0  0
 18  4  1  0  0  0  0
 19  5  1  6  0  0  0
 19 21  1  0  0  0  0
 20 19  1  0  0  0  0
 20 11  1  0  0  0  0
 22 23  1  1  0  0  0
 24 22  1  0  0  0  0
 25 24  1  6  0  0  0
 27 29  1  0  0  0  0
 28 25  1  0  0  0  0
 29 26  1  0  0  0  0
 29 28  1  0  0  0  0
 29 25  1  0  0  0  0
 30 26  1  0  0  0  0
 31 32  1  0  0  0  0
 31 27  1  0  0  0  0
 32 30  1  0  0  0  0
M  END
>  <MODEL>
5

>  <REMARK>
 VINA RESULT:      -6.3      4.152      8.706
  Name = 
  3 active torsions:
  status: ('A' for Active; 'I' for Inactive)
    1  A    between atoms: N_2  and  C_3
    2  A    between atoms: N_2  and  C_15
    3  A    between atoms: C_14  and  C_15
                            x       y       z     vdW  Elec       q    Type
                         _______ _______ _______ _____ _____    ______ ____

>  <TORSDO>
F 3

$$$$
=
 OpenBabel11032420193D

 32 36  0  0  1  0  0  0  0  0999 V2000
  185.9610  178.1380  140.3360 C   0  0  0  0  0  2  0  0  0  0  0  0
  182.9940  177.7020  138.1320 C   0  0  0  0  0  2  0  0  0  0  0  0
  180.5640  177.9040  138.8230 C   0  0  2  0  0  3  0  0  0  0  0  0
  180.6740  176.2650  136.4650 C   0  0  0  0  0  2  0  0  0  0  0  0
  183.6960  178.6300  142.9390 C   0  0  0  0  0  2  0  0  0  0  0  0
  185.1300  178.1480  142.6880 C   0  0  1  0  0  3  0  0  0  0  0  0
  185.8590  178.9710  141.6090 C   0  0  1  0  0  3  0  0  0  0  0  0
  185.4950  179.2810  138.3430 O   0  0  0  0  0  0  0  0  0  0  0  0
  180.4380  179.0470  139.8440 C   0  0  2  0  0  3  0  0  0  0  0  0
  187.1450  179.3450  142.0070 O   0  0  0  0  0  1  0  0  0  0  0  0
  180.4200  178.4780  141.1900 N   0  0  0  0  0  2  0  0  0  0  0  0
  181.6120  178.2290  137.7390 C   0  0  2  0  0  3  0  0  0  0  0  0
  181.2220  177.6870  136.3600 C   0  0  0  0  0  2  0  0  0  0  0  0
  179.2280  177.3970  138.2660 C   0  0  0  0  0  2  0  0  0  0  0  0
  183.5320  178.4460  139.3460 C   0  0  2  0  0  3  0  0  0  0  0  0
  185.8660  178.0880  144.0180 C   0  0  0  0  0  1  0  0  0  0  0  0
  185.0270  178.6450  139.2750 C   0  0  0  0  0  0  0  0  0  0  0  0
  179.4310  176.1760  137.3620 C   0  0  0  0  0  2  0  0  0  0  0  0
  182.8730  178.8650  141.6730 C   0  0  2  0  0  3  0  0  0  0  0  0
  181.4050  179.1760  142.0210 C   0  0  0  0  0  2  0  0  0  0  0  0
  183.0710  177.7710  140.6310 C   0  0  0  0  0  2  0  0  0  0  0  0
  179.2450  179.9940  139.5970 C   0  0  1  0  0  3  0  0  0  0  0  0
  178.9310  180.8810  140.7980 C   0  0  0  0  0  1  0  0  0  0  0  0
  179.4260  180.7940  138.3820 N   0  0  0  0  0  2  0  0  0  0  0  0
  180.1930  182.0060  138.6740 C   0  0  1  0  0  3  0  0  0  0  0  0
  181.1050  184.0810  137.4360 C   0  0  0  0  0  2  0  0  0  0  0  0
  180.5460  181.9310  136.0560 C   0  0  0  0  0  2  0  0  0  0  0  0
  181.6650  181.7730  138.3430 C   0  0  0  0  0  2  0  0  0  0  0  0
  180.8060  182.5890  137.4100 C   0  0  0  0  0  0  0  0  0  0  0  0
  180.1540  184.7950  136.4770 C   0  0  0  0  0  2  0  0  0  0  0  0
  179.6460  182.8430  135.2260 C   0  0  0  0  0  2  0  0  0  0  0  0
  180.2200  184.1860  135.1480 N   0  0  0  0  0  2  0  0  0  0  0  0
  1  7  1  0  0  0  0
  3 14  1  6  0  0  0
  3  9  1  0  0  0  0
  4 18  1  0  0  0  0
  6  5  1  0  0  0  0
  6 16  1  1  0  0  0
  7 10  1  1  0  0  0
  7  6  1  0  0  0  0
  8 17  2  0  0  0  0
  9 22  1  6  0  0  0
  9 11  1  0  0  0  0
 11 20  1  0  0  0  0
 12 13  1  6  0  0  0
 12  2  1  0  0  0  0
 12  3  1  0  0  0  0
 13  4  1  0  0  0  0
 15  2  1  6  0  0  0
 15 21  1  0  0  0  0
 17 15  1  0  0  0  0
 17  1  1  0  0  0  0
 18 14  1  0  0  0  0
 19 21  1  6  0  0  0
 19 20  1  0  0  0  0
 19  5  1  0  0  0  0
 22 23  1  1  0  0  0
 24 22  1  0  0  0  0
 25 24  1  6  0  0  0
 27 29  1  0  0  0  0
 28 25  1  0  0  0  0
 29 26  1  0  0  0  0
 29 28  1  0  0  0  0
 29 25  1  0  0  0  0
 30 26  1  0  0  0  0
 31 27  1  0  0  0  0
 32 31  1  0  0  0  0
 32 30  1  0  0  0  0
M  END
>  <MODEL>
6

>  <REMARK>
 VINA RESULT:      -6.1      5.291      9.523
  Name = 
  3 active torsions:
  status: ('A' for Active; 'I' for Inactive)
    1  A    between atoms: N_2  and  C_3
    2  A    between atoms: N_2  and  C_15
    3  A    between atoms: C_14  and  C_15
                            x       y       z     vdW  Elec       q    Type
                         _______ _______ _______ _____ _____    ______ ____

>  <TORSDO>
F 3

$$$$
=
 OpenBabel11032420193D

 32 36  0  0  1  0  0  0  0  0999 V2000
  185.8690  177.3890  137.0150 C   0  0  0  0  0  2  0  0  0  0  0  0
  189.3940  176.5960  137.9090 C   0  0  0  0  0  2  0  0  0  0  0  0
  190.5630  177.1800  140.0790 C   0  0  2  0  0  3  0  0  0  0  0  0
  192.5790  176.8270  138.0620 C   0  0  0  0  0  2  0  0  0  0  0  0
  185.6690  179.0010  140.0980 C   0  0  0  0  0  2  0  0  0  0  0  0
  185.0380  179.0290  138.7000 C   0  0  1  0  0  3  0  0  0  0  0  0
  184.8320  177.6230  138.1070 C   0  0  1  0  0  3  0  0  0  0  0  0
  186.8880  175.2770  137.0280 O   0  0  0  0  0  0  0  0  0  0  0  0
  189.5610  177.0210  141.2340 C   0  0  2  0  0  3  0  0  0  0  0  0
  183.5560  177.4610  137.5610 O   0  0  0  0  0  1  0  0  0  0  0  0
  189.0150  178.3330  141.5710 N   0  0  0  0  0  2  0  0  0  0  0  0
  190.3520  176.1030  138.9960 C   0  0  2  0  0  3  0  0  0  0  0  0
  191.6650  175.6390  138.3600 C   0  0  0  0  0  2  0  0  0  0  0  0
  192.0240  177.3410  140.5200 C   0  0  0  0  0  2  0  0  0  0  0  0
  187.9910  176.7840  138.4670 C   0  0  2  0  0  3  0  0  0  0  0  0
  183.7710  179.8680  138.7520 C   0  0  0  0  0  1  0  0  0  0  0  0
  186.9240  176.4180  137.4620 C   0  0  0  0  0  0  0  0  0  0  0  0
  192.9370  177.6270  139.3230 C   0  0  0  0  0  2  0  0  0  0  0  0
  186.8850  178.0850  140.2300 C   0  0  2  0  0  3  0  0  0  0  0  0
  187.5520  178.2520  141.6080 C   0  0  0  0  0  2  0  0  0  0  0  0
  187.8290  178.1860  139.0390 C   0  0  0  0  0  2  0  0  0  0  0  0
  190.1250  176.2910  142.4710 C   0  0  1  0  0  3  0  0  0  0  0  0
  191.5300  176.7520  142.8450 C   0  0  0  0  0  1  0  0  0  0  0  0
  189.2170  176.3800  143.6190 N   0  0  0  0  0  2  0  0  0  0  0  0
  189.9340  176.8460  144.8080 C   0  0  1  0  0  3  0  0  0  0  0  0
  189.4130  177.8300  147.1380 C   0  0  0  0  0  2  0  0  0  0  0  0
  187.6150  178.0320  145.2500 C   0  0  0  0  0  2  0  0  0  0  0  0
  190.0940  178.3630  144.7470 C   0  0  0  0  0  2  0  0  0  0  0  0
  189.0600  177.7530  145.6600 C   0  0  0  0  0  0  0  0  0  0  0  0
  188.3080  177.1550  147.9490 C   0  0  0  0  0  2  0  0  0  0  0  0
  186.6770  177.3370  146.2350 C   0  0  0  0  0  2  0  0  0  0  0  0
  187.0050  177.7250  147.6060 N   0  0  0  0  0  2  0  0  0  0  0  0
  1 17  1  0  0  0  0
  1  7  1  0  0  0  0
  3 14  1  1  0  0  0
  3  9  1  0  0  0  0
  4 13  1  0  0  0  0
  4 18  1  0  0  0  0
  5 19  1  0  0  0  0
  6 16  1  1  0  0  0
  6  5  1  0  0  0  0
  7 10  1  6  0  0  0
  7  6  1  0  0  0  0
  8 17  2  0  0  0  0
  9 11  1  0  0  0  0
  9 22  1  1  0  0  0
 11 20  1  0  0  0  0
 12  2  1  6  0  0  0
 12  3  1  0  0  0  0
 13 12  1  0  0  0  0
 15  2  1  6  0  0  0
 15 21  1  0  0  0  0
 17 15  1  0  0  0  0
 18 14  1  0  0  0  0
 19 21  1  6  0  0  0
 19 20  1  0  0  0  0
 22 23  1  1  0  0  0
 22 24  1  0  0  0  0
 25 24  1  6  0  0  0
 25 29  1  0  0  0  0
 26 30  1  0  0  0  0
 27 29  1  0  0  0  0
 27 31  1  0  0  0  0
 28 25  1  0  0  0  0
 28 29  1  0  0  0  0
 29 26  1  0  0  0  0
 31 32  1  0  0  0  0
 32 30  1  0  0  0  0
M  END
>  <MODEL>
7

>  <REMARK>
 VINA RESULT:      -5.9      2.654      4.094
  Name = 
  3 active torsions:
  status: ('A' for Active; 'I' for Inactive)
    1  A    between atoms: N_2  and  C_3
    2  A    between atoms: N_2  and  C_15
    3  A    between atoms: C_14  and  C_15
                            x       y       z     vdW  Elec       q    Type
                         _______ _______ _______ _____ _____    ______ ____

>  <TORSDO>
F 3

$$$$
=
 OpenBabel11032420193D

 32 36  0  0  1  0  0  0  0  0999 V2000
  185.0010  178.5100  142.2100 C   0  0  0  0  0  2  0  0  0  0  0  0
  184.1540  177.3970  138.7610 C   0  0  0  0  0  2  0  0  0  0  0  0
  181.8410  177.3250  137.7290 C   0  0  2  0  0  3  0  0  0  0  0  0
  183.4980  175.4570  136.3060 C   0  0  0  0  0  2  0  0  0  0  0  0
  181.5780  178.9670  142.6800 C   0  0  0  0  0  2  0  0  0  0  0  0
  182.8570  178.6720  143.4740 C   0  0  1  0  0  3  0  0  0  0  0  0
  184.0770  179.4610  142.9610 C   0  0  1  0  0  3  0  0  0  0  0  0
  185.8790  179.3350  140.1990 O   0  0  0  0  0  0  0  0  0  0  0  0
  181.0480  178.5480  138.2180 C   0  0  2  0  0  3  0  0  0  0  0  0
  184.7940  180.0610  144.0010 O   0  0  0  0  0  1  0  0  0  0  0  0
  180.1930  178.1430  139.3310 N   0  0  0  0  0  2  0  0  0  0  0  0
  183.3270  177.6700  137.5030 C   0  0  2  0  0  3  0  0  0  0  0  0
  183.9320  176.9220  136.3110 C   0  0  0  0  0  2  0  0  0  0  0  0
  181.1930  176.5700  136.5620 C   0  0  0  0  0  2  0  0  0  0  0  0
  183.7620  178.3470  139.8840 C   0  0  2  0  0  3  0  0  0  0  0  0
  182.5710  178.8730  144.9540 C   0  0  0  0  0  1  0  0  0  0  0  0
  184.9470  178.7500  140.7290 C   0  0  0  0  0  0  0  0  0  0  0  0
  181.9730  175.2940  136.2250 C   0  0  0  0  0  2  0  0  0  0  0  0
  181.7500  178.9330  141.1610 C   0  0  2  0  0  3  0  0  0  0  0  0
  180.3890  179.0670  140.4520 C   0  0  0  0  0  2  0  0  0  0  0  0
  182.6100  177.7660  140.6940 C   0  0  0  0  0  2  0  0  0  0  0  0
  180.2560  179.2780  137.1130 C   0  0  1  0  0  3  0  0  0  0  0  0
  178.9340  178.5950  136.7790 C   0  0  0  0  0  1  0  0  0  0  0  0
  180.0550  180.6950  137.4310 N   0  0  0  0  0  2  0  0  0  0  0  0
  180.8440  181.5410  136.5340 C   0  0  1  0  0  3  0  0  0  0  0  0
  181.1850  184.0480  136.0160 C   0  0  0  0  0  2  0  0  0  0  0  0
  178.9740  183.2890  137.1870 C   0  0  0  0  0  2  0  0  0  0  0  0
  180.0100  181.9070  135.3090 C   0  0  0  0  0  2  0  0  0  0  0  0
  180.2310  182.9260  136.3990 C   0  0  0  0  0  0  0  0  0  0  0  0
  181.3480  184.9900  137.2070 C   0  0  0  0  0  2  0  0  0  0  0  0
  179.3420  184.3000  138.2700 C   0  0  0  0  0  2  0  0  0  0  0  0
  180.0400  185.4420  137.6810 N   0  0  0  0  0  2  0  0  0  0  0  0
  1  7  1  0  0  0  0
  3 14  1  6  0  0  0
  3  9  1  0  0  0  0
  4 13  1  0  0  0  0
  5  6  1  0  0  0  0
  6 16  1  1  0  0  0
  7  6  1  0  0  0  0
  7 10  1  1  0  0  0
  8 17  2  0  0  0  0
  9 22  1  6  0  0  0
  9 11  1  0  0  0  0
 11 20  1  0  0  0  0
 12 13  1  6  0  0  0
 12  3  1  0  0  0  0
 12  2  1  0  0  0  0
 15  2  1  6  0  0  0
 15 21  1  0  0  0  0
 15 17  1  0  0  0  0
 17  1  1  0  0  0  0
 18  4  1  0  0  0  0
 18 14  1  0  0  0  0
 19 20  1  6  0  0  0
 19  5  1  0  0  0  0
 21 19  1  0  0  0  0
 22 23  1  1  0  0  0
 22 24  1  0  0  0  0
 25 24  1  1  0  0  0
 26 29  1  0  0  0  0
 26 30  1  0  0  0  0
 27 31  1  0  0  0  0
 28 29  1  0  0  0  0
 28 25  1  0  0  0  0
 29 25  1  0  0  0  0
 29 27  1  0  0  0  0
 30 32  1  0  0  0  0
 32 31  1  0  0  0  0
M  END
>  <MODEL>
8

>  <REMARK>
 VINA RESULT:      -5.7      5.315      9.254
  Name = 
  3 active torsions:
  status: ('A' for Active; 'I' for Inactive)
    1  A    between atoms: N_2  and  C_3
    2  A    between atoms: N_2  and  C_15
    3  A    between atoms: C_14  and  C_15
                            x       y       z     vdW  Elec       q    Type
                         _______ _______ _______ _____ _____    ______ ____

>  <TORSDO>
F 3

$$$$
=
 OpenBabel11032420193D

 32 36  0  0  1  0  0  0  0  0999 V2000
  186.6820  179.0020  140.9880 C   0  0  0  0  0  2  0  0  0  0  0  0
  183.3090  179.1520  139.4210 C   0  0  0  0  0  2  0  0  0  0  0  0
  182.6610  178.2220  137.1550 C   0  0  2  0  0  3  0  0  0  0  0  0
  180.7860  180.2950  137.8240 C   0  0  0  0  0  2  0  0  0  0  0  0
  187.7430  177.4360  138.0610 C   0  0  0  0  0  2  0  0  0  0  0  0
  188.2830  178.2960  139.2110 C   0  0  1  0  0  3  0  0  0  0  0  0
  187.6750  177.9220  140.5760 C   0  0  1  0  0  3  0  0  0  0  0  0
  184.6630  178.2240  141.8910 O   0  0  0  0  0  0  0  0  0  0  0  0
  183.4070  176.8950  136.9380 C   0  0  2  0  0  3  0  0  0  0  0  0
  188.6470  177.7980  141.5720 O   0  0  0  0  0  1  0  0  0  0  0  0
  184.5890  177.1460  136.1180 N   0  0  0  0  0  2  0  0  0  0  0  0
  182.2390  178.3980  138.6280 C   0  0  2  0  0  3  0  0  0  0  0  0
  180.8890  179.1050  138.7760 C   0  0  0  0  0  2  0  0  0  0  0  0
  181.5340  178.4920  136.1490 C   0  0  0  0  0  2  0  0  0  0  0  0
  184.5810  178.3250  139.5380 C   0  0  2  0  0  3  0  0  0  0  0  0
  189.8030  178.2530  139.1820 C   0  0  0  0  0  1  0  0  0  0  0  0
  185.2650  178.5160  140.8700 C   0  0  0  0  0  0  0  0  0  0  0  0
  180.9330  179.8870  136.3500 C   0  0  0  0  0  2  0  0  0  0  0  0
  186.2230  177.2780  138.0440 C   0  0  2  0  0  3  0  0  0  0  0  0
  185.7610  176.5510  136.7670 C   0  0  0  0  0  2  0  0  0  0  0  0
  185.4940  178.5810  138.3450 C   0  0  0  0  0  2  0  0  0  0  0  0
  182.5330  175.7590  136.3670 C   0  0  1  0  0  3  0  0  0  0  0  0
  182.7250  175.5570  134.8670 C   0  0  0  0  0  1  0  0  0  0  0  0
  182.7240  174.5020  137.0980 N   0  0  0  0  0  2  0  0  0  0  0  0
  183.8190  173.7270  136.5120 C   0  0  1  0  0  3  0  0  0  0  0  0
  184.2460  171.3620  135.5660 C   0  0  0  0  0  2  0  0  0  0  0  0
  182.2400  171.7260  137.2040 C   0  0  0  0  0  2  0  0  0  0  0  0
  184.4820  172.8780  137.5930 C   0  0  0  0  0  2  0  0  0  0  0  0
  183.5480  172.2330  136.6000 C   0  0  0  0  0  0  0  0  0  0  0  0
  183.2010  170.7960  134.6060 C   0  0  0  0  0  2  0  0  0  0  0  0
  181.3800  171.1270  136.0920 C   0  0  0  0  0  2  0  0  0  0  0  0
  182.1390  170.1200  135.3520 N   0  0  0  0  0  2  0  0  0  0  0  0
  2 15  1  0  0  0  0
  3 14  1  6  0  0  0
  3 12  1  0  0  0  0
  4 13  1  0  0  0  0
  5  6  1  0  0  0  0
  6 16  1  1  0  0  0
  6  7  1  0  0  0  0
  7  1  1  0  0  0  0
  7 10  1  1  0  0  0
  9 22  1  6  0  0  0
  9  3  1  0  0  0  0
 11 20  1  0  0  0  0
 11  9  1  0  0  0  0
 12 13  1  6  0  0  0
 12  2  1  0  0  0  0
 14 18  1  0  0  0  0
 15 21  1  6  0  0  0
 15 17  1  0  0  0  0
 17  1  1  0  0  0  0
 17  8  2  0  0  0  0
 18  4  1  0  0  0  0
 19 20  1  6  0  0  0
 19  5  1  0  0  0  0
 19 21  1  0  0  0  0
 22 23  1  6  0  0  0
 22 24  1  0  0  0  0
 25 29  1  0  0  0  0
 25 24  1  1  0  0  0
 25 28  1  0  0  0  0
 26 29  1  0  0  0  0
 29 27  1  0  0  0  0
 29 28  1  0  0  0  0
 30 32  1  0  0  0  0
 30 26  1  0  0  0  0
 31 27  1  0  0  0  0
 32 31  1  0  0  0  0
M  END
>  <MODEL>
9

>  <REMARK>
 VINA RESULT:      -5.3      3.721      8.447
  Name = 
  3 active torsions:
  status: ('A' for Active; 'I' for Inactive)
    1  A    between atoms: N_2  and  C_3
    2  A    between atoms: N_2  and  C_15
    3  A    between atoms: C_14  and  C_15
                            x       y       z     vdW  Elec       q    Type
                         _______ _______ _______ _____ _____    ______ ____

>  <TORSDO>
F 3

$$$$
