=
 OpenBabel11042411583D

 37 41  0  0  1  0  0  0  0  0999 V2000
  187.4700  177.7570  148.2100 C   0  0  0  0  0  2  0  0  0  0  0  0
  180.8200  179.3860  142.2580 O   0  0  0  0  0  0  0  0  0  0  0  0
  181.9830  179.0260  141.9320 C   0  0  0  0  0  0  0  0  0  0  0  0
  190.0870  176.8640  144.7640 C   0  0  0  0  0  0  0  0  0  0  0  0
  189.8890  178.1450  148.0180 C   0  0  0  0  0  3  0  0  0  0  0  0
  185.6060  177.9910  142.5250 S   0  0  0  0  0  0  0  0  0  0  0  0
  188.7070  178.5550  148.4810 C   0  0  0  0  0  3  0  0  0  0  0  0
  183.0310  178.7790  142.8230 C   0  0  0  0  0  0  0  0  0  0  0  0
  185.7500  178.2020  146.5120 C   0  0  0  0  0  3  0  0  0  0  0  0
  186.0690  177.9510  144.1420 C   0  0  0  0  0  0  0  0  0  0  0  0
  185.2240  178.2780  145.2190 C   0  0  0  0  0  0  0  0  0  0  0  0
  181.8270  179.2580  144.7020 O   0  0  0  0  0  0  0  0  0  0  0  0
  183.6290  178.4710  140.7320 C   0  0  0  0  0  0  0  0  0  0  0  0
  183.9210  178.6640  145.1410 N   0  0  0  0  0  2  0  0  0  0  0  0
  182.3400  178.8330  140.6500 N   0  0  0  0  0  0  0  0  0  0  0  0
  187.3870  177.5640  144.3870 C   0  0  0  0  0  3  0  0  0  0  0  0
  191.4420  176.4190  147.1950 C   0  0  0  0  0  1  0  0  0  0  0  0
  189.9920  176.8890  147.2110 C   0  0  2  0  0  3  0  0  0  0  0  0
  190.8030  176.6620  143.6930 C   0  0  0  0  0  3  0  0  0  0  0  0
  187.0690  177.8210  146.7660 C   0  0  0  0  0  0  0  0  0  0  0  0
  184.0500  178.4280  142.0490 C   0  0  0  0  0  0  0  0  0  0  0  0
  182.9370  178.8980  144.2280 C   0  0  0  0  0  0  0  0  0  0  0  0
  189.3600  177.0710  145.8410 C   0  0  0  0  0  0  0  0  0  0  0  0
  187.9220  177.4810  145.6830 C   0  0  0  0  0  0  0  0  0  0  0  0
  191.2460  177.8180  142.8700 C   0  0  0  0  0  2  0  0  0  0  0  0
  191.3200  177.4020  141.4160 C   0  0  0  0  0  2  0  0  0  0  0  0
  189.3390  177.4060  140.4470 C   0  0  0  0  0  1  0  0  0  0  0  0
  190.2390  176.5750  141.1110 O   0  0  0  0  0  0  0  0  0  0  0  0
  184.4480  178.1060  139.5400 C   0  0  0  0  0  2  0  0  0  0  0  0
  185.2790  179.2320  139.1530 N   0  0  0  0  0  2  0  0  0  0  0  0
  186.4700  178.6990  138.6480 N   0  0  0  0  0  2  0  0  0  0  0  0
  186.0950  177.6950  137.6660 C   0  0  0  0  0  2  0  0  0  0  0  0
  187.2460  177.4580  136.7080 C   0  0  2  0  0  3  0  0  0  0  0  0
  189.4560  177.9490  136.3640 N   0  0  0  0  0  2  0  0  0  0  0  0
  189.6180  176.6210  136.9330 C   0  0  0  0  0  2  0  0  0  0  0  0
  187.9880  175.8440  137.0410 S   0  0  0  0  0  0  0  0  0  0  0  0
  188.2680  178.4730  136.8960 N   0  0  0  0  0  2  0  0  0  0  0  0
  1  7  1  0  0  0  0
  3  2  2  0  0  0  0
  3  8  1  0  0  0  0
  4 23  2  0  0  0  0
  5  7  2  0  0  0  0
  6 10  1  0  0  0  0
  8 22  1  0  0  0  0
  9 20  1  0  0  0  0
 10 16  2  0  0  0  0
 10 11  1  0  0  0  0
 11  9  2  0  0  0  0
 13 21  1  0  0  0  0
 14 11  1  0  0  0  0
 15 13  2  0  0  0  0
 15  3  1  0  0  0  0
 16 24  1  0  0  0  0
 18 17  1  6  0  0  0
 18  5  1  0  0  0  0
 19  4  2  0  0  0  0
 20  1  1  0  0  0  0
 21  6  1  0  0  0  0
 21  8  2  0  0  0  0
 22 12  2  0  0  0  0
 22 14  1  0  0  0  0
 23 18  1  0  0  0  0
 24 23  1  0  0  0  0
 24 20  2  0  0  0  0
 25 19  1  0  0  0  0
 26 25  1  0  0  0  0
 27 28  1  0  0  0  0
 28 26  1  0  0  0  0
 29 13  1  0  0  0  0
 30 29  1  0  0  0  0
 31 30  1  0  0  0  0
 32 31  1  0  0  0  0
 33 37  1  0  0  0  0
 33 36  1  0  0  0  0
 33 32  1  1  0  0  0
 34 37  1  0  0  0  0
 34 35  1  0  0  0  0
 35 36  1  0  0  0  0
M  END
>  <MODEL>
1

>  <REMARK>
 VINA RESULT:      -9.9      0.000      0.000
  Name = 
  8 active torsions:
  status: ('A' for Active; 'I' for Inactive)
    1  A    between atoms: C_5  and  C_30
    2  A    between atoms: C_8  and  C_16
    3  A    between atoms: C_8  and  C_29
    4  A    between atoms: N_11  and  C_30
    5  A    between atoms: N_11  and  N_34
    6  A    between atoms: C_16  and  O_33
    7  A    between atoms: C_20  and  C_22
    8  A    between atoms: C_20  and  N_34
                            x       y       z     vdW  Elec       q    Type
                         _______ _______ _______ _____ _____    ______ ____

>  <TORSDO>
F 8

$$$$
=
 OpenBabel11042411583D

 37 41  0  0  1  0  0  0  0  0999 V2000
  184.3830  178.9280  142.8730 C   0  0  0  0  0  2  0  0  0  0  0  0
  189.2230  177.7830  135.2860 O   0  0  0  0  0  0  0  0  0  0  0  0
  189.6500  177.5100  136.4400 C   0  0  0  0  0  0  0  0  0  0  0  0
  187.8880  177.4420  145.1150 C   0  0  0  0  0  0  0  0  0  0  0  0
  185.1130  179.5810  145.1280 C   0  0  0  0  0  3  0  0  0  0  0  0
  189.4810  177.2180  140.2390 S   0  0  0  0  0  0  0  0  0  0  0  0
  184.5670  179.9370  143.9630 C   0  0  0  0  0  3  0  0  0  0  0  0
  188.9340  177.6870  137.6270 C   0  0  0  0  0  0  0  0  0  0  0  0
  185.7910  178.6070  140.8850 C   0  0  0  0  0  3  0  0  0  0  0  0
  188.0260  177.7200  140.9180 C   0  0  0  0  0  0  0  0  0  0  0  0
  186.9380  178.2260  140.1820 C   0  0  0  0  0  0  0  0  0  0  0  0
  187.0610  178.5200  136.6230 O   0  0  0  0  0  0  0  0  0  0  0  0
  190.9410  176.8660  137.9820 C   0  0  0  0  0  0  0  0  0  0  0  0
  186.8740  178.3830  138.8320 N   0  0  0  0  0  2  0  0  0  0  0  0
  190.8770  177.0030  136.6490 N   0  0  0  0  0  0  0  0  0  0  0  0
  187.9330  177.6120  142.3070 C   0  0  0  0  0  3  0  0  0  0  0  0
  185.7200  177.9270  146.8490 C   0  0  0  0  0  1  0  0  0  0  0  0
  185.5620  178.1710  145.3530 C   0  0  2  0  0  3  0  0  0  0  0  0
  188.9800  177.0390  145.7030 C   0  0  0  0  0  3  0  0  0  0  0  0
  185.6920  178.5080  142.2740 C   0  0  0  0  0  0  0  0  0  0  0  0
  189.7600  177.2720  138.5790 C   0  0  0  0  0  0  0  0  0  0  0  0
  187.6190  178.1980  137.7060 C   0  0  0  0  0  0  0  0  0  0  0  0
  186.7900  177.8510  144.5170 C   0  0  0  0  0  0  0  0  0  0  0  0
  186.7840  177.9900  143.0200 C   0  0  0  0  0  0  0  0  0  0  0  0
  190.1470  177.9530  145.8050 C   0  0  0  0  0  2  0  0  0  0  0  0
  191.3830  177.2530  145.2800 C   0  0  0  0  0  2  0  0  0  0  0  0
  191.4670  178.9830  143.9150 C   0  0  0  0  0  1  0  0  0  0  0  0
  191.5810  177.5940  143.9430 O   0  0  0  0  0  0  0  0  0  0  0  0
  192.1230  176.2880  138.6840 C   0  0  0  0  0  2  0  0  0  0  0  0
  193.3390  176.6690  137.9900 N   0  0  0  0  0  2  0  0  0  0  0  0
  194.2140  175.5810  138.0840 N   0  0  0  0  0  2  0  0  0  0  0  0
  194.5940  175.2320  136.7250 C   0  0  0  0  0  2  0  0  0  0  0  0
  195.9770  174.6100  136.7210 C   0  0  2  0  0  3  0  0  0  0  0  0
  198.1980  175.1150  136.9590 N   0  0  0  0  0  2  0  0  0  0  0  0
  197.9470  174.6160  138.3010 C   0  0  0  0  0  2  0  0  0  0  0  0
  196.3060  173.8540  138.3290 S   0  0  0  0  0  0  0  0  0  0  0  0
  196.9820  175.6330  136.4870 N   0  0  0  0  0  2  0  0  0  0  0  0
  1  7  1  0  0  0  0
  2  3  2  0  0  0  0
  3 15  1  0  0  0  0
  3  8  1  0  0  0  0
  4 19  2  0  0  0  0
  5 18  1  0  0  0  0
  6 10  1  0  0  0  0
  7  5  2  0  0  0  0
  8 22  1  0  0  0  0
  8 21  2  0  0  0  0
  9 20  1  0  0  0  0
 10 16  2  0  0  0  0
 11  9  2  0  0  0  0
 11 10  1  0  0  0  0
 12 22  2  0  0  0  0
 13 21  1  0  0  0  0
 13 29  1  0  0  0  0
 14 11  1  0  0  0  0
 15 13  2  0  0  0  0
 16 24  1  0  0  0  0
 18 17  1  1  0  0  0
 19 25  1  0  0  0  0
 20  1  1  0  0  0  0
 20 24  2  0  0  0  0
 21  6  1  0  0  0  0
 22 14  1  0  0  0  0
 23  4  2  0  0  0  0
 23 18  1  0  0  0  0
 24 23  1  0  0  0  0
 26 25  1  0  0  0  0
 27 28  1  0  0  0  0
 28 26  1  0  0  0  0
 30 31  1  0  0  0  0
 30 29  1  0  0  0  0
 32 31  1  0  0  0  0
 33 32  1  1  0  0  0
 33 36  1  0  0  0  0
 34 35  1  0  0  0  0
 35 36  1  0  0  0  0
 37 33  1  0  0  0  0
 37 34  1  0  0  0  0
M  END
>  <MODEL>
2

>  <REMARK>
 VINA RESULT:      -9.3      3.888      6.882
  Name = 
  8 active torsions:
  status: ('A' for Active; 'I' for Inactive)
    1  A    between atoms: C_5  and  C_30
    2  A    between atoms: C_8  and  C_16
    3  A    between atoms: C_8  and  C_29
    4  A    between atoms: N_11  and  C_30
    5  A    between atoms: N_11  and  N_34
    6  A    between atoms: C_16  and  O_33
    7  A    between atoms: C_20  and  C_22
    8  A    between atoms: C_20  and  N_34
                            x       y       z     vdW  Elec       q    Type
                         _______ _______ _______ _____ _____    ______ ____

>  <TORSDO>
F 8

$$$$
=
 OpenBabel11042411583D

 37 41  0  0  1  0  0  0  0  0999 V2000
  187.6420  177.5670  148.1890 C   0  0  0  0  0  2  0  0  0  0  0  0
  181.2550  179.3340  141.9930 O   0  0  0  0  0  0  0  0  0  0  0  0
  182.4370  178.9990  141.7090 C   0  0  0  0  0  0  0  0  0  0  0  0
  190.4290  176.8330  144.8400 C   0  0  0  0  0  0  0  0  0  0  0  0
  190.0620  177.9920  148.1260 C   0  0  0  0  0  3  0  0  0  0  0  0
  186.0420  177.9880  142.4350 S   0  0  0  0  0  0  0  0  0  0  0  0
  188.8540  178.3700  148.5460 C   0  0  0  0  0  3  0  0  0  0  0  0
  183.4450  178.7330  142.6390 C   0  0  0  0  0  0  0  0  0  0  0  0
  185.9970  178.0530  146.4290 C   0  0  0  0  0  3  0  0  0  0  0  0
  186.4300  177.8940  144.0690 C   0  0  0  0  0  0  0  0  0  0  0  0
  185.5310  178.1700  145.1160 C   0  0  0  0  0  0  0  0  0  0  0  0
  182.1490  179.1270  144.4760 O   0  0  0  0  0  0  0  0  0  0  0  0
  184.1450  178.5090  140.5690 C   0  0  0  0  0  0  0  0  0  0  0  0
  184.2280  178.5430  144.9910 N   0  0  0  0  0  2  0  0  0  0  0  0
  182.8560  178.8590  140.4400 N   0  0  0  0  0  0  0  0  0  0  0  0
  187.7410  177.5140  144.3630 C   0  0  0  0  0  3  0  0  0  0  0  0
  191.6750  176.3160  147.3140 C   0  0  0  0  0  1  0  0  0  0  0  0
  190.2200  176.7670  147.2800 C   0  0  2  0  0  3  0  0  0  0  0  0
  191.1970  176.6800  143.7970 C   0  0  0  0  0  3  0  0  0  0  0  0
  187.3080  177.6790  146.7310 C   0  0  0  0  0  0  0  0  0  0  0  0
  184.5050  178.4230  141.9030 C   0  0  0  0  0  0  0  0  0  0  0  0
  183.2850  178.7990  144.0420 C   0  0  0  0  0  0  0  0  0  0  0  0
  189.6500  176.9910  145.8890 C   0  0  0  0  0  0  0  0  0  0  0  0
  188.2160  177.3900  145.6780 C   0  0  0  0  0  0  0  0  0  0  0  0
  191.6620  177.8710  143.0390 C   0  0  0  0  0  2  0  0  0  0  0  0
  191.5880  177.5830  141.5540 C   0  0  0  0  0  2  0  0  0  0  0  0
  190.2910  177.3560  139.7850 C   0  0  0  0  0  1  0  0  0  0  0  0
  190.2560  177.4160  141.1770 O   0  0  0  0  0  0  0  0  0  0  0  0
  185.0230  178.1980  139.4050 C   0  0  0  0  0  2  0  0  0  0  0  0
  184.2770  178.3630  138.1700 N   0  0  0  0  0  2  0  0  0  0  0  0
  184.7270  177.3700  137.2920 N   0  0  0  0  0  2  0  0  0  0  0  0
  184.0090  176.1540  137.6340 C   0  0  0  0  0  2  0  0  0  0  0  0
  184.7100  174.9550  137.0240 C   0  0  2  0  0  3  0  0  0  0  0  0
  184.6970  172.6660  136.9880 N   0  0  0  0  0  2  0  0  0  0  0  0
  183.9680  172.9030  135.7530 C   0  0  0  0  0  2  0  0  0  0  0  0
  184.0760  174.6660  135.3570 S   0  0  0  0  0  0  0  0  0  0  0  0
  184.4500  173.7680  137.8210 N   0  0  0  0  0  2  0  0  0  0  0  0
  1  7  1  0  0  0  0
  3  2  2  0  0  0  0
  3  8  1  0  0  0  0
  4 23  2  0  0  0  0
  5  7  2  0  0  0  0
  6 10  1  0  0  0  0
  8 22  1  0  0  0  0
  9 20  1  0  0  0  0
 10 16  2  0  0  0  0
 10 11  1  0  0  0  0
 11  9  2  0  0  0  0
 13 21  1  0  0  0  0
 14 11  1  0  0  0  0
 15 13  2  0  0  0  0
 15  3  1  0  0  0  0
 16 24  1  0  0  0  0
 18 17  1  6  0  0  0
 18  5  1  0  0  0  0
 19  4  2  0  0  0  0
 20  1  1  0  0  0  0
 21  6  1  0  0  0  0
 21  8  2  0  0  0  0
 22 12  2  0  0  0  0
 22 14  1  0  0  0  0
 23 18  1  0  0  0  0
 24 23  1  0  0  0  0
 24 20  2  0  0  0  0
 25 19  1  0  0  0  0
 26 25  1  0  0  0  0
 27 28  1  0  0  0  0
 28 26  1  0  0  0  0
 29 13  1  0  0  0  0
 30 29  1  0  0  0  0
 31 32  1  0  0  0  0
 31 30  1  0  0  0  0
 33 32  1  1  0  0  0
 33 37  1  0  0  0  0
 34 37  1  0  0  0  0
 35 34  1  0  0  0  0
 36 35  1  0  0  0  0
 36 33  1  0  0  0  0
M  END
>  <MODEL>
3

>  <REMARK>
 VINA RESULT:      -9.1      2.042      2.269
  Name = 
  8 active torsions:
  status: ('A' for Active; 'I' for Inactive)
    1  A    between atoms: C_5  and  C_30
    2  A    between atoms: C_8  and  C_16
    3  A    between atoms: C_8  and  C_29
    4  A    between atoms: N_11  and  C_30
    5  A    between atoms: N_11  and  N_34
    6  A    between atoms: C_16  and  O_33
    7  A    between atoms: C_20  and  C_22
    8  A    between atoms: C_20  and  N_34
                            x       y       z     vdW  Elec       q    Type
                         _______ _______ _______ _____ _____    ______ ____

>  <TORSDO>
F 8

$$$$
=
 OpenBabel11042411583D

 37 41  0  0  1  0  0  0  0  0999 V2000
  191.2790  176.9210  145.9200 C   0  0  0  0  0  2  0  0  0  0  0  0
  190.5060  176.8840  136.8810 O   0  0  0  0  0  0  0  0  0  0  0  0
  189.5950  177.2680  137.6630 C   0  0  0  0  0  0  0  0  0  0  0  0
  187.1440  178.4680  146.0850 C   0  0  0  0  0  0  0  0  0  0  0  0
  189.5850  176.5020  147.6510 C   0  0  0  0  0  3  0  0  0  0  0  0
  187.9890  178.0210  141.0400 S   0  0  0  0  0  0  0  0  0  0  0  0
  190.6050  176.0400  146.9260 C   0  0  0  0  0  3  0  0  0  0  0  0
  189.6790  177.2740  139.0580 C   0  0  0  0  0  0  0  0  0  0  0  0
  190.9530  176.9240  143.4850 C   0  0  0  0  0  3  0  0  0  0  0  0
  188.9620  177.6840  142.3710 C   0  0  0  0  0  0  0  0  0  0  0  0
  190.2640  177.1550  142.2900 C   0  0  0  0  0  0  0  0  0  0  0  0
  191.7980  176.4310  139.1460 O   0  0  0  0  0  0  0  0  0  0  0  0
  187.7410  178.0200  138.3400 C   0  0  0  0  0  0  0  0  0  0  0  0
  190.9440  176.8410  141.1540 N   0  0  0  0  0  2  0  0  0  0  0  0
  188.4140  177.7280  137.2160 N   0  0  0  0  0  0  0  0  0  0  0  0
  188.4020  177.9620  143.6190 C   0  0  0  0  0  3  0  0  0  0  0  0
  188.2610  178.3140  148.6680 C   0  0  0  0  0  1  0  0  0  0  0  0
  189.0920  177.9020  147.4580 C   0  0  2  0  0  3  0  0  0  0  0  0
  185.9070  178.8780  146.0470 C   0  0  0  0  0  3  0  0  0  0  0  0
  190.3990  177.1930  144.7370 C   0  0  0  0  0  0  0  0  0  0  0  0
  188.5090  177.7540  139.4610 C   0  0  0  0  0  0  0  0  0  0  0  0
  190.8050  176.8490  139.7990 C   0  0  0  0  0  0  0  0  0  0  0  0
  188.3920  178.0510  146.1180 C   0  0  0  0  0  0  0  0  0  0  0  0
  189.0890  177.7360  144.8230 C   0  0  0  0  0  0  0  0  0  0  0  0
  184.8190  177.9190  145.7200 C   0  0  0  0  0  2  0  0  0  0  0  0
  183.8050  178.5950  144.8200 C   0  0  0  0  0  2  0  0  0  0  0  0
  184.3290  178.5590  142.6780 C   0  0  0  0  0  1  0  0  0  0  0  0
  184.4690  179.3250  143.8340 O   0  0  0  0  0  0  0  0  0  0  0  0
  186.3730  178.6120  138.3380 C   0  0  0  0  0  2  0  0  0  0  0  0
  185.4830  177.7860  137.5410 N   0  0  0  0  0  2  0  0  0  0  0  0
  184.2260  177.8440  138.1530 N   0  0  0  0  0  2  0  0  0  0  0  0
  184.2340  179.0120  139.0170 C   0  0  0  0  0  2  0  0  0  0  0  0
  182.8390  179.6000  139.1000 C   0  0  2  0  0  3  0  0  0  0  0  0
  181.5850  181.4050  138.4560 N   0  0  0  0  0  2  0  0  0  0  0  0
  181.1610  180.4710  137.4260 C   0  0  0  0  0  2  0  0  0  0  0  0
  181.7800  178.8260  137.8570 S   0  0  0  0  0  0  0  0  0  0  0  0
  182.8830  181.0280  138.8320 N   0  0  0  0  0  2  0  0  0  0  0  0
  1  7  1  0  0  0  0
  2  3  2  0  0  0  0
  3  8  1  0  0  0  0
  4 23  2  0  0  0  0
  6 10  1  0  0  0  0
  7  5  2  0  0  0  0
  8 21  2  0  0  0  0
  8 22  1  0  0  0  0
  9 20  1  0  0  0  0
 10 16  2  0  0  0  0
 11 10  1  0  0  0  0
 11  9  2  0  0  0  0
 12 22  2  0  0  0  0
 13 21  1  0  0  0  0
 14 11  1  0  0  0  0
 15  3  1  0  0  0  0
 15 13  2  0  0  0  0
 16 24  1  0  0  0  0
 18  5  1  0  0  0  0
 18 17  1  1  0  0  0
 19  4  2  0  0  0  0
 20 24  2  0  0  0  0
 20  1  1  0  0  0  0
 21  6  1  0  0  0  0
 22 14  1  0  0  0  0
 23 18  1  0  0  0  0
 24 23  1  0  0  0  0
 25 19  1  0  0  0  0
 26 25  1  0  0  0  0
 27 28  1  0  0  0  0
 28 26  1  0  0  0  0
 29 13  1  0  0  0  0
 30 31  1  0  0  0  0
 30 29  1  0  0  0  0
 31 32  1  0  0  0  0
 33 32  1  6  0  0  0
 34 37  1  0  0  0  0
 35 36  1  0  0  0  0
 35 34  1  0  0  0  0
 36 33  1  0  0  0  0
 37 33  1  0  0  0  0
M  END
>  <MODEL>
4

>  <REMARK>
 VINA RESULT:      -8.9      2.260      6.107
  Name = 
  8 active torsions:
  status: ('A' for Active; 'I' for Inactive)
    1  A    between atoms: C_5  and  C_30
    2  A    between atoms: C_8  and  C_16
    3  A    between atoms: C_8  and  C_29
    4  A    between atoms: N_11  and  C_30
    5  A    between atoms: N_11  and  N_34
    6  A    between atoms: C_16  and  O_33
    7  A    between atoms: C_20  and  C_22
    8  A    between atoms: C_20  and  N_34
                            x       y       z     vdW  Elec       q    Type
                         _______ _______ _______ _____ _____    ______ ____

>  <TORSDO>
F 8

$$$$
=
 OpenBabel11042411583D

 37 41  0  0  1  0  0  0  0  0999 V2000
  191.5380  177.0080  145.7220 C   0  0  0  0  0  2  0  0  0  0  0  0
  190.5790  176.9270  136.7010 O   0  0  0  0  0  0  0  0  0  0  0  0
  189.6720  177.2790  137.5010 C   0  0  0  0  0  0  0  0  0  0  0  0
  187.3530  178.4030  145.9700 C   0  0  0  0  0  0  0  0  0  0  0  0
  189.8960  176.5310  147.4880 C   0  0  0  0  0  3  0  0  0  0  0  0
  188.1090  177.9780  140.9100 S   0  0  0  0  0  0  0  0  0  0  0  0
  190.9180  176.1060  146.7420 C   0  0  0  0  0  3  0  0  0  0  0  0
  189.7840  177.2910  138.8940 C   0  0  0  0  0  0  0  0  0  0  0  0
  191.1610  176.9950  143.2930 C   0  0  0  0  0  3  0  0  0  0  0  0
  189.1220  177.6800  142.2200 C   0  0  0  0  0  0  0  0  0  0  0  0
  190.4400  177.1990  142.1130 C   0  0  0  0  0  0  0  0  0  0  0  0
  191.9340  176.5260  138.9380 O   0  0  0  0  0  0  0  0  0  0  0  0
  187.8060  177.9630  138.2150 C   0  0  0  0  0  0  0  0  0  0  0  0
  191.1070  176.9080  140.9640 N   0  0  0  0  0  2  0  0  0  0  0  0
  188.4650  177.6950  137.0780 N   0  0  0  0  0  0  0  0  0  0  0  0
  188.5780  177.9390  143.4800 C   0  0  0  0  0  3  0  0  0  0  0  0
  188.5290  178.2940  148.5300 C   0  0  0  0  0  1  0  0  0  0  0  0
  189.3490  177.9120  147.3030 C   0  0  2  0  0  3  0  0  0  0  0  0
  186.1010  178.7670  145.9580 C   0  0  0  0  0  3  0  0  0  0  0  0
  190.6240  177.2460  144.5570 C   0  0  0  0  0  0  0  0  0  0  0  0
  188.6060  177.7270  139.3200 C   0  0  0  0  0  0  0  0  0  0  0  0
  190.9400  176.9090  139.6110 C   0  0  0  0  0  0  0  0  0  0  0  0
  188.6160  178.0330  145.9780 C   0  0  0  0  0  0  0  0  0  0  0  0
  189.2970  177.7400  144.6690 C   0  0  0  0  0  0  0  0  0  0  0  0
  185.0430  177.7690  145.6550 C   0  0  0  0  0  2  0  0  0  0  0  0
  184.2450  178.2290  144.4530 C   0  0  0  0  0  2  0  0  0  0  0  0
  184.2990  178.6400  142.2870 C   0  0  0  0  0  1  0  0  0  0  0  0
  185.1150  178.5610  143.4140 O   0  0  0  0  0  0  0  0  0  0  0  0
  186.4170  178.5050  138.2410 C   0  0  0  0  0  2  0  0  0  0  0  0
  185.6760  178.0070  137.0960 N   0  0  0  0  0  2  0  0  0  0  0  0
  184.9080  176.9290  137.5510 N   0  0  0  0  0  2  0  0  0  0  0  0
  184.3960  176.2530  136.3710 C   0  0  0  0  0  2  0  0  0  0  0  0
  184.9850  174.8590  136.2810 C   0  0  2  0  0  3  0  0  0  0  0  0
  186.2890  173.3590  137.4180 N   0  0  0  0  0  2  0  0  0  0  0  0
  184.9860  172.8170  137.7670 C   0  0  0  0  0  2  0  0  0  0  0  0
  183.7350  173.6420  136.7530 S   0  0  0  0  0  0  0  0  0  0  0  0
  186.1080  174.7320  137.1940 N   0  0  0  0  0  2  0  0  0  0  0  0
  1  7  1  0  0  0  0
  2  3  2  0  0  0  0
  3  8  1  0  0  0  0
  4 23  2  0  0  0  0
  6 10  1  0  0  0  0
  7  5  2  0  0  0  0
  8 21  2  0  0  0  0
  8 22  1  0  0  0  0
  9 20  1  0  0  0  0
 10 16  2  0  0  0  0
 11 10  1  0  0  0  0
 11  9  2  0  0  0  0
 12 22  2  0  0  0  0
 13 29  1  0  0  0  0
 13 21  1  0  0  0  0
 14 11  1  0  0  0  0
 15  3  1  0  0  0  0
 15 13  2  0  0  0  0
 16 24  1  0  0  0  0
 18  5  1  0  0  0  0
 18 17  1  1  0  0  0
 19  4  2  0  0  0  0
 20 24  2  0  0  0  0
 20  1  1  0  0  0  0
 21  6  1  0  0  0  0
 22 14  1  0  0  0  0
 23 18  1  0  0  0  0
 24 23  1  0  0  0  0
 25 19  1  0  0  0  0
 26 25  1  0  0  0  0
 27 28  1  0  0  0  0
 28 26  1  0  0  0  0
 30 31  1  0  0  0  0
 30 29  1  0  0  0  0
 32 31  1  0  0  0  0
 33 32  1  1  0  0  0
 33 36  1  0  0  0  0
 33 37  1  0  0  0  0
 34 35  1  0  0  0  0
 36 35  1  0  0  0  0
 37 34  1  0  0  0  0
M  END
>  <MODEL>
5

>  <REMARK>
 VINA RESULT:      -8.5      2.494      5.765
  Name = 
  8 active torsions:
  status: ('A' for Active; 'I' for Inactive)
    1  A    between atoms: C_5  and  C_30
    2  A    between atoms: C_8  and  C_16
    3  A    between atoms: C_8  and  C_29
    4  A    between atoms: N_11  and  C_30
    5  A    between atoms: N_11  and  N_34
    6  A    between atoms: C_16  and  O_33
    7  A    between atoms: C_20  and  C_22
    8  A    between atoms: C_20  and  N_34
                            x       y       z     vdW  Elec       q    Type
                         _______ _______ _______ _____ _____    ______ ____

>  <TORSDO>
F 8

$$$$
=
 OpenBabel11042411583D

 37 41  0  0  1  0  0  0  0  0999 V2000
  185.1290  178.4280  147.2540 C   0  0  0  0  0  2  0  0  0  0  0  0
  179.5870  179.6990  140.1850 O   0  0  0  0  0  0  0  0  0  0  0  0
  180.7770  179.2980  140.0820 C   0  0  0  0  0  0  0  0  0  0  0  0
  188.2490  177.2390  144.3600 C   0  0  0  0  0  0  0  0  0  0  0  0
  187.5570  178.7650  147.4360 C   0  0  0  0  0  3  0  0  0  0  0  0
  184.2250  178.2590  141.3370 S   0  0  0  0  0  0  0  0  0  0  0  0
  186.3260  179.2260  147.6660 C   0  0  0  0  0  3  0  0  0  0  0  0
  181.6580  179.1040  141.1490 C   0  0  0  0  0  0  0  0  0  0  0  0
  183.7220  178.7680  145.2680 C   0  0  0  0  0  3  0  0  0  0  0  0
  184.4170  178.3340  143.0070 C   0  0  0  0  0  0  0  0  0  0  0  0
  183.4160  178.7540  143.9040 C   0  0  0  0  0  0  0  0  0  0  0  0
  180.1770  179.7410  142.7640 O   0  0  0  0  0  0  0  0  0  0  0  0
  182.5820  178.6300  139.2130 C   0  0  0  0  0  0  0  0  0  0  0  0
  182.1550  179.1510  143.5840 N   0  0  0  0  0  2  0  0  0  0  0  0
  181.3340  179.0040  138.8940 N   0  0  0  0  0  0  0  0  0  0  0  0
  185.6670  177.9480  143.4940 C   0  0  0  0  0  3  0  0  0  0  0  0
  189.1760  176.9600  147.0070 C   0  0  0  0  0  1  0  0  0  0  0  0
  187.7560  177.4500  146.7500 C   0  0  2  0  0  3  0  0  0  0  0  0
  189.1240  176.9470  143.4390 C   0  0  0  0  0  3  0  0  0  0  0  0
  184.9710  178.3880  145.7630 C   0  0  0  0  0  0  0  0  0  0  0  0
  182.7810  178.6810  140.5810 C   0  0  0  0  0  0  0  0  0  0  0  0
  181.3400  179.3300  142.5070 C   0  0  0  0  0  0  0  0  0  0  0  0
  187.3620  177.5370  145.2850 C   0  0  0  0  0  0  0  0  0  0  0  0
  185.9800  177.9550  144.8620 C   0  0  0  0  0  0  0  0  0  0  0  0
  189.7270  178.0300  142.6200 C   0  0  0  0  0  2  0  0  0  0  0  0
  191.2040  178.1400  142.9370 C   0  0  0  0  0  2  0  0  0  0  0  0
  191.8840  177.4790  140.9460 C   0  0  0  0  0  1  0  0  0  0  0  0
  191.8980  177.1170  142.2930 O   0  0  0  0  0  0  0  0  0  0  0  0
  183.5740  178.1640  138.2020 C   0  0  0  0  0  2  0  0  0  0  0  0
  183.5360  176.7160  138.1090 N   0  0  0  0  0  2  0  0  0  0  0  0
  183.8110  176.3900  136.7760 N   0  0  0  0  0  2  0  0  0  0  0  0
  185.1190  175.7570  136.7620 C   0  0  0  0  0  2  0  0  0  0  0  0
  184.9750  174.2870  136.4190 C   0  0  2  0  0  3  0  0  0  0  0  0
  184.2310  172.2900  137.2550 N   0  0  0  0  0  2  0  0  0  0  0  0
  183.0760  172.6230  136.4370 C   0  0  0  0  0  2  0  0  0  0  0  0
  183.5020  174.0440  135.4010 S   0  0  0  0  0  0  0  0  0  0  0  0
  184.8210  173.5050  137.6340 N   0  0  0  0  0  2  0  0  0  0  0  0
  1  7  1  0  0  0  0
  3  2  2  0  0  0  0
  3  8  1  0  0  0  0
  4 23  2  0  0  0  0
  5  7  2  0  0  0  0
  6 10  1  0  0  0  0
  8 22  1  0  0  0  0
  9 20  1  0  0  0  0
 10 16  2  0  0  0  0
 10 11  1  0  0  0  0
 11  9  2  0  0  0  0
 13 21  1  0  0  0  0
 14 11  1  0  0  0  0
 15 13  2  0  0  0  0
 15  3  1  0  0  0  0
 16 24  1  0  0  0  0
 18 17  1  6  0  0  0
 18  5  1  0  0  0  0
 19  4  2  0  0  0  0
 20  1  1  0  0  0  0
 21  8  2  0  0  0  0
 21  6  1  0  0  0  0
 22 12  2  0  0  0  0
 22 14  1  0  0  0  0
 23 18  1  0  0  0  0
 24 23  1  0  0  0  0
 24 20  2  0  0  0  0
 25 26  1  0  0  0  0
 25 19  1  0  0  0  0
 27 28  1  0  0  0  0
 28 26  1  0  0  0  0
 29 13  1  0  0  0  0
 30 29  1  0  0  0  0
 31 30  1  0  0  0  0
 32 31  1  0  0  0  0
 33 32  1  1  0  0  0
 33 37  1  0  0  0  0
 34 37  1  0  0  0  0
 35 34  1  0  0  0  0
 36 33  1  0  0  0  0
 36 35  1  0  0  0  0
M  END
>  <MODEL>
6

>  <REMARK>
 VINA RESULT:      -8.4      2.565      3.157
  Name = 
  8 active torsions:
  status: ('A' for Active; 'I' for Inactive)
    1  A    between atoms: C_5  and  C_30
    2  A    between atoms: C_8  and  C_16
    3  A    between atoms: C_8  and  C_29
    4  A    between atoms: N_11  and  C_30
    5  A    between atoms: N_11  and  N_34
    6  A    between atoms: C_16  and  O_33
    7  A    between atoms: C_20  and  C_22
    8  A    between atoms: C_20  and  N_34
                            x       y       z     vdW  Elec       q    Type
                         _______ _______ _______ _____ _____    ______ ____

>  <TORSDO>
F 8

$$$$
=
 OpenBabel11042411583D

 37 41  0  0  1  0  0  0  0  0999 V2000
  187.1170  177.4890  146.3180 C   0  0  0  0  0  2  0  0  0  0  0  0
  179.3730  179.6380  142.1080 O   0  0  0  0  0  0  0  0  0  0  0  0
  180.4370  179.3290  141.5080 C   0  0  0  0  0  0  0  0  0  0  0  0
  188.9380  176.9960  142.3220 C   0  0  0  0  0  0  0  0  0  0  0  0
  189.4440  177.9290  145.6610 C   0  0  0  0  0  3  0  0  0  0  0  0
  184.0950  178.2890  141.2110 S   0  0  0  0  0  0  0  0  0  0  0  0
  188.3890  178.2710  146.4030 C   0  0  0  0  0  3  0  0  0  0  0  0
  181.6480  179.0060  142.1270 C   0  0  0  0  0  0  0  0  0  0  0  0
  185.0810  178.0840  145.0770 C   0  0  0  0  0  3  0  0  0  0  0  0
  184.8890  178.0870  142.6810 C   0  0  0  0  0  0  0  0  0  0  0  0
  184.2930  178.2880  143.9400 C   0  0  0  0  0  0  0  0  0  0  0  0
  180.8730  179.2690  144.2580 O   0  0  0  0  0  0  0  0  0  0  0  0
  181.7880  178.9250  139.9360 C   0  0  0  0  0  0  0  0  0  0  0  0
  183.0070  178.6610  144.1800 N   0  0  0  0  0  2  0  0  0  0  0  0
  180.5140  179.2760  140.1670 N   0  0  0  0  0  0  0  0  0  0  0  0
  186.2260  177.6940  142.6000 C   0  0  0  0  0  3  0  0  0  0  0  0
  190.7730  176.3200  144.3520 C   0  0  0  0  0  1  0  0  0  0  0  0
  189.3630  176.7650  144.7240 C   0  0  2  0  0  3  0  0  0  0  0  0
  189.4100  176.9180  141.1090 C   0  0  0  0  0  3  0  0  0  0  0  0
  186.4200  177.6970  145.0060 C   0  0  0  0  0  0  0  0  0  0  0  0
  182.4780  178.7510  141.1230 C   0  0  0  0  0  0  0  0  0  0  0  0
  181.8550  178.9760  143.5240 C   0  0  0  0  0  0  0  0  0  0  0  0
  188.4580  177.0800  143.5440 C   0  0  0  0  0  0  0  0  0  0  0  0
  187.0220  177.4840  143.7370 C   0  0  0  0  0  0  0  0  0  0  0  0
  189.6790  178.1590  140.3380 C   0  0  0  0  0  2  0  0  0  0  0  0
  188.6300  178.3180  139.2570 C   0  0  0  0  0  2  0  0  0  0  0  0
  189.7750  177.5130  137.5530 C   0  0  0  0  0  1  0  0  0  0  0  0
  189.2430  178.6960  138.0630 O   0  0  0  0  0  0  0  0  0  0  0  0
  182.3330  178.6980  138.5670 C   0  0  0  0  0  2  0  0  0  0  0  0
  182.0410  177.3410  138.1420 N   0  0  0  0  0  2  0  0  0  0  0  0
  183.2670  176.7440  137.8290 N   0  0  0  0  0  2  0  0  0  0  0  0
  183.2280  175.3980  138.3730 C   0  0  0  0  0  2  0  0  0  0  0  0
  183.6790  174.4040  137.3200 C   0  0  2  0  0  3  0  0  0  0  0  0
  184.6780  172.3600  137.0580 N   0  0  0  0  0  2  0  0  0  0  0  0
  183.2940  171.9440  136.8990 C   0  0  0  0  0  2  0  0  0  0  0  0
  182.2640  173.4260  136.7650 S   0  0  0  0  0  0  0  0  0  0  0  0
  184.6650  173.4960  137.8820 N   0  0  0  0  0  2  0  0  0  0  0  0
  1  7  1  0  0  0  0
  3  2  2  0  0  0  0
  3  8  1  0  0  0  0
  4 23  2  0  0  0  0
  5  7  2  0  0  0  0
  6 10  1  0  0  0  0
  8 22  1  0  0  0  0
 10 11  1  0  0  0  0
 11 14  1  0  0  0  0
 11  9  2  0  0  0  0
 13 15  2  0  0  0  0
 13 21  1  0  0  0  0
 15  3  1  0  0  0  0
 16 10  2  0  0  0  0
 16 24  1  0  0  0  0
 18 17  1  6  0  0  0
 18  5  1  0  0  0  0
 19  4  2  0  0  0  0
 20  9  1  0  0  0  0
 20  1  1  0  0  0  0
 21  6  1  0  0  0  0
 21  8  2  0  0  0  0
 22 14  1  0  0  0  0
 22 12  2  0  0  0  0
 23 24  1  0  0  0  0
 23 18  1  0  0  0  0
 24 20  2  0  0  0  0
 25 19  1  0  0  0  0
 26 25  1  0  0  0  0
 27 28  1  0  0  0  0
 28 26  1  0  0  0  0
 29 13  1  0  0  0  0
 30 29  1  0  0  0  0
 31 30  1  0  0  0  0
 31 32  1  0  0  0  0
 33 37  1  0  0  0  0
 33 32  1  1  0  0  0
 34 37  1  0  0  0  0
 35 34  1  0  0  0  0
 36 35  1  0  0  0  0
 36 33  1  0  0  0  0
M  END
>  <MODEL>
7

>  <REMARK>
 VINA RESULT:      -7.9      2.701      3.332
  Name = 
  8 active torsions:
  status: ('A' for Active; 'I' for Inactive)
    1  A    between atoms: C_5  and  C_30
    2  A    between atoms: C_8  and  C_16
    3  A    between atoms: C_8  and  C_29
    4  A    between atoms: N_11  and  C_30
    5  A    between atoms: N_11  and  N_34
    6  A    between atoms: C_16  and  O_33
    7  A    between atoms: C_20  and  C_22
    8  A    between atoms: C_20  and  N_34
                            x       y       z     vdW  Elec       q    Type
                         _______ _______ _______ _____ _____    ______ ____

>  <TORSDO>
F 8

$$$$
=
 OpenBabel11042411583D

 37 41  0  0  1  0  0  0  0  0999 V2000
  187.6360  178.1910  145.5050 C   0  0  0  0  0  2  0  0  0  0  0  0
  193.4710  176.5630  138.7520 O   0  0  0  0  0  0  0  0  0  0  0  0
  192.2440  176.7950  138.5810 C   0  0  0  0  0  0  0  0  0  0  0  0
  184.4710  178.5410  142.4420 C   0  0  0  0  0  0  0  0  0  0  0  0
  185.2620  177.5890  145.7190 C   0  0  0  0  0  3  0  0  0  0  0  0
  188.6650  177.5810  139.6380 S   0  0  0  0  0  0  0  0  0  0  0  0
  186.5330  177.3230  146.0260 C   0  0  0  0  0  3  0  0  0  0  0  0
  191.3180  177.0370  139.6000 C   0  0  0  0  0  0  0  0  0  0  0  0
  189.1240  177.7320  143.6040 C   0  0  0  0  0  3  0  0  0  0  0  0
  188.4410  177.7330  141.2990 C   0  0  0  0  0  0  0  0  0  0  0  0
  189.4610  177.5780  142.2560 C   0  0  0  0  0  0  0  0  0  0  0  0
  192.8230  176.8360  141.3040 O   0  0  0  0  0  0  0  0  0  0  0  0
  190.3950  177.0990  137.6070 C   0  0  0  0  0  0  0  0  0  0  0  0
  190.7690  177.2950  142.0100 N   0  0  0  0  0  2  0  0  0  0  0  0
  191.6870  176.8370  137.3580 N   0  0  0  0  0  0  0  0  0  0  0  0
  187.1410  178.0320  141.7120 C   0  0  0  0  0  3  0  0  0  0  0  0
  183.4490  179.0980  145.0080 C   0  0  0  0  0  1  0  0  0  0  0  0
  184.9240  178.7520  144.8400 C   0  0  2  0  0  3  0  0  0  0  0  0
  183.5910  178.5830  141.4810 C   0  0  0  0  0  3  0  0  0  0  0  0
  187.8260  178.0260  144.0270 C   0  0  0  0  0  0  0  0  0  0  0  0
  190.1680  177.2300  138.9660 C   0  0  0  0  0  0  0  0  0  0  0  0
  191.6260  177.0580  140.9780 C   0  0  0  0  0  0  0  0  0  0  0  0
  185.3630  178.4960  143.4080 C   0  0  0  0  0  0  0  0  0  0  0  0
  186.7950  178.1910  143.0640 C   0  0  0  0  0  0  0  0  0  0  0  0
  183.1440  177.3230  140.8310 C   0  0  0  0  0  2  0  0  0  0  0  0
  183.3790  177.4150  139.3380 C   0  0  0  0  0  2  0  0  0  0  0  0
  185.1420  178.0800  138.1920 C   0  0  0  0  0  1  0  0  0  0  0  0
  184.1490  178.5420  139.0550 O   0  0  0  0  0  0  0  0  0  0  0  0
  189.3800  177.2830  136.5300 C   0  0  0  0  0  2  0  0  0  0  0  0
  189.1420  176.0170  135.8610 N   0  0  0  0  0  2  0  0  0  0  0  0
  187.7560  175.8230  135.8480 N   0  0  0  0  0  2  0  0  0  0  0  0
  187.4370  175.0100  137.0100 C   0  0  0  0  0  2  0  0  0  0  0  0
  186.3470  174.0170  136.6590 C   0  0  2  0  0  3  0  0  0  0  0  0
  184.7640  172.6500  137.5910 N   0  0  0  0  0  2  0  0  0  0  0  0
  183.9010  173.7650  137.2370 C   0  0  0  0  0  2  0  0  0  0  0  0
  184.8430  174.9060  136.1950 S   0  0  0  0  0  0  0  0  0  0  0  0
  186.0430  173.1830  137.8100 N   0  0  0  0  0  2  0  0  0  0  0  0
  1  7  1  0  0  0  0
  3  2  2  0  0  0  0
  3  8  1  0  0  0  0
  4 23  2  0  0  0  0
  5  7  2  0  0  0  0
  6 10  1  0  0  0  0
  8 22  1  0  0  0  0
  9 20  1  0  0  0  0
 10 16  2  0  0  0  0
 10 11  1  0  0  0  0
 11  9  2  0  0  0  0
 13 21  1  0  0  0  0
 14 11  1  0  0  0  0
 15 13  2  0  0  0  0
 15  3  1  0  0  0  0
 16 24  1  0  0  0  0
 18 17  1  6  0  0  0
 18  5  1  0  0  0  0
 19  4  2  0  0  0  0
 20  1  1  0  0  0  0
 21  8  2  0  0  0  0
 21  6  1  0  0  0  0
 22 12  2  0  0  0  0
 22 14  1  0  0  0  0
 23 18  1  0  0  0  0
 24 23  1  0  0  0  0
 24 20  2  0  0  0  0
 25 19  1  0  0  0  0
 26 25  1  0  0  0  0
 27 28  1  0  0  0  0
 28 26  1  0  0  0  0
 29 13  1  0  0  0  0
 30 29  1  0  0  0  0
 31 30  1  0  0  0  0
 31 32  1  0  0  0  0
 33 32  1  1  0  0  0
 33 37  1  0  0  0  0
 34 37  1  0  0  0  0
 35 34  1  0  0  0  0
 36 33  1  0  0  0  0
 36 35  1  0  0  0  0
M  END
>  <MODEL>
8

>  <REMARK>
 VINA RESULT:      -7.9      3.120      6.811
  Name = 
  8 active torsions:
  status: ('A' for Active; 'I' for Inactive)
    1  A    between atoms: C_5  and  C_30
    2  A    between atoms: C_8  and  C_16
    3  A    between atoms: C_8  and  C_29
    4  A    between atoms: N_11  and  C_30
    5  A    between atoms: N_11  and  N_34
    6  A    between atoms: C_16  and  O_33
    7  A    between atoms: C_20  and  C_22
    8  A    between atoms: C_20  and  N_34
                            x       y       z     vdW  Elec       q    Type
                         _______ _______ _______ _____ _____    ______ ____

>  <TORSDO>
F 8

$$$$
=
 OpenBabel11042411583D

 37 41  0  0  1  0  0  0  0  0999 V2000
  185.2740  177.3020  135.6350 C   0  0  0  0  0  2  0  0  0  0  0  0
  179.8240  178.6680  142.7580 O   0  0  0  0  0  0  0  0  0  0  0  0
  181.0810  178.7480  142.8090 C   0  0  0  0  0  0  0  0  0  0  0  0
  188.6890  178.0500  138.3370 C   0  0  0  0  0  0  0  0  0  0  0  0
  187.5180  176.3050  135.5330 C   0  0  0  0  0  3  0  0  0  0  0  0
  184.6390  178.6220  141.4410 S   0  0  0  0  0  0  0  0  0  0  0  0
  186.2030  176.1600  135.3660 C   0  0  0  0  0  3  0  0  0  0  0  0
  181.9470  178.5320  141.7330 C   0  0  0  0  0  0  0  0  0  0  0  0
  183.8920  177.6620  137.6350 C   0  0  0  0  0  3  0  0  0  0  0  0
  184.7500  178.2400  139.8060 C   0  0  0  0  0  0  0  0  0  0  0  0
  183.6450  177.9690  138.9760 C   0  0  0  0  0  0  0  0  0  0  0  0
  180.2990  178.0710  140.2240 O   0  0  0  0  0  0  0  0  0  0  0  0
  183.0260  179.0370  143.5800 C   0  0  0  0  0  0  0  0  0  0  0  0
  182.3340  177.9770  139.3410 N   0  0  0  0  0  2  0  0  0  0  0  0
  181.7340  179.0640  143.9410 N   0  0  0  0  0  0  0  0  0  0  0  0
  186.0410  178.1990  139.2770 C   0  0  0  0  0  3  0  0  0  0  0  0
  189.5720  177.6570  135.6890 C   0  0  0  0  0  1  0  0  0  0  0  0
  188.0810  177.6100  136.0050 C   0  0  2  0  0  3  0  0  0  0  0  0
  189.6400  178.2370  139.2090 C   0  0  0  0  0  3  0  0  0  0  0  0
  185.1800  177.6140  137.0990 C   0  0  0  0  0  0  0  0  0  0  0  0
  183.1600  178.7230  142.2380 C   0  0  0  0  0  0  0  0  0  0  0  0
  181.5370  178.1910  140.4250 C   0  0  0  0  0  0  0  0  0  0  0  0
  187.7260  177.8590  137.4610 C   0  0  0  0  0  0  0  0  0  0  0  0
  186.2970  177.8960  137.9300 C   0  0  0  0  0  0  0  0  0  0  0  0
  189.9600  177.1730  140.1950 C   0  0  0  0  0  2  0  0  0  0  0  0
  189.2670  177.4770  141.5070 C   0  0  0  0  0  2  0  0  0  0  0  0
  190.9770  176.7530  142.6960 C   0  0  0  0  0  1  0  0  0  0  0  0
  189.6240  176.5200  142.4570 O   0  0  0  0  0  0  0  0  0  0  0  0
  184.1380  179.3720  144.5150 C   0  0  0  0  0  2  0  0  0  0  0  0
  183.8050  178.9210  145.8540 N   0  0  0  0  0  2  0  0  0  0  0  0
  185.0100  178.8340  146.5600 N   0  0  0  0  0  2  0  0  0  0  0  0
  186.0600  178.6470  145.5740 C   0  0  0  0  0  2  0  0  0  0  0  0
  187.0690  177.6370  146.0830 C   0  0  2  0  0  3  0  0  0  0  0  0
  189.3070  177.1480  146.0920 N   0  0  0  0  0  2  0  0  0  0  0  0
  189.2170  177.7620  147.4060 C   0  0  0  0  0  2  0  0  0  0  0  0
  187.4680  177.9950  147.8090 S   0  0  0  0  0  0  0  0  0  0  0  0
  188.2950  177.7230  145.3070 N   0  0  0  0  0  2  0  0  0  0  0  0
  1 20  1  0  0  0  0
  2  3  2  0  0  0  0
  3 15  1  0  0  0  0
  4 19  2  0  0  0  0
  5 18  1  0  0  0  0
  6 21  1  0  0  0  0
  7  5  2  0  0  0  0
  7  1  1  0  0  0  0
  8 21  2  0  0  0  0
  8  3  1  0  0  0  0
  9 11  1  0  0  0  0
 10  6  1  0  0  0  0
 11 14  1  0  0  0  0
 11 10  2  0  0  0  0
 12 22  2  0  0  0  0
 13 15  2  0  0  0  0
 13 29  1  0  0  0  0
 14 22  1  0  0  0  0
 16 10  1  0  0  0  0
 18 17  1  1  0  0  0
 18 23  1  0  0  0  0
 19 25  1  0  0  0  0
 20  9  2  0  0  0  0
 20 24  1  0  0  0  0
 21 13  1  0  0  0  0
 22  8  1  0  0  0  0
 23 24  1  0  0  0  0
 23  4  2  0  0  0  0
 24 16  2  0  0  0  0
 25 26  1  0  0  0  0
 26 28  1  0  0  0  0
 28 27  1  0  0  0  0
 29 30  1  0  0  0  0
 30 31  1  0  0  0  0
 32 31  1  0  0  0  0
 33 32  1  6  0  0  0
 33 36  1  0  0  0  0
 34 35  1  0  0  0  0
 35 36  1  0  0  0  0
 37 33  1  0  0  0  0
 37 34  1  0  0  0  0
M  END
>  <MODEL>
9

>  <REMARK>
 VINA RESULT:      -7.8      2.495      7.485
  Name = 
  8 active torsions:
  status: ('A' for Active; 'I' for Inactive)
    1  A    between atoms: C_5  and  C_30
    2  A    between atoms: C_8  and  C_16
    3  A    between atoms: C_8  and  C_29
    4  A    between atoms: N_11  and  C_30
    5  A    between atoms: N_11  and  N_34
    6  A    between atoms: C_16  and  O_33
    7  A    between atoms: C_20  and  C_22
    8  A    between atoms: C_20  and  N_34
                            x       y       z     vdW  Elec       q    Type
                         _______ _______ _______ _____ _____    ______ ____

>  <TORSDO>
F 8

$$$$
