=
 OpenBabel11032420223D

 53 54  0  0  1  0  0  0  0  0999 V2000
  184.0160  179.4920  139.8610 N   0  0  0  0  0  0  0  0  0  0  0  0
  182.9210  178.5780  139.4970 C   0  0  1  0  0  3  0  0  0  0  0  0
  183.2560  178.1490  138.1310 C   0  0  0  0  0  0  0  0  0  0  0  0
  181.4960  178.3500  136.2160 C   0  0  0  0  0  3  0  0  0  0  0  0
  185.1530  179.0940  139.1250 N   0  0  0  0  0  2  0  0  0  0  0  0
  182.3750  178.2500  137.1730 C   0  0  0  0  0  0  0  0  0  0  0  0
  184.6680  178.4950  137.8850 C   0  0  1  0  0  3  0  0  0  0  0  0
  182.8270  177.3270  140.3760 C   0  0  0  0  0  1  0  0  0  0  0  0
  185.4580  177.2340  137.5890 C   0  0  0  0  0  2  0  0  0  0  0  0
  186.9530  177.5180  137.6670 C   0  0  0  0  0  2  0  0  0  0  0  0
  187.3310  178.1750  135.1250 Cl  0  0  0  0  0  0  0  0  0  0  0  0
  187.7370  177.0430  136.4400 C   0  0  1  0  0  0  0  0  0  0  0  0
  189.5470  177.1360  136.7550 S   0  0  0  0  0  0  0  0  0  0  0  0
  189.4140  177.8780  138.4150 C   0  0  0  0  0  2  0  0  0  0  0  0
  189.9520  176.9370  139.4330 C   0  0  0  0  0  0  0  0  0  0  0  0
  190.6960  175.9860  139.0720 O   0  0  0  0  0  0  0  0  0  0  0  0
  189.5880  177.0980  140.8050 N   0  0  0  0  0  2  0  0  0  0  0  0
  190.1310  176.2580  141.8650 C   0  0  0  0  0  2  0  0  0  0  0  0
  191.4590  176.7990  142.3900 C   0  0  1  0  0  3  0  0  0  0  0  0
  191.6000  178.1610  142.1040 O   0  0  0  0  0  1  0  0  0  0  0  0
  191.6420  176.5230  143.8820 C   0  0  2  0  0  3  0  0  0  0  0  0
  192.1640  175.2440  144.0900 O   0  0  0  0  0  1  0  0  0  0  0  0
  190.3120  176.6610  144.6050 C   0  0  0  0  0  2  0  0  0  0  0  0
  190.4220  177.6210  145.6120 O   0  0  0  0  0  0  0  0  0  0  0  0
  190.1300  176.9300  146.7890 C   0  0  0  0  0  2  0  0  0  0  0  0
  191.3460  176.9100  147.7000 C   0  0  0  0  0  2  0  0  0  0  0  0
  193.2240  175.5990  148.3940 O   0  0  0  0  0  1  0  0  0  0  0  0
  192.1920  175.6690  147.4580 C   0  0  0  0  0  2  0  0  0  0  0  0
  187.2850  175.6420  135.9950 C   0  0  0  0  0  2  0  0  0  0  0  0
  187.9420  174.5100  136.7720 C   0  0  0  0  0  2  0  0  0  0  0  0
  187.9850  173.2660  135.9120 C   0  0  0  0  0  2  0  0  0  0  0  0
  186.7170  172.6880  135.8700 O   0  0  0  0  0  1  0  0  0  0  0  0
  184.3470  179.4650  141.2860 C   0  0  0  0  0  2  0  0  0  0  0  0
  185.3380  178.4770  141.5420 O   0  0  0  0  0  0  0  0  0  0  0  0
  185.3480  178.1920  145.2250 C   0  0  0  0  0  0  0  0  0  0  0  0
  187.2890  177.0280  144.3610 C   0  0  0  0  0  3  0  0  0  0  0  0
  184.9700  178.5300  143.9220 C   0  0  0  0  0  3  0  0  0  0  0  0
  185.7470  178.1230  142.8320 C   0  0  0  0  0  0  0  0  0  0  0  0
  186.5090  177.4420  145.4440 C   0  0  0  0  0  3  0  0  0  0  0  0
  184.5190  178.6300  146.3770 C   0  0  0  0  0  1  0  0  0  0  0  0
  186.9090  177.3660  143.0590 C   0  0  0  0  0  3  0  0  0  0  0  0
  181.0250  177.1290  135.5110 C   0  0  0  0  0  2  0  0  0  0  0  0
  182.2120  176.2430  135.1900 C   0  0  0  0  0  2  0  0  0  0  0  0
  181.7560  174.8120  134.9690 C   0  0  0  0  0  2  0  0  0  0  0  0
  180.4440  174.6530  135.4240 O   0  0  0  0  0  0  0  0  0  0  0  0
  180.4640  173.4780  136.1830 C   0  0  1  0  0  3  0  0  0  0  0  0
  179.9560  173.7410  137.6010 C   0  0  0  0  0  2  0  0  0  0  0  0
  179.9090  175.9780  138.7190 O   0  0  0  0  0  1  0  0  0  0  0  0
  181.9010  174.8980  138.3620 O   0  0  0  0  0  0  0  0  0  0  0  0
  180.6470  174.8960  138.2550 C   0  0  0  0  0  0  0  0  0  0  0  0
  179.6440  172.3860  135.5030 C   0  0  0  0  0  2  0  0  0  0  0  0
  180.5340  171.2600  135.0060 C   0  0  0  0  0  2  0  0  0  0  0  0
  181.7160  171.2250  135.7460 O   0  0  0  0  0  1  0  0  0  0  0  0
  1 33  1  0  0  0  0
  2  1  1  0  0  0  0
  2  8  1  1  0  0  0
  3  2  1  0  0  0  0
  4  6  2  0  0  0  0
  5  1  1  0  0  0  0
  6  3  2  0  0  0  0
  7  9  1  1  0  0  0
  7  3  1  0  0  0  0
  7  5  1  0  0  0  0
  9 10  1  0  0  0  0
 12 11  1  6  0  0  0
 12 13  1  0  0  0  0
 12 10  1  0  0  0  0
 13 14  1  0  0  0  0
 14 15  1  0  0  0  0
 15 17  1  0  0  0  0
 16 15  2  0  0  0  0
 17 18  1  0  0  0  0
 18 19  1  0  0  0  0
 19 20  1  1  0  0  0
 19 21  1  0  0  0  0
 21 22  1  6  0  0  0
 21 23  1  0  0  0  0
 23 24  1  0  0  0  0
 24 25  1  0  0  0  0
 25 26  1  0  0  0  0
 28 26  1  0  0  0  0
 28 27  1  0  0  0  0
 29 12  1  0  0  0  0
 29 30  1  0  0  0  0
 31 30  1  0  0  0  0
 32 31  1  0  0  0  0
 33 34  1  0  0  0  0
 34 38  1  0  0  0  0
 35 39  1  0  0  0  0
 35 40  1  0  0  0  0
 36 39  2  0  0  0  0
 37 35  2  0  0  0  0
 38 41  2  0  0  0  0
 38 37  1  0  0  0  0
 41 36  1  0  0  0  0
 42  4  1  0  0  0  0
 43 42  1  0  0  0  0
 44 43  1  0  0  0  0
 44 45  1  0  0  0  0
 45 46  1  0  0  0  0
 46 51  1  6  0  0  0
 46 47  1  0  0  0  0
 47 50  1  0  0  0  0
 50 49  2  0  0  0  0
 50 48  1  0  0  0  0
 52 51  1  0  0  0  0
 52 53  1  0  0  0  0
M  END
>  <MODEL>
1

>  <REMARK>
 VINA RESULT:      -5.5      0.000      0.000
  Name = 
  29 active torsions:
  status: ('A' for Active; 'I' for Inactive)
    1  A    between atoms: C_1  and  C_12
    2  A    between atoms: C_1  and  O_36
    3  A    between atoms: C_2  and  C_10
    4  A    between atoms: C_3  and  C_22
    5  A    between atoms: C_4  and  C_13
    6  A    between atoms: C_4  and  C_51
    7  A    between atoms: O_6  and  C_19
    8  A    between atoms: O_6  and  C_40
    9  A    between atoms: C_7  and  C_30
   10  A    between atoms: C_7  and  C_50
   11  A    between atoms: C_8  and  C_9
   12  A    between atoms: C_8  and  C_14
   13  A    between atoms: C_10  and  C_35
   14  A    between atoms: C_12  and  C_31
   15  A    between atoms: C_13  and  O_36
   16  A    between atoms: C_14  and  C_23
   17  A    between atoms: N_15  and  C_19
   18  A    between atoms: C_17  and  C_31
   19  A    between atoms: C_17  and  N_52
   20  A    between atoms: C_22  and  S_38
   21  A    between atoms: C_23  and  C_26
   22  A    between atoms: C_23  and  S_38
   23  A    between atoms: C_26  and  C_32
   24  A    between atoms: O_29  and  C_35
   25  A    between atoms: O_29  and  C_41
   26  A    between atoms: C_32  and  C_43
   27  A    between atoms: C_35  and  C_47
   28  A    between atoms: C_41  and  C_50
   29  A    between atoms: C_42  and  C_47
                            x       y       z     vdW  Elec       q    Type
                         _______ _______ _______ _____ _____    ______ ____

>  <TORSDO>
F 29

$$$$
=
 OpenBabel11032420223D

 53 54  0  0  1  0  0  0  0  0999 V2000
  184.7120  179.2420  139.8960 N   0  0  0  0  0  0  0  0  0  0  0  0
  183.2740  178.9700  140.0510 C   0  0  1  0  0  3  0  0  0  0  0  0
  182.7700  178.9280  138.6710 C   0  0  0  0  0  0  0  0  0  0  0  0
  180.7210  180.3830  137.9690 C   0  0  0  0  0  3  0  0  0  0  0  0
  185.1010  178.7240  138.6420 N   0  0  0  0  0  2  0  0  0  0  0  0
  181.7450  179.6560  138.3200 C   0  0  0  0  0  0  0  0  0  0  0  0
  183.9310  178.7930  137.7720 C   0  0  1  0  0  3  0  0  0  0  0  0
  182.9560  177.6250  140.7120 C   0  0  0  0  0  1  0  0  0  0  0  0
  183.8140  177.5050  136.9780 C   0  0  0  0  0  2  0  0  0  0  0  0
  184.8360  176.4880  137.4700 C   0  0  0  0  0  2  0  0  0  0  0  0
  186.3180  176.9270  135.3140 Cl  0  0  0  0  0  0  0  0  0  0  0  0
  185.5240  175.7090  136.3450 C   0  0  1  0  0  0  0  0  0  0  0  0
  186.8140  174.5910  137.0310 S   0  0  0  0  0  0  0  0  0  0  0  0
  188.1470  175.1270  135.9100 C   0  0  0  0  0  2  0  0  0  0  0  0
  189.3270  175.5650  136.7010 C   0  0  0  0  0  0  0  0  0  0  0  0
  190.4300  174.9740  136.5570 O   0  0  0  0  0  0  0  0  0  0  0  0
  189.1880  176.6290  137.6450 N   0  0  0  0  0  2  0  0  0  0  0  0
  190.3140  177.1560  138.4050 C   0  0  0  0  0  2  0  0  0  0  0  0
  189.8580  178.1470  139.4760 C   0  0  1  0  0  3  0  0  0  0  0  0
  188.7500  178.8830  139.0450 O   0  0  0  0  0  1  0  0  0  0  0  0
  189.5830  177.4600  140.8130 C   0  0  2  0  0  3  0  0  0  0  0  0
  188.7240  178.2310  141.6000 O   0  0  0  0  0  1  0  0  0  0  0  0
  190.8870  177.2200  141.5550 C   0  0  0  0  0  2  0  0  0  0  0  0
  190.7270  177.5390  142.9040 O   0  0  0  0  0  0  0  0  0  0  0  0
  190.1010  176.4220  143.4580 C   0  0  0  0  0  2  0  0  0  0  0  0
  189.2470  176.8360  144.6450 C   0  0  0  0  0  2  0  0  0  0  0  0
  189.9860  176.8020  146.9200 O   0  0  0  0  0  1  0  0  0  0  0  0
  190.0890  177.5050  145.7190 C   0  0  0  0  0  2  0  0  0  0  0  0
  184.5000  174.9650  135.4720 C   0  0  0  0  0  2  0  0  0  0  0  0
  184.9420  173.5670  135.0620 C   0  0  0  0  0  2  0  0  0  0  0  0
  184.1230  172.5380  135.8100 C   0  0  0  0  0  2  0  0  0  0  0  0
  183.8360  173.0150  137.0880 O   0  0  0  0  0  1  0  0  0  0  0  0
  185.5370  178.6240  140.9350 C   0  0  0  0  0  2  0  0  0  0  0  0
  185.6560  179.4990  142.0520 O   0  0  0  0  0  0  0  0  0  0  0  0
  185.5240  178.5590  145.6210 C   0  0  0  0  0  0  0  0  0  0  0  0
  183.2610  178.9340  144.8430 C   0  0  0  0  0  3  0  0  0  0  0  0
  186.0140  178.8620  144.3470 C   0  0  0  0  0  3  0  0  0  0  0  0
  185.1330  179.2000  143.3130 C   0  0  0  0  0  0  0  0  0  0  0  0
  184.1480  178.5930  145.8690 C   0  0  0  0  0  3  0  0  0  0  0  0
  186.4660  178.1990  146.7120 C   0  0  0  0  0  1  0  0  0  0  0  0
  183.7520  179.2370  143.5700 C   0  0  0  0  0  3  0  0  0  0  0  0
  179.4800  179.7290  137.4800 C   0  0  0  0  0  2  0  0  0  0  0  0
  179.0150  178.7060  138.4960 C   0  0  0  0  0  2  0  0  0  0  0  0
  178.9360  177.3290  137.8600 C   0  0  0  0  0  2  0  0  0  0  0  0
  179.7220  176.4260  138.5800 O   0  0  0  0  0  0  0  0  0  0  0  0
  179.0170  175.2180  138.5360 C   0  0  1  0  0  3  0  0  0  0  0  0
  178.9310  174.6940  137.1030 C   0  0  0  0  0  2  0  0  0  0  0  0
  179.0630  172.2290  137.5050 O   0  0  0  0  0  1  0  0  0  0  0  0
  180.6880  173.2980  136.2880 O   0  0  0  0  0  0  0  0  0  0  0  0
  179.6080  173.3710  136.9310 C   0  0  0  0  0  0  0  0  0  0  0  0
  179.6620  174.1870  139.4570 C   0  0  0  0  0  2  0  0  0  0  0  0
  179.1370  174.3140  140.8770 C   0  0  0  0  0  2  0  0  0  0  0  0
  179.7150  173.3380  141.6880 O   0  0  0  0  0  1  0  0  0  0  0  0
  1  2  1  0  0  0  0
  1 33  1  0  0  0  0
  2  8  1  6  0  0  0
  3  2  1  0  0  0  0
  4  6  2  0  0  0  0
  5  1  1  0  0  0  0
  6  3  2  0  0  0  0
  7  9  1  1  0  0  0
  7  5  1  0  0  0  0
  7  3  1  0  0  0  0
  9 10  1  0  0  0  0
 12 11  1  6  0  0  0
 12 13  1  0  0  0  0
 12 10  1  0  0  0  0
 14 15  1  0  0  0  0
 14 13  1  0  0  0  0
 15 17  1  0  0  0  0
 16 15  2  0  0  0  0
 17 18  1  0  0  0  0
 18 19  1  0  0  0  0
 19 20  1  6  0  0  0
 19 21  1  0  0  0  0
 21 23  1  0  0  0  0
 21 22  1  1  0  0  0
 23 24  1  0  0  0  0
 24 25  1  0  0  0  0
 25 26  1  0  0  0  0
 26 28  1  0  0  0  0
 28 27  1  0  0  0  0
 29 12  1  0  0  0  0
 30 29  1  0  0  0  0
 30 31  1  0  0  0  0
 31 32  1  0  0  0  0
 33 34  1  0  0  0  0
 34 38  1  0  0  0  0
 35 39  1  0  0  0  0
 35 40  1  0  0  0  0
 36 39  2  0  0  0  0
 37 35  2  0  0  0  0
 38 41  2  0  0  0  0
 38 37  1  0  0  0  0
 41 36  1  0  0  0  0
 42  4  1  0  0  0  0
 42 43  1  0  0  0  0
 44 43  1  0  0  0  0
 44 45  1  0  0  0  0
 46 47  1  6  0  0  0
 46 45  1  0  0  0  0
 46 51  1  0  0  0  0
 49 50  2  0  0  0  0
 50 47  1  0  0  0  0
 50 48  1  0  0  0  0
 51 52  1  0  0  0  0
 52 53  1  0  0  0  0
M  END
>  <MODEL>
2

>  <REMARK>
 VINA RESULT:      -5.3      2.051      3.276
  Name = 
  29 active torsions:
  status: ('A' for Active; 'I' for Inactive)
    1  A    between atoms: C_1  and  C_12
    2  A    between atoms: C_1  and  O_36
    3  A    between atoms: C_2  and  C_10
    4  A    between atoms: C_3  and  C_22
    5  A    between atoms: C_4  and  C_13
    6  A    between atoms: C_4  and  C_51
    7  A    between atoms: O_6  and  C_19
    8  A    between atoms: O_6  and  C_40
    9  A    between atoms: C_7  and  C_30
   10  A    between atoms: C_7  and  C_50
   11  A    between atoms: C_8  and  C_9
   12  A    between atoms: C_8  and  C_14
   13  A    between atoms: C_10  and  C_35
   14  A    between atoms: C_12  and  C_31
   15  A    between atoms: C_13  and  O_36
   16  A    between atoms: C_14  and  C_23
   17  A    between atoms: N_15  and  C_19
   18  A    between atoms: C_17  and  C_31
   19  A    between atoms: C_17  and  N_52
   20  A    between atoms: C_22  and  S_38
   21  A    between atoms: C_23  and  C_26
   22  A    between atoms: C_23  and  S_38
   23  A    between atoms: C_26  and  C_32
   24  A    between atoms: O_29  and  C_35
   25  A    between atoms: O_29  and  C_41
   26  A    between atoms: C_32  and  C_43
   27  A    between atoms: C_35  and  C_47
   28  A    between atoms: C_41  and  C_50
   29  A    between atoms: C_42  and  C_47
                            x       y       z     vdW  Elec       q    Type
                         _______ _______ _______ _____ _____    ______ ____

>  <TORSDO>
F 29

$$$$
=
 OpenBabel11032420223D

 53 54  0  0  1  0  0  0  0  0999 V2000
  190.2360  178.0100  142.1350 N   0  0  0  0  0  0  0  0  0  0  0  0
  188.8660  177.6000  142.4840 C   0  0  1  0  0  3  0  0  0  0  0  0
  188.1110  177.7910  141.2370 C   0  0  0  0  0  0  0  0  0  0  0  0
  185.9080  179.1880  141.2300 C   0  0  0  0  0  3  0  0  0  0  0  0
  190.4010  177.7820  140.7520 N   0  0  0  0  0  2  0  0  0  0  0  0
  187.0080  178.4900  141.2340 C   0  0  0  0  0  0  0  0  0  0  0  0
  189.0840  177.9280  140.1380 C   0  0  1  0  0  3  0  0  0  0  0  0
  188.7350  176.1300  142.8960 C   0  0  0  0  0  1  0  0  0  0  0  0
  188.8710  176.8170  139.1270 C   0  0  0  0  0  2  0  0  0  0  0  0
  188.3200  177.3880  137.8260 C   0  0  0  0  0  2  0  0  0  0  0  0
  188.4730  177.6120  135.1870 Cl  0  0  0  0  0  0  0  0  0  0  0  0
  188.6300  176.5300  136.5940 C   0  0  1  0  0  0  0  0  0  0  0  0
  190.3590  175.9050  136.6630 S   0  0  0  0  0  0  0  0  0  0  0  0
  189.9190  174.1470  136.8570 C   0  0  0  0  0  2  0  0  0  0  0  0
  190.8850  173.3000  136.1080 C   0  0  0  0  0  0  0  0  0  0  0  0
  190.4600  172.4640  135.2670 O   0  0  0  0  0  0  0  0  0  0  0  0
  192.2830  173.4170  136.3780 N   0  0  0  0  0  2  0  0  0  0  0  0
  193.2900  172.6690  135.6360 C   0  0  0  0  0  2  0  0  0  0  0  0
  193.5350  171.2910  136.2480 C   0  0  1  0  0  3  0  0  0  0  0  0
  192.9170  170.2860  135.4960 O   0  0  0  0  0  1  0  0  0  0  0  0
  195.0230  171.0050  136.4420 C   0  0  2  0  0  3  0  0  0  0  0  0
  195.2630  169.6290  136.4880 O   0  0  0  0  0  1  0  0  0  0  0  0
  195.5190  171.6590  137.7200 C   0  0  0  0  0  2  0  0  0  0  0  0
  196.9030  171.8210  137.6600 O   0  0  0  0  0  0  0  0  0  0  0  0
  197.1170  172.6020  136.5230 C   0  0  0  0  0  2  0  0  0  0  0  0
  196.8310  174.0630  136.8290 C   0  0  0  0  0  2  0  0  0  0  0  0
  198.0810  175.4460  138.3280 O   0  0  0  0  0  1  0  0  0  0  0  0
  198.1190  174.8330  137.0750 C   0  0  0  0  0  2  0  0  0  0  0  0
  187.5990  175.4030  136.4240 C   0  0  0  0  0  2  0  0  0  0  0  0
  186.4920  175.7280  135.4300 C   0  0  0  0  0  2  0  0  0  0  0  0
  185.5870  174.5270  135.2710 C   0  0  0  0  0  2  0  0  0  0  0  0
  185.1670  174.0930  136.5270 O   0  0  0  0  0  1  0  0  0  0  0  0
  191.2680  177.2670  142.8590 C   0  0  0  0  0  2  0  0  0  0  0  0
  191.5550  177.9060  144.0980 O   0  0  0  0  0  0  0  0  0  0  0  0
  189.3870  177.3940  147.0440 C   0  0  0  0  0  0  0  0  0  0  0  0
  191.3720  176.0300  147.3070 C   0  0  0  0  0  3  0  0  0  0  0  0
  189.8690  177.8610  145.8180 C   0  0  0  0  0  3  0  0  0  0  0  0
  191.1030  177.4200  145.3290 C   0  0  0  0  0  0  0  0  0  0  0  0
  190.1390  176.4790  147.7890 C   0  0  0  0  0  3  0  0  0  0  0  0
  188.0760  177.8680  147.5570 C   0  0  0  0  0  1  0  0  0  0  0  0
  191.8530  176.4980  146.0800 C   0  0  0  0  0  3  0  0  0  0  0  0
  184.6240  178.5470  140.8440 C   0  0  0  0  0  2  0  0  0  0  0  0
  183.9450  179.3820  139.7770 C   0  0  0  0  0  2  0  0  0  0  0  0
  182.5450  178.8580  139.5100 C   0  0  0  0  0  2  0  0  0  0  0  0
  182.4280  177.5480  139.9810 O   0  0  0  0  0  0  0  0  0  0  0  0
  181.3000  177.0300  139.3340 C   0  0  1  0  0  3  0  0  0  0  0  0
  180.0550  177.1950  140.2050 C   0  0  0  0  0  2  0  0  0  0  0  0
  178.9320  175.1500  139.3040 O   0  0  0  0  0  0  0  0  0  0  0  0
  179.0160  175.5310  141.5640 O   0  0  0  0  0  1  0  0  0  0  0  0
  179.3150  175.9100  140.4030 C   0  0  0  0  0  0  0  0  0  0  0  0
  181.1090  177.6960  137.9750 C   0  0  0  0  0  2  0  0  0  0  0  0
  181.3750  176.7180  136.8430 C   0  0  0  0  0  2  0  0  0  0  0  0
  182.7400  176.4380  136.7660 O   0  0  0  0  0  1  0  0  0  0  0  0
  1  2  1  0  0  0  0
  1 33  1  0  0  0  0
  2  8  1  6  0  0  0
  3  2  1  0  0  0  0
  4  6  2  0  0  0  0
  5  1  1  0  0  0  0
  6  3  2  0  0  0  0
  7  9  1  6  0  0  0
  7  5  1  0  0  0  0
  7  3  1  0  0  0  0
 10  9  1  0  0  0  0
 12 11  1  6  0  0  0
 12 13  1  0  0  0  0
 12 10  1  0  0  0  0
 13 14  1  0  0  0  0
 15 17  1  0  0  0  0
 15 14  1  0  0  0  0
 16 15  2  0  0  0  0
 18 19  1  0  0  0  0
 18 17  1  0  0  0  0
 19 20  1  6  0  0  0
 19 21  1  0  0  0  0
 21 22  1  1  0  0  0
 21 23  1  0  0  0  0
 24 23  1  0  0  0  0
 25 26  1  0  0  0  0
 25 24  1  0  0  0  0
 26 28  1  0  0  0  0
 28 27  1  0  0  0  0
 29 12  1  0  0  0  0
 30 29  1  0  0  0  0
 31 30  1  0  0  0  0
 31 32  1  0  0  0  0
 33 34  1  0  0  0  0
 34 38  1  0  0  0  0
 35 40  1  0  0  0  0
 35 39  1  0  0  0  0
 36 39  2  0  0  0  0
 37 35  2  0  0  0  0
 38 37  1  0  0  0  0
 38 41  2  0  0  0  0
 41 36  1  0  0  0  0
 42  4  1  0  0  0  0
 43 42  1  0  0  0  0
 44 43  1  0  0  0  0
 44 45  1  0  0  0  0
 46 51  1  6  0  0  0
 46 45  1  0  0  0  0
 46 47  1  0  0  0  0
 47 50  1  0  0  0  0
 48 50  2  0  0  0  0
 50 49  1  0  0  0  0
 52 51  1  0  0  0  0
 53 52  1  0  0  0  0
M  END
>  <MODEL>
3

>  <REMARK>
 VINA RESULT:      -5.1      3.900      6.626
  Name = 
  29 active torsions:
  status: ('A' for Active; 'I' for Inactive)
    1  A    between atoms: C_1  and  C_12
    2  A    between atoms: C_1  and  O_36
    3  A    between atoms: C_2  and  C_10
    4  A    between atoms: C_3  and  C_22
    5  A    between atoms: C_4  and  C_13
    6  A    between atoms: C_4  and  C_51
    7  A    between atoms: O_6  and  C_19
    8  A    between atoms: O_6  and  C_40
    9  A    between atoms: C_7  and  C_30
   10  A    between atoms: C_7  and  C_50
   11  A    between atoms: C_8  and  C_9
   12  A    between atoms: C_8  and  C_14
   13  A    between atoms: C_10  and  C_35
   14  A    between atoms: C_12  and  C_31
   15  A    between atoms: C_13  and  O_36
   16  A    between atoms: C_14  and  C_23
   17  A    between atoms: N_15  and  C_19
   18  A    between atoms: C_17  and  C_31
   19  A    between atoms: C_17  and  N_52
   20  A    between atoms: C_22  and  S_38
   21  A    between atoms: C_23  and  C_26
   22  A    between atoms: C_23  and  S_38
   23  A    between atoms: C_26  and  C_32
   24  A    between atoms: O_29  and  C_35
   25  A    between atoms: O_29  and  C_41
   26  A    between atoms: C_32  and  C_43
   27  A    between atoms: C_35  and  C_47
   28  A    between atoms: C_41  and  C_50
   29  A    between atoms: C_42  and  C_47
                            x       y       z     vdW  Elec       q    Type
                         _______ _______ _______ _____ _____    ______ ____

>  <TORSDO>
F 29

$$$$
=
 OpenBabel11032420223D

 53 54  0  0  1  0  0  0  0  0999 V2000
  189.4620  176.7650  141.3150 N   0  0  0  0  0  0  0  0  0  0  0  0
  190.7910  176.7080  140.6830 C   0  0  1  0  0  3  0  0  0  0  0  0
  190.4960  176.6360  139.2450 C   0  0  0  0  0  0  0  0  0  0  0  0
  191.5550  174.7590  137.7740 C   0  0  0  0  0  3  0  0  0  0  0  0
  188.5830  177.3570  140.3830 N   0  0  0  0  0  2  0  0  0  0  0  0
  191.0260  175.6960  138.5090 C   0  0  0  0  0  0  0  0  0  0  0  0
  189.0880  177.0270  139.0540 C   0  0  1  0  0  3  0  0  0  0  0  0
  191.6570  177.9470  140.9270 C   0  0  0  0  0  1  0  0  0  0  0  0
  189.0160  178.2550  138.1660 C   0  0  0  0  0  2  0  0  0  0  0  0
  187.5770  178.5100  137.7350 C   0  0  0  0  0  2  0  0  0  0  0  0
  187.4780  175.8750  137.4440 Cl  0  0  0  0  0  0  0  0  0  0  0  0
  187.0280  177.4590  136.7640 C   0  0  1  0  0  0  0  0  0  0  0  0
  185.1930  177.5590  136.6770 S   0  0  0  0  0  0  0  0  0  0  0  0
  184.9000  175.7620  136.7460 C   0  0  0  0  0  2  0  0  0  0  0  0
  183.7850  175.4670  137.6850 C   0  0  0  0  0  0  0  0  0  0  0  0
  183.7100  174.3340  138.2290 O   0  0  0  0  0  0  0  0  0  0  0  0
  182.7880  176.4620  137.9300 N   0  0  0  0  0  2  0  0  0  0  0  0
  181.7060  176.2690  138.8870 C   0  0  0  0  0  2  0  0  0  0  0  0
  181.1980  177.5990  139.4400 C   0  0  1  0  0  3  0  0  0  0  0  0
  179.8030  177.6010  139.5510 O   0  0  0  0  0  1  0  0  0  0  0  0
  181.8620  177.9610  140.7670 C   0  0  2  0  0  3  0  0  0  0  0  0
  181.3320  179.1460  141.2820 O   0  0  0  0  0  1  0  0  0  0  0  0
  183.3630  178.1050  140.5780 C   0  0  0  0  0  2  0  0  0  0  0  0
  184.0190  177.8130  141.7740 O   0  0  0  0  0  0  0  0  0  0  0  0
  184.8340  178.9210  142.0090 C   0  0  0  0  0  2  0  0  0  0  0  0
  184.8590  179.2480  143.4920 C   0  0  0  0  0  2  0  0  0  0  0  0
  183.4870  179.0560  145.4430 O   0  0  0  0  0  1  0  0  0  0  0  0
  183.4520  179.2880  144.0680 C   0  0  0  0  0  2  0  0  0  0  0  0
  187.6930  177.5720  135.3820 C   0  0  0  0  0  2  0  0  0  0  0  0
  189.2050  177.7350  135.4410 C   0  0  0  0  0  2  0  0  0  0  0  0
  189.8650  176.6040  134.6830 C   0  0  0  0  0  2  0  0  0  0  0  0
  188.9870  175.5240  134.6060 O   0  0  0  0  0  1  0  0  0  0  0  0
  189.4380  177.5520  142.5490 C   0  0  0  0  0  2  0  0  0  0  0  0
  190.4810  177.1300  143.4210 O   0  0  0  0  0  0  0  0  0  0  0  0
  191.2760  176.5370  146.9790 C   0  0  0  0  0  0  0  0  0  0  0  0
  189.1810  177.7470  146.8520 C   0  0  0  0  0  3  0  0  0  0  0  0
  191.3630  176.5400  145.5830 C   0  0  0  0  0  3  0  0  0  0  0  0
  190.3620  177.1430  144.8140 C   0  0  0  0  0  0  0  0  0  0  0  0
  190.1840  177.1390  147.6130 C   0  0  0  0  0  3  0  0  0  0  0  0
  192.3420  175.8930  147.7880 C   0  0  0  0  0  1  0  0  0  0  0  0
  189.2700  177.7500  145.4570 C   0  0  0  0  0  3  0  0  0  0  0  0
  192.4550  175.1180  136.6480 C   0  0  0  0  0  2  0  0  0  0  0  0
  193.7880  175.5850  137.1970 C   0  0  0  0  0  2  0  0  0  0  0  0
  194.9040  174.6770  136.7130 C   0  0  0  0  0  2  0  0  0  0  0  0
  196.0970  174.9960  137.3680 O   0  0  0  0  0  0  0  0  0  0  0  0
  196.7070  173.7640  137.6310 C   0  0  1  0  0  3  0  0  0  0  0  0
  196.2800  172.7190  136.6000 C   0  0  0  0  0  2  0  0  0  0  0  0
  195.3130  171.3290  138.4410 O   0  0  0  0  0  1  0  0  0  0  0  0
  196.3300  170.3330  136.6420 O   0  0  0  0  0  0  0  0  0  0  0  0
  195.9700  171.3920  137.2180 C   0  0  0  0  0  0  0  0  0  0  0  0
  198.2250  173.9130  137.6610 C   0  0  0  0  0  2  0  0  0  0  0  0
  198.7940  174.0200  136.2570 C   0  0  0  0  0  2  0  0  0  0  0  0
  199.1790  175.3360  135.9980 O   0  0  0  0  0  1  0  0  0  0  0  0
  1 33  1  0  0  0  0
  2  8  1  6  0  0  0
  2  1  1  0  0  0  0
  3  2  1  0  0  0  0
  4  6  2  0  0  0  0
  5  1  1  0  0  0  0
  6  3  2  0  0  0  0
  7  9  1  6  0  0  0
  7  3  1  0  0  0  0
  7  5  1  0  0  0  0
 10  9  1  0  0  0  0
 12 11  1  1  0  0  0
 12 10  1  0  0  0  0
 13 14  1  0  0  0  0
 13 12  1  0  0  0  0
 14 15  1  0  0  0  0
 15 17  1  0  0  0  0
 15 16  2  0  0  0  0
 17 18  1  0  0  0  0
 18 19  1  0  0  0  0
 19 20  1  1  0  0  0
 19 21  1  0  0  0  0
 21 22  1  6  0  0  0
 23 21  1  0  0  0  0
 23 24  1  0  0  0  0
 24 25  1  0  0  0  0
 25 26  1  0  0  0  0
 26 28  1  0  0  0  0
 28 27  1  0  0  0  0
 29 30  1  0  0  0  0
 29 12  1  0  0  0  0
 31 30  1  0  0  0  0
 32 31  1  0  0  0  0
 33 34  1  0  0  0  0
 34 38  1  0  0  0  0
 35 39  1  0  0  0  0
 35 40  1  0  0  0  0
 36 39  2  0  0  0  0
 37 35  2  0  0  0  0
 38 41  2  0  0  0  0
 38 37  1  0  0  0  0
 41 36  1  0  0  0  0
 42 43  1  0  0  0  0
 42  4  1  0  0  0  0
 44 43  1  0  0  0  0
 44 45  1  0  0  0  0
 45 46  1  0  0  0  0
 46 47  1  6  0  0  0
 46 51  1  0  0  0  0
 47 50  1  0  0  0  0
 49 50  2  0  0  0  0
 50 48  1  0  0  0  0
 52 51  1  0  0  0  0
 53 52  1  0  0  0  0
M  END
>  <MODEL>
4

>  <REMARK>
 VINA RESULT:      -4.9      4.005      9.789
  Name = 
  29 active torsions:
  status: ('A' for Active; 'I' for Inactive)
    1  A    between atoms: C_1  and  C_12
    2  A    between atoms: C_1  and  O_36
    3  A    between atoms: C_2  and  C_10
    4  A    between atoms: C_3  and  C_22
    5  A    between atoms: C_4  and  C_13
    6  A    between atoms: C_4  and  C_51
    7  A    between atoms: O_6  and  C_19
    8  A    between atoms: O_6  and  C_40
    9  A    between atoms: C_7  and  C_30
   10  A    between atoms: C_7  and  C_50
   11  A    between atoms: C_8  and  C_9
   12  A    between atoms: C_8  and  C_14
   13  A    between atoms: C_10  and  C_35
   14  A    between atoms: C_12  and  C_31
   15  A    between atoms: C_13  and  O_36
   16  A    between atoms: C_14  and  C_23
   17  A    between atoms: N_15  and  C_19
   18  A    between atoms: C_17  and  C_31
   19  A    between atoms: C_17  and  N_52
   20  A    between atoms: C_22  and  S_38
   21  A    between atoms: C_23  and  C_26
   22  A    between atoms: C_23  and  S_38
   23  A    between atoms: C_26  and  C_32
   24  A    between atoms: O_29  and  C_35
   25  A    between atoms: O_29  and  C_41
   26  A    between atoms: C_32  and  C_43
   27  A    between atoms: C_35  and  C_47
   28  A    between atoms: C_41  and  C_50
   29  A    between atoms: C_42  and  C_47
                            x       y       z     vdW  Elec       q    Type
                         _______ _______ _______ _____ _____    ______ ____

>  <TORSDO>
F 29

$$$$
=
 OpenBabel11032420223D

 53 54  0  0  1  0  0  0  0  0999 V2000
  184.6310  179.2800  139.8560 N   0  0  0  0  0  0  0  0  0  0  0  0
  183.3330  178.5860  139.8270 C   0  0  1  0  0  3  0  0  0  0  0  0
  182.9810  178.5520  138.4000 C   0  0  0  0  0  0  0  0  0  0  0  0
  180.6560  179.4160  137.5930 C   0  0  0  0  0  3  0  0  0  0  0  0
  185.2600  179.0390  138.6160 N   0  0  0  0  0  2  0  0  0  0  0  0
  181.8170  178.9840  137.9960 C   0  0  0  0  0  0  0  0  0  0  0  0
  184.1990  178.8600  137.6290 C   0  0  1  0  0  3  0  0  0  0  0  0
  183.3790  177.1420  140.3370 C   0  0  0  0  0  1  0  0  0  0  0  0
  184.5410  177.6910  136.7250 C   0  0  0  0  0  2  0  0  0  0  0  0
  185.5150  176.7510  137.4250 C   0  0  0  0  0  2  0  0  0  0  0  0
  187.3380  177.6320  135.7120 Cl  0  0  0  0  0  0  0  0  0  0  0  0
  186.6190  176.2110  136.5100 C   0  0  1  0  0  0  0  0  0  0  0  0
  187.9240  175.3730  137.5010 S   0  0  0  0  0  0  0  0  0  0  0  0
  189.3090  176.3850  136.8860 C   0  0  0  0  0  2  0  0  0  0  0  0
  190.3480  176.5130  137.9430 C   0  0  0  0  0  0  0  0  0  0  0  0
  191.4820  175.9920  137.7690 O   0  0  0  0  0  0  0  0  0  0  0  0
  190.0370  177.1930  139.1600 N   0  0  0  0  0  2  0  0  0  0  0  0
  191.0240  177.4160  140.2090 C   0  0  0  0  0  2  0  0  0  0  0  0
  190.3630  177.6110  141.5730 C   0  0  1  0  0  3  0  0  0  0  0  0
  189.0010  177.8980  141.4390 O   0  0  0  0  0  1  0  0  0  0  0  0
  190.5920  176.4160  142.4980 C   0  0  2  0  0  3  0  0  0  0  0  0
  189.4300  176.1090  143.2090 O   0  0  0  0  0  1  0  0  0  0  0  0
  191.7260  176.7140  143.4640 C   0  0  0  0  0  2  0  0  0  0  0  0
  191.5350  176.0000  144.6480 O   0  0  0  0  0  0  0  0  0  0  0  0
  191.8650  176.9020  145.6600 C   0  0  0  0  0  2  0  0  0  0  0  0
  190.6900  177.0800  146.6080 C   0  0  0  0  0  2  0  0  0  0  0  0
  192.3080  176.1260  148.0910 O   0  0  0  0  0  1  0  0  0  0  0  0
  191.1100  176.8410  148.0500 C   0  0  0  0  0  2  0  0  0  0  0  0
  186.0410  175.3080  135.4090 C   0  0  0  0  0  2  0  0  0  0  0  0
  187.0990  174.5770  134.5950 C   0  0  0  0  0  2  0  0  0  0  0  0
  186.9540  173.0850  134.7990 C   0  0  0  0  0  2  0  0  0  0  0  0
  186.2860  172.8450  135.9990 O   0  0  0  0  0  1  0  0  0  0  0  0
  185.5130  178.8180  140.9280 C   0  0  0  0  0  2  0  0  0  0  0  0
  185.4180  179.6870  142.0510 O   0  0  0  0  0  0  0  0  0  0  0  0
  185.9810  178.1160  145.3460 C   0  0  0  0  0  0  0  0  0  0  0  0
  183.7060  178.9460  145.2710 C   0  0  0  0  0  3  0  0  0  0  0  0
  186.1950  178.5830  144.0460 C   0  0  0  0  0  3  0  0  0  0  0  0
  185.1690  179.2310  143.3490 C   0  0  0  0  0  0  0  0  0  0  0  0
  184.7360  178.2960  145.9580 C   0  0  0  0  0  3  0  0  0  0  0  0
  187.0740  177.4270  146.0780 C   0  0  0  0  0  1  0  0  0  0  0  0
  183.9220  179.4120  143.9710 C   0  0  0  0  0  3  0  0  0  0  0  0
  179.7130  178.4880  136.9160 C   0  0  0  0  0  2  0  0  0  0  0  0
  179.8130  177.1160  137.5520 C   0  0  0  0  0  2  0  0  0  0  0  0
  180.6420  176.1900  136.6790 C   0  0  0  0  0  2  0  0  0  0  0  0
  179.8030  175.3570  135.9340 O   0  0  0  0  0  0  0  0  0  0  0  0
  180.3540  174.0780  136.0630 C   0  0  1  0  0  3  0  0  0  0  0  0
  179.2600  173.0110  136.0270 C   0  0  0  0  0  2  0  0  0  0  0  0
  178.9330  170.6280  136.7120 O   0  0  0  0  0  0  0  0  0  0  0  0
  180.3470  171.9940  137.8930 O   0  0  0  0  0  1  0  0  0  0  0  0
  179.5550  171.8520  136.9260 C   0  0  0  0  0  0  0  0  0  0  0  0
  181.3950  173.8300  134.9750 C   0  0  0  0  0  2  0  0  0  0  0  0
  182.7580  174.3570  135.3890 C   0  0  0  0  0  2  0  0  0  0  0  0
  183.3110  173.5300  136.3670 O   0  0  0  0  0  1  0  0  0  0  0  0
  1 33  1  0  0  0  0
  2  1  1  0  0  0  0
  2  8  1  6  0  0  0
  3  2  1  0  0  0  0
  4  6  2  0  0  0  0
  5  1  1  0  0  0  0
  6  3  2  0  0  0  0
  7  9  1  6  0  0  0
  7  3  1  0  0  0  0
  7  5  1  0  0  0  0
  9 10  1  0  0  0  0
 12 11  1  6  0  0  0
 12 10  1  0  0  0  0
 12 13  1  0  0  0  0
 14 13  1  0  0  0  0
 14 15  1  0  0  0  0
 15 17  1  0  0  0  0
 16 15  2  0  0  0  0
 17 18  1  0  0  0  0
 18 19  1  0  0  0  0
 19 20  1  6  0  0  0
 19 21  1  0  0  0  0
 21 22  1  1  0  0  0
 21 23  1  0  0  0  0
 23 24  1  0  0  0  0
 24 25  1  0  0  0  0
 25 26  1  0  0  0  0
 26 28  1  0  0  0  0
 28 27  1  0  0  0  0
 29 12  1  0  0  0  0
 30 31  1  0  0  0  0
 30 29  1  0  0  0  0
 31 32  1  0  0  0  0
 33 34  1  0  0  0  0
 34 38  1  0  0  0  0
 35 39  1  0  0  0  0
 35 40  1  0  0  0  0
 36 39  2  0  0  0  0
 37 35  2  0  0  0  0
 38 41  2  0  0  0  0
 38 37  1  0  0  0  0
 41 36  1  0  0  0  0
 42 43  1  0  0  0  0
 42  4  1  0  0  0  0
 44 43  1  0  0  0  0
 45 46  1  0  0  0  0
 45 44  1  0  0  0  0
 46 51  1  6  0  0  0
 47 46  1  0  0  0  0
 47 50  1  0  0  0  0
 48 50  2  0  0  0  0
 50 49  1  0  0  0  0
 51 52  1  0  0  0  0
 52 53  1  0  0  0  0
M  END
>  <MODEL>
5

>  <REMARK>
 VINA RESULT:      -4.8      1.499      2.184
  Name = 
  29 active torsions:
  status: ('A' for Active; 'I' for Inactive)
    1  A    between atoms: C_1  and  C_12
    2  A    between atoms: C_1  and  O_36
    3  A    between atoms: C_2  and  C_10
    4  A    between atoms: C_3  and  C_22
    5  A    between atoms: C_4  and  C_13
    6  A    between atoms: C_4  and  C_51
    7  A    between atoms: O_6  and  C_19
    8  A    between atoms: O_6  and  C_40
    9  A    between atoms: C_7  and  C_30
   10  A    between atoms: C_7  and  C_50
   11  A    between atoms: C_8  and  C_9
   12  A    between atoms: C_8  and  C_14
   13  A    between atoms: C_10  and  C_35
   14  A    between atoms: C_12  and  C_31
   15  A    between atoms: C_13  and  O_36
   16  A    between atoms: C_14  and  C_23
   17  A    between atoms: N_15  and  C_19
   18  A    between atoms: C_17  and  C_31
   19  A    between atoms: C_17  and  N_52
   20  A    between atoms: C_22  and  S_38
   21  A    between atoms: C_23  and  C_26
   22  A    between atoms: C_23  and  S_38
   23  A    between atoms: C_26  and  C_32
   24  A    between atoms: O_29  and  C_35
   25  A    between atoms: O_29  and  C_41
   26  A    between atoms: C_32  and  C_43
   27  A    between atoms: C_35  and  C_47
   28  A    between atoms: C_41  and  C_50
   29  A    between atoms: C_42  and  C_47
                            x       y       z     vdW  Elec       q    Type
                         _______ _______ _______ _____ _____    ______ ____

>  <TORSDO>
F 29

$$$$
=
 OpenBabel11032420223D

 53 54  0  0  1  0  0  0  0  0999 V2000
  189.7990  176.8140  141.7920 N   0  0  0  0  0  0  0  0  0  0  0  0
  191.0340  176.7730  140.9920 C   0  0  1  0  0  3  0  0  0  0  0  0
  190.5550  176.7500  139.6020 C   0  0  0  0  0  0  0  0  0  0  0  0
  191.3990  174.9210  137.9450 C   0  0  0  0  0  3  0  0  0  0  0  0
  188.8110  177.4390  141.0030 N   0  0  0  0  0  2  0  0  0  0  0  0
  190.9780  175.8350  138.7730 C   0  0  0  0  0  0  0  0  0  0  0  0
  189.1370  177.1530  139.6080 C   0  0  1  0  0  3  0  0  0  0  0  0
  191.9340  178.0010  141.1620 C   0  0  0  0  0  1  0  0  0  0  0  0
  188.9600  178.4110  138.7790 C   0  0  0  0  0  2  0  0  0  0  0  0
  187.4810  178.6550  138.5010 C   0  0  0  0  0  2  0  0  0  0  0  0
  187.4600  176.0820  137.8550 Cl  0  0  0  0  0  0  0  0  0  0  0  0
  186.8890  177.7190  137.4420 C   0  0  1  0  0  0  0  0  0  0  0  0
  185.0510  177.7360  137.5230 S   0  0  0  0  0  0  0  0  0  0  0  0
  184.9360  178.6920  139.0700 C   0  0  0  0  0  2  0  0  0  0  0  0
  183.5170  179.0370  139.3470 C   0  0  0  0  0  0  0  0  0  0  0  0
  182.9260  179.8790  138.6200 O   0  0  0  0  0  0  0  0  0  0  0  0
  182.8490  178.4360  140.4580 N   0  0  0  0  0  2  0  0  0  0  0  0
  181.4410  178.6740  140.7490 C   0  0  0  0  0  2  0  0  0  0  0  0
  180.6040  177.4090  140.5590 C   0  0  1  0  0  3  0  0  0  0  0  0
  179.4090  177.4800  141.2830 O   0  0  0  0  0  1  0  0  0  0  0  0
  180.3440  177.1090  139.0840 C   0  0  2  0  0  3  0  0  0  0  0  0
  179.4040  177.9970  138.5540 O   0  0  0  0  0  1  0  0  0  0  0  0
  179.8550  175.6800  138.9200 C   0  0  0  0  0  2  0  0  0  0  0  0
  179.5010  175.4540  137.5900 O   0  0  0  0  0  0  0  0  0  0  0  0
  180.7070  175.1760  136.9460 C   0  0  0  0  0  2  0  0  0  0  0  0
  181.1360  173.7460  137.2300 C   0  0  0  0  0  2  0  0  0  0  0  0
  179.5680  171.9420  137.3530 O   0  0  0  0  0  1  0  0  0  0  0  0
  180.2760  172.7530  136.4640 C   0  0  0  0  0  2  0  0  0  0  0  0
  187.4230  178.0510  136.0400 C   0  0  0  0  0  2  0  0  0  0  0  0
  188.9180  177.8110  135.8790 C   0  0  0  0  0  2  0  0  0  0  0  0
  189.1450  176.6570  134.9270 C   0  0  0  0  0  2  0  0  0  0  0  0
  187.9220  176.0630  134.6190 O   0  0  0  0  0  1  0  0  0  0  0  0
  189.9410  177.5580  143.0440 C   0  0  0  0  0  2  0  0  0  0  0  0
  189.7760  176.6850  144.1560 O   0  0  0  0  0  0  0  0  0  0  0  0
  187.0470  177.8630  146.3490 C   0  0  0  0  0  0  0  0  0  0  0  0
  188.9750  177.3600  147.7270 C   0  0  0  0  0  3  0  0  0  0  0  0
  187.7640  177.4900  145.2080 C   0  0  0  0  0  3  0  0  0  0  0  0
  189.0880  177.0530  145.3170 C   0  0  0  0  0  0  0  0  0  0  0  0
  187.6540  177.8000  147.6080 C   0  0  0  0  0  3  0  0  0  0  0  0
  185.6420  178.3280  146.2250 C   0  0  0  0  0  1  0  0  0  0  0  0
  189.6910  176.9870  146.5850 C   0  0  0  0  0  3  0  0  0  0  0  0
  192.1490  175.3150  136.7240 C   0  0  0  0  0  2  0  0  0  0  0  0
  193.6240  175.4240  137.0510 C   0  0  0  0  0  2  0  0  0  0  0  0
  194.2750  174.0530  137.0140 C   0  0  0  0  0  2  0  0  0  0  0  0
  195.4140  174.0870  136.2060 O   0  0  0  0  0  0  0  0  0  0  0  0
  196.1630  172.9690  136.5870 C   0  0  1  0  0  3  0  0  0  0  0  0
  197.6200  173.3550  136.8420 C   0  0  0  0  0  2  0  0  0  0  0  0
  198.0120  175.6450  135.9150 O   0  0  0  0  0  0  0  0  0  0  0  0
  197.7930  175.3270  138.1760 O   0  0  0  0  0  1  0  0  0  0  0  0
  197.8020  174.8290  137.0210 C   0  0  0  0  0  0  0  0  0  0  0  0
  195.5500  172.3070  137.8180 C   0  0  0  0  0  2  0  0  0  0  0  0
  195.6960  170.7960  137.7590 C   0  0  0  0  0  2  0  0  0  0  0  0
  196.6480  170.4470  136.8010 O   0  0  0  0  0  1  0  0  0  0  0  0
  1 33  1  0  0  0  0
  2  8  1  6  0  0  0
  2  1  1  0  0  0  0
  3  7  1  0  0  0  0
  3  2  1  0  0  0  0
  4  6  2  0  0  0  0
  5  1  1  0  0  0  0
  6  3  2  0  0  0  0
  7  9  1  6  0  0  0
  7  5  1  0  0  0  0
 10  9  1  0  0  0  0
 12 13  1  0  0  0  0
 12 11  1  1  0  0  0
 12 10  1  0  0  0  0
 13 14  1  0  0  0  0
 14 15  1  0  0  0  0
 15 17  1  0  0  0  0
 16 15  2  0  0  0  0
 17 18  1  0  0  0  0
 19 18  1  0  0  0  0
 19 20  1  1  0  0  0
 21 22  1  1  0  0  0
 21 19  1  0  0  0  0
 23 21  1  0  0  0  0
 24 23  1  0  0  0  0
 25 26  1  0  0  0  0
 25 24  1  0  0  0  0
 28 26  1  0  0  0  0
 28 27  1  0  0  0  0
 29 12  1  0  0  0  0
 30 29  1  0  0  0  0
 31 30  1  0  0  0  0
 32 31  1  0  0  0  0
 33 34  1  0  0  0  0
 34 38  1  0  0  0  0
 35 39  1  0  0  0  0
 37 38  1  0  0  0  0
 37 35  2  0  0  0  0
 38 41  2  0  0  0  0
 39 36  2  0  0  0  0
 40 35  1  0  0  0  0
 41 36  1  0  0  0  0
 42 43  1  0  0  0  0
 42  4  1  0  0  0  0
 44 43  1  0  0  0  0
 45 46  1  0  0  0  0
 45 44  1  0  0  0  0
 46 47  1  1  0  0  0
 46 51  1  0  0  0  0
 47 50  1  0  0  0  0
 48 50  2  0  0  0  0
 50 49  1  0  0  0  0
 52 51  1  0  0  0  0
 53 52  1  0  0  0  0
M  END
>  <MODEL>
6

>  <REMARK>
 VINA RESULT:      -4.6      3.859     10.448
  Name = 
  29 active torsions:
  status: ('A' for Active; 'I' for Inactive)
    1  A    between atoms: C_1  and  C_12
    2  A    between atoms: C_1  and  O_36
    3  A    between atoms: C_2  and  C_10
    4  A    between atoms: C_3  and  C_22
    5  A    between atoms: C_4  and  C_13
    6  A    between atoms: C_4  and  C_51
    7  A    between atoms: O_6  and  C_19
    8  A    between atoms: O_6  and  C_40
    9  A    between atoms: C_7  and  C_30
   10  A    between atoms: C_7  and  C_50
   11  A    between atoms: C_8  and  C_9
   12  A    between atoms: C_8  and  C_14
   13  A    between atoms: C_10  and  C_35
   14  A    between atoms: C_12  and  C_31
   15  A    between atoms: C_13  and  O_36
   16  A    between atoms: C_14  and  C_23
   17  A    between atoms: N_15  and  C_19
   18  A    between atoms: C_17  and  C_31
   19  A    between atoms: C_17  and  N_52
   20  A    between atoms: C_22  and  S_38
   21  A    between atoms: C_23  and  C_26
   22  A    between atoms: C_23  and  S_38
   23  A    between atoms: C_26  and  C_32
   24  A    between atoms: O_29  and  C_35
   25  A    between atoms: O_29  and  C_41
   26  A    between atoms: C_32  and  C_43
   27  A    between atoms: C_35  and  C_47
   28  A    between atoms: C_41  and  C_50
   29  A    between atoms: C_42  and  C_47
                            x       y       z     vdW  Elec       q    Type
                         _______ _______ _______ _____ _____    ______ ____

>  <TORSDO>
F 29

$$$$
=
 OpenBabel11032420223D

 53 54  0  0  1  0  0  0  0  0999 V2000
  189.6340  176.4880  142.3620 N   0  0  0  0  0  0  0  0  0  0  0  0
  190.6010  176.7920  141.2940 C   0  0  1  0  0  3  0  0  0  0  0  0
  189.7680  176.9210  140.0890 C   0  0  0  0  0  0  0  0  0  0  0  0
  190.3430  175.5640  137.9370 C   0  0  0  0  0  3  0  0  0  0  0  0
  188.4010  177.0600  141.9840 N   0  0  0  0  0  2  0  0  0  0  0  0
  190.0560  176.2420  139.0120 C   0  0  0  0  0  0  0  0  0  0  0  0
  188.3670  177.0700  140.5250 C   0  0  1  0  0  3  0  0  0  0  0  0
  191.3590  178.1080  141.4880 C   0  0  0  0  0  1  0  0  0  0  0  0
  187.8220  178.4000  140.0400 C   0  0  0  0  0  2  0  0  0  0  0  0
  186.4520  178.6630  140.6540 C   0  0  0  0  0  2  0  0  0  0  0  0
  184.6720  179.9180  139.1400 Cl  0  0  0  0  0  0  0  0  0  0  0  0
  185.2830  178.3460  139.7170 C   0  0  1  0  0  0  0  0  0  0  0  0
  185.8660  177.3760  138.2660 S   0  0  0  0  0  0  0  0  0  0  0  0
  184.8160  178.2180  137.0380 C   0  0  0  0  0  2  0  0  0  0  0  0
  183.9270  177.2300  136.3710 C   0  0  0  0  0  0  0  0  0  0  0  0
  184.0140  177.0530  135.1270 O   0  0  0  0  0  0  0  0  0  0  0  0
  182.9570  176.5200  137.1430 N   0  0  0  0  0  2  0  0  0  0  0  0
  182.1000  175.4890  136.5700 C   0  0  0  0  0  2  0  0  0  0  0  0
  182.0630  174.2360  137.4440 C   0  0  1  0  0  3  0  0  0  0  0  0
  180.8600  173.5420  137.2810 O   0  0  0  0  0  1  0  0  0  0  0  0
  183.2670  173.3280  137.1970 C   0  0  2  0  0  3  0  0  0  0  0  0
  184.3500  173.7120  137.9900 O   0  0  0  0  0  1  0  0  0  0  0  0
  183.6610  173.3710  135.7300 C   0  0  0  0  0  2  0  0  0  0  0  0
  184.9860  172.9600  135.5860 O   0  0  0  0  0  0  0  0  0  0  0  0
  185.5820  173.9560  134.8120 C   0  0  0  0  0  2  0  0  0  0  0  0
  186.9240  174.3500  135.4070 C   0  0  0  0  0  2  0  0  0  0  0  0
  188.2920  173.0540  136.8800 O   0  0  0  0  0  1  0  0  0  0  0  0
  187.8290  173.1390  135.5660 C   0  0  0  0  0  2  0  0  0  0  0  0
  184.1340  177.6550  140.4690 C   0  0  0  0  0  2  0  0  0  0  0  0
  183.3610  178.5830  141.3960 C   0  0  0  0  0  2  0  0  0  0  0  0
  181.8900  178.5350  141.0470 C   0  0  0  0  0  2  0  0  0  0  0  0
  181.7460  178.3290  139.6760 O   0  0  0  0  0  1  0  0  0  0  0  0
  190.0210  177.0260  143.6670 C   0  0  0  0  0  2  0  0  0  0  0  0
  189.3270  176.3440  144.7050 O   0  0  0  0  0  0  0  0  0  0  0  0
  186.6280  178.2510  146.3550 C   0  0  0  0  0  0  0  0  0  0  0  0
  188.3410  177.7700  147.9980 C   0  0  0  0  0  3  0  0  0  0  0  0
  187.3740  177.5830  145.3790 C   0  0  0  0  0  3  0  0  0  0  0  0
  188.6070  177.0060  145.7040 C   0  0  0  0  0  0  0  0  0  0  0  0
  187.1120  178.3460  147.6630 C   0  0  0  0  0  3  0  0  0  0  0  0
  185.3210  178.8610  146.0010 C   0  0  0  0  0  1  0  0  0  0  0  0
  189.0870  177.1020  147.0220 C   0  0  0  0  0  3  0  0  0  0  0  0
  190.6790  176.2770  136.6780 C   0  0  0  0  0  2  0  0  0  0  0  0
  190.7920  175.2760  135.5460 C   0  0  0  0  0  2  0  0  0  0  0  0
  191.7650  174.1700  135.9160 C   0  0  0  0  0  2  0  0  0  0  0  0
  192.9560  174.7220  136.3960 O   0  0  0  0  0  0  0  0  0  0  0  0
  193.8410  173.6430  136.4960 C   0  0  1  0  0  3  0  0  0  0  0  0
  194.4130  173.5430  137.9100 C   0  0  0  0  0  2  0  0  0  0  0  0
  196.1560  175.1520  137.1200 O   0  0  0  0  0  0  0  0  0  0  0  0
  195.7600  174.8750  139.3620 O   0  0  0  0  0  1  0  0  0  0  0  0
  195.4710  174.5650  138.1770 C   0  0  0  0  0  0  0  0  0  0  0  0
  193.1500  172.3440  136.0920 C   0  0  0  0  0  2  0  0  0  0  0  0
  194.1620  171.2930  135.6680 C   0  0  0  0  0  2  0  0  0  0  0  0
  194.2350  170.2870  136.6310 O   0  0  0  0  0  1  0  0  0  0  0  0
  1 33  1  0  0  0  0
  2  8  1  1  0  0  0
  2  1  1  0  0  0  0
  3  7  1  0  0  0  0
  3  2  1  0  0  0  0
  4  6  2  0  0  0  0
  5  1  1  0  0  0  0
  6  3  2  0  0  0  0
  7  9  1  1  0  0  0
  7  5  1  0  0  0  0
  9 10  1  0  0  0  0
 12 11  1  6  0  0  0
 12 29  1  0  0  0  0
 12 10  1  0  0  0  0
 13 12  1  0  0  0  0
 14 13  1  0  0  0  0
 15 14  1  0  0  0  0
 15 17  1  0  0  0  0
 16 15  2  0  0  0  0
 18 17  1  0  0  0  0
 18 19  1  0  0  0  0
 19 20  1  6  0  0  0
 21 19  1  0  0  0  0
 21 22  1  1  0  0  0
 23 21  1  0  0  0  0
 24 23  1  0  0  0  0
 25 26  1  0  0  0  0
 25 24  1  0  0  0  0
 26 28  1  0  0  0  0
 28 27  1  0  0  0  0
 29 30  1  0  0  0  0
 31 30  1  0  0  0  0
 32 31  1  0  0  0  0
 33 34  1  0  0  0  0
 34 38  1  0  0  0  0
 35 39  1  0  0  0  0
 37 38  1  0  0  0  0
 37 35  2  0  0  0  0
 38 41  2  0  0  0  0
 39 36  2  0  0  0  0
 40 35  1  0  0  0  0
 41 36  1  0  0  0  0
 42  4  1  0  0  0  0
 43 44  1  0  0  0  0
 43 42  1  0  0  0  0
 44 45  1  0  0  0  0
 45 46  1  0  0  0  0
 46 51  1  1  0  0  0
 46 47  1  0  0  0  0
 47 50  1  0  0  0  0
 48 50  2  0  0  0  0
 50 49  1  0  0  0  0
 52 51  1  0  0  0  0
 52 53  1  0  0  0  0
M  END
>  <MODEL>
7

>  <REMARK>
 VINA RESULT:      -4.4      3.182      9.415
  Name = 
  29 active torsions:
  status: ('A' for Active; 'I' for Inactive)
    1  A    between atoms: C_1  and  C_12
    2  A    between atoms: C_1  and  O_36
    3  A    between atoms: C_2  and  C_10
    4  A    between atoms: C_3  and  C_22
    5  A    between atoms: C_4  and  C_13
    6  A    between atoms: C_4  and  C_51
    7  A    between atoms: O_6  and  C_19
    8  A    between atoms: O_6  and  C_40
    9  A    between atoms: C_7  and  C_30
   10  A    between atoms: C_7  and  C_50
   11  A    between atoms: C_8  and  C_9
   12  A    between atoms: C_8  and  C_14
   13  A    between atoms: C_10  and  C_35
   14  A    between atoms: C_12  and  C_31
   15  A    between atoms: C_13  and  O_36
   16  A    between atoms: C_14  and  C_23
   17  A    between atoms: N_15  and  C_19
   18  A    between atoms: C_17  and  C_31
   19  A    between atoms: C_17  and  N_52
   20  A    between atoms: C_22  and  S_38
   21  A    between atoms: C_23  and  C_26
   22  A    between atoms: C_23  and  S_38
   23  A    between atoms: C_26  and  C_32
   24  A    between atoms: O_29  and  C_35
   25  A    between atoms: O_29  and  C_41
   26  A    between atoms: C_32  and  C_43
   27  A    between atoms: C_35  and  C_47
   28  A    between atoms: C_41  and  C_50
   29  A    between atoms: C_42  and  C_47
                            x       y       z     vdW  Elec       q    Type
                         _______ _______ _______ _____ _____    ______ ____

>  <TORSDO>
F 29

$$$$
=
 OpenBabel11032420223D

 53 54  0  0  1  0  0  0  0  0999 V2000
  190.4200  177.8790  142.3940 N   0  0  0  0  0  0  0  0  0  0  0  0
  189.0340  177.5200  142.7350 C   0  0  1  0  0  3  0  0  0  0  0  0
  188.3130  177.6340  141.4590 C   0  0  0  0  0  0  0  0  0  0  0  0
  186.1390  179.0660  141.2940 C   0  0  0  0  0  3  0  0  0  0  0  0
  190.6130  177.5480  141.0360 N   0  0  0  0  0  2  0  0  0  0  0  0
  187.2250  178.3500  141.3770 C   0  0  0  0  0  0  0  0  0  0  0  0
  189.3150  177.6730  140.3790 C   0  0  1  0  0  3  0  0  0  0  0  0
  188.8630  176.0870  143.2490 C   0  0  0  0  0  1  0  0  0  0  0  0
  189.1060  176.4960  139.4450 C   0  0  0  0  0  2  0  0  0  0  0  0
  188.0350  176.8270  138.4120 C   0  0  0  0  0  2  0  0  0  0  0  0
  187.4590  177.0050  135.8290 Cl  0  0  0  0  0  0  0  0  0  0  0  0
  188.1350  175.9930  137.1310 C   0  0  1  0  0  0  0  0  0  0  0  0
  189.8940  175.6270  136.7350 S   0  0  0  0  0  0  0  0  0  0  0  0
  189.7090  173.8140  136.6990 C   0  0  0  0  0  2  0  0  0  0  0  0
  190.9230  173.1940  136.1050 C   0  0  0  0  0  0  0  0  0  0  0  0
  190.8120  172.4410  135.1020 O   0  0  0  0  0  0  0  0  0  0  0  0
  192.1990  173.4300  136.7030 N   0  0  0  0  0  2  0  0  0  0  0  0
  193.4380  172.9120  136.1370 C   0  0  0  0  0  2  0  0  0  0  0  0
  194.3830  172.3960  137.2230 C   0  0  1  0  0  3  0  0  0  0  0  0
  194.6940  171.0480  137.0240 O   0  0  0  0  0  1  0  0  0  0  0  0
  195.6460  173.2480  137.3360 C   0  0  2  0  0  3  0  0  0  0  0  0
  196.7090  172.4950  137.8400 O   0  0  0  0  0  1  0  0  0  0  0  0
  195.3890  174.4460  138.2350 C   0  0  0  0  0  2  0  0  0  0  0  0
  196.6040  174.9970  138.6440 O   0  0  0  0  0  0  0  0  0  0  0  0
  196.5940  174.8770  140.0350 C   0  0  0  0  0  2  0  0  0  0  0  0
  197.8250  175.5440  140.6270 C   0  0  0  0  0  2  0  0  0  0  0  0
  198.8540  175.4900  142.7860 O   0  0  0  0  0  1  0  0  0  0  0  0
  197.6590  175.7700  142.1210 C   0  0  0  0  0  2  0  0  0  0  0  0
  187.2720  174.7240  137.2210 C   0  0  0  0  0  2  0  0  0  0  0  0
  186.1360  174.6810  136.2080 C   0  0  0  0  0  2  0  0  0  0  0  0
  185.3500  173.4000  136.3830 C   0  0  0  0  0  2  0  0  0  0  0  0
  184.4680  173.5410  137.4540 O   0  0  0  0  0  1  0  0  0  0  0  0
  191.4180  177.1730  143.1960 C   0  0  0  0  0  2  0  0  0  0  0  0
  191.6100  177.8390  144.4400 O   0  0  0  0  0  0  0  0  0  0  0  0
  188.9460  177.7050  146.9950 C   0  0  0  0  0  0  0  0  0  0  0  0
  190.7570  176.2590  147.7000 C   0  0  0  0  0  3  0  0  0  0  0  0
  189.6590  178.0370  145.8390 C   0  0  0  0  0  3  0  0  0  0  0  0
  190.9240  177.4860  145.6070 C   0  0  0  0  0  0  0  0  0  0  0  0
  189.4960  176.8170  147.9260 C   0  0  0  0  0  3  0  0  0  0  0  0
  187.6040  178.2950  147.2360 C   0  0  0  0  0  1  0  0  0  0  0  0
  191.4700  176.5920  146.5440 C   0  0  0  0  0  3  0  0  0  0  0  0
  184.8530  178.4220  140.9220 C   0  0  0  0  0  2  0  0  0  0  0  0
  184.9740  177.8180  139.5380 C   0  0  0  0  0  2  0  0  0  0  0  0
  183.9180  178.3990  138.6140 C   0  0  0  0  0  2  0  0  0  0  0  0
  182.6670  177.8530  138.9150 O   0  0  0  0  0  0  0  0  0  0  0  0
  182.4890  176.8220  137.9860 C   0  0  1  0  0  3  0  0  0  0  0  0
  181.4950  175.7860  138.5110 C   0  0  0  0  0  2  0  0  0  0  0  0
  179.3500  177.0660  138.6270 O   0  0  0  0  0  1  0  0  0  0  0  0
  179.5850  175.3190  137.1590 O   0  0  0  0  0  0  0  0  0  0  0  0
  180.0960  176.0450  138.0510 C   0  0  0  0  0  0  0  0  0  0  0  0
  182.0330  177.3850  136.6430 C   0  0  0  0  0  2  0  0  0  0  0  0
  182.9230  176.8950  135.5130 C   0  0  0  0  0  2  0  0  0  0  0  0
  183.8470  177.8830  135.1720 O   0  0  0  0  0  1  0  0  0  0  0  0
  1  2  1  0  0  0  0
  1 33  1  0  0  0  0
  2  8  1  6  0  0  0
  3  2  1  0  0  0  0
  4  6  2  0  0  0  0
  5  1  1  0  0  0  0
  6  3  2  0  0  0  0
  7  9  1  6  0  0  0
  7  5  1  0  0  0  0
  7  3  1  0  0  0  0
 10  9  1  0  0  0  0
 12 11  1  6  0  0  0
 12 29  1  0  0  0  0
 12 10  1  0  0  0  0
 13 12  1  0  0  0  0
 14 13  1  0  0  0  0
 15 14  1  0  0  0  0
 15 17  1  0  0  0  0
 16 15  2  0  0  0  0
 18 17  1  0  0  0  0
 18 19  1  0  0  0  0
 19 20  1  6  0  0  0
 19 21  1  0  0  0  0
 21 22  1  1  0  0  0
 21 23  1  0  0  0  0
 23 24  1  0  0  0  0
 24 25  1  0  0  0  0
 25 26  1  0  0  0  0
 26 28  1  0  0  0  0
 28 27  1  0  0  0  0
 30 31  1  0  0  0  0
 30 29  1  0  0  0  0
 31 32  1  0  0  0  0
 33 34  1  0  0  0  0
 34 38  1  0  0  0  0
 35 40  1  0  0  0  0
 35 39  1  0  0  0  0
 36 39  2  0  0  0  0
 37 35  2  0  0  0  0
 38 37  1  0  0  0  0
 38 41  2  0  0  0  0
 41 36  1  0  0  0  0
 42  4  1  0  0  0  0
 43 42  1  0  0  0  0
 44 45  1  0  0  0  0
 44 43  1  0  0  0  0
 46 51  1  6  0  0  0
 46 47  1  0  0  0  0
 46 45  1  0  0  0  0
 49 50  2  0  0  0  0
 50 47  1  0  0  0  0
 50 48  1  0  0  0  0
 52 51  1  0  0  0  0
 53 52  1  0  0  0  0
M  END
>  <MODEL>
8

>  <REMARK>
 VINA RESULT:      -4.2      3.495      5.913
  Name = 
  29 active torsions:
  status: ('A' for Active; 'I' for Inactive)
    1  A    between atoms: C_1  and  C_12
    2  A    between atoms: C_1  and  O_36
    3  A    between atoms: C_2  and  C_10
    4  A    between atoms: C_3  and  C_22
    5  A    between atoms: C_4  and  C_13
    6  A    between atoms: C_4  and  C_51
    7  A    between atoms: O_6  and  C_19
    8  A    between atoms: O_6  and  C_40
    9  A    between atoms: C_7  and  C_30
   10  A    between atoms: C_7  and  C_50
   11  A    between atoms: C_8  and  C_9
   12  A    between atoms: C_8  and  C_14
   13  A    between atoms: C_10  and  C_35
   14  A    between atoms: C_12  and  C_31
   15  A    between atoms: C_13  and  O_36
   16  A    between atoms: C_14  and  C_23
   17  A    between atoms: N_15  and  C_19
   18  A    between atoms: C_17  and  C_31
   19  A    between atoms: C_17  and  N_52
   20  A    between atoms: C_22  and  S_38
   21  A    between atoms: C_23  and  C_26
   22  A    between atoms: C_23  and  S_38
   23  A    between atoms: C_26  and  C_32
   24  A    between atoms: O_29  and  C_35
   25  A    between atoms: O_29  and  C_41
   26  A    between atoms: C_32  and  C_43
   27  A    between atoms: C_35  and  C_47
   28  A    between atoms: C_41  and  C_50
   29  A    between atoms: C_42  and  C_47
                            x       y       z     vdW  Elec       q    Type
                         _______ _______ _______ _____ _____    ______ ____

>  <TORSDO>
F 29

$$$$
=
 OpenBabel11032420223D

 53 54  0  0  1  0  0  0  0  0999 V2000
  188.0780  176.9710  138.3270 N   0  0  0  0  0  0  0  0  0  0  0  0
  189.1580  176.8030  137.3410 C   0  0  1  0  0  3  0  0  0  0  0  0
  188.8650  175.5070  136.7120 C   0  0  0  0  0  0  0  0  0  0  0  0
  190.7060  173.6650  136.5650 C   0  0  0  0  0  3  0  0  0  0  0  0
  186.9600  176.2560  137.8470 N   0  0  0  0  0  2  0  0  0  0  0  0
  189.7870  174.5850  136.6380 C   0  0  0  0  0  0  0  0  0  0  0  0
  187.4750  175.1470  137.0490 C   0  0  1  0  0  3  0  0  0  0  0  0
  189.1770  177.8690  136.2410 C   0  0  0  0  0  1  0  0  0  0  0  0
  186.6590  175.0160  135.7770 C   0  0  0  0  0  2  0  0  0  0  0  0
  185.1710  174.9890  136.1070 C   0  0  0  0  0  2  0  0  0  0  0  0
  185.4650  172.8510  137.6490 Cl  0  0  0  0  0  0  0  0  0  0  0  0
  184.6000  173.5770  136.2700 C   0  0  1  0  0  0  0  0  0  0  0  0
  182.8070  173.6510  136.6770 S   0  0  0  0  0  0  0  0  0  0  0  0
  182.9000  175.1710  137.6780 C   0  0  0  0  0  2  0  0  0  0  0  0
  181.7270  176.0380  137.3910 C   0  0  0  0  0  0  0  0  0  0  0  0
  180.6150  175.5130  137.1170 O   0  0  0  0  0  0  0  0  0  0  0  0
  181.8820  177.4580  137.3910 N   0  0  0  0  0  2  0  0  0  0  0  0
  180.7640  178.3700  137.1860 C   0  0  0  0  0  2  0  0  0  0  0  0
  181.2360  179.8120  137.0100 C   0  0  1  0  0  3  0  0  0  0  0  0
  180.9270  180.2940  135.7340 O   0  0  0  0  0  1  0  0  0  0  0  0
  180.6870  180.7330  138.1000 C   0  0  2  0  0  3  0  0  0  0  0  0
  181.5660  181.7900  138.3460 O   0  0  0  0  0  1  0  0  0  0  0  0
  180.4530  179.9460  139.3780 C   0  0  0  0  0  2  0  0  0  0  0  0
  181.6350  179.8880  140.1180 O   0  0  0  0  0  0  0  0  0  0  0  0
  181.3490  179.0170  141.1700 C   0  0  0  0  0  2  0  0  0  0  0  0
  179.8830  178.6170  141.1360 C   0  0  0  0  0  2  0  0  0  0  0  0
  180.1110  179.4780  143.3570 O   0  0  0  0  0  1  0  0  0  0  0  0
  179.2210  178.8490  142.4850 C   0  0  0  0  0  2  0  0  0  0  0  0
  184.8910  172.7090  135.0360 C   0  0  0  0  0  2  0  0  0  0  0  0
  185.5060  171.3560  135.3680 C   0  0  0  0  0  2  0  0  0  0  0  0
  184.4070  170.3650  135.6810 C   0  0  0  0  0  2  0  0  0  0  0  0
  183.4660  170.3760  134.6520 O   0  0  0  0  0  1  0  0  0  0  0  0
  187.6890  178.3670  138.5320 C   0  0  0  0  0  2  0  0  0  0  0  0
  188.2100  178.8450  139.7680 O   0  0  0  0  0  0  0  0  0  0  0  0
  188.0470  177.3960  143.1610 C   0  0  0  0  0  0  0  0  0  0  0  0
  185.8850  178.3490  142.6300 C   0  0  0  0  0  3  0  0  0  0  0  0
  188.5300  177.7900  141.9090 C   0  0  0  0  0  3  0  0  0  0  0  0
  187.6950  178.4630  141.0100 C   0  0  0  0  0  0  0  0  0  0  0  0
  186.7240  177.6740  143.5210 C   0  0  0  0  0  3  0  0  0  0  0  0
  188.9390  176.6800  144.1090 C   0  0  0  0  0  1  0  0  0  0  0  0
  186.3680  178.7430  141.3790 C   0  0  0  0  0  3  0  0  0  0  0  0
  191.1660  173.1800  135.2380 C   0  0  0  0  0  2  0  0  0  0  0  0
  192.2860  174.0690  134.7370 C   0  0  0  0  0  2  0  0  0  0  0  0
  193.3470  174.2360  135.8110 C   0  0  0  0  0  2  0  0  0  0  0  0
  194.5120  173.5580  135.4400 O   0  0  0  0  0  0  0  0  0  0  0  0
  195.2420  173.4190  136.6250 C   0  0  1  0  0  3  0  0  0  0  0  0
  194.5410  174.1360  137.7800 C   0  0  0  0  0  2  0  0  0  0  0  0
  196.6190  173.6950  139.1000 O   0  0  0  0  0  0  0  0  0  0  0  0
  195.1920  175.3850  139.7070 O   0  0  0  0  0  1  0  0  0  0  0  0
  195.4690  174.4510  138.9100 C   0  0  0  0  0  0  0  0  0  0  0  0
  195.4620  171.9450  136.9500 C   0  0  0  0  0  2  0  0  0  0  0  0
  196.6850  171.4010  136.2320 C   0  0  0  0  0  2  0  0  0  0  0  0
  197.5250  172.4510  135.8600 O   0  0  0  0  0  1  0  0  0  0  0  0
  1 33  1  0  0  0  0
  2  8  1  6  0  0  0
  2  1  1  0  0  0  0
  3  7  1  0  0  0  0
  3  2  1  0  0  0  0
  4  6  2  0  0  0  0
  5  1  1  0  0  0  0
  6  3  2  0  0  0  0
  7  9  1  6  0  0  0
  7  5  1  0  0  0  0
  9 10  1  0  0  0  0
 10 12  1  0  0  0  0
 12 13  1  0  0  0  0
 12 11  1  1  0  0  0
 13 14  1  0  0  0  0
 15 17  1  0  0  0  0
 15 14  1  0  0  0  0
 16 15  2  0  0  0  0
 18 17  1  0  0  0  0
 19 20  1  6  0  0  0
 19 18  1  0  0  0  0
 19 21  1  0  0  0  0
 21 22  1  1  0  0  0
 21 23  1  0  0  0  0
 23 24  1  0  0  0  0
 24 25  1  0  0  0  0
 26 25  1  0  0  0  0
 26 28  1  0  0  0  0
 28 27  1  0  0  0  0
 29 30  1  0  0  0  0
 29 12  1  0  0  0  0
 30 31  1  0  0  0  0
 32 31  1  0  0  0  0
 33 34  1  0  0  0  0
 34 38  1  0  0  0  0
 35 39  1  0  0  0  0
 35 40  1  0  0  0  0
 36 39  2  0  0  0  0
 37 35  2  0  0  0  0
 38 41  2  0  0  0  0
 38 37  1  0  0  0  0
 41 36  1  0  0  0  0
 42  4  1  0  0  0  0
 43 42  1  0  0  0  0
 43 44  1  0  0  0  0
 45 44  1  0  0  0  0
 45 46  1  0  0  0  0
 46 51  1  1  0  0  0
 46 47  1  0  0  0  0
 47 50  1  0  0  0  0
 50 48  2  0  0  0  0
 50 49  1  0  0  0  0
 52 51  1  0  0  0  0
 53 52  1  0  0  0  0
M  END
>  <MODEL>
9

>  <REMARK>
 VINA RESULT:      -4.2      4.123      9.878
  Name = 
  29 active torsions:
  status: ('A' for Active; 'I' for Inactive)
    1  A    between atoms: C_1  and  C_12
    2  A    between atoms: C_1  and  O_36
    3  A    between atoms: C_2  and  C_10
    4  A    between atoms: C_3  and  C_22
    5  A    between atoms: C_4  and  C_13
    6  A    between atoms: C_4  and  C_51
    7  A    between atoms: O_6  and  C_19
    8  A    between atoms: O_6  and  C_40
    9  A    between atoms: C_7  and  C_30
   10  A    between atoms: C_7  and  C_50
   11  A    between atoms: C_8  and  C_9
   12  A    between atoms: C_8  and  C_14
   13  A    between atoms: C_10  and  C_35
   14  A    between atoms: C_12  and  C_31
   15  A    between atoms: C_13  and  O_36
   16  A    between atoms: C_14  and  C_23
   17  A    between atoms: N_15  and  C_19
   18  A    between atoms: C_17  and  C_31
   19  A    between atoms: C_17  and  N_52
   20  A    between atoms: C_22  and  S_38
   21  A    between atoms: C_23  and  C_26
   22  A    between atoms: C_23  and  S_38
   23  A    between atoms: C_26  and  C_32
   24  A    between atoms: O_29  and  C_35
   25  A    between atoms: O_29  and  C_41
   26  A    between atoms: C_32  and  C_43
   27  A    between atoms: C_35  and  C_47
   28  A    between atoms: C_41  and  C_50
   29  A    between atoms: C_42  and  C_47
                            x       y       z     vdW  Elec       q    Type
                         _______ _______ _______ _____ _____    ______ ____

>  <TORSDO>
F 29

$$$$
