=
 OpenBabel11032419463D

 45 51  0  0  1  0  0  0  0  0999 V2000
  187.2350  178.3750  141.9580 C   0  0  1  0  0  3  0  0  0  0  0  0
  185.4260  179.7890  143.0270 C   0  0  0  0  0  1  0  0  0  0  0  0
  186.0430  179.3250  141.7160 C   0  0  2  0  0  3  0  0  0  0  0  0
  178.9310  178.6690  142.3700 N   0  0  0  0  0  0  0  0  0  0  0  0
  181.7040  175.6150  136.6250 C   0  0  0  0  0  0  0  0  0  0  0  0
  179.9330  177.0440  139.5100 N   0  0  0  0  0  0  0  0  0  0  0  0
  180.2800  175.4450  137.4860 S   0  0  0  0  0  0  0  0  0  0  0  0
  180.0990  178.4650  143.1680 C   0  0  0  0  0  3  0  0  0  0  0  0
  182.0710  177.0220  138.3600 C   0  0  0  0  0  0  0  0  0  0  0  0
  182.6390  178.0840  140.5540 C   0  0  0  0  0  0  0  0  0  0  0  0
  182.5600  176.4800  137.2020 N   0  0  0  0  0  2  0  0  0  0  0  0
  183.7210  178.5160  141.3470 C   0  0  0  0  0  3  0  0  0  0  0  0
  180.1790  178.2330  140.2940 C   0  0  2  0  0  3  0  0  0  0  0  0
  180.7610  176.5730  138.6360 C   0  0  0  0  0  0  0  0  0  0  0  0
  185.2200  178.5020  139.4730 C   0  0  0  0  0  3  0  0  0  0  0  0
  181.2760  178.2040  142.6080 C   0  0  0  0  0  3  0  0  0  0  0  0
  182.8990  177.7430  139.1770 C   0  0  0  0  0  0  0  0  0  0  0  0
  184.1960  177.9980  138.6760 C   0  0  0  0  0  3  0  0  0  0  0  0
  181.4160  178.0930  141.1350 C   0  0  0  0  0  0  0  0  0  0  0  0
  178.9390  178.5810  141.0750 C   0  0  0  0  0  3  0  0  0  0  0  0
  184.9920  178.7290  140.8260 C   0  0  0  0  0  0  0  0  0  0  0  0
  181.9680  175.0010  135.5590 O   0  0  0  0  0  0  0  0  0  0  0  0
  188.3080  178.5590  140.9750 N   0  0  0  0  0  2  0  0  0  0  0  0
  190.5830  175.9700  139.7390 O   0  0  0  0  0  0  0  0  0  0  0  0
  190.3430  176.3940  138.4080 C   0  0  2  0  0  3  0  0  0  0  0  0
  189.8940  176.6820  140.7050 C   0  0  0  0  0  0  0  0  0  0  0  0
  189.0210  177.5600  140.2210 C   0  0  0  0  0  0  0  0  0  0  0  0
  188.9020  177.5240  138.4390 S   0  0  0  0  0  0  0  0  0  0  0  0
  190.6580  174.1660  137.7840 O   0  0  0  0  0  0  0  0  0  0  0  0
  190.0770  175.2460  137.5570 N   0  0  0  0  0  0  0  0  0  0  0  0
  189.0820  175.2970  136.6090 O   0  0  0  0  0  0  0  0  0  0  0  0
  190.1390  176.4810  142.0960 N   0  0  0  0  0  2  0  0  0  0  0  0
  191.2860  178.2830  143.2260 C   0  0  0  0  0  1  0  0  0  0  0  0
  191.3910  176.8560  142.7320 C   0  0  0  0  0  3  0  0  0  0  0  0
  191.6710  175.9380  143.9110 C   0  0  0  0  0  1  0  0  0  0  0  0
  187.7720  178.5120  143.3090 N   0  0  0  0  0  2  0  0  0  0  0  0
  186.8130  177.6310  145.2430 C   0  0  0  0  0  0  0  0  0  0  0  0
  189.0410  177.1930  146.3250 C   0  0  0  0  0  3  0  0  0  0  0  0
  188.2220  177.2620  145.2460 C   0  0  0  0  0  0  0  0  0  0  0  0
  187.4800  177.2940  144.0510 C   0  0  2  0  0  3  0  0  0  0  0  0
  188.3100  177.5470  147.5170 C   0  0  0  0  0  0  0  0  0  0  0  0
  186.8930  177.9210  147.5210 C   0  0  0  0  0  3  0  0  0  0  0  0
  188.9660  177.5200  148.7010 F   0  0  0  0  0  0  0  0  0  0  0  0
  186.0860  177.9730  146.3350 C   0  0  0  0  0  0  0  0  0  0  0  0
  184.7790  178.3290  146.3070 F   0  0  0  0  0  0  0  0  0  0  0  0
  1 23  1  6  0  0  0
  1 36  1  0  0  0  0
  3  1  1  0  0  0  0
  3  2  1  1  0  0  0
  4  8  1  0  0  0  0
  5 11  1  0  0  0  0
  5  7  1  0  0  0  0
  6 13  1  0  0  0  0
  7 14  1  0  0  0  0
  9 14  1  0  0  0  0
  9 17  2  0  0  0  0
 10 19  2  0  0  0  0
 10 12  1  0  0  0  0
 11  9  1  0  0  0  0
 13 20  1  1  0  0  0
 13 19  1  0  0  0  0
 14  6  2  0  0  0  0
 15 21  1  0  0  0  0
 16  8  2  0  0  0  0
 17 10  1  0  0  0  0
 18 17  1  0  0  0  0
 18 15  2  0  0  0  0
 19 16  1  0  0  0  0
 20  4  2  0  0  0  0
 21 12  2  0  0  0  0
 21  3  1  0  0  0  0
 22  5  2  0  0  0  0
 24 26  1  0  0  0  0
 25 30  1  6  0  0  0
 25 28  1  0  0  0  0
 25 24  1  0  0  0  0
 26 32  1  0  0  0  0
 27 26  2  0  0  0  0
 27 23  1  0  0  0  0
 28 27  1  0  0  0  0
 30 29  2  0  0  0  0
 31 30  2  0  0  0  0
 32 34  1  0  0  0  0
 34 33  1  0  0  0  0
 34 35  1  0  0  0  0
 37 39  2  0  0  0  0
 37 44  1  0  0  0  0
 38 41  2  0  0  0  0
 39 38  1  0  0  0  0
 40 36  1  6  0  0  0
 40 37  1  0  0  0  0
 40 39  1  0  0  0  0
 41 42  1  0  0  0  0
 41 43  1  0  0  0  0
 44 42  2  0  0  0  0
 45 44  1  0  0  0  0
M  END
>  <MODEL>
1

>  <REMARK>
 VINA RESULT:      -9.8      0.000      0.000
  Name = 
  9 active torsions:
  status: ('A' for Active; 'I' for Inactive)
    1  A    between atoms: C_10  and  N_41
    2  A    between atoms: C_12  and  C_18
    3  A    between atoms: C_12  and  C_40
    4  A    between atoms: C_13  and  N_44
    5  A    between atoms: C_14  and  N_33
    6  A    between atoms: C_18  and  N_25
    7  A    between atoms: C_18  and  N_41
    8  A    between atoms: C_19  and  N_44
    9  A    between atoms: N_25  and  C_26
                            x       y       z     vdW  Elec       q    Type
                         _______ _______ _______ _____ _____    ______ ____

>  <TORSDO>
F 9

$$$$
=
 OpenBabel11032419463D

 45 51  0  0  1  0  0  0  0  0999 V2000
  188.0280  176.7400  137.8310 C   0  0  1  0  0  3  0  0  0  0  0  0
  189.1840  178.9850  138.0280 C   0  0  0  0  0  1  0  0  0  0  0  0
  188.1290  178.0630  138.6200 C   0  0  2  0  0  3  0  0  0  0  0  0
  183.9590  178.7310  144.4170 N   0  0  0  0  0  0  0  0  0  0  0  0
  190.7160  177.1290  145.7570 C   0  0  0  0  0  0  0  0  0  0  0  0
  187.1600  177.9960  145.4360 N   0  0  0  0  0  0  0  0  0  0  0  0
  189.4580  177.7900  146.6400 S   0  0  0  0  0  0  0  0  0  0  0  0
  184.2630  179.4680  143.2300 C   0  0  0  0  0  3  0  0  0  0  0  0
  189.1120  177.3030  144.1700 C   0  0  0  0  0  0  0  0  0  0  0  0
  187.5320  178.0500  142.3780 C   0  0  0  0  0  0  0  0  0  0  0  0
  190.3930  176.9240  144.4660 N   0  0  0  0  0  2  0  0  0  0  0  0
  187.4440  178.3160  140.9970 C   0  0  0  0  0  3  0  0  0  0  0  0
  186.1820  177.6750  144.4210 C   0  0  0  0  0  0  0  0  0  0  0  0
  188.4270  177.7720  145.3120 C   0  0  0  0  0  0  0  0  0  0  0  0
  189.4620  177.1000  140.5390 C   0  0  0  0  0  3  0  0  0  0  0  0
  185.4270  179.3170  142.6080 C   0  0  0  0  0  3  0  0  0  0  0  0
  188.7050  177.3660  142.8640 C   0  0  0  0  0  0  0  0  0  0  0  0
  189.6240  176.8850  141.9040 C   0  0  0  0  0  2  0  0  0  0  0  0
  186.4640  178.3970  143.1350 C   0  0  0  0  0  0  0  0  0  0  0  0
  184.7990  177.9100  144.9690 C   0  0  0  0  0  3  0  0  0  0  0  0
  188.3830  177.8510  140.0840 C   0  0  0  0  0  0  0  0  0  0  0  0
  191.8500  176.8580  146.2300 O   0  0  0  0  0  0  0  0  0  0  0  0
  186.7810  176.6350  137.0670 N   0  0  0  0  0  2  0  0  0  0  0  0
  183.7780  174.6770  137.8130 O   0  0  0  0  0  0  0  0  0  0  0  0
  184.5050  173.4800  137.5980 C   0  0  2  0  0  3  0  0  0  0  0  0
  184.5120  175.8380  137.6370 C   0  0  0  0  0  0  0  0  0  0  0  0
  185.7410  175.6440  137.1690 C   0  0  0  0  0  0  0  0  0  0  0  0
  186.0920  173.9320  136.8030 S   0  0  0  0  0  0  0  0  0  0  0  0
  183.7840  172.7190  135.5100 O   0  0  0  0  0  0  0  0  0  0  0  0
  183.7430  172.5790  136.7500 N   0  0  0  0  0  0  0  0  0  0  0  0
  183.1070  171.4850  137.2890 O   0  0  0  0  0  0  0  0  0  0  0  0
  183.9710  177.1180  137.9610 N   0  0  0  0  0  2  0  0  0  0  0  0
  184.3070  179.2610  139.0280 C   0  0  0  0  0  1  0  0  0  0  0  0
  184.2060  177.7650  139.2410 C   0  0  0  0  0  3  0  0  0  0  0  0
  183.0560  177.4720  140.1910 C   0  0  0  0  0  1  0  0  0  0  0  0
  189.1700  176.5500  136.9430 N   0  0  0  0  0  2  0  0  0  0  0  0
  191.2440  175.8290  137.7300 C   0  0  0  0  0  0  0  0  0  0  0  0
  191.8630  174.7500  135.5440 C   0  0  0  0  0  3  0  0  0  0  0  0
  190.9670  175.1020  136.4980 C   0  0  0  0  0  0  0  0  0  0  0  0
  189.9400  175.4070  137.4120 C   0  0  2  0  0  3  0  0  0  0  0  0
  193.1800  175.2050  135.9180 C   0  0  0  0  0  0  0  0  0  0  0  0
  193.4650  175.9390  137.1540 C   0  0  0  0  0  3  0  0  0  0  0  0
  194.2110  174.9290  135.0860 F   0  0  0  0  0  0  0  0  0  0  0  0
  192.4610  176.2800  138.1210 C   0  0  0  0  0  0  0  0  0  0  0  0
  192.6940  176.9700  139.2640 F   0  0  0  0  0  0  0  0  0  0  0  0
  1 36  1  6  0  0  0
  1  3  1  0  0  0  0
  3  2  1  6  0  0  0
  3 21  1  0  0  0  0
  4 20  1  0  0  0  0
  5 22  2  0  0  0  0
  5  7  1  0  0  0  0
  8  4  2  0  0  0  0
  9 11  1  0  0  0  0
  9 14  1  0  0  0  0
 10 17  1  0  0  0  0
 10 19  1  0  0  0  0
 11  5  1  0  0  0  0
 12 10  2  0  0  0  0
 13 20  2  0  0  0  0
 13  6  1  0  0  0  0
 14  6  2  0  0  0  0
 14  7  1  0  0  0  0
 15 18  1  0  0  0  0
 16 19  2  0  0  0  0
 16  8  1  0  0  0  0
 17  9  2  0  0  0  0
 18 17  1  0  0  0  0
 19 13  1  0  0  0  0
 21 15  2  0  0  0  0
 21 12  1  0  0  0  0
 23 27  1  0  0  0  0
 23  1  1  0  0  0  0
 25 30  1  6  0  0  0
 25 24  1  0  0  0  0
 26 24  1  0  0  0  0
 26 32  1  0  0  0  0
 27 26  2  0  0  0  0
 28 27  1  0  0  0  0
 28 25  1  0  0  0  0
 29 30  2  0  0  0  0
 30 31  2  0  0  0  0
 32 34  1  0  0  0  0
 33 34  1  0  0  0  0
 34 35  1  0  0  0  0
 37 44  1  0  0  0  0
 38 41  2  0  0  0  0
 38 39  1  0  0  0  0
 39 40  1  0  0  0  0
 39 37  2  0  0  0  0
 40 36  1  6  0  0  0
 40 37  1  0  0  0  0
 41 42  1  0  0  0  0
 42 44  2  0  0  0  0
 43 41  1  0  0  0  0
 44 45  1  0  0  0  0
M  END
>  <MODEL>
2

>  <REMARK>
 VINA RESULT:      -9.5      3.882      8.406
  Name = 
  9 active torsions:
  status: ('A' for Active; 'I' for Inactive)
    1  A    between atoms: C_10  and  N_41
    2  A    between atoms: C_12  and  C_18
    3  A    between atoms: C_12  and  C_40
    4  A    between atoms: C_13  and  N_44
    5  A    between atoms: C_14  and  N_33
    6  A    between atoms: C_18  and  N_25
    7  A    between atoms: C_18  and  N_41
    8  A    between atoms: C_19  and  N_44
    9  A    between atoms: N_25  and  C_26
                            x       y       z     vdW  Elec       q    Type
                         _______ _______ _______ _____ _____    ______ ____

>  <TORSDO>
F 9

$$$$
=
 OpenBabel11032419463D

 45 51  0  0  1  0  0  0  0  0999 V2000
  188.8560  177.8610  141.3360 C   0  0  1  0  0  3  0  0  0  0  0  0
  187.8960  177.9240  138.9930 C   0  0  0  0  0  1  0  0  0  0  0  0
  189.1440  178.1190  139.8410 C   0  0  2  0  0  3  0  0  0  0  0  0
  189.4360  172.9530  134.8740 N   0  0  0  0  0  0  0  0  0  0  0  0
  195.5120  174.1830  138.2770 C   0  0  0  0  0  0  0  0  0  0  0  0
  192.5300  173.2500  136.3440 N   0  0  0  0  0  0  0  0  0  0  0  0
  194.8890  172.9090  137.3890 S   0  0  0  0  0  0  0  0  0  0  0  0
  188.6190  173.3150  135.9910 C   0  0  0  0  0  3  0  0  0  0  0  0
  193.4130  174.9210  137.8670 C   0  0  0  0  0  0  0  0  0  0  0  0
  190.9580  175.4080  137.8820 C   0  0  0  0  0  0  0  0  0  0  0  0
  194.6230  175.1780  138.4530 N   0  0  0  0  0  2  0  0  0  0  0  0
  189.9670  176.1740  138.5290 C   0  0  0  0  0  3  0  0  0  0  0  0
  191.4100  174.0320  135.8710 C   0  0  0  0  0  0  0  0  0  0  0  0
  193.4150  173.6900  137.1770 C   0  0  1  0  0  3  0  0  0  0  0  0
  191.6010  177.6560  139.4750 C   0  0  0  0  0  3  0  0  0  0  0  0
  189.1080  174.0360  136.9940 C   0  0  0  0  0  3  0  0  0  0  0  0
  192.3400  175.7270  138.1400 C   0  0  0  0  0  0  0  0  0  0  0  0
  192.6100  176.8770  138.9170 C   0  0  0  0  0  3  0  0  0  0  0  0
  190.5270  174.4710  137.0040 C   0  0  0  0  0  0  0  0  0  0  0  0
  190.6910  173.2700  134.7890 C   0  0  0  0  0  3  0  0  0  0  0  0
  190.2710  177.2820  139.3110 C   0  0  0  0  0  0  0  0  0  0  0  0
  196.6800  174.2170  138.7460 O   0  0  0  0  0  0  0  0  0  0  0  0
  187.4600  177.4870  141.5830 N   0  0  0  0  0  2  0  0  0  0  0  0
  184.9390  179.6220  143.1600 O   0  0  0  0  0  0  0  0  0  0  0  0
  185.4140  179.2400  144.4390 C   0  0  2  0  0  3  0  0  0  0  0  0
  185.6070  179.0390  142.0980 C   0  0  0  0  0  0  0  0  0  0  0  0
  186.4970  178.1170  142.4490 C   0  0  0  0  0  0  0  0  0  0  0  0
  186.5320  177.8080  144.2080 S   0  0  0  0  0  0  0  0  0  0  0  0
  183.1620  178.7400  144.8080 O   0  0  0  0  0  0  0  0  0  0  0  0
  184.2990  178.8870  145.3020 N   0  0  0  0  0  0  0  0  0  0  0  0
  184.5140  178.5650  146.6220 O   0  0  0  0  0  0  0  0  0  0  0  0
  185.3520  179.4320  140.7500 N   0  0  0  0  0  2  0  0  0  0  0  0
  184.3960  178.8500  138.6070 C   0  0  0  0  0  1  0  0  0  0  0  0
  184.1060  179.1240  140.0680 C   0  0  0  0  0  3  0  0  0  0  0  0
  183.4640  177.8940  140.6890 C   0  0  0  0  0  1  0  0  0  0  0  0
  189.7470  176.8470  141.8920 N   0  0  0  0  0  2  0  0  0  0  0  0
  191.2590  176.6780  143.6590 C   0  0  0  0  0  0  0  0  0  0  0  0
  189.9310  178.2210  145.1360 C   0  0  0  0  0  3  0  0  0  0  0  0
  190.3990  177.8220  143.9270 C   0  0  0  0  0  0  0  0  0  0  0  0
  190.8170  177.5160  142.6190 C   0  0  2  0  0  3  0  0  0  0  0  0
  190.4130  177.3320  146.1650 C   0  0  0  0  0  0  0  0  0  0  0  0
  191.2760  176.1780  145.9010 C   0  0  0  0  0  3  0  0  0  0  0  0
  190.0560  177.5840  147.4460 F   0  0  0  0  0  0  0  0  0  0  0  0
  191.7330  175.8140  144.5900 C   0  0  0  0  0  0  0  0  0  0  0  0
  192.5180  174.7440  144.3160 F   0  0  0  0  0  0  0  0  0  0  0  0
  1 23  1  6  0  0  0
  1 36  1  0  0  0  0
  3  2  1  6  0  0  0
  3  1  1  0  0  0  0
  4  8  1  0  0  0  0
  5 11  1  0  0  0  0
  5 22  2  0  0  0  0
  7  5  1  0  0  0  0
  8 16  2  0  0  0  0
  9 17  2  0  0  0  0
  9 11  1  0  0  0  0
 10 17  1  0  0  0  0
 10 12  1  0  0  0  0
 12 21  2  0  0  0  0
 13  6  2  0  0  0  0
 13 19  1  0  0  0  0
 14  6  1  6  0  0  0
 14  7  1  0  0  0  0
 14  9  1  0  0  0  0
 16 19  1  0  0  0  0
 17 18  1  0  0  0  0
 18 15  2  0  0  0  0
 19 10  2  0  0  0  0
 20  4  2  0  0  0  0
 20 13  1  0  0  0  0
 21 15  1  0  0  0  0
 21  3  1  0  0  0  0
 23 27  1  0  0  0  0
 24 25  1  0  0  0  0
 25 30  1  1  0  0  0
 26 27  2  0  0  0  0
 26 24  1  0  0  0  0
 27 28  1  0  0  0  0
 28 25  1  0  0  0  0
 29 30  2  0  0  0  0
 30 31  2  0  0  0  0
 32 26  1  0  0  0  0
 33 34  1  0  0  0  0
 34 35  1  0  0  0  0
 34 32  1  0  0  0  0
 37 39  2  0  0  0  0
 37 44  1  0  0  0  0
 38 41  2  0  0  0  0
 39 38  1  0  0  0  0
 40 36  1  6  0  0  0
 40 37  1  0  0  0  0
 40 39  1  0  0  0  0
 41 43  1  0  0  0  0
 42 41  1  0  0  0  0
 44 42  2  0  0  0  0
 45 44  1  0  0  0  0
M  END
>  <MODEL>
3

>  <REMARK>
 VINA RESULT:      -9.5      3.874      9.024
  Name = 
  9 active torsions:
  status: ('A' for Active; 'I' for Inactive)
    1  A    between atoms: C_10  and  N_41
    2  A    between atoms: C_12  and  C_18
    3  A    between atoms: C_12  and  C_40
    4  A    between atoms: C_13  and  N_44
    5  A    between atoms: C_14  and  N_33
    6  A    between atoms: C_18  and  N_25
    7  A    between atoms: C_18  and  N_41
    8  A    between atoms: C_19  and  N_44
    9  A    between atoms: N_25  and  C_26
                            x       y       z     vdW  Elec       q    Type
                         _______ _______ _______ _____ _____    ______ ____

>  <TORSDO>
F 9

$$$$
=
 OpenBabel11032419463D

 45 51  0  0  1  0  0  0  0  0999 V2000
  185.5940  178.5090  142.0290 C   0  0  1  0  0  3  0  0  0  0  0  0
  183.4260  178.9160  143.2740 C   0  0  0  0  0  1  0  0  0  0  0  0
  184.1590  179.0720  141.9500 C   0  0  2  0  0  3  0  0  0  0  0  0
  180.6350  181.9390  136.4000 N   0  0  0  0  0  0  0  0  0  0  0  0
  179.9590  174.9320  137.0790 C   0  0  0  0  0  0  0  0  0  0  0  0
  180.0540  178.5510  136.4480 N   0  0  0  0  0  0  0  0  0  0  0  0
  179.0940  176.1360  136.3030 S   0  0  0  0  0  0  0  0  0  0  0  0
  180.7780  182.1640  137.8050 C   0  0  0  0  0  3  0  0  0  0  0  0
  181.0770  176.7800  137.7550 C   0  0  0  0  0  0  0  0  0  0  0  0
  181.8870  178.8500  138.9060 C   0  0  0  0  0  0  0  0  0  0  0  0
  180.9800  175.4160  137.8110 N   0  0  0  0  0  2  0  0  0  0  0  0
  182.5710  179.3050  140.0510 C   0  0  0  0  0  3  0  0  0  0  0  0
  181.0910  179.5350  136.6620 C   0  0  0  0  0  0  0  0  0  0  0  0
  180.1070  177.3400  136.8970 C   0  0  1  0  0  3  0  0  0  0  0  0
  183.4720  177.1250  140.4930 C   0  0  0  0  0  3  0  0  0  0  0  0
  181.1050  181.1740  138.6290 C   0  0  0  0  0  3  0  0  0  0  0  0
  181.9180  177.4380  138.6130 C   0  0  0  0  0  0  0  0  0  0  0  0
  182.7470  176.6230  139.4160 C   0  0  0  0  0  3  0  0  0  0  0  0
  181.3110  179.7940  138.1250 C   0  0  0  0  0  0  0  0  0  0  0  0
  180.7800  180.7700  135.8570 C   0  0  0  0  0  3  0  0  0  0  0  0
  183.3550  178.4680  140.8360 C   0  0  0  0  0  0  0  0  0  0  0  0
  179.6910  173.7050  137.0060 O   0  0  0  0  0  0  0  0  0  0  0  0
  186.4560  179.0150  140.9570 N   0  0  0  0  0  2  0  0  0  0  0  0
  188.8000  177.2320  138.7820 O   0  0  0  0  0  0  0  0  0  0  0  0
  189.5820  176.8810  139.9120 C   0  0  2  0  0  3  0  0  0  0  0  0
  187.6800  177.9930  139.0690 C   0  0  0  0  0  0  0  0  0  0  0  0
  187.5910  178.3810  140.3370 C   0  0  0  0  0  0  0  0  0  0  0  0
  188.9960  177.8900  141.3230 S   0  0  0  0  0  0  0  0  0  0  0  0
  191.7250  177.5400  140.5670 O   0  0  0  0  0  0  0  0  0  0  0  0
  190.9870  177.1360  139.6450 N   0  0  0  0  0  0  0  0  0  0  0  0
  191.5410  176.7900  138.4340 O   0  0  0  0  0  0  0  0  0  0  0  0
  186.7120  178.3010  138.0680 N   0  0  0  0  0  2  0  0  0  0  0  0
  185.0660  177.2790  136.6220 C   0  0  0  0  0  1  0  0  0  0  0  0
  186.5430  177.4950  136.8690 C   0  0  0  0  0  3  0  0  0  0  0  0
  187.1510  178.2110  135.6730 C   0  0  0  0  0  1  0  0  0  0  0  0
  186.2090  178.7740  143.3270 N   0  0  0  0  0  2  0  0  0  0  0  0
  186.2570  177.7810  145.4370 C   0  0  0  0  0  0  0  0  0  0  0  0
  188.7420  177.4070  145.3670 C   0  0  0  0  0  3  0  0  0  0  0  0
  187.5210  177.4770  144.7820 C   0  0  0  0  0  0  0  0  0  0  0  0
  186.3160  177.5180  144.0560 C   0  0  2  0  0  3  0  0  0  0  0  0
  188.6260  177.6850  146.7770 C   0  0  0  0  0  0  0  0  0  0  0  0
  187.3570  177.9940  147.4420 C   0  0  0  0  0  3  0  0  0  0  0  0
  189.7490  177.6460  147.5310 F   0  0  0  0  0  0  0  0  0  0  0  0
  186.0980  178.0510  146.7560 C   0  0  0  0  0  0  0  0  0  0  0  0
  184.9130  178.3500  147.3410 F   0  0  0  0  0  0  0  0  0  0  0  0
  1 23  1  6  0  0  0
  1 36  1  0  0  0  0
  3  1  1  0  0  0  0
  3  2  1  1  0  0  0
  4  8  1  0  0  0  0
  5 11  1  0  0  0  0
  6 13  2  0  0  0  0
  6 14  1  0  0  0  0
  7  5  1  0  0  0  0
  8 16  2  0  0  0  0
  9 11  1  0  0  0  0
  9 17  2  0  0  0  0
 10 12  1  0  0  0  0
 12 21  2  0  0  0  0
 13 19  1  0  0  0  0
 14  7  1  6  0  0  0
 14  9  1  0  0  0  0
 15 21  1  0  0  0  0
 17 10  1  0  0  0  0
 17 18  1  0  0  0  0
 18 15  2  0  0  0  0
 19 16  1  0  0  0  0
 19 10  2  0  0  0  0
 20  4  2  0  0  0  0
 20 13  1  0  0  0  0
 21  3  1  0  0  0  0
 22  5  2  0  0  0  0
 24 26  1  0  0  0  0
 24 25  1  0  0  0  0
 25 30  1  6  0  0  0
 25 28  1  0  0  0  0
 26 27  2  0  0  0  0
 27 23  1  0  0  0  0
 27 28  1  0  0  0  0
 30 29  2  0  0  0  0
 31 30  2  0  0  0  0
 32 26  1  0  0  0  0
 33 34  1  0  0  0  0
 34 32  1  0  0  0  0
 35 34  1  0  0  0  0
 37 44  1  0  0  0  0
 38 41  2  0  0  0  0
 39 38  1  0  0  0  0
 39 37  2  0  0  0  0
 40 36  1  6  0  0  0
 40 39  1  0  0  0  0
 40 37  1  0  0  0  0
 41 42  1  0  0  0  0
 41 43  1  0  0  0  0
 44 45  1  0  0  0  0
 44 42  2  0  0  0  0
M  END
>  <MODEL>
4

>  <REMARK>
 VINA RESULT:      -9.4      2.357      3.653
  Name = 
  9 active torsions:
  status: ('A' for Active; 'I' for Inactive)
    1  A    between atoms: C_10  and  N_41
    2  A    between atoms: C_12  and  C_18
    3  A    between atoms: C_12  and  C_40
    4  A    between atoms: C_13  and  N_44
    5  A    between atoms: C_14  and  N_33
    6  A    between atoms: C_18  and  N_25
    7  A    between atoms: C_18  and  N_41
    8  A    between atoms: C_19  and  N_44
    9  A    between atoms: N_25  and  C_26
                            x       y       z     vdW  Elec       q    Type
                         _______ _______ _______ _____ _____    ______ ____

>  <TORSDO>
F 9

$$$$
=
 OpenBabel11032419463D

 45 51  0  0  1  0  0  0  0  0999 V2000
  187.8240  176.6560  137.8540 C   0  0  1  0  0  3  0  0  0  0  0  0
  189.0420  178.8700  138.0330 C   0  0  0  0  0  1  0  0  0  0  0  0
  187.7600  178.1160  138.3520 C   0  0  2  0  0  3  0  0  0  0  0  0
  191.5850  176.7240  144.2570 N   0  0  0  0  0  0  0  0  0  0  0  0
  184.8680  178.6100  145.4150 C   0  0  0  0  0  0  0  0  0  0  0  0
  188.3820  177.5620  145.1860 N   0  0  0  0  0  0  0  0  0  0  0  0
  186.0400  177.8050  146.2960 S   0  0  0  0  0  0  0  0  0  0  0  0
  191.3020  176.1070  142.9980 C   0  0  0  0  0  3  0  0  0  0  0  0
  186.5390  178.4720  143.8950 C   0  0  0  0  0  0  0  0  0  0  0  0
  188.1640  177.7840  142.1210 C   0  0  0  0  0  0  0  0  0  0  0  0
  185.2670  178.9010  144.1630 N   0  0  0  0  0  2  0  0  0  0  0  0
  188.3080  177.6270  140.7270 C   0  0  0  0  0  3  0  0  0  0  0  0
  189.4270  177.9070  144.2480 C   0  0  0  0  0  0  0  0  0  0  0  0
  187.1380  177.8710  145.0230 C   0  0  0  0  0  0  0  0  0  0  0  0
  186.3870  178.9950  140.2820 C   0  0  0  0  0  3  0  0  0  0  0  0
  190.1810  176.3780  142.3380 C   0  0  0  0  0  3  0  0  0  0  0  0
  187.0080  178.4930  142.6090 C   0  0  0  0  0  0  0  0  0  0  0  0
  186.1660  179.1060  141.6520 C   0  0  0  0  0  2  0  0  0  0  0  0
  189.1710  177.3120  142.8930 C   0  0  0  0  0  0  0  0  0  0  0  0
  190.7650  177.5450  144.8380 C   0  0  0  0  0  3  0  0  0  0  0  0
  187.4440  178.2210  139.8150 C   0  0  0  0  0  0  0  0  0  0  0  0
  183.7280  178.9080  145.8570 O   0  0  0  0  0  0  0  0  0  0  0  0
  186.6990  176.3110  136.9790 N   0  0  0  0  0  2  0  0  0  0  0  0
  183.9120  174.0140  137.5780 O   0  0  0  0  0  0  0  0  0  0  0  0
  184.8150  172.9210  137.5920 C   0  0  2  0  0  3  0  0  0  0  0  0
  184.5020  175.2470  137.3590 C   0  0  0  0  0  0  0  0  0  0  0  0
  185.7970  175.1930  137.0690 C   0  0  0  0  0  0  0  0  0  0  0  0
  186.4200  173.5230  136.9480 S   0  0  0  0  0  0  0  0  0  0  0  0
  185.0170  171.3680  135.8600 O   0  0  0  0  0  0  0  0  0  0  0  0
  184.3030  171.8390  136.7690 N   0  0  0  0  0  0  0  0  0  0  0  0
  183.1100  171.2310  137.0800 O   0  0  0  0  0  0  0  0  0  0  0  0
  183.7560  176.4590  137.4640 N   0  0  0  0  0  2  0  0  0  0  0  0
  183.2660  178.6140  138.4440 C   0  0  0  0  0  1  0  0  0  0  0  0
  183.5740  177.1590  138.7260 C   0  0  0  0  0  3  0  0  0  0  0  0
  182.4190  176.5440  139.5000 C   0  0  0  0  0  1  0  0  0  0  0  0
  189.0850  176.3700  137.1760 N   0  0  0  0  0  2  0  0  0  0  0  0
  190.9960  176.0740  138.4800 C   0  0  0  0  0  0  0  0  0  0  0  0
  192.1930  174.7720  136.6930 C   0  0  0  0  0  3  0  0  0  0  0  0
  191.0760  175.1370  137.3680 C   0  0  0  0  0  0  0  0  0  0  0  0
  189.8460  175.4300  137.9870 C   0  0  2  0  0  3  0  0  0  0  0  0
  193.3400  175.4590  137.2360 C   0  0  0  0  0  0  0  0  0  0  0  0
  193.2660  176.4040  138.3530 C   0  0  0  0  0  3  0  0  0  0  0  0
  194.5530  175.2060  136.6910 F   0  0  0  0  0  0  0  0  0  0  0  0
  192.0420  176.7450  139.0220 C   0  0  0  0  0  0  0  0  0  0  0  0
  191.9430  177.6260  140.0460 F   0  0  0  0  0  0  0  0  0  0  0  0
  1 23  1  6  0  0  0
  1  3  1  0  0  0  0
  3  2  1  1  0  0  0
  3 21  1  0  0  0  0
  4 20  1  0  0  0  0
  5 22  2  0  0  0  0
  5  7  1  0  0  0  0
  8  4  2  0  0  0  0
  9 11  1  0  0  0  0
  9 14  1  0  0  0  0
 10 17  1  0  0  0  0
 10 19  1  0  0  0  0
 11  5  1  0  0  0  0
 12 10  2  0  0  0  0
 13 20  2  0  0  0  0
 13  6  1  0  0  0  0
 14  6  2  0  0  0  0
 14  7  1  0  0  0  0
 15 18  1  0  0  0  0
 16 19  2  0  0  0  0
 16  8  1  0  0  0  0
 17  9  2  0  0  0  0
 18 17  1  0  0  0  0
 19 13  1  0  0  0  0
 21 15  2  0  0  0  0
 21 12  1  0  0  0  0
 23 27  1  0  0  0  0
 24 25  1  0  0  0  0
 25 30  1  6  0  0  0
 26 32  1  0  0  0  0
 26 24  1  0  0  0  0
 27 26  2  0  0  0  0
 28 27  1  0  0  0  0
 28 25  1  0  0  0  0
 29 30  2  0  0  0  0
 30 31  2  0  0  0  0
 32 34  1  0  0  0  0
 33 34  1  0  0  0  0
 34 35  1  0  0  0  0
 36  1  1  0  0  0  0
 37 44  1  0  0  0  0
 38 41  2  0  0  0  0
 38 39  1  0  0  0  0
 39 40  1  0  0  0  0
 39 37  2  0  0  0  0
 40 36  1  6  0  0  0
 40 37  1  0  0  0  0
 41 42  1  0  0  0  0
 42 44  2  0  0  0  0
 43 41  1  0  0  0  0
 44 45  1  0  0  0  0
M  END
>  <MODEL>
5

>  <REMARK>
 VINA RESULT:      -9.4      3.907      8.396
  Name = 
  9 active torsions:
  status: ('A' for Active; 'I' for Inactive)
    1  A    between atoms: C_10  and  N_41
    2  A    between atoms: C_12  and  C_18
    3  A    between atoms: C_12  and  C_40
    4  A    between atoms: C_13  and  N_44
    5  A    between atoms: C_14  and  N_33
    6  A    between atoms: C_18  and  N_25
    7  A    between atoms: C_18  and  N_41
    8  A    between atoms: C_19  and  N_44
    9  A    between atoms: N_25  and  C_26
                            x       y       z     vdW  Elec       q    Type
                         _______ _______ _______ _____ _____    ______ ____

>  <TORSDO>
F 9

$$$$
=
 OpenBabel11032419463D

 45 51  0  0  1  0  0  0  0  0999 V2000
  185.7560  178.5220  142.0510 C   0  0  1  0  0  3  0  0  0  0  0  0
  183.6200  179.0050  143.3240 C   0  0  0  0  0  1  0  0  0  0  0  0
  184.3330  179.1180  141.9850 C   0  0  2  0  0  3  0  0  0  0  0  0
  180.6830  181.9830  136.5160 N   0  0  0  0  0  0  0  0  0  0  0  0
  179.9790  174.9840  137.2470 C   0  0  0  0  0  0  0  0  0  0  0  0
  180.0810  178.5980  136.5950 N   0  0  0  0  0  0  0  0  0  0  0  0
  179.1020  176.1890  136.4880 S   0  0  0  0  0  0  0  0  0  0  0  0
  180.8650  182.2140  137.9150 C   0  0  0  0  0  3  0  0  0  0  0  0
  181.1270  176.8270  137.8840 C   0  0  0  0  0  0  0  0  0  0  0  0
  181.9810  178.8970  139.0020 C   0  0  0  0  0  0  0  0  0  0  0  0
  181.0220  175.4640  137.9500 N   0  0  0  0  0  2  0  0  0  0  0  0
  182.6970  179.3530  140.1270 C   0  0  0  0  0  3  0  0  0  0  0  0
  181.1290  179.5770  136.7770 C   0  0  0  0  0  0  0  0  0  0  0  0
  180.1380  177.3890  137.0490 C   0  0  1  0  0  3  0  0  0  0  0  0
  183.5950  177.1690  140.5560 C   0  0  0  0  0  3  0  0  0  0  0  0
  181.2070  181.2250  138.7350 C   0  0  0  0  0  3  0  0  0  0  0  0
  181.9940  177.4840  138.7160 C   0  0  0  0  0  0  0  0  0  0  0  0
  182.8390  176.6670  139.5010 C   0  0  0  0  0  3  0  0  0  0  0  0
  181.3900  179.8410  138.2320 C   0  0  0  0  0  0  0  0  0  0  0  0
  180.8050  180.8090  135.9750 C   0  0  0  0  0  3  0  0  0  0  0  0
  183.4970  178.5150  140.8950 C   0  0  0  0  0  0  0  0  0  0  0  0
  179.7010  173.7580  137.1870 O   0  0  0  0  0  0  0  0  0  0  0  0
  186.6170  179.0010  140.9640 N   0  0  0  0  0  2  0  0  0  0  0  0
  189.5070  177.3510  139.4370 O   0  0  0  0  0  0  0  0  0  0  0  0
  188.8750  177.4170  138.1700 C   0  0  2  0  0  3  0  0  0  0  0  0
  188.7670  177.8850  140.4790 C   0  0  0  0  0  0  0  0  0  0  0  0
  187.5350  178.2530  140.1460 C   0  0  0  0  0  0  0  0  0  0  0  0
  187.1240  177.8750  138.4490 S   0  0  0  0  0  0  0  0  0  0  0  0
  189.8030  175.2920  137.8920 O   0  0  0  0  0  0  0  0  0  0  0  0
  188.9700  176.1320  137.4980 N   0  0  0  0  0  0  0  0  0  0  0  0
  188.0490  175.7780  136.5390 O   0  0  0  0  0  0  0  0  0  0  0  0
  189.3210  178.0330  141.7860 N   0  0  0  0  0  2  0  0  0  0  0  0
  191.2560  178.2060  143.2240 C   0  0  0  0  0  1  0  0  0  0  0  0
  190.5360  177.3520  142.2030 C   0  0  0  0  0  3  0  0  0  0  0  0
  190.1910  176.0100  142.8280 C   0  0  0  0  0  1  0  0  0  0  0  0
  186.3930  178.7810  143.3380 N   0  0  0  0  0  2  0  0  0  0  0  0
  186.1960  177.7800  145.4360 C   0  0  0  0  0  0  0  0  0  0  0  0
  188.6840  177.5600  145.7270 C   0  0  0  0  0  3  0  0  0  0  0  0
  187.5590  177.5590  144.9710 C   0  0  0  0  0  0  0  0  0  0  0  0
  186.4710  177.5290  144.0790 C   0  0  2  0  0  3  0  0  0  0  0  0
  188.3470  177.8210  147.1060 C   0  0  0  0  0  0  0  0  0  0  0  0
  186.9790  178.0470  147.5790 C   0  0  0  0  0  3  0  0  0  0  0  0
  189.3500  177.8470  148.0140 F   0  0  0  0  0  0  0  0  0  0  0  0
  185.8310  178.0310  146.7170 C   0  0  0  0  0  0  0  0  0  0  0  0
  184.5580  178.2520  147.1240 F   0  0  0  0  0  0  0  0  0  0  0  0
  1 23  1  6  0  0  0
  1 36  1  0  0  0  0
  3  1  1  0  0  0  0
  3  2  1  1  0  0  0
  4  8  1  0  0  0  0
  5 11  1  0  0  0  0
  6 13  2  0  0  0  0
  6 14  1  0  0  0  0
  7  5  1  0  0  0  0
  8 16  2  0  0  0  0
  9 11  1  0  0  0  0
  9 17  2  0  0  0  0
 10 12  1  0  0  0  0
 12 21  2  0  0  0  0
 13 19  1  0  0  0  0
 14  7  1  6  0  0  0
 14  9  1  0  0  0  0
 15 21  1  0  0  0  0
 17 10  1  0  0  0  0
 17 18  1  0  0  0  0
 18 15  2  0  0  0  0
 19 16  1  0  0  0  0
 19 10  2  0  0  0  0
 20  4  2  0  0  0  0
 20 13  1  0  0  0  0
 21  3  1  0  0  0  0
 22  5  2  0  0  0  0
 24 26  1  0  0  0  0
 25 30  1  1  0  0  0
 25 28  1  0  0  0  0
 25 24  1  0  0  0  0
 26 32  1  0  0  0  0
 27 26  2  0  0  0  0
 27 23  1  0  0  0  0
 28 27  1  0  0  0  0
 30 29  2  0  0  0  0
 31 30  2  0  0  0  0
 32 34  1  0  0  0  0
 34 35  1  0  0  0  0
 34 33  1  0  0  0  0
 37 44  1  0  0  0  0
 38 41  2  0  0  0  0
 39 37  2  0  0  0  0
 39 38  1  0  0  0  0
 40 36  1  6  0  0  0
 40 39  1  0  0  0  0
 40 37  1  0  0  0  0
 41 42  1  0  0  0  0
 41 43  1  0  0  0  0
 44 45  1  0  0  0  0
 44 42  2  0  0  0  0
M  END
>  <MODEL>
6

>  <REMARK>
 VINA RESULT:      -9.3      2.051      2.488
  Name = 
  9 active torsions:
  status: ('A' for Active; 'I' for Inactive)
    1  A    between atoms: C_10  and  N_41
    2  A    between atoms: C_12  and  C_18
    3  A    between atoms: C_12  and  C_40
    4  A    between atoms: C_13  and  N_44
    5  A    between atoms: C_14  and  N_33
    6  A    between atoms: C_18  and  N_25
    7  A    between atoms: C_18  and  N_41
    8  A    between atoms: C_19  and  N_44
    9  A    between atoms: N_25  and  C_26
                            x       y       z     vdW  Elec       q    Type
                         _______ _______ _______ _____ _____    ______ ____

>  <TORSDO>
F 9

$$$$
=
 OpenBabel11032419463D

 45 51  0  0  1  0  0  0  0  0999 V2000
  186.2450  178.3810  141.5290 C   0  0  1  0  0  3  0  0  0  0  0  0
  184.0210  179.4680  142.0650 C   0  0  0  0  0  1  0  0  0  0  0  0
  184.9260  178.9450  140.9600 C   0  0  2  0  0  3  0  0  0  0  0  0
  186.4210  175.9340  134.6240 N   0  0  0  0  0  0  0  0  0  0  0  0
  180.0860  174.2860  137.3020 C   0  0  0  0  0  0  0  0  0  0  0  0
  183.2730  174.9550  135.5980 N   0  0  0  0  0  0  0  0  0  0  0  0
  180.7740  174.2460  135.7780 S   0  0  0  0  0  0  0  0  0  0  0  0
  186.4500  177.2330  135.2220 C   0  0  0  0  0  3  0  0  0  0  0  0
  182.1030  175.2300  137.7080 C   0  0  0  0  0  0  0  0  0  0  0  0
  184.0660  176.7600  137.9650 C   0  0  0  0  0  0  0  0  0  0  0  0
  180.9000  174.8320  138.2260 N   0  0  0  0  0  2  0  0  0  0  0  0
  184.6120  177.7590  138.7970 C   0  0  0  0  0  3  0  0  0  0  0  0
  184.6000  175.2060  136.1110 C   0  0  0  0  0  0  0  0  0  0  0  0
  182.2100  174.9220  136.3340 C   0  0  1  0  0  3  0  0  0  0  0  0
  183.1800  177.1490  140.6240 C   0  0  0  0  0  3  0  0  0  0  0  0
  185.6530  177.5370  136.2410 C   0  0  0  0  0  3  0  0  0  0  0  0
  182.9490  175.9980  138.4630 C   0  0  0  0  0  0  0  0  0  0  0  0
  182.5630  176.2070  139.8070 C   0  0  0  0  0  3  0  0  0  0  0  0
  184.6880  176.5470  136.7810 C   0  0  0  0  0  0  0  0  0  0  0  0
  185.6070  175.0000  135.0100 C   0  0  0  0  0  3  0  0  0  0  0  0
  184.1880  177.9560  140.1060 C   0  0  0  0  0  0  0  0  0  0  0  0
  178.9310  173.8670  137.5710 O   0  0  0  0  0  0  0  0  0  0  0  0
  187.4160  178.7980  140.7510 N   0  0  0  0  0  2  0  0  0  0  0  0
  190.4730  176.9420  139.9630 O   0  0  0  0  0  0  0  0  0  0  0  0
  190.1740  177.0370  138.5810 C   0  0  2  0  0  3  0  0  0  0  0  0
  189.5400  177.5350  140.7970 C   0  0  0  0  0  0  0  0  0  0  0  0
  188.4540  177.9820  140.1760 C   0  0  0  0  0  0  0  0  0  0  0  0
  188.4430  177.6140  138.4270 S   0  0  0  0  0  0  0  0  0  0  0  0
  191.2690  174.9910  138.3120 O   0  0  0  0  0  0  0  0  0  0  0  0
  190.3420  175.7410  137.9440 N   0  0  0  0  0  0  0  0  0  0  0  0
  189.4020  175.2750  137.0540 O   0  0  0  0  0  0  0  0  0  0  0  0
  189.7670  177.6590  142.2000 N   0  0  0  0  0  2  0  0  0  0  0  0
  191.2420  178.8380  143.7090 C   0  0  0  0  0  1  0  0  0  0  0  0
  191.1010  177.6510  142.7800 C   0  0  0  0  0  3  0  0  0  0  0  0
  191.3160  176.3700  143.5700 C   0  0  0  0  0  1  0  0  0  0  0  0
  186.4280  178.7420  142.9310 N   0  0  0  0  0  2  0  0  0  0  0  0
  185.9470  177.8810  145.0440 C   0  0  0  0  0  0  0  0  0  0  0  0
  188.3700  177.5070  145.6060 C   0  0  0  0  0  3  0  0  0  0  0  0
  187.3290  177.5390  144.7370 C   0  0  0  0  0  0  0  0  0  0  0  0
  186.3380  177.5330  143.7380 C   0  0  2  0  0  3  0  0  0  0  0  0
  187.9160  177.8700  146.9260 C   0  0  0  0  0  0  0  0  0  0  0  0
  186.5280  178.2170  147.2410 C   0  0  0  0  0  3  0  0  0  0  0  0
  188.8220  177.8790  147.9330 F   0  0  0  0  0  0  0  0  0  0  0  0
  185.4750  178.2300  146.2660 C   0  0  0  0  0  0  0  0  0  0  0  0
  184.1870  178.5620  146.5260 F   0  0  0  0  0  0  0  0  0  0  0  0
  1 23  1  6  0  0  0
  1 36  1  0  0  0  0
  3  1  1  0  0  0  0
  3  2  1  1  0  0  0
  4 20  2  0  0  0  0
  4  8  1  0  0  0  0
  5 22  2  0  0  0  0
  5 11  1  0  0  0  0
  6 13  2  0  0  0  0
  7 14  1  0  0  0  0
  7  5  1  0  0  0  0
  8 16  2  0  0  0  0
  9 11  1  0  0  0  0
  9 17  2  0  0  0  0
 10 17  1  0  0  0  0
 10 12  1  0  0  0  0
 12 21  2  0  0  0  0
 13 19  1  0  0  0  0
 14  6  1  1  0  0  0
 14  9  1  0  0  0  0
 16 19  1  0  0  0  0
 17 18  1  0  0  0  0
 18 15  2  0  0  0  0
 19 10  2  0  0  0  0
 20 13  1  0  0  0  0
 21 15  1  0  0  0  0
 21  3  1  0  0  0  0
 24 26  1  0  0  0  0
 25 30  1  1  0  0  0
 25 24  1  0  0  0  0
 26 32  1  0  0  0  0
 27 23  1  0  0  0  0
 27 26  2  0  0  0  0
 28 25  1  0  0  0  0
 28 27  1  0  0  0  0
 30 29  2  0  0  0  0
 31 30  2  0  0  0  0
 32 34  1  0  0  0  0
 34 35  1  0  0  0  0
 34 33  1  0  0  0  0
 37 44  1  0  0  0  0
 38 41  2  0  0  0  0
 39 37  2  0  0  0  0
 39 38  1  0  0  0  0
 40 36  1  6  0  0  0
 40 39  1  0  0  0  0
 40 37  1  0  0  0  0
 41 42  1  0  0  0  0
 41 43  1  0  0  0  0
 44 45  1  0  0  0  0
 44 42  2  0  0  0  0
M  END
>  <MODEL>
7

>  <REMARK>
 VINA RESULT:      -9.3      1.909      3.648
  Name = 
  9 active torsions:
  status: ('A' for Active; 'I' for Inactive)
    1  A    between atoms: C_10  and  N_41
    2  A    between atoms: C_12  and  C_18
    3  A    between atoms: C_12  and  C_40
    4  A    between atoms: C_13  and  N_44
    5  A    between atoms: C_14  and  N_33
    6  A    between atoms: C_18  and  N_25
    7  A    between atoms: C_18  and  N_41
    8  A    between atoms: C_19  and  N_44
    9  A    between atoms: N_25  and  C_26
                            x       y       z     vdW  Elec       q    Type
                         _______ _______ _______ _____ _____    ______ ____

>  <TORSDO>
F 9

$$$$
=
 OpenBabel11032419463D

 45 51  0  0  1  0  0  0  0  0999 V2000
  187.6120  178.0370  141.9170 C   0  0  1  0  0  3  0  0  0  0  0  0
  185.9670  178.5490  143.7730 C   0  0  0  0  0  1  0  0  0  0  0  0
  186.3990  178.8860  142.3540 C   0  0  2  0  0  3  0  0  0  0  0  0
  179.3040  179.2660  143.3350 N   0  0  0  0  0  0  0  0  0  0  0  0
  181.3360  177.6700  136.7510 C   0  0  0  0  0  0  0  0  0  0  0  0
  179.9250  178.4360  140.0560 N   0  0  0  0  0  0  0  0  0  0  0  0
  179.9250  177.4890  137.6320 S   0  0  0  0  0  0  0  0  0  0  0  0
  180.4340  178.6370  143.9460 C   0  0  0  0  0  3  0  0  0  0  0  0
  181.9940  178.4040  138.7880 C   0  0  0  0  0  0  0  0  0  0  0  0
  182.7990  178.6430  141.1460 C   0  0  0  0  0  0  0  0  0  0  0  0
  182.3490  178.1630  137.4880 N   0  0  0  0  0  2  0  0  0  0  0  0
  183.9600  178.6280  141.9450 C   0  0  0  0  0  3  0  0  0  0  0  0
  180.4030  179.2740  141.1330 C   0  0  2  0  0  3  0  0  0  0  0  0
  180.6320  178.1190  139.0220 C   0  0  0  0  0  0  0  0  0  0  0  0
  185.3870  178.9290  140.0390 C   0  0  0  0  0  3  0  0  0  0  0  0
  181.5300  178.3640  143.2440 C   0  0  0  0  0  3  0  0  0  0  0  0
  182.9600  178.6950  139.7140 C   0  0  0  0  0  0  0  0  0  0  0  0
  184.2700  178.8680  139.2110 C   0  0  0  0  0  3  0  0  0  0  0  0
  181.6120  178.6810  141.7970 C   0  0  0  0  0  0  0  0  0  0  0  0
  179.2660  179.5720  142.0750 C   0  0  0  0  0  3  0  0  0  0  0  0
  185.2360  178.7710  141.4130 C   0  0  0  0  0  0  0  0  0  0  0  0
  181.4570  177.3710  135.5350 O   0  0  0  0  0  0  0  0  0  0  0  0
  188.1150  178.4140  140.5920 N   0  0  0  0  0  2  0  0  0  0  0  0
  189.7700  176.2920  138.1100 O   0  0  0  0  0  0  0  0  0  0  0  0
  190.9250  176.2340  138.9300 C   0  0  2  0  0  3  0  0  0  0  0  0
  188.7340  177.0510  138.6260 C   0  0  0  0  0  0  0  0  0  0  0  0
  189.0360  177.7070  139.7420 C   0  0  0  0  0  0  0  0  0  0  0  0
  190.7410  177.5050  140.2350 S   0  0  0  0  0  0  0  0  0  0  0  0
  193.1960  176.7310  138.7060 O   0  0  0  0  0  0  0  0  0  0  0  0
  192.1150  176.4820  138.1340 N   0  0  0  0  0  0  0  0  0  0  0  0
  192.0950  176.2910  136.7720 O   0  0  0  0  0  0  0  0  0  0  0  0
  187.4530  177.0880  137.9990 N   0  0  0  0  0  2  0  0  0  0  0  0
  185.8740  177.1500  136.1690 C   0  0  0  0  0  1  0  0  0  0  0  0
  187.2670  177.5260  136.6240 C   0  0  0  0  0  3  0  0  0  0  0  0
  187.4320  179.0350  136.5340 C   0  0  0  0  0  1  0  0  0  0  0  0
  188.6960  178.0970  142.8930 N   0  0  0  0  0  2  0  0  0  0  0  0
  188.6620  176.9930  144.9470 C   0  0  0  0  0  0  0  0  0  0  0  0
  191.1560  176.6700  144.9810 C   0  0  0  0  0  3  0  0  0  0  0  0
  189.9640  176.7490  144.3400 C   0  0  0  0  0  0  0  0  0  0  0  0
  188.7940  176.8060  143.5580 C   0  0  2  0  0  3  0  0  0  0  0  0
  190.9650  176.8680  146.3970 C   0  0  0  0  0  0  0  0  0  0  0  0
  189.6580  177.1160  147.0130 C   0  0  0  0  0  3  0  0  0  0  0  0
  192.0510  176.8100  147.2030 F   0  0  0  0  0  0  0  0  0  0  0  0
  188.4330  177.1870  146.2690 C   0  0  0  0  0  0  0  0  0  0  0  0
  187.2150  177.4300  146.8100 F   0  0  0  0  0  0  0  0  0  0  0  0
  1 23  1  6  0  0  0
  1  3  1  0  0  0  0
  1 36  1  0  0  0  0
  3  2  1  1  0  0  0
  4  8  1  0  0  0  0
  5 11  1  0  0  0  0
  5  7  1  0  0  0  0
  6 13  1  0  0  0  0
  7 14  1  0  0  0  0
  9 14  1  0  0  0  0
  9 17  2  0  0  0  0
 10 19  2  0  0  0  0
 10 12  1  0  0  0  0
 11  9  1  0  0  0  0
 13 19  1  0  0  0  0
 13 20  1  1  0  0  0
 14  6  2  0  0  0  0
 15 21  1  0  0  0  0
 16  8  2  0  0  0  0
 17 10  1  0  0  0  0
 18 17  1  0  0  0  0
 18 15  2  0  0  0  0
 19 16  1  0  0  0  0
 20  4  2  0  0  0  0
 21 12  2  0  0  0  0
 21  3  1  0  0  0  0
 22  5  2  0  0  0  0
 24 26  1  0  0  0  0
 24 25  1  0  0  0  0
 25 30  1  6  0  0  0
 25 28  1  0  0  0  0
 26 27  2  0  0  0  0
 27 28  1  0  0  0  0
 27 23  1  0  0  0  0
 30 29  2  0  0  0  0
 31 30  2  0  0  0  0
 32 26  1  0  0  0  0
 33 34  1  0  0  0  0
 34 32  1  0  0  0  0
 35 34  1  0  0  0  0
 37 44  1  0  0  0  0
 38 41  2  0  0  0  0
 39 37  2  0  0  0  0
 39 38  1  0  0  0  0
 40 36  1  6  0  0  0
 40 39  1  0  0  0  0
 40 37  1  0  0  0  0
 41 42  1  0  0  0  0
 41 43  1  0  0  0  0
 44 45  1  0  0  0  0
 44 42  2  0  0  0  0
M  END
>  <MODEL>
8

>  <REMARK>
 VINA RESULT:      -9.1      1.851      2.939
  Name = 
  9 active torsions:
  status: ('A' for Active; 'I' for Inactive)
    1  A    between atoms: C_10  and  N_41
    2  A    between atoms: C_12  and  C_18
    3  A    between atoms: C_12  and  C_40
    4  A    between atoms: C_13  and  N_44
    5  A    between atoms: C_14  and  N_33
    6  A    between atoms: C_18  and  N_25
    7  A    between atoms: C_18  and  N_41
    8  A    between atoms: C_19  and  N_44
    9  A    between atoms: N_25  and  C_26
                            x       y       z     vdW  Elec       q    Type
                         _______ _______ _______ _____ _____    ______ ____

>  <TORSDO>
F 9

$$$$
=
 OpenBabel11032419463D

 45 51  0  0  1  0  0  0  0  0999 V2000
  185.8810  178.4620  140.3210 C   0  0  1  0  0  3  0  0  0  0  0  0
  183.8690  179.6400  139.3300 C   0  0  0  0  0  1  0  0  0  0  0  0
  185.0630  178.7430  139.0420 C   0  0  2  0  0  3  0  0  0  0  0  0
  178.9530  174.9910  139.2360 N   0  0  0  0  0  0  0  0  0  0  0  0
  184.1030  172.1270  135.3250 C   0  0  0  0  0  0  0  0  0  0  0  0
  181.2300  173.2980  137.2940 N   0  0  0  0  0  0  0  0  0  0  0  0
  182.7100  171.5530  136.0520 S   0  0  0  0  0  0  0  0  0  0  0  0
  179.8560  175.6090  140.1570 C   0  0  0  0  0  3  0  0  0  0  0  0
  183.3990  173.9690  136.4370 C   0  0  0  0  0  0  0  0  0  0  0  0
  182.8980  175.7530  138.1180 C   0  0  0  0  0  0  0  0  0  0  0  0
  184.3460  173.4190  135.6140 N   0  0  0  0  0  2  0  0  0  0  0  0
  183.4630  176.8570  138.7890 C   0  0  0  0  0  3  0  0  0  0  0  0
  180.7530  174.6280  137.5970 C   0  0  2  0  0  3  0  0  0  0  0  0
  182.3710  173.0510  136.7380 C   0  0  0  0  0  0  0  0  0  0  0  0
  185.2560  177.0210  137.2020 C   0  0  0  0  0  3  0  0  0  0  0  0
  181.1350  175.7930  139.8450 C   0  0  0  0  0  3  0  0  0  0  0  0
  183.6170  175.1980  136.9980 C   0  0  0  0  0  0  0  0  0  0  0  0
  184.7720  175.8850  136.5600 C   0  0  0  0  0  3  0  0  0  0  0  0
  181.6780  175.3440  138.5390 C   0  0  0  0  0  0  0  0  0  0  0  0
  179.3270  174.5490  138.0740 C   0  0  0  0  0  3  0  0  0  0  0  0
  184.6180  177.4900  138.3460 C   0  0  0  0  0  0  0  0  0  0  0  0
  184.8590  171.4360  134.5940 O   0  0  0  0  0  0  0  0  0  0  0  0
  187.2640  178.9390  140.2200 N   0  0  0  0  0  2  0  0  0  0  0  0
  190.5620  177.3600  140.0440 O   0  0  0  0  0  0  0  0  0  0  0  0
  190.4800  177.3440  138.6290 C   0  0  2  0  0  3  0  0  0  0  0  0
  189.4590  177.9030  140.6810 C   0  0  0  0  0  0  0  0  0  0  0  0
  188.4490  178.2000  139.8700 C   0  0  0  0  0  0  0  0  0  0  0  0
  188.7490  177.7330  138.1720 S   0  0  0  0  0  0  0  0  0  0  0  0
  192.0730  175.7620  137.9860 O   0  0  0  0  0  0  0  0  0  0  0  0
  190.8640  176.0370  138.1220 N   0  0  0  0  0  0  0  0  0  0  0  0
  189.9180  175.0550  137.9380 O   0  0  0  0  0  0  0  0  0  0  0  0
  189.4480  178.1300  142.0890 N   0  0  0  0  0  2  0  0  0  0  0  0
  190.3480  178.1330  144.3330 C   0  0  0  0  0  1  0  0  0  0  0  0
  190.3170  177.4070  143.0050 C   0  0  0  0  0  3  0  0  0  0  0  0
  189.7890  175.9980  143.2180 C   0  0  0  0  0  1  0  0  0  0  0  0
  185.2450  179.0310  141.5060 N   0  0  0  0  0  2  0  0  0  0  0  0
  184.5250  178.4840  143.6550 C   0  0  0  0  0  0  0  0  0  0  0  0
  186.7990  177.6830  144.3720 C   0  0  0  0  0  3  0  0  0  0  0  0
  185.8180  177.8440  143.4500 C   0  0  0  0  0  0  0  0  0  0  0  0
  184.8810  177.9450  142.4040 C   0  0  2  0  0  3  0  0  0  0  0  0
  186.3850  178.2500  145.6320 C   0  0  0  0  0  0  0  0  0  0  0  0
  185.0870  178.8980  145.8440 C   0  0  0  0  0  3  0  0  0  0  0  0
  187.2380  178.1700  146.6800 F   0  0  0  0  0  0  0  0  0  0  0  0
  184.0940  179.0330  144.8170 C   0  0  0  0  0  0  0  0  0  0  0  0
  182.8930  179.6400  144.9800 F   0  0  0  0  0  0  0  0  0  0  0  0
  1 23  1  6  0  0  0
  1 36  1  0  0  0  0
  3  2  1  1  0  0  0
  3  1  1  0  0  0  0
  4  8  1  0  0  0  0
  5 11  1  0  0  0  0
  5  7  1  0  0  0  0
  6 13  1  0  0  0  0
  7 14  1  0  0  0  0
  9 14  1  0  0  0  0
  9 17  2  0  0  0  0
 10 19  2  0  0  0  0
 10 12  1  0  0  0  0
 11  9  1  0  0  0  0
 13 20  1  1  0  0  0
 13 19  1  0  0  0  0
 14  6  2  0  0  0  0
 15 21  1  0  0  0  0
 16  8  2  0  0  0  0
 17 10  1  0  0  0  0
 18 17  1  0  0  0  0
 18 15  2  0  0  0  0
 19 16  1  0  0  0  0
 20  4  2  0  0  0  0
 21 12  2  0  0  0  0
 21  3  1  0  0  0  0
 22  5  2  0  0  0  0
 24 26  1  0  0  0  0
 25 30  1  1  0  0  0
 25 24  1  0  0  0  0
 26 32  1  0  0  0  0
 27 23  1  0  0  0  0
 27 26  2  0  0  0  0
 28 25  1  0  0  0  0
 28 27  1  0  0  0  0
 29 30  2  0  0  0  0
 31 30  2  0  0  0  0
 32 34  1  0  0  0  0
 34 35  1  0  0  0  0
 34 33  1  0  0  0  0
 37 44  1  0  0  0  0
 38 41  2  0  0  0  0
 39 37  2  0  0  0  0
 39 38  1  0  0  0  0
 40 36  1  6  0  0  0
 40 39  1  0  0  0  0
 40 37  1  0  0  0  0
 41 42  1  0  0  0  0
 41 43  1  0  0  0  0
 44 45  1  0  0  0  0
 44 42  2  0  0  0  0
M  END
>  <MODEL>
9

>  <REMARK>
 VINA RESULT:      -9.1      2.272      3.144
  Name = 
  9 active torsions:
  status: ('A' for Active; 'I' for Inactive)
    1  A    between atoms: C_10  and  N_41
    2  A    between atoms: C_12  and  C_18
    3  A    between atoms: C_12  and  C_40
    4  A    between atoms: C_13  and  N_44
    5  A    between atoms: C_14  and  N_33
    6  A    between atoms: C_18  and  N_25
    7  A    between atoms: C_18  and  N_41
    8  A    between atoms: C_19  and  N_44
    9  A    between atoms: N_25  and  C_26
                            x       y       z     vdW  Elec       q    Type
                         _______ _______ _______ _____ _____    ______ ____

>  <TORSDO>
F 9

$$$$
