=
 OpenBabel11042411013D

 29 31  0  0  1  0  0  0  0  0999 V2000
  184.4730  178.2580  142.9480 C   0  0  1  0  0  3  0  0  0  0  0  0
  181.6230  179.1330  142.0780 C   0  0  0  0  0  0  0  0  0  0  0  0
  186.3000  178.6320  141.4210 C   0  0  0  0  0  2  0  0  0  0  0  0
  185.8530  178.0450  145.0580 C   0  0  0  0  0  0  0  0  0  0  0  0
  182.2670  179.5390  143.2900 N   0  0  0  0  0  2  0  0  0  0  0  0
  184.8590  179.0330  141.7030 C   0  0  0  0  0  2  0  0  0  0  0  0
  183.6980  179.1150  145.1030 N   0  0  0  0  0  0  0  0  0  0  0  0
  181.9870  178.0850  141.4780 O   0  0  0  0  0  0  0  0  0  0  0  0
  184.8590  178.5920  145.7630 C   0  0  0  0  0  3  0  0  0  0  0  0
  180.5300  179.9090  141.5800 N   0  0  0  0  0  2  0  0  0  0  0  0
  185.7340  178.0080  143.6300 N   0  0  0  0  0  0  0  0  0  0  0  0
  186.8760  178.1980  142.7580 C   0  0  0  0  0  2  0  0  0  0  0  0
  183.4890  179.0100  143.8230 C   0  0  0  0  0  0  0  0  0  0  0  0
  179.7700  179.5890  140.3760 C   0  0  1  0  0  0  0  0  0  0  0  0
  178.9330  178.4980  140.6270 O   0  0  0  0  0  1  0  0  0  0  0  0
  178.9320  180.7920  139.9670 C   0  0  0  0  0  1  0  0  0  0  0  0
  180.7590  179.2420  139.2620 C   0  0  0  0  0  2  0  0  0  0  0  0
  182.9280  180.3190  138.7410 C   0  0  0  0  0  1  0  0  0  0  0  0
  181.0510  180.5720  137.2380 N   0  0  0  0  0  1  0  0  0  0  0  0
  181.4250  180.4640  138.6380 C   0  0  1  0  0  3  0  0  0  0  0  0
  188.3020  177.8490  145.2960 C   0  0  0  0  0  3  0  0  0  0  0  0
  187.0740  177.5390  145.7120 C   0  0  0  0  0  3  0  0  0  0  0  0
  191.7930  176.3780  147.2730 C   0  0  0  0  0  0  0  0  0  0  0  0
  190.5800  176.7950  145.2190 C   0  0  0  0  0  3  0  0  0  0  0  0
  190.7320  176.9150  148.0080 C   0  0  0  0  0  3  0  0  0  0  0  0
  191.7170  176.3180  145.8790 C   0  0  0  0  0  3  0  0  0  0  0  0
  189.5130  177.3370  145.9530 C   0  0  0  0  0  0  0  0  0  0  0  0
  189.5960  177.3930  147.3490 C   0  0  0  0  0  3  0  0  0  0  0  0
  192.9500  175.8930  147.9430 N   0  0  0  0  0  1  0  0  0  0  0  0
  1  6  1  6  0  0  0
  1 11  1  0  0  0  0
  1 13  1  0  0  0  0
  2  5  1  0  0  0  0
  3  6  1  0  0  0  0
  3 12  1  0  0  0  0
  4 22  1  0  0  0  0
  4  9  2  0  0  0  0
  5 13  1  0  0  0  0
  7  9  1  0  0  0  0
  8  2  2  0  0  0  0
 10  2  1  0  0  0  0
 11  4  1  0  0  0  0
 12 11  1  0  0  0  0
 13  7  2  0  0  0  0
 14 16  1  6  0  0  0
 14 15  1  0  0  0  0
 14 10  1  0  0  0  0
 17 14  1  0  0  0  0
 19 20  1  0  0  0  0
 20 18  1  6  0  0  0
 20 17  1  0  0  0  0
 21 22  2  0  0  0  0
 21 27  1  0  0  0  0
 23 29  1  0  0  0  0
 23 25  1  0  0  0  0
 24 26  1  0  0  0  0
 24 27  2  0  0  0  0
 26 23  2  0  0  0  0
 27 28  1  0  0  0  0
 28 25  2  0  0  0  0
M  END
>  <MODEL>
1

>  <REMARK>
 VINA RESULT:      -8.4      0.000      0.000
  Name = 
  5 active torsions:
  status: ('A' for Active; 'I' for Inactive)
    1  A    between atoms: C_2  and  N_19
    2  A    between atoms: C_2  and  C_25
    3  A    between atoms: C_9  and  C_20
    4  A    between atoms: C_10  and  C_13
    5  A    between atoms: C_23  and  C_25
                            x       y       z     vdW  Elec       q    Type
                         _______ _______ _______ _____ _____    ______ ____

>  <TORSDO>
F 5

$$$$
=
 OpenBabel11042411013D

 29 31  0  0  1  0  0  0  0  0999 V2000
  184.9650  179.1840  141.2190 C   0  0  1  0  0  3  0  0  0  0  0  0
  183.2220  179.7870  138.7200 C   0  0  0  0  0  0  0  0  0  0  0  0
  183.8790  178.3150  143.1870 C   0  0  0  0  0  2  0  0  0  0  0  0
  187.3120  178.4240  141.7820 C   0  0  0  0  0  0  0  0  0  0  0  0
  184.3810  178.9470  138.7230 N   0  0  0  0  0  2  0  0  0  0  0  0
  183.6790  178.5370  141.6940 C   0  0  0  0  0  2  0  0  0  0  0  0
  186.5260  178.4020  139.5070 N   0  0  0  0  0  0  0  0  0  0  0  0
  183.0570  180.6580  139.6170 O   0  0  0  0  0  0  0  0  0  0  0  0
  187.5680  178.2530  140.4820 C   0  0  0  0  0  3  0  0  0  0  0  0
  182.2730  179.6560  137.6580 N   0  0  0  0  0  2  0  0  0  0  0  0
  185.9710  178.7460  142.1740 N   0  0  0  0  0  0  0  0  0  0  0  0
  185.3810  178.2280  143.3930 C   0  0  0  0  0  2  0  0  0  0  0  0
  185.3210  178.7980  139.7960 C   0  0  0  0  0  0  0  0  0  0  0  0
  181.0680  180.4680  137.5200 C   0  0  1  0  0  0  0  0  0  0  0  0
  180.6580  180.4710  136.1840 O   0  0  0  0  0  1  0  0  0  0  0  0
  179.9620  179.8920  138.3920 C   0  0  0  0  0  1  0  0  0  0  0  0
  181.3970  181.8920  137.9690 C   0  0  0  0  0  2  0  0  0  0  0  0
  179.4570  183.4310  137.8910 C   0  0  0  0  0  1  0  0  0  0  0  0
  181.5780  184.0980  136.9430 N   0  0  0  0  0  1  0  0  0  0  0  0
  180.6910  182.9670  137.1480 C   0  0  1  0  0  3  0  0  0  0  0  0
  188.3170  177.2600  143.7120 C   0  0  0  0  0  3  0  0  0  0  0  0
  188.3570  178.2360  142.8040 C   0  0  0  0  0  3  0  0  0  0  0  0
  191.3050  176.7500  146.7230 C   0  0  0  0  0  0  0  0  0  0  0  0
  190.7020  176.8500  144.3800 C   0  0  0  0  0  3  0  0  0  0  0  0
  189.9720  176.9780  147.0760 C   0  0  0  0  0  3  0  0  0  0  0  0
  191.6700  176.6860  145.3760 C   0  0  0  0  0  3  0  0  0  0  0  0
  189.3620  177.0820  144.7290 C   0  0  0  0  0  0  0  0  0  0  0  0
  189.0040  177.1440  146.0800 C   0  0  0  0  0  3  0  0  0  0  0  0
  192.2900  176.5840  147.7360 N   0  0  0  0  0  1  0  0  0  0  0  0
  1  6  1  1  0  0  0
  1 11  1  0  0  0  0
  2  5  1  0  0  0  0
  2  8  2  0  0  0  0
  3 12  1  0  0  0  0
  4 11  1  0  0  0  0
  4 22  1  0  0  0  0
  5 13  1  0  0  0  0
  6  3  1  0  0  0  0
  7 13  2  0  0  0  0
  7  9  1  0  0  0  0
  9  4  2  0  0  0  0
 10  2  1  0  0  0  0
 11 12  1  0  0  0  0
 13  1  1  0  0  0  0
 14 10  1  0  0  0  0
 14 17  1  0  0  0  0
 14 16  1  1  0  0  0
 15 14  1  0  0  0  0
 19 20  1  0  0  0  0
 20 18  1  1  0  0  0
 20 17  1  0  0  0  0
 21 27  1  0  0  0  0
 22 21  2  0  0  0  0
 23 25  1  0  0  0  0
 23 29  1  0  0  0  0
 24 27  2  0  0  0  0
 24 26  1  0  0  0  0
 26 23  2  0  0  0  0
 27 28  1  0  0  0  0
 28 25  2  0  0  0  0
M  END
>  <MODEL>
2

>  <REMARK>
 VINA RESULT:      -7.7      2.174      3.290
  Name = 
  5 active torsions:
  status: ('A' for Active; 'I' for Inactive)
    1  A    between atoms: C_2  and  N_19
    2  A    between atoms: C_2  and  C_25
    3  A    between atoms: C_9  and  C_20
    4  A    between atoms: C_10  and  C_13
    5  A    between atoms: C_23  and  C_25
                            x       y       z     vdW  Elec       q    Type
                         _______ _______ _______ _____ _____    ______ ____

>  <TORSDO>
F 5

$$$$
=
 OpenBabel11042411013D

 29 31  0  0  1  0  0  0  0  0999 V2000
  191.0410  176.5500  139.4940 C   0  0  1  0  0  3  0  0  0  0  0  0
  192.3600  175.6180  136.8420 C   0  0  0  0  0  0  0  0  0  0  0  0
  192.4690  177.3670  141.2550 C   0  0  0  0  0  2  0  0  0  0  0  0
  188.8940  177.6230  140.2940 C   0  0  0  0  0  0  0  0  0  0  0  0
  191.3200  176.5970  136.9350 N   0  0  0  0  0  2  0  0  0  0  0  0
  192.4460  177.0520  139.7670 C   0  0  0  0  0  2  0  0  0  0  0  0
  189.3740  177.4410  137.9430 N   0  0  0  0  0  0  0  0  0  0  0  0
  192.5360  174.7760  137.7640 O   0  0  0  0  0  0  0  0  0  0  0  0
  188.4930  177.7650  139.0280 C   0  0  0  0  0  3  0  0  0  0  0  0
  193.1720  175.5810  135.6640 N   0  0  0  0  0  2  0  0  0  0  0  0
  190.2270  177.1550  140.5380 N   0  0  0  0  0  0  0  0  0  0  0  0
  191.0270  177.6500  141.6400 C   0  0  0  0  0  2  0  0  0  0  0  0
  190.5510  176.9110  138.1050 C   0  0  0  0  0  0  0  0  0  0  0  0
  194.2440  174.6180  135.4290 C   0  0  1  0  0  0  0  0  0  0  0  0
  194.7160  174.1360  136.6530 O   0  0  0  0  0  1  0  0  0  0  0  0
  193.7170  173.4610  134.5940 C   0  0  0  0  0  1  0  0  0  0  0  0
  195.3710  175.3300  134.6790 C   0  0  0  0  0  2  0  0  0  0  0  0
  197.7870  174.7830  134.7290 C   0  0  0  0  0  1  0  0  0  0  0  0
  196.9860  176.8490  135.6980 N   0  0  0  0  0  1  0  0  0  0  0  0
  196.6590  175.4490  135.4870 C   0  0  1  0  0  3  0  0  0  0  0  0
  187.9540  177.2780  142.5510 C   0  0  0  0  0  3  0  0  0  0  0  0
  188.0210  177.9880  141.4250 C   0  0  0  0  0  3  0  0  0  0  0  0
  185.4570  178.3300  145.8540 C   0  0  0  0  0  0  0  0  0  0  0  0
  185.8450  178.2880  143.4650 C   0  0  0  0  0  3  0  0  0  0  0  0
  186.6860  177.6960  146.0650 C   0  0  0  0  0  3  0  0  0  0  0  0
  185.0370  178.6260  144.5550 C   0  0  0  0  0  3  0  0  0  0  0  0
  187.0780  177.6490  143.6700 C   0  0  0  0  0  0  0  0  0  0  0  0
  187.4930  177.3570  144.9740 C   0  0  0  0  0  3  0  0  0  0  0  0
  184.6360  178.6730  146.9630 N   0  0  0  0  0  1  0  0  0  0  0  0
  1  6  1  6  0  0  0
  1 11  1  0  0  0  0
  2  5  1  0  0  0  0
  2  8  2  0  0  0  0
  3 12  1  0  0  0  0
  4 11  1  0  0  0  0
  4 22  1  0  0  0  0
  5 13  1  0  0  0  0
  6  3  1  0  0  0  0
  7 13  2  0  0  0  0
  7  9  1  0  0  0  0
  9  4  2  0  0  0  0
 10  2  1  0  0  0  0
 11 12  1  0  0  0  0
 13  1  1  0  0  0  0
 14 16  1  6  0  0  0
 14 10  1  0  0  0  0
 14 15  1  0  0  0  0
 17 14  1  0  0  0  0
 17 20  1  0  0  0  0
 20 18  1  6  0  0  0
 20 19  1  0  0  0  0
 21 27  1  0  0  0  0
 22 21  2  0  0  0  0
 23 25  1  0  0  0  0
 23 29  1  0  0  0  0
 24 27  2  0  0  0  0
 24 26  1  0  0  0  0
 26 23  2  0  0  0  0
 27 28  1  0  0  0  0
 28 25  2  0  0  0  0
M  END
>  <MODEL>
3

>  <REMARK>
 VINA RESULT:      -7.7      7.634     10.641
  Name = 
  5 active torsions:
  status: ('A' for Active; 'I' for Inactive)
    1  A    between atoms: C_2  and  N_19
    2  A    between atoms: C_2  and  C_25
    3  A    between atoms: C_9  and  C_20
    4  A    between atoms: C_10  and  C_13
    5  A    between atoms: C_23  and  C_25
                            x       y       z     vdW  Elec       q    Type
                         _______ _______ _______ _____ _____    ______ ____

>  <TORSDO>
F 5

$$$$
=
 OpenBabel11042411013D

 29 31  0  0  1  0  0  0  0  0999 V2000
  184.2190  178.1550  141.7660 C   0  0  1  0  0  3  0  0  0  0  0  0
  181.4050  178.2990  140.4590 C   0  0  0  0  0  0  0  0  0  0  0  0
  186.1330  178.7430  140.4260 C   0  0  0  0  0  2  0  0  0  0  0  0
  185.2990  178.4740  144.0320 C   0  0  0  0  0  0  0  0  0  0  0  0
  181.7770  178.9630  141.6700 N   0  0  0  0  0  2  0  0  0  0  0  0
  184.6160  178.8540  140.4810 C   0  0  0  0  0  2  0  0  0  0  0  0
  182.9900  179.0560  143.6790 N   0  0  0  0  0  0  0  0  0  0  0  0
  182.0510  177.2940  140.0530 O   0  0  0  0  0  0  0  0  0  0  0  0
  184.1260  178.8690  144.5350 C   0  0  0  0  0  3  0  0  0  0  0  0
  180.2620  178.7630  139.7350 N   0  0  0  0  0  2  0  0  0  0  0  0
  185.3940  178.2570  142.6190 N   0  0  0  0  0  0  0  0  0  0  0  0
  186.5880  178.5910  141.8680 C   0  0  0  0  0  2  0  0  0  0  0  0
  182.9910  178.7690  142.4100 C   0  0  0  0  0  0  0  0  0  0  0  0
  179.7600  178.1590  138.5050 C   0  0  1  0  0  0  0  0  0  0  0  0
  178.9600  177.0570  138.8190 O   0  0  0  0  0  1  0  0  0  0  0  0
  178.9390  179.1820  137.7330 C   0  0  0  0  0  1  0  0  0  0  0  0
  180.9580  177.7130  137.6670 C   0  0  0  0  0  2  0  0  0  0  0  0
  181.2260  177.1750  135.2630 C   0  0  0  0  0  1  0  0  0  0  0  0
  181.0850  175.4000  136.8990 N   0  0  0  0  0  1  0  0  0  0  0  0
  180.5940  176.7250  136.5630 C   0  0  1  0  0  3  0  0  0  0  0  0
  187.3980  177.3580  144.6970 C   0  0  0  0  0  3  0  0  0  0  0  0
  186.4900  178.3150  144.8860 C   0  0  0  0  0  3  0  0  0  0  0  0
  190.8790  176.9150  147.1340 C   0  0  0  0  0  0  0  0  0  0  0  0
  188.4810  177.1990  146.9560 C   0  0  0  0  0  3  0  0  0  0  0  0
  190.9840  176.9250  145.7400 C   0  0  0  0  0  3  0  0  0  0  0  0
  189.6280  177.0530  147.7420 C   0  0  0  0  0  3  0  0  0  0  0  0
  188.5800  177.2070  145.5560 C   0  0  0  0  0  0  0  0  0  0  0  0
  189.8360  177.0700  144.9540 C   0  0  0  0  0  3  0  0  0  0  0  0
  192.0460  176.7660  147.9330 N   0  0  0  0  0  1  0  0  0  0  0  0
  1  6  1  6  0  0  0
  1 13  1  0  0  0  0
  1 11  1  0  0  0  0
  2  5  1  0  0  0  0
  3  6  1  0  0  0  0
  3 12  1  0  0  0  0
  4  9  2  0  0  0  0
  4 22  1  0  0  0  0
  5 13  1  0  0  0  0
  7  9  1  0  0  0  0
  8  2  2  0  0  0  0
 10  2  1  0  0  0  0
 11  4  1  0  0  0  0
 12 11  1  0  0  0  0
 13  7  2  0  0  0  0
 14 16  1  6  0  0  0
 14 15  1  0  0  0  0
 14 10  1  0  0  0  0
 17 14  1  0  0  0  0
 20 18  1  6  0  0  0
 20 19  1  0  0  0  0
 20 17  1  0  0  0  0
 21 22  2  0  0  0  0
 21 27  1  0  0  0  0
 23 26  1  0  0  0  0
 23 29  1  0  0  0  0
 24 26  2  0  0  0  0
 25 23  2  0  0  0  0
 27 24  1  0  0  0  0
 28 27  2  0  0  0  0
 28 25  1  0  0  0  0
M  END
>  <MODEL>
4

>  <REMARK>
 VINA RESULT:      -7.7      1.952      2.325
  Name = 
  5 active torsions:
  status: ('A' for Active; 'I' for Inactive)
    1  A    between atoms: C_2  and  N_19
    2  A    between atoms: C_2  and  C_25
    3  A    between atoms: C_9  and  C_20
    4  A    between atoms: C_10  and  C_13
    5  A    between atoms: C_23  and  C_25
                            x       y       z     vdW  Elec       q    Type
                         _______ _______ _______ _____ _____    ______ ____

>  <TORSDO>
F 5

$$$$
=
 OpenBabel11042411013D

 29 31  0  0  1  0  0  0  0  0999 V2000
  191.1400  176.5960  139.6260 C   0  0  1  0  0  3  0  0  0  0  0  0
  192.5520  175.6680  137.0210 C   0  0  0  0  0  0  0  0  0  0  0  0
  192.5000  177.4570  141.4190 C   0  0  0  0  0  2  0  0  0  0  0  0
  188.9490  177.6320  140.3540 C   0  0  0  0  0  0  0  0  0  0  0  0
  191.4900  176.6250  137.0760 N   0  0  0  0  0  2  0  0  0  0  0  0
  192.5260  177.1290  139.9330 C   0  0  0  0  0  2  0  0  0  0  0  0
  189.5000  177.4400  138.0190 N   0  0  0  0  0  0  0  0  0  0  0  0
  192.7190  174.8380  137.9560 O   0  0  0  0  0  0  0  0  0  0  0  0
  188.5820  177.7550  139.0760 C   0  0  0  0  0  3  0  0  0  0  0  0
  193.3980  175.6360  135.8670 N   0  0  0  0  0  2  0  0  0  0  0  0
  190.2830  177.1940  140.6400 N   0  0  0  0  0  0  0  0  0  0  0  0
  191.0420  177.7150  141.7600 C   0  0  0  0  0  2  0  0  0  0  0  0
  190.6820  176.9350  138.2200 C   0  0  0  0  0  0  0  0  0  0  0  0
  194.4950  174.6940  135.6720 C   0  0  1  0  0  0  0  0  0  0  0  0
  193.9820  173.4530  135.2840 O   0  0  0  0  0  1  0  0  0  0  0  0
  195.4320  175.2180  134.5940 C   0  0  0  0  0  1  0  0  0  0  0  0
  195.2500  174.5560  136.9950 C   0  0  0  0  0  2  0  0  0  0  0  0
  197.0540  172.8590  136.9220 C   0  0  0  0  0  1  0  0  0  0  0  0
  195.4910  172.8960  138.7660 N   0  0  0  0  0  1  0  0  0  0  0  0
  195.6210  173.1170  137.3360 C   0  0  1  0  0  3  0  0  0  0  0  0
  187.9830  177.3140  142.6040 C   0  0  0  0  0  3  0  0  0  0  0  0
  188.0370  177.9900  141.4560 C   0  0  0  0  0  3  0  0  0  0  0  0
  185.3730  178.3460  145.8250 C   0  0  0  0  0  0  0  0  0  0  0  0
  185.8070  178.2420  143.4450 C   0  0  0  0  0  3  0  0  0  0  0  0
  186.6290  177.7860  146.0790 C   0  0  0  0  0  3  0  0  0  0  0  0
  184.9630  178.5740  144.5090 C   0  0  0  0  0  3  0  0  0  0  0  0
  187.0680  177.6770  143.6940 C   0  0  0  0  0  0  0  0  0  0  0  0
  187.4730  177.4530  145.0150 C   0  0  0  0  0  3  0  0  0  0  0  0
  184.5140  178.6840  146.9060 N   0  0  0  0  0  1  0  0  0  0  0  0
  1  6  1  1  0  0  0
  1 11  1  0  0  0  0
  2  5  1  0  0  0  0
  2  8  2  0  0  0  0
  3 12  1  0  0  0  0
  4 11  1  0  0  0  0
  4 22  1  0  0  0  0
  5 13  1  0  0  0  0
  6  3  1  0  0  0  0
  7 13  2  0  0  0  0
  7  9  1  0  0  0  0
  9  4  2  0  0  0  0
 10  2  1  0  0  0  0
 11 12  1  0  0  0  0
 13  1  1  0  0  0  0
 14 16  1  6  0  0  0
 14 10  1  0  0  0  0
 14 17  1  0  0  0  0
 15 14  1  0  0  0  0
 17 20  1  0  0  0  0
 20 18  1  1  0  0  0
 20 19  1  0  0  0  0
 21 27  1  0  0  0  0
 22 21  2  0  0  0  0
 23 25  1  0  0  0  0
 23 29  1  0  0  0  0
 24 27  2  0  0  0  0
 24 26  1  0  0  0  0
 26 23  2  0  0  0  0
 27 28  1  0  0  0  0
 28 25  2  0  0  0  0
M  END
>  <MODEL>
5

>  <REMARK>
 VINA RESULT:      -7.6      7.223     10.662
  Name = 
  5 active torsions:
  status: ('A' for Active; 'I' for Inactive)
    1  A    between atoms: C_2  and  N_19
    2  A    between atoms: C_2  and  C_25
    3  A    between atoms: C_9  and  C_20
    4  A    between atoms: C_10  and  C_13
    5  A    between atoms: C_23  and  C_25
                            x       y       z     vdW  Elec       q    Type
                         _______ _______ _______ _____ _____    ______ ____

>  <TORSDO>
F 5

$$$$
=
 OpenBabel11042411013D

 29 31  0  0  1  0  0  0  0  0999 V2000
  185.2990  178.1260  143.6320 C   0  0  1  0  0  3  0  0  0  0  0  0
  187.8780  177.8190  145.3350 C   0  0  0  0  0  0  0  0  0  0  0  0
  183.3740  179.1600  144.6490 C   0  0  0  0  0  2  0  0  0  0  0  0
  184.6260  178.4900  141.2200 C   0  0  0  0  0  0  0  0  0  0  0  0
  187.8160  178.4580  144.0560 N   0  0  0  0  0  2  0  0  0  0  0  0
  184.8760  178.9750  144.8150 C   0  0  0  0  0  2  0  0  0  0  0  0
  186.9340  178.6430  141.8880 N   0  0  0  0  0  0  0  0  0  0  0  0
  186.9960  176.9860  145.6800 O   0  0  0  0  0  0  0  0  0  0  0  0
  185.9120  178.6180  140.8810 C   0  0  0  0  0  3  0  0  0  0  0  0
  188.9800  178.1050  146.2010 N   0  0  0  0  0  2  0  0  0  0  0  0
  184.2960  178.3920  142.6110 N   0  0  0  0  0  0  0  0  0  0  0  0
  183.1010  178.9990  143.1630 C   0  0  0  0  0  2  0  0  0  0  0  0
  186.7010  178.4490  143.1530 C   0  0  0  0  0  0  0  0  0  0  0  0
  189.1780  177.5020  147.5150 C   0  0  1  0  0  0  0  0  0  0  0  0
  189.8110  178.4180  148.3590 O   0  0  0  0  0  1  0  0  0  0  0  0
  187.8310  177.1100  148.1050 C   0  0  0  0  0  1  0  0  0  0  0  0
  190.0530  176.2590  147.3440 C   0  0  0  0  0  2  0  0  0  0  0  0
  192.4220  175.6280  147.6940 C   0  0  0  0  0  1  0  0  0  0  0  0
  191.6810  176.4230  145.5340 N   0  0  0  0  0  1  0  0  0  0  0  0
  191.4960  176.5780  146.9670 C   0  0  1  0  0  3  0  0  0  0  0  0
  183.3660  179.5200  139.3640 C   0  0  0  0  0  3  0  0  0  0  0  0
  183.5560  178.5040  140.2050 C   0  0  0  0  0  3  0  0  0  0  0  0
  180.2380  179.6080  136.4550 C   0  0  0  0  0  0  0  0  0  0  0  0
  181.9960  178.3890  137.5910 C   0  0  0  0  0  3  0  0  0  0  0  0
  180.5340  180.7430  137.2150 C   0  0  0  0  0  3  0  0  0  0  0  0
  180.9690  178.4320  136.6420 C   0  0  0  0  0  3  0  0  0  0  0  0
  182.2950  179.5260  138.3580 C   0  0  0  0  0  0  0  0  0  0  0  0
  181.5610  180.7010  138.1640 C   0  0  0  0  0  3  0  0  0  0  0  0
  179.1940  179.6510  135.4910 N   0  0  0  0  0  1  0  0  0  0  0  0
  1  6  1  1  0  0  0
  2  8  2  0  0  0  0
  2 10  1  0  0  0  0
  3  6  1  0  0  0  0
  4 11  1  0  0  0  0
  5  2  1  0  0  0  0
  7 13  2  0  0  0  0
  9  4  2  0  0  0  0
  9  7  1  0  0  0  0
 10 14  1  0  0  0  0
 11 12  1  0  0  0  0
 11  1  1  0  0  0  0
 12  3  1  0  0  0  0
 13  1  1  0  0  0  0
 13  5  1  0  0  0  0
 14 16  1  1  0  0  0
 14 15  1  0  0  0  0
 17 14  1  0  0  0  0
 19 20  1  0  0  0  0
 20 17  1  0  0  0  0
 20 18  1  1  0  0  0
 21 22  2  0  0  0  0
 22  4  1  0  0  0  0
 23 26  2  0  0  0  0
 23 25  1  0  0  0  0
 24 27  2  0  0  0  0
 25 28  2  0  0  0  0
 26 24  1  0  0  0  0
 27 21  1  0  0  0  0
 28 27  1  0  0  0  0
 29 23  1  0  0  0  0
M  END
>  <MODEL>
6

>  <REMARK>
 VINA RESULT:      -7.4      2.869     10.404
  Name = 
  5 active torsions:
  status: ('A' for Active; 'I' for Inactive)
    1  A    between atoms: C_2  and  N_19
    2  A    between atoms: C_2  and  C_25
    3  A    between atoms: C_9  and  C_20
    4  A    between atoms: C_10  and  C_13
    5  A    between atoms: C_23  and  C_25
                            x       y       z     vdW  Elec       q    Type
                         _______ _______ _______ _____ _____    ______ ____

>  <TORSDO>
F 5

$$$$
=
 OpenBabel11042411013D

 29 31  0  0  1  0  0  0  0  0999 V2000
  187.4730  178.4370  140.7020 C   0  0  1  0  0  3  0  0  0  0  0  0
  189.1410  177.6510  143.2010 C   0  0  0  0  0  0  0  0  0  0  0  0
  188.1380  177.5540  138.5610 C   0  0  0  0  0  2  0  0  0  0  0  0
  185.0830  179.0030  140.0920 C   0  0  0  0  0  0  0  0  0  0  0  0
  187.7260  177.4770  143.0770 N   0  0  0  0  0  2  0  0  0  0  0  0
  188.3290  177.3640  140.0580 C   0  0  0  0  0  2  0  0  0  0  0  0
  185.6280  178.1750  142.2860 N   0  0  0  0  0  0  0  0  0  0  0  0
  189.7500  178.4950  142.4880 O   0  0  0  0  0  0  0  0  0  0  0  0
  184.6990  178.7270  141.3410 C   0  0  0  0  0  3  0  0  0  0  0  0
  189.8510  176.8850  144.1790 N   0  0  0  0  0  2  0  0  0  0  0  0
  186.4380  178.7210  139.7190 N   0  0  0  0  0  0  0  0  0  0  0  0
  186.7860  178.2310  138.4000 C   0  0  0  0  0  2  0  0  0  0  0  0
  186.8920  178.0010  142.0340 C   0  0  0  0  0  0  0  0  0  0  0  0
  191.2850  176.9870  144.4280 C   0  0  1  0  0  0  0  0  0  0  0  0
  191.9850  176.3770  143.3830 O   0  0  0  0  0  1  0  0  0  0  0  0
  191.6840  178.4530  144.5210 C   0  0  0  0  0  1  0  0  0  0  0  0
  191.5940  176.2780  145.7470 C   0  0  0  0  0  2  0  0  0  0  0  0
  189.7640  176.7530  147.3480 C   0  0  0  0  0  1  0  0  0  0  0  0
  192.0640  176.7530  148.0930 N   0  0  0  0  0  1  0  0  0  0  0  0
  191.1940  177.0840  146.9780 C   0  0  1  0  0  3  0  0  0  0  0  0
  182.8470  179.7480  139.3580 C   0  0  0  0  0  3  0  0  0  0  0  0
  184.1360  179.5320  139.0940 C   0  0  0  0  0  3  0  0  0  0  0  0
  180.1160  181.2050  136.4130 C   0  0  0  0  0  0  0  0  0  0  0  0
  181.5460  181.6280  138.3210 C   0  0  0  0  0  3  0  0  0  0  0  0
  180.4740  179.8530  136.4440 C   0  0  0  0  0  3  0  0  0  0  0  0
  180.6520  182.0910  137.3510 C   0  0  0  0  0  3  0  0  0  0  0  0
  181.9110  180.2720  138.3550 C   0  0  0  0  0  0  0  0  0  0  0  0
  181.3700  179.3900  137.4130 C   0  0  0  0  0  3  0  0  0  0  0  0
  179.2070  181.6760  135.4260 N   0  0  0  0  0  1  0  0  0  0  0  0
  1  6  1  6  0  0  0
  1 13  1  0  0  0  0
  2 10  1  0  0  0  0
  3  6  1  0  0  0  0
  4  9  2  0  0  0  0
  5  2  1  0  0  0  0
  8  2  2  0  0  0  0
  9  7  1  0  0  0  0
 10 14  1  0  0  0  0
 11  4  1  0  0  0  0
 11  1  1  0  0  0  0
 12  3  1  0  0  0  0
 12 11  1  0  0  0  0
 13  7  2  0  0  0  0
 13  5  1  0  0  0  0
 14 16  1  1  0  0  0
 14 17  1  0  0  0  0
 15 14  1  0  0  0  0
 17 20  1  0  0  0  0
 20 18  1  1  0  0  0
 20 19  1  0  0  0  0
 22 21  2  0  0  0  0
 22  4  1  0  0  0  0
 23 25  2  0  0  0  0
 23 26  1  0  0  0  0
 24 27  1  0  0  0  0
 25 28  1  0  0  0  0
 26 24  2  0  0  0  0
 27 21  1  0  0  0  0
 28 27  2  0  0  0  0
 29 23  1  0  0  0  0
M  END
>  <MODEL>
7

>  <REMARK>
 VINA RESULT:      -7.3      3.451     10.789
  Name = 
  5 active torsions:
  status: ('A' for Active; 'I' for Inactive)
    1  A    between atoms: C_2  and  N_19
    2  A    between atoms: C_2  and  C_25
    3  A    between atoms: C_9  and  C_20
    4  A    between atoms: C_10  and  C_13
    5  A    between atoms: C_23  and  C_25
                            x       y       z     vdW  Elec       q    Type
                         _______ _______ _______ _____ _____    ______ ____

>  <TORSDO>
F 5

$$$$
=
 OpenBabel11042411013D

 29 31  0  0  1  0  0  0  0  0999 V2000
  182.7570  179.5920  140.7810 C   0  0  1  0  0  3  0  0  0  0  0  0
  181.6460  180.3500  137.9820 C   0  0  0  0  0  0  0  0  0  0  0  0
  181.2260  178.6990  142.4140 C   0  0  0  0  0  2  0  0  0  0  0  0
  184.8900  178.7200  141.8260 C   0  0  0  0  0  0  0  0  0  0  0  0
  182.7470  179.4640  138.2100 N   0  0  0  0  0  2  0  0  0  0  0  0
  181.3770  178.9810  140.9260 C   0  0  0  0  0  2  0  0  0  0  0  0
  184.6410  178.8080  139.4330 N   0  0  0  0  0  0  0  0  0  0  0  0
  181.3090  181.1950  138.8550 O   0  0  0  0  0  0  0  0  0  0  0  0
  185.4290  178.5830  140.6110 C   0  0  0  0  0  3  0  0  0  0  0  0
  180.9590  180.2930  136.7280 N   0  0  0  0  0  2  0  0  0  0  0  0
  183.5060  179.0810  141.9190 N   0  0  0  0  0  0  0  0  0  0  0  0
  182.6390  178.5450  142.9500 C   0  0  0  0  0  2  0  0  0  0  0  0
  183.4140  179.2420  139.4600 C   0  0  0  0  0  0  0  0  0  0  0  0
  179.8430  181.1570  136.3570 C   0  0  1  0  0  0  0  0  0  0  0  0
  179.0930  180.5440  135.3500 O   0  0  0  0  0  1  0  0  0  0  0  0
  178.9610  181.4030  137.5730 C   0  0  0  0  0  1  0  0  0  0  0  0
  180.4110  182.4830  135.8500 C   0  0  0  0  0  2  0  0  0  0  0  0
  181.2590  184.3610  137.2260 C   0  0  0  0  0  1  0  0  0  0  0  0
  179.2520  184.6290  135.9060 N   0  0  0  0  0  1  0  0  0  0  0  0
  180.0120  183.6820  136.7040 C   0  0  1  0  0  3  0  0  0  0  0  0
  186.9110  177.9690  143.0280 C   0  0  0  0  0  3  0  0  0  0  0  0
  185.6690  178.4540  143.0490 C   0  0  0  0  0  3  0  0  0  0  0  0
  189.2030  177.1910  146.5480 C   0  0  0  0  0  0  0  0  0  0  0  0
  187.0810  177.7440  145.5230 C   0  0  0  0  0  3  0  0  0  0  0  0
  189.8030  177.1530  145.2860 C   0  0  0  0  0  3  0  0  0  0  0  0
  187.8430  177.4870  146.6660 C   0  0  0  0  0  3  0  0  0  0  0  0
  187.6780  177.7050  144.2530 C   0  0  0  0  0  0  0  0  0  0  0  0
  189.0410  177.4090  144.1420 C   0  0  0  0  0  3  0  0  0  0  0  0
  189.9780  176.9290  147.7110 N   0  0  0  0  0  1  0  0  0  0  0  0
  1  6  1  6  0  0  0
  1 11  1  0  0  0  0
  2  5  1  0  0  0  0
  2  8  2  0  0  0  0
  3 12  1  0  0  0  0
  4 11  1  0  0  0  0
  4 22  1  0  0  0  0
  5 13  1  0  0  0  0
  6  3  1  0  0  0  0
  7 13  2  0  0  0  0
  7  9  1  0  0  0  0
  9  4  2  0  0  0  0
 10  2  1  0  0  0  0
 11 12  1  0  0  0  0
 13  1  1  0  0  0  0
 14 10  1  0  0  0  0
 14 16  1  1  0  0  0
 15 14  1  0  0  0  0
 17 14  1  0  0  0  0
 17 20  1  0  0  0  0
 19 20  1  0  0  0  0
 20 18  1  6  0  0  0
 21 22  2  0  0  0  0
 21 27  1  0  0  0  0
 23 26  1  0  0  0  0
 23 29  1  0  0  0  0
 24 26  2  0  0  0  0
 25 23  2  0  0  0  0
 27 24  1  0  0  0  0
 28 27  2  0  0  0  0
 28 25  1  0  0  0  0
M  END
>  <MODEL>
8

>  <REMARK>
 VINA RESULT:      -7.1      2.539      4.071
  Name = 
  5 active torsions:
  status: ('A' for Active; 'I' for Inactive)
    1  A    between atoms: C_2  and  N_19
    2  A    between atoms: C_2  and  C_25
    3  A    between atoms: C_9  and  C_20
    4  A    between atoms: C_10  and  C_13
    5  A    between atoms: C_23  and  C_25
                            x       y       z     vdW  Elec       q    Type
                         _______ _______ _______ _____ _____    ______ ____

>  <TORSDO>
F 5

$$$$
=
 OpenBabel11042411013D

 29 31  0  0  1  0  0  0  0  0999 V2000
  189.6620  176.9370  140.1620 C   0  0  1  0  0  3  0  0  0  0  0  0
  191.6720  176.2610  137.8930 C   0  0  0  0  0  0  0  0  0  0  0  0
  190.5100  177.1850  142.4040 C   0  0  0  0  0  2  0  0  0  0  0  0
  187.4990  178.2070  140.4910 C   0  0  0  0  0  0  0  0  0  0  0  0
  190.7690  177.3710  137.8790 N   0  0  0  0  0  2  0  0  0  0  0  0
  190.9440  177.1380  140.9460 C   0  0  0  0  0  2  0  0  0  0  0  0
  188.7030  178.3510  138.4120 N   0  0  0  0  0  0  0  0  0  0  0  0
  191.4440  175.2560  138.6210 O   0  0  0  0  0  0  0  0  0  0  0  0
  187.5540  178.6300  139.2250 C   0  0  0  0  0  3  0  0  0  0  0  0
  192.8170  176.2870  137.0360 N   0  0  0  0  0  2  0  0  0  0  0  0
  188.6190  177.4840  141.0170 N   0  0  0  0  0  0  0  0  0  0  0  0
  189.0610  177.6400  142.3890 C   0  0  0  0  0  2  0  0  0  0  0  0
  189.6970  177.6080  138.8020 C   0  0  0  0  0  0  0  0  0  0  0  0
  193.7970  175.2100  136.9320 C   0  0  1  0  0  0  0  0  0  0  0  0
  193.1710  174.0530  136.4610 O   0  0  0  0  0  1  0  0  0  0  0  0
  194.9030  175.6190  135.9700 C   0  0  0  0  0  1  0  0  0  0  0  0
  194.3820  174.9590  138.3220 C   0  0  0  0  0  2  0  0  0  0  0  0
  196.6980  174.5040  139.0730 C   0  0  0  0  0  1  0  0  0  0  0  0
  195.0710  172.7180  138.9940 N   0  0  0  0  0  1  0  0  0  0  0  0
  195.5100  173.9330  138.3300 C   0  0  1  0  0  3  0  0  0  0  0  0
  185.0970  178.1600  141.0610 C   0  0  0  0  0  3  0  0  0  0  0  0
  186.3470  178.5180  141.3580 C   0  0  0  0  0  3  0  0  0  0  0  0
  181.7320  179.0790  143.5280 C   0  0  0  0  0  0  0  0  0  0  0  0
  184.1090  178.6690  143.3120 C   0  0  0  0  0  3  0  0  0  0  0  0
  181.5740  178.8860  142.1520 C   0  0  0  0  0  3  0  0  0  0  0  0
  182.9990  178.9700  144.1070 C   0  0  0  0  0  3  0  0  0  0  0  0
  183.9550  178.4770  141.9300 C   0  0  0  0  0  0  0  0  0  0  0  0
  182.6840  178.5860  141.3560 C   0  0  0  0  0  3  0  0  0  0  0  0
  180.6030  179.3850  144.3370 N   0  0  0  0  0  1  0  0  0  0  0  0
  1  6  1  1  0  0  0
  1 11  1  0  0  0  0
  2  8  2  0  0  0  0
  4 11  1  0  0  0  0
  4 22  1  0  0  0  0
  5  2  1  0  0  0  0
  5 13  1  0  0  0  0
  6  3  1  0  0  0  0
  7 13  2  0  0  0  0
  7  9  1  0  0  0  0
  9  4  2  0  0  0  0
 10  2  1  0  0  0  0
 11 12  1  0  0  0  0
 12  3  1  0  0  0  0
 13  1  1  0  0  0  0
 14 16  1  6  0  0  0
 14 10  1  0  0  0  0
 14 17  1  0  0  0  0
 15 14  1  0  0  0  0
 17 20  1  0  0  0  0
 20 19  1  0  0  0  0
 20 18  1  1  0  0  0
 21 22  2  0  0  0  0
 21 27  1  0  0  0  0
 23 26  1  0  0  0  0
 23 29  1  0  0  0  0
 24 26  2  0  0  0  0
 25 23  2  0  0  0  0
 27 24  1  0  0  0  0
 28 27  2  0  0  0  0
 28 25  1  0  0  0  0
M  END
>  <MODEL>
9

>  <REMARK>
 VINA RESULT:      -6.8      6.192     10.648
  Name = 
  5 active torsions:
  status: ('A' for Active; 'I' for Inactive)
    1  A    between atoms: C_2  and  N_19
    2  A    between atoms: C_2  and  C_25
    3  A    between atoms: C_9  and  C_20
    4  A    between atoms: C_10  and  C_13
    5  A    between atoms: C_23  and  C_25
                            x       y       z     vdW  Elec       q    Type
                         _______ _______ _______ _____ _____    ______ ____

>  <TORSDO>
F 5

$$$$
