=
 OpenBabel11032419513D

 27 30  0  0  1  0  0  0  0  0999 V2000
  186.7100  177.1350  144.7000 C   0  0  2  0  0  3  0  0  0  0  0  0
  189.3980  176.9740  140.7400 C   0  0  0  0  0  3  0  0  0  0  0  0
  187.3190  177.7500  145.8140 O   0  0  0  0  0  0  0  0  0  0  0  0
  186.3440  177.9570  142.2860 C   0  0  1  0  0  3  0  0  0  0  0  0
  188.1930  177.1390  144.8970 C   0  0  2  0  0  3  0  0  0  0  0  0
  188.0580  177.1250  140.7360 N   0  0  0  0  0  0  0  0  0  0  0  0
  188.8690  177.7840  142.6170 C   0  0  0  0  0  0  0  0  0  0  0  0
  189.9410  177.3690  141.9120 N   0  0  0  0  0  0  0  0  0  0  0  0
  188.9120  178.1950  144.0600 C   0  0  2  0  0  3  0  0  0  0  0  0
  187.7290  177.6250  141.9140 N   0  0  0  0  0  0  0  0  0  0  0  0
  186.1460  178.2360  143.7910 C   0  0  1  0  0  3  0  0  0  0  0  0
  184.7020  178.4570  144.1270 C   0  0  0  0  0  0  0  0  0  0  0  0
  184.3540  179.0880  145.3530 N   0  0  0  0  0  1  0  0  0  0  0  0
  183.7960  178.0800  143.3360 O   0  0  0  0  0  0  0  0  0  0  0  0
  190.3060  178.4440  144.5620 C   0  0  0  0  0  0  0  0  0  0  0  0
  190.9280  179.4700  144.1740 O   0  0  0  0  0  0  0  0  0  0  0  0
  191.8560  176.0490  143.7320 N   0  0  0  0  0  1  0  0  0  0  0  0
  190.9210  177.4930  145.5180 C   0  0  0  0  0  0  0  0  0  0  0  0
  192.1890  175.5360  146.0520 N   0  0  0  0  0  0  0  0  0  0  0  0
  191.6570  176.3590  145.1090 C   0  0  0  0  0  0  0  0  0  0  0  0
  191.3090  176.8950  147.7880 C   0  0  0  0  0  3  0  0  0  0  0  0
  192.0330  175.7780  147.3790 C   0  0  0  0  0  3  0  0  0  0  0  0
  190.7720  177.7210  146.8530 N   0  0  0  0  0  0  0  0  0  0  0  0
  185.8830  179.1390  141.4870 C   0  0  0  0  0  3  0  0  0  0  0  0
  185.1410  178.9790  140.4010 C   0  0  0  0  0  3  0  0  0  0  0  0
  184.7260  180.0880  139.6760 O   0  0  0  0  0  0  0  0  0  0  0  0
  183.5170  180.0400  138.9410 C   0  0  0  0  0  1  0  0  0  0  0  0
  1  5  1  0  0  0  0
  1  3  1  1  0  0  0
  2  8  1  0  0  0  0
  4 24  1  6  0  0  0
  4 11  1  0  0  0  0
  5  3  1  1  0  0  0
  6  2  2  0  0  0  0
  6 10  1  0  0  0  0
  7  9  1  0  0  0  0
  8  7  2  0  0  0  0
  9 15  1  1  0  0  0
  9  5  1  0  0  0  0
 10  4  1  0  0  0  0
 10  7  1  0  0  0  0
 11 12  1  6  0  0  0
 11  1  1  0  0  0  0
 12 13  1  0  0  0  0
 14 12  2  0  0  0  0
 15 18  1  0  0  0  0
 16 15  2  0  0  0  0
 17 20  1  0  0  0  0
 18 23  1  0  0  0  0
 19 22  2  0  0  0  0
 20 18  2  0  0  0  0
 20 19  1  0  0  0  0
 22 21  1  0  0  0  0
 23 21  2  0  0  0  0
 25 24  2  0  0  0  0
 26 25  1  0  0  0  0
 27 26  1  0  0  0  0
M  END
>  <MODEL>
1

>  <REMARK>
 VINA RESULT:      -7.3      0.000      0.000
  Name = 
  5 active torsions:
  status: ('A' for Active; 'I' for Inactive)
    1  A    between atoms: C_2  and  C_27
    2  A    between atoms: C_6  and  C_7
    3  A    between atoms: C_7  and  C_25
    4  A    between atoms: C_11  and  C_16
    5  A    between atoms: C_13  and  O_14
                            x       y       z     vdW  Elec       q    Type
                         _______ _______ _______ _____ _____    ______ ____

>  <TORSDO>
F 5

$$$$
=
 OpenBabel11032419513D

 27 30  0  0  1  0  0  0  0  0999 V2000
  186.3660  179.2940  141.0090 C   0  0  2  0  0  3  0  0  0  0  0  0
  185.6000  178.9520  145.7250 C   0  0  0  0  0  3  0  0  0  0  0  0
  187.2180  178.3090  140.4670 O   0  0  0  0  0  0  0  0  0  0  0  0
  184.2310  179.1030  142.4400 C   0  0  1  0  0  3  0  0  0  0  0  0
  187.4400  178.6370  141.8160 C   0  0  2  0  0  3  0  0  0  0  0  0
  184.6770  179.3790  144.8400 N   0  0  0  0  0  0  0  0  0  0  0  0
  186.1340  178.1470  143.8470 C   0  0  0  0  0  0  0  0  0  0  0  0
  186.5400  178.1830  145.1320 N   0  0  0  0  0  0  0  0  0  0  0  0
  186.9220  177.5280  142.7280 C   0  0  2  0  0  3  0  0  0  0  0  0
  185.0180  178.8800  143.6650 N   0  0  0  0  0  0  0  0  0  0  0  0
  184.9590  178.6930  141.1420 C   0  0  1  0  0  3  0  0  0  0  0  0
  184.1590  179.0460  139.9250 C   0  0  0  0  0  0  0  0  0  0  0  0
  183.2700  178.0870  139.3660 N   0  0  0  0  0  1  0  0  0  0  0  0
  184.2730  180.1810  139.3900 O   0  0  0  0  0  0  0  0  0  0  0  0
  188.0340  176.6410  143.2090 C   0  0  0  0  0  0  0  0  0  0  0  0
  187.7950  175.4270  143.4520 O   0  0  0  0  0  0  0  0  0  0  0  0
  190.2020  176.2960  141.2090 N   0  0  0  0  0  1  0  0  0  0  0  0
  189.3970  177.1990  143.3720 C   0  0  0  0  0  0  0  0  0  0  0  0
  191.6430  177.5740  142.6390 N   0  0  0  0  0  0  0  0  0  0  0  0
  190.4190  177.0290  142.4120 C   0  0  0  0  0  0  0  0  0  0  0  0
  190.9070  178.4540  144.7170 C   0  0  0  0  0  3  0  0  0  0  0  0
  191.9090  178.2820  143.7670 C   0  0  0  0  0  3  0  0  0  0  0  0
  189.6810  177.9110  144.4990 N   0  0  0  0  0  0  0  0  0  0  0  0
  182.9280  178.3690  142.5430 C   0  0  0  0  0  3  0  0  0  0  0  0
  181.8090  179.0090  142.8490 C   0  0  0  0  0  3  0  0  0  0  0  0
  180.6130  178.3090  142.9400 O   0  0  0  0  0  0  0  0  0  0  0  0
  179.7760  178.4840  144.0680 C   0  0  0  0  0  1  0  0  0  0  0  0
  1  3  1  6  0  0  0
  1 11  1  0  0  0  0
  1  5  1  0  0  0  0
  4 24  1  1  0  0  0
  4 10  1  0  0  0  0
  5  3  1  6  0  0  0
  5  9  1  0  0  0  0
  6  2  2  0  0  0  0
  7  8  2  0  0  0  0
  8  2  1  0  0  0  0
  9 15  1  1  0  0  0
  9  7  1  0  0  0  0
 10  7  1  0  0  0  0
 10  6  1  0  0  0  0
 11 12  1  6  0  0  0
 11  4  1  0  0  0  0
 13 12  1  0  0  0  0
 14 12  2  0  0  0  0
 15 18  1  0  0  0  0
 15 16  2  0  0  0  0
 17 20  1  0  0  0  0
 18 23  1  0  0  0  0
 19 22  2  0  0  0  0
 20 19  1  0  0  0  0
 20 18  2  0  0  0  0
 22 21  1  0  0  0  0
 23 21  2  0  0  0  0
 24 25  2  0  0  0  0
 25 26  1  0  0  0  0
 26 27  1  0  0  0  0
M  END
>  <MODEL>
2

>  <REMARK>
 VINA RESULT:      -7.1      2.295      4.280
  Name = 
  5 active torsions:
  status: ('A' for Active; 'I' for Inactive)
    1  A    between atoms: C_2  and  C_27
    2  A    between atoms: C_6  and  C_7
    3  A    between atoms: C_7  and  C_25
    4  A    between atoms: C_11  and  C_16
    5  A    between atoms: C_13  and  O_14
                            x       y       z     vdW  Elec       q    Type
                         _______ _______ _______ _____ _____    ______ ____

>  <TORSDO>
F 5

$$$$
=
 OpenBabel11032419513D

 27 30  0  0  1  0  0  0  0  0999 V2000
  190.9580  175.1950  137.1240 C   0  0  2  0  0  3  0  0  0  0  0  0
  188.6230  179.3760  137.1550 C   0  0  0  0  0  3  0  0  0  0  0  0
  191.3470  174.7150  138.3920 O   0  0  0  0  0  0  0  0  0  0  0  0
  188.6670  175.9420  136.2110 C   0  0  1  0  0  3  0  0  0  0  0  0
  191.2430  176.1120  138.2700 C   0  0  2  0  0  3  0  0  0  0  0  0
  188.3740  178.3800  136.2810 N   0  0  0  0  0  0  0  0  0  0  0  0
  189.2800  177.5870  138.0640 C   0  0  0  0  0  0  0  0  0  0  0  0
  189.2030  178.9150  138.2840 N   0  0  0  0  0  0  0  0  0  0  0  0
  189.9840  176.6180  138.9690 C   0  0  2  0  0  3  0  0  0  0  0  0
  188.7930  177.2630  136.8490 N   0  0  0  0  0  0  0  0  0  0  0  0
  189.4830  174.8290  136.9020 C   0  0  1  0  0  3  0  0  0  0  0  0
  189.4070  173.5380  136.1460 C   0  0  0  0  0  0  0  0  0  0  0  0
  190.0630  173.4180  134.8900 N   0  0  0  0  0  1  0  0  0  0  0  0
  188.7580  172.5620  136.6100 O   0  0  0  0  0  0  0  0  0  0  0  0
  190.2950  177.1930  140.3220 C   0  0  0  0  0  0  0  0  0  0  0  0
  191.4390  177.6750  140.5400 O   0  0  0  0  0  0  0  0  0  0  0  0
  190.3550  175.4450  142.7230 N   0  0  0  0  0  1  0  0  0  0  0  0
  189.2480  177.2030  141.3710 C   0  0  0  0  0  0  0  0  0  0  0  0
  188.2880  176.4390  143.4250 N   0  0  0  0  0  0  0  0  0  0  0  0
  189.2900  176.3670  142.5090 C   0  0  0  0  0  0  0  0  0  0  0  0
  187.1990  178.1240  142.1560 C   0  0  0  0  0  3  0  0  0  0  0  0
  187.2460  177.2970  143.2750 C   0  0  0  0  0  3  0  0  0  0  0  0
  188.1950  178.0570  141.2350 N   0  0  0  0  0  0  0  0  0  0  0  0
  187.2210  175.5500  136.1560 C   0  0  0  0  0  3  0  0  0  0  0  0
  186.5260  175.3590  137.2680 C   0  0  0  0  0  3  0  0  0  0  0  0
  185.1880  174.9950  137.1950 O   0  0  0  0  0  0  0  0  0  0  0  0
  184.7920  173.6830  137.5510 C   0  0  0  0  0  1  0  0  0  0  0  0
  1  5  1  0  0  0  0
  1  3  1  1  0  0  0
  2  8  1  0  0  0  0
  4 24  1  1  0  0  0
  4 10  1  0  0  0  0
  4 11  1  0  0  0  0
  5  3  1  1  0  0  0
  5  9  1  0  0  0  0
  6 10  1  0  0  0  0
  6  2  2  0  0  0  0
  7  8  2  0  0  0  0
  7  9  1  0  0  0  0
  9 15  1  1  0  0  0
 10  7  1  0  0  0  0
 11 12  1  6  0  0  0
 11  1  1  0  0  0  0
 12 14  2  0  0  0  0
 13 12  1  0  0  0  0
 15 16  2  0  0  0  0
 15 18  1  0  0  0  0
 18 20  1  0  0  0  0
 20 17  1  0  0  0  0
 20 19  2  0  0  0  0
 21 22  2  0  0  0  0
 22 19  1  0  0  0  0
 23 18  2  0  0  0  0
 23 21  1  0  0  0  0
 24 25  2  0  0  0  0
 26 25  1  0  0  0  0
 26 27  1  0  0  0  0
M  END
>  <MODEL>
3

>  <REMARK>
 VINA RESULT:      -6.6      4.401      6.720
  Name = 
  5 active torsions:
  status: ('A' for Active; 'I' for Inactive)
    1  A    between atoms: C_2  and  C_27
    2  A    between atoms: C_6  and  C_7
    3  A    between atoms: C_7  and  C_25
    4  A    between atoms: C_11  and  C_16
    5  A    between atoms: C_13  and  O_14
                            x       y       z     vdW  Elec       q    Type
                         _______ _______ _______ _____ _____    ______ ____

>  <TORSDO>
F 5

$$$$
=
 OpenBabel11032419513D

 27 30  0  0  1  0  0  0  0  0999 V2000
  184.1120  179.4810  144.1350 C   0  0  2  0  0  3  0  0  0  0  0  0
  185.8200  178.9510  139.6930 C   0  0  0  0  0  3  0  0  0  0  0  0
  182.8090  178.9800  144.3410 O   0  0  0  0  0  0  0  0  0  0  0  0
  186.2350  178.3740  143.1820 C   0  0  1  0  0  3  0  0  0  0  0  0
  183.1030  179.4090  143.0340 C   0  0  2  0  0  3  0  0  0  0  0  0
  186.5790  178.8850  140.8050 N   0  0  0  0  0  0  0  0  0  0  0  0
  184.5310  178.4290  141.2820 C   0  0  0  0  0  0  0  0  0  0  0  0
  184.5230  178.6800  139.9580 N   0  0  0  0  0  0  0  0  0  0  0  0
  183.2980  178.2100  142.1100 C   0  0  2  0  0  3  0  0  0  0  0  0
  185.7690  178.5660  141.7990 N   0  0  0  0  0  0  0  0  0  0  0  0
  185.0980  178.3070  144.2260 C   0  0  1  0  0  3  0  0  0  0  0  0
  185.6350  178.2230  145.6220 C   0  0  0  0  0  0  0  0  0  0  0  0
  185.6520  179.3870  146.4400 N   0  0  0  0  0  1  0  0  0  0  0  0
  186.0780  177.1330  146.0730 O   0  0  0  0  0  0  0  0  0  0  0  0
  182.0730  177.9410  141.2840 C   0  0  0  0  0  0  0  0  0  0  0  0
  181.9810  176.8550  140.6500 O   0  0  0  0  0  0  0  0  0  0  0  0
  179.7540  177.9330  143.1410 N   0  0  0  0  0  1  0  0  0  0  0  0
  180.9840  178.9460  141.2410 C   0  0  0  0  0  0  0  0  0  0  0  0
  178.9310  179.8910  142.0250 N   0  0  0  0  0  0  0  0  0  0  0  0
  179.8880  178.9310  142.1320 C   0  0  0  0  0  0  0  0  0  0  0  0
  180.0810  180.8870  140.2040 C   0  0  0  0  0  3  0  0  0  0  0  0
  179.0030  180.8670  141.0840 C   0  0  0  0  0  3  0  0  0  0  0  0
  181.0410  179.9320  140.3020 N   0  0  0  0  0  0  0  0  0  0  0  0
  187.0660  177.1280  143.2600 C   0  0  0  0  0  3  0  0  0  0  0  0
  188.3810  177.1950  143.4100 C   0  0  0  0  0  3  0  0  0  0  0  0
  189.1310  176.0300  143.4780 O   0  0  0  0  0  0  0  0  0  0  0  0
  190.3120  175.9020  142.7070 C   0  0  0  0  0  1  0  0  0  0  0  0
  1 11  1  0  0  0  0
  1  3  1  1  0  0  0
  2  8  1  0  0  0  0
  2  6  2  0  0  0  0
  4 24  1  6  0  0  0
  4 11  1  0  0  0  0
  5  1  1  0  0  0  0
  5  3  1  1  0  0  0
  6 10  1  0  0  0  0
  7 10  1  0  0  0  0
  7  9  1  0  0  0  0
  8  7  2  0  0  0  0
  9 15  1  6  0  0  0
  9  5  1  0  0  0  0
 10  4  1  0  0  0  0
 11 12  1  1  0  0  0
 12 14  2  0  0  0  0
 12 13  1  0  0  0  0
 16 15  2  0  0  0  0
 18 15  1  0  0  0  0
 18 20  1  0  0  0  0
 19 20  2  0  0  0  0
 20 17  1  0  0  0  0
 21 23  1  0  0  0  0
 21 22  2  0  0  0  0
 22 19  1  0  0  0  0
 23 18  2  0  0  0  0
 24 25  2  0  0  0  0
 25 26  1  0  0  0  0
 27 26  1  0  0  0  0
M  END
>  <MODEL>
4

>  <REMARK>
 VINA RESULT:      -6.4      3.338      8.076
  Name = 
  5 active torsions:
  status: ('A' for Active; 'I' for Inactive)
    1  A    between atoms: C_2  and  C_27
    2  A    between atoms: C_6  and  C_7
    3  A    between atoms: C_7  and  C_25
    4  A    between atoms: C_11  and  C_16
    5  A    between atoms: C_13  and  O_14
                            x       y       z     vdW  Elec       q    Type
                         _______ _______ _______ _____ _____    ______ ____

>  <TORSDO>
F 5

$$$$
=
 OpenBabel11032419513D

 27 30  0  0  1  0  0  0  0  0999 V2000
  186.4320  179.3320  141.3600 C   0  0  2  0  0  3  0  0  0  0  0  0
  183.9380  179.0500  145.4390 C   0  0  0  0  0  3  0  0  0  0  0  0
  187.5100  178.4280  141.2520 O   0  0  0  0  0  0  0  0  0  0  0  0
  183.9360  178.9580  141.8790 C   0  0  1  0  0  3  0  0  0  0  0  0
  187.1640  178.8180  142.5580 C   0  0  2  0  0  3  0  0  0  0  0  0
  183.3950  179.3500  144.2420 N   0  0  0  0  0  0  0  0  0  0  0  0
  185.2230  178.2510  143.9660 C   0  0  0  0  0  0  0  0  0  0  0  0
  185.0960  178.3670  145.3030 N   0  0  0  0  0  0  0  0  0  0  0  0
  186.4320  177.6870  143.2770 C   0  0  2  0  0  3  0  0  0  0  0  0
  184.2050  178.8550  143.3220 N   0  0  0  0  0  0  0  0  0  0  0  0
  185.1410  178.5890  140.9870 C   0  0  1  0  0  3  0  0  0  0  0  0
  184.8450  178.8190  139.5360 C   0  0  0  0  0  0  0  0  0  0  0  0
  184.4470  180.1110  139.0950 N   0  0  0  0  0  1  0  0  0  0  0  0
  184.9380  177.8750  138.7060 O   0  0  0  0  0  0  0  0  0  0  0  0
  187.3450  176.9380  144.2050 C   0  0  0  0  0  0  0  0  0  0  0  0
  186.8610  176.3670  145.2200 O   0  0  0  0  0  0  0  0  0  0  0  0
  189.4350  178.2830  145.8310 N   0  0  0  0  0  1  0  0  0  0  0  0
  188.7940  176.8630  143.9040 C   0  0  0  0  0  0  0  0  0  0  0  0
  191.0870  177.3870  144.3410 N   0  0  0  0  0  0  0  0  0  0  0  0
  189.7780  177.5070  144.6860 C   0  0  0  0  0  0  0  0  0  0  0  0
  190.5100  176.0230  142.4860 C   0  0  0  0  0  3  0  0  0  0  0  0
  191.4750  176.6610  143.2610 C   0  0  0  0  0  3  0  0  0  0  0  0
  189.2000  176.1390  142.8230 N   0  0  0  0  0  0  0  0  0  0  0  0
  182.7630  178.0920  141.5270 C   0  0  0  0  0  3  0  0  0  0  0  0
  181.5870  178.6270  141.2310 C   0  0  0  0  0  3  0  0  0  0  0  0
  180.5150  177.8060  140.9090 O   0  0  0  0  0  0  0  0  0  0  0  0
  180.3560  177.3390  139.5810 C   0  0  0  0  0  1  0  0  0  0  0  0
  1  3  1  6  0  0  0
  1  5  1  0  0  0  0
  4 24  1  6  0  0  0
  4 10  1  0  0  0  0
  5  3  1  6  0  0  0
  5  9  1  0  0  0  0
  6  2  2  0  0  0  0
  7  8  2  0  0  0  0
  8  2  1  0  0  0  0
  9  7  1  0  0  0  0
  9 15  1  1  0  0  0
 10  7  1  0  0  0  0
 10  6  1  0  0  0  0
 11 12  1  6  0  0  0
 11  1  1  0  0  0  0
 11  4  1  0  0  0  0
 13 12  1  0  0  0  0
 14 12  2  0  0  0  0
 15 16  2  0  0  0  0
 18 15  1  0  0  0  0
 18 20  1  0  0  0  0
 19 20  2  0  0  0  0
 20 17  1  0  0  0  0
 21 23  1  0  0  0  0
 21 22  2  0  0  0  0
 22 19  1  0  0  0  0
 23 18  2  0  0  0  0
 25 24  2  0  0  0  0
 26 25  1  0  0  0  0
 27 26  1  0  0  0  0
M  END
>  <MODEL>
5

>  <REMARK>
 VINA RESULT:      -6.3      2.260      4.411
  Name = 
  5 active torsions:
  status: ('A' for Active; 'I' for Inactive)
    1  A    between atoms: C_2  and  C_27
    2  A    between atoms: C_6  and  C_7
    3  A    between atoms: C_7  and  C_25
    4  A    between atoms: C_11  and  C_16
    5  A    between atoms: C_13  and  O_14
                            x       y       z     vdW  Elec       q    Type
                         _______ _______ _______ _____ _____    ______ ____

>  <TORSDO>
F 5

$$$$
=
 OpenBabel11032419513D

 27 30  0  0  1  0  0  0  0  0999 V2000
  188.6700  178.6460  140.4080 C   0  0  2  0  0  3  0  0  0  0  0  0
  192.9150  176.9800  138.9440 C   0  0  0  0  0  3  0  0  0  0  0  0
  187.5580  178.1800  139.6760 O   0  0  0  0  0  0  0  0  0  0  0  0
  190.5770  177.3880  141.6000 C   0  0  1  0  0  3  0  0  0  0  0  0
  188.7730  178.2460  138.9710 C   0  0  2  0  0  3  0  0  0  0  0  0
  192.6110  177.2430  140.2310 N   0  0  0  0  0  0  0  0  0  0  0  0
  190.8130  176.8720  139.1110 C   0  0  0  0  0  0  0  0  0  0  0  0
  191.8050  176.7520  138.2080 N   0  0  0  0  0  0  0  0  0  0  0  0
  189.3510  176.8480  138.7710 C   0  0  2  0  0  3  0  0  0  0  0  0
  191.2950  177.1820  140.3310 N   0  0  0  0  0  0  0  0  0  0  0  0
  189.0530  177.5730  141.4370 C   0  0  1  0  0  3  0  0  0  0  0  0
  188.3930  177.8890  142.7450 C   0  0  0  0  0  0  0  0  0  0  0  0
  187.0530  177.4700  142.9750 N   0  0  0  0  0  1  0  0  0  0  0  0
  189.0110  178.5300  143.6360 O   0  0  0  0  0  0  0  0  0  0  0  0
  189.0750  176.3270  137.3890 C   0  0  0  0  0  0  0  0  0  0  0  0
  189.4400  177.0030  136.3890 O   0  0  0  0  0  0  0  0  0  0  0  0
  190.5190  173.7360  137.2180 N   0  0  0  0  0  1  0  0  0  0  0  0
  188.3980  175.0190  137.2220 C   0  0  0  0  0  0  0  0  0  0  0  0
  188.3980  172.6380  136.9900 N   0  0  0  0  0  0  0  0  0  0  0  0
  189.0960  173.7940  137.1430 C   0  0  0  0  0  0  0  0  0  0  0  0
  186.3480  173.8340  136.9890 C   0  0  0  0  0  3  0  0  0  0  0  0
  187.0430  172.6300  136.9120 C   0  0  0  0  0  3  0  0  0  0  0  0
  187.0370  174.9930  137.1410 N   0  0  0  0  0  0  0  0  0  0  0  0
  190.8520  176.2370  142.5210 C   0  0  0  0  0  3  0  0  0  0  0  0
  191.6740  176.3700  143.5510 C   0  0  0  0  0  3  0  0  0  0  0  0
  191.9150  175.2910  144.3900 O   0  0  0  0  0  0  0  0  0  0  0  0
  192.0550  175.4970  145.7840 C   0  0  0  0  0  1  0  0  0  0  0  0
  1  3  1  1  0  0  0
  1 11  1  0  0  0  0
  2  6  2  0  0  0  0
  4 24  1  1  0  0  0
  5  3  1  1  0  0  0
  5  1  1  0  0  0  0
  6 10  1  0  0  0  0
  7 10  1  0  0  0  0
  8  2  1  0  0  0  0
  8  7  2  0  0  0  0
  9 15  1  6  0  0  0
  9  5  1  0  0  0  0
  9  7  1  0  0  0  0
 10  4  1  0  0  0  0
 11  4  1  0  0  0  0
 11 12  1  1  0  0  0
 12 13  1  0  0  0  0
 12 14  2  0  0  0  0
 16 15  2  0  0  0  0
 18 15  1  0  0  0  0
 19 20  2  0  0  0  0
 20 17  1  0  0  0  0
 20 18  1  0  0  0  0
 21 23  1  0  0  0  0
 22 21  2  0  0  0  0
 22 19  1  0  0  0  0
 23 18  2  0  0  0  0
 24 25  2  0  0  0  0
 25 26  1  0  0  0  0
 26 27  1  0  0  0  0
M  END
>  <MODEL>
6

>  <REMARK>
 VINA RESULT:      -6.3      3.672      7.424
  Name = 
  5 active torsions:
  status: ('A' for Active; 'I' for Inactive)
    1  A    between atoms: C_2  and  C_27
    2  A    between atoms: C_6  and  C_7
    3  A    between atoms: C_7  and  C_25
    4  A    between atoms: C_11  and  C_16
    5  A    between atoms: C_13  and  O_14
                            x       y       z     vdW  Elec       q    Type
                         _______ _______ _______ _____ _____    ______ ____

>  <TORSDO>
F 5

$$$$
=
 OpenBabel11032419513D

 27 30  0  0  1  0  0  0  0  0999 V2000
  188.7740  176.1220  135.8280 C   0  0  2  0  0  3  0  0  0  0  0  0
  184.8440  178.0220  137.7980 C   0  0  0  0  0  3  0  0  0  0  0  0
  189.9660  176.3230  136.5550 O   0  0  0  0  0  0  0  0  0  0  0  0
  186.4970  175.1370  136.5230 C   0  0  1  0  0  3  0  0  0  0  0  0
  188.9760  177.3090  136.7150 C   0  0  2  0  0  3  0  0  0  0  0  0
  184.8550  176.8710  137.0970 N   0  0  0  0  0  0  0  0  0  0  0  0
  186.8130  177.2670  137.8940 C   0  0  0  0  0  0  0  0  0  0  0  0
  186.0630  178.3080  138.3050 N   0  0  0  0  0  0  0  0  0  0  0  0
  188.3000  177.1700  138.0770 C   0  0  2  0  0  3  0  0  0  0  0  0
  186.0900  176.4040  137.1530 N   0  0  0  0  0  0  0  0  0  0  0  0
  188.0260  174.9340  136.4490 C   0  0  1  0  0  3  0  0  0  0  0  0
  188.3810  173.6850  135.7010 C   0  0  0  0  0  0  0  0  0  0  0  0
  189.3520  172.7960  136.2390 N   0  0  0  0  0  1  0  0  0  0  0  0
  187.8340  173.4220  134.5970 O   0  0  0  0  0  0  0  0  0  0  0  0
  188.8390  178.1630  139.0670 C   0  0  0  0  0  0  0  0  0  0  0  0
  189.0440  179.3520  138.7000 O   0  0  0  0  0  0  0  0  0  0  0  0
  187.0220  178.7650  141.3390 N   0  0  0  0  0  1  0  0  0  0  0  0
  189.1010  177.7370  140.4620 C   0  0  0  0  0  0  0  0  0  0  0  0
  188.5420  177.6000  142.7840 N   0  0  0  0  0  0  0  0  0  0  0  0
  188.2270  178.0290  141.5330 C   0  0  0  0  0  0  0  0  0  0  0  0
  190.5410  176.6050  141.9800 C   0  0  0  0  0  3  0  0  0  0  0  0
  189.6760  176.8960  143.0310 C   0  0  0  0  0  3  0  0  0  0  0  0
  190.2350  177.0300  140.7270 N   0  0  0  0  0  0  0  0  0  0  0  0
  185.8700  173.9900  137.2590 C   0  0  0  0  0  3  0  0  0  0  0  0
  184.8300  173.3430  136.7520 C   0  0  0  0  0  3  0  0  0  0  0  0
  184.2650  172.2860  137.4500 O   0  0  0  0  0  0  0  0  0  0  0  0
  183.5260  171.2960  136.7580 C   0  0  0  0  0  1  0  0  0  0  0  0
  1 11  1  0  0  0  0
  1  3  1  1  0  0  0
  1  5  1  0  0  0  0
  2  8  1  0  0  0  0
  4 10  1  0  0  0  0
  4 24  1  1  0  0  0
  5  3  1  1  0  0  0
  5  9  1  0  0  0  0
  6 10  1  0  0  0  0
  6  2  2  0  0  0  0
  7  9  1  0  0  0  0
  7  8  2  0  0  0  0
  9 15  1  1  0  0  0
 10  7  1  0  0  0  0
 11 12  1  6  0  0  0
 11  4  1  0  0  0  0
 12 13  1  0  0  0  0
 14 12  2  0  0  0  0
 15 18  1  0  0  0  0
 16 15  2  0  0  0  0
 17 20  1  0  0  0  0
 18 23  2  0  0  0  0
 18 20  1  0  0  0  0
 19 22  1  0  0  0  0
 20 19  2  0  0  0  0
 21 22  2  0  0  0  0
 23 21  1  0  0  0  0
 25 24  2  0  0  0  0
 25 26  1  0  0  0  0
 27 26  1  0  0  0  0
M  END
>  <MODEL>
7

>  <REMARK>
 VINA RESULT:      -6.2      4.872      7.255
  Name = 
  5 active torsions:
  status: ('A' for Active; 'I' for Inactive)
    1  A    between atoms: C_2  and  C_27
    2  A    between atoms: C_6  and  C_7
    3  A    between atoms: C_7  and  C_25
    4  A    between atoms: C_11  and  C_16
    5  A    between atoms: C_13  and  O_14
                            x       y       z     vdW  Elec       q    Type
                         _______ _______ _______ _____ _____    ______ ____

>  <TORSDO>
F 5

$$$$
=
 OpenBabel11032419513D

 27 30  0  0  1  0  0  0  0  0999 V2000
  191.7350  177.6350  141.0750 C   0  0  2  0  0  3  0  0  0  0  0  0
  187.1030  178.7600  140.6160 C   0  0  0  0  0  3  0  0  0  0  0  0
  192.0290  176.7060  142.0950 O   0  0  0  0  0  0  0  0  0  0  0  0
  190.0840  177.5350  139.0990 C   0  0  1  0  0  3  0  0  0  0  0  0
  190.8900  177.5040  142.3010 C   0  0  2  0  0  3  0  0  0  0  0  0
  187.9660  178.6810  139.5830 N   0  0  0  0  0  0  0  0  0  0  0  0
  188.6730  177.4870  141.2270 C   0  0  0  0  0  0  0  0  0  0  0  0
  187.5230  178.0290  141.6720 N   0  0  0  0  0  0  0  0  0  0  0  0
  189.6190  176.6900  142.0780 C   0  0  2  0  0  3  0  0  0  0  0  0
  188.9510  177.8900  139.9700 N   0  0  0  0  0  0  0  0  0  0  0  0
  191.2580  176.8580  139.8390 C   0  0  1  0  0  3  0  0  0  0  0  0
  192.4230  176.6220  138.9270 C   0  0  0  0  0  0  0  0  0  0  0  0
  193.6490  177.3030  139.1620 N   0  0  0  0  0  1  0  0  0  0  0  0
  192.3210  175.8330  137.9500 O   0  0  0  0  0  0  0  0  0  0  0  0
  189.0100  176.2440  143.3770 C   0  0  0  0  0  0  0  0  0  0  0  0
  187.9970  175.4940  143.3600 O   0  0  0  0  0  0  0  0  0  0  0  0
  187.6370  177.9900  145.3500 N   0  0  0  0  0  1  0  0  0  0  0  0
  189.6210  176.6750  144.6570 C   0  0  0  0  0  0  0  0  0  0  0  0
  189.5870  177.8540  146.7390 N   0  0  0  0  0  0  0  0  0  0  0  0
  188.9560  177.5050  145.5870 C   0  0  0  0  0  0  0  0  0  0  0  0
  191.5050  176.6050  146.1080 C   0  0  0  0  0  3  0  0  0  0  0  0
  190.8440  177.4230  147.0200 C   0  0  0  0  0  3  0  0  0  0  0  0
  190.8820  176.2530  144.9540 N   0  0  0  0  0  0  0  0  0  0  0  0
  189.6030  176.6440  137.9930 C   0  0  0  0  0  3  0  0  0  0  0  0
  189.3240  177.1370  136.7950 C   0  0  0  0  0  3  0  0  0  0  0  0
  188.8790  176.2950  135.7860 O   0  0  0  0  0  0  0  0  0  0  0  0
  187.5180  175.9090  135.7360 C   0  0  0  0  0  1  0  0  0  0  0  0
  1  3  1  1  0  0  0
  1  5  1  0  0  0  0
  2  8  1  0  0  0  0
  4 24  1  6  0  0  0
  4 11  1  0  0  0  0
  4 10  1  0  0  0  0
  5  3  1  1  0  0  0
  6 10  1  0  0  0  0
  6  2  2  0  0  0  0
  7  8  2  0  0  0  0
  7  9  1  0  0  0  0
  9  5  1  0  0  0  0
  9 15  1  1  0  0  0
 10  7  1  0  0  0  0
 11 12  1  6  0  0  0
 11  1  1  0  0  0  0
 12 13  1  0  0  0  0
 14 12  2  0  0  0  0
 15 18  1  0  0  0  0
 16 15  2  0  0  0  0
 17 20  1  0  0  0  0
 18 23  2  0  0  0  0
 18 20  1  0  0  0  0
 19 22  1  0  0  0  0
 20 19  2  0  0  0  0
 21 22  2  0  0  0  0
 23 21  1  0  0  0  0
 25 24  2  0  0  0  0
 26 25  1  0  0  0  0
 27 26  1  0  0  0  0
M  END
>  <MODEL>
8

>  <REMARK>
 VINA RESULT:      -6.1      3.140      5.327
  Name = 
  5 active torsions:
  status: ('A' for Active; 'I' for Inactive)
    1  A    between atoms: C_2  and  C_27
    2  A    between atoms: C_6  and  C_7
    3  A    between atoms: C_7  and  C_25
    4  A    between atoms: C_11  and  C_16
    5  A    between atoms: C_13  and  O_14
                            x       y       z     vdW  Elec       q    Type
                         _______ _______ _______ _____ _____    ______ ____

>  <TORSDO>
F 5

$$$$
=
 OpenBabel11032419513D

 27 30  0  0  1  0  0  0  0  0999 V2000
  188.4390  178.3570  141.5510 C   0  0  2  0  0  3  0  0  0  0  0  0
  192.9350  177.5030  140.1400 C   0  0  0  0  0  3  0  0  0  0  0  0
  187.4380  177.7310  140.7780 O   0  0  0  0  0  0  0  0  0  0  0  0
  190.5130  177.4060  142.7490 C   0  0  1  0  0  3  0  0  0  0  0  0
  188.6360  178.0310  140.1050 C   0  0  2  0  0  3  0  0  0  0  0  0
  192.5660  177.6650  141.4270 N   0  0  0  0  0  0  0  0  0  0  0  0
  190.8810  177.0260  140.2520 C   0  0  0  0  0  0  0  0  0  0  0  0
  191.8960  177.1120  139.3700 N   0  0  0  0  0  0  0  0  0  0  0  0
  189.4520  176.7610  139.8750 C   0  0  2  0  0  3  0  0  0  0  0  0
  191.2790  177.3730  141.4930 N   0  0  0  0  0  0  0  0  0  0  0  0
  188.9830  177.3300  142.5550 C   0  0  1  0  0  3  0  0  0  0  0  0
  188.2530  177.4810  143.8550 C   0  0  0  0  0  0  0  0  0  0  0  0
  187.0510  176.7540  144.0750 N   0  0  0  0  0  1  0  0  0  0  0  0
  188.6910  178.2530  144.7490 O   0  0  0  0  0  0  0  0  0  0  0  0
  189.2970  176.2490  138.4720 C   0  0  0  0  0  0  0  0  0  0  0  0
  190.1120  175.3920  138.0330 O   0  0  0  0  0  0  0  0  0  0  0  0
  189.4300  178.7370  136.8540 N   0  0  0  0  0  1  0  0  0  0  0  0
  188.1800  176.7430  137.6320 C   0  0  0  0  0  0  0  0  0  0  0  0
  187.1870  178.3100  136.1210 N   0  0  0  0  0  0  0  0  0  0  0  0
  188.2580  177.9270  136.8660 C   0  0  0  0  0  0  0  0  0  0  0  0
  185.9590  176.4110  136.8450 C   0  0  0  0  0  3  0  0  0  0  0  0
  186.0420  177.5800  136.0930 C   0  0  0  0  0  3  0  0  0  0  0  0
  187.0240  176.0230  137.5930 N   0  0  0  0  0  0  0  0  0  0  0  0
  190.9660  176.2890  143.6400 C   0  0  0  0  0  3  0  0  0  0  0  0
  191.6450  176.5360  144.7510 C   0  0  0  0  0  3  0  0  0  0  0  0
  192.0550  175.4860  145.5600 O   0  0  0  0  0  0  0  0  0  0  0  0
  192.0710  175.6420  146.9670 C   0  0  0  0  0  1  0  0  0  0  0  0
  1  3  1  6  0  0  0
  1 11  1  0  0  0  0
  2  6  2  0  0  0  0
  4 24  1  1  0  0  0
  5  3  1  1  0  0  0
  5  1  1  0  0  0  0
  6 10  1  0  0  0  0
  7 10  1  0  0  0  0
  8  2  1  0  0  0  0
  8  7  2  0  0  0  0
  9 15  1  6  0  0  0
  9  5  1  0  0  0  0
  9  7  1  0  0  0  0
 10  4  1  0  0  0  0
 11  4  1  0  0  0  0
 11 12  1  1  0  0  0
 12 13  1  0  0  0  0
 12 14  2  0  0  0  0
 16 15  2  0  0  0  0
 17 20  1  0  0  0  0
 18 15  1  0  0  0  0
 19 20  1  0  0  0  0
 20 18  2  0  0  0  0
 21 23  2  0  0  0  0
 22 19  2  0  0  0  0
 22 21  1  0  0  0  0
 23 18  1  0  0  0  0
 24 25  2  0  0  0  0
 25 26  1  0  0  0  0
 26 27  1  0  0  0  0
M  END
>  <MODEL>
9

>  <REMARK>
 VINA RESULT:      -6.0      3.177      7.367
  Name = 
  5 active torsions:
  status: ('A' for Active; 'I' for Inactive)
    1  A    between atoms: C_2  and  C_27
    2  A    between atoms: C_6  and  C_7
    3  A    between atoms: C_7  and  C_25
    4  A    between atoms: C_11  and  C_16
    5  A    between atoms: C_13  and  O_14
                            x       y       z     vdW  Elec       q    Type
                         _______ _______ _______ _____ _____    ______ ____

>  <TORSDO>
F 5

$$$$
