=
 OpenBabel11042412563D

 43 48  0  0  1  0  0  0  0  0999 V2000
  187.7690  178.1060  141.3930 C   0  0  0  0  0  3  0  0  0  0  0  0
  189.4530  177.8210  139.6050 C   0  0  1  0  0  3  0  0  0  0  0  0
  188.6430  178.3840  137.4050 F   0  0  0  0  0  0  0  0  0  0  0  0
  188.2650  177.8220  138.6080 C   0  0  2  0  0  3  0  0  0  0  0  0
  187.0950  178.5290  139.1250 N   0  0  0  0  0  0  0  0  0  0  0  0
  185.6230  179.2480  140.8290 N   0  0  0  0  0  2  0  0  0  0  0  0
  186.8190  178.6070  140.3910 C   0  0  0  0  0  0  0  0  0  0  0  0
  189.0020  177.7050  141.0570 C   0  0  0  0  0  0  0  0  0  0  0  0
  191.8940  173.4260  136.0130 C   0  0  0  0  0  2  0  0  0  0  0  0
  189.9670  175.8860  138.2370 C   0  0  0  0  0  2  0  0  0  0  0  0
  191.6110  177.4650  138.7760 N   0  0  0  0  0  2  0  0  0  0  0  0
  193.0260  173.2920  136.9410 N   0  0  2  0  0  0  0  0  0  0  0  0
  190.6560  173.9790  136.7380 C   0  0  0  0  0  2  0  0  0  0  0  0
  191.0490  174.8690  137.9140 C   0  0  1  0  0  3  0  0  0  0  0  0
  193.4890  174.6360  137.3420 C   0  0  0  0  0  2  0  0  0  0  0  0
  192.6570  176.5230  138.7010 N   0  0  0  0  0  2  0  0  0  0  0  0
  192.3380  175.6170  137.6010 C   0  0  2  0  0  3  0  0  0  0  0  0
  190.4640  176.8050  139.2700 N   0  0  1  0  0  0  0  0  0  0  0  0
  195.4910  170.9580  137.2940 S   0  0  0  0  0  0  0  0  0  0  0  0
  195.2460  170.4900  138.7020 O   0  0  0  0  0  0  0  0  0  0  0  0
  196.6250  170.2520  136.6020 O   0  0  0  0  0  0  0  0  0  0  0  0
  194.1290  172.6410  136.2310 C   0  0  2  0  0  3  0  0  0  0  0  0
  194.0240  171.1080  136.3230 C   0  0  0  0  0  2  0  0  0  0  0  0
  195.4150  172.7140  137.0670 C   0  0  2  0  0  3  0  0  0  0  0  0
  196.5590  173.2110  136.1970 C   0  0  0  0  0  2  0  0  0  0  0  0
  198.6320  174.5390  136.2440 C   0  0  0  0  0  2  0  0  0  0  0  0
  197.2620  174.3730  136.8690 C   0  0  0  0  0  3  0  0  0  0  0  0
  197.5050  175.4620  135.8420 C   0  0  0  0  0  2  0  0  0  0  0  0
  189.9390  177.3020  142.1400 C   0  0  0  0  0  0  0  0  0  0  0  0
  190.9600  175.5800  143.5270 C   0  0  0  0  0  3  0  0  0  0  0  0
  191.6060  177.8940  143.8150 C   0  0  0  0  0  3  0  0  0  0  0  0
  190.7210  178.2670  142.8010 C   0  0  0  0  0  3  0  0  0  0  0  0
  191.7230  176.5500  144.1810 C   0  0  0  0  0  3  0  0  0  0  0  0
  190.0770  175.9530  142.5100 C   0  0  0  0  0  3  0  0  0  0  0  0
  184.6630  179.6950  139.9090 N   0  0  0  0  0  2  0  0  0  0  0  0
  183.4670  179.0270  140.2090 N   0  0  0  0  0  2  0  0  0  0  0  0
  183.7180  178.2110  141.3850 C   0  0  0  0  0  2  0  0  0  0  0  0
  182.8790  178.7140  142.5460 C   0  0  0  0  0  2  0  0  0  0  0  0
  183.7070  178.7320  143.8200 C   0  0  2  0  0  3  0  0  0  0  0  0
  184.0490  180.0460  144.1420 O   0  0  0  0  0  1  0  0  0  0  0  0
  184.8690  177.9790  143.6310 O   0  0  0  0  0  0  0  0  0  0  0  0
  186.7360  177.3890  144.9780 C   0  0  0  0  0  1  0  0  0  0  0  0
  185.7780  178.4860  144.5620 C   0  0  0  0  0  2  0  0  0  0  0  0
  2  8  1  1  0  0  0
  4  3  1  6  0  0  0
  4  5  1  0  0  0  0
  4  2  1  0  0  0  0
  5  7  2  0  0  0  0
  7  6  1  0  0  0  0
  7  1  1  0  0  0  0
  8  1  2  0  0  0  0
  8 29  1  0  0  0  0
  9 13  1  0  0  0  0
 11 18  1  0  0  0  0
 12  9  1  6  0  0  0
 12 15  1  0  0  0  0
 14 13  1  6  0  0  0
 14 10  1  0  0  0  0
 16 11  1  0  0  0  0
 17 15  1  1  0  0  0
 17 14  1  0  0  0  0
 17 16  1  0  0  0  0
 18 10  1  6  0  0  0
 18  2  1  0  0  0  0
 19 20  2  0  0  0  0
 21 19  2  0  0  0  0
 22 23  1  1  0  0  0
 22 12  1  0  0  0  0
 22 24  1  0  0  0  0
 23 19  1  0  0  0  0
 24 25  1  6  0  0  0
 24 19  1  0  0  0  0
 25 27  1  0  0  0  0
 26 27  1  0  0  0  0
 28 26  1  0  0  0  0
 28 27  1  0  0  0  0
 29 34  2  0  0  0  0
 29 32  1  0  0  0  0
 30 33  2  0  0  0  0
 31 33  1  0  0  0  0
 32 31  2  0  0  0  0
 34 30  1  0  0  0  0
 35 36  1  0  0  0  0
 35  6  1  0  0  0  0
 36 37  1  0  0  0  0
 37 38  1  0  0  0  0
 38 39  1  0  0  0  0
 39 40  1  6  0  0  0
 41 39  1  0  0  0  0
 41 43  1  0  0  0  0
 43 42  1  0  0  0  0
M  END
>  <MODEL>
1

>  <REMARK>
 VINA RESULT:      -7.8      0.000      0.000
  Name = 
  12 active torsions:
  status: ('A' for Active; 'I' for Inactive)
    1  A    between atoms: C_3  and  C_29
    2  A    between atoms: C_5  and  N_43
    3  A    between atoms: N_10  and  C_23
    4  A    between atoms: N_17  and  N_26
    5  A    between atoms: C_22  and  C_24
    6  A    between atoms: C_22  and  C_39
    7  A    between atoms: C_24  and  O_38
    8  A    between atoms: N_26  and  N_34
    9  A    between atoms: C_28  and  C_36
   10  A    between atoms: C_31  and  O_38
   11  A    between atoms: N_34  and  C_39
   12  A    between atoms: C_35  and  C_36
                            x       y       z     vdW  Elec       q    Type
                         _______ _______ _______ _____ _____    ______ ____

>  <TORSDO>
F 12

$$$$
=
 OpenBabel11042412563D

 43 48  0  0  1  0  0  0  0  0999 V2000
  187.7250  178.1210  141.4560 C   0  0  0  0  0  3  0  0  0  0  0  0
  189.4100  177.8620  139.6650 C   0  0  1  0  0  3  0  0  0  0  0  0
  188.5900  178.4200  137.4680 F   0  0  0  0  0  0  0  0  0  0  0  0
  188.2210  177.8500  138.6700 C   0  0  2  0  0  3  0  0  0  0  0  0
  187.0420  178.5400  139.1900 N   0  0  0  0  0  0  0  0  0  0  0  0
  185.5630  179.2370  140.8980 N   0  0  0  0  0  2  0  0  0  0  0  0
  186.7670  178.6120  140.4570 C   0  0  0  0  0  0  0  0  0  0  0  0
  188.9620  177.7360  141.1170 C   0  0  0  0  0  0  0  0  0  0  0  0
  192.0030  173.6390  135.9740 C   0  0  0  0  0  2  0  0  0  0  0  0
  189.9810  175.9940  138.2280 C   0  0  0  0  0  2  0  0  0  0  0  0
  191.6020  177.5390  138.9170 N   0  0  0  0  0  2  0  0  0  0  0  0
  193.0910  173.4550  136.9450 N   0  0  2  0  0  0  0  0  0  0  0  0
  190.7350  174.1600  136.6700 C   0  0  0  0  0  2  0  0  0  0  0  0
  191.0760  174.9900  137.9050 C   0  0  1  0  0  3  0  0  0  0  0  0
  193.5390  174.7760  137.4310 C   0  0  0  0  0  2  0  0  0  0  0  0
  192.6490  176.5970  138.8430 N   0  0  0  0  0  2  0  0  0  0  0  0
  192.3780  175.7480  137.6870 C   0  0  2  0  0  3  0  0  0  0  0  0
  190.4330  176.8590  139.3260 N   0  0  1  0  0  0  0  0  0  0  0  0
  195.5400  171.1030  137.2960 S   0  0  0  0  0  0  0  0  0  0  0  0
  195.2350  170.5720  138.6690 O   0  0  0  0  0  0  0  0  0  0  0  0
  196.7020  170.4280  136.6220 O   0  0  0  0  0  0  0  0  0  0  0  0
  194.2240  172.8350  136.2530 C   0  0  2  0  0  3  0  0  0  0  0  0
  194.1160  171.3000  136.2710 C   0  0  0  0  0  2  0  0  0  0  0  0
  195.4730  172.8680  137.1460 C   0  0  2  0  0  3  0  0  0  0  0  0
  196.6530  173.4020  136.3500 C   0  0  0  0  0  2  0  0  0  0  0  0
  197.3080  174.3700  138.5180 C   0  0  0  0  0  2  0  0  0  0  0  0
  197.2310  174.6290  137.0280 C   0  0  0  0  0  3  0  0  0  0  0  0
  198.5530  174.2600  137.6700 C   0  0  0  0  0  2  0  0  0  0  0  0
  189.9060  177.3420  142.1980 C   0  0  0  0  0  0  0  0  0  0  0  0
  191.5550  177.9340  143.8910 C   0  0  0  0  0  3  0  0  0  0  0  0
  190.9170  175.6180  143.5910 C   0  0  0  0  0  3  0  0  0  0  0  0
  190.0360  175.9930  142.5740 C   0  0  0  0  0  3  0  0  0  0  0  0
  191.6790  176.5890  144.2470 C   0  0  0  0  0  3  0  0  0  0  0  0
  190.6700  178.3080  142.8760 C   0  0  0  0  0  3  0  0  0  0  0  0
  184.5970  179.6740  139.9800 N   0  0  0  0  0  2  0  0  0  0  0  0
  183.4110  178.9860  140.2770 N   0  0  0  0  0  2  0  0  0  0  0  0
  183.5310  178.5000  141.6410 C   0  0  0  0  0  2  0  0  0  0  0  0
  182.3260  178.9450  142.4510 C   0  0  0  0  0  2  0  0  0  0  0  0
  181.0490  178.7120  141.6600 C   0  0  2  0  0  3  0  0  0  0  0  0
  180.5090  179.9370  141.2640 O   0  0  0  0  0  1  0  0  0  0  0  0
  180.1260  178.0300  142.4560 O   0  0  0  0  0  0  0  0  0  0  0  0
  179.1030  179.0680  144.3340 C   0  0  0  0  0  1  0  0  0  0  0  0
  179.1870  178.9970  142.8230 C   0  0  0  0  0  2  0  0  0  0  0  0
  2  8  1  1  0  0  0
  4  3  1  6  0  0  0
  4  5  1  0  0  0  0
  4  2  1  0  0  0  0
  5  7  2  0  0  0  0
  7  6  1  0  0  0  0
  7  1  1  0  0  0  0
  8  1  2  0  0  0  0
  8 29  1  0  0  0  0
  9 13  1  0  0  0  0
 11 18  1  0  0  0  0
 12  9  1  6  0  0  0
 12 15  1  0  0  0  0
 14 13  1  6  0  0  0
 14 10  1  0  0  0  0
 16 11  1  0  0  0  0
 17 15  1  1  0  0  0
 17 14  1  0  0  0  0
 17 16  1  0  0  0  0
 18 10  1  6  0  0  0
 18  2  1  0  0  0  0
 19 20  2  0  0  0  0
 21 19  2  0  0  0  0
 22 23  1  1  0  0  0
 22 12  1  0  0  0  0
 22 24  1  0  0  0  0
 23 19  1  0  0  0  0
 24 25  1  6  0  0  0
 24 19  1  0  0  0  0
 25 27  1  0  0  0  0
 27 28  1  0  0  0  0
 27 26  1  0  0  0  0
 28 26  1  0  0  0  0
 29 32  2  0  0  0  0
 29 34  1  0  0  0  0
 30 33  1  0  0  0  0
 31 33  2  0  0  0  0
 32 31  1  0  0  0  0
 34 30  2  0  0  0  0
 35 36  1  0  0  0  0
 35  6  1  0  0  0  0
 36 37  1  0  0  0  0
 37 38  1  0  0  0  0
 39 40  1  1  0  0  0
 39 38  1  0  0  0  0
 39 41  1  0  0  0  0
 41 43  1  0  0  0  0
 43 42  1  0  0  0  0
M  END
>  <MODEL>
2

>  <REMARK>
 VINA RESULT:      -7.1      1.404      2.169
  Name = 
  12 active torsions:
  status: ('A' for Active; 'I' for Inactive)
    1  A    between atoms: C_3  and  C_29
    2  A    between atoms: C_5  and  N_43
    3  A    between atoms: N_10  and  C_23
    4  A    between atoms: N_17  and  N_26
    5  A    between atoms: C_22  and  C_24
    6  A    between atoms: C_22  and  C_39
    7  A    between atoms: C_24  and  O_38
    8  A    between atoms: N_26  and  N_34
    9  A    between atoms: C_28  and  C_36
   10  A    between atoms: C_31  and  O_38
   11  A    between atoms: N_34  and  C_39
   12  A    between atoms: C_35  and  C_36
                            x       y       z     vdW  Elec       q    Type
                         _______ _______ _______ _____ _____    ______ ____

>  <TORSDO>
F 12

$$$$
=
 OpenBabel11042412563D

 43 48  0  0  1  0  0  0  0  0999 V2000
  187.6930  178.1390  141.5550 C   0  0  0  0  0  3  0  0  0  0  0  0
  189.3490  177.8890  139.7370 C   0  0  1  0  0  3  0  0  0  0  0  0
  188.5040  178.4880  137.5600 F   0  0  0  0  0  0  0  0  0  0  0  0
  188.1460  177.9040  138.7590 C   0  0  2  0  0  3  0  0  0  0  0  0
  186.9820  178.6000  139.3060 N   0  0  0  0  0  0  0  0  0  0  0  0
  185.5360  179.2860  141.0450 N   0  0  0  0  0  2  0  0  0  0  0  0
  186.7260  178.6550  140.5770 C   0  0  0  0  0  0  0  0  0  0  0  0
  188.9210  177.7450  141.1930 C   0  0  0  0  0  0  0  0  0  0  0  0
  191.8630  173.7210  135.9310 C   0  0  0  0  0  2  0  0  0  0  0  0
  189.8870  176.0480  138.2510 C   0  0  0  0  0  2  0  0  0  0  0  0
  191.5330  177.5530  138.9700 N   0  0  0  0  0  2  0  0  0  0  0  0
  192.9540  173.4980  136.8910 N   0  0  2  0  0  0  0  0  0  0  0  0
  190.6060  174.2430  136.6450 C   0  0  0  0  0  2  0  0  0  0  0  0
  190.9650  175.0380  137.8980 C   0  0  1  0  0  3  0  0  0  0  0  0
  193.4220  174.8000  137.4070 C   0  0  0  0  0  2  0  0  0  0  0  0
  192.5660  176.5990  138.8670 N   0  0  0  0  0  2  0  0  0  0  0  0
  192.2770  175.7820  137.6920 C   0  0  2  0  0  3  0  0  0  0  0  0
  190.3570  176.8800  139.3680 N   0  0  1  0  0  0  0  0  0  0  0  0
  195.5140  171.2700  137.2540 S   0  0  0  0  0  0  0  0  0  0  0  0
  195.3040  170.8170  138.6710 O   0  0  0  0  0  0  0  0  0  0  0  0
  196.6680  170.5990  136.5600 O   0  0  0  0  0  0  0  0  0  0  0  0
  194.0750  172.8790  136.1780 C   0  0  2  0  0  3  0  0  0  0  0  0
  194.0320  171.3460  136.2970 C   0  0  0  0  0  2  0  0  0  0  0  0
  195.3660  173.0180  136.9980 C   0  0  2  0  0  3  0  0  0  0  0  0
  196.4790  173.5450  136.1070 C   0  0  0  0  0  2  0  0  0  0  0  0
  197.5840  174.2860  138.1810 C   0  0  0  0  0  2  0  0  0  0  0  0
  197.1850  174.7050  136.7810 C   0  0  0  0  0  3  0  0  0  0  0  0
  198.6160  174.3050  137.0790 C   0  0  0  0  0  2  0  0  0  0  0  0
  189.8760  177.3260  142.2540 C   0  0  0  0  0  0  0  0  0  0  0  0
  190.9410  175.5790  143.5760 C   0  0  0  0  0  3  0  0  0  0  0  0
  191.5470  177.8940  143.9330 C   0  0  0  0  0  3  0  0  0  0  0  0
  190.6460  178.2830  142.9390 C   0  0  0  0  0  3  0  0  0  0  0  0
  191.6920  176.5420  144.2540 C   0  0  0  0  0  3  0  0  0  0  0  0
  190.0420  175.9680  142.5790 C   0  0  0  0  0  3  0  0  0  0  0  0
  184.5610  179.7480  140.1480 N   0  0  0  0  0  2  0  0  0  0  0  0
  183.4600  178.8860  140.2620 N   0  0  0  0  0  2  0  0  0  0  0  0
  182.8820  178.7550  138.9360 C   0  0  0  0  0  2  0  0  0  0  0  0
  183.7870  177.9030  138.0640 C   0  0  0  0  0  2  0  0  0  0  0  0
  183.0490  177.4710  136.8080 C   0  0  2  0  0  3  0  0  0  0  0  0
  182.2200  176.3860  137.0980 O   0  0  0  0  0  1  0  0  0  0  0  0
  183.9740  177.1040  135.8270 O   0  0  0  0  0  0  0  0  0  0  0  0
  186.3230  176.7880  135.6500 C   0  0  0  0  0  1  0  0  0  0  0  0
  185.1000  176.6830  136.5380 C   0  0  0  0  0  2  0  0  0  0  0  0
  2  8  1  1  0  0  0
  4  3  1  6  0  0  0
  4  5  1  0  0  0  0
  4  2  1  0  0  0  0
  5  7  2  0  0  0  0
  7  6  1  0  0  0  0
  7  1  1  0  0  0  0
  8  1  2  0  0  0  0
  8 29  1  0  0  0  0
  9 13  1  0  0  0  0
 11 18  1  0  0  0  0
 12  9  1  6  0  0  0
 12 15  1  0  0  0  0
 14 13  1  6  0  0  0
 14 10  1  0  0  0  0
 16 11  1  0  0  0  0
 17 15  1  1  0  0  0
 17 14  1  0  0  0  0
 17 16  1  0  0  0  0
 18 10  1  6  0  0  0
 18  2  1  0  0  0  0
 19 20  2  0  0  0  0
 21 19  2  0  0  0  0
 22 23  1  1  0  0  0
 22 12  1  0  0  0  0
 22 24  1  0  0  0  0
 23 19  1  0  0  0  0
 24 25  1  6  0  0  0
 24 19  1  0  0  0  0
 25 27  1  0  0  0  0
 27 28  1  0  0  0  0
 27 26  1  0  0  0  0
 28 26  1  0  0  0  0
 29 34  2  0  0  0  0
 29 32  1  0  0  0  0
 30 33  2  0  0  0  0
 31 33  1  0  0  0  0
 32 31  2  0  0  0  0
 34 30  1  0  0  0  0
 35 36  1  0  0  0  0
 35  6  1  0  0  0  0
 37 36  1  0  0  0  0
 38 37  1  0  0  0  0
 39 40  1  1  0  0  0
 39 38  1  0  0  0  0
 41 43  1  0  0  0  0
 41 39  1  0  0  0  0
 42 43  1  0  0  0  0
M  END
>  <MODEL>
3

>  <REMARK>
 VINA RESULT:      -6.8      2.093      2.953
  Name = 
  12 active torsions:
  status: ('A' for Active; 'I' for Inactive)
    1  A    between atoms: C_3  and  C_29
    2  A    between atoms: C_5  and  N_43
    3  A    between atoms: N_10  and  C_23
    4  A    between atoms: N_17  and  N_26
    5  A    between atoms: C_22  and  C_24
    6  A    between atoms: C_22  and  C_39
    7  A    between atoms: C_24  and  O_38
    8  A    between atoms: N_26  and  N_34
    9  A    between atoms: C_28  and  C_36
   10  A    between atoms: C_31  and  O_38
   11  A    between atoms: N_34  and  C_39
   12  A    between atoms: C_35  and  C_36
                            x       y       z     vdW  Elec       q    Type
                         _______ _______ _______ _____ _____    ______ ____

>  <TORSDO>
F 12

$$$$
=
 OpenBabel11042412563D

 43 48  0  0  1  0  0  0  0  0999 V2000
  191.1340  175.0920  135.9390 C   0  0  0  0  0  3  0  0  0  0  0  0
  191.1060  176.6310  137.8730 C   0  0  1  0  0  3  0  0  0  0  0  0
  193.2930  177.1280  138.7560 F   0  0  0  0  0  0  0  0  0  0  0  0
  192.5370  176.1230  138.1860 C   0  0  2  0  0  3  0  0  0  0  0  0
  193.2260  175.6130  137.0020 N   0  0  0  0  0  0  0  0  0  0  0  0
  193.3350  174.5290  134.9040 N   0  0  0  0  0  2  0  0  0  0  0  0
  192.6020  175.0760  135.9990 C   0  0  0  0  0  0  0  0  0  0  0  0
  190.4010  175.7880  136.8170 C   0  0  0  0  0  0  0  0  0  0  0  0
  190.3130  177.5050  143.9380 C   0  0  0  0  0  2  0  0  0  0  0  0
  191.0970  176.5870  140.2980 C   0  0  0  0  0  2  0  0  0  0  0  0
  189.7380  178.0760  139.1040 N   0  0  0  0  0  2  0  0  0  0  0  0
  188.8550  177.4720  143.7560 N   0  0  2  0  0  0  0  0  0  0  0  0
  191.0210  176.7320  142.8150 C   0  0  0  0  0  2  0  0  0  0  0  0
  190.2110  176.7600  141.5210 C   0  0  1  0  0  3  0  0  0  0  0  0
  188.4940  178.2730  142.5690 C   0  0  0  0  0  2  0  0  0  0  0  0
  188.7590  178.1240  140.1170 N   0  0  0  0  0  2  0  0  0  0  0  0
  189.4640  178.0810  141.3950 C   0  0  2  0  0  3  0  0  0  0  0  0
  190.2850  176.7740  139.0870 N   0  0  1  0  0  0  0  0  0  0  0  0
  188.5160  177.2130  147.1420 S   0  0  0  0  0  0  0  0  0  0  0  0
  189.3630  176.0050  147.4260 O   0  0  0  0  0  0  0  0  0  0  0  0
  187.9060  177.8360  148.3680 O   0  0  0  0  0  0  0  0  0  0  0  0
  188.2300  178.1050  144.9190 C   0  0  2  0  0  3  0  0  0  0  0  0
  189.2610  178.3670  146.0320 C   0  0  0  0  0  2  0  0  0  0  0  0
  187.4490  177.0640  145.7350 C   0  0  2  0  0  3  0  0  0  0  0  0
  186.0570  177.5950  146.0360 C   0  0  0  0  0  2  0  0  0  0  0  0
  184.8480  178.2540  143.9920 C   0  0  0  0  0  2  0  0  0  0  0  0
  185.7290  178.7570  145.1180 C   0  0  0  0  0  3  0  0  0  0  0  0
  184.2340  179.0040  145.1510 C   0  0  0  0  0  2  0  0  0  0  0  0
  188.9250  175.8340  136.6330 C   0  0  0  0  0  0  0  0  0  0  0  0
  186.9260  176.9550  135.8060 C   0  0  0  0  0  3  0  0  0  0  0  0
  186.7300  174.8170  136.9240 C   0  0  0  0  0  3  0  0  0  0  0  0
  188.1160  174.7820  137.0980 C   0  0  0  0  0  3  0  0  0  0  0  0
  186.1350  175.9060  136.2800 C   0  0  0  0  0  3  0  0  0  0  0  0
  188.3130  176.9160  135.9770 C   0  0  0  0  0  3  0  0  0  0  0  0
  194.7350  174.4460  134.9400 N   0  0  0  0  0  2  0  0  0  0  0  0
  195.0660  173.0880  134.8200 N   0  0  0  0  0  2  0  0  0  0  0  0
  195.3050  172.5870  136.1620 C   0  0  0  0  0  2  0  0  0  0  0  0
  196.5700  173.2090  136.7240 C   0  0  0  0  0  2  0  0  0  0  0  0
  196.4270  173.4260  138.2220 C   0  0  2  0  0  3  0  0  0  0  0  0
  195.2700  172.7960  138.6810 O   0  0  0  0  0  1  0  0  0  0  0  0
  196.3510  174.7950  138.4890 O   0  0  0  0  0  0  0  0  0  0  0  0
  197.3520  175.2540  140.5950 C   0  0  0  0  0  1  0  0  0  0  0  0
  196.0840  174.8780  139.8580 C   0  0  0  0  0  2  0  0  0  0  0  0
  1  7  1  0  0  0  0
  1  8  2  0  0  0  0
  2  8  1  6  0  0  0
  2  4  1  0  0  0  0
  2 18  1  0  0  0  0
  4  3  1  6  0  0  0
  5  4  1  0  0  0  0
  6 35  1  0  0  0  0
  6  7  1  0  0  0  0
  7  5  2  0  0  0  0
 11 16  1  0  0  0  0
 12 15  1  6  0  0  0
 12  9  1  0  0  0  0
 12 22  1  0  0  0  0
 13  9  1  0  0  0  0
 14 10  1  6  0  0  0
 14 13  1  0  0  0  0
 16 17  1  0  0  0  0
 17 14  1  0  0  0  0
 17 15  1  1  0  0  0
 18 11  1  0  0  0  0
 18 10  1  1  0  0  0
 19 20  2  0  0  0  0
 19 21  2  0  0  0  0
 22 24  1  0  0  0  0
 22 23  1  1  0  0  0
 23 19  1  0  0  0  0
 24 25  1  1  0  0  0
 24 19  1  0  0  0  0
 26 27  1  0  0  0  0
 26 28  1  0  0  0  0
 27 28  1  0  0  0  0
 27 25  1  0  0  0  0
 29  8  1  0  0  0  0
 29 32  1  0  0  0  0
 30 34  1  0  0  0  0
 30 33  2  0  0  0  0
 31 32  2  0  0  0  0
 33 31  1  0  0  0  0
 34 29  2  0  0  0  0
 36 35  1  0  0  0  0
 36 37  1  0  0  0  0
 37 38  1  0  0  0  0
 38 39  1  0  0  0  0
 39 41  1  0  0  0  0
 39 40  1  6  0  0  0
 41 43  1  0  0  0  0
 43 42  1  0  0  0  0
M  END
>  <MODEL>
4

>  <REMARK>
 VINA RESULT:      -6.6      3.351     10.585
  Name = 
  12 active torsions:
  status: ('A' for Active; 'I' for Inactive)
    1  A    between atoms: C_3  and  C_29
    2  A    between atoms: C_5  and  N_43
    3  A    between atoms: N_10  and  C_23
    4  A    between atoms: N_17  and  N_26
    5  A    between atoms: C_22  and  C_24
    6  A    between atoms: C_22  and  C_39
    7  A    between atoms: C_24  and  O_38
    8  A    between atoms: N_26  and  N_34
    9  A    between atoms: C_28  and  C_36
   10  A    between atoms: C_31  and  O_38
   11  A    between atoms: N_34  and  C_39
   12  A    between atoms: C_35  and  C_36
                            x       y       z     vdW  Elec       q    Type
                         _______ _______ _______ _____ _____    ______ ____

>  <TORSDO>
F 12

$$$$
=
 OpenBabel11042412563D

 43 48  0  0  1  0  0  0  0  0999 V2000
  184.5610  178.2600  143.7190 C   0  0  0  0  0  3  0  0  0  0  0  0
  186.0400  178.7870  141.8100 C   0  0  1  0  0  3  0  0  0  0  0  0
  184.8780  179.6680  139.8910 F   0  0  0  0  0  0  0  0  0  0  0  0
  184.7650  178.7650  140.9290 C   0  0  2  0  0  3  0  0  0  0  0  0
  183.5490  179.0540  141.6880 N   0  0  0  0  0  0  0  0  0  0  0  0
  182.1810  179.0040  143.6150 N   0  0  0  0  0  2  0  0  0  0  0  0
  183.4180  178.7640  142.9470 C   0  0  0  0  0  0  0  0  0  0  0  0
  185.7990  178.2310  143.2090 C   0  0  0  0  0  0  0  0  0  0  0  0
  189.3390  177.0440  136.8850 C   0  0  0  0  0  2  0  0  0  0  0  0
  186.9130  177.8940  139.7310 C   0  0  0  0  0  2  0  0  0  0  0  0
  188.3090  178.9730  141.2720 N   0  0  0  0  0  2  0  0  0  0  0  0
  190.3550  176.4570  137.7690 N   0  0  2  0  0  0  0  0  0  0  0  0
  187.9720  177.0980  137.5850 C   0  0  0  0  0  2  0  0  0  0  0  0
  188.1240  177.2300  139.0990 C   0  0  1  0  0  3  0  0  0  0  0  0
  190.6270  177.3870  138.8840 C   0  0  0  0  0  2  0  0  0  0  0  0
  189.4470  178.2380  140.8800 N   0  0  0  0  0  2  0  0  0  0  0  0
  189.3590  178.0550  139.4340 C   0  0  2  0  0  3  0  0  0  0  0  0
  187.1830  178.1280  141.1560 N   0  0  1  0  0  0  0  0  0  0  0  0
  192.0480  174.3270  135.7090 S   0  0  0  0  0  0  0  0  0  0  0  0
  191.0700  173.1900  135.6020 O   0  0  0  0  0  0  0  0  0  0  0  0
  193.3020  174.1340  134.9010 O   0  0  0  0  0  0  0  0  0  0  0  0
  191.5980  176.3090  137.0080 C   0  0  2  0  0  3  0  0  0  0  0  0
  191.3130  175.9240  135.5450 C   0  0  0  0  0  2  0  0  0  0  0  0
  192.2700  174.9700  137.3460 C   0  0  2  0  0  3  0  0  0  0  0  0
  193.7400  175.2030  137.6560 C   0  0  0  0  0  2  0  0  0  0  0  0
  195.7680  173.8160  137.4770 C   0  0  0  0  0  2  0  0  0  0  0  0
  194.3930  173.9120  138.1070 C   0  0  0  0  0  3  0  0  0  0  0  0
  195.6280  174.2420  138.9200 C   0  0  0  0  0  2  0  0  0  0  0  0
  186.9200  177.7970  144.0850 C   0  0  0  0  0  0  0  0  0  0  0  0
  189.0230  176.6100  144.4050 C   0  0  0  0  0  3  0  0  0  0  0  0
  188.0100  177.7810  146.2640 C   0  0  0  0  0  3  0  0  0  0  0  0
  186.9570  178.1810  145.4380 C   0  0  0  0  0  3  0  0  0  0  0  0
  189.0410  176.9920  145.7480 C   0  0  0  0  0  3  0  0  0  0  0  0
  187.9710  177.0140  143.5780 C   0  0  0  0  0  3  0  0  0  0  0  0
  181.0480  179.4360  142.9090 N   0  0  0  0  0  2  0  0  0  0  0  0
  180.0980  178.4080  142.9920 N   0  0  0  0  0  2  0  0  0  0  0  0
  179.4130  178.3560  141.7120 C   0  0  0  0  0  2  0  0  0  0  0  0
  179.7730  177.0710  140.9900 C   0  0  0  0  0  2  0  0  0  0  0  0
  180.6490  177.3750  139.7850 C   0  0  2  0  0  3  0  0  0  0  0  0
  181.8660  176.7030  139.9040 O   0  0  0  0  0  1  0  0  0  0  0  0
  180.8810  178.7510  139.7150 O   0  0  0  0  0  0  0  0  0  0  0  0
  181.9840  180.3890  138.3920 C   0  0  0  0  0  1  0  0  0  0  0  0
  181.5790  178.9350  138.5190 C   0  0  0  0  0  2  0  0  0  0  0  0
  2  8  1  1  0  0  0
  4  3  1  6  0  0  0
  4  5  1  0  0  0  0
  4  2  1  0  0  0  0
  5  7  2  0  0  0  0
  7  6  1  0  0  0  0
  7  1  1  0  0  0  0
  8  1  2  0  0  0  0
  8 29  1  0  0  0  0
  9 13  1  0  0  0  0
 12  9  1  6  0  0  0
 12 15  1  0  0  0  0
 14 13  1  6  0  0  0
 14 17  1  0  0  0  0
 14 10  1  0  0  0  0
 16 11  1  0  0  0  0
 17 15  1  1  0  0  0
 17 16  1  0  0  0  0
 18 10  1  6  0  0  0
 18 11  1  0  0  0  0
 18  2  1  0  0  0  0
 19 24  1  0  0  0  0
 20 19  2  0  0  0  0
 21 19  2  0  0  0  0
 22 23  1  6  0  0  0
 22 24  1  0  0  0  0
 22 12  1  0  0  0  0
 23 19  1  0  0  0  0
 24 25  1  6  0  0  0
 25 27  1  0  0  0  0
 26 27  1  0  0  0  0
 26 28  1  0  0  0  0
 27 28  1  0  0  0  0
 29 32  1  0  0  0  0
 30 33  2  0  0  0  0
 32 31  2  0  0  0  0
 33 31  1  0  0  0  0
 34 29  2  0  0  0  0
 34 30  1  0  0  0  0
 35 36  1  0  0  0  0
 35  6  1  0  0  0  0
 37 36  1  0  0  0  0
 38 37  1  0  0  0  0
 39 40  1  1  0  0  0
 39 38  1  0  0  0  0
 41 39  1  0  0  0  0
 42 43  1  0  0  0  0
 43 41  1  0  0  0  0
M  END
>  <MODEL>
5

>  <REMARK>
 VINA RESULT:      -6.6      2.882      4.576
  Name = 
  12 active torsions:
  status: ('A' for Active; 'I' for Inactive)
    1  A    between atoms: C_3  and  C_29
    2  A    between atoms: C_5  and  N_43
    3  A    between atoms: N_10  and  C_23
    4  A    between atoms: N_17  and  N_26
    5  A    between atoms: C_22  and  C_24
    6  A    between atoms: C_22  and  C_39
    7  A    between atoms: C_24  and  O_38
    8  A    between atoms: N_26  and  N_34
    9  A    between atoms: C_28  and  C_36
   10  A    between atoms: C_31  and  O_38
   11  A    between atoms: N_34  and  C_39
   12  A    between atoms: C_35  and  C_36
                            x       y       z     vdW  Elec       q    Type
                         _______ _______ _______ _____ _____    ______ ____

>  <TORSDO>
F 12

$$$$
=
 OpenBabel11042412563D

 43 48  0  0  1  0  0  0  0  0999 V2000
  186.0880  178.6210  139.4750 C   0  0  0  0  0  3  0  0  0  0  0  0
  188.1380  177.2460  139.3330 C   0  0  1  0  0  3  0  0  0  0  0  0
  189.3500  177.0860  141.4110 F   0  0  0  0  0  0  0  0  0  0  0  0
  188.5910  177.9450  140.6410 C   0  0  2  0  0  3  0  0  0  0  0  0
  187.4680  178.4410  141.4350 N   0  0  0  0  0  0  0  0  0  0  0  0
  185.3110  179.3620  141.7280 N   0  0  0  0  0  2  0  0  0  0  0  0
  186.3430  178.8190  140.9070 C   0  0  0  0  0  0  0  0  0  0  0  0
  186.9210  177.9130  138.7010 C   0  0  0  0  0  0  0  0  0  0  0  0
  193.8820  175.6700  137.6910 C   0  0  0  0  0  2  0  0  0  0  0  0
  190.5260  176.9320  139.0530 C   0  0  0  0  0  2  0  0  0  0  0  0
  188.9900  175.9550  137.5780 N   0  0  0  0  0  2  0  0  0  0  0  0
  193.5870  176.0360  136.2980 N   0  0  2  0  0  0  0  0  0  0  0  0
  192.9670  176.4350  138.6600 C   0  0  0  0  0  2  0  0  0  0  0  0
  191.6250  176.7700  138.0150 C   0  0  1  0  0  3  0  0  0  0  0  0
  192.2570  175.5130  135.9280 C   0  0  0  0  0  2  0  0  0  0  0  0
  189.8960  175.9640  136.4980 N   0  0  0  0  0  2  0  0  0  0  0  0
  191.2160  175.6690  137.0460 C   0  0  2  0  0  3  0  0  0  0  0  0
  189.2380  177.1010  138.3660 N   0  0  1  0  0  0  0  0  0  0  0  0
  194.9100  172.9950  135.4900 S   0  0  0  0  0  0  0  0  0  0  0  0
  194.1110  172.0860  136.3820 O   0  0  0  0  0  0  0  0  0  0  0  0
  195.8980  172.2780  134.6120 O   0  0  0  0  0  0  0  0  0  0  0  0
  194.5720  175.3820  135.4320 C   0  0  2  0  0  3  0  0  0  0  0  0
  193.9420  174.2130  134.6550 C   0  0  0  0  0  2  0  0  0  0  0  0
  195.4930  174.4780  136.2640 C   0  0  2  0  0  3  0  0  0  0  0  0
  196.9430  174.7600  135.9030 C   0  0  0  0  0  2  0  0  0  0  0  0
  197.8400  173.5470  137.8500 C   0  0  0  0  0  2  0  0  0  0  0  0
  197.7800  174.8940  137.1590 C   0  0  0  0  0  3  0  0  0  0  0  0
  199.0130  174.0240  137.0250 C   0  0  0  0  0  2  0  0  0  0  0  0
  186.5450  177.6750  137.2810 C   0  0  0  0  0  0  0  0  0  0  0  0
  185.2330  176.4900  135.6070 C   0  0  0  0  0  3  0  0  0  0  0  0
  186.7830  178.2150  134.9180 C   0  0  0  0  0  3  0  0  0  0  0  0
  187.1360  178.4300  136.2520 C   0  0  0  0  0  3  0  0  0  0  0  0
  185.8340  177.2420  134.5950 C   0  0  0  0  0  3  0  0  0  0  0  0
  185.5830  176.7090  136.9420 C   0  0  0  0  0  3  0  0  0  0  0  0
  185.5270  179.6160  143.0900 N   0  0  0  0  0  2  0  0  0  0  0  0
  184.9570  178.5490  143.8000 N   0  0  0  0  0  2  0  0  0  0  0  0
  185.5610  178.5440  145.1210 C   0  0  0  0  0  2  0  0  0  0  0  0
  186.9510  177.9390  145.0470 C   0  0  0  0  0  2  0  0  0  0  0  0
  187.4030  177.4960  146.4290 C   0  0  2  0  0  3  0  0  0  0  0  0
  186.9540  178.4050  147.3880 O   0  0  0  0  0  1  0  0  0  0  0  0
  188.7980  177.4310  146.4640 O   0  0  0  0  0  0  0  0  0  0  0  0
  190.6310  176.9150  145.0420 C   0  0  0  0  0  1  0  0  0  0  0  0
  189.1860  177.3620  145.1240 C   0  0  0  0  0  2  0  0  0  0  0  0
  1  7  1  0  0  0  0
  2  8  1  6  0  0  0
  2  4  1  0  0  0  0
  4  3  1  1  0  0  0
  4  5  1  0  0  0  0
  6 35  1  0  0  0  0
  7  5  2  0  0  0  0
  7  6  1  0  0  0  0
  8  1  2  0  0  0  0
  9 13  1  0  0  0  0
 11 18  1  0  0  0  0
 12 15  1  6  0  0  0
 12  9  1  0  0  0  0
 14 13  1  1  0  0  0
 14 10  1  0  0  0  0
 16 17  1  0  0  0  0
 16 11  1  0  0  0  0
 17 15  1  6  0  0  0
 17 14  1  0  0  0  0
 18 10  1  1  0  0  0
 18  2  1  0  0  0  0
 19 24  1  0  0  0  0
 19 20  2  0  0  0  0
 21 19  2  0  0  0  0
 22 23  1  6  0  0  0
 22 24  1  0  0  0  0
 22 12  1  0  0  0  0
 23 19  1  0  0  0  0
 24 25  1  6  0  0  0
 25 27  1  0  0  0  0
 27 26  1  0  0  0  0
 28 27  1  0  0  0  0
 28 26  1  0  0  0  0
 29  8  1  0  0  0  0
 30 34  2  0  0  0  0
 31 32  1  0  0  0  0
 32 29  2  0  0  0  0
 33 31  2  0  0  0  0
 33 30  1  0  0  0  0
 34 29  1  0  0  0  0
 35 36  1  0  0  0  0
 36 37  1  0  0  0  0
 38 37  1  0  0  0  0
 38 39  1  0  0  0  0
 39 41  1  0  0  0  0
 39 40  1  1  0  0  0
 42 43  1  0  0  0  0
 43 41  1  0  0  0  0
M  END
>  <MODEL>
6

>  <REMARK>
 VINA RESULT:      -6.1      2.447      4.357
  Name = 
  12 active torsions:
  status: ('A' for Active; 'I' for Inactive)
    1  A    between atoms: C_3  and  C_29
    2  A    between atoms: C_5  and  N_43
    3  A    between atoms: N_10  and  C_23
    4  A    between atoms: N_17  and  N_26
    5  A    between atoms: C_22  and  C_24
    6  A    between atoms: C_22  and  C_39
    7  A    between atoms: C_24  and  O_38
    8  A    between atoms: N_26  and  N_34
    9  A    between atoms: C_28  and  C_36
   10  A    between atoms: C_31  and  O_38
   11  A    between atoms: N_34  and  C_39
   12  A    between atoms: C_35  and  C_36
                            x       y       z     vdW  Elec       q    Type
                         _______ _______ _______ _____ _____    ______ ____

>  <TORSDO>
F 12

$$$$
=
 OpenBabel11042412563D

 43 48  0  0  1  0  0  0  0  0999 V2000
  188.1290  177.1340  143.2060 C   0  0  0  0  0  3  0  0  0  0  0  0
  186.1910  178.5250  142.5590 C   0  0  1  0  0  3  0  0  0  0  0  0
  184.7350  179.0830  144.3970 F   0  0  0  0  0  0  0  0  0  0  0  0
  185.5380  178.0800  143.8930 C   0  0  2  0  0  3  0  0  0  0  0  0
  186.5230  177.6970  144.9030 N   0  0  0  0  0  0  0  0  0  0  0  0
  188.5730  176.7760  145.6360 N   0  0  0  0  0  2  0  0  0  0  0  0
  187.6840  177.1980  144.6040 C   0  0  0  0  0  0  0  0  0  0  0  0
  187.4400  177.7210  142.2190 C   0  0  0  0  0  0  0  0  0  0  0  0
  180.4970  178.4160  140.1610 C   0  0  0  0  0  2  0  0  0  0  0  0
  183.9080  178.0670  141.8800 C   0  0  0  0  0  2  0  0  0  0  0  0
  185.1130  179.8560  140.9660 N   0  0  0  0  0  2  0  0  0  0  0  0
  181.0600  178.5470  138.8100 N   0  0  2  0  0  0  0  0  0  0  0  0
  181.5200  177.7850  141.1200 C   0  0  0  0  0  2  0  0  0  0  0  0
  182.9520  178.1080  140.6990 C   0  0  1  0  0  3  0  0  0  0  0  0
  182.1260  179.5690  138.8230 C   0  0  0  0  0  2  0  0  0  0  0  0
  184.4030  179.8180  139.7480 N   0  0  0  0  0  2  0  0  0  0  0  0
  183.0170  179.4930  140.0710 C   0  0  2  0  0  3  0  0  0  0  0  0
  185.2310  178.5310  141.4420 N   0  0  1  0  0  0  0  0  0  0  0  0
  180.3930  179.3200  135.5530 S   0  0  0  0  0  0  0  0  0  0  0  0
  181.7090  178.9960  134.9040 O   0  0  0  0  0  0  0  0  0  0  0  0
  179.3370  179.7960  134.5940 O   0  0  0  0  0  0  0  0  0  0  0  0
  180.0040  179.0260  137.9150 C   0  0  2  0  0  3  0  0  0  0  0  0
  179.8390  178.0970  136.7000 C   0  0  0  0  0  2  0  0  0  0  0  0
  180.5130  180.2110  137.0810 C   0  0  2  0  0  3  0  0  0  0  0  0
  179.5030  181.3460  137.1410 C   0  0  0  0  0  2  0  0  0  0  0  0
  180.9590  183.1170  136.2430 C   0  0  0  0  0  2  0  0  0  0  0  0
  180.2000  182.6510  137.4680 C   0  0  0  0  0  3  0  0  0  0  0  0
  179.6310  183.7470  136.5900 C   0  0  0  0  0  2  0  0  0  0  0  0
  188.0060  177.6940  140.8430 C   0  0  0  0  0  0  0  0  0  0  0  0
  187.8130  178.1760  138.4630 C   0  0  0  0  0  3  0  0  0  0  0  0
  189.8310  177.1530  139.3220 C   0  0  0  0  0  3  0  0  0  0  0  0
  189.2930  177.1760  140.6110 C   0  0  0  0  0  3  0  0  0  0  0  0
  189.0890  177.6500  138.2470 C   0  0  0  0  0  3  0  0  0  0  0  0
  187.2770  178.2020  139.7530 C   0  0  0  0  0  3  0  0  0  0  0  0
  188.1720  176.7710  146.9800 N   0  0  0  0  0  2  0  0  0  0  0  0
  189.2860  176.3800  147.7370 N   0  0  0  0  0  2  0  0  0  0  0  0
  190.1320  177.5510  147.8880 C   0  0  0  0  0  2  0  0  0  0  0  0
  191.5650  177.1190  148.1410 C   0  0  0  0  0  2  0  0  0  0  0  0
  191.9900  176.0860  147.1100 C   0  0  2  0  0  3  0  0  0  0  0  0
  193.2320  175.5530  147.4580 O   0  0  0  0  0  1  0  0  0  0  0  0
  192.0760  176.6910  145.8530 O   0  0  0  0  0  0  0  0  0  0  0  0
  191.4590  176.1410  143.6250 C   0  0  0  0  0  1  0  0  0  0  0  0
  192.0070  175.6340  144.9430 C   0  0  0  0  0  2  0  0  0  0  0  0
  1  7  1  0  0  0  0
  2  8  1  6  0  0  0
  2  4  1  0  0  0  0
  4  3  1  1  0  0  0
  4  5  1  0  0  0  0
  6 35  1  0  0  0  0
  7  5  2  0  0  0  0
  7  6  1  0  0  0  0
  8  1  2  0  0  0  0
  9 13  1  0  0  0  0
 11 18  1  0  0  0  0
 12 15  1  1  0  0  0
 12  9  1  0  0  0  0
 14 13  1  1  0  0  0
 14 10  1  0  0  0  0
 16 17  1  0  0  0  0
 16 11  1  0  0  0  0
 17 15  1  6  0  0  0
 17 14  1  0  0  0  0
 18 10  1  1  0  0  0
 18  2  1  0  0  0  0
 19 23  1  0  0  0  0
 19 24  1  0  0  0  0
 20 19  2  0  0  0  0
 21 19  2  0  0  0  0
 22 23  1  6  0  0  0
 22 12  1  0  0  0  0
 24 25  1  6  0  0  0
 24 22  1  0  0  0  0
 25 27  1  0  0  0  0
 26 28  1  0  0  0  0
 26 27  1  0  0  0  0
 28 27  1  0  0  0  0
 29  8  1  0  0  0  0
 30 34  1  0  0  0  0
 31 32  2  0  0  0  0
 32 29  1  0  0  0  0
 33 30  2  0  0  0  0
 33 31  1  0  0  0  0
 34 29  2  0  0  0  0
 35 36  1  0  0  0  0
 36 37  1  0  0  0  0
 37 38  1  0  0  0  0
 39 40  1  1  0  0  0
 39 38  1  0  0  0  0
 41 39  1  0  0  0  0
 42 43  1  0  0  0  0
 43 41  1  0  0  0  0
M  END
>  <MODEL>
7

>  <REMARK>
 VINA RESULT:      -5.9      6.123     11.125
  Name = 
  12 active torsions:
  status: ('A' for Active; 'I' for Inactive)
    1  A    between atoms: C_3  and  C_29
    2  A    between atoms: C_5  and  N_43
    3  A    between atoms: N_10  and  C_23
    4  A    between atoms: N_17  and  N_26
    5  A    between atoms: C_22  and  C_24
    6  A    between atoms: C_22  and  C_39
    7  A    between atoms: C_24  and  O_38
    8  A    between atoms: N_26  and  N_34
    9  A    between atoms: C_28  and  C_36
   10  A    between atoms: C_31  and  O_38
   11  A    between atoms: N_34  and  C_39
   12  A    between atoms: C_35  and  C_36
                            x       y       z     vdW  Elec       q    Type
                         _______ _______ _______ _____ _____    ______ ____

>  <TORSDO>
F 12

$$$$
=
 OpenBabel11042412563D

 43 48  0  0  1  0  0  0  0  0999 V2000
  191.7370  176.8980  138.2840 C   0  0  0  0  0  3  0  0  0  0  0  0
  189.8430  175.4730  137.5830 C   0  0  1  0  0  3  0  0  0  0  0  0
  190.2680  174.2050  135.5770 F   0  0  0  0  0  0  0  0  0  0  0  0
  190.5150  175.4190  136.1870 C   0  0  2  0  0  3  0  0  0  0  0  0
  191.9580  175.6440  136.2460 N   0  0  0  0  0  0  0  0  0  0  0  0
  193.9270  176.6180  137.1210 N   0  0  0  0  0  2  0  0  0  0  0  0
  192.5220  176.3760  137.1590 C   0  0  0  0  0  0  0  0  0  0  0  0
  190.4710  176.5180  138.4980 C   0  0  0  0  0  0  0  0  0  0  0  0
  184.6310  177.1260  134.7070 C   0  0  0  0  0  2  0  0  0  0  0  0
  188.0200  176.5590  136.4090 C   0  0  0  0  0  2  0  0  0  0  0  0
  187.8080  174.3750  137.2310 N   0  0  0  0  0  2  0  0  0  0  0  0
  183.8430  176.6490  135.8530 N   0  0  2  0  0  0  0  0  0  0  0  0
  186.0550  177.5040  135.1430 C   0  0  0  0  0  2  0  0  0  0  0  0
  186.5070  176.6830  136.3480 C   0  0  1  0  0  3  0  0  0  0  0  0
  184.3750  175.3460  136.3010 C   0  0  0  0  0  2  0  0  0  0  0  0
  186.4120  174.4880  137.4020 N   0  0  0  0  0  2  0  0  0  0  0  0
  185.9080  175.2840  136.2870 C   0  0  2  0  0  3  0  0  0  0  0  0
  188.3830  175.6380  137.4950 N   0  0  1  0  0  0  0  0  0  0  0  0
  180.6000  177.4730  136.5270 S   0  0  0  0  0  0  0  0  0  0  0  0
  180.7750  178.4030  137.6940 O   0  0  0  0  0  0  0  0  0  0  0  0
  179.1700  177.2900  136.0970 O   0  0  0  0  0  0  0  0  0  0  0  0
  182.4650  176.4310  135.4060 C   0  0  2  0  0  3  0  0  0  0  0  0
  181.7280  177.7670  135.2000 C   0  0  0  0  0  2  0  0  0  0  0  0
  181.5860  176.0010  136.5900 C   0  0  2  0  0  3  0  0  0  0  0  0
  180.7770  174.7740  136.2010 C   0  0  0  0  0  2  0  0  0  0  0  0
  179.8710  174.1280  138.3990 C   0  0  0  0  0  2  0  0  0  0  0  0
  180.8390  173.7340  137.3020 C   0  0  0  0  0  3  0  0  0  0  0  0
  179.4910  173.0500  137.4110 C   0  0  0  0  0  2  0  0  0  0  0  0
  189.7730  177.0170  139.7140 C   0  0  0  0  0  0  0  0  0  0  0  0
  189.4580  177.0110  142.1290 C   0  0  0  0  0  3  0  0  0  0  0  0
  188.1120  178.4700  140.7460 C   0  0  0  0  0  3  0  0  0  0  0  0
  188.7670  177.9950  139.6080 C   0  0  0  0  0  3  0  0  0  0  0  0
  188.4550  177.9760  142.0070 C   0  0  0  0  0  3  0  0  0  0  0  0
  190.1160  176.5390  140.9900 C   0  0  0  0  0  3  0  0  0  0  0  0
  194.7080  176.1820  136.0400 N   0  0  0  0  0  2  0  0  0  0  0  0
  195.5320  177.2550  135.6730 N   0  0  0  0  0  2  0  0  0  0  0  0
  196.7320  176.6890  135.0800 C   0  0  0  0  0  2  0  0  0  0  0  0
  196.9230  175.2660  135.5720 C   0  0  0  0  0  2  0  0  0  0  0  0
  198.1250  175.1900  136.5000 C   0  0  2  0  0  3  0  0  0  0  0  0
  198.8210  174.0020  136.2750 O   0  0  0  0  0  1  0  0  0  0  0  0
  197.6920  175.2340  137.8280 O   0  0  0  0  0  0  0  0  0  0  0  0
  195.8950  174.3170  139.0840 C   0  0  0  0  0  1  0  0  0  0  0  0
  196.9120  174.0860  137.9870 C   0  0  0  0  0  2  0  0  0  0  0  0
  1  8  2  0  0  0  0
  2  8  1  1  0  0  0
  4  3  1  1  0  0  0
  4  5  1  0  0  0  0
  4  2  1  0  0  0  0
  5  7  2  0  0  0  0
  6  7  1  0  0  0  0
  7  1  1  0  0  0  0
  8 29  1  0  0  0  0
  9 13  1  0  0  0  0
 11 16  1  0  0  0  0
 11 18  1  0  0  0  0
 12  9  1  6  0  0  0
 12 15  1  0  0  0  0
 14 13  1  6  0  0  0
 14 10  1  0  0  0  0
 17 15  1  1  0  0  0
 17 14  1  0  0  0  0
 17 16  1  0  0  0  0
 18 10  1  6  0  0  0
 18  2  1  0  0  0  0
 19 24  1  0  0  0  0
 19 20  2  0  0  0  0
 21 19  2  0  0  0  0
 22 23  1  1  0  0  0
 22 12  1  0  0  0  0
 22 24  1  0  0  0  0
 23 19  1  0  0  0  0
 24 25  1  6  0  0  0
 25 27  1  0  0  0  0
 27 28  1  0  0  0  0
 27 26  1  0  0  0  0
 28 26  1  0  0  0  0
 29 34  1  0  0  0  0
 31 33  2  0  0  0  0
 32 29  2  0  0  0  0
 32 31  1  0  0  0  0
 33 30  1  0  0  0  0
 34 30  2  0  0  0  0
 35  6  1  0  0  0  0
 36 35  1  0  0  0  0
 37 38  1  0  0  0  0
 37 36  1  0  0  0  0
 38 39  1  0  0  0  0
 39 40  1  1  0  0  0
 39 41  1  0  0  0  0
 41 43  1  0  0  0  0
 43 42  1  0  0  0  0
M  END
>  <MODEL>
8

>  <REMARK>
 VINA RESULT:      -5.7      4.885     11.110
  Name = 
  12 active torsions:
  status: ('A' for Active; 'I' for Inactive)
    1  A    between atoms: C_3  and  C_29
    2  A    between atoms: C_5  and  N_43
    3  A    between atoms: N_10  and  C_23
    4  A    between atoms: N_17  and  N_26
    5  A    between atoms: C_22  and  C_24
    6  A    between atoms: C_22  and  C_39
    7  A    between atoms: C_24  and  O_38
    8  A    between atoms: N_26  and  N_34
    9  A    between atoms: C_28  and  C_36
   10  A    between atoms: C_31  and  O_38
   11  A    between atoms: N_34  and  C_39
   12  A    between atoms: C_35  and  C_36
                            x       y       z     vdW  Elec       q    Type
                         _______ _______ _______ _____ _____    ______ ____

>  <TORSDO>
F 12

$$$$
=
 OpenBabel11042412563D

 43 48  0  0  1  0  0  0  0  0999 V2000
  192.1480  176.8650  137.9430 C   0  0  0  0  0  3  0  0  0  0  0  0
  190.3710  175.2410  137.3790 C   0  0  1  0  0  3  0  0  0  0  0  0
  190.8400  173.9280  135.4130 F   0  0  0  0  0  0  0  0  0  0  0  0
  190.9940  175.1860  135.9610 C   0  0  2  0  0  3  0  0  0  0  0  0
  192.4110  175.5450  135.9510 N   0  0  0  0  0  0  0  0  0  0  0  0
  194.3110  176.7340  136.7040 N   0  0  0  0  0  2  0  0  0  0  0  0
  192.9370  176.3660  136.8100 C   0  0  0  0  0  0  0  0  0  0  0  0
  190.9320  176.3810  138.2230 C   0  0  0  0  0  0  0  0  0  0  0  0
  184.9290  176.5360  134.7570 C   0  0  0  0  0  2  0  0  0  0  0  0
  188.4130  176.2090  136.3240 C   0  0  0  0  0  2  0  0  0  0  0  0
  188.4390  173.9720  137.0220 N   0  0  0  0  0  2  0  0  0  0  0  0
  184.2300  175.9210  135.8960 N   0  0  2  0  0  0  0  0  0  0  0  0
  186.3240  177.0270  135.1740 C   0  0  0  0  0  2  0  0  0  0  0  0
  186.8940  176.1880  136.3150 C   0  0  1  0  0  3  0  0  0  0  0  0
  184.8990  174.6540  136.2510 C   0  0  0  0  0  2  0  0  0  0  0  0
  187.0470  173.9380  137.2400 N   0  0  0  0  0  2  0  0  0  0  0  0
  186.4310  174.7430  136.1890 C   0  0  2  0  0  3  0  0  0  0  0  0
  188.9000  175.2680  137.3440 N   0  0  1  0  0  0  0  0  0  0  0  0
  181.1190  175.1850  137.0890 S   0  0  0  0  0  0  0  0  0  0  0  0
  181.3490  175.2780  138.5720 O   0  0  0  0  0  0  0  0  0  0  0  0
  179.7010  174.8600  136.7090 O   0  0  0  0  0  0  0  0  0  0  0  0
  182.8650  175.5950  135.4770 C   0  0  2  0  0  3  0  0  0  0  0  0
  181.8370  176.5080  136.1680 C   0  0  0  0  0  2  0  0  0  0  0  0
  182.3810  174.3240  136.1900 C   0  0  2  0  0  3  0  0  0  0  0  0
  181.7820  173.3670  135.1720 C   0  0  0  0  0  2  0  0  0  0  0  0
  182.3730  171.5940  136.7760 C   0  0  0  0  0  2  0  0  0  0  0  0
  182.4040  171.9930  135.3150 C   0  0  0  0  0  3  0  0  0  0  0  0
  181.3520  171.0250  135.8180 C   0  0  0  0  0  2  0  0  0  0  0  0
  190.2350  176.8690  139.4440 C   0  0  0  0  0  0  0  0  0  0  0  0
  189.9220  176.8400  141.8600 C   0  0  0  0  0  3  0  0  0  0  0  0
  188.5750  178.3120  140.4910 C   0  0  0  0  0  3  0  0  0  0  0  0
  189.2290  177.8470  139.3480 C   0  0  0  0  0  3  0  0  0  0  0  0
  188.9190  177.8060  141.7470 C   0  0  0  0  0  3  0  0  0  0  0  0
  190.5780  176.3780  140.7160 C   0  0  0  0  0  3  0  0  0  0  0  0
  195.0890  176.3230  135.6120 N   0  0  0  0  0  2  0  0  0  0  0  0
  196.3800  176.0730  136.1020 N   0  0  0  0  0  2  0  0  0  0  0  0
  196.5840  174.6350  136.0510 C   0  0  0  0  0  2  0  0  0  0  0  0
  196.8610  174.1080  137.4470 C   0  0  0  0  0  2  0  0  0  0  0  0
  195.5530  173.8790  138.1880 C   0  0  2  0  0  3  0  0  0  0  0  0
  195.4260  174.8110  139.2190 O   0  0  0  0  0  1  0  0  0  0  0  0
  195.5400  172.5880  138.7210 O   0  0  0  0  0  0  0  0  0  0  0  0
  194.5800  171.3460  136.9370 C   0  0  0  0  0  1  0  0  0  0  0  0
  195.8550  171.7540  137.6460 C   0  0  0  0  0  2  0  0  0  0  0  0
  1  8  2  0  0  0  0
  2  8  1  6  0  0  0
  4  3  1  1  0  0  0
  4  2  1  0  0  0  0
  5  4  1  0  0  0  0
  5  7  2  0  0  0  0
  6  7  1  0  0  0  0
  7  1  1  0  0  0  0
  8 29  1  0  0  0  0
  9 13  1  0  0  0  0
 11 16  1  0  0  0  0
 11 18  1  0  0  0  0
 12  9  1  6  0  0  0
 12 15  1  0  0  0  0
 14 13  1  6  0  0  0
 14 10  1  0  0  0  0
 17 15  1  1  0  0  0
 17 14  1  0  0  0  0
 17 16  1  0  0  0  0
 18 10  1  6  0  0  0
 18  2  1  0  0  0  0
 19 20  2  0  0  0  0
 21 19  2  0  0  0  0
 22 12  1  0  0  0  0
 22 23  1  1  0  0  0
 22 24  1  0  0  0  0
 23 19  1  0  0  0  0
 24 25  1  6  0  0  0
 24 19  1  0  0  0  0
 25 27  1  0  0  0  0
 27 28  1  0  0  0  0
 27 26  1  0  0  0  0
 28 26  1  0  0  0  0
 29 34  1  0  0  0  0
 31 33  2  0  0  0  0
 32 29  2  0  0  0  0
 32 31  1  0  0  0  0
 33 30  1  0  0  0  0
 34 30  2  0  0  0  0
 35 36  1  0  0  0  0
 35  6  1  0  0  0  0
 37 36  1  0  0  0  0
 37 38  1  0  0  0  0
 38 39  1  0  0  0  0
 39 41  1  0  0  0  0
 39 40  1  1  0  0  0
 42 43  1  0  0  0  0
 43 41  1  0  0  0  0
M  END
>  <MODEL>
9

>  <REMARK>
 VINA RESULT:      -5.5      4.988     10.439
  Name = 
  12 active torsions:
  status: ('A' for Active; 'I' for Inactive)
    1  A    between atoms: C_3  and  C_29
    2  A    between atoms: C_5  and  N_43
    3  A    between atoms: N_10  and  C_23
    4  A    between atoms: N_17  and  N_26
    5  A    between atoms: C_22  and  C_24
    6  A    between atoms: C_22  and  C_39
    7  A    between atoms: C_24  and  O_38
    8  A    between atoms: N_26  and  N_34
    9  A    between atoms: C_28  and  C_36
   10  A    between atoms: C_31  and  O_38
   11  A    between atoms: N_34  and  C_39
   12  A    between atoms: C_35  and  C_36
                            x       y       z     vdW  Elec       q    Type
                         _______ _______ _______ _____ _____    ______ ____

>  <TORSDO>
F 12

$$$$
