=
 OpenBabel11042412583D

 42 44  0  0  1  0  0  0  0  0999 V2000
  184.1740  178.2940  142.5230 C   0  0  2  0  0  3  0  0  0  0  0  0
  188.7300  177.6400  142.4320 N   0  0  0  0  0  2  0  0  0  0  0  0
  189.9060  177.1910  141.7610 C   0  0  2  0  0  3  0  0  0  0  0  0
  189.1190  178.1320  139.6120 C   0  0  0  0  0  0  0  0  0  0  0  0
  187.7320  178.2820  141.6340 C   0  0  0  0  0  0  0  0  0  0  0  0
  191.1310  177.3510  142.2200 C   0  0  0  0  0  0  0  0  0  0  0  0
  185.4780  179.0280  142.7180 C   0  0  0  0  0  3  0  0  0  0  0  0
  191.4060  177.2920  140.0360 N   0  0  0  0  0  2  0  0  0  0  0  0
  189.9810  177.0820  140.2750 C   0  0  1  0  0  3  0  0  0  0  0  0
  191.4870  177.7560  143.6090 C   0  0  0  0  0  1  0  0  0  0  0  0
  192.0410  177.4150  141.1320 N   0  0  0  0  0  0  0  0  0  0  0  0
  188.0280  178.6170  140.2260 C   0  0  0  0  0  3  0  0  0  0  0  0
  186.6090  178.6620  142.1750 C   0  0  0  0  0  0  0  0  0  0  0  0
  189.3440  178.4610  138.2460 N   0  0  0  0  0  1  0  0  0  0  0  0
  183.2870  178.8520  141.3910 C   0  0  2  0  0  3  0  0  0  0  0  0
  181.8080  178.7560  141.7420 C   0  0  0  0  0  1  0  0  0  0  0  0
  183.5370  178.1470  140.0870 C   0  0  0  0  0  0  0  0  0  0  0  0
  182.9160  176.8050  139.8270 C   0  0  0  0  0  1  0  0  0  0  0  0
  184.3080  178.7510  139.1730 C   0  0  0  0  0  3  0  0  0  0  0  0
  184.6310  178.1570  137.8370 C   0  0  0  0  0  2  0  0  0  0  0  0
  185.9120  177.4750  137.8940 N   0  0  0  0  0  2  0  0  0  0  0  0
  186.0560  176.7550  136.6420 C   0  0  0  0  0  2  0  0  0  0  0  0
  186.7370  173.0140  137.0850 C   0  0  0  0  0  0  0  0  0  0  0  0
  186.9690  174.3710  136.7660 C   0  0  0  0  0  0  0  0  0  0  0  0
  187.7490  172.0680  136.9730 O   0  0  0  0  0  1  0  0  0  0  0  0
  184.4240  173.5020  137.6140 C   0  0  0  0  0  3  0  0  0  0  0  0
  185.8920  175.2890  136.8810 C   0  0  0  0  0  0  0  0  0  0  0  0
  184.6360  174.8450  137.3090 C   0  0  0  0  0  3  0  0  0  0  0  0
  185.4730  172.5910  137.5020 C   0  0  0  0  0  3  0  0  0  0  0  0
  190.6700  175.5320  136.8940 C   0  0  0  0  0  1  0  0  0  0  0  0
  188.5610  174.9640  135.0960 O   0  0  0  0  0  0  0  0  0  0  0  0
  188.3200  174.8080  136.3250 C   0  0  0  0  0  0  0  0  0  0  0  0
  189.3460  175.0770  137.2850 N   0  0  0  0  0  2  0  0  0  0  0  0
  183.4770  178.2830  143.7360 O   0  0  0  0  0  0  0  0  0  0  0  0
  184.1310  179.2230  144.5380 C   0  0  0  0  0  2  0  0  0  0  0  0
  183.7370  179.0570  145.8650 O   0  0  0  0  0  0  0  0  0  0  0  0
  184.7570  178.3000  146.4410 C   0  0  0  0  0  2  0  0  0  0  0  0
  186.0760  179.0370  146.2980 C   0  0  0  0  0  2  0  0  0  0  0  0
  187.1780  178.0870  146.2600 N   0  0  0  0  0  2  0  0  0  0  0  0
  187.8480  178.4510  148.4720 O   0  0  0  0  0  0  0  0  0  0  0  0
  188.0150  177.8280  147.3900 C   0  0  0  0  0  0  0  0  0  0  0  0
  189.1020  176.8200  147.2820 C   0  0  0  0  0  1  0  0  0  0  0  0
  1  7  1  1  0  0  0
  1 34  1  0  0  0  0
  3  6  1  6  0  0  0
  3  2  1  0  0  0  0
  4 12  2  0  0  0  0
  5 13  2  0  0  0  0
  5  2  1  0  0  0  0
  6 10  1  0  0  0  0
  8  9  1  0  0  0  0
  8 11  1  0  0  0  0
  9  4  1  6  0  0  0
  9  3  1  0  0  0  0
 11  6  2  0  0  0  0
 12  5  1  0  0  0  0
 13  7  2  0  0  0  0
 14  4  1  0  0  0  0
 15 16  1  1  0  0  0
 15  1  1  0  0  0  0
 17 15  1  0  0  0  0
 18 17  1  0  0  0  0
 19 17  2  0  0  0  0
 20 21  1  0  0  0  0
 20 19  1  0  0  0  0
 22 27  1  0  0  0  0
 22 21  1  0  0  0  0
 23 29  1  0  0  0  0
 24 27  1  0  0  0  0
 24 23  2  0  0  0  0
 25 23  1  0  0  0  0
 27 28  2  0  0  0  0
 28 26  1  0  0  0  0
 29 26  2  0  0  0  0
 30 33  1  0  0  0  0
 31 32  2  0  0  0  0
 32 24  1  0  0  0  0
 32 33  1  0  0  0  0
 34 35  1  0  0  0  0
 35 36  1  0  0  0  0
 36 37  1  0  0  0  0
 38 37  1  0  0  0  0
 39 38  1  0  0  0  0
 39 41  1  0  0  0  0
 41 40  2  0  0  0  0
 42 41  1  0  0  0  0
M  END
>  <MODEL>
1

>  <REMARK>
 VINA RESULT:      -7.7      0.000      0.000
  Name = 
  14 active torsions:
  status: ('A' for Active; 'I' for Inactive)
    1  A    between atoms: C_2  and  C_22
    2  A    between atoms: C_5  and  C_6
    3  A    between atoms: C_5  and  C_19
    4  A    between atoms: N_11  and  C_34
    5  A    between atoms: N_11  and  C_36
    6  A    between atoms: N_14  and  C_28
    7  A    between atoms: C_16  and  O_23
    8  A    between atoms: C_16  and  C_28
    9  A    between atoms: C_18  and  C_19
   10  A    between atoms: C_19  and  O_41
   11  A    between atoms: O_23  and  C_33
   12  A    between atoms: C_24  and  C_36
   13  A    between atoms: C_26  and  C_34
   14  A    between atoms: C_33  and  O_41
                            x       y       z     vdW  Elec       q    Type
                         _______ _______ _______ _____ _____    ______ ____

>  <TORSDO>
F 14

$$$$
=
 OpenBabel11042412583D

 42 44  0  0  1  0  0  0  0  0999 V2000
  182.5910  179.4110  140.2180 C   0  0  2  0  0  3  0  0  0  0  0  0
  186.6060  178.2410  138.2930 N   0  0  0  0  0  2  0  0  0  0  0  0
  187.4740  177.2570  137.7330 C   0  0  2  0  0  3  0  0  0  0  0  0
  185.5910  176.1790  136.5420 C   0  0  0  0  0  0  0  0  0  0  0  0
  185.2120  178.1190  138.0010 C   0  0  0  0  0  0  0  0  0  0  0  0
  188.6350  177.5230  137.1690 C   0  0  0  0  0  0  0  0  0  0  0  0
  183.5060  179.7770  139.0750 C   0  0  0  0  0  3  0  0  0  0  0  0
  187.9830  175.6820  136.1540 N   0  0  0  0  0  2  0  0  0  0  0  0
  186.9610  175.9830  137.1520 C   0  0  1  0  0  3  0  0  0  0  0  0
  189.3640  178.8190  137.2650 C   0  0  0  0  0  1  0  0  0  0  0  0
  188.9250  176.5360  136.1910 N   0  0  0  0  0  0  0  0  0  0  0  0
  184.7590  177.1240  137.0070 C   0  0  0  0  0  3  0  0  0  0  0  0
  184.3600  178.9500  138.5300 C   0  0  0  0  0  0  0  0  0  0  0  0
  185.0980  175.2270  135.6070 N   0  0  0  0  0  1  0  0  0  0  0  0
  183.1740  178.3700  141.1970 C   0  0  2  0  0  3  0  0  0  0  0  0
  182.6810  176.9660  140.8770 C   0  0  0  0  0  1  0  0  0  0  0  0
  182.8420  178.7010  142.6250 C   0  0  0  0  0  0  0  0  0  0  0  0
  181.4250  179.0110  143.0160 C   0  0  0  0  0  1  0  0  0  0  0  0
  183.8310  178.6980  143.5290 C   0  0  0  0  0  3  0  0  0  0  0  0
  183.6320  179.0070  144.9800 C   0  0  0  0  0  2  0  0  0  0  0  0
  184.6990  178.4120  145.7650 N   0  0  0  0  0  2  0  0  0  0  0  0
  185.8200  178.2170  144.8630 C   0  0  0  0  0  2  0  0  0  0  0  0
  189.3690  177.1740  145.8500 C   0  0  0  0  0  0  0  0  0  0  0  0
  188.2320  177.3910  145.0380 C   0  0  0  0  0  0  0  0  0  0  0  0
  190.5490  176.6760  145.3110 O   0  0  0  0  0  1  0  0  0  0  0  0
  188.1540  177.9270  147.8050 C   0  0  0  0  0  3  0  0  0  0  0  0
  187.0470  177.8830  145.6470 C   0  0  0  0  0  0  0  0  0  0  0  0
  187.0250  178.1510  147.0200 C   0  0  0  0  0  3  0  0  0  0  0  0
  189.3220  177.4400  147.2200 C   0  0  0  0  0  3  0  0  0  0  0  0
  188.7760  177.8790  141.2270 C   0  0  0  0  0  1  0  0  0  0  0  0
  187.9510  175.9720  143.1460 O   0  0  0  0  0  0  0  0  0  0  0  0
  188.2960  177.1050  143.5810 C   0  0  0  0  0  0  0  0  0  0  0  0
  188.7250  178.1130  142.6610 N   0  0  0  0  0  2  0  0  0  0  0  0
  181.3720  178.9680  139.6960 O   0  0  0  0  0  0  0  0  0  0  0  0
  180.5920  180.1210  139.5680 C   0  0  0  0  0  2  0  0  0  0  0  0
  179.9370  180.1060  138.3370 O   0  0  0  0  0  0  0  0  0  0  0  0
  179.2120  181.2970  138.3100 C   0  0  0  0  0  2  0  0  0  0  0  0
  180.1720  182.4730  138.2980 C   0  0  0  0  0  2  0  0  0  0  0  0
  180.0620  183.1940  137.0390 N   0  0  0  0  0  2  0  0  0  0  0  0
  182.0340  184.4200  137.3250 O   0  0  0  0  0  0  0  0  0  0  0  0
  181.0390  184.1420  136.6040 C   0  0  0  0  0  0  0  0  0  0  0  0
  180.8730  184.8160  135.2900 C   0  0  0  0  0  1  0  0  0  0  0  0
  1  7  1  6  0  0  0
  1 15  1  0  0  0  0
  3  6  1  6  0  0  0
  3  2  1  0  0  0  0
  4 12  2  0  0  0  0
  4  9  1  0  0  0  0
  5  2  1  0  0  0  0
  5 13  2  0  0  0  0
  6 10  1  0  0  0  0
  8 11  1  0  0  0  0
  9  8  1  6  0  0  0
  9  3  1  0  0  0  0
 11  6  2  0  0  0  0
 12  5  1  0  0  0  0
 13  7  2  0  0  0  0
 14  4  1  0  0  0  0
 15 16  1  6  0  0  0
 15 17  1  0  0  0  0
 17 18  1  0  0  0  0
 17 19  2  0  0  0  0
 19 20  1  0  0  0  0
 20 21  1  0  0  0  0
 22 27  1  0  0  0  0
 22 21  1  0  0  0  0
 23 29  1  0  0  0  0
 24 27  1  0  0  0  0
 24 23  2  0  0  0  0
 25 23  1  0  0  0  0
 27 28  2  0  0  0  0
 28 26  1  0  0  0  0
 29 26  2  0  0  0  0
 30 33  1  0  0  0  0
 31 32  2  0  0  0  0
 32 24  1  0  0  0  0
 33 32  1  0  0  0  0
 34  1  1  0  0  0  0
 35 34  1  0  0  0  0
 36 35  1  0  0  0  0
 37 36  1  0  0  0  0
 38 37  1  0  0  0  0
 39 38  1  0  0  0  0
 41 39  1  0  0  0  0
 41 40  2  0  0  0  0
 42 41  1  0  0  0  0
M  END
>  <MODEL>
2

>  <REMARK>
 VINA RESULT:      -7.7      3.492      8.032
  Name = 
  14 active torsions:
  status: ('A' for Active; 'I' for Inactive)
    1  A    between atoms: C_2  and  C_22
    2  A    between atoms: C_5  and  C_6
    3  A    between atoms: C_5  and  C_19
    4  A    between atoms: N_11  and  C_34
    5  A    between atoms: N_11  and  C_36
    6  A    between atoms: N_14  and  C_28
    7  A    between atoms: C_16  and  O_23
    8  A    between atoms: C_16  and  C_28
    9  A    between atoms: C_18  and  C_19
   10  A    between atoms: C_19  and  O_41
   11  A    between atoms: O_23  and  C_33
   12  A    between atoms: C_24  and  C_36
   13  A    between atoms: C_26  and  C_34
   14  A    between atoms: C_33  and  O_41
                            x       y       z     vdW  Elec       q    Type
                         _______ _______ _______ _____ _____    ______ ____

>  <TORSDO>
F 14

$$$$
=
 OpenBabel11042412583D

 42 44  0  0  1  0  0  0  0  0999 V2000
  190.0870  177.2360  141.1350 C   0  0  2  0  0  3  0  0  0  0  0  0
  187.5170  177.9720  144.8830 N   0  0  0  0  0  2  0  0  0  0  0  0
  186.4220  178.6180  145.5300 C   0  0  2  0  0  3  0  0  0  0  0  0
  184.9870  178.3290  143.5340 C   0  0  0  0  0  0  0  0  0  0  0  0
  187.3240  177.5720  143.5230 C   0  0  0  0  0  0  0  0  0  0  0  0
  186.0220  178.3540  146.7570 C   0  0  0  0  0  0  0  0  0  0  0  0
  189.2950  176.5010  142.1890 C   0  0  0  0  0  3  0  0  0  0  0  0
  184.1870  179.0510  145.7600 N   0  0  0  0  0  2  0  0  0  0  0  0
  185.2560  179.1560  144.7710 C   0  0  1  0  0  3  0  0  0  0  0  0
  186.7880  177.5690  147.7650 C   0  0  0  0  0  1  0  0  0  0  0  0
  184.6330  178.6260  146.8730 N   0  0  0  0  0  0  0  0  0  0  0  0
  185.9790  177.6660  142.9190 C   0  0  0  0  0  3  0  0  0  0  0  0
  188.3040  177.0300  142.8580 C   0  0  0  0  0  0  0  0  0  0  0  0
  183.7190  178.4160  142.8960 N   0  0  0  0  0  1  0  0  0  0  0  0
  189.9170  176.6840  139.7040 C   0  0  2  0  0  3  0  0  0  0  0  0
  191.2630  176.4540  139.0310 C   0  0  0  0  0  1  0  0  0  0  0  0
  189.0820  177.5970  138.8500 C   0  0  0  0  0  0  0  0  0  0  0  0
  187.8280  178.2090  139.4070 C   0  0  0  0  0  1  0  0  0  0  0  0
  189.4920  177.8560  137.6010 C   0  0  0  0  0  3  0  0  0  0  0  0
  188.7540  178.7490  136.6530 C   0  0  0  0  0  2  0  0  0  0  0  0
  188.1050  177.9530  135.6260 N   0  0  0  0  0  2  0  0  0  0  0  0
  186.6860  177.9560  135.9320 C   0  0  0  0  0  2  0  0  0  0  0  0
  184.7090  175.0720  137.4900 C   0  0  0  0  0  0  0  0  0  0  0  0
  185.0540  176.3930  137.1240 C   0  0  0  0  0  0  0  0  0  0  0  0
  183.5380  174.8040  138.1880 O   0  0  0  0  0  1  0  0  0  0  0  0
  186.7460  174.2310  136.4850 C   0  0  0  0  0  3  0  0  0  0  0  0
  186.2720  176.6090  136.4290 C   0  0  0  0  0  0  0  0  0  0  0  0
  187.0990  175.5260  136.1130 C   0  0  0  0  0  3  0  0  0  0  0  0
  185.5540  174.0060  137.1720 C   0  0  0  0  0  3  0  0  0  0  0  0
  183.5360  179.4440  138.9810 C   0  0  0  0  0  1  0  0  0  0  0  0
  183.1130  177.7290  136.7720 O   0  0  0  0  0  0  0  0  0  0  0  0
  184.1440  177.5180  137.4680 C   0  0  0  0  0  0  0  0  0  0  0  0
  184.4150  178.3530  138.5980 N   0  0  0  0  0  2  0  0  0  0  0  0
  191.4360  177.2390  141.5050 O   0  0  0  0  0  0  0  0  0  0  0  0
  191.5060  178.0930  142.6100 C   0  0  0  0  0  2  0  0  0  0  0  0
  191.9950  177.3900  143.7110 O   0  0  0  0  0  0  0  0  0  0  0  0
  191.5300  178.1030  144.8160 C   0  0  0  0  0  2  0  0  0  0  0  0
  190.7090  177.1830  145.7020 C   0  0  0  0  0  2  0  0  0  0  0  0
  191.3920  176.9670  146.9680 N   0  0  0  0  0  2  0  0  0  0  0  0
  192.4170  174.9680  146.3170 O   0  0  0  0  0  0  0  0  0  0  0  0
  192.2480  175.8460  147.2030 C   0  0  0  0  0  0  0  0  0  0  0  0
  192.9360  175.7110  148.5140 C   0  0  0  0  0  1  0  0  0  0  0  0
  1 34  1  0  0  0  0
  1  7  1  1  0  0  0
  3  2  1  6  0  0  0
  3  6  1  0  0  0  0
  5  2  1  0  0  0  0
  6 11  2  0  0  0  0
  6 10  1  0  0  0  0
  7 13  2  0  0  0  0
  8 11  1  0  0  0  0
  9  4  1  6  0  0  0
  9  3  1  0  0  0  0
  9  8  1  0  0  0  0
 12  5  1  0  0  0  0
 12  4  2  0  0  0  0
 13  5  2  0  0  0  0
 14  4  1  0  0  0  0
 15 16  1  6  0  0  0
 15  1  1  0  0  0  0
 17 18  1  0  0  0  0
 17 15  1  0  0  0  0
 19 17  2  0  0  0  0
 20 19  1  0  0  0  0
 21 22  1  0  0  0  0
 21 20  1  0  0  0  0
 22 27  1  0  0  0  0
 23 25  1  0  0  0  0
 24 32  1  0  0  0  0
 24 23  2  0  0  0  0
 26 29  2  0  0  0  0
 27 24  1  0  0  0  0
 28 27  2  0  0  0  0
 28 26  1  0  0  0  0
 29 23  1  0  0  0  0
 31 32  2  0  0  0  0
 32 33  1  0  0  0  0
 33 30  1  0  0  0  0
 34 35  1  0  0  0  0
 35 36  1  0  0  0  0
 36 37  1  0  0  0  0
 37 38  1  0  0  0  0
 38 39  1  0  0  0  0
 39 41  1  0  0  0  0
 40 41  2  0  0  0  0
 41 42  1  0  0  0  0
M  END
>  <MODEL>
3

>  <REMARK>
 VINA RESULT:      -7.5      3.033      5.772
  Name = 
  14 active torsions:
  status: ('A' for Active; 'I' for Inactive)
    1  A    between atoms: C_2  and  C_22
    2  A    between atoms: C_5  and  C_6
    3  A    between atoms: C_5  and  C_19
    4  A    between atoms: N_11  and  C_34
    5  A    between atoms: N_11  and  C_36
    6  A    between atoms: N_14  and  C_28
    7  A    between atoms: C_16  and  O_23
    8  A    between atoms: C_16  and  C_28
    9  A    between atoms: C_18  and  C_19
   10  A    between atoms: C_19  and  O_41
   11  A    between atoms: O_23  and  C_33
   12  A    between atoms: C_24  and  C_36
   13  A    between atoms: C_26  and  C_34
   14  A    between atoms: C_33  and  O_41
                            x       y       z     vdW  Elec       q    Type
                         _______ _______ _______ _____ _____    ______ ____

>  <TORSDO>
F 14

$$$$
=
 OpenBabel11042412583D

 42 44  0  0  1  0  0  0  0  0999 V2000
  184.2150  178.2520  142.1710 C   0  0  2  0  0  3  0  0  0  0  0  0
  188.7790  177.6460  142.1450 N   0  0  0  0  0  2  0  0  0  0  0  0
  189.9670  177.1900  141.5000 C   0  0  2  0  0  3  0  0  0  0  0  0
  189.1920  178.0570  139.3160 C   0  0  0  0  0  0  0  0  0  0  0  0
  187.7820  178.2520  141.3180 C   0  0  0  0  0  0  0  0  0  0  0  0
  191.1850  177.3770  141.9670 C   0  0  0  0  0  0  0  0  0  0  0  0
  185.5090  179.0060  142.3570 C   0  0  0  0  0  3  0  0  0  0  0  0
  191.4830  177.2560  139.7890 N   0  0  0  0  0  2  0  0  0  0  0  0
  190.0590  177.0380  140.0190 C   0  0  1  0  0  3  0  0  0  0  0  0
  191.5210  177.8280  143.3460 C   0  0  0  0  0  1  0  0  0  0  0  0
  192.1050  177.4190  140.8870 N   0  0  0  0  0  0  0  0  0  0  0  0
  188.0900  178.5490  139.9040 C   0  0  0  0  0  3  0  0  0  0  0  0
  186.6500  178.6360  141.8360 C   0  0  0  0  0  0  0  0  0  0  0  0
  189.4280  178.3490  137.9430 N   0  0  0  0  0  1  0  0  0  0  0  0
  183.3600  178.7300  140.9790 C   0  0  2  0  0  3  0  0  0  0  0  0
  181.8970  178.8870  141.3700 C   0  0  0  0  0  1  0  0  0  0  0  0
  183.4660  177.7960  139.8060 C   0  0  0  0  0  0  0  0  0  0  0  0
  182.7300  176.4860  139.8190 C   0  0  0  0  0  1  0  0  0  0  0  0
  184.2130  178.1680  138.7580 C   0  0  0  0  0  3  0  0  0  0  0  0
  184.3980  177.3310  137.5310 C   0  0  0  0  0  2  0  0  0  0  0  0
  185.7340  176.7640  137.5130 N   0  0  0  0  0  2  0  0  0  0  0  0
  185.7670  175.8100  136.4190 C   0  0  0  0  0  2  0  0  0  0  0  0
  187.9520  172.6700  136.5530 C   0  0  0  0  0  0  0  0  0  0  0  0
  186.7920  173.4690  136.4390 C   0  0  0  0  0  0  0  0  0  0  0  0
  187.8850  171.2870  136.4250 O   0  0  0  0  0  1  0  0  0  0  0  0
  189.3030  174.6350  136.9700 C   0  0  0  0  0  3  0  0  0  0  0  0
  186.9180  174.8750  136.5990 C   0  0  0  0  0  0  0  0  0  0  0  0
  188.1720  175.4400  136.8550 C   0  0  0  0  0  3  0  0  0  0  0  0
  189.1920  173.2540  136.8190 C   0  0  0  0  0  3  0  0  0  0  0  0
  183.3700  171.7220  136.9850 C   0  0  0  0  0  1  0  0  0  0  0  0
  185.1000  172.6790  134.9610 O   0  0  0  0  0  0  0  0  0  0  0  0
  185.4790  172.8340  136.1550 C   0  0  0  0  0  0  0  0  0  0  0  0
  184.6480  172.3730  137.2250 N   0  0  0  0  0  2  0  0  0  0  0  0
  183.4820  178.3140  143.3600 O   0  0  0  0  0  0  0  0  0  0  0  0
  184.2680  179.0750  144.2310 C   0  0  0  0  0  2  0  0  0  0  0  0
  183.6690  179.1080  145.4900 O   0  0  0  0  0  0  0  0  0  0  0  0
  184.5350  178.3830  146.3090 C   0  0  0  0  0  2  0  0  0  0  0  0
  185.8450  179.1360  146.4510 C   0  0  0  0  0  2  0  0  0  0  0  0
  186.7910  178.3500  147.2290 N   0  0  0  0  0  2  0  0  0  0  0  0
  188.1640  177.8130  145.4140 O   0  0  0  0  0  0  0  0  0  0  0  0
  187.9410  177.7290  146.6510 C   0  0  0  0  0  0  0  0  0  0  0  0
  188.8780  176.9670  147.5170 C   0  0  0  0  0  1  0  0  0  0  0  0
  1  7  1  1  0  0  0
  1 34  1  0  0  0  0
  3  6  1  6  0  0  0
  3  2  1  0  0  0  0
  4 12  2  0  0  0  0
  5 13  2  0  0  0  0
  5  2  1  0  0  0  0
  6 10  1  0  0  0  0
  8  9  1  0  0  0  0
  8 11  1  0  0  0  0
  9  4  1  6  0  0  0
  9  3  1  0  0  0  0
 11  6  2  0  0  0  0
 12  5  1  0  0  0  0
 13  7  2  0  0  0  0
 14  4  1  0  0  0  0
 15 16  1  1  0  0  0
 15  1  1  0  0  0  0
 17 18  1  0  0  0  0
 17 15  1  0  0  0  0
 19 17  2  0  0  0  0
 20 19  1  0  0  0  0
 21 20  1  0  0  0  0
 22 27  1  0  0  0  0
 22 21  1  0  0  0  0
 23 29  1  0  0  0  0
 24 23  2  0  0  0  0
 24 27  1  0  0  0  0
 25 23  1  0  0  0  0
 27 28  2  0  0  0  0
 28 26  1  0  0  0  0
 29 26  2  0  0  0  0
 30 33  1  0  0  0  0
 31 32  2  0  0  0  0
 32 24  1  0  0  0  0
 32 33  1  0  0  0  0
 34 35  1  0  0  0  0
 35 36  1  0  0  0  0
 36 37  1  0  0  0  0
 37 38  1  0  0  0  0
 38 39  1  0  0  0  0
 40 41  2  0  0  0  0
 41 39  1  0  0  0  0
 41 42  1  0  0  0  0
M  END
>  <MODEL>
4

>  <REMARK>
 VINA RESULT:      -7.4      1.311      2.194
  Name = 
  14 active torsions:
  status: ('A' for Active; 'I' for Inactive)
    1  A    between atoms: C_2  and  C_22
    2  A    between atoms: C_5  and  C_6
    3  A    between atoms: C_5  and  C_19
    4  A    between atoms: N_11  and  C_34
    5  A    between atoms: N_11  and  C_36
    6  A    between atoms: N_14  and  C_28
    7  A    between atoms: C_16  and  O_23
    8  A    between atoms: C_16  and  C_28
    9  A    between atoms: C_18  and  C_19
   10  A    between atoms: C_19  and  O_41
   11  A    between atoms: O_23  and  C_33
   12  A    between atoms: C_24  and  C_36
   13  A    between atoms: C_26  and  C_34
   14  A    between atoms: C_33  and  O_41
                            x       y       z     vdW  Elec       q    Type
                         _______ _______ _______ _____ _____    ______ ____

>  <TORSDO>
F 14

$$$$
=
 OpenBabel11042412583D

 42 44  0  0  1  0  0  0  0  0999 V2000
  189.8240  177.2980  140.8690 C   0  0  2  0  0  3  0  0  0  0  0  0
  187.4650  177.9770  144.7640 N   0  0  0  0  0  2  0  0  0  0  0  0
  186.4160  178.6220  145.4820 C   0  0  2  0  0  3  0  0  0  0  0  0
  184.8740  178.3990  143.5590 C   0  0  0  0  0  0  0  0  0  0  0  0
  187.1960  177.6120  143.4080 C   0  0  0  0  0  0  0  0  0  0  0  0
  186.0770  178.3340  146.7230 C   0  0  0  0  0  0  0  0  0  0  0  0
  189.0790  176.5480  141.9460 C   0  0  0  0  0  3  0  0  0  0  0  0
  184.2020  179.0780  145.8410 N   0  0  0  0  0  2  0  0  0  0  0  0
  185.2180  179.1920  144.7990 C   0  0  1  0  0  3  0  0  0  0  0  0
  186.8850  177.5150  147.6700 C   0  0  0  0  0  1  0  0  0  0  0  0
  184.7010  178.6200  146.9180 N   0  0  0  0  0  0  0  0  0  0  0  0
  185.8230  177.7380  142.8770 C   0  0  0  0  0  3  0  0  0  0  0  0
  188.1320  177.0740  142.6790 C   0  0  0  0  0  0  0  0  0  0  0  0
  183.5740  178.5160  142.9920 N   0  0  0  0  0  1  0  0  0  0  0  0
  189.7940  176.6250  139.4810 C   0  0  2  0  0  3  0  0  0  0  0  0
  191.1920  176.4890  138.8960 C   0  0  0  0  0  1  0  0  0  0  0  0
  188.9200  177.3770  138.5160 C   0  0  0  0  0  0  0  0  0  0  0  0
  189.2010  178.8210  138.2160 C   0  0  0  0  0  1  0  0  0  0  0  0
  187.9070  176.7240  137.9290 C   0  0  0  0  0  3  0  0  0  0  0  0
  186.9690  177.3570  136.9490 C   0  0  0  0  0  2  0  0  0  0  0  0
  186.0250  178.2120  137.6480 N   0  0  0  0  0  2  0  0  0  0  0  0
  184.7360  178.0160  137.0110 C   0  0  0  0  0  2  0  0  0  0  0  0
  182.0340  177.3330  139.6350 C   0  0  0  0  0  0  0  0  0  0  0  0
  182.9390  178.0580  138.8270 C   0  0  0  0  0  0  0  0  0  0  0  0
  181.1810  177.9840  140.5180 O   0  0  0  0  0  1  0  0  0  0  0  0
  182.8420  175.2430  138.7160 C   0  0  0  0  0  3  0  0  0  0  0  0
  183.8010  177.3380  137.9580 C   0  0  0  0  0  0  0  0  0  0  0  0
  183.7370  175.9420  137.9090 C   0  0  0  0  0  3  0  0  0  0  0  0
  181.9930  175.9380  139.5760 C   0  0  0  0  0  3  0  0  0  0  0  0
  181.9330  181.7740  138.3410 C   0  0  0  0  0  1  0  0  0  0  0  0
  183.9380  180.1250  139.4630 O   0  0  0  0  0  0  0  0  0  0  0  0
  182.9710  179.5430  138.9000 C   0  0  0  0  0  0  0  0  0  0  0  0
  181.9230  180.3210  138.3140 N   0  0  0  0  0  2  0  0  0  0  0  0
  191.1420  177.5000  141.2900 O   0  0  0  0  0  0  0  0  0  0  0  0
  191.1680  177.0680  142.6190 C   0  0  0  0  0  2  0  0  0  0  0  0
  192.0550  177.8590  143.3490 O   0  0  0  0  0  0  0  0  0  0  0  0
  191.2470  178.8130  143.9670 C   0  0  0  0  0  2  0  0  0  0  0  0
  190.6810  178.2380  145.2540 C   0  0  0  0  0  2  0  0  0  0  0  0
  191.6790  177.4090  145.9110 N   0  0  0  0  0  2  0  0  0  0  0  0
  190.1600  176.3310  147.3260 O   0  0  0  0  0  0  0  0  0  0  0  0
  191.3480  176.4610  146.9290 C   0  0  0  0  0  0  0  0  0  0  0  0
  192.4200  175.6280  147.5330 C   0  0  0  0  0  1  0  0  0  0  0  0
  1 34  1  0  0  0  0
  1  7  1  1  0  0  0
  3  2  1  6  0  0  0
  3  6  1  0  0  0  0
  5  2  1  0  0  0  0
  6 11  2  0  0  0  0
  6 10  1  0  0  0  0
  7 13  2  0  0  0  0
  8 11  1  0  0  0  0
  9  4  1  6  0  0  0
  9  3  1  0  0  0  0
  9  8  1  0  0  0  0
 12  5  1  0  0  0  0
 12  4  2  0  0  0  0
 13  5  2  0  0  0  0
 14  4  1  0  0  0  0
 15 16  1  6  0  0  0
 15  1  1  0  0  0  0
 17 15  1  0  0  0  0
 18 17  1  0  0  0  0
 19 17  2  0  0  0  0
 20 21  1  0  0  0  0
 20 19  1  0  0  0  0
 22 21  1  0  0  0  0
 22 27  1  0  0  0  0
 23 25  1  0  0  0  0
 24 32  1  0  0  0  0
 24 23  2  0  0  0  0
 26 29  2  0  0  0  0
 27 24  1  0  0  0  0
 28 27  2  0  0  0  0
 28 26  1  0  0  0  0
 29 23  1  0  0  0  0
 32 31  2  0  0  0  0
 33 30  1  0  0  0  0
 33 32  1  0  0  0  0
 34 35  1  0  0  0  0
 35 36  1  0  0  0  0
 36 37  1  0  0  0  0
 37 38  1  0  0  0  0
 38 39  1  0  0  0  0
 39 41  1  0  0  0  0
 41 40  2  0  0  0  0
 41 42  1  0  0  0  0
M  END
>  <MODEL>
5

>  <REMARK>
 VINA RESULT:      -7.2      3.036      6.258
  Name = 
  14 active torsions:
  status: ('A' for Active; 'I' for Inactive)
    1  A    between atoms: C_2  and  C_22
    2  A    between atoms: C_5  and  C_6
    3  A    between atoms: C_5  and  C_19
    4  A    between atoms: N_11  and  C_34
    5  A    between atoms: N_11  and  C_36
    6  A    between atoms: N_14  and  C_28
    7  A    between atoms: C_16  and  O_23
    8  A    between atoms: C_16  and  C_28
    9  A    between atoms: C_18  and  C_19
   10  A    between atoms: C_19  and  O_41
   11  A    between atoms: O_23  and  C_33
   12  A    between atoms: C_24  and  C_36
   13  A    between atoms: C_26  and  C_34
   14  A    between atoms: C_33  and  O_41
                            x       y       z     vdW  Elec       q    Type
                         _______ _______ _______ _____ _____    ______ ____

>  <TORSDO>
F 14

$$$$
=
 OpenBabel11042412583D

 42 44  0  0  1  0  0  0  0  0999 V2000
  183.0150  179.4130  139.9630 C   0  0  2  0  0  3  0  0  0  0  0  0
  186.9490  177.6660  138.3290 N   0  0  0  0  0  2  0  0  0  0  0  0
  187.6910  176.5770  137.7830 C   0  0  2  0  0  3  0  0  0  0  0  0
  185.7830  175.9070  136.3570 C   0  0  0  0  0  0  0  0  0  0  0  0
  185.5900  177.8040  137.9060 C   0  0  0  0  0  0  0  0  0  0  0  0
  188.9310  176.6670  137.3440 C   0  0  0  0  0  0  0  0  0  0  0  0
  184.0880  179.6750  138.9340 C   0  0  0  0  0  3  0  0  0  0  0  0
  188.0830  175.0230  136.1510 N   0  0  0  0  0  2  0  0  0  0  0  0
  187.0320  175.4440  137.0720 C   0  0  1  0  0  3  0  0  0  0  0  0
  189.8540  177.8090  137.5950 C   0  0  0  0  0  1  0  0  0  0  0  0
  189.1470  175.6970  136.3310 N   0  0  0  0  0  0  0  0  0  0  0  0
  185.0780  176.9570  136.8090 C   0  0  0  0  0  3  0  0  0  0  0  0
  184.8410  178.7420  138.4120 C   0  0  0  0  0  0  0  0  0  0  0  0
  185.2330  175.1060  135.3180 N   0  0  0  0  0  1  0  0  0  0  0  0
  183.3540  178.2970  140.9730 C   0  0  2  0  0  3  0  0  0  0  0  0
  182.7320  176.9680  140.5650 C   0  0  0  0  0  1  0  0  0  0  0  0
  182.9070  178.6500  142.3640 C   0  0  0  0  0  0  0  0  0  0  0  0
  181.4600  178.9430  142.6380 C   0  0  0  0  0  1  0  0  0  0  0  0
  183.8240  178.6810  143.3410 C   0  0  0  0  0  3  0  0  0  0  0  0
  183.5090  179.0150  144.7660 C   0  0  0  0  0  2  0  0  0  0  0  0
  184.7320  179.0490  145.5490 N   0  0  0  0  0  2  0  0  0  0  0  0
  185.7010  178.2310  144.8420 C   0  0  0  0  0  2  0  0  0  0  0  0
  189.1810  177.3040  146.1390 C   0  0  0  0  0  0  0  0  0  0  0  0
  188.1080  177.4680  145.2340 C   0  0  0  0  0  0  0  0  0  0  0  0
  190.4120  176.8170  145.7120 O   0  0  0  0  0  1  0  0  0  0  0  0
  187.7990  178.0860  147.9670 C   0  0  0  0  0  3  0  0  0  0  0  0
  186.8690  177.9500  145.7310 C   0  0  0  0  0  0  0  0  0  0  0  0
  186.7320  178.2590  147.0890 C   0  0  0  0  0  3  0  0  0  0  0  0
  189.0200  177.6100  147.4920 C   0  0  0  0  0  3  0  0  0  0  0  0
  188.9840  177.8420  141.4720 C   0  0  0  0  0  1  0  0  0  0  0  0
  187.9760  175.9980  143.3650 O   0  0  0  0  0  0  0  0  0  0  0  0
  188.2950  177.1400  143.7960 C   0  0  0  0  0  0  0  0  0  0  0  0
  188.8130  178.1170  142.8890 N   0  0  0  0  0  2  0  0  0  0  0  0
  181.8150  179.1330  139.3010 O   0  0  0  0  0  0  0  0  0  0  0  0
  181.5680  180.2570  138.5080 C   0  0  0  0  0  2  0  0  0  0  0  0
  180.5560  179.9670  137.5930 O   0  0  0  0  0  0  0  0  0  0  0  0
  181.1700  179.1610  136.6350 C   0  0  0  0  0  2  0  0  0  0  0  0
  180.4630  177.8190  136.5750 C   0  0  0  0  0  2  0  0  0  0  0  0
  181.4360  176.7390  136.6320 N   0  0  0  0  0  2  0  0  0  0  0  0
  180.2310  175.4500  138.1680 O   0  0  0  0  0  0  0  0  0  0  0  0
  181.2490  175.5720  137.4380 C   0  0  0  0  0  0  0  0  0  0  0  0
  182.2750  174.4970  137.4200 C   0  0  0  0  0  1  0  0  0  0  0  0
  1  7  1  6  0  0  0
  1 15  1  0  0  0  0
  3  6  1  6  0  0  0
  3  2  1  0  0  0  0
  4 12  2  0  0  0  0
  4  9  1  0  0  0  0
  5  2  1  0  0  0  0
  5 13  2  0  0  0  0
  6 10  1  0  0  0  0
  8 11  1  0  0  0  0
  9  8  1  6  0  0  0
  9  3  1  0  0  0  0
 11  6  2  0  0  0  0
 12  5  1  0  0  0  0
 13  7  2  0  0  0  0
 14  4  1  0  0  0  0
 15 16  1  6  0  0  0
 15 17  1  0  0  0  0
 17 18  1  0  0  0  0
 17 19  2  0  0  0  0
 19 20  1  0  0  0  0
 20 21  1  0  0  0  0
 22 21  1  0  0  0  0
 22 27  1  0  0  0  0
 23 29  1  0  0  0  0
 24 27  1  0  0  0  0
 24 23  2  0  0  0  0
 25 23  1  0  0  0  0
 27 28  2  0  0  0  0
 28 26  1  0  0  0  0
 29 26  2  0  0  0  0
 30 33  1  0  0  0  0
 31 32  2  0  0  0  0
 32 24  1  0  0  0  0
 33 32  1  0  0  0  0
 34  1  1  0  0  0  0
 35 34  1  0  0  0  0
 36 35  1  0  0  0  0
 37 36  1  0  0  0  0
 38 39  1  0  0  0  0
 38 37  1  0  0  0  0
 39 41  1  0  0  0  0
 41 40  2  0  0  0  0
 42 41  1  0  0  0  0
M  END
>  <MODEL>
6

>  <REMARK>
 VINA RESULT:      -7.2      2.815      7.755
  Name = 
  14 active torsions:
  status: ('A' for Active; 'I' for Inactive)
    1  A    between atoms: C_2  and  C_22
    2  A    between atoms: C_5  and  C_6
    3  A    between atoms: C_5  and  C_19
    4  A    between atoms: N_11  and  C_34
    5  A    between atoms: N_11  and  C_36
    6  A    between atoms: N_14  and  C_28
    7  A    between atoms: C_16  and  O_23
    8  A    between atoms: C_16  and  C_28
    9  A    between atoms: C_18  and  C_19
   10  A    between atoms: C_19  and  O_41
   11  A    between atoms: O_23  and  C_33
   12  A    between atoms: C_24  and  C_36
   13  A    between atoms: C_26  and  C_34
   14  A    between atoms: C_33  and  O_41
                            x       y       z     vdW  Elec       q    Type
                         _______ _______ _______ _____ _____    ______ ____

>  <TORSDO>
F 14

$$$$
=
 OpenBabel11042412583D

 42 44  0  0  1  0  0  0  0  0999 V2000
  189.8770  177.0450  142.2900 C   0  0  2  0  0  3  0  0  0  0  0  0
  190.9330  175.1690  138.2210 N   0  0  0  0  0  2  0  0  0  0  0  0
  190.5730  174.8140  136.8870 C   0  0  2  0  0  3  0  0  0  0  0  0
  189.3710  176.9540  136.5720 C   0  0  0  0  0  0  0  0  0  0  0  0
  190.4310  176.4110  138.7210 C   0  0  0  0  0  0  0  0  0  0  0  0
  191.4090  174.3120  135.9990 C   0  0  0  0  0  0  0  0  0  0  0  0
  190.9070  177.1100  141.1900 C   0  0  0  0  0  3  0  0  0  0  0  0
  189.9170  175.3580  134.7640 N   0  0  0  0  0  2  0  0  0  0  0  0
  189.4780  175.5070  136.1480 C   0  0  1  0  0  3  0  0  0  0  0  0
  192.7630  173.7700  136.3000 C   0  0  0  0  0  1  0  0  0  0  0  0
  190.9820  174.6670  134.6930 N   0  0  0  0  0  0  0  0  0  0  0  0
  189.7420  177.3410  137.8030 C   0  0  0  0  0  3  0  0  0  0  0  0
  190.6740  176.7650  139.9500 C   0  0  0  0  0  0  0  0  0  0  0  0
  188.6840  177.8790  135.7380 N   0  0  0  0  0  1  0  0  0  0  0  0
  188.4630  177.5010  141.8720 C   0  0  2  0  0  3  0  0  0  0  0  0
  188.4650  178.9390  141.3730 C   0  0  0  0  0  1  0  0  0  0  0  0
  187.4770  177.3650  142.9990 C   0  0  0  0  0  0  0  0  0  0  0  0
  187.6000  176.2290  143.9720 C   0  0  0  0  0  1  0  0  0  0  0  0
  186.5080  178.2840  143.1140 C   0  0  0  0  0  3  0  0  0  0  0  0
  185.4690  178.2630  144.1910 C   0  0  0  0  0  2  0  0  0  0  0  0
  184.1420  178.2670  143.5990 N   0  0  0  0  0  2  0  0  0  0  0  0
  184.3010  178.7060  142.2250 C   0  0  0  0  0  2  0  0  0  0  0  0
  181.5200  178.8490  139.5990 C   0  0  0  0  0  0  0  0  0  0  0  0
  182.8220  178.8730  140.1480 C   0  0  0  0  0  0  0  0  0  0  0  0
  181.3170  178.9650  138.2280 O   0  0  0  0  0  1  0  0  0  0  0  0
  180.5590  178.6210  141.8100 C   0  0  0  0  0  3  0  0  0  0  0  0
  182.9660  178.7690  141.5570 C   0  0  0  0  0  0  0  0  0  0  0  0
  181.8350  178.6380  142.3680 C   0  0  0  0  0  3  0  0  0  0  0  0
  180.4030  178.7260  140.4290 C   0  0  0  0  0  3  0  0  0  0  0  0
  185.7050  177.9370  137.7240 C   0  0  0  0  0  1  0  0  0  0  0  0
  184.5500  180.1270  139.0920 O   0  0  0  0  0  0  0  0  0  0  0  0
  184.0010  179.0020  139.2520 C   0  0  0  0  0  0  0  0  0  0  0  0
  184.5370  177.8540  138.5860 N   0  0  0  0  0  2  0  0  0  0  0  0
  190.3330  177.7920  143.3800 O   0  0  0  0  0  0  0  0  0  0  0  0
  191.6290  177.3270  143.6210 C   0  0  0  0  0  2  0  0  0  0  0  0
  191.6030  176.3900  144.6530 O   0  0  0  0  0  0  0  0  0  0  0  0
  191.6720  177.1510  145.8200 C   0  0  0  0  0  2  0  0  0  0  0  0
  190.9050  176.4500  146.9270 C   0  0  0  0  0  2  0  0  0  0  0  0
  189.4840  176.7400  146.8100 N   0  0  0  0  0  2  0  0  0  0  0  0
  189.4280  178.2470  148.5980 O   0  0  0  0  0  0  0  0  0  0  0  0
  188.8110  177.6640  147.6680 C   0  0  0  0  0  0  0  0  0  0  0  0
  187.3620  177.9300  147.4670 C   0  0  0  0  0  1  0  0  0  0  0  0
  1  7  1  6  0  0  0
  1 34  1  0  0  0  0
  2  5  1  0  0  0  0
  3  6  1  6  0  0  0
  3  2  1  0  0  0  0
  4 12  2  0  0  0  0
  5 13  2  0  0  0  0
  6 10  1  0  0  0  0
  9  8  1  6  0  0  0
  9  4  1  0  0  0  0
  9  3  1  0  0  0  0
 11  8  1  0  0  0  0
 11  6  2  0  0  0  0
 12  5  1  0  0  0  0
 13  7  2  0  0  0  0
 14  4  1  0  0  0  0
 15 16  1  1  0  0  0
 15  1  1  0  0  0  0
 15 17  1  0  0  0  0
 17 19  2  0  0  0  0
 17 18  1  0  0  0  0
 19 20  1  0  0  0  0
 21 20  1  0  0  0  0
 22 21  1  0  0  0  0
 23 24  2  0  0  0  0
 23 29  1  0  0  0  0
 24 27  1  0  0  0  0
 25 23  1  0  0  0  0
 26 28  1  0  0  0  0
 27 22  1  0  0  0  0
 27 28  2  0  0  0  0
 29 26  2  0  0  0  0
 30 33  1  0  0  0  0
 31 32  2  0  0  0  0
 32 24  1  0  0  0  0
 33 32  1  0  0  0  0
 34 35  1  0  0  0  0
 35 36  1  0  0  0  0
 36 37  1  0  0  0  0
 37 38  1  0  0  0  0
 39 38  1  0  0  0  0
 39 41  1  0  0  0  0
 41 40  2  0  0  0  0
 42 41  1  0  0  0  0
M  END
>  <MODEL>
7

>  <REMARK>
 VINA RESULT:      -7.2      3.082      6.105
  Name = 
  14 active torsions:
  status: ('A' for Active; 'I' for Inactive)
    1  A    between atoms: C_2  and  C_22
    2  A    between atoms: C_5  and  C_6
    3  A    between atoms: C_5  and  C_19
    4  A    between atoms: N_11  and  C_34
    5  A    between atoms: N_11  and  C_36
    6  A    between atoms: N_14  and  C_28
    7  A    between atoms: C_16  and  O_23
    8  A    between atoms: C_16  and  C_28
    9  A    between atoms: C_18  and  C_19
   10  A    between atoms: C_19  and  O_41
   11  A    between atoms: O_23  and  C_33
   12  A    between atoms: C_24  and  C_36
   13  A    between atoms: C_26  and  C_34
   14  A    between atoms: C_33  and  O_41
                            x       y       z     vdW  Elec       q    Type
                         _______ _______ _______ _____ _____    ______ ____

>  <TORSDO>
F 14

$$$$
=
 OpenBabel11042412583D

 42 44  0  0  1  0  0  0  0  0999 V2000
  186.8580  178.0730  143.9570 C   0  0  2  0  0  3  0  0  0  0  0  0
  183.2410  178.8520  141.2170 N   0  0  0  0  0  2  0  0  0  0  0  0
  181.8730  178.6390  140.8780 C   0  0  2  0  0  3  0  0  0  0  0  0
  181.2000  178.7440  143.2580 C   0  0  0  0  0  0  0  0  0  0  0  0
  183.5610  178.9430  142.6080 C   0  0  0  0  0  0  0  0  0  0  0  0
  181.2370  179.2750  139.9140 C   0  0  0  0  0  0  0  0  0  0  0  0
  186.0470  179.1970  143.3610 C   0  0  0  0  0  3  0  0  0  0  0  0
  179.6360  178.7780  141.3410 N   0  0  0  0  0  2  0  0  0  0  0  0
  180.8630  178.2040  141.8860 C   0  0  1  0  0  3  0  0  0  0  0  0
  181.8810  180.0920  138.8480 C   0  0  0  0  0  1  0  0  0  0  0  0
  179.8550  179.3510  140.2270 N   0  0  0  0  0  0  0  0  0  0  0  0
  182.4710  179.0030  143.6040 C   0  0  0  0  0  3  0  0  0  0  0  0
  184.8000  179.0770  142.9850 C   0  0  0  0  0  0  0  0  0  0  0  0
  180.1910  178.7870  144.2600 N   0  0  0  0  0  1  0  0  0  0  0  0
  187.5230  177.1430  142.9210 C   0  0  2  0  0  3  0  0  0  0  0  0
  188.2820  176.0090  143.5960 C   0  0  0  0  0  1  0  0  0  0  0  0
  188.4540  177.8950  142.0120 C   0  0  0  0  0  0  0  0  0  0  0  0
  189.6510  178.6030  142.5800 C   0  0  0  0  0  1  0  0  0  0  0  0
  188.1960  177.9030  140.6970 C   0  0  0  0  0  3  0  0  0  0  0  0
  189.0450  178.6110  139.6880 C   0  0  0  0  0  2  0  0  0  0  0  0
  188.2780  178.8580  138.4800 N   0  0  0  0  0  2  0  0  0  0  0  0
  189.0660  178.3440  137.3750 C   0  0  0  0  0  2  0  0  0  0  0  0
  188.8460  174.5410  136.9950 C   0  0  0  0  0  0  0  0  0  0  0  0
  189.3920  175.8110  137.2910 C   0  0  0  0  0  0  0  0  0  0  0  0
  189.5740  173.3780  137.2170 O   0  0  0  0  0  1  0  0  0  0  0  0
  186.8040  175.5710  136.2000 C   0  0  0  0  0  3  0  0  0  0  0  0
  188.6090  176.9650  137.0250 C   0  0  0  0  0  0  0  0  0  0  0  0
  187.3240  176.8310  136.4890 C   0  0  0  0  0  3  0  0  0  0  0  0
  187.5640  174.4310  136.4530 C   0  0  0  0  0  3  0  0  0  0  0  0
  193.2350  176.2820  137.5580 C   0  0  0  0  0  1  0  0  0  0  0  0
  190.9330  175.7270  139.1060 O   0  0  0  0  0  0  0  0  0  0  0  0
  190.7570  175.9140  137.8700 C   0  0  0  0  0  0  0  0  0  0  0  0
  191.8820  176.2010  137.0330 N   0  0  0  0  0  2  0  0  0  0  0  0
  186.0430  177.3410  144.8260 O   0  0  0  0  0  0  0  0  0  0  0  0
  186.2910  177.8770  146.0930 C   0  0  0  0  0  2  0  0  0  0  0  0
  187.2840  177.1310  146.7280 O   0  0  0  0  0  0  0  0  0  0  0  0
  187.6740  177.9170  147.8120 C   0  0  0  0  0  2  0  0  0  0  0  0
  189.1780  177.8230  147.9890 C   0  0  0  0  0  2  0  0  0  0  0  0
  189.8040  177.4280  146.7360 N   0  0  0  0  0  2  0  0  0  0  0  0
  191.8130  176.7330  147.7140 O   0  0  0  0  0  0  0  0  0  0  0  0
  191.1200  176.8720  146.6710 C   0  0  0  0  0  0  0  0  0  0  0  0
  191.6800  176.4640  145.3560 C   0  0  0  0  0  1  0  0  0  0  0  0
  1  7  1  6  0  0  0
  1 34  1  0  0  0  0
  2  5  1  0  0  0  0
  3  6  1  1  0  0  0
  3  2  1  0  0  0  0
  3  9  1  0  0  0  0
  4 12  2  0  0  0  0
  4 14  1  0  0  0  0
  5 13  2  0  0  0  0
  5 12  1  0  0  0  0
  6 11  2  0  0  0  0
  9  8  1  6  0  0  0
  9  4  1  0  0  0  0
 10  6  1  0  0  0  0
 11  8  1  0  0  0  0
 13  7  2  0  0  0  0
 15 16  1  1  0  0  0
 15  1  1  0  0  0  0
 17 18  1  0  0  0  0
 17 15  1  0  0  0  0
 19 17  2  0  0  0  0
 20 19  1  0  0  0  0
 21 20  1  0  0  0  0
 22 21  1  0  0  0  0
 23 25  1  0  0  0  0
 23 24  1  0  0  0  0
 24 32  1  0  0  0  0
 26 29  1  0  0  0  0
 26 28  2  0  0  0  0
 27 24  2  0  0  0  0
 27 22  1  0  0  0  0
 28 27  1  0  0  0  0
 29 23  2  0  0  0  0
 32 31  2  0  0  0  0
 33 30  1  0  0  0  0
 33 32  1  0  0  0  0
 34 35  1  0  0  0  0
 35 36  1  0  0  0  0
 36 37  1  0  0  0  0
 37 38  1  0  0  0  0
 39 38  1  0  0  0  0
 41 39  1  0  0  0  0
 41 40  2  0  0  0  0
 42 41  1  0  0  0  0
M  END
>  <MODEL>
8

>  <REMARK>
 VINA RESULT:      -7.1      2.792      5.817
  Name = 
  14 active torsions:
  status: ('A' for Active; 'I' for Inactive)
    1  A    between atoms: C_2  and  C_22
    2  A    between atoms: C_5  and  C_6
    3  A    between atoms: C_5  and  C_19
    4  A    between atoms: N_11  and  C_34
    5  A    between atoms: N_11  and  C_36
    6  A    between atoms: N_14  and  C_28
    7  A    between atoms: C_16  and  O_23
    8  A    between atoms: C_16  and  C_28
    9  A    between atoms: C_18  and  C_19
   10  A    between atoms: C_19  and  O_41
   11  A    between atoms: O_23  and  C_33
   12  A    between atoms: C_24  and  C_36
   13  A    between atoms: C_26  and  C_34
   14  A    between atoms: C_33  and  O_41
                            x       y       z     vdW  Elec       q    Type
                         _______ _______ _______ _____ _____    ______ ____

>  <TORSDO>
F 14

$$$$
=
 OpenBabel11042412583D

 42 44  0  0  1  0  0  0  0  0999 V2000
  188.8310  177.3550  138.8710 C   0  0  2  0  0  3  0  0  0  0  0  0
  188.0700  177.3070  143.4110 N   0  0  0  0  0  2  0  0  0  0  0  0
  188.5230  177.0730  144.7430 C   0  0  2  0  0  3  0  0  0  0  0  0
  190.7260  178.0850  144.2400 C   0  0  0  0  0  0  0  0  0  0  0  0
  189.0080  177.8800  142.4960 C   0  0  0  0  0  0  0  0  0  0  0  0
  187.8250  177.3510  145.8260 C   0  0  0  0  0  0  0  0  0  0  0  0
  188.3420  178.2320  139.9970 C   0  0  0  0  0  3  0  0  0  0  0  0
  189.9130  177.5150  146.5060 N   0  0  0  0  0  2  0  0  0  0  0  0
  189.9700  177.1030  145.1070 C   0  0  1  0  0  3  0  0  0  0  0  0
  186.3720  177.6780  145.8560 C   0  0  0  0  0  1  0  0  0  0  0  0
  188.7090  177.6250  146.9020 N   0  0  0  0  0  0  0  0  0  0  0  0
  190.3090  178.3710  142.9970 C   0  0  0  0  0  3  0  0  0  0  0  0
  188.6750  178.0640  141.2500 C   0  0  0  0  0  0  0  0  0  0  0  0
  191.9990  178.5570  144.6650 N   0  0  0  0  0  1  0  0  0  0  0  0
  187.7140  176.6340  138.0890 C   0  0  2  0  0  3  0  0  0  0  0  0
  188.2780  175.8190  136.9330 C   0  0  0  0  0  1  0  0  0  0  0  0
  186.6880  177.5990  137.5640 C   0  0  0  0  0  0  0  0  0  0  0  0
  187.0760  178.6270  136.5410 C   0  0  0  0  0  1  0  0  0  0  0  0
  185.4310  177.5060  138.0190 C   0  0  0  0  0  3  0  0  0  0  0  0
  184.3180  178.4030  137.5760 C   0  0  0  0  0  2  0  0  0  0  0  0
  183.6060  178.9190  138.7320 N   0  0  0  0  0  2  0  0  0  0  0  0
  183.4220  177.8010  139.6390 C   0  0  0  0  0  2  0  0  0  0  0  0
  182.2480  179.0030  143.0790 C   0  0  0  0  0  0  0  0  0  0  0  0
  182.1840  178.6170  141.7210 C   0  0  0  0  0  0  0  0  0  0  0  0
  181.0990  179.3480  143.7810 O   0  0  0  0  0  1  0  0  0  0  0  0
  184.6560  178.7430  143.0710 C   0  0  0  0  0  3  0  0  0  0  0  0
  183.3930  178.2940  141.0490 C   0  0  0  0  0  0  0  0  0  0  0  0
  184.6110  178.3550  141.7340 C   0  0  0  0  0  3  0  0  0  0  0  0
  183.4760  179.0660  143.7410 C   0  0  0  0  0  3  0  0  0  0  0  0
  179.1220  179.6370  139.5660 C   0  0  0  0  0  1  0  0  0  0  0  0
  180.1400  177.5320  141.1580 O   0  0  0  0  0  0  0  0  0  0  0  0
  180.8700  178.5530  141.0290 C   0  0  0  0  0  0  0  0  0  0  0  0
  180.4130  179.6520  140.2350 N   0  0  0  0  0  2  0  0  0  0  0  0
  189.7480  176.4330  139.3840 O   0  0  0  0  0  0  0  0  0  0  0  0
  190.9760  176.7920  138.8200 C   0  0  0  0  0  2  0  0  0  0  0  0
  191.7020  175.6400  138.5140 O   0  0  0  0  0  0  0  0  0  0  0  0
  192.9150  176.1130  138.0130 C   0  0  0  0  0  2  0  0  0  0  0  0
  193.7760  174.9390  137.5830 C   0  0  0  0  0  2  0  0  0  0  0  0
  195.1600  175.1660  137.9700 N   0  0  0  0  0  2  0  0  0  0  0  0
  195.4030  173.1280  139.0910 O   0  0  0  0  0  0  0  0  0  0  0  0
  195.9220  174.2100  138.7100 C   0  0  0  0  0  0  0  0  0  0  0  0
  197.3410  174.5020  139.0430 C   0  0  0  0  0  1  0  0  0  0  0  0
  1 34  1  0  0  0  0
  1  7  1  1  0  0  0
  3  2  1  6  0  0  0
  3  9  1  0  0  0  0
  3  6  1  0  0  0  0
  4 14  1  0  0  0  0
  5 12  1  0  0  0  0
  5  2  1  0  0  0  0
  6 10  1  0  0  0  0
  6 11  2  0  0  0  0
  7 13  2  0  0  0  0
  8 11  1  0  0  0  0
  9  4  1  6  0  0  0
  9  8  1  0  0  0  0
 12  4  2  0  0  0  0
 13  5  2  0  0  0  0
 15 16  1  6  0  0  0
 15  1  1  0  0  0  0
 17 19  2  0  0  0  0
 17 15  1  0  0  0  0
 18 17  1  0  0  0  0
 20 19  1  0  0  0  0
 20 21  1  0  0  0  0
 21 22  1  0  0  0  0
 22 27  1  0  0  0  0
 23 29  1  0  0  0  0
 23 25  1  0  0  0  0
 24 23  2  0  0  0  0
 26 29  2  0  0  0  0
 27 24  1  0  0  0  0
 27 28  2  0  0  0  0
 28 26  1  0  0  0  0
 30 33  1  0  0  0  0
 32 31  2  0  0  0  0
 32 24  1  0  0  0  0
 33 32  1  0  0  0  0
 35 34  1  0  0  0  0
 36 35  1  0  0  0  0
 37 36  1  0  0  0  0
 38 39  1  0  0  0  0
 38 37  1  0  0  0  0
 39 41  1  0  0  0  0
 41 42  1  0  0  0  0
 41 40  2  0  0  0  0
M  END
>  <MODEL>
9

>  <REMARK>
 VINA RESULT:      -7.1      3.056      7.971
  Name = 
  14 active torsions:
  status: ('A' for Active; 'I' for Inactive)
    1  A    between atoms: C_2  and  C_22
    2  A    between atoms: C_5  and  C_6
    3  A    between atoms: C_5  and  C_19
    4  A    between atoms: N_11  and  C_34
    5  A    between atoms: N_11  and  C_36
    6  A    between atoms: N_14  and  C_28
    7  A    between atoms: C_16  and  O_23
    8  A    between atoms: C_16  and  C_28
    9  A    between atoms: C_18  and  C_19
   10  A    between atoms: C_19  and  O_41
   11  A    between atoms: O_23  and  C_33
   12  A    between atoms: C_24  and  C_36
   13  A    between atoms: C_26  and  C_34
   14  A    between atoms: C_33  and  O_41
                            x       y       z     vdW  Elec       q    Type
                         _______ _______ _______ _____ _____    ______ ____

>  <TORSDO>
F 14

$$$$
