=
 OpenBabel11032420193D

 32 35  0  0  1  0  0  0  0  0999 V2000
  181.6750  179.4240  139.2220 N   0  0  0  0  0  0  0  0  0  0  0  0
  181.7240  178.8380  142.0280 C   0  0  2  0  0  3  0  0  0  0  0  0
  187.8490  177.0880  143.4390 C   0  0  0  0  0  2  0  0  0  0  0  0
  184.0910  178.5010  141.6490 C   0  0  0  0  0  0  0  0  0  0  0  0
  189.8310  177.5920  141.7940 C   0  0  1  0  0  3  0  0  0  0  0  0
  182.7060  178.7550  139.6550 C   0  0  0  0  0  0  0  0  0  0  0  0
  187.3870  177.9510  141.0650 N   0  0  0  0  0  0  0  0  0  0  0  0
  186.4390  178.9950  141.4350 C   0  0  0  0  0  2  0  0  0  0  0  0
  185.2800  178.4050  142.1730 C   0  0  0  0  0  0  0  0  0  0  0  0
  185.4230  177.7550  143.5190 C   0  0  0  0  0  2  0  0  0  0  0  0
  180.7120  180.0270  140.1020 C   0  0  0  0  0  3  0  0  0  0  0  0
  182.9000  178.6140  141.1220 C   0  0  0  0  0  0  0  0  0  0  0  0
  186.8010  177.9320  144.1530 C   0  0  1  0  0  3  0  0  0  0  0  0
  186.7300  177.4980  145.6010 C   0  0  0  0  0  1  0  0  0  0  0  0
  188.3590  177.7780  142.1710 C   0  0  1  0  0  0  0  0  0  0  0  0
  181.0940  177.6290  142.2570 F   0  0  0  0  0  0  0  0  0  0  0  0
  189.3430  178.9170  142.3780 C   0  0  0  0  0  2  0  0  0  0  0  0
  190.5620  176.8580  142.8150 N   0  0  0  0  0  1  0  0  0  0  0  0
  180.7370  179.7960  141.4180 C   0  0  0  0  0  3  0  0  0  0  0  0
  184.7430  178.8460  138.2650 N   0  0  0  0  0  0  0  0  0  0  0  0
  185.4010  177.0140  136.8850 C   0  0  0  0  0  0  0  0  0  0  0  0
  183.4170  176.9050  138.2000 N   0  0  0  0  0  0  0  0  0  0  0  0
  185.6230  178.2990  137.3870 C   0  0  0  0  0  3  0  0  0  0  0  0
  184.2690  176.3260  137.3160 C   0  0  0  0  0  3  0  0  0  0  0  0
  183.6390  178.1620  138.6730 C   0  0  0  0  0  0  0  0  0  0  0  0
  186.8920  175.0910  136.1840 C   0  0  0  0  0  1  0  0  0  0  0  0
  186.3010  176.4010  135.9600 N   0  0  0  0  0  2  0  0  0  0  0  0
  188.4050  176.2170  139.1130 O   0  0  0  0  0  0  0  0  0  0  0  0
  189.2300  179.3380  137.4070 C   0  0  0  0  0  1  0  0  0  0  0  0
  188.5050  177.4560  138.9110 C   0  0  0  0  0  0  0  0  0  0  0  0
  189.1020  177.9230  137.7040 N   0  0  0  0  0  2  0  0  0  0  0  0
  188.0190  178.3830  139.8840 N   0  0  0  0  0  2  0  0  0  0  0  0
  1  6  2  0  0  0  0
  1 11  1  0  0  0  0
  2 16  1  6  0  0  0
  3 13  1  0  0  0  0
  4  9  2  0  0  0  0
  5 15  1  0  0  0  0
  5 17  1  0  0  0  0
  5 18  1  1  0  0  0
  6 12  1  0  0  0  0
  7  8  1  0  0  0  0
  7 15  1  0  0  0  0
  8  9  1  0  0  0  0
  9 10  1  0  0  0  0
 10 13  1  0  0  0  0
 11 19  2  0  0  0  0
 12  4  2  0  0  0  0
 12  2  1  0  0  0  0
 13 14  1  1  0  0  0
 15 17  1  1  0  0  0
 15  3  1  0  0  0  0
 19  2  1  0  0  0  0
 20 25  2  0  0  0  0
 21 24  1  0  0  0  0
 21 23  2  0  0  0  0
 22 25  1  0  0  0  0
 23 20  1  0  0  0  0
 24 22  2  0  0  0  0
 25  6  1  0  0  0  0
 27 26  1  0  0  0  0
 27 21  1  0  0  0  0
 29 31  1  0  0  0  0
 30 28  2  0  0  0  0
 30 32  1  0  0  0  0
 31 30  1  0  0  0  0
 32  7  1  0  0  0  0
M  END
>  <MODEL>
1

>  <REMARK>
 VINA RESULT:      -6.6      0.000      0.000
  Name = 
  3 active torsions:
  status: ('A' for Active; 'I' for Inactive)
    1  A    between atoms: C_10  and  N_13
    2  A    between atoms: C_14  and  C_32
    3  A    between atoms: N_15  and  N_29
                            x       y       z     vdW  Elec       q    Type
                         _______ _______ _______ _____ _____    ______ ____

>  <TORSDO>
F 3

$$$$
=
 OpenBabel11032420193D

 32 35  0  0  1  0  0  0  0  0999 V2000
  187.3920  177.2800  144.5040 N   0  0  0  0  0  0  0  0  0  0  0  0
  184.9620  178.6810  145.0960 C   0  0  2  0  0  3  0  0  0  0  0  0
  181.8370  179.4330  139.4180 C   0  0  0  0  0  2  0  0  0  0  0  0
  184.5170  178.3710  142.7370 C   0  0  0  0  0  0  0  0  0  0  0  0
  182.4940  178.0330  137.2970 C   0  0  1  0  0  3  0  0  0  0  0  0
  186.7700  177.8130  143.4900 C   0  0  0  0  0  0  0  0  0  0  0  0
  183.9650  177.9960  139.4100 N   0  0  0  0  0  0  0  0  0  0  0  0
  183.7480  177.3460  140.6980 C   0  0  0  0  0  2  0  0  0  0  0  0
  183.6300  178.3690  141.7820 C   0  0  0  0  0  0  0  0  0  0  0  0
  182.5020  179.3570  141.8440 C   0  0  0  0  0  2  0  0  0  0  0  0
  186.8140  177.1990  145.8170 C   0  0  0  0  0  3  0  0  0  0  0  0
  185.4030  178.3580  143.6980 C   0  0  0  0  0  0  0  0  0  0  0  0
  181.3870  179.0960  140.8340 C   0  0  1  0  0  3  0  0  0  0  0  0
  180.1970  179.9610  141.1870 C   0  0  0  0  0  1  0  0  0  0  0  0
  182.6480  178.2910  138.7990 C   0  0  1  0  0  0  0  0  0  0  0  0
  185.2490  180.0070  145.3630 F   0  0  0  0  0  0  0  0  0  0  0  0
  181.8530  177.0900  138.3150 C   0  0  0  0  0  2  0  0  0  0  0  0
  181.4640  178.8720  136.7070 N   0  0  0  0  0  1  0  0  0  0  0  0
  185.6640  177.8160  146.1060 C   0  0  0  0  0  3  0  0  0  0  0  0
  187.0720  178.7660  141.2340 N   0  0  0  0  0  0  0  0  0  0  0  0
  188.7700  177.9740  139.7560 C   0  0  0  0  0  0  0  0  0  0  0  0
  188.4890  177.0180  141.9210 N   0  0  0  0  0  0  0  0  0  0  0  0
  187.7090  178.8380  140.0370 C   0  0  0  0  0  3  0  0  0  0  0  0
  189.1470  177.0560  140.7340 C   0  0  0  0  0  3  0  0  0  0  0  0
  187.4500  177.8600  142.1780 C   0  0  0  0  0  0  0  0  0  0  0  0
  189.1790  178.9960  137.4760 C   0  0  0  0  0  1  0  0  0  0  0  0
  189.4680  178.0160  138.5110 N   0  0  0  0  0  2  0  0  0  0  0  0
  185.8830  178.7810  137.5250 O   0  0  0  0  0  0  0  0  0  0  0  0
  186.2940  175.1770  137.1020 C   0  0  0  0  0  1  0  0  0  0  0  0
  185.6900  177.5480  137.6910 C   0  0  0  0  0  0  0  0  0  0  0  0
  186.4600  176.6110  136.9410 N   0  0  0  0  0  2  0  0  0  0  0  0
  184.7090  177.0950  138.6270 N   0  0  0  0  0  2  0  0  0  0  0  0
  1 11  1  0  0  0  0
  2 16  1  1  0  0  0
  2 19  1  0  0  0  0
  3 13  1  0  0  0  0
  4 12  2  0  0  0  0
  5 18  1  6  0  0  0
  5 17  1  0  0  0  0
  5 15  1  0  0  0  0
  6 12  1  0  0  0  0
  6  1  2  0  0  0  0
  7  8  1  0  0  0  0
  8  9  1  0  0  0  0
  9 10  1  0  0  0  0
  9  4  2  0  0  0  0
 11 19  2  0  0  0  0
 12  2  1  0  0  0  0
 13 14  1  1  0  0  0
 13 10  1  0  0  0  0
 15 17  1  1  0  0  0
 15  7  1  0  0  0  0
 15  3  1  0  0  0  0
 20 25  2  0  0  0  0
 21 23  2  0  0  0  0
 21 24  1  0  0  0  0
 22 25  1  0  0  0  0
 23 20  1  0  0  0  0
 24 22  2  0  0  0  0
 25  6  1  0  0  0  0
 26 27  1  0  0  0  0
 27 21  1  0  0  0  0
 28 30  2  0  0  0  0
 30 32  1  0  0  0  0
 31 29  1  0  0  0  0
 31 30  1  0  0  0  0
 32  7  1  0  0  0  0
M  END
>  <MODEL>
2

>  <REMARK>
 VINA RESULT:      -6.5      1.840      5.822
  Name = 
  3 active torsions:
  status: ('A' for Active; 'I' for Inactive)
    1  A    between atoms: C_10  and  N_13
    2  A    between atoms: C_14  and  C_32
    3  A    between atoms: N_15  and  N_29
                            x       y       z     vdW  Elec       q    Type
                         _______ _______ _______ _____ _____    ______ ____

>  <TORSDO>
F 3

$$$$
=
 OpenBabel11032420193D

 32 35  0  0  1  0  0  0  0  0999 V2000
  186.7630  177.8730  144.0800 N   0  0  0  0  0  0  0  0  0  0  0  0
  184.2500  179.2530  144.0170 C   0  0  2  0  0  3  0  0  0  0  0  0
  182.1090  178.9040  137.8640 C   0  0  0  0  0  2  0  0  0  0  0  0
  184.2100  178.5300  141.7070 C   0  0  0  0  0  0  0  0  0  0  0  0
  183.1290  177.1930  136.1540 C   0  0  1  0  0  3  0  0  0  0  0  0
  186.3130  178.2010  142.9020 C   0  0  0  0  0  0  0  0  0  0  0  0
  184.2270  177.5750  138.4520 N   0  0  0  0  0  0  0  0  0  0  0  0
  183.8050  177.1430  139.7800 C   0  0  0  0  0  2  0  0  0  0  0  0
  183.4960  178.3290  140.6360 C   0  0  0  0  0  0  0  0  0  0  0  0
  182.3600  179.2670  140.3420 C   0  0  0  0  0  2  0  0  0  0  0  0
  185.9750  177.9920  145.2760 C   0  0  0  0  0  3  0  0  0  0  0  0
  184.9240  178.7160  142.7870 C   0  0  0  0  0  0  0  0  0  0  0  0
  181.4340  178.7930  139.2250 C   0  0  1  0  0  3  0  0  0  0  0  0
  180.1900  179.6550  139.2240 C   0  0  0  0  0  1  0  0  0  0  0  0
  183.0270  177.7080  137.5920 C   0  0  1  0  0  0  0  0  0  0  0  0
  184.4720  180.6150  144.0930 F   0  0  0  0  0  0  0  0  0  0  0  0
  182.3390  176.4110  137.2020 C   0  0  0  0  0  2  0  0  0  0  0  0
  182.2020  177.8780  135.2670 N   0  0  0  0  0  1  0  0  0  0  0  0
  184.7850  178.6010  145.2630 C   0  0  0  0  0  3  0  0  0  0  0  0
  186.9470  178.7320  140.5770 N   0  0  0  0  0  0  0  0  0  0  0  0
  188.9050  177.8120  139.5710 C   0  0  0  0  0  0  0  0  0  0  0  0
  188.3070  177.2630  141.8110 N   0  0  0  0  0  0  0  0  0  0  0  0
  187.7730  178.6280  139.5040 C   0  0  0  0  0  3  0  0  0  0  0  0
  189.1530  177.1280  140.7580 C   0  0  0  0  0  3  0  0  0  0  0  0
  187.2020  178.0530  141.7290 C   0  0  0  0  0  0  0  0  0  0  0  0
  190.4380  176.4140  138.1190 C   0  0  0  0  0  1  0  0  0  0  0  0
  189.8010  177.6740  138.4670 N   0  0  0  0  0  2  0  0  0  0  0  0
  186.3870  178.1010  136.7460 O   0  0  0  0  0  0  0  0  0  0  0  0
  186.9470  174.5070  137.0780 C   0  0  0  0  0  1  0  0  0  0  0  0
  186.2020  176.9100  137.1140 C   0  0  0  0  0  0  0  0  0  0  0  0
  187.0990  175.8940  136.6730 N   0  0  0  0  0  2  0  0  0  0  0  0
  185.1030  176.5860  137.9680 N   0  0  0  0  0  2  0  0  0  0  0  0
  1 11  1  0  0  0  0
  2 16  1  1  0  0  0
  2 19  1  0  0  0  0
  3 13  1  0  0  0  0
  4 12  2  0  0  0  0
  5 18  1  6  0  0  0
  5 17  1  0  0  0  0
  5 15  1  0  0  0  0
  6  1  2  0  0  0  0
  7  8  1  0  0  0  0
  8  9  1  0  0  0  0
  9  4  2  0  0  0  0
 10  9  1  0  0  0  0
 12  6  1  0  0  0  0
 12  2  1  0  0  0  0
 13 14  1  6  0  0  0
 13 10  1  0  0  0  0
 15 17  1  1  0  0  0
 15  3  1  0  0  0  0
 15  7  1  0  0  0  0
 19 11  2  0  0  0  0
 20 25  2  0  0  0  0
 21 24  1  0  0  0  0
 23 21  2  0  0  0  0
 23 20  1  0  0  0  0
 24 22  2  0  0  0  0
 25 22  1  0  0  0  0
 25  6  1  0  0  0  0
 26 27  1  0  0  0  0
 27 21  1  0  0  0  0
 28 30  2  0  0  0  0
 30 32  1  0  0  0  0
 31 29  1  0  0  0  0
 31 30  1  0  0  0  0
 32  7  1  0  0  0  0
M  END
>  <MODEL>
3

>  <REMARK>
 VINA RESULT:      -6.3      1.861      5.754
  Name = 
  3 active torsions:
  status: ('A' for Active; 'I' for Inactive)
    1  A    between atoms: C_10  and  N_13
    2  A    between atoms: C_14  and  C_32
    3  A    between atoms: N_15  and  N_29
                            x       y       z     vdW  Elec       q    Type
                         _______ _______ _______ _____ _____    ______ ____

>  <TORSDO>
F 3

$$$$
=
 OpenBabel11032420193D

 32 35  0  0  1  0  0  0  0  0999 V2000
  179.8890  179.5700  140.3680 N   0  0  0  0  0  0  0  0  0  0  0  0
  180.4010  179.6100  143.1880 C   0  0  2  0  0  3  0  0  0  0  0  0
  186.5370  177.5420  143.9800 C   0  0  0  0  0  2  0  0  0  0  0  0
  182.6300  178.9370  142.5280 C   0  0  0  0  0  0  0  0  0  0  0  0
  188.2220  177.4510  141.9690 C   0  0  1  0  0  3  0  0  0  0  0  0
  180.9310  178.9020  140.7760 C   0  0  0  0  0  0  0  0  0  0  0  0
  185.7200  177.9110  141.5740 N   0  0  0  0  0  0  0  0  0  0  0  0
  184.9300  179.1100  141.8340 C   0  0  0  0  0  2  0  0  0  0  0  0
  183.8840  178.8270  142.8640 C   0  0  0  0  0  0  0  0  0  0  0  0
  184.2200  178.4750  144.2850 C   0  0  0  0  0  2  0  0  0  0  0  0
  179.1460  180.4540  141.2220 C   0  0  0  0  0  3  0  0  0  0  0  0
  181.3750  179.0640  142.1850 C   0  0  0  0  0  0  0  0  0  0  0  0
  185.6990  178.6330  144.6330 C   0  0  1  0  0  3  0  0  0  0  0  0
  185.8580  178.5370  146.1350 C   0  0  0  0  0  1  0  0  0  0  0  0
  186.8590  177.8780  142.5210 C   0  0  1  0  0  0  0  0  0  0  0  0
  179.7370  178.5580  143.7910 F   0  0  0  0  0  0  0  0  0  0  0  0
  187.9430  178.9180  142.2960 C   0  0  0  0  0  2  0  0  0  0  0  0
  189.0700  176.8820  143.0040 N   0  0  0  0  0  1  0  0  0  0  0  0
  179.3910  180.5140  142.5350 C   0  0  0  0  0  3  0  0  0  0  0  0
  181.8200  178.3890  138.5320 N   0  0  0  0  0  0  0  0  0  0  0  0
  182.9810  176.3540  138.0790 C   0  0  0  0  0  0  0  0  0  0  0  0
  182.1150  176.8110  140.2510 N   0  0  0  0  0  0  0  0  0  0  0  0
  182.4840  177.5900  137.6570 C   0  0  0  0  0  3  0  0  0  0  0  0
  182.7790  175.9820  139.4060 C   0  0  0  0  0  3  0  0  0  0  0  0
  181.6270  178.0080  139.8250 C   0  0  0  0  0  0  0  0  0  0  0  0
  184.1700  174.1720  137.5940 C   0  0  0  0  0  1  0  0  0  0  0  0
  183.6860  175.4830  137.1930 N   0  0  0  0  0  2  0  0  0  0  0  0
  184.5930  179.6340  139.6730 O   0  0  0  0  0  0  0  0  0  0  0  0
  187.1770  178.2190  137.5140 C   0  0  0  0  0  1  0  0  0  0  0  0
  185.5610  178.9120  139.3140 C   0  0  0  0  0  0  0  0  0  0  0  0
  186.0540  179.0140  137.9800 N   0  0  0  0  0  2  0  0  0  0  0  0
  186.1580  178.0020  140.2400 N   0  0  0  0  0  2  0  0  0  0  0  0
  1  6  2  0  0  0  0
  1 11  1  0  0  0  0
  2 16  1  6  0  0  0
  3 13  1  0  0  0  0
  4  9  2  0  0  0  0
  5 17  1  0  0  0  0
  5 15  1  0  0  0  0
  5 18  1  1  0  0  0
  6 12  1  0  0  0  0
  7  8  1  0  0  0  0
  7 15  1  0  0  0  0
  8  9  1  0  0  0  0
  9 10  1  0  0  0  0
 10 13  1  0  0  0  0
 11 19  2  0  0  0  0
 12  4  2  0  0  0  0
 12  2  1  0  0  0  0
 13 14  1  1  0  0  0
 15 17  1  1  0  0  0
 15  3  1  0  0  0  0
 19  2  1  0  0  0  0
 20 25  2  0  0  0  0
 21 24  1  0  0  0  0
 23 21  2  0  0  0  0
 23 20  1  0  0  0  0
 24 22  2  0  0  0  0
 25 22  1  0  0  0  0
 25  6  1  0  0  0  0
 27 26  1  0  0  0  0
 27 21  1  0  0  0  0
 29 31  1  0  0  0  0
 30 28  2  0  0  0  0
 30 32  1  0  0  0  0
 31 30  1  0  0  0  0
 32  7  1  0  0  0  0
M  END
>  <MODEL>
4

>  <REMARK>
 VINA RESULT:      -6.1      1.942      2.370
  Name = 
  3 active torsions:
  status: ('A' for Active; 'I' for Inactive)
    1  A    between atoms: C_10  and  N_13
    2  A    between atoms: C_14  and  C_32
    3  A    between atoms: N_15  and  N_29
                            x       y       z     vdW  Elec       q    Type
                         _______ _______ _______ _____ _____    ______ ____

>  <TORSDO>
F 3

$$$$
=
 OpenBabel11032420193D

 32 35  0  0  1  0  0  0  0  0999 V2000
  183.6140  179.4510  142.9950 N   0  0  0  0  0  0  0  0  0  0  0  0
  185.6250  178.3780  144.7350 C   0  0  2  0  0  3  0  0  0  0  0  0
  190.3620  176.0800  140.8820 C   0  0  0  0  0  2  0  0  0  0  0  0
  186.8280  177.9860  142.6710 C   0  0  0  0  0  0  0  0  0  0  0  0
  190.5190  176.7600  138.3510 C   0  0  1  0  0  3  0  0  0  0  0  0
  184.4940  178.6630  142.4450 C   0  0  0  0  0  0  0  0  0  0  0  0
  188.4500  177.3720  139.7550 N   0  0  0  0  0  0  0  0  0  0  0  0
  188.2810  178.3840  140.7920 C   0  0  0  0  0  2  0  0  0  0  0  0
  187.9740  177.7360  142.1040 C   0  0  0  0  0  0  0  0  0  0  0  0
  188.9540  176.8520  142.8200 C   0  0  0  0  0  2  0  0  0  0  0  0
  183.7400  179.9410  144.3400 C   0  0  0  0  0  3  0  0  0  0  0  0
  185.6810  178.2540  143.2400 C   0  0  0  0  0  0  0  0  0  0  0  0
  190.3500  176.8400  142.2020 C   0  0  1  0  0  3  0  0  0  0  0  0
  191.3030  176.1630  143.1630 C   0  0  0  0  0  1  0  0  0  0  0  0
  189.8720  176.9550  139.7250 C   0  0  1  0  0  0  0  0  0  0  0  0
  185.1800  177.1830  145.2690 F   0  0  0  0  0  0  0  0  0  0  0  0
  190.8570  177.9850  139.2000 C   0  0  0  0  0  2  0  0  0  0  0  0
  191.6280  175.8190  138.4050 N   0  0  0  0  0  1  0  0  0  0  0  0
  184.6920  179.4800  145.1580 C   0  0  0  0  0  3  0  0  0  0  0  0
  183.4750  177.1300  140.8010 N   0  0  0  0  0  0  0  0  0  0  0  0
  183.8250  177.3950  138.4560 C   0  0  0  0  0  0  0  0  0  0  0  0
  184.8410  178.8780  140.0200 N   0  0  0  0  0  0  0  0  0  0  0  0
  183.2410  176.7170  139.5290 C   0  0  0  0  0  3  0  0  0  0  0  0
  184.6360  178.4930  138.7340 C   0  0  0  0  0  3  0  0  0  0  0  0
  184.2740  178.2020  141.0570 C   0  0  0  0  0  0  0  0  0  0  0  0
  183.8860  175.6530  136.6190 C   0  0  0  0  0  1  0  0  0  0  0  0
  183.6050  176.9950  137.1020 N   0  0  0  0  0  2  0  0  0  0  0  0
  187.2820  175.9740  137.6270 O   0  0  0  0  0  0  0  0  0  0  0  0
  187.1790  179.2860  136.0920 C   0  0  0  0  0  1  0  0  0  0  0  0
  187.4510  177.2150  137.4940 C   0  0  0  0  0  0  0  0  0  0  0  0
  187.0270  177.8560  136.2940 N   0  0  0  0  0  2  0  0  0  0  0  0
  188.0600  177.9710  138.5430 N   0  0  0  0  0  2  0  0  0  0  0  0
  1 11  1  0  0  0  0
  2 19  1  0  0  0  0
  2 16  1  1  0  0  0
  3 13  1  0  0  0  0
  4 12  2  0  0  0  0
  5 18  1  1  0  0  0
  5 17  1  0  0  0  0
  5 15  1  0  0  0  0
  6  1  2  0  0  0  0
  6 12  1  0  0  0  0
  7  8  1  0  0  0  0
  8  9  1  0  0  0  0
  9  4  2  0  0  0  0
  9 10  1  0  0  0  0
 11 19  2  0  0  0  0
 12  2  1  0  0  0  0
 13 10  1  0  0  0  0
 13 14  1  1  0  0  0
 15 17  1  1  0  0  0
 15  7  1  0  0  0  0
 15  3  1  0  0  0  0
 20 25  2  0  0  0  0
 21 24  1  0  0  0  0
 21 23  2  0  0  0  0
 22 25  1  0  0  0  0
 23 20  1  0  0  0  0
 24 22  2  0  0  0  0
 25  6  1  0  0  0  0
 26 27  1  0  0  0  0
 27 21  1  0  0  0  0
 29 31  1  0  0  0  0
 30 28  2  0  0  0  0
 30 32  1  0  0  0  0
 31 30  1  0  0  0  0
 32  7  1  0  0  0  0
M  END
>  <MODEL>
5

>  <REMARK>
 VINA RESULT:      -5.8      2.190      3.500
  Name = 
  3 active torsions:
  status: ('A' for Active; 'I' for Inactive)
    1  A    between atoms: C_10  and  N_13
    2  A    between atoms: C_14  and  C_32
    3  A    between atoms: N_15  and  N_29
                            x       y       z     vdW  Elec       q    Type
                         _______ _______ _______ _____ _____    ______ ____

>  <TORSDO>
F 3

$$$$
=
 OpenBabel11032420193D

 32 35  0  0  1  0  0  0  0  0999 V2000
  189.5370  178.7960  143.4950 N   0  0  0  0  0  0  0  0  0  0  0  0
  191.0980  177.0140  141.8790 C   0  0  2  0  0  3  0  0  0  0  0  0
  187.5510  175.7780  136.5450 C   0  0  0  0  0  2  0  0  0  0  0  0
  189.2690  177.2540  140.3120 C   0  0  0  0  0  0  0  0  0  0  0  0
  185.4950  177.2730  135.8910 C   0  0  1  0  0  3  0  0  0  0  0  0
  188.9020  178.1710  142.5440 C   0  0  0  0  0  0  0  0  0  0  0  0
  186.6480  177.5440  138.1770 N   0  0  0  0  0  0  0  0  0  0  0  0
  187.9320  178.1460  138.5180 C   0  0  0  0  0  2  0  0  0  0  0  0
  188.8550  177.1150  139.0850 C   0  0  0  0  0  0  0  0  0  0  0  0
  189.3650  175.9550  138.2800 C   0  0  0  0  0  2  0  0  0  0  0  0
  190.9690  178.7780  143.6180 C   0  0  0  0  0  3  0  0  0  0  0  0
  189.6900  177.4100  141.5400 C   0  0  0  0  0  0  0  0  0  0  0  0
  189.0320  176.0330  136.7920 C   0  0  1  0  0  3  0  0  0  0  0  0
  189.8370  174.9840  136.0560 C   0  0  0  0  0  1  0  0  0  0  0  0
  186.7150  177.0380  136.7850 C   0  0  1  0  0  0  0  0  0  0  0  0
  191.0880  175.7530  142.4450 F   0  0  0  0  0  0  0  0  0  0  0  0
  186.7680  178.0950  135.6940 C   0  0  0  0  0  2  0  0  0  0  0  0
  185.3990  176.2770  134.8340 N   0  0  0  0  0  1  0  0  0  0  0  0
  191.7190  177.9800  142.8510 C   0  0  0  0  0  3  0  0  0  0  0  0
  186.6740  177.4840  143.3510 N   0  0  0  0  0  0  0  0  0  0  0  0
  184.6710  178.4270  142.4590 C   0  0  0  0  0  0  0  0  0  0  0  0
  186.8080  179.0950  141.6430 N   0  0  0  0  0  0  0  0  0  0  0  0
  185.3180  177.5610  143.3450 C   0  0  0  0  0  3  0  0  0  0  0  0
  185.4550  179.1970  141.6030 C   0  0  0  0  0  3  0  0  0  0  0  0
  187.4250  178.2400  142.5040 C   0  0  0  0  0  0  0  0  0  0  0  0
  182.4640  179.0390  143.5380 C   0  0  0  0  0  1  0  0  0  0  0  0
  183.2480  178.5400  142.4200 N   0  0  0  0  0  2  0  0  0  0  0  0
  183.9720  177.0660  138.8560 O   0  0  0  0  0  0  0  0  0  0  0  0
  183.7440  180.7060  138.6820 C   0  0  0  0  0  1  0  0  0  0  0  0
  184.3320  178.2600  138.6810 C   0  0  0  0  0  0  0  0  0  0  0  0
  183.3840  179.3100  138.8540 N   0  0  0  0  0  2  0  0  0  0  0  0
  185.6810  178.5560  138.3130 N   0  0  0  0  0  2  0  0  0  0  0  0
  1 11  1  0  0  0  0
  2 16  1  1  0  0  0
  2 19  1  0  0  0  0
  3 15  1  0  0  0  0
  3 13  1  0  0  0  0
  4 12  2  0  0  0  0
  5 18  1  6  0  0  0
  5 15  1  0  0  0  0
  6  1  2  0  0  0  0
  7 32  1  0  0  0  0
  7  8  1  0  0  0  0
  8  9  1  0  0  0  0
  9  4  2  0  0  0  0
 10  9  1  0  0  0  0
 12  2  1  0  0  0  0
 12  6  1  0  0  0  0
 13 14  1  6  0  0  0
 13 10  1  0  0  0  0
 15 17  1  6  0  0  0
 15  7  1  0  0  0  0
 17  5  1  0  0  0  0
 19 11  2  0  0  0  0
 21 23  2  0  0  0  0
 22 25  1  0  0  0  0
 23 20  1  0  0  0  0
 24 22  2  0  0  0  0
 24 21  1  0  0  0  0
 25  6  1  0  0  0  0
 25 20  2  0  0  0  0
 27 21  1  0  0  0  0
 27 26  1  0  0  0  0
 29 31  1  0  0  0  0
 30 31  1  0  0  0  0
 30 28  2  0  0  0  0
 32 30  1  0  0  0  0
M  END
>  <MODEL>
6

>  <REMARK>
 VINA RESULT:      -5.8      2.607      7.139
  Name = 
  3 active torsions:
  status: ('A' for Active; 'I' for Inactive)
    1  A    between atoms: C_10  and  N_13
    2  A    between atoms: C_14  and  C_32
    3  A    between atoms: N_15  and  N_29
                            x       y       z     vdW  Elec       q    Type
                         _______ _______ _______ _____ _____    ______ ____

>  <TORSDO>
F 3

$$$$
=
 OpenBabel11032420193D

 32 35  0  0  1  0  0  0  0  0999 V2000
  181.1250  178.6740  140.7530 N   0  0  0  0  0  0  0  0  0  0  0  0
  182.9490  178.9190  142.9500 C   0  0  2  0  0  3  0  0  0  0  0  0
  188.8620  177.4670  140.6070 C   0  0  0  0  0  2  0  0  0  0  0  0
  184.6230  178.4160  141.2750 C   0  0  0  0  0  0  0  0  0  0  0  0
  189.3390  177.4170  138.0260 C   0  0  1  0  0  3  0  0  0  0  0  0
  182.2970  178.1280  140.5940 C   0  0  0  0  0  0  0  0  0  0  0  0
  186.9330  177.6240  138.9200 N   0  0  0  0  0  0  0  0  0  0  0  0
  186.2510  178.7580  139.5330 C   0  0  0  0  0  2  0  0  0  0  0  0
  185.8840  178.4400  140.9470 C   0  0  0  0  0  0  0  0  0  0  0  0
  186.9110  178.2010  142.0160 C   0  0  0  0  0  2  0  0  0  0  0  0
  180.8080  179.5340  141.8600 C   0  0  0  0  0  3  0  0  0  0  0  0
  183.3560  178.4080  141.5980 C   0  0  0  0  0  0  0  0  0  0  0  0
  188.3430  178.5110  141.5860 C   0  0  1  0  0  3  0  0  0  0  0  0
  189.2290  178.5150  142.8120 C   0  0  0  0  0  1  0  0  0  0  0  0
  188.3870  177.7480  139.1790 C   0  0  1  0  0  0  0  0  0  0  0  0
  182.7850  177.8460  143.8060 F   0  0  0  0  0  0  0  0  0  0  0  0
  189.1020  178.8680  138.4430 C   0  0  0  0  0  2  0  0  0  0  0  0
  190.6420  176.9870  138.5070 N   0  0  0  0  0  1  0  0  0  0  0  0
  181.6590  179.6900  142.8790 C   0  0  0  0  0  3  0  0  0  0  0  0
  182.5280  175.8960  139.5690 N   0  0  0  0  0  0  0  0  0  0  0  0
  182.8930  175.6240  137.2260 C   0  0  0  0  0  0  0  0  0  0  0  0
  182.6960  177.7940  138.1900 N   0  0  0  0  0  0  0  0  0  0  0  0
  182.7070  175.0780  138.4990 C   0  0  0  0  0  3  0  0  0  0  0  0
  182.8830  177.0110  137.0970 C   0  0  0  0  0  3  0  0  0  0  0  0
  182.5260  177.2500  139.4260 C   0  0  0  0  0  0  0  0  0  0  0  0
  183.8000  173.5370  136.1160 C   0  0  0  0  0  1  0  0  0  0  0  0
  183.0830  174.8010  136.0740 N   0  0  0  0  0  2  0  0  0  0  0  0
  186.5310  175.3620  137.3160 O   0  0  0  0  0  0  0  0  0  0  0  0
  185.9540  177.8590  134.7150 C   0  0  0  0  0  1  0  0  0  0  0  0
  186.4310  176.4940  136.7740 C   0  0  0  0  0  0  0  0  0  0  0  0
  186.0990  176.5820  135.3900 N   0  0  0  0  0  2  0  0  0  0  0  0
  186.6460  177.6800  137.5440 N   0  0  0  0  0  2  0  0  0  0  0  0
  1 11  1  0  0  0  0
  2 16  1  1  0  0  0
  3 13  1  0  0  0  0
  4 12  2  0  0  0  0
  5 17  1  0  0  0  0
  5 18  1  1  0  0  0
  5 15  1  0  0  0  0
  6  1  2  0  0  0  0
  6 12  1  0  0  0  0
  7 15  1  0  0  0  0
  7  8  1  0  0  0  0
  8  9  1  0  0  0  0
  9  4  2  0  0  0  0
  9 10  1  0  0  0  0
 11 19  2  0  0  0  0
 12  2  1  0  0  0  0
 13 10  1  0  0  0  0
 13 14  1  1  0  0  0
 15 17  1  6  0  0  0
 15  3  1  0  0  0  0
 19  2  1  0  0  0  0
 21 23  2  0  0  0  0
 22 25  1  0  0  0  0
 23 20  1  0  0  0  0
 24 21  1  0  0  0  0
 24 22  2  0  0  0  0
 25 20  2  0  0  0  0
 25  6  1  0  0  0  0
 27 26  1  0  0  0  0
 27 21  1  0  0  0  0
 29 31  1  0  0  0  0
 30 28  2  0  0  0  0
 30 32  1  0  0  0  0
 31 30  1  0  0  0  0
 32  7  1  0  0  0  0
M  END
>  <MODEL>
7

>  <REMARK>
 VINA RESULT:      -5.8      1.833      2.863
  Name = 
  3 active torsions:
  status: ('A' for Active; 'I' for Inactive)
    1  A    between atoms: C_10  and  N_13
    2  A    between atoms: C_14  and  C_32
    3  A    between atoms: N_15  and  N_29
                            x       y       z     vdW  Elec       q    Type
                         _______ _______ _______ _____ _____    ______ ____

>  <TORSDO>
F 3

$$$$
=
 OpenBabel11032420193D

 32 35  0  0  1  0  0  0  0  0999 V2000
  186.8230  179.0030  137.5600 N   0  0  0  0  0  0  0  0  0  0  0  0
  187.8150  176.3980  136.8880 C   0  0  2  0  0  3  0  0  0  0  0  0
  182.7160  172.3420  137.2180 C   0  0  0  0  0  2  0  0  0  0  0  0
  185.4940  175.7460  137.1040 C   0  0  0  0  0  0  0  0  0  0  0  0
  180.2500  173.2410  137.2570 C   0  0  1  0  0  3  0  0  0  0  0  0
  186.0570  177.9950  137.8680 C   0  0  0  0  0  0  0  0  0  0  0  0
  182.2460  174.8500  137.5000 N   0  0  0  0  0  0  0  0  0  0  0  0
  183.1990  175.3250  136.5040 C   0  0  0  0  0  2  0  0  0  0  0  0
  184.5790  174.8570  136.8420 C   0  0  0  0  0  0  0  0  0  0  0  0
  184.9650  173.4060  136.8390 C   0  0  0  0  0  2  0  0  0  0  0  0
  187.9980  178.8670  136.7440 C   0  0  0  0  0  3  0  0  0  0  0  0
  186.4090  176.6470  137.3520 C   0  0  0  0  0  0  0  0  0  0  0  0
  183.8970  172.4770  136.2660 C   0  0  1  0  0  3  0  0  0  0  0  0
  184.5070  171.1100  136.0470 C   0  0  0  0  0  1  0  0  0  0  0  0
  181.7460  173.5190  137.0830 C   0  0  1  0  0  0  0  0  0  0  0  0
  188.5560  175.9020  137.9440 F   0  0  0  0  0  0  0  0  0  0  0  0
  180.8350  173.4990  135.8680 C   0  0  0  0  0  2  0  0  0  0  0  0
  179.9780  171.8200  137.4050 N   0  0  0  0  0  1  0  0  0  0  0  0
  188.4590  177.6640  136.3900 C   0  0  0  0  0  3  0  0  0  0  0  0
  184.9590  178.1120  140.0750 N   0  0  0  0  0  0  0  0  0  0  0  0
  182.6670  178.7360  140.3040 C   0  0  0  0  0  0  0  0  0  0  0  0
  183.6930  178.6110  138.1560 N   0  0  0  0  0  0  0  0  0  0  0  0
  183.8860  178.3560  140.8710 C   0  0  0  0  0  3  0  0  0  0  0  0
  182.5970  178.8580  138.9180 C   0  0  0  0  0  3  0  0  0  0  0  0
  184.8720  178.2310  138.7220 C   0  0  0  0  0  0  0  0  0  0  0  0
  181.5440  179.0030  142.5570 C   0  0  0  0  0  1  0  0  0  0  0  0
  181.5140  179.0030  141.1030 N   0  0  0  0  0  2  0  0  0  0  0  0
  180.8830  175.5590  139.8440 O   0  0  0  0  0  0  0  0  0  0  0  0
  179.1350  177.8520  137.6020 C   0  0  0  0  0  1  0  0  0  0  0  0
  180.5580  176.1400  138.7740 C   0  0  0  0  0  0  0  0  0  0  0  0
  179.5400  177.1370  138.7990 N   0  0  0  0  0  2  0  0  0  0  0  0
  181.2090  175.8000  137.5470 N   0  0  0  0  0  2  0  0  0  0  0  0
  1  6  2  0  0  0  0
  2 12  1  0  0  0  0
  2 16  1  1  0  0  0
  4 12  2  0  0  0  0
  5 18  1  6  0  0  0
  6 25  1  0  0  0  0
  7 32  1  0  0  0  0
  8  9  1  0  0  0  0
  8  7  1  0  0  0  0
  9  4  2  0  0  0  0
 10  9  1  0  0  0  0
 11  1  1  0  0  0  0
 12  6  1  0  0  0  0
 13 14  1  1  0  0  0
 13 10  1  0  0  0  0
 13  3  1  0  0  0  0
 15 17  1  6  0  0  0
 15  3  1  0  0  0  0
 15  5  1  0  0  0  0
 15  7  1  0  0  0  0
 17  5  1  0  0  0  0
 19 11  2  0  0  0  0
 19  2  1  0  0  0  0
 20 23  1  0  0  0  0
 21 23  2  0  0  0  0
 21 27  1  0  0  0  0
 22 25  1  0  0  0  0
 22 24  2  0  0  0  0
 24 21  1  0  0  0  0
 25 20  2  0  0  0  0
 27 26  1  0  0  0  0
 29 31  1  0  0  0  0
 30 31  1  0  0  0  0
 30 28  2  0  0  0  0
 32 30  1  0  0  0  0
M  END
>  <MODEL>
8

>  <REMARK>
 VINA RESULT:      -5.3      3.616      7.985
  Name = 
  3 active torsions:
  status: ('A' for Active; 'I' for Inactive)
    1  A    between atoms: C_10  and  N_13
    2  A    between atoms: C_14  and  C_32
    3  A    between atoms: N_15  and  N_29
                            x       y       z     vdW  Elec       q    Type
                         _______ _______ _______ _____ _____    ______ ____

>  <TORSDO>
F 3

$$$$
=
 OpenBabel11032420193D

 32 35  0  0  1  0  0  0  0  0999 V2000
  187.1720  178.0360  143.1720 N   0  0  0  0  0  0  0  0  0  0  0  0
  184.6150  179.0660  143.9600 C   0  0  2  0  0  3  0  0  0  0  0  0
  180.6240  178.1830  138.8760 C   0  0  0  0  0  2  0  0  0  0  0  0
  183.9110  178.2500  141.7930 C   0  0  0  0  0  0  0  0  0  0  0  0
  181.2450  176.5550  136.9130 C   0  0  1  0  0  3  0  0  0  0  0  0
  186.3150  178.2530  142.2140 C   0  0  0  0  0  0  0  0  0  0  0  0
  182.9790  177.1730  138.7140 N   0  0  0  0  0  0  0  0  0  0  0  0
  183.0870  176.7440  140.1040 C   0  0  0  0  0  2  0  0  0  0  0  0
  182.9170  177.9120  141.0220 C   0  0  0  0  0  0  0  0  0  0  0  0
  181.6300  178.6780  141.1290 C   0  0  0  0  0  2  0  0  0  0  0  0
  186.8170  178.0970  144.5630 C   0  0  0  0  0  3  0  0  0  0  0  0
  184.9100  178.5730  142.5730 C   0  0  0  0  0  0  0  0  0  0  0  0
  180.4600  178.0390  140.3840 C   0  0  1  0  0  3  0  0  0  0  0  0
  179.1800  178.7280  140.8040 C   0  0  0  0  0  1  0  0  0  0  0  0
  181.5550  177.1100  138.3060 C   0  0  1  0  0  0  0  0  0  0  0  0
  184.6580  180.4470  143.9660 F   0  0  0  0  0  0  0  0  0  0  0  0
  180.9650  175.7180  138.1610 C   0  0  0  0  0  2  0  0  0  0  0  0
  179.9910  177.0730  136.3920 N   0  0  0  0  0  1  0  0  0  0  0  0
  185.6180  178.5420  144.9520 C   0  0  0  0  0  3  0  0  0  0  0  0
  187.9410  177.5440  140.4980 N   0  0  0  0  0  0  0  0  0  0  0  0
  187.5900  177.9880  138.1800 C   0  0  0  0  0  0  0  0  0  0  0  0
  186.0120  178.7050  139.8160 N   0  0  0  0  0  0  0  0  0  0  0  0
  188.3590  177.4410  139.2100 C   0  0  0  0  0  3  0  0  0  0  0  0
  186.3990  178.6270  138.5170 C   0  0  0  0  0  3  0  0  0  0  0  0
  186.7760  178.1760  140.8110 C   0  0  0  0  0  0  0  0  0  0  0  0
  189.1450  177.1330  136.3740 C   0  0  0  0  0  1  0  0  0  0  0  0
  187.9910  177.9020  136.8120 N   0  0  0  0  0  2  0  0  0  0  0  0
  184.1680  177.8450  136.2670 O   0  0  0  0  0  0  0  0  0  0  0  0
  185.4930  174.4500  136.4870 C   0  0  0  0  0  1  0  0  0  0  0  0
  184.3720  176.6890  136.7240 C   0  0  0  0  0  0  0  0  0  0  0  0
  185.2070  175.7880  136.0020 N   0  0  0  0  0  2  0  0  0  0  0  0
  183.7730  176.2900  137.9590 N   0  0  0  0  0  2  0  0  0  0  0  0
  1 11  1  0  0  0  0
  2 16  1  6  0  0  0
  2 19  1  0  0  0  0
  3 13  1  0  0  0  0
  4 12  2  0  0  0  0
  5 18  1  1  0  0  0
  5 17  1  0  0  0  0
  5 15  1  0  0  0  0
  6 12  1  0  0  0  0
  6  1  2  0  0  0  0
  7  8  1  0  0  0  0
  8  9  1  0  0  0  0
  9 10  1  0  0  0  0
  9  4  2  0  0  0  0
 11 19  2  0  0  0  0
 12  2  1  0  0  0  0
 13 14  1  1  0  0  0
 13 10  1  0  0  0  0
 15 17  1  1  0  0  0
 15  7  1  0  0  0  0
 15  3  1  0  0  0  0
 20 25  2  0  0  0  0
 21 24  1  0  0  0  0
 21 23  2  0  0  0  0
 22 25  1  0  0  0  0
 23 20  1  0  0  0  0
 24 22  2  0  0  0  0
 25  6  1  0  0  0  0
 26 27  1  0  0  0  0
 27 21  1  0  0  0  0
 28 30  2  0  0  0  0
 30 32  1  0  0  0  0
 31 29  1  0  0  0  0
 31 30  1  0  0  0  0
 32  7  1  0  0  0  0
M  END
>  <MODEL>
9

>  <REMARK>
 VINA RESULT:      -5.3      2.147      5.941
  Name = 
  3 active torsions:
  status: ('A' for Active; 'I' for Inactive)
    1  A    between atoms: C_10  and  N_13
    2  A    between atoms: C_14  and  C_32
    3  A    between atoms: N_15  and  N_29
                            x       y       z     vdW  Elec       q    Type
                         _______ _______ _______ _____ _____    ______ ____

>  <TORSDO>
F 3

$$$$
