=
 OpenBabel11042413103D

 32 34  0  0  1  0  0  0  0  0999 V2000
  188.0860  177.4150  144.0830 C   0  0  0  0  0  0  0  0  0  0  0  0
  187.1240  178.1920  147.6690 C   0  0  0  0  0  1  0  0  0  0  0  0
  187.3240  177.7170  145.1820 C   0  0  0  0  0  0  0  0  0  0  0  0
  190.0750  177.3680  145.4300 C   0  0  0  0  0  0  0  0  0  0  0  0
  191.5390  177.1600  145.5680 C   0  0  0  0  0  1  0  0  0  0  0  0
  187.2240  177.2630  142.8800 C   0  0  1  0  0  3  0  0  0  0  0  0
  185.9460  177.8060  144.8450 N   0  0  0  0  0  0  0  0  0  0  0  0
  189.3040  177.6940  146.5590 C   0  0  0  0  0  3  0  0  0  0  0  0
  187.9150  177.8720  146.4480 C   0  0  0  0  0  0  0  0  0  0  0  0
  189.4650  177.2220  144.1770 C   0  0  0  0  0  3  0  0  0  0  0  0
  185.8100  177.5750  143.4060 C   0  0  0  0  0  2  0  0  0  0  0  0
  186.7140  179.0300  141.2970 C   0  0  0  0  0  2  0  0  0  0  0  0
  187.6210  178.1720  141.7440 C   0  0  0  0  0  0  0  0  0  0  0  0
  190.3410  176.6670  140.0560 C   0  0  0  0  0  0  0  0  0  0  0  0
  190.4130  176.7300  137.6410 C   0  0  0  0  0  0  0  0  0  0  0  0
  189.1010  178.3180  138.8540 N   0  0  0  0  0  0  0  0  0  0  0  0
  190.9160  176.1640  136.3590 C   0  0  0  0  0  1  0  0  0  0  0  0
  189.5540  177.8380  137.6600 C   0  0  0  0  0  0  0  0  0  0  0  0
  190.7380  176.0890  141.2550 O   0  0  0  0  0  1  0  0  0  0  0  0
  190.8100  176.1510  138.8470 C   0  0  0  0  0  3  0  0  0  0  0  0
  188.9700  178.2970  141.2670 N   0  0  0  0  0  2  0  0  0  0  0  0
  189.4620  177.7560  140.0410 C   0  0  0  0  0  0  0  0  0  0  0  0
  189.1780  178.4460  136.4570 O   0  0  0  0  0  0  0  0  0  0  0  0
  187.9810  178.1800  135.8500 C   0  0  0  0  0  0  0  0  0  0  0  0
  186.9250  177.9560  135.3120 C   0  0  0  0  0  3  0  0  0  0  0  0
  184.9740  178.5850  145.6000 C   0  0  0  0  0  2  0  0  0  0  0  0
  184.1700  179.8160  144.5310 S   0  0  0  0  0  0  0  0  0  0  0  0
  182.6500  178.8230  144.4470 C   0  0  0  0  0  2  0  0  0  0  0  0
  181.9520  179.0390  143.1150 C   0  0  0  0  0  2  0  0  0  0  0  0
  180.5260  179.2430  143.3180 N   0  0  0  0  0  0  0  0  0  0  0  0
  180.2480  180.5110  142.9240 O   0  0  0  0  0  1  0  0  0  0  0  0
  179.8410  178.3600  142.3930 C   0  0  0  0  0  1  0  0  0  0  0  0
  1 10  2  0  0  0  0
  1  3  1  0  0  0  0
  3  9  2  0  0  0  0
  4  5  1  0  0  0  0
  4  8  2  0  0  0  0
  6 13  1  6  0  0  0
  6 11  1  0  0  0  0
  6  1  1  0  0  0  0
  7  3  1  0  0  0  0
  7 26  1  0  0  0  0
  9  8  1  0  0  0  0
  9  2  1  0  0  0  0
 10  4  1  0  0  0  0
 11  7  1  0  0  0  0
 12 13  2  0  0  0  0
 14 19  1  0  0  0  0
 15 18  1  0  0  0  0
 15 20  2  0  0  0  0
 16 22  1  0  0  0  0
 17 15  1  0  0  0  0
 18 16  2  0  0  0  0
 20 14  1  0  0  0  0
 21 13  1  0  0  0  0
 22 14  2  0  0  0  0
 22 21  1  0  0  0  0
 23 18  1  0  0  0  0
 24 23  1  0  0  0  0
 25 24  3  0  0  0  0
 27 26  1  0  0  0  0
 28 27  1  0  0  0  0
 29 30  1  0  0  0  0
 29 28  1  0  0  0  0
 31 30  1  0  0  0  0
 32 30  1  0  0  0  0
M  END
>  <MODEL>
1

>  <REMARK>
 VINA RESULT:      -8.1      0.000      0.000
  Name = 
  9 active torsions:
  status: ('A' for Active; 'I' for Inactive)
    1  A    between atoms: C_1  and  O_3
    2  A    between atoms: O_3  and  C_17
    3  A    between atoms: N_6  and  C_15
    4  A    between atoms: C_7  and  S_16
    5  A    between atoms: C_7  and  N_23
    6  A    between atoms: C_15  and  C_30
    7  A    between atoms: S_16  and  C_30
    8  A    between atoms: C_18  and  C_21
    9  A    between atoms: C_18  and  N_27
                            x       y       z     vdW  Elec       q    Type
                         _______ _______ _______ _____ _____    ______ ____

>  <TORSDO>
F 9

$$$$
=
 OpenBabel11042413103D

 32 34  0  0  1  0  0  0  0  0999 V2000
  188.1740  177.1640  145.0300 C   0  0  0  0  0  0  0  0  0  0  0  0
  184.9820  179.1380  145.5810 C   0  0  0  0  0  1  0  0  0  0  0  0
  186.9660  177.7660  144.7870 C   0  0  0  0  0  0  0  0  0  0  0  0
  188.1250  177.9070  147.3150 C   0  0  0  0  0  0  0  0  0  0  0  0
  188.7310  177.9630  148.6700 C   0  0  0  0  0  1  0  0  0  0  0  0
  188.6480  176.4450  143.8180 C   0  0  1  0  0  3  0  0  0  0  0  0
  186.5340  177.5350  143.4530 N   0  0  0  0  0  0  0  0  0  0  0  0
  186.8950  178.5410  147.0710 C   0  0  0  0  0  3  0  0  0  0  0  0
  186.2990  178.4770  145.8000 C   0  0  0  0  0  0  0  0  0  0  0  0
  188.7740  177.2070  146.2890 C   0  0  0  0  0  3  0  0  0  0  0  0
  187.5610  176.7470  142.7680 C   0  0  0  0  0  2  0  0  0  0  0  0
  191.0670  176.2620  143.8760 C   0  0  0  0  0  2  0  0  0  0  0  0
  190.0160  176.8850  143.3610 C   0  0  0  0  0  0  0  0  0  0  0  0
  191.5350  177.4480  140.2160 C   0  0  0  0  0  0  0  0  0  0  0  0
  190.4290  176.6670  138.2130 C   0  0  0  0  0  0  0  0  0  0  0  0
  189.1830  177.0250  140.2220 N   0  0  0  0  0  0  0  0  0  0  0  0
  190.5060  176.2600  136.7840 C   0  0  0  0  0  1  0  0  0  0  0  0
  189.2110  176.6610  138.9070 C   0  0  0  0  0  0  0  0  0  0  0  0
  192.6920  177.8490  140.8710 O   0  0  0  0  0  1  0  0  0  0  0  0
  191.5910  177.0700  138.8730 C   0  0  0  0  0  3  0  0  0  0  0  0
  190.2310  177.7870  142.2630 N   0  0  0  0  0  2  0  0  0  0  0  0
  190.3080  177.4050  140.8890 C   0  0  0  0  0  0  0  0  0  0  0  0
  188.0360  176.2920  138.2440 O   0  0  0  0  0  0  0  0  0  0  0  0
  187.2050  177.2140  137.6670 C   0  0  0  0  0  0  0  0  0  0  0  0
  186.4760  178.0330  137.1660 C   0  0  0  0  0  3  0  0  0  0  0  0
  185.6200  178.4100  142.7310 C   0  0  0  0  0  2  0  0  0  0  0  0
  186.3490  178.9350  141.1520 S   0  0  0  0  0  0  0  0  0  0  0  0
  184.7150  178.9900  140.3590 C   0  0  0  0  0  2  0  0  0  0  0  0
  183.7260  178.1300  141.1290 C   0  0  0  0  0  2  0  0  0  0  0  0
  182.3660  178.5910  140.8980 N   0  0  0  0  0  0  0  0  0  0  0  0
  181.6730  177.5410  140.3930 O   0  0  0  0  0  1  0  0  0  0  0  0
  181.7950  178.8810  142.2000 C   0  0  0  0  0  1  0  0  0  0  0  0
  1 10  1  0  0  0  0
  2  9  1  0  0  0  0
  3  1  2  0  0  0  0
  3  9  1  0  0  0  0
  4  5  1  0  0  0  0
  6 13  1  6  0  0  0
  6  1  1  0  0  0  0
  7  3  1  0  0  0  0
  8  4  1  0  0  0  0
  9  8  2  0  0  0  0
 10  4  2  0  0  0  0
 11  7  1  0  0  0  0
 11  6  1  0  0  0  0
 13 12  2  0  0  0  0
 14 19  1  0  0  0  0
 14 22  2  0  0  0  0
 15 20  2  0  0  0  0
 15 18  1  0  0  0  0
 16 22  1  0  0  0  0
 17 15  1  0  0  0  0
 18 16  2  0  0  0  0
 20 14  1  0  0  0  0
 21 13  1  0  0  0  0
 22 21  1  0  0  0  0
 23 18  1  0  0  0  0
 24 23  1  0  0  0  0
 25 24  3  0  0  0  0
 26  7  1  0  0  0  0
 27 26  1  0  0  0  0
 28 29  1  0  0  0  0
 28 27  1  0  0  0  0
 30 29  1  0  0  0  0
 30 32  1  0  0  0  0
 31 30  1  0  0  0  0
M  END
>  <MODEL>
2

>  <REMARK>
 VINA RESULT:      -7.9      1.893      2.686
  Name = 
  9 active torsions:
  status: ('A' for Active; 'I' for Inactive)
    1  A    between atoms: C_1  and  O_3
    2  A    between atoms: O_3  and  C_17
    3  A    between atoms: N_6  and  C_15
    4  A    between atoms: C_7  and  S_16
    5  A    between atoms: C_7  and  N_23
    6  A    between atoms: C_15  and  C_30
    7  A    between atoms: S_16  and  C_30
    8  A    between atoms: C_18  and  C_21
    9  A    between atoms: C_18  and  N_27
                            x       y       z     vdW  Elec       q    Type
                         _______ _______ _______ _____ _____    ______ ____

>  <TORSDO>
F 9

$$$$
=
 OpenBabel11042413103D

 32 34  0  0  1  0  0  0  0  0999 V2000
  187.1210  178.5580  141.6170 C   0  0  0  0  0  0  0  0  0  0  0  0
  186.5740  177.1800  145.1090 C   0  0  0  0  0  1  0  0  0  0  0  0
  187.3820  178.0350  142.8580 C   0  0  0  0  0  0  0  0  0  0  0  0
  184.7620  178.5640  142.0760 C   0  0  0  0  0  0  0  0  0  0  0  0
  183.3660  178.8670  141.6690 C   0  0  0  0  0  1  0  0  0  0  0  0
  188.3900  178.8180  140.8870 C   0  0  1  0  0  3  0  0  0  0  0  0
  188.7790  177.8860  143.0720 N   0  0  0  0  0  0  0  0  0  0  0  0
  185.0190  178.0110  143.3430 C   0  0  0  0  0  3  0  0  0  0  0  0
  186.3360  177.7410  143.7490 C   0  0  0  0  0  0  0  0  0  0  0  0
  185.8210  178.8450  141.2020 C   0  0  0  0  0  3  0  0  0  0  0  0
  189.4770  178.3180  141.8590 C   0  0  0  0  0  2  0  0  0  0  0  0
  188.8640  176.8610  139.5330 C   0  0  0  0  0  2  0  0  0  0  0  0
  188.4610  178.1240  139.5510 C   0  0  0  0  0  0  0  0  0  0  0  0
  187.2260  177.5470  136.2860 C   0  0  0  0  0  0  0  0  0  0  0  0
  184.9030  176.9450  135.9920 C   0  0  0  0  0  0  0  0  0  0  0  0
  185.6190  178.0720  137.9750 N   0  0  0  0  0  0  0  0  0  0  0  0
  183.8390  176.3170  135.1640 C   0  0  0  0  0  1  0  0  0  0  0  0
  184.6130  177.5210  137.2360 C   0  0  0  0  0  0  0  0  0  0  0  0
  188.5310  177.5690  135.8120 O   0  0  0  0  0  1  0  0  0  0  0  0
  186.2150  176.9670  135.5170 C   0  0  0  0  0  3  0  0  0  0  0  0
  187.9280  178.6850  138.3400 N   0  0  0  0  0  2  0  0  0  0  0  0
  186.9080  178.0890  137.5380 C   0  0  0  0  0  0  0  0  0  0  0  0
  183.2950  177.5330  137.7050 O   0  0  0  0  0  0  0  0  0  0  0  0
  182.8580  176.6720  138.6750 C   0  0  0  0  0  0  0  0  0  0  0  0
  182.4820  175.9060  139.5270 C   0  0  0  0  0  3  0  0  0  0  0  0
  189.3620  176.9280  144.0010 C   0  0  0  0  0  2  0  0  0  0  0  0
  190.5960  175.8920  143.1620 S   0  0  0  0  0  0  0  0  0  0  0  0
  191.7350  176.0210  144.5720 C   0  0  0  0  0  2  0  0  0  0  0  0
  191.3490  177.1940  145.4560 C   0  0  0  0  0  2  0  0  0  0  0  0
  191.7390  176.9390  146.8340 N   0  0  0  0  0  0  0  0  0  0  0  0
  190.6050  176.9720  147.5770 O   0  0  0  0  0  1  0  0  0  0  0  0
  192.2310  175.5750  146.8850 C   0  0  0  0  0  1  0  0  0  0  0  0
  1  3  1  0  0  0  0
  3  7  1  0  0  0  0
  3  9  2  0  0  0  0
  4  8  2  0  0  0  0
  5  4  1  0  0  0  0
  6 13  1  6  0  0  0
  6  1  1  0  0  0  0
  6 11  1  0  0  0  0
  7 26  1  0  0  0  0
  8  9  1  0  0  0  0
  9  2  1  0  0  0  0
 10  1  2  0  0  0  0
 10  4  1  0  0  0  0
 11  7  1  0  0  0  0
 12 13  2  0  0  0  0
 14 22  2  0  0  0  0
 15 18  1  0  0  0  0
 17 15  1  0  0  0  0
 18 23  1  0  0  0  0
 18 16  2  0  0  0  0
 19 14  1  0  0  0  0
 20 15  2  0  0  0  0
 20 14  1  0  0  0  0
 21 13  1  0  0  0  0
 22 16  1  0  0  0  0
 22 21  1  0  0  0  0
 23 24  1  0  0  0  0
 24 25  3  0  0  0  0
 27 26  1  0  0  0  0
 27 28  1  0  0  0  0
 28 29  1  0  0  0  0
 29 30  1  0  0  0  0
 30 32  1  0  0  0  0
 30 31  1  0  0  0  0
M  END
>  <MODEL>
3

>  <REMARK>
 VINA RESULT:      -7.8      3.086      6.509
  Name = 
  9 active torsions:
  status: ('A' for Active; 'I' for Inactive)
    1  A    between atoms: C_1  and  O_3
    2  A    between atoms: O_3  and  C_17
    3  A    between atoms: N_6  and  C_15
    4  A    between atoms: C_7  and  S_16
    5  A    between atoms: C_7  and  N_23
    6  A    between atoms: C_15  and  C_30
    7  A    between atoms: S_16  and  C_30
    8  A    between atoms: C_18  and  C_21
    9  A    between atoms: C_18  and  N_27
                            x       y       z     vdW  Elec       q    Type
                         _______ _______ _______ _____ _____    ______ ____

>  <TORSDO>
F 9

$$$$
=
 OpenBabel11042413103D

 32 34  0  0  1  0  0  0  0  0999 V2000
  185.9210  178.7220  142.3460 C   0  0  0  0  0  0  0  0  0  0  0  0
  187.9500  176.8950  144.9800 C   0  0  0  0  0  1  0  0  0  0  0  0
  186.9480  178.0370  142.9450 C   0  0  0  0  0  0  0  0  0  0  0  0
  184.6520  178.6750  144.3870 C   0  0  0  0  0  0  0  0  0  0  0  0
  183.4380  179.0340  145.1630 C   0  0  0  0  0  1  0  0  0  0  0  0
  186.2790  179.0710  140.9460 C   0  0  1  0  0  3  0  0  0  0  0  0
  188.0380  177.8570  142.0510 N   0  0  0  0  0  0  0  0  0  0  0  0
  185.6920  177.9590  145.0040 C   0  0  0  0  0  3  0  0  0  0  0  0
  186.8560  177.6320  144.2880 C   0  0  0  0  0  0  0  0  0  0  0  0
  184.7640  179.0660  143.0450 C   0  0  0  0  0  3  0  0  0  0  0  0
  187.6730  178.4430  140.7600 C   0  0  0  0  0  2  0  0  0  0  0  0
  184.1540  178.0400  140.3870 C   0  0  0  0  0  2  0  0  0  0  0  0
  185.2860  178.5600  139.9320 C   0  0  0  0  0  0  0  0  0  0  0  0
  187.2500  178.2060  137.0110 C   0  0  0  0  0  0  0  0  0  0  0  0
  187.1650  176.1300  135.7750 C   0  0  0  0  0  0  0  0  0  0  0  0
  185.3770  176.7400  137.2400 N   0  0  0  0  0  0  0  0  0  0  0  0
  187.7940  175.1860  134.8130 C   0  0  0  0  0  1  0  0  0  0  0  0
  185.9150  175.8580  136.3490 C   0  0  0  0  0  0  0  0  0  0  0  0
  187.9110  179.3830  137.3390 O   0  0  0  0  0  1  0  0  0  0  0  0
  187.8260  177.3130  136.1050 C   0  0  0  0  0  3  0  0  0  0  0  0
  185.4100  178.7910  138.5190 N   0  0  0  0  0  2  0  0  0  0  0  0
  186.0140  177.8920  137.5900 C   0  0  0  0  0  0  0  0  0  0  0  0
  185.2280  174.6910  135.9980 O   0  0  0  0  0  0  0  0  0  0  0  0
  185.0480  173.6580  136.8780 C   0  0  0  0  0  0  0  0  0  0  0  0
  184.9010  172.7470  137.6530 C   0  0  0  0  0  3  0  0  0  0  0  0
  189.0130  176.7810  142.1660 C   0  0  0  0  0  2  0  0  0  0  0  0
  190.2420  176.8850  140.8310 S   0  0  0  0  0  0  0  0  0  0  0  0
  191.4860  177.5730  141.9620 C   0  0  0  0  0  2  0  0  0  0  0  0
  191.4220  176.8700  143.3070 C   0  0  0  0  0  2  0  0  0  0  0  0
  191.7300  177.8010  144.3810 N   0  0  0  0  0  0  0  0  0  0  0  0
  190.8170  178.8010  144.3110 O   0  0  0  0  0  1  0  0  0  0  0  0
  191.4850  177.1000  145.6280 C   0  0  0  0  0  1  0  0  0  0  0  0
  1  3  2  0  0  0  0
  1 10  1  0  0  0  0
  3  9  1  0  0  0  0
  4  8  1  0  0  0  0
  4  5  1  0  0  0  0
  6 13  1  6  0  0  0
  6  1  1  0  0  0  0
  7 26  1  0  0  0  0
  7  3  1  0  0  0  0
  9  2  1  0  0  0  0
  9  8  2  0  0  0  0
 10  4  2  0  0  0  0
 11  6  1  0  0  0  0
 11  7  1  0  0  0  0
 13 12  2  0  0  0  0
 14 19  1  0  0  0  0
 14 22  2  0  0  0  0
 15 20  2  0  0  0  0
 15 18  1  0  0  0  0
 16 22  1  0  0  0  0
 17 15  1  0  0  0  0
 18 16  2  0  0  0  0
 20 14  1  0  0  0  0
 21 13  1  0  0  0  0
 22 21  1  0  0  0  0
 23 18  1  0  0  0  0
 23 24  1  0  0  0  0
 24 25  3  0  0  0  0
 27 28  1  0  0  0  0
 27 26  1  0  0  0  0
 28 29  1  0  0  0  0
 29 30  1  0  0  0  0
 30 32  1  0  0  0  0
 31 30  1  0  0  0  0
M  END
>  <MODEL>
4

>  <REMARK>
 VINA RESULT:      -7.8      3.316      6.020
  Name = 
  9 active torsions:
  status: ('A' for Active; 'I' for Inactive)
    1  A    between atoms: C_1  and  O_3
    2  A    between atoms: O_3  and  C_17
    3  A    between atoms: N_6  and  C_15
    4  A    between atoms: C_7  and  S_16
    5  A    between atoms: C_7  and  N_23
    6  A    between atoms: C_15  and  C_30
    7  A    between atoms: S_16  and  C_30
    8  A    between atoms: C_18  and  C_21
    9  A    between atoms: C_18  and  N_27
                            x       y       z     vdW  Elec       q    Type
                         _______ _______ _______ _____ _____    ______ ____

>  <TORSDO>
F 9

$$$$
=
 OpenBabel11042413103D

 32 34  0  0  1  0  0  0  0  0999 V2000
  187.4500  178.2360  143.3400 C   0  0  0  0  0  0  0  0  0  0  0  0
  185.2970  177.8040  146.4330 C   0  0  0  0  0  1  0  0  0  0  0  0
  187.0870  178.0240  144.6450 C   0  0  0  0  0  0  0  0  0  0  0  0
  185.1460  178.4870  142.7030 C   0  0  0  0  0  0  0  0  0  0  0  0
  184.1110  178.7550  141.6730 C   0  0  0  0  0  1  0  0  0  0  0  0
  188.9310  178.2340  143.2060 C   0  0  1  0  0  3  0  0  0  0  0  0
  188.2280  177.8560  145.4760 N   0  0  0  0  0  0  0  0  0  0  0  0
  184.7640  178.2540  144.0360 C   0  0  0  0  0  3  0  0  0  0  0  0
  185.7340  178.0210  145.0250 C   0  0  0  0  0  0  0  0  0  0  0  0
  186.5010  178.4820  142.3470 C   0  0  0  0  0  3  0  0  0  0  0  0
  189.4240  177.9330  144.6340 C   0  0  0  0  0  2  0  0  0  0  0  0
  189.2370  175.9410  142.4700 C   0  0  0  0  0  2  0  0  0  0  0  0
  189.4380  177.2250  142.2060 C   0  0  0  0  0  0  0  0  0  0  0  0
  189.7450  176.3640  138.7880 C   0  0  0  0  0  0  0  0  0  0  0  0
  187.9360  176.8840  137.2720 C   0  0  0  0  0  0  0  0  0  0  0  0
  188.1610  178.0670  139.3370 N   0  0  0  0  0  0  0  0  0  0  0  0
  187.2240  176.6260  135.9920 C   0  0  0  0  0  1  0  0  0  0  0  0
  187.4920  177.8700  138.1650 C   0  0  0  0  0  0  0  0  0  0  0  0
  190.8750  175.6190  139.1000 O   0  0  0  0  0  1  0  0  0  0  0  0
  189.0710  176.1370  137.5880 C   0  0  0  0  0  3  0  0  0  0  0  0
  189.9350  177.5830  140.9060 N   0  0  0  0  0  2  0  0  0  0  0  0
  189.2600  177.3360  139.6720 C   0  0  0  0  0  0  0  0  0  0  0  0
  186.3750  178.6480  137.8420 O   0  0  0  0  0  0  0  0  0  0  0  0
  185.0960  178.2060  138.0470 C   0  0  0  0  0  0  0  0  0  0  0  0
  183.9720  177.8060  138.2270 C   0  0  0  0  0  3  0  0  0  0  0  0
  188.2150  177.1290  146.7380 C   0  0  0  0  0  2  0  0  0  0  0  0
  188.3290  178.2780  148.1410 S   0  0  0  0  0  0  0  0  0  0  0  0
  190.1380  178.1160  148.1910 C   0  0  0  0  0  2  0  0  0  0  0  0
  190.5570  176.7370  147.7120 C   0  0  0  0  0  2  0  0  0  0  0  0
  191.9470  176.7510  147.2810 N   0  0  0  0  0  0  0  0  0  0  0  0
  192.6680  176.1420  148.2550 O   0  0  0  0  0  1  0  0  0  0  0  0
  192.0300  175.9010  146.1080 C   0  0  0  0  0  1  0  0  0  0  0  0
  1  3  1  0  0  0  0
  3  9  2  0  0  0  0
  3  7  1  0  0  0  0
  4  8  2  0  0  0  0
  5  4  1  0  0  0  0
  6 13  1  6  0  0  0
  6  1  1  0  0  0  0
  6 11  1  0  0  0  0
  7 26  1  0  0  0  0
  8  9  1  0  0  0  0
  9  2  1  0  0  0  0
 10  4  1  0  0  0  0
 10  1  2  0  0  0  0
 11  7  1  0  0  0  0
 13 12  2  0  0  0  0
 14 19  1  0  0  0  0
 14 22  2  0  0  0  0
 15 20  2  0  0  0  0
 15 18  1  0  0  0  0
 16 22  1  0  0  0  0
 17 15  1  0  0  0  0
 18 16  2  0  0  0  0
 20 14  1  0  0  0  0
 21 13  1  0  0  0  0
 22 21  1  0  0  0  0
 23 24  1  0  0  0  0
 23 18  1  0  0  0  0
 24 25  3  0  0  0  0
 26 27  1  0  0  0  0
 27 28  1  0  0  0  0
 29 28  1  0  0  0  0
 30 29  1  0  0  0  0
 30 31  1  0  0  0  0
 32 30  1  0  0  0  0
M  END
>  <MODEL>
5

>  <REMARK>
 VINA RESULT:      -7.8      2.833      5.664
  Name = 
  9 active torsions:
  status: ('A' for Active; 'I' for Inactive)
    1  A    between atoms: C_1  and  O_3
    2  A    between atoms: O_3  and  C_17
    3  A    between atoms: N_6  and  C_15
    4  A    between atoms: C_7  and  S_16
    5  A    between atoms: C_7  and  N_23
    6  A    between atoms: C_15  and  C_30
    7  A    between atoms: S_16  and  C_30
    8  A    between atoms: C_18  and  C_21
    9  A    between atoms: C_18  and  N_27
                            x       y       z     vdW  Elec       q    Type
                         _______ _______ _______ _____ _____    ______ ____

>  <TORSDO>
F 9

$$$$
=
 OpenBabel11042413103D

 32 34  0  0  1  0  0  0  0  0999 V2000
  188.1220  177.4520  144.2290 C   0  0  0  0  0  0  0  0  0  0  0  0
  185.1590  178.4310  146.3850 C   0  0  0  0  0  1  0  0  0  0  0  0
  186.8770  177.8960  144.5930 C   0  0  0  0  0  0  0  0  0  0  0  0
  188.7020  177.0810  146.5320 C   0  0  0  0  0  0  0  0  0  0  0  0
  189.6660  176.6250  147.5650 C   0  0  0  0  0  1  0  0  0  0  0  0
  188.2540  177.4350  142.7480 C   0  0  1  0  0  3  0  0  0  0  0  0
  186.0900  178.2160  143.4540 N   0  0  0  0  0  0  0  0  0  0  0  0
  187.4330  177.5500  146.9150 C   0  0  0  0  0  3  0  0  0  0  0  0
  186.5030  177.9630  145.9470 C   0  0  0  0  0  0  0  0  0  0  0  0
  189.0540  177.0260  145.1760 C   0  0  0  0  0  3  0  0  0  0  0  0
  186.9040  177.9930  142.2570 C   0  0  0  0  0  2  0  0  0  0  0  0
  190.2240  178.7960  143.1450 C   0  0  0  0  0  1  0  0  0  0  0  0
  189.4200  178.2470  142.2440 C   0  0  0  0  0  0  0  0  0  0  0  0
  189.4530  176.6220  139.1020 C   0  0  0  0  0  0  0  0  0  0  0  0
  187.5380  176.8360  137.6420 C   0  0  0  0  0  0  0  0  0  0  0  0
  187.9360  178.4500  139.3590 N   0  0  0  0  0  0  0  0  0  0  0  0
  186.7270  176.3140  136.5090 C   0  0  0  0  0  1  0  0  0  0  0  0
  187.1770  178.0110  138.3150 C   0  0  0  0  0  0  0  0  0  0  0  0
  190.5950  175.9340  139.4930 O   0  0  0  0  0  1  0  0  0  0  0  0
  188.6860  176.1470  138.0370 C   0  0  0  0  0  3  0  0  0  0  0  0
  189.8200  178.2840  140.8650 N   0  0  0  0  0  0  0  0  0  0  0  0
  189.0500  177.7830  139.7720 C   0  0  0  0  0  0  0  0  0  0  0  0
  186.0480  178.7280  137.9030 O   0  0  0  0  0  0  0  0  0  0  0  0
  184.7860  178.4060  138.3280 C   0  0  0  0  0  0  0  0  0  0  0  0
  183.6780  178.1270  138.7110 C   0  0  0  0  0  3  0  0  0  0  0  0
  184.9810  179.1610  143.4710 C   0  0  0  0  0  2  0  0  0  0  0  0
  183.6430  178.5980  142.3780 S   0  0  0  0  0  0  0  0  0  0  0  0
  182.3930  178.9380  143.6520 C   0  0  0  0  0  2  0  0  0  0  0  0
  181.0920  179.3870  143.0090 C   0  0  0  0  0  2  0  0  0  0  0  0
  180.5560  178.3330  142.1610 N   0  0  0  0  0  0  0  0  0  0  0  0
  179.4440  177.8600  142.7760 O   0  0  0  0  0  1  0  0  0  0  0  0
  180.1150  178.9680  140.9330 C   0  0  0  0  0  1  0  0  0  0  0  0
  1  3  2  0  0  0  0
  1 10  1  0  0  0  0
  3  9  1  0  0  0  0
  4  8  1  0  0  0  0
  4  5  1  0  0  0  0
  6 13  1  1  0  0  0
  6  1  1  0  0  0  0
  7 26  1  0  0  0  0
  7  3  1  0  0  0  0
  9  2  1  0  0  0  0
  9  8  2  0  0  0  0
 10  4  2  0  0  0  0
 11  6  1  0  0  0  0
 11  7  1  0  0  0  0
 13 12  1  0  0  0  0
 14 19  1  0  0  0  0
 14 22  2  0  0  0  0
 15 20  2  0  0  0  0
 15 18  1  0  0  0  0
 16 22  1  0  0  0  0
 17 15  1  0  0  0  0
 18 16  2  0  0  0  0
 20 14  1  0  0  0  0
 21 13  2  0  0  0  0
 22 21  1  0  0  0  0
 23 18  1  0  0  0  0
 23 24  1  0  0  0  0
 24 25  3  0  0  0  0
 27 26  1  0  0  0  0
 27 28  1  0  0  0  0
 29 28  1  0  0  0  0
 30 31  1  0  0  0  0
 30 29  1  0  0  0  0
 32 30  1  0  0  0  0
M  END
>  <MODEL>
6

>  <REMARK>
 VINA RESULT:      -7.5      1.858      2.305
  Name = 
  9 active torsions:
  status: ('A' for Active; 'I' for Inactive)
    1  A    between atoms: C_1  and  O_3
    2  A    between atoms: O_3  and  C_17
    3  A    between atoms: N_6  and  C_15
    4  A    between atoms: C_7  and  S_16
    5  A    between atoms: C_7  and  N_23
    6  A    between atoms: C_15  and  C_30
    7  A    between atoms: S_16  and  C_30
    8  A    between atoms: C_18  and  C_21
    9  A    between atoms: C_18  and  N_27
                            x       y       z     vdW  Elec       q    Type
                         _______ _______ _______ _____ _____    ______ ____

>  <TORSDO>
F 9

$$$$
=
 OpenBabel11042413103D

 32 34  0  0  1  0  0  0  0  0999 V2000
  187.5560  178.3330  140.8160 C   0  0  0  0  0  0  0  0  0  0  0  0
  187.8600  176.7490  144.2500 C   0  0  0  0  0  1  0  0  0  0  0  0
  188.0940  177.6970  141.9050 C   0  0  0  0  0  0  0  0  0  0  0  0
  185.4320  178.5130  141.9270 C   0  0  0  0  0  0  0  0  0  0  0  0
  184.0190  178.9680  141.9490 C   0  0  0  0  0  1  0  0  0  0  0  0
  188.5920  178.5330  139.7680 C   0  0  1  0  0  3  0  0  0  0  0  0
  189.4720  177.4090  141.7050 N   0  0  0  0  0  0  0  0  0  0  0  0
  185.9720  177.8460  143.0410 C   0  0  0  0  0  3  0  0  0  0  0  0
  187.3130  177.4300  143.0430 C   0  0  0  0  0  0  0  0  0  0  0  0
  186.2290  178.7650  140.8020 C   0  0  0  0  0  3  0  0  0  0  0  0
  189.8460  177.8680  140.3650 C   0  0  0  0  0  2  0  0  0  0  0  0
  188.3580  178.6990  137.3580 C   0  0  0  0  0  2  0  0  0  0  0  0
  188.2130  177.9390  138.4350 C   0  0  0  0  0  0  0  0  0  0  0  0
  188.1460  175.1650  136.2400 C   0  0  0  0  0  0  0  0  0  0  0  0
  190.1560  173.8600  135.9240 C   0  0  0  0  0  0  0  0  0  0  0  0
  189.8810  175.2040  137.8820 N   0  0  0  0  0  0  0  0  0  0  0  0
  190.9540  172.9190  135.0930 C   0  0  0  0  0  1  0  0  0  0  0  0
  190.6350  174.3290  137.1550 C   0  0  0  0  0  0  0  0  0  0  0  0
  186.8990  175.5800  135.7890 O   0  0  0  0  0  1  0  0  0  0  0  0
  188.9030  174.2780  135.4740 C   0  0  0  0  0  3  0  0  0  0  0  0
  187.9060  176.5470  138.2490 N   0  0  0  0  0  2  0  0  0  0  0  0
  188.6640  175.6380  137.4520 C   0  0  0  0  0  0  0  0  0  0  0  0
  191.8740  173.8880  137.6310 O   0  0  0  0  0  0  0  0  0  0  0  0
  192.9870  174.6850  137.6100 C   0  0  0  0  0  0  0  0  0  0  0  0
  193.9620  175.3940  137.5950 C   0  0  0  0  0  3  0  0  0  0  0  0
  190.1850  176.3350  142.3830 C   0  0  0  0  0  2  0  0  0  0  0  0
  191.8280  176.8960  142.9190 S   0  0  0  0  0  0  0  0  0  0  0  0
  191.5610  176.2410  144.5920 C   0  0  0  0  0  2  0  0  0  0  0  0
  191.4200  177.3790  145.5890 C   0  0  0  0  0  2  0  0  0  0  0  0
  191.5000  176.8720  146.9510 N   0  0  0  0  0  0  0  0  0  0  0  0
  190.2400  176.5380  147.3220 O   0  0  0  0  0  1  0  0  0  0  0  0
  192.2600  175.6370  146.8940 C   0  0  0  0  0  1  0  0  0  0  0  0
  1  3  1  0  0  0  0
  3  9  2  0  0  0  0
  4  5  1  0  0  0  0
  4  8  2  0  0  0  0
  6 13  1  6  0  0  0
  6 11  1  0  0  0  0
  6  1  1  0  0  0  0
  7  3  1  0  0  0  0
  7 26  1  0  0  0  0
  8  9  1  0  0  0  0
  9  2  1  0  0  0  0
 10  1  2  0  0  0  0
 10  4  1  0  0  0  0
 11  7  1  0  0  0  0
 12 13  2  0  0  0  0
 14 22  2  0  0  0  0
 15 18  1  0  0  0  0
 17 15  1  0  0  0  0
 18 23  1  0  0  0  0
 18 16  2  0  0  0  0
 19 14  1  0  0  0  0
 20 15  2  0  0  0  0
 20 14  1  0  0  0  0
 21 13  1  0  0  0  0
 22 16  1  0  0  0  0
 22 21  1  0  0  0  0
 24 23  1  0  0  0  0
 25 24  3  0  0  0  0
 26 27  1  0  0  0  0
 27 28  1  0  0  0  0
 28 29  1  0  0  0  0
 29 30  1  0  0  0  0
 30 31  1  0  0  0  0
 32 30  1  0  0  0  0
M  END
>  <MODEL>
7

>  <REMARK>
 VINA RESULT:      -7.4      3.707      6.469
  Name = 
  9 active torsions:
  status: ('A' for Active; 'I' for Inactive)
    1  A    between atoms: C_1  and  O_3
    2  A    between atoms: O_3  and  C_17
    3  A    between atoms: N_6  and  C_15
    4  A    between atoms: C_7  and  S_16
    5  A    between atoms: C_7  and  N_23
    6  A    between atoms: C_15  and  C_30
    7  A    between atoms: S_16  and  C_30
    8  A    between atoms: C_18  and  C_21
    9  A    between atoms: C_18  and  N_27
                            x       y       z     vdW  Elec       q    Type
                         _______ _______ _______ _____ _____    ______ ____

>  <TORSDO>
F 9

$$$$
=
 OpenBabel11042413103D

 32 34  0  0  1  0  0  0  0  0999 V2000
  187.3250  178.4950  141.2920 C   0  0  0  0  0  0  0  0  0  0  0  0
  186.4360  177.3080  144.7830 C   0  0  0  0  0  1  0  0  0  0  0  0
  187.4620  178.0340  142.5760 C   0  0  0  0  0  0  0  0  0  0  0  0
  184.9340  178.5520  141.5280 C   0  0  0  0  0  0  0  0  0  0  0  0
  183.5870  178.8490  140.9780 C   0  0  0  0  0  1  0  0  0  0  0  0
  188.6610  178.7010  140.6710 C   0  0  1  0  0  3  0  0  0  0  0  0
  188.8310  177.8810  142.9260 N   0  0  0  0  0  0  0  0  0  0  0  0
  185.0640  178.0640  142.8400 C   0  0  0  0  0  3  0  0  0  0  0  0
  186.3330  177.7990  143.3810 C   0  0  0  0  0  0  0  0  0  0  0  0
  186.0740  178.7750  140.7430 C   0  0  0  0  0  3  0  0  0  0  0  0
  189.6440  178.2410  141.7630 C   0  0  0  0  0  2  0  0  0  0  0  0
  188.8410  178.6290  138.2520 C   0  0  0  0  0  2  0  0  0  0  0  0
  188.8430  177.9380  139.3840 C   0  0  0  0  0  0  0  0  0  0  0  0
  189.7880  175.1730  137.3890 C   0  0  0  0  0  0  0  0  0  0  0  0
  192.1040  174.9190  136.7430 C   0  0  0  0  0  0  0  0  0  0  0  0
  191.5170  176.2420  138.6460 N   0  0  0  0  0  0  0  0  0  0  0  0
  193.1200  174.3490  135.8180 C   0  0  0  0  0  1  0  0  0  0  0  0
  192.4780  175.7240  137.8280 C   0  0  0  0  0  0  0  0  0  0  0  0
  188.4440  174.8940  137.1770 O   0  0  0  0  0  1  0  0  0  0  0  0
  190.7530  174.6400  136.5320 C   0  0  0  0  0  3  0  0  0  0  0  0
  189.2200  176.5520  139.3330 N   0  0  0  0  0  2  0  0  0  0  0  0
  190.1920  175.9960  138.4470 C   0  0  0  0  0  0  0  0  0  0  0  0
  193.8320  175.9800  138.0680 O   0  0  0  0  0  0  0  0  0  0  0  0
  194.7000  174.9990  138.4660 C   0  0  0  0  0  0  0  0  0  0  0  0
  195.4590  174.1340  138.8260 C   0  0  0  0  0  3  0  0  0  0  0  0
  189.3090  176.9660  143.9530 C   0  0  0  0  0  2  0  0  0  0  0  0
  190.3910  175.6980  143.2280 S   0  0  0  0  0  0  0  0  0  0  0  0
  191.7590  176.1650  144.3290 C   0  0  0  0  0  2  0  0  0  0  0  0
  191.3080  177.2380  145.3050 C   0  0  0  0  0  2  0  0  0  0  0  0
  191.7160  176.8950  146.6590 N   0  0  0  0  0  0  0  0  0  0  0  0
  190.5910  176.8700  147.4160 O   0  0  0  0  0  1  0  0  0  0  0  0
  192.2160  175.5330  146.6130 C   0  0  0  0  0  1  0  0  0  0  0  0
  1  3  1  0  0  0  0
  3  7  1  0  0  0  0
  3  9  2  0  0  0  0
  4  8  2  0  0  0  0
  5  4  1  0  0  0  0
  6 13  1  6  0  0  0
  6  1  1  0  0  0  0
  6 11  1  0  0  0  0
  7 26  1  0  0  0  0
  8  9  1  0  0  0  0
  9  2  1  0  0  0  0
 10  1  2  0  0  0  0
 10  4  1  0  0  0  0
 11  7  1  0  0  0  0
 12 13  2  0  0  0  0
 14 22  2  0  0  0  0
 15 18  1  0  0  0  0
 17 15  1  0  0  0  0
 18 23  1  0  0  0  0
 18 16  2  0  0  0  0
 19 14  1  0  0  0  0
 20 15  2  0  0  0  0
 20 14  1  0  0  0  0
 21 13  1  0  0  0  0
 22 16  1  0  0  0  0
 22 21  1  0  0  0  0
 23 24  1  0  0  0  0
 24 25  3  0  0  0  0
 27 26  1  0  0  0  0
 27 28  1  0  0  0  0
 28 29  1  0  0  0  0
 29 30  1  0  0  0  0
 30 31  1  0  0  0  0
 32 30  1  0  0  0  0
M  END
>  <MODEL>
8

>  <REMARK>
 VINA RESULT:      -7.3      3.559      6.370
  Name = 
  9 active torsions:
  status: ('A' for Active; 'I' for Inactive)
    1  A    between atoms: C_1  and  O_3
    2  A    between atoms: O_3  and  C_17
    3  A    between atoms: N_6  and  C_15
    4  A    between atoms: C_7  and  S_16
    5  A    between atoms: C_7  and  N_23
    6  A    between atoms: C_15  and  C_30
    7  A    between atoms: S_16  and  C_30
    8  A    between atoms: C_18  and  C_21
    9  A    between atoms: C_18  and  N_27
                            x       y       z     vdW  Elec       q    Type
                         _______ _______ _______ _____ _____    ______ ____

>  <TORSDO>
F 9

$$$$
=
 OpenBabel11042413103D

 32 34  0  0  1  0  0  0  0  0999 V2000
  186.2260  178.6020  143.0410 C   0  0  0  0  0  0  0  0  0  0  0  0
  189.2100  176.7270  144.4450 C   0  0  0  0  0  1  0  0  0  0  0  0
  187.4480  177.9830  143.1160 C   0  0  0  0  0  0  0  0  0  0  0  0
  185.8060  178.1320  145.3600 C   0  0  0  0  0  0  0  0  0  0  0  0
  184.9410  178.2310  146.5630 C   0  0  0  0  0  1  0  0  0  0  0  0
  186.0160  179.1700  141.6830 C   0  0  1  0  0  3  0  0  0  0  0  0
  188.1410  178.0590  141.8770 N   0  0  0  0  0  0  0  0  0  0  0  0
  187.0490  177.4810  145.4420 C   0  0  0  0  0  3  0  0  0  0  0  0
  187.8870  177.4000  144.3170 C   0  0  0  0  0  0  0  0  0  0  0  0
  185.3860  178.7030  144.1500 C   0  0  0  0  0  3  0  0  0  0  0  0
  187.2850  178.7550  140.9140 C   0  0  0  0  0  2  0  0  0  0  0  0
  183.8110  178.1610  141.7910 C   0  0  0  0  0  2  0  0  0  0  0  0
  184.7590  178.6710  141.0160 C   0  0  0  0  0  0  0  0  0  0  0  0
  185.4290  177.8660  137.6360 C   0  0  0  0  0  0  0  0  0  0  0  0
  184.3510  175.9440  136.6440 C   0  0  0  0  0  0  0  0  0  0  0  0
  183.4150  176.9910  138.5790 N   0  0  0  0  0  0  0  0  0  0  0  0
  184.3250  174.8910  135.5930 C   0  0  0  0  0  1  0  0  0  0  0  0
  183.3490  176.0220  137.6210 C   0  0  0  0  0  0  0  0  0  0  0  0
  186.4630  178.7940  137.6430 O   0  0  0  0  0  1  0  0  0  0  0  0
  185.3880  176.8770  136.6530 C   0  0  0  0  0  3  0  0  0  0  0  0
  184.4530  178.9030  139.6310 N   0  0  0  0  0  2  0  0  0  0  0  0
  184.4290  177.9000  138.6160 C   0  0  0  0  0  0  0  0  0  0  0  0
  182.2860  175.1120  137.6000 O   0  0  0  0  0  0  0  0  0  0  0  0
  181.3110  175.1070  138.5610 C   0  0  0  0  0  0  0  0  0  0  0  0
  180.4450  175.1060  139.4000 C   0  0  0  0  0  3  0  0  0  0  0  0
  189.1650  177.1120  141.4600 C   0  0  0  0  0  2  0  0  0  0  0  0
  189.3220  177.0930  139.6500 S   0  0  0  0  0  0  0  0  0  0  0  0
  191.1350  177.1300  139.7570 C   0  0  0  0  0  2  0  0  0  0  0  0
  191.7490  176.4250  138.5580 C   0  0  0  0  0  2  0  0  0  0  0  0
  193.1560  176.7710  138.4340 N   0  0  0  0  0  0  0  0  0  0  0  0
  193.6000  177.0780  139.6780 O   0  0  0  0  0  1  0  0  0  0  0  0
  193.8510  175.5620  138.0310 C   0  0  0  0  0  1  0  0  0  0  0  0
  1  3  2  0  0  0  0
  1 10  1  0  0  0  0
  3  9  1  0  0  0  0
  4  8  1  0  0  0  0
  4  5  1  0  0  0  0
  6 13  1  6  0  0  0
  6  1  1  0  0  0  0
  7  3  1  0  0  0  0
  9  2  1  0  0  0  0
  9  8  2  0  0  0  0
 10  4  2  0  0  0  0
 11  6  1  0  0  0  0
 11  7  1  0  0  0  0
 13 12  2  0  0  0  0
 14 19  1  0  0  0  0
 14 22  2  0  0  0  0
 15 20  2  0  0  0  0
 15 18  1  0  0  0  0
 16 22  1  0  0  0  0
 17 15  1  0  0  0  0
 18 16  2  0  0  0  0
 20 14  1  0  0  0  0
 21 13  1  0  0  0  0
 22 21  1  0  0  0  0
 23 18  1  0  0  0  0
 23 24  1  0  0  0  0
 24 25  3  0  0  0  0
 26  7  1  0  0  0  0
 27 28  1  0  0  0  0
 27 26  1  0  0  0  0
 29 28  1  0  0  0  0
 30 29  1  0  0  0  0
 30 31  1  0  0  0  0
 32 30  1  0  0  0  0
M  END
>  <MODEL>
9

>  <REMARK>
 VINA RESULT:      -7.2      3.411      7.075
  Name = 
  9 active torsions:
  status: ('A' for Active; 'I' for Inactive)
    1  A    between atoms: C_1  and  O_3
    2  A    between atoms: O_3  and  C_17
    3  A    between atoms: N_6  and  C_15
    4  A    between atoms: C_7  and  S_16
    5  A    between atoms: C_7  and  N_23
    6  A    between atoms: C_15  and  C_30
    7  A    between atoms: S_16  and  C_30
    8  A    between atoms: C_18  and  C_21
    9  A    between atoms: C_18  and  N_27
                            x       y       z     vdW  Elec       q    Type
                         _______ _______ _______ _____ _____    ______ ____

>  <TORSDO>
F 9

$$$$
