=
 OpenBabel11042410243D

 29 34  0  0  1  0  0  0  0  0999 V2000
  184.3680  179.4750  144.5440 S   0  0  0  0  0  0  0  0  0  0  0  0
  180.5160  178.1020  139.4690 N   0  0  0  0  0  0  0  0  0  0  0  0
  182.9850  178.5800  142.2790 C   0  0  0  0  0  0  0  0  0  0  0  0
  185.4760  178.2100  143.8950 C   0  0  0  0  0  0  0  0  0  0  0  0
  184.1390  178.0740  141.8110 C   0  0  0  0  0  2  0  0  0  0  0  0
  181.7910  178.5630  141.4880 C   0  0  0  0  0  0  0  0  0  0  0  0
  179.2370  178.7050  141.4520 C   0  0  0  0  0  3  0  0  0  0  0  0
  181.7640  178.3270  140.1420 C   0  0  0  0  0  0  0  0  0  0  0  0
  182.9080  178.9640  143.6320 C   0  0  0  0  0  0  0  0  0  0  0  0
  185.3280  177.7900  142.6330 C   0  0  0  0  0  3  0  0  0  0  0  0
  180.5350  179.0240  143.4950 N   0  0  0  0  0  0  0  0  0  0  0  0
  180.5560  178.7430  142.1670 C   0  0  0  0  0  0  0  0  0  0  0  0
  179.3600  178.2400  140.0380 C   0  0  0  0  0  3  0  0  0  0  0  0
  181.6680  179.1630  144.2220 C   0  0  0  0  0  3  0  0  0  0  0  0
  185.3660  177.1350  137.0550 O   0  0  0  0  0  0  0  0  0  0  0  0
  183.2060  177.1540  138.4350 C   0  0  2  0  0  3  0  0  0  0  0  0
  182.9500  178.3250  139.3390 N   0  0  0  0  0  0  0  0  0  0  0  0
  183.7220  179.6010  139.1800 C   0  0  0  0  0  2  0  0  0  0  0  0
  184.9620  178.3320  137.8370 C   0  0  0  0  0  0  0  0  0  0  0  0
  183.7770  176.1100  139.1460 F   0  0  0  0  0  0  0  0  0  0  0  0
  184.0560  177.5370  137.1900 C   0  0  1  0  0  3  0  0  0  0  0  0
  185.0590  179.3200  138.6410 N   0  0  0  0  0  0  0  0  0  0  0  0
  189.4230  177.1360  145.9580 C   0  0  0  0  0  3  0  0  0  0  0  0
  187.7710  177.3870  144.1020 C   0  0  0  0  0  3  0  0  0  0  0  0
  186.6260  177.7470  144.7180 C   0  0  0  0  0  0  0  0  0  0  0  0
  189.0020  176.8590  144.7240 C   0  0  0  0  0  3  0  0  0  0  0  0
  187.3260  177.6760  147.1270 C   0  0  0  0  0  3  0  0  0  0  0  0
  186.4040  177.5580  146.1720 C   0  0  0  0  0  3  0  0  0  0  0  0
  188.7280  178.1020  146.8560 C   0  0  0  0  0  2  0  0  0  0  0  0
  2 13  2  0  0  0  0
  2  8  1  0  0  0  0
  3  9  2  0  0  0  0
  4  1  1  0  0  0  0
  4 25  1  0  0  0  0
  5  3  1  0  0  0  0
  5 10  1  0  0  0  0
  6 12  1  0  0  0  0
  6  3  1  0  0  0  0
  7 12  2  0  0  0  0
  8  6  2  0  0  0  0
  9 14  1  0  0  0  0
  9  1  1  0  0  0  0
 10  4  2  0  0  0  0
 11 14  2  0  0  0  0
 12 11  1  0  0  0  0
 13  7  1  0  0  0  0
 15 19  1  0  0  0  0
 16 20  1  1  0  0  0
 16 17  1  0  0  0  0
 17  8  1  0  0  0  0
 18 17  1  0  0  0  0
 19 22  2  0  0  0  0
 21 15  1  1  0  0  0
 21 19  1  0  0  0  0
 21 16  1  0  0  0  0
 22 18  1  0  0  0  0
 23 29  1  0  0  0  0
 24 25  2  0  0  0  0
 24 26  1  0  0  0  0
 25 28  1  0  0  0  0
 26 23  2  0  0  0  0
 28 27  2  0  0  0  0
 29 27  1  0  0  0  0
M  END
>  <MODEL>
1

>  <REMARK>
 VINA RESULT:      -8.6      0.000      0.000
  Name = 
  2 active torsions:
  status: ('A' for Active; 'I' for Inactive)
    1  A    between atoms: C_8  and  C_9
    2  A    between atoms: N_10  and  C_16
                            x       y       z     vdW  Elec       q    Type
                         _______ _______ _______ _____ _____    ______ ____

>  <TORSDO>
F 2

$$$$
=
 OpenBabel11042410243D

 29 34  0  0  1  0  0  0  0  0999 V2000
  188.5740  176.4560  142.9060 S   0  0  0  0  0  0  0  0  0  0  0  0
  186.9310  178.9690  137.1200 N   0  0  0  0  0  0  0  0  0  0  0  0
  187.6090  177.7820  140.6350 C   0  0  0  0  0  0  0  0  0  0  0  0
  187.2810  177.5050  143.5960 C   0  0  0  0  0  0  0  0  0  0  0  0
  186.4860  178.0690  141.3160 C   0  0  0  0  0  2  0  0  0  0  0  0
  187.7390  178.1060  139.2460 C   0  0  0  0  0  0  0  0  0  0  0  0
  189.3160  178.5040  137.2720 C   0  0  0  0  0  3  0  0  0  0  0  0
  186.6920  178.4400  138.4340 C   0  0  0  0  0  0  0  0  0  0  0  0
  188.7370  177.3250  141.3430 C   0  0  0  0  0  0  0  0  0  0  0  0
  186.3620  178.0370  142.7840 C   0  0  0  0  0  3  0  0  0  0  0  0
  190.1180  177.7720  139.4590 N   0  0  0  0  0  0  0  0  0  0  0  0
  189.0510  178.1390  138.7030 C   0  0  0  0  0  0  0  0  0  0  0  0
  188.1050  179.0350  136.5780 C   0  0  0  0  0  3  0  0  0  0  0  0
  189.9870  177.3480  140.7370 C   0  0  0  0  0  3  0  0  0  0  0  0
  182.0910  179.0970  139.9590 O   0  0  0  0  0  0  0  0  0  0  0  0
  184.5110  179.4570  139.1980 C   0  0  2  0  0  3  0  0  0  0  0  0
  185.3260  178.2520  138.8250 N   0  0  0  0  0  0  0  0  0  0  0  0
  184.6660  176.9350  138.5490 C   0  0  0  0  0  2  0  0  0  0  0  0
  182.9010  177.9780  139.4130 C   0  0  0  0  0  0  0  0  0  0  0  0
  184.7590  179.8200  140.5120 F   0  0  0  0  0  0  0  0  0  0  0  0
  182.9920  179.2550  138.9310 C   0  0  1  0  0  3  0  0  0  0  0  0
  183.4260  176.8170  139.3260 N   0  0  0  0  0  0  0  0  0  0  0  0
  187.5870  178.2550  148.1060 C   0  0  0  0  0  3  0  0  0  0  0  0
  188.2580  177.4490  145.8400 C   0  0  0  0  0  3  0  0  0  0  0  0
  187.1680  177.6560  145.0720 C   0  0  0  0  0  0  0  0  0  0  0  0
  188.3470  177.5010  147.3120 C   0  0  0  0  0  3  0  0  0  0  0  0
  185.5410  178.5390  146.7680 C   0  0  0  0  0  3  0  0  0  0  0  0
  185.8170  177.8790  145.6420 C   0  0  0  0  0  3  0  0  0  0  0  0
  186.5810  179.2250  147.5850 C   0  0  0  0  0  2  0  0  0  0  0  0
  1  4  1  0  0  0  0
  2  8  1  0  0  0  0
  3  5  1  0  0  0  0
  3  9  2  0  0  0  0
  4 25  1  0  0  0  0
  5 10  1  0  0  0  0
  6  3  1  0  0  0  0
  7 12  2  0  0  0  0
  8 17  1  0  0  0  0
  8  6  2  0  0  0  0
  9  1  1  0  0  0  0
 10  4  2  0  0  0  0
 11 14  2  0  0  0  0
 12  6  1  0  0  0  0
 12 11  1  0  0  0  0
 13  2  2  0  0  0  0
 13  7  1  0  0  0  0
 14  9  1  0  0  0  0
 16 20  1  1  0  0  0
 17 16  1  0  0  0  0
 18 17  1  0  0  0  0
 18 22  1  0  0  0  0
 19 15  1  0  0  0  0
 21 16  1  0  0  0  0
 21 19  1  6  0  0  0
 21 15  1  0  0  0  0
 22 19  2  0  0  0  0
 24 26  1  0  0  0  0
 25 28  1  0  0  0  0
 25 24  2  0  0  0  0
 26 23  2  0  0  0  0
 27 29  1  0  0  0  0
 28 27  2  0  0  0  0
 29 23  1  0  0  0  0
M  END
>  <MODEL>
2

>  <REMARK>
 VINA RESULT:      -8.2      2.833      5.336
  Name = 
  2 active torsions:
  status: ('A' for Active; 'I' for Inactive)
    1  A    between atoms: C_8  and  C_9
    2  A    between atoms: N_10  and  C_16
                            x       y       z     vdW  Elec       q    Type
                         _______ _______ _______ _____ _____    ______ ____

>  <TORSDO>
F 2

$$$$
=
 OpenBabel11042410243D

 29 34  0  0  1  0  0  0  0  0999 V2000
  188.1030  176.6030  143.6090 S   0  0  0  0  0  0  0  0  0  0  0  0
  192.0990  177.3700  138.5160 N   0  0  0  0  0  0  0  0  0  0  0  0
  189.5530  177.2280  141.2950 C   0  0  0  0  0  0  0  0  0  0  0  0
  187.0260  177.7960  142.7930 C   0  0  0  0  0  0  0  0  0  0  0  0
  188.4170  177.6880  140.7440 C   0  0  0  0  0  2  0  0  0  0  0  0
  190.7670  177.1470  140.5400 C   0  0  0  0  0  0  0  0  0  0  0  0
  193.3200  176.9810  140.5870 C   0  0  0  0  0  3  0  0  0  0  0  0
  190.8310  177.2310  139.1770 C   0  0  0  0  0  0  0  0  0  0  0  0
  189.5910  176.9970  142.6840 C   0  0  0  0  0  0  0  0  0  0  0  0
  187.2110  178.0720  141.4970 C   0  0  0  0  0  3  0  0  0  0  0  0
  191.9660  176.9020  142.6180 N   0  0  0  0  0  0  0  0  0  0  0  0
  191.9820  177.0340  141.2670 C   0  0  0  0  0  0  0  0  0  0  0  0
  193.2370  177.2870  139.1280 C   0  0  0  0  0  3  0  0  0  0  0  0
  190.8140  176.8560  143.3260 C   0  0  0  0  0  3  0  0  0  0  0  0
  187.2180  178.1820  136.0200 O   0  0  0  0  0  0  0  0  0  0  0  0
  189.3430  178.3110  137.4480 C   0  0  2  0  0  3  0  0  0  0  0  0
  189.6660  177.1520  138.3470 N   0  0  0  0  0  0  0  0  0  0  0  0
  188.9950  175.8250  138.1600 C   0  0  0  0  0  2  0  0  0  0  0  0
  187.6930  177.0110  136.8010 C   0  0  0  0  0  0  0  0  0  0  0  0
  188.6800  179.3020  138.1550 F   0  0  0  0  0  0  0  0  0  0  0  0
  188.5510  177.8780  136.1810 C   0  0  1  0  0  3  0  0  0  0  0  0
  187.6530  176.0100  137.5930 N   0  0  0  0  0  0  0  0  0  0  0  0
  183.0540  179.0260  144.7180 C   0  0  0  0  0  3  0  0  0  0  0  0
  184.6670  178.4390  142.9040 C   0  0  0  0  0  3  0  0  0  0  0  0
  185.8600  178.3580  143.5290 C   0  0  0  0  0  0  0  0  0  0  0  0
  183.4090  179.0020  143.4330 C   0  0  0  0  0  3  0  0  0  0  0  0
  185.2280  179.0030  145.8710 C   0  0  0  0  0  3  0  0  0  0  0  0
  186.1060  178.9450  144.8680 C   0  0  0  0  0  3  0  0  0  0  0  0
  183.8690  178.3980  145.7980 C   0  0  0  0  0  2  0  0  0  0  0  0
  2 13  2  0  0  0  0
  2  8  1  0  0  0  0
  3  9  2  0  0  0  0
  4 25  1  0  0  0  0
  4  1  1  0  0  0  0
  5  3  1  0  0  0  0
  5 10  1  0  0  0  0
  6 12  1  0  0  0  0
  6  3  1  0  0  0  0
  7 12  2  0  0  0  0
  8  6  2  0  0  0  0
  9 14  1  0  0  0  0
  9  1  1  0  0  0  0
 10  4  2  0  0  0  0
 11 14  2  0  0  0  0
 12 11  1  0  0  0  0
 13  7  1  0  0  0  0
 15 19  1  0  0  0  0
 16 20  1  1  0  0  0
 16 17  1  0  0  0  0
 17  8  1  0  0  0  0
 18 17  1  0  0  0  0
 19 22  2  0  0  0  0
 21 15  1  1  0  0  0
 21 19  1  0  0  0  0
 21 16  1  0  0  0  0
 22 18  1  0  0  0  0
 23 29  1  0  0  0  0
 24 26  1  0  0  0  0
 24 25  2  0  0  0  0
 25 28  1  0  0  0  0
 26 23  2  0  0  0  0
 28 27  2  0  0  0  0
 29 27  1  0  0  0  0
M  END
>  <MODEL>
3

>  <REMARK>
 VINA RESULT:      -7.6      4.210      7.340
  Name = 
  2 active torsions:
  status: ('A' for Active; 'I' for Inactive)
    1  A    between atoms: C_8  and  C_9
    2  A    between atoms: N_10  and  C_16
                            x       y       z     vdW  Elec       q    Type
                         _______ _______ _______ _____ _____    ______ ____

>  <TORSDO>
F 2

$$$$
=
 OpenBabel11042410243D

 29 34  0  0  1  0  0  0  0  0999 V2000
  188.4480  176.5390  142.9070 S   0  0  0  0  0  0  0  0  0  0  0  0
  186.7450  179.1150  137.1670 N   0  0  0  0  0  0  0  0  0  0  0  0
  187.4630  177.8920  140.6620 C   0  0  0  0  0  0  0  0  0  0  0  0
  187.1760  177.5940  143.6250 C   0  0  0  0  0  0  0  0  0  0  0  0
  186.3530  178.1840  141.3620 C   0  0  0  0  0  2  0  0  0  0  0  0
  187.5760  178.2270  139.2740 C   0  0  0  0  0  0  0  0  0  0  0  0
  189.1280  178.6260  137.2800 C   0  0  0  0  0  3  0  0  0  0  0  0
  186.5200  178.5770  138.4800 C   0  0  0  0  0  0  0  0  0  0  0  0
  188.5970  177.4190  141.3490 C   0  0  0  0  0  0  0  0  0  0  0  0
  186.2500  178.1420  142.8310 C   0  0  0  0  0  3  0  0  0  0  0  0
  189.9540  177.8690  139.4500 N   0  0  0  0  0  0  0  0  0  0  0  0
  188.8800  178.2520  138.7120 C   0  0  0  0  0  0  0  0  0  0  0  0
  187.9120  179.1740  136.6080 C   0  0  0  0  0  3  0  0  0  0  0  0
  189.8380  177.4350  140.7260 C   0  0  0  0  0  3  0  0  0  0  0  0
  182.0310  176.8080  139.2850 O   0  0  0  0  0  0  0  0  0  0  0  0
  184.4870  177.0860  138.6060 C   0  0  2  0  0  3  0  0  0  0  0  0
  185.1590  178.3990  138.8890 N   0  0  0  0  0  0  0  0  0  0  0  0
  184.5550  179.3780  139.8510 C   0  0  0  0  0  2  0  0  0  0  0  0
  182.8090  178.0090  139.6840 C   0  0  0  0  0  0  0  0  0  0  0  0
  184.0200  177.0540  137.3010 F   0  0  0  0  0  0  0  0  0  0  0  0
  183.3630  176.7590  139.6290 C   0  0  1  0  0  3  0  0  0  0  0  0
  183.0940  179.2410  139.8620 N   0  0  0  0  0  0  0  0  0  0  0  0
  187.5560  178.3000  148.1360 C   0  0  0  0  0  3  0  0  0  0  0  0
  188.1820  177.5030  145.8540 C   0  0  0  0  0  3  0  0  0  0  0  0
  187.0850  177.7340  145.1040 C   0  0  0  0  0  0  0  0  0  0  0  0
  188.2930  177.5400  147.3260 C   0  0  0  0  0  3  0  0  0  0  0  0
  185.4960  178.6280  146.8300 C   0  0  0  0  0  3  0  0  0  0  0  0
  185.7460  177.9740  145.6950 C   0  0  0  0  0  3  0  0  0  0  0  0
  186.5580  179.2900  147.6370 C   0  0  0  0  0  2  0  0  0  0  0  0
  1  4  1  0  0  0  0
  2  8  1  0  0  0  0
  3  9  2  0  0  0  0
  3  5  1  0  0  0  0
  4 25  1  0  0  0  0
  5 10  1  0  0  0  0
  6  3  1  0  0  0  0
  7 12  2  0  0  0  0
  8 17  1  0  0  0  0
  8  6  2  0  0  0  0
  9  1  1  0  0  0  0
 10  4  2  0  0  0  0
 11 14  2  0  0  0  0
 12  6  1  0  0  0  0
 12 11  1  0  0  0  0
 13  2  2  0  0  0  0
 13  7  1  0  0  0  0
 14  9  1  0  0  0  0
 15 19  1  0  0  0  0
 16 20  1  6  0  0  0
 16 17  1  0  0  0  0
 16 21  1  0  0  0  0
 17 18  1  0  0  0  0
 18 22  1  0  0  0  0
 19 22  2  0  0  0  0
 21 15  1  6  0  0  0
 21 19  1  0  0  0  0
 24 26  1  0  0  0  0
 25 28  1  0  0  0  0
 25 24  2  0  0  0  0
 26 23  2  0  0  0  0
 27 29  1  0  0  0  0
 28 27  2  0  0  0  0
 29 23  1  0  0  0  0
M  END
>  <MODEL>
4

>  <REMARK>
 VINA RESULT:      -7.5      2.577      5.127
  Name = 
  2 active torsions:
  status: ('A' for Active; 'I' for Inactive)
    1  A    between atoms: C_8  and  C_9
    2  A    between atoms: N_10  and  C_16
                            x       y       z     vdW  Elec       q    Type
                         _______ _______ _______ _____ _____    ______ ____

>  <TORSDO>
F 2

$$$$
=
 OpenBabel11042410243D

 29 34  0  0  1  0  0  0  0  0999 V2000
  190.4370  176.7300  141.6150 S   0  0  0  0  0  0  0  0  0  0  0  0
  192.2120  175.8140  135.4110 N   0  0  0  0  0  0  0  0  0  0  0  0
  190.8320  176.5070  138.8520 C   0  0  0  0  0  0  0  0  0  0  0  0
  188.8550  177.2880  140.9570 C   0  0  0  0  0  0  0  0  0  0  0  0
  189.4980  176.5160  138.6900 C   0  0  0  0  0  2  0  0  0  0  0  0
  191.7140  176.2880  137.7440 C   0  0  0  0  0  0  0  0  0  0  0  0
  194.0790  176.5310  136.8010 C   0  0  0  0  0  3  0  0  0  0  0  0
  191.3180  175.7890  136.5350 C   0  0  0  0  0  0  0  0  0  0  0  0
  191.3710  176.9010  140.0910 C   0  0  0  0  0  0  0  0  0  0  0  0
  188.5330  177.0060  139.6900 C   0  0  0  0  0  3  0  0  0  0  0  0
  193.5200  177.1340  139.1000 N   0  0  0  0  0  0  0  0  0  0  0  0
  193.0710  176.6750  137.9030 C   0  0  0  0  0  0  0  0  0  0  0  0
  193.4560  176.1670  135.4930 C   0  0  0  0  0  3  0  0  0  0  0  0
  192.7170  177.2280  140.1850 C   0  0  0  0  0  3  0  0  0  0  0  0
  186.7790  174.7720  135.0220 O   0  0  0  0  0  0  0  0  0  0  0  0
  189.1040  175.8070  135.3220 C   0  0  2  0  0  3  0  0  0  0  0  0
  190.0310  175.1940  136.3330 N   0  0  0  0  0  0  0  0  0  0  0  0
  189.7690  173.8240  136.8820 C   0  0  0  0  0  2  0  0  0  0  0  0
  187.8080  174.1210  135.8730 C   0  0  0  0  0  0  0  0  0  0  0  0
  188.4350  176.8890  135.8730 F   0  0  0  0  0  0  0  0  0  0  0  0
  188.1200  174.7700  134.7100 C   0  0  1  0  0  3  0  0  0  0  0  0
  188.3260  173.5490  136.8910 N   0  0  0  0  0  0  0  0  0  0  0  0
  185.3290  179.0910  143.2610 C   0  0  0  0  0  3  0  0  0  0  0  0
  186.8450  178.6330  141.3300 C   0  0  0  0  0  3  0  0  0  0  0  0
  187.8680  177.9340  141.8640 C   0  0  0  0  0  0  0  0  0  0  0  0
  185.7940  179.3830  142.0470 C   0  0  0  0  0  3  0  0  0  0  0  0
  187.2340  177.9230  144.2930 C   0  0  0  0  0  3  0  0  0  0  0  0
  188.1460  177.9070  143.3200 C   0  0  0  0  0  3  0  0  0  0  0  0
  185.7670  177.8920  144.0320 C   0  0  0  0  0  2  0  0  0  0  0  0
  2 13  2  0  0  0  0
  2  8  1  0  0  0  0
  3  9  2  0  0  0  0
  4  1  1  0  0  0  0
  4 25  1  0  0  0  0
  5  3  1  0  0  0  0
  5 10  1  0  0  0  0
  6 12  1  0  0  0  0
  6  3  1  0  0  0  0
  7 12  2  0  0  0  0
  8  6  2  0  0  0  0
  9 14  1  0  0  0  0
  9  1  1  0  0  0  0
 10  4  2  0  0  0  0
 11 14  2  0  0  0  0
 12 11  1  0  0  0  0
 13  7  1  0  0  0  0
 15 19  1  0  0  0  0
 16 20  1  1  0  0  0
 16 17  1  0  0  0  0
 17  8  1  0  0  0  0
 17 18  1  0  0  0  0
 18 22  1  0  0  0  0
 19 22  2  0  0  0  0
 21 15  1  1  0  0  0
 21 16  1  0  0  0  0
 21 19  1  0  0  0  0
 23 29  1  0  0  0  0
 24 25  2  0  0  0  0
 24 26  1  0  0  0  0
 25 28  1  0  0  0  0
 26 23  2  0  0  0  0
 28 27  2  0  0  0  0
 29 27  1  0  0  0  0
M  END
>  <MODEL>
5

>  <REMARK>
 VINA RESULT:      -7.2      5.797      8.550
  Name = 
  2 active torsions:
  status: ('A' for Active; 'I' for Inactive)
    1  A    between atoms: C_8  and  C_9
    2  A    between atoms: N_10  and  C_16
                            x       y       z     vdW  Elec       q    Type
                         _______ _______ _______ _____ _____    ______ ____

>  <TORSDO>
F 2

$$$$
=
 OpenBabel11042410243D

 29 34  0  0  1  0  0  0  0  0999 V2000
  185.7060  179.3780  140.4790 S   0  0  0  0  0  0  0  0  0  0  0  0
  191.5500  176.4930  140.3700 N   0  0  0  0  0  0  0  0  0  0  0  0
  188.0820  177.9230  140.7630 C   0  0  0  0  0  0  0  0  0  0  0  0
  185.4070  178.4510  141.9960 C   0  0  0  0  0  0  0  0  0  0  0  0
  187.7830  177.7460  142.0620 C   0  0  0  0  0  2  0  0  0  0  0  0
  189.3330  177.4830  140.2210 C   0  0  0  0  0  0  0  0  0  0  0  0
  190.6650  176.8540  138.1300 C   0  0  0  0  0  3  0  0  0  0  0  0
  190.4180  177.1370  140.9760 C   0  0  0  0  0  0  0  0  0  0  0  0
  187.0770  178.3800  139.8890 C   0  0  0  0  0  0  0  0  0  0  0  0
  186.4400  177.9000  142.6450 C   0  0  0  0  0  3  0  0  0  0  0  0
  188.3840  177.7180  138.0170 N   0  0  0  0  0  0  0  0  0  0  0  0
  189.4200  177.3440  138.8100 C   0  0  0  0  0  0  0  0  0  0  0  0
  191.6790  176.3280  139.0920 C   0  0  0  0  0  3  0  0  0  0  0  0
  187.2440  178.2490  138.5170 C   0  0  0  0  0  3  0  0  0  0  0  0
  190.6380  176.7970  145.8510 O   0  0  0  0  0  0  0  0  0  0  0  0
  190.5580  176.2720  143.3440 C   0  0  2  0  0  3  0  0  0  0  0  0
  190.5000  177.4210  142.3780 N   0  0  0  0  0  0  0  0  0  0  0  0
  190.8450  178.8120  142.8190 C   0  0  0  0  0  2  0  0  0  0  0  0
  190.7520  177.8740  144.8350 C   0  0  0  0  0  0  0  0  0  0  0  0
  189.2850  175.7860  143.5940 F   0  0  0  0  0  0  0  0  0  0  0  0
  191.3060  176.6360  144.6580 C   0  0  1  0  0  3  0  0  0  0  0  0
  190.5310  178.9840  144.2430 N   0  0  0  0  0  0  0  0  0  0  0  0
  181.4240  178.9090  144.2130 C   0  0  0  0  0  3  0  0  0  0  0  0
  183.8890  178.6560  143.9040 C   0  0  0  0  0  3  0  0  0  0  0  0
  184.0410  178.4230  142.5840 C   0  0  0  0  0  0  0  0  0  0  0  0
  182.6370  178.6280  144.6870 C   0  0  0  0  0  3  0  0  0  0  0  0
  181.6490  178.3710  141.8220 C   0  0  0  0  0  3  0  0  0  0  0  0
  182.9220  177.9870  141.7130 C   0  0  0  0  0  3  0  0  0  0  0  0
  181.1860  179.3780  142.8170 C   0  0  0  0  0  2  0  0  0  0  0  0
  1  4  1  0  0  0  0
  2  8  1  0  0  0  0
  3  5  1  0  0  0  0
  4 25  1  0  0  0  0
  4 10  2  0  0  0  0
  5 10  1  0  0  0  0
  6  3  1  0  0  0  0
  6  8  2  0  0  0  0
  7 12  2  0  0  0  0
  7 13  1  0  0  0  0
  8 17  1  0  0  0  0
  9  1  1  0  0  0  0
  9  3  2  0  0  0  0
 11 14  2  0  0  0  0
 11 12  1  0  0  0  0
 12  6  1  0  0  0  0
 13  2  2  0  0  0  0
 14  9  1  0  0  0  0
 16 20  1  1  0  0  0
 16 21  1  0  0  0  0
 17 18  1  0  0  0  0
 17 16  1  0  0  0  0
 18 22  1  0  0  0  0
 19 15  1  0  0  0  0
 21 19  1  6  0  0  0
 21 15  1  0  0  0  0
 22 19  2  0  0  0  0
 23 26  2  0  0  0  0
 24 26  1  0  0  0  0
 25 24  2  0  0  0  0
 27 29  1  0  0  0  0
 28 27  2  0  0  0  0
 28 25  1  0  0  0  0
 29 23  1  0  0  0  0
M  END
>  <MODEL>
6

>  <REMARK>
 VINA RESULT:      -7.1      4.318      7.964
  Name = 
  2 active torsions:
  status: ('A' for Active; 'I' for Inactive)
    1  A    between atoms: C_8  and  C_9
    2  A    between atoms: N_10  and  C_16
                            x       y       z     vdW  Elec       q    Type
                         _______ _______ _______ _____ _____    ______ ____

>  <TORSDO>
F 2

$$$$
=
 OpenBabel11042410243D

 29 34  0  0  1  0  0  0  0  0999 V2000
  188.5700  178.6180  140.8760 S   0  0  0  0  0  0  0  0  0  0  0  0
  189.8710  175.6050  135.2450 N   0  0  0  0  0  0  0  0  0  0  0  0
  189.2780  177.0130  138.6930 C   0  0  0  0  0  0  0  0  0  0  0  0
  189.4020  177.2320  141.6740 C   0  0  0  0  0  0  0  0  0  0  0  0
  190.1870  176.4040  139.4730 C   0  0  0  0  0  2  0  0  0  0  0  0
  189.1810  176.7180  137.2940 C   0  0  0  0  0  0  0  0  0  0  0  0
  187.7470  176.7930  135.1770 C   0  0  0  0  0  3  0  0  0  0  0  0
  190.1420  176.0590  136.5800 C   0  0  0  0  0  0  0  0  0  0  0  0
  188.2880  177.8120  139.2970 C   0  0  0  0  0  0  0  0  0  0  0  0
  190.1800  176.4240  140.9460 C   0  0  0  0  0  3  0  0  0  0  0  0
  187.0160  177.7810  137.2880 N   0  0  0  0  0  0  0  0  0  0  0  0
  187.9800  177.0850  136.6310 C   0  0  0  0  0  0  0  0  0  0  0  0
  188.7900  175.8980  134.5950 C   0  0  0  0  0  3  0  0  0  0  0  0
  187.1550  178.1680  138.5770 C   0  0  0  0  0  3  0  0  0  0  0  0
  194.3720  174.0180  137.9470 O   0  0  0  0  0  0  0  0  0  0  0  0
  192.0480  174.4470  136.9540 C   0  0  2  0  0  3  0  0  0  0  0  0
  191.4560  175.8190  137.0990 N   0  0  0  0  0  0  0  0  0  0  0  0
  192.3140  176.9900  137.4730 C   0  0  0  0  0  2  0  0  0  0  0  0
  193.7960  175.3860  137.8990 C   0  0  0  0  0  0  0  0  0  0  0  0
  191.5820  173.6110  137.9570 F   0  0  0  0  0  0  0  0  0  0  0  0
  193.6020  174.4720  136.9000 C   0  0  1  0  0  3  0  0  0  0  0  0
  193.4440  176.5470  138.2990 N   0  0  0  0  0  0  0  0  0  0  0  0
  189.7040  177.2430  146.2460 C   0  0  0  0  0  3  0  0  0  0  0  0
  190.4670  177.0930  143.8730 C   0  0  0  0  0  3  0  0  0  0  0  0
  189.3270  177.0820  143.1530 C   0  0  0  0  0  0  0  0  0  0  0  0
  190.6150  176.9130  145.3310 C   0  0  0  0  0  3  0  0  0  0  0  0
  187.6010  177.1060  144.9750 C   0  0  0  0  0  3  0  0  0  0  0  0
  188.0050  176.7710  143.7500 C   0  0  0  0  0  3  0  0  0  0  0  0
  188.4230  177.9280  145.9070 C   0  0  0  0  0  2  0  0  0  0  0  0
  1  4  1  0  0  0  0
  2  8  1  0  0  0  0
  3  9  2  0  0  0  0
  3  5  1  0  0  0  0
  4 25  1  0  0  0  0
  5 10  1  0  0  0  0
  6  3  1  0  0  0  0
  7 12  2  0  0  0  0
  8 17  1  0  0  0  0
  8  6  2  0  0  0  0
  9  1  1  0  0  0  0
 10  4  2  0  0  0  0
 11 14  2  0  0  0  0
 12 11  1  0  0  0  0
 12  6  1  0  0  0  0
 13  7  1  0  0  0  0
 13  2  2  0  0  0  0
 14  9  1  0  0  0  0
 16 17  1  0  0  0  0
 16 20  1  1  0  0  0
 17 18  1  0  0  0  0
 18 22  1  0  0  0  0
 19 15  1  0  0  0  0
 19 22  2  0  0  0  0
 21 16  1  0  0  0  0
 21 19  1  1  0  0  0
 21 15  1  0  0  0  0
 24 26  1  0  0  0  0
 25 28  1  0  0  0  0
 25 24  2  0  0  0  0
 26 23  2  0  0  0  0
 27 29  1  0  0  0  0
 28 27  2  0  0  0  0
 29 23  1  0  0  0  0
M  END
>  <MODEL>
7

>  <REMARK>
 VINA RESULT:      -7.1      5.513      7.645
  Name = 
  2 active torsions:
  status: ('A' for Active; 'I' for Inactive)
    1  A    between atoms: C_8  and  C_9
    2  A    between atoms: N_10  and  C_16
                            x       y       z     vdW  Elec       q    Type
                         _______ _______ _______ _____ _____    ______ ____

>  <TORSDO>
F 2

$$$$
=
 OpenBabel11042410243D

 29 34  0  0  1  0  0  0  0  0999 V2000
  188.7340  178.7090  140.2850 S   0  0  0  0  0  0  0  0  0  0  0  0
  189.2850  174.7730  135.1190 N   0  0  0  0  0  0  0  0  0  0  0  0
  189.1600  176.7540  138.3260 C   0  0  0  0  0  0  0  0  0  0  0  0
  189.7100  177.4840  141.1750 C   0  0  0  0  0  0  0  0  0  0  0  0
  190.1900  176.2910  139.0550 C   0  0  0  0  0  2  0  0  0  0  0  0
  188.8700  176.2220  137.0280 C   0  0  0  0  0  0  0  0  0  0  0  0
  187.1410  175.9280  135.1650 C   0  0  0  0  0  3  0  0  0  0  0  0
  189.7340  175.4520  136.3020 C   0  0  0  0  0  0  0  0  0  0  0  0
  188.2470  177.6430  138.9250 C   0  0  0  0  0  0  0  0  0  0  0  0
  190.3960  176.5630  140.4880 C   0  0  0  0  0  3  0  0  0  0  0  0
  186.6980  177.2630  137.1610 N   0  0  0  0  0  0  0  0  0  0  0  0
  187.5750  176.4660  136.4980 C   0  0  0  0  0  0  0  0  0  0  0  0
  188.1130  174.9480  134.5950 C   0  0  0  0  0  3  0  0  0  0  0  0
  187.0130  177.8670  138.3310 C   0  0  0  0  0  3  0  0  0  0  0  0
  194.5290  176.1560  136.9650 O   0  0  0  0  0  0  0  0  0  0  0  0
  192.0490  176.4550  136.3920 C   0  0  2  0  0  3  0  0  0  0  0  0
  191.1160  175.3080  136.6540 N   0  0  0  0  0  0  0  0  0  0  0  0
  191.5240  174.1750  137.5470 C   0  0  0  0  0  2  0  0  0  0  0  0
  193.5210  175.1360  137.3520 C   0  0  0  0  0  0  0  0  0  0  0  0
  192.4630  176.4480  135.0690 F   0  0  0  0  0  0  0  0  0  0  0  0
  193.2550  176.4780  137.3740 C   0  0  1  0  0  3  0  0  0  0  0  0
  192.9790  173.9880  137.4950 N   0  0  0  0  0  0  0  0  0  0  0  0
  189.7950  177.1950  145.7470 C   0  0  0  0  0  3  0  0  0  0  0  0
  188.8340  177.1980  143.4420 C   0  0  0  0  0  3  0  0  0  0  0  0
  189.8550  177.5900  142.6520 C   0  0  0  0  0  0  0  0  0  0  0  0
  188.7560  177.2650  144.9150 C   0  0  0  0  0  3  0  0  0  0  0  0
  191.6470  178.0260  144.3560 C   0  0  0  0  0  3  0  0  0  0  0  0
  191.0620  178.2690  143.1820 C   0  0  0  0  0  3  0  0  0  0  0  0
  191.1920  176.9530  145.2840 C   0  0  0  0  0  2  0  0  0  0  0  0
  1  4  1  0  0  0  0
  2  8  1  0  0  0  0
  3  9  2  0  0  0  0
  3  5  1  0  0  0  0
  4 25  1  0  0  0  0
  5 10  1  0  0  0  0
  6  3  1  0  0  0  0
  7 12  2  0  0  0  0
  8 17  1  0  0  0  0
  8  6  2  0  0  0  0
  9  1  1  0  0  0  0
 10  4  2  0  0  0  0
 11 14  2  0  0  0  0
 12  6  1  0  0  0  0
 12 11  1  0  0  0  0
 13  2  2  0  0  0  0
 13  7  1  0  0  0  0
 14  9  1  0  0  0  0
 15 19  1  0  0  0  0
 16 20  1  6  0  0  0
 16 17  1  0  0  0  0
 16 21  1  0  0  0  0
 17 18  1  0  0  0  0
 19 21  1  0  0  0  0
 19 22  2  0  0  0  0
 21 15  1  6  0  0  0
 22 18  1  0  0  0  0
 24 26  1  0  0  0  0
 25 28  1  0  0  0  0
 25 24  2  0  0  0  0
 26 23  2  0  0  0  0
 27 29  1  0  0  0  0
 28 27  2  0  0  0  0
 29 23  1  0  0  0  0
M  END
>  <MODEL>
8

>  <REMARK>
 VINA RESULT:      -7.0      5.672      7.797
  Name = 
  2 active torsions:
  status: ('A' for Active; 'I' for Inactive)
    1  A    between atoms: C_8  and  C_9
    2  A    between atoms: N_10  and  C_16
                            x       y       z     vdW  Elec       q    Type
                         _______ _______ _______ _____ _____    ______ ____

>  <TORSDO>
F 2

$$$$
=
 OpenBabel11042410243D

 29 34  0  0  1  0  0  0  0  0999 V2000
  185.7030  179.2800  142.4590 S   0  0  0  0  0  0  0  0  0  0  0  0
  184.7930  177.4980  136.2560 N   0  0  0  0  0  0  0  0  0  0  0  0
  185.6240  178.2450  139.8580 C   0  0  0  0  0  0  0  0  0  0  0  0
  187.1140  178.1590  142.4510 C   0  0  0  0  0  0  0  0  0  0  0  0
  186.9100  177.8810  139.9960 C   0  0  0  0  0  2  0  0  0  0  0  0
  184.9380  178.0920  138.6100 C   0  0  0  0  0  0  0  0  0  0  0  0
  182.6890  177.9330  137.4010 C   0  0  0  0  0  3  0  0  0  0  0  0
  185.5590  177.8640  137.4150 C   0  0  0  0  0  0  0  0  0  0  0  0
  184.8920  178.6080  141.0050 C   0  0  0  0  0  0  0  0  0  0  0  0
  187.6100  177.7330  141.2840 C   0  0  0  0  0  3  0  0  0  0  0  0
  182.8580  178.3890  139.7940 N   0  0  0  0  0  0  0  0  0  0  0  0
  183.5180  178.1210  138.6380 C   0  0  0  0  0  0  0  0  0  0  0  0
  183.4990  177.4960  136.2250 C   0  0  0  0  0  3  0  0  0  0  0  0
  183.5060  178.6540  140.9520 C   0  0  0  0  0  3  0  0  0  0  0  0
  190.3270  177.0500  136.6850 O   0  0  0  0  0  0  0  0  0  0  0  0
  187.7880  176.7880  136.9190 C   0  0  2  0  0  3  0  0  0  0  0  0
  186.9740  178.0070  137.2450 N   0  0  0  0  0  0  0  0  0  0  0  0
  187.5510  179.3810  137.0800 C   0  0  0  0  0  2  0  0  0  0  0  0
  189.4410  178.2330  136.8350 C   0  0  0  0  0  0  0  0  0  0  0  0
  188.0750  176.0760  138.0730 F   0  0  0  0  0  0  0  0  0  0  0  0
  189.0760  177.1280  136.1160 C   0  0  1  0  0  3  0  0  0  0  0  0
  189.0050  179.3480  137.2800 N   0  0  0  0  0  0  0  0  0  0  0  0
  189.6960  177.6410  146.2010 C   0  0  0  0  0  3  0  0  0  0  0  0
  189.1470  177.8210  143.7720 C   0  0  0  0  0  3  0  0  0  0  0  0
  187.7990  177.8280  143.7310 C   0  0  0  0  0  0  0  0  0  0  0  0
  190.0130  177.4770  144.9170 C   0  0  0  0  0  3  0  0  0  0  0  0
  187.2370  177.5320  146.1590 C   0  0  0  0  0  3  0  0  0  0  0  0
  186.9600  177.3710  144.8650 C   0  0  0  0  0  3  0  0  0  0  0  0
  188.4270  178.2840  146.6480 C   0  0  0  0  0  2  0  0  0  0  0  0
  2  8  1  0  0  0  0
  3  5  1  0  0  0  0
  3  9  2  0  0  0  0
  4  1  1  0  0  0  0
  4 25  1  0  0  0  0
  5 10  1  0  0  0  0
  6 12  1  0  0  0  0
  6  3  1  0  0  0  0
  7 12  2  0  0  0  0
  8  6  2  0  0  0  0
  9  1  1  0  0  0  0
 10  4  2  0  0  0  0
 11 14  2  0  0  0  0
 12 11  1  0  0  0  0
 13  2  2  0  0  0  0
 13  7  1  0  0  0  0
 14  9  1  0  0  0  0
 15 19  1  0  0  0  0
 16 17  1  0  0  0  0
 16 20  1  1  0  0  0
 17  8  1  0  0  0  0
 18 17  1  0  0  0  0
 18 22  1  0  0  0  0
 19 22  2  0  0  0  0
 21 15  1  1  0  0  0
 21 19  1  0  0  0  0
 21 16  1  0  0  0  0
 23 29  1  0  0  0  0
 24 26  1  0  0  0  0
 25 24  2  0  0  0  0
 25 28  1  0  0  0  0
 26 23  2  0  0  0  0
 27 29  1  0  0  0  0
 28 27  2  0  0  0  0
M  END
>  <MODEL>
9

>  <REMARK>
 VINA RESULT:      -6.8      2.519      3.811
  Name = 
  2 active torsions:
  status: ('A' for Active; 'I' for Inactive)
    1  A    between atoms: C_8  and  C_9
    2  A    between atoms: N_10  and  C_16
                            x       y       z     vdW  Elec       q    Type
                         _______ _______ _______ _____ _____    ______ ____

>  <TORSDO>
F 2

$$$$
