=
 OpenBabel11042410133D

 32 34  0  0  1  0  0  0  0  0999 V2000
  191.6260  174.8510  136.0770 C   0  0  0  0  0  3  0  0  0  0  0  0
  189.6970  175.5380  137.3850 C   0  0  0  0  0  0  0  0  0  0  0  0
  188.6780  178.2240  137.9260 N   0  0  0  0  0  0  0  0  0  0  0  0
  190.5680  177.2220  141.9580 C   0  0  0  0  0  3  0  0  0  0  0  0
  187.0710  177.5260  136.3750 O   0  0  0  0  0  0  0  0  0  0  0  0
  190.5530  176.1010  138.3520 C   0  0  0  0  0  0  0  0  0  0  0  0
  187.9240  177.2030  137.2460 C   0  0  0  0  0  0  0  0  0  0  0  0
  191.9430  176.0340  138.1630 C   0  0  0  0  0  3  0  0  0  0  0  0
  192.4800  175.4080  137.0310 C   0  0  0  0  0  0  0  0  0  0  0  0
  188.2140  175.7510  137.5120 C   0  0  1  0  0  3  0  0  0  0  0  0
  189.1370  177.4110  142.3760 C   0  0  2  0  0  3  0  0  0  0  0  0
  190.2420  174.9260  136.2460 C   0  0  0  0  0  3  0  0  0  0  0  0
  189.1790  178.0800  139.2990 C   0  0  2  0  0  3  0  0  0  0  0  0
  190.9330  176.9310  140.7040 C   0  0  0  0  0  3  0  0  0  0  0  0
  189.9510  176.7660  139.5730 C   0  0  2  0  0  3  0  0  0  0  0  0
  188.8980  179.5010  137.2680 C   0  0  0  0  0  1  0  0  0  0  0  0
  188.0200  178.2320  140.2790 C   0  0  0  0  0  2  0  0  0  0  0  0
  188.5000  178.6070  141.6740 C   0  0  0  0  0  2  0  0  0  0  0  0
  194.4900  176.5750  136.5520 O   0  0  0  0  0  1  0  0  0  0  0  0
  193.9590  175.3140  136.8320 C   0  0  1  0  0  3  0  0  0  0  0  0
  194.6270  174.7240  138.0620 C   0  0  0  0  0  2  0  0  0  0  0  0
  196.0710  174.8090  137.9300 N   0  0  0  0  0  1  0  0  0  0  0  0
  189.0360  177.5570  143.8920 C   0  0  0  0  0  2  0  0  0  0  0  0
  187.6620  177.6420  144.3180 N   0  0  0  0  0  0  0  0  0  0  0  0
  187.3850  177.9460  145.5310 C   0  0  0  0  0  3  0  0  0  0  0  0
  185.9660  178.0340  145.9710 C   0  0  0  0  0  1  0  0  0  0  0  0
  187.4880  174.8920  136.6400 O   0  0  0  0  0  0  0  0  0  0  0  0
  186.5470  172.8250  137.3050 C   0  0  0  0  0  3  0  0  0  0  0  0
  186.4230  174.1330  137.1160 C   0  0  0  0  0  3  0  0  0  0  0  0
  187.7730  172.1570  137.0250 N   0  0  0  0  0  2  0  0  0  0  0  0
  187.9340  171.4410  135.8070 C   0  0  0  0  0  3  0  0  0  0  0  0
  188.9700  171.6930  135.0240 C   0  0  0  0  0  2  0  0  0  0  0  0
  1 12  2  0  0  0  0
  1  9  1  0  0  0  0
  2 10  1  0  0  0  0
  2  6  2  0  0  0  0
  3 13  1  0  0  0  0
  4 11  1  0  0  0  0
  5  7  2  0  0  0  0
  6 15  1  0  0  0  0
  7 10  1  0  0  0  0
  7  3  1  0  0  0  0
  8  6  1  0  0  0  0
  9  8  2  0  0  0  0
 10 27  1  6  0  0  0
 11 23  1  1  0  0  0
 12  2  1  0  0  0  0
 13 15  1  0  0  0  0
 13 17  1  1  0  0  0
 14  4  2  0  0  0  0
 15 14  1  1  0  0  0
 16  3  1  0  0  0  0
 17 18  1  0  0  0  0
 18 11  1  0  0  0  0
 20 19  1  1  0  0  0
 20  9  1  0  0  0  0
 20 21  1  0  0  0  0
 22 21  1  0  0  0  0
 23 24  1  0  0  0  0
 24 25  2  0  0  0  0
 25 26  1  0  0  0  0
 27 29  1  0  0  0  0
 29 28  2  0  0  0  0
 30 28  1  0  0  0  0
 31 30  1  0  0  0  0
 32 31  2  0  0  0  0
M  END
>  <MODEL>
1

>  <REMARK>
 VINA RESULT:      -6.6      0.000      0.000
  Name = 
  8 active torsions:
  status: ('A' for Active; 'I' for Inactive)
    1  A    between atoms: C_1  and  N_16
    2  A    between atoms: N_3  and  C_12
    3  A    between atoms: C_5  and  N_16
    4  A    between atoms: C_10  and  C_15
    5  A    between atoms: C_10  and  C_20
    6  A    between atoms: C_12  and  C_24
    7  A    between atoms: C_13  and  O_22
    8  A    between atoms: O_22  and  C_23
                            x       y       z     vdW  Elec       q    Type
                         _______ _______ _______ _____ _____    ______ ____

>  <TORSDO>
F 8

$$$$
=
 OpenBabel11042410133D

 32 34  0  0  1  0  0  0  0  0999 V2000
  191.4710  174.7130  136.0440 C   0  0  0  0  0  3  0  0  0  0  0  0
  189.5570  175.4700  137.3340 C   0  0  0  0  0  0  0  0  0  0  0  0
  188.6200  178.1910  137.8490 N   0  0  0  0  0  0  0  0  0  0  0  0
  190.4490  177.1590  141.9010 C   0  0  0  0  0  3  0  0  0  0  0  0
  187.0020  177.5340  136.2920 O   0  0  0  0  0  0  0  0  0  0  0  0
  190.4230  176.0130  138.3030 C   0  0  0  0  0  0  0  0  0  0  0  0
  187.8380  177.1900  137.1700 C   0  0  0  0  0  0  0  0  0  0  0  0
  191.8120  175.9000  138.1240 C   0  0  0  0  0  3  0  0  0  0  0  0
  192.3360  175.2490  137.0000 C   0  0  0  0  0  0  0  0  0  0  0  0
  188.0800  175.7310  137.4490 C   0  0  1  0  0  3  0  0  0  0  0  0
  189.0220  177.3970  142.3080 C   0  0  2  0  0  3  0  0  0  0  0  0
  190.0890  174.8330  136.2030 C   0  0  0  0  0  3  0  0  0  0  0  0
  189.1070  178.0420  139.2260 C   0  0  2  0  0  3  0  0  0  0  0  0
  190.8140  176.8480  140.6510 C   0  0  0  0  0  3  0  0  0  0  0  0
  189.8340  176.7060  139.5150 C   0  0  2  0  0  3  0  0  0  0  0  0
  188.8850  179.4560  137.1830 C   0  0  0  0  0  1  0  0  0  0  0  0
  187.9460  178.2370  140.1970 C   0  0  0  0  0  2  0  0  0  0  0  0
  188.4280  178.6070  141.5930 C   0  0  0  0  0  2  0  0  0  0  0  0
  194.4220  176.3630  136.8000 O   0  0  0  0  0  1  0  0  0  0  0  0
  193.8120  175.1060  136.8120 C   0  0  1  0  0  3  0  0  0  0  0  0
  194.4100  174.2440  137.9110 C   0  0  0  0  0  2  0  0  0  0  0  0
  195.4780  174.9650  138.5810 N   0  0  0  0  0  1  0  0  0  0  0  0
  188.9160  177.5570  143.8220 C   0  0  0  0  0  2  0  0  0  0  0  0
  190.0100  176.9030  144.4930 N   0  0  0  0  0  0  0  0  0  0  0  0
  190.3400  177.2610  145.6780 C   0  0  0  0  0  3  0  0  0  0  0  0
  191.4710  176.5860  146.3720 C   0  0  0  0  0  1  0  0  0  0  0  0
  187.3330  174.8900  136.5780 O   0  0  0  0  0  0  0  0  0  0  0  0
  185.2720  173.8880  137.1710 C   0  0  0  0  0  3  0  0  0  0  0  0
  186.5940  173.8220  137.0820 C   0  0  0  0  0  3  0  0  0  0  0  0
  184.5660  175.0520  136.7540 N   0  0  0  0  0  2  0  0  0  0  0  0
  183.9220  175.8780  137.7150 C   0  0  0  0  0  3  0  0  0  0  0  0
  183.8080  177.1790  137.5000 C   0  0  0  0  0  2  0  0  0  0  0  0
  1 12  2  0  0  0  0
  1  9  1  0  0  0  0
  2 10  1  0  0  0  0
  2  6  2  0  0  0  0
  3 13  1  0  0  0  0
  4 11  1  0  0  0  0
  5  7  2  0  0  0  0
  6 15  1  0  0  0  0
  7 10  1  0  0  0  0
  7  3  1  0  0  0  0
  8  6  1  0  0  0  0
  9  8  2  0  0  0  0
 10 27  1  6  0  0  0
 11 23  1  1  0  0  0
 12  2  1  0  0  0  0
 13 15  1  0  0  0  0
 13 17  1  1  0  0  0
 14  4  2  0  0  0  0
 15 14  1  1  0  0  0
 16  3  1  0  0  0  0
 17 18  1  0  0  0  0
 18 11  1  0  0  0  0
 20 19  1  1  0  0  0
 20  9  1  0  0  0  0
 20 21  1  0  0  0  0
 21 22  1  0  0  0  0
 23 24  1  0  0  0  0
 24 25  2  0  0  0  0
 25 26  1  0  0  0  0
 27 29  1  0  0  0  0
 29 28  2  0  0  0  0
 30 28  1  0  0  0  0
 30 31  1  0  0  0  0
 32 31  2  0  0  0  0
M  END
>  <MODEL>
2

>  <REMARK>
 VINA RESULT:      -6.4      1.500      2.329
  Name = 
  8 active torsions:
  status: ('A' for Active; 'I' for Inactive)
    1  A    between atoms: C_1  and  N_16
    2  A    between atoms: N_3  and  C_12
    3  A    between atoms: C_5  and  N_16
    4  A    between atoms: C_10  and  C_15
    5  A    between atoms: C_10  and  C_20
    6  A    between atoms: C_12  and  C_24
    7  A    between atoms: C_13  and  O_22
    8  A    between atoms: O_22  and  C_23
                            x       y       z     vdW  Elec       q    Type
                         _______ _______ _______ _____ _____    ______ ____

>  <TORSDO>
F 8

$$$$
=
 OpenBabel11042410133D

 32 34  0  0  1  0  0  0  0  0999 V2000
  184.1580  176.7780  137.0190 C   0  0  0  0  0  3  0  0  0  0  0  0
  182.8420  176.8020  139.0600 C   0  0  0  0  0  0  0  0  0  0  0  0
  181.2930  178.9790  140.2490 N   0  0  0  0  0  0  0  0  0  0  0  0
  184.9050  178.9010  143.0400 C   0  0  0  0  0  3  0  0  0  0  0  0
  179.5300  177.6860  139.4170 O   0  0  0  0  0  0  0  0  0  0  0  0
  183.7740  177.6760  139.6520 C   0  0  0  0  0  0  0  0  0  0  0  0
  180.7220  177.7260  139.8280 C   0  0  0  0  0  0  0  0  0  0  0  0
  184.8910  178.0940  138.9100 C   0  0  0  0  0  3  0  0  0  0  0  0
  185.0860  177.6440  137.5980 C   0  0  0  0  0  0  0  0  0  0  0  0
  181.5710  176.4840  139.7980 C   0  0  1  0  0  3  0  0  0  0  0  0
  183.8060  178.5940  144.0190 C   0  0  2  0  0  3  0  0  0  0  0  0
  183.0350  176.3670  137.7400 C   0  0  0  0  0  3  0  0  0  0  0  0
  182.3360  179.0870  141.2780 C   0  0  2  0  0  3  0  0  0  0  0  0
  184.7900  178.6990  141.7220 C   0  0  0  0  0  3  0  0  0  0  0  0
  183.5470  178.1440  141.0750 C   0  0  2  0  0  3  0  0  0  0  0  0
  180.7720  180.2180  139.6980 C   0  0  0  0  0  1  0  0  0  0  0  0
  181.7140  178.8660  142.6530 C   0  0  0  0  0  2  0  0  0  0  0  0
  182.5710  179.4530  143.7660 C   0  0  0  0  0  2  0  0  0  0  0  0
  187.0740  178.9410  137.5610 O   0  0  0  0  0  1  0  0  0  0  0  0
  186.2830  178.0690  136.8100 C   0  0  1  0  0  3  0  0  0  0  0  0
  187.0970  176.8590  136.3800 C   0  0  0  0  0  2  0  0  0  0  0  0
  187.6550  176.1990  137.5470 N   0  0  0  0  0  1  0  0  0  0  0  0
  184.3020  178.7670  145.4520 C   0  0  0  0  0  2  0  0  0  0  0  0
  185.7400  178.6900  145.5200 N   0  0  0  0  0  0  0  0  0  0  0  0
  186.3020  177.6560  146.0250 C   0  0  0  0  0  3  0  0  0  0  0  0
  187.7870  177.5760  146.0960 C   0  0  0  0  0  1  0  0  0  0  0  0
  180.8870  175.3840  139.2090 O   0  0  0  0  0  0  0  0  0  0  0  0
  179.3810  173.5710  139.4230 C   0  0  0  0  0  3  0  0  0  0  0  0
  180.0270  174.5930  139.9670 C   0  0  0  0  0  3  0  0  0  0  0  0
  179.5470  173.2480  138.0450 N   0  0  0  0  0  2  0  0  0  0  0  0
  180.4030  172.1810  137.6600 C   0  0  0  0  0  3  0  0  0  0  0  0
  181.5870  172.4400  137.1310 C   0  0  0  0  0  2  0  0  0  0  0  0
  1  9  2  0  0  0  0
  1 12  1  0  0  0  0
  2  6  1  0  0  0  0
  2 10  1  0  0  0  0
  3 13  1  0  0  0  0
  4 11  1  0  0  0  0
  5  7  2  0  0  0  0
  6 15  1  0  0  0  0
  7  3  1  0  0  0  0
  8  6  2  0  0  0  0
  9  8  1  0  0  0  0
 10 27  1  6  0  0  0
 10  7  1  0  0  0  0
 11 23  1  1  0  0  0
 12  2  2  0  0  0  0
 13 17  1  1  0  0  0
 14  4  2  0  0  0  0
 15 13  1  0  0  0  0
 15 14  1  6  0  0  0
 16  3  1  0  0  0  0
 17 18  1  0  0  0  0
 18 11  1  0  0  0  0
 20 19  1  1  0  0  0
 20  9  1  0  0  0  0
 21 20  1  0  0  0  0
 21 22  1  0  0  0  0
 23 24  1  0  0  0  0
 24 25  2  0  0  0  0
 25 26  1  0  0  0  0
 27 29  1  0  0  0  0
 28 29  2  0  0  0  0
 30 28  1  0  0  0  0
 31 30  1  0  0  0  0
 32 31  2  0  0  0  0
M  END
>  <MODEL>
3

>  <REMARK>
 VINA RESULT:      -6.1      5.030      7.033
  Name = 
  8 active torsions:
  status: ('A' for Active; 'I' for Inactive)
    1  A    between atoms: C_1  and  N_16
    2  A    between atoms: N_3  and  C_12
    3  A    between atoms: C_5  and  N_16
    4  A    between atoms: C_10  and  C_15
    5  A    between atoms: C_10  and  C_20
    6  A    between atoms: C_12  and  C_24
    7  A    between atoms: C_13  and  O_22
    8  A    between atoms: O_22  and  C_23
                            x       y       z     vdW  Elec       q    Type
                         _______ _______ _______ _____ _____    ______ ____

>  <TORSDO>
F 8

$$$$
=
 OpenBabel11042410133D

 32 34  0  0  1  0  0  0  0  0999 V2000
  186.7850  177.6150  146.1590 C   0  0  0  0  0  3  0  0  0  0  0  0
  188.8800  177.0340  145.0750 C   0  0  0  0  0  0  0  0  0  0  0  0
  190.8710  178.7710  143.8230 N   0  0  0  0  0  0  0  0  0  0  0  0
  188.9040  176.9580  140.1260 C   0  0  0  0  0  3  0  0  0  0  0  0
  192.0250  178.2460  145.7900 O   0  0  0  0  0  0  0  0  0  0  0  0
  188.3450  177.4210  143.8310 C   0  0  0  0  0  0  0  0  0  0  0  0
  191.1490  177.9140  144.9470 C   0  0  0  0  0  0  0  0  0  0  0  0
  187.0280  177.9080  143.7700 C   0  0  0  0  0  3  0  0  0  0  0  0
  186.2480  178.0020  144.9300 C   0  0  0  0  0  0  0  0  0  0  0  0
  190.3360  176.6660  145.1590 C   0  0  1  0  0  3  0  0  0  0  0  0
  190.3140  176.4720  139.9410 C   0  0  2  0  0  3  0  0  0  0  0  0
  188.0980  177.1460  146.2350 C   0  0  0  0  0  3  0  0  0  0  0  0
  190.4080  178.2750  142.5220 C   0  0  2  0  0  3  0  0  0  0  0  0
  188.4050  177.3290  141.3110 C   0  0  0  0  0  3  0  0  0  0  0  0
  189.2040  177.3040  142.5890 C   0  0  2  0  0  3  0  0  0  0  0  0
  191.1310  180.1970  143.9380 C   0  0  0  0  0  1  0  0  0  0  0  0
  191.5750  177.6260  141.7840 C   0  0  0  0  0  2  0  0  0  0  0  0
  191.3320  177.5560  140.2830 C   0  0  0  0  0  2  0  0  0  0  0  0
  184.4800  179.0810  146.0890 O   0  0  0  0  0  1  0  0  0  0  0  0
  184.8400  178.4990  144.8710 C   0  0  1  0  0  3  0  0  0  0  0  0
  184.6740  179.5020  143.7410 C   0  0  0  0  0  2  0  0  0  0  0  0
  183.7550  178.9780  142.7450 N   0  0  0  0  0  1  0  0  0  0  0  0
  190.5230  175.9630  138.5170 C   0  0  0  0  0  2  0  0  0  0  0  0
  191.9210  175.9480  138.1680 N   0  0  0  0  0  0  0  0  0  0  0  0
  192.2800  176.1310  136.9530 C   0  0  0  0  0  3  0  0  0  0  0  0
  193.7240  176.1160  136.5920 C   0  0  0  0  0  1  0  0  0  0  0  0
  190.6420  176.0320  146.3950 O   0  0  0  0  0  0  0  0  0  0  0  0
  192.6490  175.3800  147.4670 C   0  0  0  0  0  3  0  0  0  0  0  0
  191.7500  175.1960  146.5100 C   0  0  0  0  0  3  0  0  0  0  0  0
  192.5110  176.4410  148.4080 N   0  0  0  0  0  0  0  0  0  0  0  0
  193.3770  176.5120  149.5340 C   0  0  0  0  0  3  0  0  0  0  0  0
  193.5270  177.6560  150.1820 C   0  0  0  0  0  1  0  0  0  0  0  0
  1 12  1  0  0  0  0
  2 10  1  0  0  0  0
  2 12  2  0  0  0  0
  3 16  1  0  0  0  0
  3  7  1  0  0  0  0
  4 14  2  0  0  0  0
  6  2  1  0  0  0  0
  7 10  1  0  0  0  0
  7  5  2  0  0  0  0
  8  6  2  0  0  0  0
  8  9  1  0  0  0  0
  9  1  2  0  0  0  0
 10 27  1  1  0  0  0
 11 23  1  6  0  0  0
 11  4  1  0  0  0  0
 11 18  1  0  0  0  0
 13 17  1  1  0  0  0
 13 15  1  0  0  0  0
 13  3  1  0  0  0  0
 15 14  1  6  0  0  0
 15  6  1  0  0  0  0
 18 17  1  0  0  0  0
 20  9  1  0  0  0  0
 20 19  1  1  0  0  0
 21 20  1  0  0  0  0
 22 21  1  0  0  0  0
 24 23  1  0  0  0  0
 25 24  2  0  0  0  0
 26 25  1  0  0  0  0
 27 29  1  0  0  0  0
 28 30  1  0  0  0  0
 29 28  2  0  0  0  0
 30 31  2  0  0  0  0
 31 32  1  0  0  0  0
M  END
>  <MODEL>
4

>  <REMARK>
 VINA RESULT:      -5.9      4.346      9.736
  Name = 
  8 active torsions:
  status: ('A' for Active; 'I' for Inactive)
    1  A    between atoms: C_1  and  N_16
    2  A    between atoms: N_3  and  C_12
    3  A    between atoms: C_5  and  N_16
    4  A    between atoms: C_10  and  C_15
    5  A    between atoms: C_10  and  C_20
    6  A    between atoms: C_12  and  C_24
    7  A    between atoms: C_13  and  O_22
    8  A    between atoms: O_22  and  C_23
                            x       y       z     vdW  Elec       q    Type
                         _______ _______ _______ _____ _____    ______ ____

>  <TORSDO>
F 8

$$$$
=
 OpenBabel11042410133D

 32 34  0  0  1  0  0  0  0  0999 V2000
  188.6880  177.5010  141.3790 C   0  0  0  0  0  3  0  0  0  0  0  0
  188.9930  177.5280  138.9690 C   0  0  0  0  0  0  0  0  0  0  0  0
  189.0150  175.3030  137.0720 N   0  0  0  0  0  0  0  0  0  0  0  0
  193.4680  176.2880  137.2560 C   0  0  0  0  0  3  0  0  0  0  0  0
  186.9100  176.1930  136.5700 O   0  0  0  0  0  0  0  0  0  0  0  0
  190.2400  176.8900  139.1180 C   0  0  0  0  0  0  0  0  0  0  0  0
  188.0710  176.3900  137.0220 C   0  0  0  0  0  0  0  0  0  0  0  0
  190.6930  176.5610  140.4070 C   0  0  0  0  0  3  0  0  0  0  0  0
  189.9220  176.8680  141.5350 C   0  0  0  0  0  0  0  0  0  0  0  0
  188.4420  177.7350  137.5850 C   0  0  1  0  0  3  0  0  0  0  0  0
  193.2010  176.5410  135.7980 C   0  0  2  0  0  3  0  0  0  0  0  0
  188.2190  177.8190  140.1020 C   0  0  0  0  0  3  0  0  0  0  0  0
  190.4670  175.4880  136.9550 C   0  0  2  0  0  3  0  0  0  0  0  0
  192.5110  176.3040  138.1910 C   0  0  0  0  0  3  0  0  0  0  0  0
  191.0600  176.5740  137.8850 C   0  0  2  0  0  3  0  0  0  0  0  0
  188.5230  173.9390  137.1640 C   0  0  0  0  0  1  0  0  0  0  0  0
  190.8240  175.7790  135.5000 C   0  0  0  0  0  2  0  0  0  0  0  0
  192.2860  175.4760  135.2020 C   0  0  0  0  0  2  0  0  0  0  0  0
  190.5810  175.1600  143.0450 O   0  0  0  0  0  1  0  0  0  0  0  0
  190.4070  176.5390  142.9100 C   0  0  1  0  0  3  0  0  0  0  0  0
  191.7090  177.2650  143.2060 C   0  0  0  0  0  2  0  0  0  0  0  0
  191.4320  178.6180  143.6530 N   0  0  0  0  0  1  0  0  0  0  0  0
  194.5110  176.6270  135.0200 C   0  0  0  0  0  2  0  0  0  0  0  0
  195.6220  176.1730  135.8180 N   0  0  0  0  0  0  0  0  0  0  0  0
  196.6000  175.5590  135.2630 C   0  0  0  0  0  3  0  0  0  0  0  0
  197.7470  175.0900  136.0870 C   0  0  0  0  0  1  0  0  0  0  0  0
  187.3390  178.6330  137.5920 O   0  0  0  0  0  0  0  0  0  0  0  0
  185.0850  178.4630  138.2940 C   0  0  0  0  0  3  0  0  0  0  0  0
  186.0390  178.1640  137.4220 C   0  0  0  0  0  3  0  0  0  0  0  0
  185.3600  179.2730  139.4330 N   0  0  0  0  0  2  0  0  0  0  0  0
  184.6220  179.0880  140.6340 C   0  0  0  0  0  3  0  0  0  0  0  0
  185.2430  179.1160  141.8020 C   0  0  0  0  0  2  0  0  0  0  0  0
  1  9  1  0  0  0  0
  2  6  2  0  0  0  0
  2 12  1  0  0  0  0
  3 16  1  0  0  0  0
  4 14  2  0  0  0  0
  5  7  2  0  0  0  0
  6  8  1  0  0  0  0
  7  3  1  0  0  0  0
  7 10  1  0  0  0  0
  8  9  2  0  0  0  0
  9 20  1  0  0  0  0
 10 27  1  1  0  0  0
 10  2  1  0  0  0  0
 11 23  1  6  0  0  0
 11  4  1  0  0  0  0
 12  1  2  0  0  0  0
 13 17  1  6  0  0  0
 13  3  1  0  0  0  0
 13 15  1  0  0  0  0
 15 14  1  1  0  0  0
 15  6  1  0  0  0  0
 18 17  1  0  0  0  0
 18 11  1  0  0  0  0
 20 19  1  6  0  0  0
 20 21  1  0  0  0  0
 21 22  1  0  0  0  0
 23 24  1  0  0  0  0
 25 24  2  0  0  0  0
 25 26  1  0  0  0  0
 28 30  1  0  0  0  0
 29 27  1  0  0  0  0
 29 28  2  0  0  0  0
 30 31  1  0  0  0  0
 31 32  2  0  0  0  0
M  END
>  <MODEL>
5

>  <REMARK>
 VINA RESULT:      -5.5      2.458      7.136
  Name = 
  8 active torsions:
  status: ('A' for Active; 'I' for Inactive)
    1  A    between atoms: C_1  and  N_16
    2  A    between atoms: N_3  and  C_12
    3  A    between atoms: C_5  and  N_16
    4  A    between atoms: C_10  and  C_15
    5  A    between atoms: C_10  and  C_20
    6  A    between atoms: C_12  and  C_24
    7  A    between atoms: C_13  and  O_22
    8  A    between atoms: O_22  and  C_23
                            x       y       z     vdW  Elec       q    Type
                         _______ _______ _______ _____ _____    ______ ____

>  <TORSDO>
F 8

$$$$
=
 OpenBabel11042410133D

 32 34  0  0  1  0  0  0  0  0999 V2000
  181.7030  179.1930  143.1040 C   0  0  0  0  0  3  0  0  0  0  0  0
  182.9070  178.6170  141.0750 C   0  0  0  0  0  0  0  0  0  0  0  0
  182.3630  179.3890  138.3070 N   0  0  0  0  0  0  0  0  0  0  0  0
  180.9710  175.0420  138.2510 C   0  0  0  0  0  3  0  0  0  0  0  0
  184.2070  180.7690  138.7180 O   0  0  0  0  0  0  0  0  0  0  0  0
  181.8170  177.8330  140.6490 C   0  0  0  0  0  0  0  0  0  0  0  0
  183.5800  179.7130  139.0060 C   0  0  0  0  0  0  0  0  0  0  0  0
  180.6760  177.7430  141.4630 C   0  0  0  0  0  3  0  0  0  0  0  0
  180.6180  178.4180  142.6900 C   0  0  0  0  0  0  0  0  0  0  0  0
  184.0570  178.8370  140.1320 C   0  0  1  0  0  3  0  0  0  0  0  0
  182.0690  174.9820  137.2250 C   0  0  2  0  0  3  0  0  0  0  0  0
  182.8360  179.3030  142.2970 C   0  0  0  0  0  3  0  0  0  0  0  0
  181.9100  178.0130  138.0690 C   0  0  2  0  0  3  0  0  0  0  0  0
  180.8970  175.9910  139.1910 C   0  0  0  0  0  3  0  0  0  0  0  0
  181.9040  177.1050  139.3230 C   0  0  2  0  0  3  0  0  0  0  0  0
  181.5670  180.4600  137.7330 C   0  0  0  0  0  1  0  0  0  0  0  0
  182.7540  177.3870  136.9630 C   0  0  0  0  0  2  0  0  0  0  0  0
  182.0510  176.2040  136.3110 C   0  0  0  0  0  2  0  0  0  0  0  0
  179.7060  177.5340  144.6940 O   0  0  0  0  0  1  0  0  0  0  0  0
  179.4160  178.3110  143.5710 C   0  0  1  0  0  3  0  0  0  0  0  0
  178.9400  179.6910  143.9960 C   0  0  0  0  0  2  0  0  0  0  0  0
  178.9330  180.5860  142.8520 N   0  0  0  0  0  1  0  0  0  0  0  0
  181.9720  173.6950  136.4110 C   0  0  0  0  0  2  0  0  0  0  0  0
  183.2350  173.0030  136.3760 N   0  0  0  0  0  0  0  0  0  0  0  0
  184.1620  173.3200  137.2010 C   0  0  0  0  0  3  0  0  0  0  0  0
  185.4670  172.6050  137.1650 C   0  0  0  0  0  1  0  0  0  0  0  0
  185.1810  179.3950  140.8030 O   0  0  0  0  0  0  0  0  0  0  0  0
  186.7880  178.2410  142.1010 C   0  0  0  0  0  3  0  0  0  0  0  0
  186.3670  178.6760  140.9210 C   0  0  0  0  0  3  0  0  0  0  0  0
  186.0400  178.4960  143.2860 N   0  0  0  0  0  2  0  0  0  0  0  0
  186.3460  177.8000  144.4870 C   0  0  0  0  0  3  0  0  0  0  0  0
  186.0290  178.3280  145.6580 C   0  0  0  0  0  2  0  0  0  0  0  0
  2 12  1  0  0  0  0
  3  7  1  0  0  0  0
  4 14  2  0  0  0  0
  5  7  2  0  0  0  0
  6  2  2  0  0  0  0
  6  8  1  0  0  0  0
  7 10  1  0  0  0  0
  8  9  2  0  0  0  0
  9  1  1  0  0  0  0
  9 20  1  0  0  0  0
 10 27  1  1  0  0  0
 10  2  1  0  0  0  0
 11 23  1  6  0  0  0
 11  4  1  0  0  0  0
 12  1  2  0  0  0  0
 13 17  1  6  0  0  0
 13  3  1  0  0  0  0
 13 15  1  0  0  0  0
 15 14  1  6  0  0  0
 15  6  1  0  0  0  0
 16  3  1  0  0  0  0
 18 17  1  0  0  0  0
 18 11  1  0  0  0  0
 20 21  1  0  0  0  0
 20 19  1  1  0  0  0
 22 21  1  0  0  0  0
 24 23  1  0  0  0  0
 24 25  2  0  0  0  0
 26 25  1  0  0  0  0
 27 29  1  0  0  0  0
 28 30  1  0  0  0  0
 29 28  2  0  0  0  0
 30 31  1  0  0  0  0
 31 32  2  0  0  0  0
M  END
>  <MODEL>
6

>  <REMARK>
 VINA RESULT:      -5.4      5.522     10.617
  Name = 
  8 active torsions:
  status: ('A' for Active; 'I' for Inactive)
    1  A    between atoms: C_1  and  N_16
    2  A    between atoms: N_3  and  C_12
    3  A    between atoms: C_5  and  N_16
    4  A    between atoms: C_10  and  C_15
    5  A    between atoms: C_10  and  C_20
    6  A    between atoms: C_12  and  C_24
    7  A    between atoms: C_13  and  O_22
    8  A    between atoms: O_22  and  C_23
                            x       y       z     vdW  Elec       q    Type
                         _______ _______ _______ _____ _____    ______ ____

>  <TORSDO>
F 8

$$$$
=
 OpenBabel11042410133D

 32 34  0  0  1  0  0  0  0  0999 V2000
  179.6910  180.3000  140.0860 C   0  0  0  0  0  3  0  0  0  0  0  0
  181.0530  179.8550  138.1240 C   0  0  0  0  0  0  0  0  0  0  0  0
  181.7110  177.3040  136.8570 N   0  0  0  0  0  0  0  0  0  0  0  0
  185.6740  178.2640  138.9100 C   0  0  0  0  0  3  0  0  0  0  0  0
  180.1590  178.0980  135.2980 O   0  0  0  0  0  0  0  0  0  0  0  0
  182.0280  179.2460  138.9380 C   0  0  0  0  0  0  0  0  0  0  0  0
  181.0030  178.3680  136.1950 C   0  0  0  0  0  0  0  0  0  0  0  0
  181.8160  179.1700  140.3250 C   0  0  0  0  0  3  0  0  0  0  0  0
  180.6530  179.6980  140.9000 C   0  0  0  0  0  0  0  0  0  0  0  0
  181.2090  179.7940  136.6300 C   0  0  1  0  0  3  0  0  0  0  0  0
  186.1200  178.2310  137.4740 C   0  0  2  0  0  3  0  0  0  0  0  0
  179.8830  180.3680  138.7050 C   0  0  0  0  0  3  0  0  0  0  0  0
  183.0700  177.4480  137.3950 C   0  0  2  0  0  3  0  0  0  0  0  0
  184.4040  178.4700  139.2790 C   0  0  0  0  0  3  0  0  0  0  0  0
  183.2820  178.6890  138.2960 C   0  0  2  0  0  3  0  0  0  0  0  0
  181.0990  175.9880  136.9390 C   0  0  0  0  0  1  0  0  0  0  0  0
  184.0720  177.4480  136.2450 C   0  0  0  0  0  2  0  0  0  0  0  0
  185.4740  177.0790  136.7110 C   0  0  0  0  0  2  0  0  0  0  0  0
  179.9800  180.8730  142.8480 O   0  0  0  0  0  1  0  0  0  0  0  0
  180.4290  179.6380  142.3760 C   0  0  1  0  0  3  0  0  0  0  0  0
  179.4280  178.5480  142.7210 C   0  0  0  0  0  2  0  0  0  0  0  0
  179.6830  178.0470  144.0600 N   0  0  0  0  0  1  0  0  0  0  0  0
  187.6410  178.1520  137.3880 C   0  0  0  0  0  2  0  0  0  0  0  0
  188.2270  177.9370  138.6860 N   0  0  0  0  0  0  0  0  0  0  0  0
  189.4860  177.7260  138.7940 C   0  0  0  0  0  3  0  0  0  0  0  0
  190.0910  177.5030  140.1350 C   0  0  0  0  0  1  0  0  0  0  0  0
  180.3160  180.6870  135.9750 O   0  0  0  0  0  0  0  0  0  0  0  0
  180.5340  182.8940  135.1510 C   0  0  0  0  0  3  0  0  0  0  0  0
  180.7850  181.5970  135.0320 C   0  0  0  0  0  3  0  0  0  0  0  0
  179.7750  183.3970  136.2460 N   0  0  0  0  0  2  0  0  0  0  0  0
  180.4360  183.9380  137.3830 C   0  0  0  0  0  3  0  0  0  0  0  0
  181.5550  184.6290  137.2320 C   0  0  0  0  0  2  0  0  0  0  0  0
  1  9  1  0  0  0  0
  2 12  1  0  0  0  0
  2  6  2  0  0  0  0
  3 16  1  0  0  0  0
  3 13  1  0  0  0  0
  4 14  2  0  0  0  0
  5  7  2  0  0  0  0
  6  8  1  0  0  0  0
  7 10  1  0  0  0  0
  7  3  1  0  0  0  0
  8  9  2  0  0  0  0
  9 20  1  0  0  0  0
 10 27  1  6  0  0  0
 10  2  1  0  0  0  0
 11 23  1  1  0  0  0
 11  4  1  0  0  0  0
 12  1  2  0  0  0  0
 13 17  1  6  0  0  0
 13 15  1  0  0  0  0
 15  6  1  0  0  0  0
 15 14  1  1  0  0  0
 17 18  1  0  0  0  0
 18 11  1  0  0  0  0
 20 21  1  0  0  0  0
 20 19  1  6  0  0  0
 21 22  1  0  0  0  0
 23 24  1  0  0  0  0
 24 25  2  0  0  0  0
 25 26  1  0  0  0  0
 28 30  1  0  0  0  0
 29 28  2  0  0  0  0
 29 27  1  0  0  0  0
 30 31  1  0  0  0  0
 32 31  2  0  0  0  0
M  END
>  <MODEL>
7

>  <REMARK>
 VINA RESULT:      -5.3      6.688     10.575
  Name = 
  8 active torsions:
  status: ('A' for Active; 'I' for Inactive)
    1  A    between atoms: C_1  and  N_16
    2  A    between atoms: N_3  and  C_12
    3  A    between atoms: C_5  and  N_16
    4  A    between atoms: C_10  and  C_15
    5  A    between atoms: C_10  and  C_20
    6  A    between atoms: C_12  and  C_24
    7  A    between atoms: C_13  and  O_22
    8  A    between atoms: O_22  and  C_23
                            x       y       z     vdW  Elec       q    Type
                         _______ _______ _______ _____ _____    ______ ____

>  <TORSDO>
F 8

$$$$
=
 OpenBabel11042410133D

 32 34  0  0  1  0  0  0  0  0999 V2000
  181.6540  179.0960  143.6700 C   0  0  0  0  0  3  0  0  0  0  0  0
  183.3250  178.1550  142.1790 C   0  0  0  0  0  0  0  0  0  0  0  0
  184.1430  179.0320  139.5120 N   0  0  0  0  0  0  0  0  0  0  0  0
  181.6840  175.3340  138.4570 C   0  0  0  0  0  3  0  0  0  0  0  0
  185.9990  179.7730  140.7290 O   0  0  0  0  0  0  0  0  0  0  0  0
  182.3080  177.7450  141.2950 C   0  0  0  0  0  0  0  0  0  0  0  0
  185.0330  178.9680  140.6430 C   0  0  0  0  0  0  0  0  0  0  0  0
  180.9680  178.0220  141.6140 C   0  0  0  0  0  3  0  0  0  0  0  0
  180.6400  178.6930  142.7990 C   0  0  0  0  0  0  0  0  0  0  0  0
  184.7610  177.9970  141.7600 C   0  0  1  0  0  3  0  0  0  0  0  0
  183.0240  174.9260  137.9110 C   0  0  2  0  0  3  0  0  0  0  0  0
  182.9900  178.8400  143.3570 C   0  0  0  0  0  3  0  0  0  0  0  0
  183.4390  177.8630  138.9700 C   0  0  2  0  0  3  0  0  0  0  0  0
  181.5320  176.2670  139.4040 C   0  0  0  0  0  3  0  0  0  0  0  0
  182.6850  177.0140  140.0230 C   0  0  2  0  0  3  0  0  0  0  0  0
  183.9800  180.2920  138.8080 C   0  0  0  0  0  1  0  0  0  0  0  0
  184.4230  176.9950  138.1920 C   0  0  0  0  0  2  0  0  0  0  0  0
  183.7170  176.0840  137.1980 C   0  0  0  0  0  2  0  0  0  0  0  0
  178.9310  178.4910  144.4340 O   0  0  0  0  0  1  0  0  0  0  0  0
  179.2150  178.9740  143.1540 C   0  0  1  0  0  3  0  0  0  0  0  0
  178.9310  180.4650  143.0810 C   0  0  0  0  0  2  0  0  0  0  0  0
  179.0680  180.9290  141.7120 N   0  0  0  0  0  1  0  0  0  0  0  0
  182.8800  173.7250  136.9790 C   0  0  0  0  0  2  0  0  0  0  0  0
  181.6670  172.9960  137.2520 N   0  0  0  0  0  0  0  0  0  0  0  0
  181.3020  172.0470  136.4740 C   0  0  0  0  0  3  0  0  0  0  0  0
  180.0500  171.2940  136.7550 C   0  0  0  0  0  1  0  0  0  0  0  0
  185.6470  178.1840  142.8570 O   0  0  0  0  0  0  0  0  0  0  0  0
  187.5450  177.4470  144.0630 C   0  0  0  0  0  3  0  0  0  0  0  0
  186.8330  177.4580  142.9440 C   0  0  0  0  0  3  0  0  0  0  0  0
  187.1220  178.1760  145.2110 N   0  0  0  0  0  2  0  0  0  0  0  0
  187.3750  177.6660  146.5130 C   0  0  0  0  0  3  0  0  0  0  0  0
  188.6070  177.3420  146.8690 C   0  0  0  0  0  2  0  0  0  0  0  0
  2 12  2  0  0  0  0
  3  7  1  0  0  0  0
  4 14  2  0  0  0  0
  6  8  2  0  0  0  0
  6  2  1  0  0  0  0
  7  5  2  0  0  0  0
  7 10  1  0  0  0  0
  8  9  1  0  0  0  0
  9 20  1  0  0  0  0
  9  1  2  0  0  0  0
 10  2  1  0  0  0  0
 10 27  1  1  0  0  0
 11 23  1  6  0  0  0
 11  4  1  0  0  0  0
 12  1  1  0  0  0  0
 13 17  1  1  0  0  0
 13  3  1  0  0  0  0
 13 15  1  0  0  0  0
 15 14  1  6  0  0  0
 15  6  1  0  0  0  0
 16  3  1  0  0  0  0
 18 11  1  0  0  0  0
 18 17  1  0  0  0  0
 20 19  1  1  0  0  0
 21 20  1  0  0  0  0
 22 21  1  0  0  0  0
 23 24  1  0  0  0  0
 25 26  1  0  0  0  0
 25 24  2  0  0  0  0
 27 29  1  0  0  0  0
 28 30  1  0  0  0  0
 29 28  2  0  0  0  0
 30 31  1  0  0  0  0
 31 32  2  0  0  0  0
M  END
>  <MODEL>
8

>  <REMARK>
 VINA RESULT:      -5.3      5.893     10.677
  Name = 
  8 active torsions:
  status: ('A' for Active; 'I' for Inactive)
    1  A    between atoms: C_1  and  N_16
    2  A    between atoms: N_3  and  C_12
    3  A    between atoms: C_5  and  N_16
    4  A    between atoms: C_10  and  C_15
    5  A    between atoms: C_10  and  C_20
    6  A    between atoms: C_12  and  C_24
    7  A    between atoms: C_13  and  O_22
    8  A    between atoms: O_22  and  C_23
                            x       y       z     vdW  Elec       q    Type
                         _______ _______ _______ _____ _____    ______ ____

>  <TORSDO>
F 8

$$$$
=
 OpenBabel11042410133D

 32 34  0  0  1  0  0  0  0  0999 V2000
  180.6730  179.5490  141.1890 C   0  0  0  0  0  3  0  0  0  0  0  0
  181.6850  179.1640  139.0150 C   0  0  0  0  0  0  0  0  0  0  0  0
  182.4860  176.6500  137.7550 N   0  0  0  0  0  0  0  0  0  0  0  0
  186.5650  178.3360  138.9220 C   0  0  0  0  0  3  0  0  0  0  0  0
  180.5560  177.0880  136.5070 O   0  0  0  0  0  0  0  0  0  0  0  0
  182.8840  178.7690  139.6410 C   0  0  0  0  0  0  0  0  0  0  0  0
  181.5030  177.5460  137.2030 C   0  0  0  0  0  0  0  0  0  0  0  0
  182.9570  178.7660  141.0440 C   0  0  0  0  0  3  0  0  0  0  0  0
  181.8570  179.1590  141.8180 C   0  0  0  0  0  0  0  0  0  0  0  0
  181.5590  179.0150  137.5240 C   0  0  1  0  0  3  0  0  0  0  0  0
  186.7260  178.2620  137.4290 C   0  0  2  0  0  3  0  0  0  0  0  0
  180.5820  179.5410  139.7960 C   0  0  0  0  0  3  0  0  0  0  0  0
  183.8820  177.0340  138.0010 C   0  0  2  0  0  3  0  0  0  0  0  0
  185.3730  178.3800  139.5300 C   0  0  0  0  0  3  0  0  0  0  0  0
  184.0630  178.3570  138.7850 C   0  0  2  0  0  3  0  0  0  0  0  0
  182.1200  175.2690  138.0170 C   0  0  0  0  0  1  0  0  0  0  0  0
  184.6310  177.0950  136.6730 C   0  0  0  0  0  2  0  0  0  0  0  0
  186.1370  176.9730  136.8630 C   0  0  0  0  0  2  0  0  0  0  0  0
  181.0190  178.2730  143.8540 O   0  0  0  0  0  1  0  0  0  0  0  0
  181.9340  179.1780  143.3100 C   0  0  1  0  0  3  0  0  0  0  0  0
  183.3410  178.8450  143.7770 C   0  0  0  0  0  2  0  0  0  0  0  0
  183.4300  178.9830  145.2200 N   0  0  0  0  0  1  0  0  0  0  0  0
  188.1950  178.4020  137.0410 C   0  0  0  0  0  2  0  0  0  0  0  0
  189.0580  178.1580  138.1690 N   0  0  0  0  0  0  0  0  0  0  0  0
  189.7490  177.0820  138.2250 C   0  0  0  0  0  3  0  0  0  0  0  0
  190.6410  176.8290  139.3900 C   0  0  0  0  0  1  0  0  0  0  0  0
  180.4260  179.7150  137.0240 O   0  0  0  0  0  0  0  0  0  0  0  0
  180.6410  181.8630  136.0550 C   0  0  0  0  0  3  0  0  0  0  0  0
  180.5380  180.5480  135.9140 C   0  0  0  0  0  3  0  0  0  0  0  0
  180.6390  182.4650  137.3460 N   0  0  0  0  0  2  0  0  0  0  0  0
  181.1230  183.7910  137.5160 C   0  0  0  0  0  3  0  0  0  0  0  0
  181.1700  184.6150  136.4820 C   0  0  0  0  0  2  0  0  0  0  0  0
  1  9  1  0  0  0  0
  2  6  2  0  0  0  0
  2 12  1  0  0  0  0
  3 13  1  0  0  0  0
  3 16  1  0  0  0  0
  4 14  2  0  0  0  0
  5  7  2  0  0  0  0
  6  8  1  0  0  0  0
  7 10  1  0  0  0  0
  7  3  1  0  0  0  0
  8  9  2  0  0  0  0
  9 20  1  0  0  0  0
 10 27  1  1  0  0  0
 10  2  1  0  0  0  0
 11 23  1  1  0  0  0
 11  4  1  0  0  0  0
 12  1  2  0  0  0  0
 13 17  1  6  0  0  0
 13 15  1  0  0  0  0
 15 14  1  1  0  0  0
 15  6  1  0  0  0  0
 17 18  1  0  0  0  0
 18 11  1  0  0  0  0
 20 21  1  0  0  0  0
 20 19  1  1  0  0  0
 21 22  1  0  0  0  0
 23 24  1  0  0  0  0
 24 25  2  0  0  0  0
 25 26  1  0  0  0  0
 28 30  1  0  0  0  0
 29 28  2  0  0  0  0
 29 27  1  0  0  0  0
 30 31  1  0  0  0  0
 32 31  2  0  0  0  0
M  END
>  <MODEL>
9

>  <REMARK>
 VINA RESULT:      -5.3      5.818      9.795
  Name = 
  8 active torsions:
  status: ('A' for Active; 'I' for Inactive)
    1  A    between atoms: C_1  and  N_16
    2  A    between atoms: N_3  and  C_12
    3  A    between atoms: C_5  and  N_16
    4  A    between atoms: C_10  and  C_15
    5  A    between atoms: C_10  and  C_20
    6  A    between atoms: C_12  and  C_24
    7  A    between atoms: C_13  and  O_22
    8  A    between atoms: O_22  and  C_23
                            x       y       z     vdW  Elec       q    Type
                         _______ _______ _______ _____ _____    ______ ____

>  <TORSDO>
F 8

$$$$
