=
 OpenBabel11042411343D

 36 40  0  0  1  0  0  0  0  0999 V2000
  186.1500  178.7400  141.7140 C   0  0  1  0  0  3  0  0  0  0  0  0
  181.4910  178.9530  141.1500 C   0  0  0  0  0  3  0  0  0  0  0  0
  182.9950  179.2740  138.4570 N   0  0  0  0  0  0  0  0  0  0  0  0
  179.1210  183.2070  137.6340 C   0  0  0  0  0  1  0  0  0  0  0  0
  187.4650  177.2380  143.3410 C   0  0  0  0  0  2  0  0  0  0  0  0
  185.9970  178.3620  140.2500 C   0  0  0  0  0  2  0  0  0  0  0  0
  181.3970  179.8840  140.1950 C   0  0  0  0  0  0  0  0  0  0  0  0
  184.9660  179.1530  139.6830 O   0  0  0  0  0  0  0  0  0  0  0  0
  179.0780  182.1870  138.6660 N   0  0  0  0  0  2  0  0  0  0  0  0
  182.5260  180.3480  139.3250 C   0  0  2  0  0  3  0  0  0  0  0  0
  183.6890  179.0100  142.3320 C   0  0  0  0  0  2  0  0  0  0  0  0
  180.1620  180.5360  139.9580 N   0  0  0  0  0  0  0  0  0  0  0  0
  184.9630  178.2060  142.5540 C   0  0  2  0  0  3  0  0  0  0  0  0
  180.2340  181.4390  139.0440 C   0  0  0  0  0  0  0  0  0  0  0  0
  187.5360  178.2800  142.2190 C   0  0  0  0  0  2  0  0  0  0  0  0
  185.3020  178.1670  144.0170 C   0  0  0  0  0  3  0  0  0  0  0  0
  186.4960  177.6930  144.3940 C   0  0  0  0  0  0  0  0  0  0  0  0
  181.8450  181.6930  138.2930 S   0  0  0  0  0  0  0  0  0  0  0  0
  182.7350  178.1910  141.4780 C   0  0  0  0  0  2  0  0  0  0  0  0
  184.1510  178.7100  138.6390 C   0  0  0  0  0  0  0  0  0  0  0  0
  184.2030  176.3470  137.9650 C   0  0  0  0  0  3  0  0  0  0  0  0
  184.5860  177.6060  137.7670 C   0  0  0  0  0  3  0  0  0  0  0  0
  185.3950  173.0920  135.4650 C   0  0  0  0  0  0  0  0  0  0  0  0
  185.0120  175.4650  135.7580 C   0  0  0  0  0  3  0  0  0  0  0  0
  185.0130  172.8680  136.7920 C   0  0  0  0  0  3  0  0  0  0  0  0
  184.6300  173.9410  137.6010 C   0  0  0  0  0  3  0  0  0  0  0  0
  184.6260  175.2440  137.0910 C   0  0  0  0  0  0  0  0  0  0  0  0
  185.7940  171.9500  134.6010 C   0  0  0  0  0  1  0  0  0  0  0  0
  185.3950  174.3920  134.9490 C   0  0  0  0  0  3  0  0  0  0  0  0
  186.8750  177.6340  145.8370 C   0  0  0  0  0  2  0  0  0  0  0  0
  188.6780  178.0000  147.4370 C   0  0  0  0  0  2  0  0  0  0  0  0
  189.0560  176.8660  146.5830 N   0  0  0  0  0  0  0  0  0  0  0  0
  188.3340  178.0170  146.0210 C   0  0  1  0  0  3  0  0  0  0  0  0
  190.4560  177.0480  146.2320 C   0  0  0  0  0  2  0  0  0  0  0  0
  191.3400  176.6570  147.4020 C   0  0  0  0  0  2  0  0  0  0  0  0
  192.3280  175.5800  146.9850 C   0  0  0  0  0  1  0  0  0  0  0  0
  1  6  1  6  0  0  0
  1 15  1  0  0  0  0
  1 13  1  0  0  0  0
  2 19  1  0  0  0  0
  3 20  2  0  0  0  0
  3 10  1  0  0  0  0
  4  9  1  0  0  0  0
  5 17  1  0  0  0  0
  7  2  2  0  0  0  0
  8  6  1  0  0  0  0
  9 14  1  0  0  0  0
 10 18  1  6  0  0  0
 10  7  1  0  0  0  0
 12  7  1  0  0  0  0
 13 11  1  1  0  0  0
 13 16  1  0  0  0  0
 14 12  2  0  0  0  0
 15  5  1  0  0  0  0
 16 17  2  0  0  0  0
 17 30  1  0  0  0  0
 18 14  1  0  0  0  0
 19 11  1  0  0  0  0
 20  8  1  0  0  0  0
 22 21  2  0  0  0  0
 22 20  1  0  0  0  0
 23 25  1  0  0  0  0
 24 27  2  0  0  0  0
 25 26  2  0  0  0  0
 27 26  1  0  0  0  0
 27 21  1  0  0  0  0
 28 23  1  0  0  0  0
 29 23  2  0  0  0  0
 29 24  1  0  0  0  0
 32 31  1  0  0  0  0
 33 30  1  1  0  0  0
 33 32  1  0  0  0  0
 33 31  1  0  0  0  0
 34 32  1  0  0  0  0
 34 35  1  0  0  0  0
 36 35  1  0  0  0  0
M  END
>  <MODEL>
1

>  <REMARK>
 VINA RESULT:      -8.4      0.000      0.000
  Name = 
  6 active torsions:
  status: ('A' for Active; 'I' for Inactive)
    1  A    between atoms: C_1  and  C_11
    2  A    between atoms: C_11  and  N_23
    3  A    between atoms: C_16  and  C_22
    4  A    between atoms: C_21  and  C_35
    5  A    between atoms: C_26  and  C_32
    6  A    between atoms: C_30  and  C_32
                            x       y       z     vdW  Elec       q    Type
                         _______ _______ _______ _____ _____    ______ ____

>  <TORSDO>
F 6

$$$$
=
 OpenBabel11042411343D

 36 40  0  0  1  0  0  0  0  0999 V2000
  185.9420  178.9820  142.3410 C   0  0  1  0  0  3  0  0  0  0  0  0
  181.4350  178.6800  141.0480 C   0  0  0  0  0  3  0  0  0  0  0  0
  183.2900  179.2740  138.6340 N   0  0  0  0  0  0  0  0  0  0  0  0
  179.1490  182.7650  137.2840 C   0  0  0  0  0  1  0  0  0  0  0  0
  187.1570  177.5800  144.1260 C   0  0  0  0  0  2  0  0  0  0  0  0
  186.0640  178.6460  140.8640 C   0  0  0  0  0  2  0  0  0  0  0  0
  181.3800  179.6300  140.1080 C   0  0  0  0  0  0  0  0  0  0  0  0
  185.0470  179.3340  140.1560 O   0  0  0  0  0  0  0  0  0  0  0  0
  179.0690  181.7080  138.2760 N   0  0  0  0  0  2  0  0  0  0  0  0
  182.5670  180.2540  139.4380 C   0  0  2  0  0  3  0  0  0  0  0  0
  183.4000  178.9440  142.5650 C   0  0  0  0  0  2  0  0  0  0  0  0
  180.1280  180.1440  139.6910 N   0  0  0  0  0  0  0  0  0  0  0  0
  184.7110  178.2840  142.9710 C   0  0  2  0  0  3  0  0  0  0  0  0
  180.2330  181.0840  138.8180 C   0  0  0  0  0  0  0  0  0  0  0  0
  187.2770  178.6660  143.0500 C   0  0  0  0  0  2  0  0  0  0  0  0
  184.8200  178.2280  144.4680 C   0  0  0  0  0  3  0  0  0  0  0  0
  185.9900  177.8800  145.0200 C   0  0  0  0  0  0  0  0  0  0  0  0
  181.8990  181.5500  138.3380 S   0  0  0  0  0  0  0  0  0  0  0  0
  182.6950  178.0540  141.5540 C   0  0  0  0  0  2  0  0  0  0  0  0
  184.4620  178.8410  138.9870 C   0  0  0  0  0  0  0  0  0  0  0  0
  186.3600  178.0410  137.6440 C   0  0  0  0  0  3  0  0  0  0  0  0
  185.1570  177.8280  138.1730 C   0  0  0  0  0  3  0  0  0  0  0  0
  188.4100  175.0590  135.3710 C   0  0  0  0  0  0  0  0  0  0  0  0
  186.8050  176.8690  135.4690 C   0  0  0  0  0  3  0  0  0  0  0  0
  188.6700  175.2170  136.7360 C   0  0  0  0  0  3  0  0  0  0  0  0
  187.9960  176.1990  137.4680 C   0  0  0  0  0  3  0  0  0  0  0  0
  187.0600  177.0300  136.8410 C   0  0  0  0  0  0  0  0  0  0  0  0
  189.1190  174.0090  134.5940 C   0  0  0  0  0  1  0  0  0  0  0  0
  187.4780  175.8870  134.7370 C   0  0  0  0  0  3  0  0  0  0  0  0
  186.1440  177.8100  146.5030 C   0  0  0  0  0  2  0  0  0  0  0  0
  187.7760  177.9620  148.3080 C   0  0  0  0  0  2  0  0  0  0  0  0
  188.3770  177.1770  147.2210 N   0  0  0  0  0  0  0  0  0  0  0  0
  187.5100  178.3260  146.9230 C   0  0  1  0  0  3  0  0  0  0  0  0
  189.7460  177.6450  147.0670 C   0  0  0  0  0  2  0  0  0  0  0  0
  190.4650  176.8130  146.0200 C   0  0  0  0  0  2  0  0  0  0  0  0
  190.9310  177.6930  144.8710 C   0  0  0  0  0  1  0  0  0  0  0  0
  1  6  1  6  0  0  0
  1 13  1  0  0  0  0
  1 15  1  0  0  0  0
  2 19  1  0  0  0  0
  3 20  2  0  0  0  0
  3 10  1  0  0  0  0
  4  9  1  0  0  0  0
  5 17  1  0  0  0  0
  7  2  2  0  0  0  0
  8  6  1  0  0  0  0
  9 14  1  0  0  0  0
 10 18  1  6  0  0  0
 10  7  1  0  0  0  0
 12  7  1  0  0  0  0
 13 11  1  1  0  0  0
 13 16  1  0  0  0  0
 14 12  2  0  0  0  0
 15  5  1  0  0  0  0
 16 17  2  0  0  0  0
 17 30  1  0  0  0  0
 18 14  1  0  0  0  0
 19 11  1  0  0  0  0
 20  8  1  0  0  0  0
 21 22  2  0  0  0  0
 22 20  1  0  0  0  0
 23 25  1  0  0  0  0
 24 27  2  0  0  0  0
 25 26  2  0  0  0  0
 27 26  1  0  0  0  0
 27 21  1  0  0  0  0
 28 23  1  0  0  0  0
 29 23  2  0  0  0  0
 29 24  1  0  0  0  0
 32 31  1  0  0  0  0
 33 30  1  6  0  0  0
 33 32  1  0  0  0  0
 33 31  1  0  0  0  0
 34 32  1  0  0  0  0
 35 34  1  0  0  0  0
 36 35  1  0  0  0  0
M  END
>  <MODEL>
2

>  <REMARK>
 VINA RESULT:      -7.8      1.711      1.820
  Name = 
  6 active torsions:
  status: ('A' for Active; 'I' for Inactive)
    1  A    between atoms: C_1  and  C_11
    2  A    between atoms: C_11  and  N_23
    3  A    between atoms: C_16  and  C_22
    4  A    between atoms: C_21  and  C_35
    5  A    between atoms: C_26  and  C_32
    6  A    between atoms: C_30  and  C_32
                            x       y       z     vdW  Elec       q    Type
                         _______ _______ _______ _____ _____    ______ ____

>  <TORSDO>
F 6

$$$$
=
 OpenBabel11042411343D

 36 40  0  0  1  0  0  0  0  0999 V2000
  187.7140  177.7120  137.2970 C   0  0  1  0  0  3  0  0  0  0  0  0
  190.5690  173.9920  136.9960 C   0  0  0  0  0  3  0  0  0  0  0  0
  191.8880  176.3370  138.5380 N   0  0  0  0  0  0  0  0  0  0  0  0
  196.3430  174.7940  135.5490 C   0  0  0  0  0  1  0  0  0  0  0  0
  185.1590  177.7040  137.6220 C   0  0  0  0  0  2  0  0  0  0  0  0
  188.6520  177.9440  138.4700 C   0  0  0  0  0  2  0  0  0  0  0  0
  191.7500  174.5970  136.8360 C   0  0  0  0  0  0  0  0  0  0  0  0
  189.9610  177.5570  138.0880 O   0  0  0  0  0  0  0  0  0  0  0  0
  195.1310  174.0130  135.7180 N   0  0  0  0  0  2  0  0  0  0  0  0
  192.0280  176.0430  137.1170 C   0  0  2  0  0  3  0  0  0  0  0  0
  188.6450  175.4890  136.4560 C   0  0  0  0  0  2  0  0  0  0  0  0
  192.8590  173.8670  136.3410 N   0  0  0  0  0  0  0  0  0  0  0  0
  187.4530  176.1990  137.0840 C   0  0  2  0  0  3  0  0  0  0  0  0
  193.9150  174.5890  136.1950 C   0  0  0  0  0  0  0  0  0  0  0  0
  186.4320  178.5500  137.4930 C   0  0  0  0  0  2  0  0  0  0  0  0
  186.2190  175.9680  136.2590 C   0  0  0  0  0  3  0  0  0  0  0  0
  185.1180  176.6820  136.5250 C   0  0  0  0  0  0  0  0  0  0  0  0
  193.7620  176.3270  136.6170 S   0  0  0  0  0  0  0  0  0  0  0  0
  189.3370  174.6560  137.5230 C   0  0  0  0  0  2  0  0  0  0  0  0
  190.9010  177.0510  138.9890 C   0  0  0  0  0  0  0  0  0  0  0  0
  190.2810  176.4000  141.2760 C   0  0  0  0  0  3  0  0  0  0  0  0
  190.7670  177.3080  140.4330 C   0  0  0  0  0  3  0  0  0  0  0  0
  189.8440  177.0960  145.4700 C   0  0  0  0  0  0  0  0  0  0  0  0
  191.2770  176.6750  143.5640 C   0  0  0  0  0  3  0  0  0  0  0  0
  188.7250  177.0720  144.6320 C   0  0  0  0  0  3  0  0  0  0  0  0
  188.8810  176.8480  143.2610 C   0  0  0  0  0  3  0  0  0  0  0  0
  190.1560  176.6480  142.7190 C   0  0  0  0  0  0  0  0  0  0  0  0
  189.6780  177.3260  146.9290 C   0  0  0  0  0  1  0  0  0  0  0  0
  191.1210  176.8990  144.9350 C   0  0  0  0  0  3  0  0  0  0  0  0
  183.8690  176.4840  135.7310 C   0  0  0  0  0  2  0  0  0  0  0  0
  182.0100  174.9320  135.4520 C   0  0  0  0  0  2  0  0  0  0  0  0
  183.1950  174.1520  135.8370 N   0  0  0  0  0  0  0  0  0  0  0  0
  182.9550  175.4830  136.4150 C   0  0  1  0  0  3  0  0  0  0  0  0
  182.7610  173.1870  136.8340 C   0  0  0  0  0  2  0  0  0  0  0  0
  183.8620  172.1730  137.0890 C   0  0  0  0  0  2  0  0  0  0  0  0
  185.0710  172.8480  137.7160 C   0  0  0  0  0  1  0  0  0  0  0  0
  1 15  1  1  0  0  0
  1  6  1  0  0  0  0
  2 19  1  0  0  0  0
  3 20  2  0  0  0  0
  4  9  1  0  0  0  0
  7  2  2  0  0  0  0
  7 10  1  0  0  0  0
  8  6  1  0  0  0  0
  8 20  1  0  0  0  0
  9 14  1  0  0  0  0
 10 18  1  1  0  0  0
 10  3  1  0  0  0  0
 11 13  1  0  0  0  0
 11 19  1  0  0  0  0
 12  7  1  0  0  0  0
 13 16  1  6  0  0  0
 13  1  1  0  0  0  0
 14 12  2  0  0  0  0
 14 18  1  0  0  0  0
 15  5  1  0  0  0  0
 16 17  2  0  0  0  0
 17  5  1  0  0  0  0
 20 22  1  0  0  0  0
 21 27  1  0  0  0  0
 22 21  2  0  0  0  0
 23 28  1  0  0  0  0
 24 29  2  0  0  0  0
 25 23  2  0  0  0  0
 26 25  1  0  0  0  0
 27 26  2  0  0  0  0
 27 24  1  0  0  0  0
 29 23  1  0  0  0  0
 30 17  1  0  0  0  0
 31 32  1  0  0  0  0
 31 33  1  0  0  0  0
 32 33  1  0  0  0  0
 32 34  1  0  0  0  0
 33 30  1  6  0  0  0
 34 35  1  0  0  0  0
 35 36  1  0  0  0  0
M  END
>  <MODEL>
3

>  <REMARK>
 VINA RESULT:      -7.7      5.507     10.886
  Name = 
  6 active torsions:
  status: ('A' for Active; 'I' for Inactive)
    1  A    between atoms: C_1  and  C_11
    2  A    between atoms: C_11  and  N_23
    3  A    between atoms: C_16  and  C_22
    4  A    between atoms: C_21  and  C_35
    5  A    between atoms: C_26  and  C_32
    6  A    between atoms: C_30  and  C_32
                            x       y       z     vdW  Elec       q    Type
                         _______ _______ _______ _____ _____    ______ ____

>  <TORSDO>
F 6

$$$$
=
 OpenBabel11042411343D

 36 40  0  0  1  0  0  0  0  0999 V2000
  182.8800  178.2840  142.6040 C   0  0  1  0  0  3  0  0  0  0  0  0
  186.2590  178.4940  139.3460 C   0  0  0  0  0  3  0  0  0  0  0  0
  183.4350  178.3410  138.0720 N   0  0  0  0  0  0  0  0  0  0  0  0
  186.0280  174.8280  134.5940 C   0  0  0  0  0  1  0  0  0  0  0  0
  182.8130  179.5010  144.8720 C   0  0  0  0  0  2  0  0  0  0  0  0
  182.1210  178.8240  141.4030 C   0  0  0  0  0  2  0  0  0  0  0  0
  185.7570  177.6780  138.4130 C   0  0  0  0  0  0  0  0  0  0  0  0
  182.6010  178.1790  140.2360 O   0  0  0  0  0  0  0  0  0  0  0  0
  186.6850  175.7350  135.5180 N   0  0  0  0  0  2  0  0  0  0  0  0
  184.3310  177.2210  138.3380 C   0  0  2  0  0  3  0  0  0  0  0  0
  185.2160  178.1430  141.5870 C   0  0  0  0  0  2  0  0  0  0  0  0
  186.6000  177.1530  137.4030 N   0  0  0  0  0  0  0  0  0  0  0  0
  184.3340  178.8170  142.6290 C   0  0  2  0  0  3  0  0  0  0  0  0
  185.9900  176.3470  136.6050 C   0  0  0  0  0  0  0  0  0  0  0  0
  182.0790  178.5790  143.8910 C   0  0  0  0  0  2  0  0  0  0  0  0
  184.9450  178.6770  143.9940 C   0  0  0  0  0  3  0  0  0  0  0  0
  184.2190  179.0150  145.0670 C   0  0  0  0  0  0  0  0  0  0  0  0
  184.2520  176.0490  136.9400 S   0  0  0  0  0  0  0  0  0  0  0  0
  185.4640  179.1180  140.4480 C   0  0  0  0  0  2  0  0  0  0  0  0
  182.6240  178.7910  138.9800 C   0  0  0  0  0  0  0  0  0  0  0  0
  182.2350  181.1520  138.4160 C   0  0  0  0  0  3  0  0  0  0  0  0
  181.7520  179.9430  138.6940 C   0  0  0  0  0  3  0  0  0  0  0  0
  179.7750  184.5290  137.5210 C   0  0  0  0  0  0  0  0  0  0  0  0
  179.9750  182.1650  138.0030 C   0  0  0  0  0  3  0  0  0  0  0  0
  181.1610  184.6700  137.6370 C   0  0  0  0  0  3  0  0  0  0  0  0
  181.9550  183.5580  137.9350 C   0  0  0  0  0  3  0  0  0  0  0  0
  181.3690  182.3010  138.1190 C   0  0  0  0  0  0  0  0  0  0  0  0
  178.9310  185.7090  137.1950 C   0  0  0  0  0  1  0  0  0  0  0  0
  179.1820  183.2760  137.7050 C   0  0  0  0  0  3  0  0  0  0  0  0
  184.7860  178.8920  146.4430 C   0  0  0  0  0  2  0  0  0  0  0  0
  186.8330  178.2810  147.6180 C   0  0  0  0  0  2  0  0  0  0  0  0
  186.7560  177.4700  146.3940 N   0  0  0  0  0  0  0  0  0  0  0  0
  186.3040  178.8700  146.3940 C   0  0  1  0  0  3  0  0  0  0  0  0
  188.0850  177.4680  145.8030 C   0  0  0  0  0  2  0  0  0  0  0  0
  188.0690  176.7010  144.4930 C   0  0  0  0  0  2  0  0  0  0  0  0
  188.4360  177.6170  143.3360 C   0  0  0  0  0  1  0  0  0  0  0  0
  1  6  1  6  0  0  0
  1 13  1  0  0  0  0
  1 15  1  0  0  0  0
  2 19  1  0  0  0  0
  3 10  1  0  0  0  0
  3 20  2  0  0  0  0
  4  9  1  0  0  0  0
  5 17  1  0  0  0  0
  7  2  2  0  0  0  0
  8  6  1  0  0  0  0
  9 14  1  0  0  0  0
 10 18  1  6  0  0  0
 10  7  1  0  0  0  0
 12  7  1  0  0  0  0
 13 11  1  6  0  0  0
 13 16  1  0  0  0  0
 14 18  1  0  0  0  0
 14 12  2  0  0  0  0
 15  5  1  0  0  0  0
 16 17  2  0  0  0  0
 17 30  1  0  0  0  0
 19 11  1  0  0  0  0
 20  8  1  0  0  0  0
 21 22  2  0  0  0  0
 22 20  1  0  0  0  0
 23 25  2  0  0  0  0
 23 29  1  0  0  0  0
 24 27  1  0  0  0  0
 25 26  1  0  0  0  0
 26 27  2  0  0  0  0
 27 21  1  0  0  0  0
 28 23  1  0  0  0  0
 29 24  2  0  0  0  0
 32 33  1  0  0  0  0
 32 31  1  0  0  0  0
 33 30  1  1  0  0  0
 33 31  1  0  0  0  0
 34 32  1  0  0  0  0
 35 34  1  0  0  0  0
 36 35  1  0  0  0  0
M  END
>  <MODEL>
4

>  <REMARK>
 VINA RESULT:      -7.6      2.432      6.741
  Name = 
  6 active torsions:
  status: ('A' for Active; 'I' for Inactive)
    1  A    between atoms: C_1  and  C_11
    2  A    between atoms: C_11  and  N_23
    3  A    between atoms: C_16  and  C_22
    4  A    between atoms: C_21  and  C_35
    5  A    between atoms: C_26  and  C_32
    6  A    between atoms: C_30  and  C_32
                            x       y       z     vdW  Elec       q    Type
                         _______ _______ _______ _____ _____    ______ ____

>  <TORSDO>
F 6

$$$$
=
 OpenBabel11042411343D

 36 40  0  0  1  0  0  0  0  0999 V2000
  184.5210  178.0930  142.8900 C   0  0  1  0  0  3  0  0  0  0  0  0
  188.2110  178.6200  140.0300 C   0  0  0  0  0  3  0  0  0  0  0  0
  185.5310  178.6230  138.4680 N   0  0  0  0  0  0  0  0  0  0  0  0
  188.4750  175.4770  134.9180 C   0  0  0  0  0  1  0  0  0  0  0  0
  184.2200  179.0640  145.2560 C   0  0  0  0  0  2  0  0  0  0  0  0
  183.8850  178.7620  141.6820 C   0  0  0  0  0  2  0  0  0  0  0  0
  187.8090  177.9110  138.9710 C   0  0  0  0  0  0  0  0  0  0  0  0
  184.4830  178.2400  140.5080 O   0  0  0  0  0  0  0  0  0  0  0  0
  189.0310  176.2770  135.9950 N   0  0  0  0  0  2  0  0  0  0  0  0
  186.4000  177.4750  138.7040 C   0  0  2  0  0  3  0  0  0  0  0  0
  186.9480  178.0420  142.1050 C   0  0  0  0  0  2  0  0  0  0  0  0
  188.7520  177.4890  138.0010 N   0  0  0  0  0  0  0  0  0  0  0  0
  185.9630  178.6100  143.1180 C   0  0  2  0  0  3  0  0  0  0  0  0
  188.2280  176.7770  137.0650 C   0  0  0  0  0  0  0  0  0  0  0  0
  183.5930  178.2560  144.1140 C   0  0  0  0  0  2  0  0  0  0  0  0
  186.4330  178.3220  144.5150 C   0  0  0  0  0  3  0  0  0  0  0  0
  185.6010  178.5500  145.5390 C   0  0  0  0  0  0  0  0  0  0  0  0
  186.4660  176.4570  137.1900 S   0  0  0  0  0  0  0  0  0  0  0  0
  187.3070  179.1310  141.1060 C   0  0  0  0  0  2  0  0  0  0  0  0
  184.6300  178.9800  139.3330 C   0  0  0  0  0  0  0  0  0  0  0  0
  182.5390  180.0660  138.6340 C   0  0  0  0  0  3  0  0  0  0  0  0
  183.7880  180.1620  139.0830 C   0  0  0  0  0  3  0  0  0  0  0  0
  180.0220  183.4580  137.9820 C   0  0  0  0  0  0  0  0  0  0  0  0
  182.2340  182.4740  137.9900 C   0  0  0  0  0  3  0  0  0  0  0  0
  179.4770  182.2330  138.3810 C   0  0  0  0  0  3  0  0  0  0  0  0
  180.3100  181.1300  138.5870 C   0  0  0  0  0  3  0  0  0  0  0  0
  181.6920  181.2420  138.3940 C   0  0  0  0  0  0  0  0  0  0  0  0
  179.1380  184.6350  137.7720 C   0  0  0  0  0  1  0  0  0  0  0  0
  181.4020  183.5770  137.7850 C   0  0  0  0  0  3  0  0  0  0  0  0
  186.0270  178.2790  146.9450 C   0  0  0  0  0  2  0  0  0  0  0  0
  187.9290  178.2530  148.4690 C   0  0  0  0  0  2  0  0  0  0  0  0
  188.0370  177.0780  147.5920 N   0  0  0  0  0  0  0  0  0  0  0  0
  187.5380  178.3590  147.0690 C   0  0  1  0  0  3  0  0  0  0  0  0
  189.4290  176.9820  147.1830 C   0  0  0  0  0  2  0  0  0  0  0  0
  189.5400  177.1330  145.6760 C   0  0  0  0  0  2  0  0  0  0  0  0
  190.9610  177.5010  145.2810 C   0  0  0  0  0  1  0  0  0  0  0  0
  1  6  1  6  0  0  0
  1 13  1  0  0  0  0
  1 15  1  0  0  0  0
  2 19  1  0  0  0  0
  3 10  1  0  0  0  0
  3 20  2  0  0  0  0
  4  9  1  0  0  0  0
  5 17  1  0  0  0  0
  7  2  2  0  0  0  0
  8  6  1  0  0  0  0
  9 14  1  0  0  0  0
 10 18  1  6  0  0  0
 10  7  1  0  0  0  0
 12  7  1  0  0  0  0
 13 11  1  6  0  0  0
 13 16  1  0  0  0  0
 14 18  1  0  0  0  0
 14 12  2  0  0  0  0
 15  5  1  0  0  0  0
 16 17  2  0  0  0  0
 17 30  1  0  0  0  0
 19 11  1  0  0  0  0
 20  8  1  0  0  0  0
 21 22  2  0  0  0  0
 22 20  1  0  0  0  0
 23 25  1  0  0  0  0
 24 27  2  0  0  0  0
 25 26  2  0  0  0  0
 27 26  1  0  0  0  0
 27 21  1  0  0  0  0
 28 23  1  0  0  0  0
 29 23  2  0  0  0  0
 29 24  1  0  0  0  0
 32 31  1  0  0  0  0
 33 30  1  1  0  0  0
 33 32  1  0  0  0  0
 33 31  1  0  0  0  0
 34 32  1  0  0  0  0
 35 34  1  0  0  0  0
 36 35  1  0  0  0  0
M  END
>  <MODEL>
5

>  <REMARK>
 VINA RESULT:      -7.6      2.945      6.568
  Name = 
  6 active torsions:
  status: ('A' for Active; 'I' for Inactive)
    1  A    between atoms: C_1  and  C_11
    2  A    between atoms: C_11  and  N_23
    3  A    between atoms: C_16  and  C_22
    4  A    between atoms: C_21  and  C_35
    5  A    between atoms: C_26  and  C_32
    6  A    between atoms: C_30  and  C_32
                            x       y       z     vdW  Elec       q    Type
                         _______ _______ _______ _____ _____    ______ ____

>  <TORSDO>
F 6

$$$$
=
 OpenBabel11042411343D

 36 40  0  0  1  0  0  0  0  0999 V2000
  187.4590  178.5370  139.6480 C   0  0  1  0  0  3  0  0  0  0  0  0
  183.1200  178.6060  141.4510 C   0  0  0  0  0  3  0  0  0  0  0  0
  183.0800  178.4350  138.3540 N   0  0  0  0  0  0  0  0  0  0  0  0
  178.9310  182.1190  138.9640 C   0  0  0  0  0  1  0  0  0  0  0  0
  189.5400  177.3720  140.6180 C   0  0  0  0  0  2  0  0  0  0  0  0
  186.6490  177.8940  138.5350 C   0  0  0  0  0  2  0  0  0  0  0  0
  182.4820  179.3440  140.5370 C   0  0  0  0  0  0  0  0  0  0  0  0
  185.4000  178.5590  138.4400 O   0  0  0  0  0  0  0  0  0  0  0  0
  179.4980  181.3060  140.0250 N   0  0  0  0  0  2  0  0  0  0  0  0
  182.9910  179.6480  139.1600 C   0  0  2  0  0  3  0  0  0  0  0  0
  185.5980  178.8980  141.3570 C   0  0  0  0  0  2  0  0  0  0  0  0
  181.2300  179.9310  140.8470 N   0  0  0  0  0  0  0  0  0  0  0  0
  186.8910  178.1590  141.0390 C   0  0  2  0  0  3  0  0  0  0  0  0
  180.7580  180.6500  139.8900 C   0  0  0  0  0  0  0  0  0  0  0  0
  188.9520  178.1900  139.4630 C   0  0  0  0  0  2  0  0  0  0  0  0
  187.9020  178.3930  142.1250 C   0  0  0  0  0  3  0  0  0  0  0  0
  189.1680  178.0060  141.9270 C   0  0  0  0  0  0  0  0  0  0  0  0
  181.7650  180.7740  138.4080 S   0  0  0  0  0  0  0  0  0  0  0  0
  184.4350  177.9270  141.2310 C   0  0  0  0  0  2  0  0  0  0  0  0
  184.2280  177.9240  138.0240 C   0  0  0  0  0  0  0  0  0  0  0  0
  184.0390  175.4870  137.7660 C   0  0  0  0  0  3  0  0  0  0  0  0
  184.2890  176.6820  137.2350 C   0  0  0  0  0  3  0  0  0  0  0  0
  184.1890  171.8390  135.5460 C   0  0  0  0  0  0  0  0  0  0  0  0
  183.5370  174.1660  135.6910 C   0  0  0  0  0  3  0  0  0  0  0  0
  184.7410  171.9150  136.8280 C   0  0  0  0  0  3  0  0  0  0  0  0
  184.6900  173.1150  137.5430 C   0  0  0  0  0  3  0  0  0  0  0  0
  184.0880  174.2460  136.9800 C   0  0  0  0  0  0  0  0  0  0  0  0
  184.2350  170.5600  134.7880 C   0  0  0  0  0  1  0  0  0  0  0  0
  183.5880  172.9660  134.9770 C   0  0  0  0  0  3  0  0  0  0  0  0
  190.2060  178.2180  142.9790 C   0  0  0  0  0  2  0  0  0  0  0  0
  191.0170  177.4700  145.1530 C   0  0  0  0  0  2  0  0  0  0  0  0
  189.7020  178.0960  145.3530 N   0  0  0  0  0  0  0  0  0  0  0  0
  189.9710  177.2860  144.1550 C   0  0  1  0  0  3  0  0  0  0  0  0
  188.9610  177.2430  146.2680 C   0  0  0  0  0  2  0  0  0  0  0  0
  187.6760  177.9290  146.6940 C   0  0  0  0  0  2  0  0  0  0  0  0
  186.6190  177.8000  145.6080 C   0  0  0  0  0  1  0  0  0  0  0  0
  1  6  1  6  0  0  0
  1 13  1  0  0  0  0
  4  9  1  0  0  0  0
  5 17  1  0  0  0  0
  7 12  1  0  0  0  0
  7  2  2  0  0  0  0
  8  6  1  0  0  0  0
 10  3  1  6  0  0  0
 10  7  1  0  0  0  0
 13 11  1  1  0  0  0
 13 16  1  0  0  0  0
 14  9  1  0  0  0  0
 14 12  2  0  0  0  0
 15  1  1  0  0  0  0
 15  5  1  0  0  0  0
 17 16  2  0  0  0  0
 17 30  1  0  0  0  0
 18 10  1  0  0  0  0
 18 14  1  0  0  0  0
 19 11  1  0  0  0  0
 19  2  1  0  0  0  0
 20  3  2  0  0  0  0
 20  8  1  0  0  0  0
 22 21  2  0  0  0  0
 22 20  1  0  0  0  0
 23 25  1  0  0  0  0
 24 27  2  0  0  0  0
 25 26  2  0  0  0  0
 27 26  1  0  0  0  0
 27 21  1  0  0  0  0
 28 23  1  0  0  0  0
 29 23  2  0  0  0  0
 29 24  1  0  0  0  0
 31 32  1  0  0  0  0
 32 34  1  0  0  0  0
 33 30  1  6  0  0  0
 33 31  1  0  0  0  0
 33 32  1  0  0  0  0
 34 35  1  0  0  0  0
 36 35  1  0  0  0  0
M  END
>  <MODEL>
6

>  <REMARK>
 VINA RESULT:      -7.5      1.501      2.400
  Name = 
  6 active torsions:
  status: ('A' for Active; 'I' for Inactive)
    1  A    between atoms: C_1  and  C_11
    2  A    between atoms: C_11  and  N_23
    3  A    between atoms: C_16  and  C_22
    4  A    between atoms: C_21  and  C_35
    5  A    between atoms: C_26  and  C_32
    6  A    between atoms: C_30  and  C_32
                            x       y       z     vdW  Elec       q    Type
                         _______ _______ _______ _____ _____    ______ ____

>  <TORSDO>
F 6

$$$$
=
 OpenBabel11042411343D

 36 40  0  0  1  0  0  0  0  0999 V2000
  187.1420  177.8440  137.8320 C   0  0  1  0  0  3  0  0  0  0  0  0
  189.9400  174.1470  137.0720 C   0  0  0  0  0  3  0  0  0  0  0  0
  191.1280  176.0780  139.1890 N   0  0  0  0  0  0  0  0  0  0  0  0
  195.8510  174.9850  136.4210 C   0  0  0  0  0  1  0  0  0  0  0  0
  184.5670  177.8770  137.8830 C   0  0  0  0  0  2  0  0  0  0  0  0
  187.9500  177.7970  139.1180 C   0  0  0  0  0  2  0  0  0  0  0  0
  191.1430  174.7220  137.1620 C   0  0  0  0  0  0  0  0  0  0  0  0
  189.2850  177.4410  138.8010 O   0  0  0  0  0  0  0  0  0  0  0  0
  194.6130  174.2360  136.3020 N   0  0  0  0  0  2  0  0  0  0  0  0
  191.4170  176.0690  137.7590 C   0  0  2  0  0  3  0  0  0  0  0  0
  188.1160  175.8000  136.6550 C   0  0  0  0  0  2  0  0  0  0  0  0
  192.2850  174.0620  136.6440 N   0  0  0  0  0  0  0  0  0  0  0  0
  186.8770  176.4180  137.2880 C   0  0  2  0  0  3  0  0  0  0  0  0
  193.3640  174.7540  136.7590 C   0  0  0  0  0  0  0  0  0  0  0  0
  185.8620  178.6780  138.0610 C   0  0  0  0  0  2  0  0  0  0  0  0
  185.7360  176.4090  136.3100 C   0  0  0  0  0  3  0  0  0  0  0  0
  184.6260  177.0990  136.6020 C   0  0  0  0  0  0  0  0  0  0  0  0
  193.2000  176.3770  137.5090 S   0  0  0  0  0  0  0  0  0  0  0  0
  188.6700  174.7410  137.5940 C   0  0  0  0  0  2  0  0  0  0  0  0
  190.1120  176.7260  139.6710 C   0  0  0  0  0  0  0  0  0  0  0  0
  190.5620  177.3550  142.0050 C   0  0  0  0  0  3  0  0  0  0  0  0
  189.8260  176.6920  141.1160 C   0  0  0  0  0  3  0  0  0  0  0  0
  189.7950  177.3050  146.2080 C   0  0  0  0  0  0  0  0  0  0  0  0
  188.9780  177.5510  143.9420 C   0  0  0  0  0  3  0  0  0  0  0  0
  191.0860  177.0840  145.7180 C   0  0  0  0  0  3  0  0  0  0  0  0
  191.3230  177.0980  144.3400 C   0  0  0  0  0  3  0  0  0  0  0  0
  190.2730  177.3320  143.4450 C   0  0  0  0  0  0  0  0  0  0  0  0
  189.5430  177.3000  147.6740 C   0  0  0  0  0  1  0  0  0  0  0  0
  188.7400  177.5380  145.3200 C   0  0  0  0  0  3  0  0  0  0  0  0
  183.4680  177.1170  135.6600 C   0  0  0  0  0  2  0  0  0  0  0  0
  181.1390  177.7850  135.3870 C   0  0  0  0  0  2  0  0  0  0  0  0
  181.2200  176.8990  136.5570 N   0  0  0  0  0  0  0  0  0  0  0  0
  182.2940  177.8620  136.2720 C   0  0  1  0  0  3  0  0  0  0  0  0
  180.3990  177.4970  137.5980 C   0  0  0  0  0  2  0  0  0  0  0  0
  180.3460  176.5810  138.8080 C   0  0  0  0  0  2  0  0  0  0  0  0
  181.4710  176.9130  139.7760 C   0  0  0  0  0  1  0  0  0  0  0  0
  1 15  1  1  0  0  0
  1  6  1  0  0  0  0
  2  7  2  0  0  0  0
  2 19  1  0  0  0  0
  3 20  2  0  0  0  0
  5 15  1  0  0  0  0
  8  6  1  0  0  0  0
  8 20  1  0  0  0  0
  9  4  1  0  0  0  0
  9 14  1  0  0  0  0
 10  7  1  1  0  0  0
 10  3  1  0  0  0  0
 11 13  1  0  0  0  0
 11 19  1  0  0  0  0
 12 14  2  0  0  0  0
 12  7  1  0  0  0  0
 13 16  1  6  0  0  0
 13  1  1  0  0  0  0
 14 18  1  0  0  0  0
 16 17  2  0  0  0  0
 17  5  1  0  0  0  0
 18 10  1  0  0  0  0
 20 22  1  0  0  0  0
 21 27  1  0  0  0  0
 22 21  2  0  0  0  0
 23 28  1  0  0  0  0
 24 29  1  0  0  0  0
 25 23  1  0  0  0  0
 26 25  2  0  0  0  0
 27 24  2  0  0  0  0
 27 26  1  0  0  0  0
 29 23  2  0  0  0  0
 30 17  1  0  0  0  0
 31 33  1  0  0  0  0
 31 32  1  0  0  0  0
 32 34  1  0  0  0  0
 33 30  1  6  0  0  0
 33 32  1  0  0  0  0
 34 35  1  0  0  0  0
 35 36  1  0  0  0  0
M  END
>  <MODEL>
7

>  <REMARK>
 VINA RESULT:      -7.4      5.166     10.842
  Name = 
  6 active torsions:
  status: ('A' for Active; 'I' for Inactive)
    1  A    between atoms: C_1  and  C_11
    2  A    between atoms: C_11  and  N_23
    3  A    between atoms: C_16  and  C_22
    4  A    between atoms: C_21  and  C_35
    5  A    between atoms: C_26  and  C_32
    6  A    between atoms: C_30  and  C_32
                            x       y       z     vdW  Elec       q    Type
                         _______ _______ _______ _____ _____    ______ ____

>  <TORSDO>
F 6

$$$$
=
 OpenBabel11042411343D

 36 40  0  0  1  0  0  0  0  0999 V2000
  182.4440  178.4600  142.5640 C   0  0  1  0  0  3  0  0  0  0  0  0
  184.1970  177.3690  138.3430 C   0  0  0  0  0  3  0  0  0  0  0  0
  181.2210  178.2250  138.1710 N   0  0  0  0  0  0  0  0  0  0  0  0
  180.9880  173.9460  134.5940 C   0  0  0  0  0  1  0  0  0  0  0  0
  183.6480  179.6620  144.4970 C   0  0  0  0  0  2  0  0  0  0  0  0
  181.5090  179.2150  141.6340 C   0  0  0  0  0  2  0  0  0  0  0  0
  183.1410  176.7730  137.7810 C   0  0  0  0  0  0  0  0  0  0  0  0
  181.2690  178.4180  140.4870 O   0  0  0  0  0  0  0  0  0  0  0  0
  182.2050  174.5710  135.0800 N   0  0  0  0  0  2  0  0  0  0  0  0
  181.7300  176.8620  138.2780 C   0  0  2  0  0  3  0  0  0  0  0  0
  184.0320  177.4630  140.8330 C   0  0  0  0  0  2  0  0  0  0  0  0
  183.3130  175.9590  136.6340 N   0  0  0  0  0  0  0  0  0  0  0  0
  183.8870  178.4310  141.9990 C   0  0  2  0  0  3  0  0  0  0  0  0
  182.2180  175.4140  136.2330 C   0  0  0  0  0  0  0  0  0  0  0  0
  182.3380  179.0500  143.9870 C   0  0  0  0  0  2  0  0  0  0  0  0
  184.8880  178.1050  143.0710 C   0  0  0  0  0  3  0  0  0  0  0  0
  184.7790  178.7040  144.2630 C   0  0  0  0  0  0  0  0  0  0  0  0
  180.7450  175.7710  137.1940 S   0  0  0  0  0  0  0  0  0  0  0  0
  184.1340  178.2600  139.5430 C   0  0  0  0  0  2  0  0  0  0  0  0
  181.0120  178.9560  139.2240 C   0  0  0  0  0  0  0  0  0  0  0  0
  181.0470  181.1930  138.2050 C   0  0  0  0  0  3  0  0  0  0  0  0
  180.5270  180.3390  139.0850 C   0  0  0  0  0  3  0  0  0  0  0  0
  179.5940  185.1950  137.8400 C   0  0  0  0  0  0  0  0  0  0  0  0
  181.2040  183.4960  137.2180 C   0  0  0  0  0  3  0  0  0  0  0  0
  178.9480  184.2760  138.6740 C   0  0  0  0  0  3  0  0  0  0  0  0
  179.4300  182.9690  138.7810 C   0  0  0  0  0  3  0  0  0  0  0  0
  180.5590  182.5710  138.0560 C   0  0  0  0  0  0  0  0  0  0  0  0
  179.0880  186.5890  137.7320 C   0  0  0  0  0  1  0  0  0  0  0  0
  180.7220  184.8030  137.1110 C   0  0  0  0  0  3  0  0  0  0  0  0
  185.7520  178.4100  145.3570 C   0  0  0  0  0  2  0  0  0  0  0  0
  188.0860  177.9110  145.8540 C   0  0  0  0  0  2  0  0  0  0  0  0
  187.6210  176.9430  144.8500 N   0  0  0  0  0  0  0  0  0  0  0  0
  187.1660  178.3410  144.8090 C   0  0  1  0  0  3  0  0  0  0  0  0
  188.6760  176.8250  143.8560 C   0  0  0  0  0  2  0  0  0  0  0  0
  190.0350  176.8900  144.5310 C   0  0  0  0  0  2  0  0  0  0  0  0
  190.9380  177.8790  143.8110 C   0  0  0  0  0  1  0  0  0  0  0  0
  1  6  1  6  0  0  0
  1 15  1  0  0  0  0
  2 19  1  0  0  0  0
  3 10  1  0  0  0  0
  3 20  2  0  0  0  0
  4  9  1  0  0  0  0
  7 10  1  0  0  0  0
  7  2  2  0  0  0  0
  8  6  1  0  0  0  0
  9 14  1  0  0  0  0
 10 18  1  6  0  0  0
 12  7  1  0  0  0  0
 13 11  1  6  0  0  0
 13  1  1  0  0  0  0
 13 16  1  0  0  0  0
 14 12  2  0  0  0  0
 14 18  1  0  0  0  0
 15  5  1  0  0  0  0
 16 17  2  0  0  0  0
 17  5  1  0  0  0  0
 17 30  1  0  0  0  0
 19 11  1  0  0  0  0
 20  8  1  0  0  0  0
 21 22  2  0  0  0  0
 22 20  1  0  0  0  0
 23 25  1  0  0  0  0
 24 27  2  0  0  0  0
 25 26  2  0  0  0  0
 27 21  1  0  0  0  0
 27 26  1  0  0  0  0
 28 23  1  0  0  0  0
 29 24  1  0  0  0  0
 29 23  2  0  0  0  0
 32 31  1  0  0  0  0
 33 32  1  0  0  0  0
 33 30  1  1  0  0  0
 33 31  1  0  0  0  0
 34 35  1  0  0  0  0
 34 32  1  0  0  0  0
 36 35  1  0  0  0  0
M  END
>  <MODEL>
8

>  <REMARK>
 VINA RESULT:      -7.3      2.621      6.716
  Name = 
  6 active torsions:
  status: ('A' for Active; 'I' for Inactive)
    1  A    between atoms: C_1  and  C_11
    2  A    between atoms: C_11  and  N_23
    3  A    between atoms: C_16  and  C_22
    4  A    between atoms: C_21  and  C_35
    5  A    between atoms: C_26  and  C_32
    6  A    between atoms: C_30  and  C_32
                            x       y       z     vdW  Elec       q    Type
                         _______ _______ _______ _____ _____    ______ ____

>  <TORSDO>
F 6

$$$$
=
 OpenBabel11042411343D

 36 40  0  0  1  0  0  0  0  0999 V2000
  189.3290  178.3600  139.6750 C   0  0  1  0  0  3  0  0  0  0  0  0
  190.4580  175.4910  143.2200 C   0  0  0  0  0  3  0  0  0  0  0  0
  188.4170  177.6570  144.0940 N   0  0  0  0  0  0  0  0  0  0  0  0
  191.6620  177.7960  148.6340 C   0  0  0  0  0  1  0  0  0  0  0  0
  189.0240  177.7410  137.1940 C   0  0  0  0  0  2  0  0  0  0  0  0
  188.1300  178.5170  140.5960 C   0  0  0  0  0  2  0  0  0  0  0  0
  190.4710  176.3510  144.2430 C   0  0  0  0  0  0  0  0  0  0  0  0
  188.5860  178.5110  141.9380 O   0  0  0  0  0  0  0  0  0  0  0  0
  191.6800  176.7580  147.6180 N   0  0  0  0  0  2  0  0  0  0  0  0
  189.8680  177.7230  144.2280 C   0  0  2  0  0  3  0  0  0  0  0  0
  190.6500  176.6300  141.0060 C   0  0  0  0  0  2  0  0  0  0  0  0
  191.1150  176.0010  145.4550 N   0  0  0  0  0  0  0  0  0  0  0  0
  189.8820  176.9140  139.7230 C   0  0  2  0  0  3  0  0  0  0  0  0
  191.0890  176.9440  146.3310 C   0  0  0  0  0  0  0  0  0  0  0  0
  188.9530  178.8440  138.2570 C   0  0  0  0  0  2  0  0  0  0  0  0
  190.7430  176.6170  138.5280 C   0  0  0  0  0  3  0  0  0  0  0  0
  190.3260  177.0050  137.3160 C   0  0  0  0  0  0  0  0  0  0  0  0
  190.2830  178.4720  145.8420 S   0  0  0  0  0  0  0  0  0  0  0  0
  189.7980  175.7440  141.9020 C   0  0  0  0  0  2  0  0  0  0  0  0
  187.8200  178.0270  143.0010 C   0  0  0  0  0  0  0  0  0  0  0  0
  185.5430  178.9410  143.1410 C   0  0  0  0  0  3  0  0  0  0  0  0
  186.3560  177.9200  142.8810 C   0  0  0  0  0  3  0  0  0  0  0  0
  181.2880  178.6920  142.8300 C   0  0  0  0  0  0  0  0  0  0  0  0
  183.4640  178.6280  141.7690 C   0  0  0  0  0  3  0  0  0  0  0  0
  181.9000  178.9030  144.0690 C   0  0  0  0  0  3  0  0  0  0  0  0
  183.2930  178.9780  144.1590 C   0  0  0  0  0  3  0  0  0  0  0  0
  184.0820  178.8420  143.0120 C   0  0  0  0  0  0  0  0  0  0  0  0
  179.8060  178.6220  142.7320 C   0  0  0  0  0  1  0  0  0  0  0  0
  182.0710  178.5530  141.6790 C   0  0  0  0  0  3  0  0  0  0  0  0
  191.1490  176.7300  136.1010 C   0  0  0  0  0  2  0  0  0  0  0  0
  192.6410  174.8710  135.5890 C   0  0  0  0  0  2  0  0  0  0  0  0
  193.3810  176.1200  135.3600 N   0  0  0  0  0  0  0  0  0  0  0  0
  192.4310  176.0070  136.4760 C   0  0  1  0  0  3  0  0  0  0  0  0
  194.7070  175.9360  135.9300 C   0  0  0  0  0  2  0  0  0  0  0  0
  195.7620  176.4410  134.9620 C   0  0  0  0  0  2  0  0  0  0  0  0
  195.8060  177.9610  134.9680 C   0  0  0  0  0  1  0  0  0  0  0  0
  1 15  1  6  0  0  0
  1 13  1  0  0  0  0
  1  6  1  0  0  0  0
  2  7  2  0  0  0  0
  5 17  1  0  0  0  0
  5 15  1  0  0  0  0
  6  8  1  0  0  0  0
  7 12  1  0  0  0  0
  8 20  1  0  0  0  0
  9  4  1  0  0  0  0
 10  3  1  1  0  0  0
 10  7  1  0  0  0  0
 10 18  1  0  0  0  0
 11 19  1  0  0  0  0
 12 14  2  0  0  0  0
 13 16  1  6  0  0  0
 13 11  1  0  0  0  0
 14  9  1  0  0  0  0
 17 16  2  0  0  0  0
 18 14  1  0  0  0  0
 19  2  1  0  0  0  0
 20  3  2  0  0  0  0
 22 20  1  0  0  0  0
 22 21  2  0  0  0  0
 23 25  1  0  0  0  0
 24 27  2  0  0  0  0
 25 26  2  0  0  0  0
 27 21  1  0  0  0  0
 27 26  1  0  0  0  0
 28 23  1  0  0  0  0
 29 24  1  0  0  0  0
 29 23  2  0  0  0  0
 30 17  1  0  0  0  0
 31 33  1  0  0  0  0
 32 31  1  0  0  0  0
 32 34  1  0  0  0  0
 32 33  1  0  0  0  0
 33 30  1  6  0  0  0
 35 36  1  0  0  0  0
 35 34  1  0  0  0  0
M  END
>  <MODEL>
9

>  <REMARK>
 VINA RESULT:      -6.7      5.168      9.843
  Name = 
  6 active torsions:
  status: ('A' for Active; 'I' for Inactive)
    1  A    between atoms: C_1  and  C_11
    2  A    between atoms: C_11  and  N_23
    3  A    between atoms: C_16  and  C_22
    4  A    between atoms: C_21  and  C_35
    5  A    between atoms: C_26  and  C_32
    6  A    between atoms: C_30  and  C_32
                            x       y       z     vdW  Elec       q    Type
                         _______ _______ _______ _____ _____    ______ ____

>  <TORSDO>
F 6

$$$$
