=
 OpenBabel11042411593D

 28 33  0  0  1  0  0  0  0  0999 V2000
  185.9210  178.2950  146.1450 C   0  0  0  0  0  3  0  0  0  0  0  0
  184.6860  178.6170  146.6120 N   0  0  0  0  0  0  0  0  0  0  0  0
  183.6650  178.8510  145.7830 N   0  0  0  0  0  0  0  0  0  0  0  0
  183.8200  178.7760  144.4350 C   0  0  0  0  0  0  0  0  0  0  0  0
  186.1400  178.2050  144.7700 C   0  0  0  0  0  3  0  0  0  0  0  0
  180.3590  179.2540  141.9550 C   0  0  0  0  0  2  0  0  0  0  0  0
  184.3990  179.8210  139.6210 O   0  0  0  0  0  1  0  0  0  0  0  0
  182.7440  179.0240  143.5830 C   0  0  0  0  0  3  0  0  0  0  0  0
  182.8970  178.9320  142.1900 C   0  0  0  0  0  0  0  0  0  0  0  0
  181.1340  178.9560  138.6360 O   0  0  0  0  0  0  0  0  0  0  0  0
  181.7350  179.2710  141.2730 C   0  0  1  0  0  3  0  0  0  0  0  0
  185.2530  178.3760  142.5210 C   0  0  0  0  0  3  0  0  0  0  0  0
  184.4300  178.5400  140.1800 C   0  0  2  0  0  3  0  0  0  0  0  0
  180.6320  176.7760  140.2090 C   0  0  0  0  0  2  0  0  0  0  0  0
  179.9350  177.8920  142.2720 N   0  0  0  0  0  2  0  0  0  0  0  0
  185.0780  178.4480  143.9030 C   0  0  0  0  0  0  0  0  0  0  0  0
  181.6990  178.1870  139.8070 P   0  0  1  0  0  0  0  0  0  0  0  0
  183.4100  177.6180  139.5130 C   0  0  1  0  0  3  0  0  0  0  0  0
  179.4560  177.2660  141.0430 C   0  0  0  0  0  2  0  0  0  0  0  0
  184.1780  178.6200  141.6600 C   0  0  0  0  0  0  0  0  0  0  0  0
  183.1290  175.8940  137.5970 C   0  0  0  0  0  2  0  0  0  0  0  0
  185.1540  174.7250  136.7250 C   0  0  0  0  0  3  0  0  0  0  0  0
  185.5500  177.2240  136.2980 C   0  0  1  0  0  3  0  0  0  0  0  0
  183.7600  177.2190  138.0740 C   0  0  2  0  0  3  0  0  0  0  0  0
  185.2590  177.3610  137.7910 C   0  0  0  0  0  2  0  0  0  0  0  0
  184.0950  174.7430  137.5460 C   0  0  0  0  0  3  0  0  0  0  0  0
  186.6960  176.4290  136.1140 O   0  0  0  0  0  0  0  0  0  0  0  0
  185.4750  175.8300  135.7470 C   0  0  1  0  0  3  0  0  0  0  0  0
  1  2  1  0  0  0  0
  3  2  2  0  0  0  0
  4  3  1  0  0  0  0
  5  1  2  0  0  0  0
  6 15  1  0  0  0  0
  8  4  2  0  0  0  0
  9  8  1  0  0  0  0
 11  6  1  1  0  0  0
 11  9  1  0  0  0  0
 12 16  2  0  0  0  0
 13  7  1  6  0  0  0
 13 20  1  0  0  0  0
 14 19  1  0  0  0  0
 16  4  1  0  0  0  0
 16  5  1  0  0  0  0
 17 10  2  6  0  0  0
 17 14  1  0  0  0  0
 17 11  1  0  0  0  0
 18 24  1  6  0  0  0
 18 17  1  0  0  0  0
 18 13  1  0  0  0  0
 19 15  1  0  0  0  0
 20  9  2  0  0  0  0
 20 12  1  0  0  0  0
 22 26  2  0  0  0  0
 23 25  1  1  0  0  0
 24 21  1  1  0  0  0
 25 24  1  0  0  0  0
 26 21  1  0  0  0  0
 27 23  1  0  0  0  0
 28 27  1  0  0  0  0
 28 23  1  0  0  0  0
 28 22  1  1  0  0  0
M  END
>  <MODEL>
1

>  <REMARK>
 VINA RESULT:      -8.8      0.000      0.000
  Name = 
  1 active torsions:
  status: ('A' for Active; 'I' for Inactive)
    1  A    between atoms: C_8  and  C_26
                            x       y       z     vdW  Elec       q    Type
                         _______ _______ _______ _____ _____    ______ ____

>  <TORSDO>
F 1

$$$$
=
 OpenBabel11042411593D

 28 33  0  0  1  0  0  0  0  0999 V2000
  185.8670  178.4050  146.0550 C   0  0  0  0  0  3  0  0  0  0  0  0
  184.6770  178.8540  146.5350 N   0  0  0  0  0  0  0  0  0  0  0  0
  183.6290  179.0530  145.7310 N   0  0  0  0  0  0  0  0  0  0  0  0
  183.7110  178.8150  144.3960 C   0  0  0  0  0  0  0  0  0  0  0  0
  186.0100  178.1460  144.6920 C   0  0  0  0  0  3  0  0  0  0  0  0
  180.1600  179.2180  142.0320 C   0  0  0  0  0  2  0  0  0  0  0  0
  184.1010  179.2670  139.4710 O   0  0  0  0  0  1  0  0  0  0  0  0
  182.6080  179.0300  143.5690 C   0  0  0  0  0  3  0  0  0  0  0  0
  182.6850  178.7710  142.1900 C   0  0  0  0  0  0  0  0  0  0  0  0
  180.7470  178.4970  138.7390 O   0  0  0  0  0  0  0  0  0  0  0  0
  181.4980  179.0720  141.2920 C   0  0  1  0  0  3  0  0  0  0  0  0
  185.0200  178.1140  142.4800 C   0  0  0  0  0  3  0  0  0  0  0  0
  184.0900  178.0590  140.1740 C   0  0  2  0  0  3  0  0  0  0  0  0
  180.2060  176.5450  140.5770 C   0  0  0  0  0  2  0  0  0  0  0  0
  179.6770  177.9290  142.5240 N   0  0  0  0  0  2  0  0  0  0  0  0
  184.9200  178.3530  143.8500 C   0  0  0  0  0  0  0  0  0  0  0  0
  181.3280  177.8330  139.9660 P   0  0  1  0  0  0  0  0  0  0  0  0
  182.9870  177.1310  139.6650 C   0  0  1  0  0  3  0  0  0  0  0  0
  179.1030  177.1970  141.3990 C   0  0  0  0  0  2  0  0  0  0  0  0
  183.9180  178.3230  141.6440 C   0  0  0  0  0  0  0  0  0  0  0  0
  183.5430  177.5960  137.1760 C   0  0  0  0  0  2  0  0  0  0  0  0
  181.9040  176.8990  135.4280 C   0  0  0  0  0  3  0  0  0  0  0  0
  182.6060  174.7420  136.6280 C   0  0  1  0  0  3  0  0  0  0  0  0
  183.2410  176.5490  138.2690 C   0  0  2  0  0  3  0  0  0  0  0  0
  182.1920  175.4990  137.8890 C   0  0  0  0  0  2  0  0  0  0  0  0
  182.3940  177.8460  136.2400 C   0  0  0  0  0  3  0  0  0  0  0  0
  181.4890  174.5860  135.7870 O   0  0  0  0  0  0  0  0  0  0  0  0
  182.4640  175.5000  135.3400 C   0  0  1  0  0  3  0  0  0  0  0  0
  1  2  1  0  0  0  0
  3  2  2  0  0  0  0
  4  3  1  0  0  0  0
  5  1  2  0  0  0  0
  6 15  1  0  0  0  0
  8  4  2  0  0  0  0
  9  8  1  0  0  0  0
 11  6  1  1  0  0  0
 11  9  1  0  0  0  0
 12 16  2  0  0  0  0
 13  7  1  6  0  0  0
 13 20  1  0  0  0  0
 14 19  1  0  0  0  0
 16  4  1  0  0  0  0
 16  5  1  0  0  0  0
 17 10  2  6  0  0  0
 17 14  1  0  0  0  0
 17 11  1  0  0  0  0
 18 24  1  6  0  0  0
 18 17  1  0  0  0  0
 18 13  1  0  0  0  0
 19 15  1  0  0  0  0
 20  9  2  0  0  0  0
 20 12  1  0  0  0  0
 22 26  2  0  0  0  0
 23 25  1  1  0  0  0
 24 21  1  6  0  0  0
 25 24  1  0  0  0  0
 26 21  1  0  0  0  0
 27 23  1  0  0  0  0
 28 22  1  1  0  0  0
 28 27  1  0  0  0  0
 28 23  1  0  0  0  0
M  END
>  <MODEL>
2

>  <REMARK>
 VINA RESULT:      -7.6      1.437      1.949
  Name = 
  1 active torsions:
  status: ('A' for Active; 'I' for Inactive)
    1  A    between atoms: C_8  and  C_26
                            x       y       z     vdW  Elec       q    Type
                         _______ _______ _______ _____ _____    ______ ____

>  <TORSDO>
F 1

$$$$
=
 OpenBabel11042411593D

 28 33  0  0  1  0  0  0  0  0999 V2000
  186.1080  177.9770  145.1170 C   0  0  0  0  0  3  0  0  0  0  0  0
  184.8500  178.2870  144.7070 N   0  0  0  0  0  0  0  0  0  0  0  0
  184.5610  178.4670  143.4150 N   0  0  0  0  0  0  0  0  0  0  0  0
  185.5160  178.3480  142.4560 C   0  0  0  0  0  0  0  0  0  0  0  0
  187.1300  177.8440  144.1770 C   0  0  0  0  0  3  0  0  0  0  0  0
  184.3310  178.6590  138.3500 C   0  0  0  0  0  2  0  0  0  0  0  0
  188.9510  179.2380  138.9910 O   0  0  0  0  0  1  0  0  0  0  0  0
  185.1980  178.5420  141.1120 C   0  0  0  0  0  3  0  0  0  0  0  0
  186.1800  178.4050  140.1170 C   0  0  0  0  0  0  0  0  0  0  0  0
  186.9920  178.2630  136.2360 O   0  0  0  0  0  0  0  0  0  0  0  0
  185.8340  178.6840  138.6640 C   0  0  1  0  0  3  0  0  0  0  0  0
  187.8240  177.9160  141.8560 C   0  0  0  0  0  3  0  0  0  0  0  0
  188.6270  177.9780  139.5030 C   0  0  2  0  0  3  0  0  0  0  0  0
  185.6180  176.1280  137.2520 C   0  0  0  0  0  2  0  0  0  0  0  0
  183.7980  177.2990  138.3940 N   0  0  0  0  0  2  0  0  0  0  0  0
  186.8330  178.0310  142.8290 C   0  0  0  0  0  0  0  0  0  0  0  0
  186.7090  177.5490  137.5370 P   0  0  1  0  0  0  0  0  0  0  0  0
  188.2340  177.0100  138.3870 C   0  0  1  0  0  3  0  0  0  0  0  0
  184.1800  176.6190  137.1590 C   0  0  0  0  0  2  0  0  0  0  0  0
  187.5130  178.1040  140.5050 C   0  0  0  0  0  0  0  0  0  0  0  0
  189.0480  175.4630  136.4730 C   0  0  0  0  0  2  0  0  0  0  0  0
  190.8810  173.8340  136.9410 C   0  0  0  0  0  3  0  0  0  0  0  0
  191.8830  176.1570  137.3710 C   0  0  1  0  0  3  0  0  0  0  0  0
  189.3980  176.5690  137.4900 C   0  0  2  0  0  3  0  0  0  0  0  0
  190.6780  176.3290  138.2960 C   0  0  0  0  0  2  0  0  0  0  0  0
  189.5710  174.1040  136.8480 C   0  0  0  0  0  3  0  0  0  0  0  0
  192.6840  175.0990  137.8360 O   0  0  0  0  0  0  0  0  0  0  0  0
  191.9660  174.8430  136.6520 C   0  0  1  0  0  3  0  0  0  0  0  0
  2  1  1  0  0  0  0
  3  2  2  0  0  0  0
  4 16  1  0  0  0  0
  4  3  1  0  0  0  0
  5  1  2  0  0  0  0
  6 15  1  0  0  0  0
  8  4  2  0  0  0  0
  9 20  2  0  0  0  0
  9  8  1  0  0  0  0
 11  6  1  1  0  0  0
 11  9  1  0  0  0  0
 12 16  2  0  0  0  0
 13  7  1  6  0  0  0
 13 20  1  0  0  0  0
 14 17  1  0  0  0  0
 16  5  1  0  0  0  0
 17 10  2  6  0  0  0
 17 18  1  0  0  0  0
 17 11  1  0  0  0  0
 18 24  1  6  0  0  0
 18 13  1  0  0  0  0
 19 14  1  0  0  0  0
 19 15  1  0  0  0  0
 20 12  1  0  0  0  0
 21 26  1  0  0  0  0
 23 27  1  0  0  0  0
 23 25  1  1  0  0  0
 24 21  1  1  0  0  0
 24 25  1  0  0  0  0
 26 22  2  0  0  0  0
 28 22  1  1  0  0  0
 28 23  1  0  0  0  0
 28 27  1  0  0  0  0
M  END
>  <MODEL>
3

>  <REMARK>
 VINA RESULT:      -7.4      3.753      4.835
  Name = 
  1 active torsions:
  status: ('A' for Active; 'I' for Inactive)
    1  A    between atoms: C_8  and  C_26
                            x       y       z     vdW  Elec       q    Type
                         _______ _______ _______ _____ _____    ______ ____

>  <TORSDO>
F 1

$$$$
=
 OpenBabel11042411593D

 28 33  0  0  1  0  0  0  0  0999 V2000
  181.8290  178.0100  139.0070 C   0  0  0  0  0  3  0  0  0  0  0  0
  182.7610  178.2360  138.0440 N   0  0  0  0  0  0  0  0  0  0  0  0
  184.0490  178.4250  138.3490 N   0  0  0  0  0  0  0  0  0  0  0  0
  184.4790  178.3980  139.6370 C   0  0  0  0  0  0  0  0  0  0  0  0
  182.2130  177.9730  140.3470 C   0  0  0  0  0  3  0  0  0  0  0  0
  188.6860  178.7150  140.3890 C   0  0  0  0  0  2  0  0  0  0  0  0
  186.0570  179.6130  144.1800 O   0  0  0  0  0  1  0  0  0  0  0  0
  185.8260  178.5980  139.9380 C   0  0  0  0  0  3  0  0  0  0  0  0
  186.2770  178.5560  141.2690 C   0  0  0  0  0  0  0  0  0  0  0  0
  189.3850  178.5620  143.7340 O   0  0  0  0  0  0  0  0  0  0  0  0
  187.7340  178.8410  141.5870 C   0  0  1  0  0  3  0  0  0  0  0  0
  183.9810  178.1480  141.9960 C   0  0  0  0  0  3  0  0  0  0  0  0
  185.7290  178.3220  143.7570 C   0  0  2  0  0  3  0  0  0  0  0  0
  189.0630  176.3100  142.2160 C   0  0  0  0  0  2  0  0  0  0  0  0
  188.8680  177.3180  139.9950 N   0  0  0  0  0  2  0  0  0  0  0  0
  183.5540  178.1690  140.6690 C   0  0  0  0  0  0  0  0  0  0  0  0
  188.3380  177.8000  142.9560 P   0  0  1  0  0  0  0  0  0  0  0  0
  186.8900  177.3530  143.9770 C   0  0  1  0  0  3  0  0  0  0  0  0
  189.7940  176.6970  140.9380 C   0  0  0  0  0  2  0  0  0  0  0  0
  185.3310  178.3440  142.3070 C   0  0  0  0  0  0  0  0  0  0  0  0
  186.0600  177.4510  146.4300 C   0  0  0  0  0  2  0  0  0  0  0  0
  187.4190  178.7000  148.1110 C   0  0  0  0  0  3  0  0  0  0  0  0
  188.9400  176.8280  147.2330 C   0  0  1  0  0  3  0  0  0  0  0  0
  187.1680  177.0190  145.4480 C   0  0  2  0  0  3  0  0  0  0  0  0
  188.5910  177.4070  145.8620 C   0  0  0  0  0  2  0  0  0  0  0  0
  186.4050  178.6730  147.2360 C   0  0  0  0  0  3  0  0  0  0  0  0
  189.6170  177.7990  147.9930 O   0  0  0  0  0  0  0  0  0  0  0  0
  188.3010  177.5100  148.4070 C   0  0  1  0  0  3  0  0  0  0  0  0
  1  5  1  0  0  0  0
  2  3  1  0  0  0  0
  2  1  2  0  0  0  0
  3  4  2  0  0  0  0
  4  8  1  0  0  0  0
  4 16  1  0  0  0  0
  5 16  2  0  0  0  0
  8  9  2  0  0  0  0
  9 11  1  0  0  0  0
  9 20  1  0  0  0  0
 11  6  1  6  0  0  0
 11 17  1  0  0  0  0
 12 20  2  0  0  0  0
 13 18  1  0  0  0  0
 13  7  1  6  0  0  0
 14 17  1  0  0  0  0
 15  6  1  0  0  0  0
 15 19  1  0  0  0  0
 16 12  1  0  0  0  0
 17 10  2  1  0  0  0
 17 18  1  0  0  0  0
 18 24  1  1  0  0  0
 19 14  1  0  0  0  0
 20 13  1  0  0  0  0
 21 26  1  0  0  0  0
 23 25  1  6  0  0  0
 23 27  1  0  0  0  0
 23 28  1  0  0  0  0
 24 25  1  1  0  0  0
 24 21  1  0  0  0  0
 26 22  2  0  0  0  0
 27 28  1  0  0  0  0
 28 22  1  6  0  0  0
M  END
>  <MODEL>
4

>  <REMARK>
 VINA RESULT:      -7.1      4.143      8.143
  Name = 
  1 active torsions:
  status: ('A' for Active; 'I' for Inactive)
    1  A    between atoms: C_8  and  C_26
                            x       y       z     vdW  Elec       q    Type
                         _______ _______ _______ _____ _____    ______ ____

>  <TORSDO>
F 1

$$$$
=
 OpenBabel11042411593D

 28 33  0  0  1  0  0  0  0  0999 V2000
  178.9310  173.2010  138.7450 C   0  0  0  0  0  3  0  0  0  0  0  0
  179.3260  173.3250  137.4510 N   0  0  0  0  0  0  0  0  0  0  0  0
  180.1460  174.3060  137.0610 N   0  0  0  0  0  0  0  0  0  0  0  0
  180.6180  175.2220  137.9460 C   0  0  0  0  0  0  0  0  0  0  0  0
  179.3830  174.1150  139.6970 C   0  0  0  0  0  3  0  0  0  0  0  0
  183.4760  178.1030  136.5680 C   0  0  0  0  0  2  0  0  0  0  0  0
  181.4180  179.3280  140.6120 O   0  0  0  0  0  1  0  0  0  0  0  0
  181.4720  176.2410  137.5230 C   0  0  0  0  0  3  0  0  0  0  0  0
  181.9740  177.1810  138.4380 C   0  0  0  0  0  0  0  0  0  0  0  0
  184.4630  180.2030  139.0810 O   0  0  0  0  0  0  0  0  0  0  0  0
  182.8490  178.3240  137.9520 C   0  0  1  0  0  3  0  0  0  0  0  0
  180.7080  176.0780  140.2120 C   0  0  0  0  0  3  0  0  0  0  0  0
  182.0320  178.0910  140.8280 C   0  0  2  0  0  3  0  0  0  0  0  0
  185.6220  177.7560  138.6980 C   0  0  0  0  0  2  0  0  0  0  0  0
  184.5290  177.0890  136.6130 N   0  0  0  0  0  2  0  0  0  0  0  0
  180.2370  175.1390  139.2960 C   0  0  0  0  0  0  0  0  0  0  0  0
  184.1580  178.7250  139.1550 P   0  0  1  0  0  0  0  0  0  0  0  0
  183.5550  178.2140  140.8020 C   0  0  1  0  0  3  0  0  0  0  0  0
  185.7270  177.7020  137.1800 C   0  0  0  0  0  2  0  0  0  0  0  0
  181.5670  177.1010  139.7970 C   0  0  0  0  0  0  0  0  0  0  0  0
  185.6840  178.8190  142.1530 C   0  0  0  0  0  2  0  0  0  0  0  0
  185.8440  178.0900  144.5350 C   0  0  0  0  0  3  0  0  0  0  0  0
  183.7940  179.6290  144.4100 C   0  0  1  0  0  3  0  0  0  0  0  0
  184.1530  178.9500  142.0080 C   0  0  2  0  0  3  0  0  0  0  0  0
  183.3560  178.6880  143.2890 C   0  0  0  0  0  2  0  0  0  0  0  0
  186.1130  177.8730  143.2400 C   0  0  0  0  0  3  0  0  0  0  0  0
  183.8910  178.9100  145.6150 O   0  0  0  0  0  0  0  0  0  0  0  0
  185.1160  179.3110  145.0450 C   0  0  1  0  0  3  0  0  0  0  0  0
  1  5  1  0  0  0  0
  2  1  2  0  0  0  0
  3  2  1  0  0  0  0
  3  4  2  0  0  0  0
  4 16  1  0  0  0  0
  6 15  1  0  0  0  0
  8  4  1  0  0  0  0
  8  9  2  0  0  0  0
  9 20  1  0  0  0  0
 11  6  1  6  0  0  0
 11  9  1  0  0  0  0
 11 17  1  0  0  0  0
 13  7  1  6  0  0  0
 14 17  1  0  0  0  0
 15 19  1  0  0  0  0
 16  5  2  0  0  0  0
 16 12  1  0  0  0  0
 17 10  2  6  0  0  0
 17 18  1  0  0  0  0
 18 13  1  0  0  0  0
 18 24  1  1  0  0  0
 19 14  1  0  0  0  0
 20 12  2  0  0  0  0
 20 13  1  0  0  0  0
 21 26  1  0  0  0  0
 23 25  1  6  0  0  0
 23 28  1  0  0  0  0
 23 27  1  0  0  0  0
 24 21  1  1  0  0  0
 24 25  1  0  0  0  0
 26 22  2  0  0  0  0
 28 22  1  6  0  0  0
 28 27  1  0  0  0  0
M  END
>  <MODEL>
5

>  <REMARK>
 VINA RESULT:      -7.1      3.394      7.098
  Name = 
  1 active torsions:
  status: ('A' for Active; 'I' for Inactive)
    1  A    between atoms: C_8  and  C_26
                            x       y       z     vdW  Elec       q    Type
                         _______ _______ _______ _____ _____    ______ ____

>  <TORSDO>
F 1

$$$$
=
 OpenBabel11042411593D

 28 33  0  0  1  0  0  0  0  0999 V2000
  190.4530  175.8910  136.3540 C   0  0  0  0  0  3  0  0  0  0  0  0
  191.7250  175.9200  136.8330 N   0  0  0  0  0  0  0  0  0  0  0  0
  191.9940  176.3260  138.0770 N   0  0  0  0  0  0  0  0  0  0  0  0
  191.0040  176.7290  138.9160 C   0  0  0  0  0  0  0  0  0  0  0  0
  189.3970  176.2960  137.1700 C   0  0  0  0  0  3  0  0  0  0  0  0
  192.0290  177.7020  142.9620 C   0  0  0  0  0  2  0  0  0  0  0  0
  187.8460  179.4000  141.6550 O   0  0  0  0  0  1  0  0  0  0  0  0
  191.3010  177.1520  140.2120 C   0  0  0  0  0  3  0  0  0  0  0  0
  190.2780  177.5550  141.0870 C   0  0  0  0  0  0  0  0  0  0  0  0
  189.2790  178.6250  144.7740 O   0  0  0  0  0  0  0  0  0  0  0  0
  190.6230  178.0760  142.4710 C   0  0  1  0  0  3  0  0  0  0  0  0
  188.6480  177.1400  139.3150 C   0  0  0  0  0  3  0  0  0  0  0  0
  187.7930  178.0140  141.4810 C   0  0  2  0  0  3  0  0  0  0  0  0
  189.9780  176.0030  144.4340 C   0  0  0  0  0  2  0  0  0  0  0  0
  192.1210  176.2790  143.2870 N   0  0  0  0  0  2  0  0  0  0  0  0
  189.6720  176.7200  138.4680 C   0  0  0  0  0  0  0  0  0  0  0  0
  189.3900  177.5590  143.7090 P   0  0  1  0  0  0  0  0  0  0  0  0
  187.8150  177.2840  142.8230 C   0  0  1  0  0  3  0  0  0  0  0  0
  191.4910  176.0680  144.5870 C   0  0  0  0  0  2  0  0  0  0  0  0
  188.9370  177.5620  140.6180 C   0  0  0  0  0  0  0  0  0  0  0  0
  185.2920  177.8780  142.8450 C   0  0  0  0  0  2  0  0  0  0  0  0
  184.5200  179.7960  144.2420 C   0  0  0  0  0  3  0  0  0  0  0  0
  185.5650  178.1160  145.8760 C   0  0  1  0  0  3  0  0  0  0  0  0
  186.5310  177.4330  143.6490 C   0  0  2  0  0  3  0  0  0  0  0  0
  186.7750  178.2090  144.9470 C   0  0  0  0  0  2  0  0  0  0  0  0
  184.9150  179.3180  143.0540 C   0  0  0  0  0  3  0  0  0  0  0  0
  185.3120  179.3780  146.4450 O   0  0  0  0  0  0  0  0  0  0  0  0
  184.3790  178.9460  145.4820 C   0  0  1  0  0  3  0  0  0  0  0  0
  1  2  2  0  0  0  0
  1  5  1  0  0  0  0
  2  3  1  0  0  0  0
  3  4  2  0  0  0  0
  4  8  1  0  0  0  0
  5 16  2  0  0  0  0
  6 15  1  0  0  0  0
  8  9  2  0  0  0  0
  9 11  1  0  0  0  0
 11  6  1  1  0  0  0
 11 17  1  0  0  0  0
 12 20  2  0  0  0  0
 13  7  1  1  0  0  0
 13 18  1  0  0  0  0
 14 19  1  0  0  0  0
 15 19  1  0  0  0  0
 16  4  1  0  0  0  0
 16 12  1  0  0  0  0
 17 14  1  0  0  0  0
 17 10  2  1  0  0  0
 18 24  1  1  0  0  0
 18 17  1  0  0  0  0
 20  9  1  0  0  0  0
 20 13  1  0  0  0  0
 21 26  1  0  0  0  0
 23 25  1  6  0  0  0
 23 27  1  0  0  0  0
 24 21  1  6  0  0  0
 24 25  1  0  0  0  0
 26 22  2  0  0  0  0
 28 22  1  6  0  0  0
 28 23  1  0  0  0  0
 28 27  1  0  0  0  0
M  END
>  <MODEL>
6

>  <REMARK>
 VINA RESULT:      -6.8      5.618      9.008
  Name = 
  1 active torsions:
  status: ('A' for Active; 'I' for Inactive)
    1  A    between atoms: C_8  and  C_26
                            x       y       z     vdW  Elec       q    Type
                         _______ _______ _______ _____ _____    ______ ____

>  <TORSDO>
F 1

$$$$
=
 OpenBabel11042411593D

 28 33  0  0  1  0  0  0  0  0999 V2000
  189.2050  177.9130  142.7340 C   0  0  0  0  0  3  0  0  0  0  0  0
  188.1510  178.2460  141.9420 N   0  0  0  0  0  0  0  0  0  0  0  0
  188.2020  178.1030  140.6140 N   0  0  0  0  0  0  0  0  0  0  0  0
  189.3130  177.6180  140.0000 C   0  0  0  0  0  0  0  0  0  0  0  0
  190.3720  177.4120  142.1580 C   0  0  0  0  0  3  0  0  0  0  0  0
  189.1740  176.9440  135.7710 C   0  0  0  0  0  2  0  0  0  0  0  0
  193.5520  177.1280  137.4710 O   0  0  0  0  0  1  0  0  0  0  0  0
  189.3510  177.4770  138.6130 C   0  0  0  0  0  3  0  0  0  0  0  0
  190.4930  176.9620  137.9770 C   0  0  0  0  0  0  0  0  0  0  0  0
  192.1300  175.6820  134.5960 O   0  0  0  0  0  0  0  0  0  0  0  0
  190.5450  176.8760  136.4610 C   0  0  1  0  0  3  0  0  0  0  0  0
  191.5790  176.7720  140.1560 C   0  0  0  0  0  3  0  0  0  0  0  0
  192.8950  176.1010  138.1550 C   0  0  2  0  0  3  0  0  0  0  0  0
  190.1940  174.0780  135.6740 C   0  0  0  0  0  2  0  0  0  0  0  0
  188.4060  175.7190  135.9840 N   0  0  0  0  0  2  0  0  0  0  0  0
  190.4300  177.2610  140.7750 C   0  0  0  0  0  0  0  0  0  0  0  0
  191.4320  175.3850  135.9030 P   0  0  1  0  0  0  0  0  0  0  0  0
  192.5980  174.9200  137.2310 C   0  0  1  0  0  3  0  0  0  0  0  0
  188.9300  174.6910  135.0890 C   0  0  0  0  0  2  0  0  0  0  0  0
  191.6240  176.6230  138.7660 C   0  0  0  0  0  0  0  0  0  0  0  0
  193.5710  173.0370  135.7390 C   0  0  0  0  0  2  0  0  0  0  0  0
  194.6370  171.0640  136.8360 C   0  0  0  0  0  3  0  0  0  0  0  0
  196.0110  173.1010  137.5740 C   0  0  1  0  0  3  0  0  0  0  0  0
  193.8360  174.1200  136.8060 C   0  0  2  0  0  3  0  0  0  0  0  0
  194.6560  173.6550  138.0130 C   0  0  0  0  0  2  0  0  0  0  0  0
  193.5570  171.6360  136.2850 C   0  0  0  0  0  3  0  0  0  0  0  0
  196.2980  171.9310  138.3000 O   0  0  0  0  0  0  0  0  0  0  0  0
  195.9820  171.7420  136.9400 C   0  0  1  0  0  3  0  0  0  0  0  0
  2  1  2  0  0  0  0
  3  2  1  0  0  0  0
  4  3  2  0  0  0  0
  4 16  1  0  0  0  0
  5  1  1  0  0  0  0
  6 15  1  0  0  0  0
  8  4  1  0  0  0  0
  9  8  2  0  0  0  0
  9 20  1  0  0  0  0
 11  6  1  6  0  0  0
 11  9  1  0  0  0  0
 12 16  1  0  0  0  0
 13  7  1  6  0  0  0
 13 20  1  0  0  0  0
 14 17  1  0  0  0  0
 16  5  2  0  0  0  0
 17 10  2  6  0  0  0
 17 11  1  0  0  0  0
 17 18  1  0  0  0  0
 18 24  1  6  0  0  0
 18 13  1  0  0  0  0
 19 14  1  0  0  0  0
 19 15  1  0  0  0  0
 20 12  2  0  0  0  0
 21 26  1  0  0  0  0
 23 25  1  1  0  0  0
 23 27  1  0  0  0  0
 24 21  1  1  0  0  0
 24 25  1  0  0  0  0
 26 22  2  0  0  0  0
 28 22  1  1  0  0  0
 28 23  1  0  0  0  0
 28 27  1  0  0  0  0
M  END
>  <MODEL>
7

>  <REMARK>
 VINA RESULT:      -6.3      7.560      9.516
  Name = 
  1 active torsions:
  status: ('A' for Active; 'I' for Inactive)
    1  A    between atoms: C_8  and  C_26
                            x       y       z     vdW  Elec       q    Type
                         _______ _______ _______ _____ _____    ______ ____

>  <TORSDO>
F 1

$$$$
=
 OpenBabel11042411593D

 28 33  0  0  1  0  0  0  0  0999 V2000
  181.3410  178.6990  140.4660 C   0  0  0  0  0  3  0  0  0  0  0  0
  181.4290  178.7540  139.1100 N   0  0  0  0  0  0  0  0  0  0  0  0
  182.6100  178.7400  138.4860 N   0  0  0  0  0  0  0  0  0  0  0  0
  183.7740  178.6710  139.1820 C   0  0  0  0  0  0  0  0  0  0  0  0
  182.5030  178.6290  141.2330 C   0  0  0  0  0  3  0  0  0  0  0  0
  187.4430  178.3260  136.9950 C   0  0  0  0  0  2  0  0  0  0  0  0
  188.0660  179.7110  141.4420 O   0  0  0  0  0  1  0  0  0  0  0  0
  185.0000  178.6590  138.5160 C   0  0  0  0  0  3  0  0  0  0  0  0
  186.2050  178.5720  139.2330 C   0  0  0  0  0  0  0  0  0  0  0  0
  190.1450  178.1320  139.0840 O   0  0  0  0  0  0  0  0  0  0  0  0
  187.5320  178.6280  138.4980 C   0  0  1  0  0  3  0  0  0  0  0  0
  184.9240  178.5530  141.3130 C   0  0  0  0  0  3  0  0  0  0  0  0
  187.4040  178.4810  141.4910 C   0  0  2  0  0  3  0  0  0  0  0  0
  188.6660  175.9300  138.4180 C   0  0  0  0  0  2  0  0  0  0  0  0
  187.1710  176.9100  136.7490 N   0  0  0  0  0  2  0  0  0  0  0  0
  183.7370  178.6140  140.5860 C   0  0  0  0  0  0  0  0  0  0  0  0
  188.7700  177.5310  139.2650 P   0  0  1  0  0  0  0  0  0  0  0  0
  188.3120  177.3440  141.0230 C   0  0  1  0  0  3  0  0  0  0  0  0
  188.4140  176.1680  136.9360 C   0  0  0  0  0  2  0  0  0  0  0  0
  186.1580  178.5370  140.6520 C   0  0  0  0  0  0  0  0  0  0  0  0
  189.0510  176.0590  143.1500 C   0  0  0  0  0  2  0  0  0  0  0  0
  189.9210  177.3560  145.0970 C   0  0  0  0  0  3  0  0  0  0  0  0
  191.5180  177.8580  143.1530 C   0  0  1  0  0  3  0  0  0  0  0  0
  189.4490  176.9990  141.9940 C   0  0  2  0  0  3  0  0  0  0  0  0
  190.2380  178.2440  142.4120 C   0  0  0  0  0  2  0  0  0  0  0  0
  188.8980  176.7540  144.4740 C   0  0  0  0  0  3  0  0  0  0  0  0
  191.6910  178.7050  144.2620 O   0  0  0  0  0  0  0  0  0  0  0  0
  191.3320  177.3760  144.5610 C   0  0  1  0  0  3  0  0  0  0  0  0
  1  5  1  0  0  0  0
  2  1  2  0  0  0  0
  3  2  1  0  0  0  0
  3  4  2  0  0  0  0
  4 16  1  0  0  0  0
  8  4  1  0  0  0  0
  8  9  2  0  0  0  0
  9 20  1  0  0  0  0
 11  6  1  6  0  0  0
 11  9  1  0  0  0  0
 11 17  1  0  0  0  0
 13  7  1  6  0  0  0
 14 17  1  0  0  0  0
 15 19  1  0  0  0  0
 15  6  1  0  0  0  0
 16  5  2  0  0  0  0
 16 12  1  0  0  0  0
 17 10  2  6  0  0  0
 17 18  1  0  0  0  0
 18 13  1  0  0  0  0
 18 24  1  1  0  0  0
 19 14  1  0  0  0  0
 20 12  2  0  0  0  0
 20 13  1  0  0  0  0
 21 26  1  0  0  0  0
 23 25  1  6  0  0  0
 23 27  1  0  0  0  0
 23 28  1  0  0  0  0
 24 25  1  1  0  0  0
 24 21  1  0  0  0  0
 26 22  2  0  0  0  0
 27 28  1  0  0  0  0
 28 22  1  6  0  0  0
M  END
>  <MODEL>
8

>  <REMARK>
 VINA RESULT:      -6.2      4.214      7.276
  Name = 
  1 active torsions:
  status: ('A' for Active; 'I' for Inactive)
    1  A    between atoms: C_8  and  C_26
                            x       y       z     vdW  Elec       q    Type
                         _______ _______ _______ _____ _____    ______ ____

>  <TORSDO>
F 1

$$$$
=
 OpenBabel11042411593D

 28 33  0  0  1  0  0  0  0  0999 V2000
  183.4810  179.0030  145.0220 C   0  0  0  0  0  3  0  0  0  0  0  0
  184.1030  178.8690  146.2240 N   0  0  0  0  0  0  0  0  0  0  0  0
  185.3700  178.4530  146.3120 N   0  0  0  0  0  0  0  0  0  0  0  0
  186.0900  178.1460  145.2020 C   0  0  0  0  0  0  0  0  0  0  0  0
  184.1710  178.6990  143.8490 C   0  0  0  0  0  3  0  0  0  0  0  0
  190.2260  177.1280  145.6700 C   0  0  0  0  0  2  0  0  0  0  0  0
  188.4480  175.7850  141.5320 O   0  0  0  0  0  1  0  0  0  0  0  0
  187.4110  177.7110  145.3120 C   0  0  0  0  0  3  0  0  0  0  0  0
  188.1620  177.4070  144.1640 C   0  0  0  0  0  0  0  0  0  0  0  0
  191.7110  176.4640  142.6600 O   0  0  0  0  0  0  0  0  0  0  0  0
  189.5770  176.8720  144.3020 C   0  0  1  0  0  3  0  0  0  0  0  0
  186.2160  177.9440  142.7890 C   0  0  0  0  0  3  0  0  0  0  0  0
  188.2690  177.1680  141.6190 C   0  0  2  0  0  3  0  0  0  0  0  0
  191.4530  179.0120  143.6190 C   0  0  0  0  0  2  0  0  0  0  0  0
  190.5600  178.5400  145.8470 N   0  0  0  0  0  2  0  0  0  0  0  0
  185.4910  178.2660  143.9360 C   0  0  0  0  0  0  0  0  0  0  0  0
  190.6660  177.5060  142.9850 P   0  0  1  0  0  0  0  0  0  0  0  0
  189.6050  177.9070  141.5520 C   0  0  1  0  0  3  0  0  0  0  0  0
  191.7790  178.8180  145.0930 C   0  0  0  0  0  2  0  0  0  0  0  0
  187.5430  177.5110  142.8900 C   0  0  0  0  0  0  0  0  0  0  0  0
  189.4280  178.4610  139.0260 C   0  0  0  0  0  2  0  0  0  0  0  0
  189.5750  176.5970  137.3730 C   0  0  0  0  0  3  0  0  0  0  0  0
  191.8070  176.5860  138.6390 C   0  0  1  0  0  3  0  0  0  0  0  0
  190.2780  177.8780  140.1740 C   0  0  2  0  0  3  0  0  0  0  0  0
  190.9180  176.5170  139.8810 C   0  0  0  0  0  2  0  0  0  0  0  0
  188.8280  177.4190  138.1230 C   0  0  0  0  0  3  0  0  0  0  0  0
  191.5980  175.4410  137.8490 O   0  0  0  0  0  0  0  0  0  0  0  0
  191.0840  176.6440  137.3260 C   0  0  1  0  0  3  0  0  0  0  0  0
  1  2  1  0  0  0  0
  2  3  2  0  0  0  0
  4  8  1  0  0  0  0
  4  3  1  0  0  0  0
  5 16  1  0  0  0  0
  5  1  2  0  0  0  0
  6 15  1  0  0  0  0
  9 11  1  0  0  0  0
  9  8  2  0  0  0  0
 11  6  1  1  0  0  0
 12 20  2  0  0  0  0
 12 16  1  0  0  0  0
 13  7  1  1  0  0  0
 13 20  1  0  0  0  0
 14 19  1  0  0  0  0
 16  4  2  0  0  0  0
 17 10  2  6  0  0  0
 17 14  1  0  0  0  0
 17 11  1  0  0  0  0
 18 24  1  6  0  0  0
 18 13  1  0  0  0  0
 18 17  1  0  0  0  0
 19 15  1  0  0  0  0
 20  9  1  0  0  0  0
 22 26  2  0  0  0  0
 23 25  1  1  0  0  0
 24 21  1  6  0  0  0
 25 24  1  0  0  0  0
 26 21  1  0  0  0  0
 27 23  1  0  0  0  0
 28 22  1  1  0  0  0
 28 27  1  0  0  0  0
 28 23  1  0  0  0  0
M  END
>  <MODEL>
9

>  <REMARK>
 VINA RESULT:      -6.1      4.603      6.913
  Name = 
  1 active torsions:
  status: ('A' for Active; 'I' for Inactive)
    1  A    between atoms: C_8  and  C_26
                            x       y       z     vdW  Elec       q    Type
                         _______ _______ _______ _____ _____    ______ ____

>  <TORSDO>
F 1

$$$$
