=
 OpenBabel11042412013D

 28 31  0  0  1  0  0  0  0  0999 V2000
  185.9090  178.6410  141.3470 C   0  0  0  0  0  2  0  0  0  0  0  0
  184.5600  178.5180  143.4500 C   0  0  0  0  0  0  0  0  0  0  0  0
  185.7590  178.1700  144.2270 C   0  0  0  0  0  3  0  0  0  0  0  0
  188.3110  177.4440  145.7680 C   0  0  0  0  0  0  0  0  0  0  0  0
  189.7100  177.1470  146.0280 C   0  0  0  0  0  0  0  0  0  0  0  0
  184.6280  178.7340  142.1330 C   0  0  0  0  0  3  0  0  0  0  0  0
  190.4860  177.2320  144.7380 C   0  0  0  0  0  2  0  0  0  0  0  0
  187.3910  177.4600  146.6280 O   0  0  0  0  0  0  0  0  0  0  0  0
  189.3950  177.5960  143.7690 C   0  0  0  0  0  0  0  0  0  0  0  0
  190.7920  177.6810  141.8640 O   0  0  0  0  0  1  0  0  0  0  0  0
  188.1250  177.7170  144.3900 N   0  0  0  0  0  0  0  0  0  0  0  0
  189.5370  177.8000  142.4550 C   0  0  0  0  0  0  0  0  0  0  0  0
  187.1150  178.2810  142.1860 C   0  0  0  0  0  0  0  0  0  0  0  0
  186.9540  178.0580  143.6450 C   0  0  0  0  0  0  0  0  0  0  0  0
  188.3460  178.1580  141.6280 C   0  0  0  0  0  0  0  0  0  0  0  0
  190.1790  176.8580  147.2080 N   0  0  0  0  0  0  0  0  0  0  0  0
  183.3070  178.6260  144.1130 N   0  0  0  0  0  1  0  0  0  0  0  0
  191.5360  176.5520  147.5620 C   0  0  0  0  0  0  0  0  0  0  0  0
  192.1500  177.3300  148.3360 O   0  0  0  0  0  0  0  0  0  0  0  0
  192.2540  175.3480  147.0520 C   0  0  0  0  0  1  0  0  0  0  0  0
  188.5420  178.3560  140.1550 C   0  0  0  0  0  2  0  0  0  0  0  0
  188.6270  176.9210  138.0200 C   0  0  2  0  0  3  0  0  0  0  0  0
  188.9070  177.0320  139.4870 C   0  0  1  0  0  3  0  0  0  0  0  0
  189.9040  177.2490  138.5180 O   0  0  0  0  0  0  0  0  0  0  0  0
  187.7240  178.0850  135.7250 O   0  0  0  0  0  0  0  0  0  0  0  0
  188.9080  179.7310  137.3720 O   0  0  0  0  0  1  0  0  0  0  0  0
  187.8970  178.3850  137.1960 P   0  0  0  0  0  0  0  0  0  0  0  0
  186.3850  178.7240  137.8750 O   0  0  0  0  0  1  0  0  0  0  0  0
  1  6  1  0  0  0  0
  1 13  1  0  0  0  0
  2 17  1  0  0  0  0
  2  3  1  0  0  0  0
  4  5  1  0  0  0  0
  4  8  2  0  0  0  0
  5 16  2  0  0  0  0
  6  2  2  0  0  0  0
  7  5  1  0  0  0  0
  9 11  1  0  0  0  0
  9  7  1  0  0  0  0
 10 12  1  0  0  0  0
 11  4  1  0  0  0  0
 12  9  2  0  0  0  0
 13 14  1  0  0  0  0
 14  3  2  0  0  0  0
 14 11  1  0  0  0  0
 15 13  2  0  0  0  0
 15 12  1  0  0  0  0
 16 18  1  0  0  0  0
 18 19  2  0  0  0  0
 20 18  1  0  0  0  0
 21 15  1  0  0  0  0
 22 27  1  6  0  0  0
 22 24  1  0  0  0  0
 22 23  1  0  0  0  0
 23 21  1  6  0  0  0
 24 23  1  0  0  0  0
 25 27  2  0  0  0  0
 27 26  1  0  0  0  0
 27 28  1  0  0  0  0
M  END
>  <MODEL>
1

>  <REMARK>
 VINA RESULT:      -9.6      0.000      0.000
  Name = 
  4 active torsions:
  status: ('A' for Active; 'I' for Inactive)
    1  A    between atoms: C_3  and  P_13
    2  A    between atoms: C_8  and  N_26
    3  A    between atoms: C_9  and  C_27
    4  A    between atoms: C_22  and  C_27
                            x       y       z     vdW  Elec       q    Type
                         _______ _______ _______ _____ _____    ______ ____

>  <TORSDO>
F 4

$$$$
=
 OpenBabel11042412013D

 28 31  0  0  1  0  0  0  0  0999 V2000
  185.6310  178.2330  141.8280 C   0  0  0  0  0  2  0  0  0  0  0  0
  184.5260  178.6460  144.0340 C   0  0  0  0  0  0  0  0  0  0  0  0
  185.7640  178.2950  144.7470 C   0  0  0  0  0  3  0  0  0  0  0  0
  188.3860  177.5410  146.1500 C   0  0  0  0  0  0  0  0  0  0  0  0
  189.7670  177.1250  146.3280 C   0  0  0  0  0  0  0  0  0  0  0  0
  184.4650  178.6180  142.7000 C   0  0  0  0  0  3  0  0  0  0  0  0
  190.3940  176.8860  144.9790 C   0  0  0  0  0  2  0  0  0  0  0  0
  187.5770  177.8210  147.0740 O   0  0  0  0  0  0  0  0  0  0  0  0
  189.2440  177.2070  144.0650 C   0  0  0  0  0  0  0  0  0  0  0  0
  190.4150  176.7850  142.0560 O   0  0  0  0  0  1  0  0  0  0  0  0
  188.0730  177.5890  144.7690 N   0  0  0  0  0  0  0  0  0  0  0  0
  189.2550  177.1590  142.7290 C   0  0  0  0  0  0  0  0  0  0  0  0
  186.8810  177.8790  142.6020 C   0  0  0  0  0  0  0  0  0  0  0  0
  186.8660  177.9360  144.0860 C   0  0  0  0  0  0  0  0  0  0  0  0
  188.0210  177.5100  141.9650 C   0  0  0  0  0  0  0  0  0  0  0  0
  190.3350  176.9910  147.4930 N   0  0  0  0  0  0  0  0  0  0  0  0
  183.3750  179.0220  144.7790 N   0  0  0  0  0  1  0  0  0  0  0  0
  191.6850  176.5870  147.7690 C   0  0  0  0  0  0  0  0  0  0  0  0
  192.3640  177.2620  148.5850 O   0  0  0  0  0  0  0  0  0  0  0  0
  192.3210  175.3990  147.1310 C   0  0  0  0  0  1  0  0  0  0  0  0
  188.0670  177.4220  140.4690 C   0  0  0  0  0  2  0  0  0  0  0  0
  189.5620  178.4480  138.6440 C   0  0  2  0  0  3  0  0  0  0  0  0
  188.7530  178.6550  139.8870 C   0  0  1  0  0  3  0  0  0  0  0  0
  188.2360  178.9240  138.6050 O   0  0  0  0  0  0  0  0  0  0  0  0
  190.2690  176.7940  136.5940 O   0  0  0  0  0  0  0  0  0  0  0  0
  188.0620  176.1130  137.8130 O   0  0  0  0  0  1  0  0  0  0  0  0
  189.6230  176.7500  137.9590 P   0  0  0  0  0  0  0  0  0  0  0  0
  190.5430  175.7610  138.9770 O   0  0  0  0  0  1  0  0  0  0  0  0
  1 13  1  0  0  0  0
  1  6  1  0  0  0  0
  2  3  1  0  0  0  0
  2 17  1  0  0  0  0
  4  5  1  0  0  0  0
  4  8  2  0  0  0  0
  5 16  2  0  0  0  0
  6  2  2  0  0  0  0
  7  5  1  0  0  0  0
  9 11  1  0  0  0  0
  9  7  1  0  0  0  0
 10 12  1  0  0  0  0
 11  4  1  0  0  0  0
 12  9  2  0  0  0  0
 13 14  1  0  0  0  0
 14  3  2  0  0  0  0
 14 11  1  0  0  0  0
 15 13  2  0  0  0  0
 15 12  1  0  0  0  0
 16 18  1  0  0  0  0
 18 19  2  0  0  0  0
 20 18  1  0  0  0  0
 21 15  1  0  0  0  0
 22 27  1  6  0  0  0
 22 23  1  0  0  0  0
 23 21  1  6  0  0  0
 24 22  1  0  0  0  0
 24 23  1  0  0  0  0
 25 27  2  0  0  0  0
 26 27  1  0  0  0  0
 27 28  1  0  0  0  0
M  END
>  <MODEL>
2

>  <REMARK>
 VINA RESULT:      -9.0      1.136      1.648
  Name = 
  4 active torsions:
  status: ('A' for Active; 'I' for Inactive)
    1  A    between atoms: C_3  and  P_13
    2  A    between atoms: C_8  and  N_26
    3  A    between atoms: C_9  and  C_27
    4  A    between atoms: C_22  and  C_27
                            x       y       z     vdW  Elec       q    Type
                         _______ _______ _______ _____ _____    ______ ____

>  <TORSDO>
F 4

$$$$
=
 OpenBabel11042412013D

 28 31  0  0  1  0  0  0  0  0999 V2000
  186.9880  177.8180  145.6250 C   0  0  0  0  0  3  0  0  0  0  0  0
  184.6920  178.6740  145.1160 C   0  0  0  0  0  0  0  0  0  0  0  0
  184.9870  178.6760  143.6750 C   0  0  0  0  0  3  0  0  0  0  0  0
  185.6900  178.6530  140.6890 C   0  0  0  0  0  0  0  0  0  0  0  0
  186.4610  178.4720  139.4700 C   0  0  0  0  0  0  0  0  0  0  0  0
  185.6070  178.2810  146.0080 C   0  0  0  0  0  3  0  0  0  0  0  0
  187.8330  177.9570  139.8200 C   0  0  0  0  0  2  0  0  0  0  0  0
  184.5030  179.0700  140.7530 O   0  0  0  0  0  0  0  0  0  0  0  0
  187.7370  177.8770  141.3190 C   0  0  0  0  0  0  0  0  0  0  0  0
  189.9320  177.0660  141.6520 O   0  0  0  0  0  1  0  0  0  0  0  0
  186.4730  178.2890  141.8120 N   0  0  0  0  0  0  0  0  0  0  0  0
  188.6990  177.4710  142.1540 C   0  0  0  0  0  0  0  0  0  0  0  0
  187.2460  177.8380  144.1350 C   0  0  0  0  0  0  0  0  0  0  0  0
  186.1750  178.2880  143.2100 C   0  0  1  0  0  3  0  0  0  0  0  0
  188.4420  177.4490  143.6260 C   0  0  0  0  0  0  0  0  0  0  0  0
  185.9980  178.7280  138.2800 N   0  0  0  0  0  0  0  0  0  0  0  0
  183.4120  179.0970  145.5670 N   0  0  0  0  0  1  0  0  0  0  0  0
  186.6790  178.5810  137.0240 C   0  0  0  0  0  0  0  0  0  0  0  0
  187.5830  179.4030  136.7250 O   0  0  0  0  0  0  0  0  0  0  0  0
  186.3610  177.4940  136.0540 C   0  0  0  0  0  1  0  0  0  0  0  0
  189.5540  177.0090  144.5310 C   0  0  0  0  0  2  0  0  0  0  0  0
  191.6130  177.9630  145.7420 C   0  0  2  0  0  3  0  0  0  0  0  0
  190.6170  178.0990  144.6320 C   0  0  1  0  0  3  0  0  0  0  0  0
  191.8910  177.5390  144.4270 O   0  0  0  0  0  0  0  0  0  0  0  0
  192.2870  176.7220  148.0750 O   0  0  0  0  0  1  0  0  0  0  0  0
  191.9930  175.1060  146.0440 O   0  0  0  0  0  0  0  0  0  0  0  0
  191.4520  176.5020  146.8340 P   0  0  0  0  0  0  0  0  0  0  0  0
  189.8340  176.3040  147.2830 O   0  0  0  0  0  1  0  0  0  0  0  0
  1  6  2  0  0  0  0
  2 17  1  0  0  0  0
  2  6  1  0  0  0  0
  3  2  2  0  0  0  0
  4  8  2  0  0  0  0
  4 11  1  0  0  0  0
  5  7  1  0  0  0  0
  5  4  1  0  0  0  0
  7  9  1  0  0  0  0
  9 11  1  0  0  0  0
  9 12  2  0  0  0  0
 10 12  1  0  0  0  0
 11 14  1  0  0  0  0
 12 15  1  0  0  0  0
 13  1  1  0  0  0  0
 14  3  1  1  0  0  0
 14 13  1  0  0  0  0
 15 13  2  0  0  0  0
 15 21  1  0  0  0  0
 16  5  2  0  0  0  0
 18 16  1  0  0  0  0
 19 18  2  0  0  0  0
 20 18  1  0  0  0  0
 22 27  1  1  0  0  0
 23 21  1  1  0  0  0
 23 22  1  0  0  0  0
 24 23  1  0  0  0  0
 24 22  1  0  0  0  0
 26 27  2  0  0  0  0
 27 28  1  0  0  0  0
 27 25  1  0  0  0  0
M  END
>  <MODEL>
3

>  <REMARK>
 VINA RESULT:      -8.4      2.937      7.213
  Name = 
  4 active torsions:
  status: ('A' for Active; 'I' for Inactive)
    1  A    between atoms: C_3  and  P_13
    2  A    between atoms: C_8  and  N_26
    3  A    between atoms: C_9  and  C_27
    4  A    between atoms: C_22  and  C_27
                            x       y       z     vdW  Elec       q    Type
                         _______ _______ _______ _____ _____    ______ ____

>  <TORSDO>
F 4

$$$$
=
 OpenBabel11042412013D

 28 31  0  0  1  0  0  0  0  0999 V2000
  189.6590  177.8190  142.8310 C   0  0  0  0  0  2  0  0  0  0  0  0
  189.1820  177.4370  145.2570 C   0  0  0  0  0  0  0  0  0  0  0  0
  187.7520  177.7080  145.0430 C   0  0  0  0  0  3  0  0  0  0  0  0
  184.7890  178.2920  144.5070 C   0  0  0  0  0  0  0  0  0  0  0  0
  183.5730  178.6280  143.7830 C   0  0  0  0  0  0  0  0  0  0  0  0
  190.0540  177.4870  144.2460 C   0  0  0  0  0  3  0  0  0  0  0  0
  183.9040  178.8500  142.3290 C   0  0  0  0  0  2  0  0  0  0  0  0
  184.8660  178.0460  145.7390 O   0  0  0  0  0  0  0  0  0  0  0  0
  185.3890  178.6080  142.3310 C   0  0  0  0  0  0  0  0  0  0  0  0
  185.6910  178.9920  140.0180 O   0  0  0  0  0  1  0  0  0  0  0  0
  185.8910  178.2820  143.6160 N   0  0  0  0  0  0  0  0  0  0  0  0
  186.2040  178.6750  141.2730 C   0  0  0  0  0  0  0  0  0  0  0  0
  188.1810  178.0910  142.6580 C   0  0  0  0  0  0  0  0  0  0  0  0
  187.2780  178.0130  143.8350 C   0  0  0  0  0  0  0  0  0  0  0  0
  187.6630  178.4040  141.4440 C   0  0  0  0  0  0  0  0  0  0  0  0
  182.4010  178.7130  144.3430 N   0  0  0  0  0  0  0  0  0  0  0  0
  189.6430  177.1160  146.5630 N   0  0  0  0  0  1  0  0  0  0  0  0
  181.1500  179.0360  143.7160 C   0  0  0  0  0  0  0  0  0  0  0  0
  181.0860  180.0550  142.9810 O   0  0  0  0  0  0  0  0  0  0  0  0
  179.9190  178.2140  143.8970 C   0  0  0  0  0  1  0  0  0  0  0  0
  188.5470  178.5110  140.2380 C   0  0  0  0  0  2  0  0  0  0  0  0
  189.0330  176.8330  138.3500 C   0  0  2  0  0  3  0  0  0  0  0  0
  189.0380  177.1290  139.8180 C   0  0  1  0  0  3  0  0  0  0  0  0
  190.1940  177.2570  139.0250 O   0  0  0  0  0  0  0  0  0  0  0  0
  188.9430  177.8760  135.8310 O   0  0  0  0  0  0  0  0  0  0  0  0
  189.0560  179.6630  137.7320 O   0  0  0  0  0  1  0  0  0  0  0  0
  188.4530  178.1630  137.2320 P   0  0  0  0  0  0  0  0  0  0  0  0
  186.7630  178.2070  137.2300 O   0  0  0  0  0  1  0  0  0  0  0  0
  1  6  1  0  0  0  0
  2 17  1  0  0  0  0
  3  2  1  0  0  0  0
  4  8  2  0  0  0  0
  5 16  2  0  0  0  0
  5  4  1  0  0  0  0
  6  2  2  0  0  0  0
  7  9  1  0  0  0  0
  7  5  1  0  0  0  0
  9 11  1  0  0  0  0
 10 12  1  0  0  0  0
 11 14  1  0  0  0  0
 11  4  1  0  0  0  0
 12 15  1  0  0  0  0
 12  9  2  0  0  0  0
 13  1  1  0  0  0  0
 13 14  1  0  0  0  0
 14  3  2  0  0  0  0
 15 13  2  0  0  0  0
 18 20  1  0  0  0  0
 18 16  1  0  0  0  0
 19 18  2  0  0  0  0
 21 15  1  0  0  0  0
 22 27  1  6  0  0  0
 22 24  1  0  0  0  0
 22 23  1  0  0  0  0
 23 21  1  6  0  0  0
 24 23  1  0  0  0  0
 25 27  2  0  0  0  0
 27 26  1  0  0  0  0
 28 27  1  0  0  0  0
M  END
>  <MODEL>
4

>  <REMARK>
 VINA RESULT:      -8.2      2.103      5.527
  Name = 
  4 active torsions:
  status: ('A' for Active; 'I' for Inactive)
    1  A    between atoms: C_3  and  P_13
    2  A    between atoms: C_8  and  N_26
    3  A    between atoms: C_9  and  C_27
    4  A    between atoms: C_22  and  C_27
                            x       y       z     vdW  Elec       q    Type
                         _______ _______ _______ _____ _____    ______ ____

>  <TORSDO>
F 4

$$$$
=
 OpenBabel11042412013D

 28 31  0  0  1  0  0  0  0  0999 V2000
  183.4230  179.1020  143.5370 C   0  0  0  0  0  3  0  0  0  0  0  0
  184.8280  178.6290  145.5530 C   0  0  0  0  0  0  0  0  0  0  0  0
  186.0000  178.3670  144.7040 C   0  0  0  0  0  3  0  0  0  0  0  0
  188.3900  177.8340  142.8560 C   0  0  0  0  0  0  0  0  0  0  0  0
  189.1660  177.6930  141.6340 C   0  0  0  0  0  0  0  0  0  0  0  0
  183.6490  178.9650  145.0200 C   0  0  0  0  0  3  0  0  0  0  0  0
  188.2840  177.9850  140.4470 C   0  0  0  0  0  2  0  0  0  0  0  0
  188.8230  177.6610  144.0260 O   0  0  0  0  0  0  0  0  0  0  0  0
  186.9780  178.2930  141.1270 C   0  0  0  0  0  0  0  0  0  0  0  0
  185.7730  178.7160  139.1380 O   0  0  0  0  0  1  0  0  0  0  0  0
  187.0580  178.2000  142.5400 N   0  0  0  0  0  0  0  0  0  0  0  0
  185.8310  178.6260  140.5260 C   0  0  0  0  0  0  0  0  0  0  0  0
  184.6540  178.8230  142.7040 C   0  0  0  0  0  0  0  0  0  0  0  0
  185.9260  178.4560  143.3750 C   0  0  1  0  0  3  0  0  0  0  0  0
  184.6160  178.9030  141.3500 C   0  0  0  0  0  0  0  0  0  0  0  0
  190.4250  177.3630  141.6150 N   0  0  0  0  0  0  0  0  0  0  0  0
  184.9530  178.5230  146.9650 N   0  0  0  0  0  1  0  0  0  0  0  0
  191.2720  177.1990  140.4660 C   0  0  0  0  0  0  0  0  0  0  0  0
  192.4100  177.7340  140.4710 O   0  0  0  0  0  0  0  0  0  0  0  0
  190.8600  176.4200  139.2630 C   0  0  0  0  0  1  0  0  0  0  0  0
  183.3440  179.2510  140.6380 C   0  0  0  0  0  2  0  0  0  0  0  0
  181.1420  178.1010  139.9680 C   0  0  2  0  0  3  0  0  0  0  0  0
  182.6150  177.9800  140.2070 C   0  0  1  0  0  3  0  0  0  0  0  0
  182.0790  178.1560  138.9180 O   0  0  0  0  0  0  0  0  0  0  0  0
  178.9310  179.6910  139.8120 O   0  0  0  0  0  1  0  0  0  0  0  0
  181.1720  180.9050  139.2410 O   0  0  0  0  0  0  0  0  0  0  0  0
  180.3890  179.7540  140.2040 P   0  0  0  0  0  0  0  0  0  0  0  0
  180.5090  180.2060  141.8300 O   0  0  0  0  0  1  0  0  0  0  0  0
  1  6  2  0  0  0  0
  2 17  1  0  0  0  0
  3  2  2  0  0  0  0
  4  8  2  0  0  0  0
  5  4  1  0  0  0  0
  6  2  1  0  0  0  0
  7  9  1  0  0  0  0
  7  5  1  0  0  0  0
  9 11  1  0  0  0  0
 10 12  1  0  0  0  0
 11  4  1  0  0  0  0
 11 14  1  0  0  0  0
 12  9  2  0  0  0  0
 12 15  1  0  0  0  0
 13 14  1  0  0  0  0
 13  1  1  0  0  0  0
 14  3  1  6  0  0  0
 15 13  2  0  0  0  0
 16  5  2  0  0  0  0
 18 19  2  0  0  0  0
 18 16  1  0  0  0  0
 20 18  1  0  0  0  0
 21 15  1  0  0  0  0
 22 27  1  1  0  0  0
 22 23  1  0  0  0  0
 23 21  1  1  0  0  0
 24 22  1  0  0  0  0
 24 23  1  0  0  0  0
 25 27  1  0  0  0  0
 26 27  2  0  0  0  0
 27 28  1  0  0  0  0
M  END
>  <MODEL>
5

>  <REMARK>
 VINA RESULT:      -8.0      3.446      5.579
  Name = 
  4 active torsions:
  status: ('A' for Active; 'I' for Inactive)
    1  A    between atoms: C_3  and  P_13
    2  A    between atoms: C_8  and  N_26
    3  A    between atoms: C_9  and  C_27
    4  A    between atoms: C_22  and  C_27
                            x       y       z     vdW  Elec       q    Type
                         _______ _______ _______ _____ _____    ______ ____

>  <TORSDO>
F 4

$$$$
=
 OpenBabel11042412013D

 28 31  0  0  1  0  0  0  0  0999 V2000
  186.3710  178.3500  141.2750 C   0  0  0  0  0  2  0  0  0  0  0  0
  188.6030  178.2260  140.1510 C   0  0  0  0  0  0  0  0  0  0  0  0
  189.2590  177.9270  141.4330 C   0  0  0  0  0  3  0  0  0  0  0  0
  190.5420  177.3140  144.1510 C   0  0  0  0  0  0  0  0  0  0  0  0
  190.6630  177.0680  145.5790 C   0  0  0  0  0  0  0  0  0  0  0  0
  187.2830  178.4190  140.0780 C   0  0  0  0  0  3  0  0  0  0  0  0
  189.3000  177.1520  146.2160 C   0  0  0  0  0  2  0  0  0  0  0  0
  191.4910  177.3170  143.3230 O   0  0  0  0  0  0  0  0  0  0  0  0
  188.4410  177.4620  145.0210 C   0  0  0  0  0  0  0  0  0  0  0  0
  186.4010  177.5440  146.2120 O   0  0  0  0  0  1  0  0  0  0  0  0
  189.1860  177.5540  143.8180 N   0  0  0  0  0  0  0  0  0  0  0  0
  187.1160  177.6420  145.0220 C   0  0  0  0  0  0  0  0  0  0  0  0
  187.0880  178.0410  142.5700 C   0  0  0  0  0  0  0  0  0  0  0  0
  188.5590  177.8400  142.5650 C   0  0  0  0  0  0  0  0  0  0  0  0
  186.4090  177.9440  143.7410 C   0  0  0  0  0  0  0  0  0  0  0  0
  191.7940  176.8180  146.1740 N   0  0  0  0  0  0  0  0  0  0  0  0
  189.3890  178.3100  138.9690 N   0  0  0  0  0  1  0  0  0  0  0  0
  192.0130  176.5640  147.5700 C   0  0  0  0  0  0  0  0  0  0  0  0
  191.8460  177.5020  148.3910 O   0  0  0  0  0  0  0  0  0  0  0  0
  192.4310  175.2310  148.0940 C   0  0  0  0  0  1  0  0  0  0  0  0
  184.9260  178.1620  143.7870 C   0  0  0  0  0  2  0  0  0  0  0  0
  183.2320  180.0180  144.3430 C   0  0  2  0  0  3  0  0  0  0  0  0
  184.6040  179.4510  144.5400 C   0  0  1  0  0  3  0  0  0  0  0  0
  183.5600  179.2170  145.4550 O   0  0  0  0  0  0  0  0  0  0  0  0
  181.5810  177.8790  143.9700 O   0  0  0  0  0  1  0  0  0  0  0  0
  182.9080  178.5970  141.8390 O   0  0  0  0  0  0  0  0  0  0  0  0
  182.0980  179.0960  143.2380 P   0  0  0  0  0  0  0  0  0  0  0  0
  180.7930  180.0840  142.8120 O   0  0  0  0  0  1  0  0  0  0  0  0
  1 13  1  0  0  0  0
  2  3  1  0  0  0  0
  3 14  2  0  0  0  0
  4  5  1  0  0  0  0
  5 16  2  0  0  0  0
  5  7  1  0  0  0  0
  6  2  2  0  0  0  0
  6  1  1  0  0  0  0
  8  4  2  0  0  0  0
  9 12  2  0  0  0  0
  9  7  1  0  0  0  0
 11  4  1  0  0  0  0
 11  9  1  0  0  0  0
 12 10  1  0  0  0  0
 13 15  2  0  0  0  0
 14 13  1  0  0  0  0
 14 11  1  0  0  0  0
 15 21  1  0  0  0  0
 15 12  1  0  0  0  0
 16 18  1  0  0  0  0
 17  2  1  0  0  0  0
 18 20  1  0  0  0  0
 18 19  2  0  0  0  0
 22 27  1  6  0  0  0
 22 23  1  0  0  0  0
 22 24  1  0  0  0  0
 23 21  1  6  0  0  0
 23 24  1  0  0  0  0
 26 27  2  0  0  0  0
 27 25  1  0  0  0  0
 28 27  1  0  0  0  0
M  END
>  <MODEL>
6

>  <REMARK>
 VINA RESULT:      -8.0      3.257      5.254
  Name = 
  4 active torsions:
  status: ('A' for Active; 'I' for Inactive)
    1  A    between atoms: C_3  and  P_13
    2  A    between atoms: C_8  and  N_26
    3  A    between atoms: C_9  and  C_27
    4  A    between atoms: C_22  and  C_27
                            x       y       z     vdW  Elec       q    Type
                         _______ _______ _______ _____ _____    ______ ____

>  <TORSDO>
F 4

$$$$
=
 OpenBabel11042412013D

 28 31  0  0  1  0  0  0  0  0999 V2000
  188.6410  177.5140  144.2740 C   0  0  0  0  0  2  0  0  0  0  0  0
  187.6440  177.8600  146.5430 C   0  0  0  0  0  0  0  0  0  0  0  0
  186.3410  178.1890  145.9460 C   0  0  0  0  0  3  0  0  0  0  0  0
  183.6610  178.8670  144.6150 C   0  0  0  0  0  0  0  0  0  0  0  0
  182.6750  179.0980  143.5720 C   0  0  0  0  0  0  0  0  0  0  0  0
  188.6960  177.5510  145.7790 C   0  0  0  0  0  3  0  0  0  0  0  0
  183.3150  178.8800  142.2250 C   0  0  0  0  0  2  0  0  0  0  0  0
  183.4560  178.9640  145.8540 O   0  0  0  0  0  0  0  0  0  0  0  0
  184.7180  178.5150  142.6270 C   0  0  0  0  0  0  0  0  0  0  0  0
  185.5240  178.2180  140.4250 O   0  0  0  0  0  1  0  0  0  0  0  0
  184.9030  178.5120  144.0330 N   0  0  0  0  0  0  0  0  0  0  0  0
  185.7260  178.2140  141.8030 C   0  0  0  0  0  0  0  0  0  0  0  0
  187.2830  177.8590  143.7050 C   0  0  0  0  0  0  0  0  0  0  0  0
  186.1650  178.1910  144.6240 C   0  0  0  0  0  0  0  0  0  0  0  0
  187.0660  177.8710  142.3650 C   0  0  0  0  0  0  0  0  0  0  0  0
  181.4410  179.4390  143.8090 N   0  0  0  0  0  0  0  0  0  0  0  0
  187.7860  177.8710  147.9580 N   0  0  0  0  0  1  0  0  0  0  0  0
  180.4000  179.6880  142.8520 C   0  0  0  0  0  0  0  0  0  0  0  0
  180.0500  180.8760  142.6320 O   0  0  0  0  0  0  0  0  0  0  0  0
  179.7120  178.5970  142.1020 C   0  0  0  0  0  1  0  0  0  0  0  0
  188.1770  177.5620  141.4070 C   0  0  0  0  0  2  0  0  0  0  0  0
  189.4320  178.6270  139.4300 C   0  0  2  0  0  3  0  0  0  0  0  0
  188.5920  178.8230  140.6540 C   0  0  1  0  0  3  0  0  0  0  0  0
  188.0370  178.8060  139.3610 O   0  0  0  0  0  0  0  0  0  0  0  0
  190.9200  176.9270  137.9030 O   0  0  0  0  0  0  0  0  0  0  0  0
  188.4880  176.1010  138.3730 O   0  0  0  0  0  1  0  0  0  0  0  0
  189.8520  176.9040  138.9710 P   0  0  0  0  0  0  0  0  0  0  0  0
  190.4400  176.0830  140.3280 O   0  0  0  0  0  1  0  0  0  0  0  0
  1  6  1  0  0  0  0
  2 17  1  0  0  0  0
  3  2  1  0  0  0  0
  4  8  2  0  0  0  0
  5 16  2  0  0  0  0
  5  4  1  0  0  0  0
  6  2  2  0  0  0  0
  7  9  1  0  0  0  0
  7  5  1  0  0  0  0
  9 11  1  0  0  0  0
 10 12  1  0  0  0  0
 11  4  1  0  0  0  0
 11 14  1  0  0  0  0
 12 15  1  0  0  0  0
 12  9  2  0  0  0  0
 13  1  1  0  0  0  0
 13 14  1  0  0  0  0
 14  3  2  0  0  0  0
 15 13  2  0  0  0  0
 18 16  1  0  0  0  0
 19 18  2  0  0  0  0
 20 18  1  0  0  0  0
 21 15  1  0  0  0  0
 22 27  1  1  0  0  0
 22 23  1  0  0  0  0
 23 21  1  1  0  0  0
 24 22  1  0  0  0  0
 24 23  1  0  0  0  0
 25 27  2  0  0  0  0
 26 27  1  0  0  0  0
 27 28  1  0  0  0  0
M  END
>  <MODEL>
7

>  <REMARK>
 VINA RESULT:      -8.0      2.656      6.209
  Name = 
  4 active torsions:
  status: ('A' for Active; 'I' for Inactive)
    1  A    between atoms: C_3  and  P_13
    2  A    between atoms: C_8  and  N_26
    3  A    between atoms: C_9  and  C_27
    4  A    between atoms: C_22  and  C_27
                            x       y       z     vdW  Elec       q    Type
                         _______ _______ _______ _____ _____    ______ ____

>  <TORSDO>
F 4

$$$$
=
 OpenBabel11042412013D

 28 31  0  0  1  0  0  0  0  0999 V2000
  186.3960  178.3070  143.2700 C   0  0  0  0  0  3  0  0  0  0  0  0
  185.4950  179.0030  141.0420 C   0  0  0  0  0  0  0  0  0  0  0  0
  186.7170  178.5310  140.3730 C   0  0  0  0  0  3  0  0  0  0  0  0
  189.3020  177.5240  139.0640 C   0  0  0  0  0  0  0  0  0  0  0  0
  190.6260  176.9390  138.9310 C   0  0  0  0  0  0  0  0  0  0  0  0
  185.3470  178.9010  142.3660 C   0  0  0  0  0  3  0  0  0  0  0  0
  191.1310  176.5360  140.2930 C   0  0  0  0  0  2  0  0  0  0  0  0
  188.5950  177.9650  138.1200 O   0  0  0  0  0  0  0  0  0  0  0  0
  189.9760  176.9480  141.1630 C   0  0  0  0  0  0  0  0  0  0  0  0
  190.9510  176.2400  143.1970 O   0  0  0  0  0  1  0  0  0  0  0  0
  188.9120  177.5270  140.4260 N   0  0  0  0  0  0  0  0  0  0  0  0
  189.8970  176.8140  142.4910 C   0  0  0  0  0  0  0  0  0  0  0  0
  187.6340  177.8360  142.5400 C   0  0  0  0  0  0  0  0  0  0  0  0
  187.7180  177.9860  141.0650 C   0  0  1  0  0  3  0  0  0  0  0  0
  188.6730  177.2770  143.2110 C   0  0  0  0  0  0  0  0  0  0  0  0
  191.2440  176.8050  137.7930 N   0  0  0  0  0  0  0  0  0  0  0  0
  184.4520  179.5780  140.2640 N   0  0  0  0  0  1  0  0  0  0  0  0
  192.5450  176.2440  137.5620 C   0  0  0  0  0  0  0  0  0  0  0  0
  193.5600  176.9090  137.8920 O   0  0  0  0  0  0  0  0  0  0  0  0
  192.7490  174.9010  136.9450 C   0  0  0  0  0  1  0  0  0  0  0  0
  188.6310  177.1290  144.7020 C   0  0  0  0  0  2  0  0  0  0  0  0
  189.6160  178.2240  146.8120 C   0  0  2  0  0  3  0  0  0  0  0  0
  189.7470  177.9480  145.3460 C   0  0  1  0  0  3  0  0  0  0  0  0
  190.4060  177.1690  146.3150 O   0  0  0  0  0  0  0  0  0  0  0  0
  188.2920  176.0400  147.7670 O   0  0  0  0  0  1  0  0  0  0  0  0
  186.7370  177.9000  146.7960 O   0  0  0  0  0  0  0  0  0  0  0  0
  188.1460  177.5400  147.6630 P   0  0  0  0  0  0  0  0  0  0  0  0
  188.0330  178.1960  149.2180 O   0  0  0  0  0  1  0  0  0  0  0  0
  2  6  1  0  0  0  0
  3  2  2  0  0  0  0
  4 11  1  0  0  0  0
  5  4  1  0  0  0  0
  5  7  1  0  0  0  0
  6  1  2  0  0  0  0
  7  9  1  0  0  0  0
  8  4  2  0  0  0  0
  9 12  2  0  0  0  0
 11 14  1  0  0  0  0
 11  9  1  0  0  0  0
 12 10  1  0  0  0  0
 12 15  1  0  0  0  0
 13 15  2  0  0  0  0
 13  1  1  0  0  0  0
 14  3  1  1  0  0  0
 14 13  1  0  0  0  0
 15 21  1  0  0  0  0
 16  5  2  0  0  0  0
 17  2  1  0  0  0  0
 18 16  1  0  0  0  0
 18 19  2  0  0  0  0
 20 18  1  0  0  0  0
 22 27  1  1  0  0  0
 23 21  1  1  0  0  0
 23 24  1  0  0  0  0
 23 22  1  0  0  0  0
 24 22  1  0  0  0  0
 26 27  2  0  0  0  0
 27 25  1  0  0  0  0
 27 28  1  0  0  0  0
M  END
>  <MODEL>
8

>  <REMARK>
 VINA RESULT:      -7.6      3.267      6.992
  Name = 
  4 active torsions:
  status: ('A' for Active; 'I' for Inactive)
    1  A    between atoms: C_3  and  P_13
    2  A    between atoms: C_8  and  N_26
    3  A    between atoms: C_9  and  C_27
    4  A    between atoms: C_22  and  C_27
                            x       y       z     vdW  Elec       q    Type
                         _______ _______ _______ _____ _____    ______ ____

>  <TORSDO>
F 4

$$$$
=
 OpenBabel11042412013D

 28 31  0  0  1  0  0  0  0  0999 V2000
  189.2010  177.8950  144.4680 C   0  0  0  0  0  2  0  0  0  0  0  0
  188.1020  177.7350  146.7100 C   0  0  0  0  0  0  0  0  0  0  0  0
  186.7850  177.9980  146.1100 C   0  0  0  0  0  3  0  0  0  0  0  0
  184.0820  178.5570  144.7730 C   0  0  0  0  0  0  0  0  0  0  0  0
  183.1060  178.8370  143.7320 C   0  0  0  0  0  0  0  0  0  0  0  0
  189.2070  177.6880  145.9600 C   0  0  0  0  0  3  0  0  0  0  0  0
  183.8080  178.9250  142.4010 C   0  0  0  0  0  2  0  0  0  0  0  0
  183.8300  178.4210  145.9990 O   0  0  0  0  0  0  0  0  0  0  0  0
  185.2330  178.6710  142.8100 C   0  0  0  0  0  0  0  0  0  0  0  0
  186.1350  178.8450  140.6320 O   0  0  0  0  0  1  0  0  0  0  0  0
  185.3750  178.4580  144.2040 N   0  0  0  0  0  0  0  0  0  0  0  0
  186.2950  178.6370  141.9990 C   0  0  0  0  0  0  0  0  0  0  0  0
  187.8280  178.1620  143.8950 C   0  0  0  0  0  0  0  0  0  0  0  0
  186.6500  178.1980  144.7980 C   0  0  0  0  0  0  0  0  0  0  0  0
  187.6510  178.3700  142.5660 C   0  0  0  0  0  0  0  0  0  0  0  0
  181.8320  178.9820  143.9590 N   0  0  0  0  0  0  0  0  0  0  0  0
  188.2000  177.5280  148.1130 N   0  0  0  0  0  1  0  0  0  0  0  0
  180.7960  179.2580  143.0030 C   0  0  0  0  0  0  0  0  0  0  0  0
  180.4060  180.4450  142.8580 O   0  0  0  0  0  0  0  0  0  0  0  0
  180.1600  178.1970  142.1700 C   0  0  0  0  0  1  0  0  0  0  0  0
  188.8210  178.3620  141.6270 C   0  0  0  0  0  2  0  0  0  0  0  0
  189.7810  176.3910  140.2800 C   0  0  2  0  0  3  0  0  0  0  0  0
  189.4850  176.9870  141.6210 C   0  0  1  0  0  3  0  0  0  0  0  0
  190.7570  177.0790  141.0270 O   0  0  0  0  0  0  0  0  0  0  0  0
  188.0610  176.8170  138.2070 O   0  0  0  0  0  1  0  0  0  0  0  0
  190.5620  177.3230  137.6510 O   0  0  0  0  0  0  0  0  0  0  0  0
  189.3270  177.3810  138.8070 P   0  0  0  0  0  0  0  0  0  0  0  0
  189.0580  178.9870  139.2640 O   0  0  0  0  0  1  0  0  0  0  0  0
  1  6  1  0  0  0  0
  2 17  1  0  0  0  0
  3  2  1  0  0  0  0
  4  8  2  0  0  0  0
  5 16  2  0  0  0  0
  5  4  1  0  0  0  0
  6  2  2  0  0  0  0
  7  9  1  0  0  0  0
  7  5  1  0  0  0  0
  9 11  1  0  0  0  0
 10 12  1  0  0  0  0
 11  4  1  0  0  0  0
 11 14  1  0  0  0  0
 12 15  1  0  0  0  0
 12  9  2  0  0  0  0
 13  1  1  0  0  0  0
 13 14  1  0  0  0  0
 14  3  2  0  0  0  0
 15 13  2  0  0  0  0
 18 16  1  0  0  0  0
 19 18  2  0  0  0  0
 20 18  1  0  0  0  0
 21 15  1  0  0  0  0
 22 27  1  6  0  0  0
 22 24  1  0  0  0  0
 22 23  1  0  0  0  0
 23 21  1  6  0  0  0
 24 23  1  0  0  0  0
 25 27  1  0  0  0  0
 26 27  2  0  0  0  0
 27 28  1  0  0  0  0
M  END
>  <MODEL>
9

>  <REMARK>
 VINA RESULT:      -7.6      2.429      5.893
  Name = 
  4 active torsions:
  status: ('A' for Active; 'I' for Inactive)
    1  A    between atoms: C_3  and  P_13
    2  A    between atoms: C_8  and  N_26
    3  A    between atoms: C_9  and  C_27
    4  A    between atoms: C_22  and  C_27
                            x       y       z     vdW  Elec       q    Type
                         _______ _______ _______ _____ _____    ______ ____

>  <TORSDO>
F 4

$$$$
