=
 OpenBabel11032420343D

 53 56  0  0  1  0  0  0  0  0999 V2000
  185.1210  178.2990  138.7530 C   0  0  1  0  0  3  0  0  0  0  0  0
  184.2130  179.8160  138.9900 Cl  0  0  0  0  0  0  0  0  0  0  0  0
  185.3020  176.3070  135.6040 F   0  0  0  0  0  0  0  0  0  0  0  0
  185.6470  176.9420  136.7550 C   0  0  0  0  0  0  0  0  0  0  0  0
  187.2170  177.4330  138.6330 C   0  0  2  0  0  3  0  0  0  0  0  0
  184.7140  177.5960  137.4620 C   0  0  0  0  0  0  0  0  0  0  0  0
  187.0850  176.9020  137.1990 C   0  0  1  0  0  3  0  0  0  0  0  0
  186.4900  178.6300  138.7430 O   0  0  0  0  0  0  0  0  0  0  0  0
  187.5500  175.5880  137.1340 O   0  0  0  0  0  1  0  0  0  0  0  0
  183.3410  177.4560  137.0700 N   0  0  0  0  0  0  0  0  0  0  0  0
  182.4540  176.9890  137.8500 N   0  0  0  0  0  0  0  0  0  0  0  0
  181.0740  176.8600  137.4060 C   0  0  1  0  0  3  0  0  0  0  0  0
  180.3080  174.4900  137.2520 O   0  0  0  0  0  1  0  0  0  0  0  0
  180.8700  175.5960  136.6270 C   0  0  0  0  0  0  0  0  0  0  0  0
  181.2340  175.5160  135.4230 O   0  0  0  0  0  0  0  0  0  0  0  0
  180.1160  176.9430  138.5910 C   0  0  0  0  0  2  0  0  0  0  0  0
  180.0610  178.2930  139.1280 N   0  0  0  0  0  2  0  0  0  0  0  0
  180.1920  178.1840  140.5720 C   0  0  1  0  0  3  0  0  0  0  0  0
  180.4840  176.8790  140.9250 F   0  0  0  0  0  0  0  0  0  0  0  0
  181.2850  179.1160  141.0680 C   0  0  0  0  0  2  0  0  0  0  0  0
  182.4150  178.3790  141.4640 O   0  0  0  0  0  0  0  0  0  0  0  0
  182.6830  178.6400  142.8270 C   0  0  2  0  0  3  0  0  0  0  0  0
  182.0840  179.8270  143.2710 O   0  0  0  0  0  1  0  0  0  0  0  0
  184.8210  177.6270  142.4180 F   0  0  0  0  0  0  0  0  0  0  0  0
  184.3210  178.2700  144.5230 F   0  0  0  0  0  0  0  0  0  0  0  0
  184.1720  178.5800  143.1830 C   0  0  0  0  0  0  0  0  0  0  0  0
  184.7460  179.8150  142.9420 F   0  0  0  0  0  0  0  0  0  0  0  0
  188.6890  177.6930  138.9880 C   0  0  1  0  0  3  0  0  0  0  0  0
  189.3390  178.4290  137.9850 O   0  0  0  0  0  0  0  0  0  0  0  0
  190.1060  177.5210  137.3370 N   0  0  0  0  0  2  0  0  0  0  0  0
  190.6550  176.6880  138.3190 N   0  0  0  0  0  2  0  0  0  0  0  0
  193.0590  177.6730  139.4970 C   0  0  0  0  0  1  0  0  0  0  0  0
  193.0460  176.4010  138.7180 C   0  0  0  0  0  0  0  0  0  0  0  0
  194.2150  175.7300  138.5490 N   0  0  0  0  0  0  0  0  0  0  0  0
  191.8550  175.9120  138.1490 C   0  0  0  0  0  0  0  0  0  0  0  0
  193.1340  174.0410  137.2680 C   0  0  0  0  0  3  0  0  0  0  0  0
  194.2830  174.5750  137.8400 C   0  0  0  0  0  3  0  0  0  0  0  0
  191.8980  174.6880  137.4280 C   0  0  0  0  0  0  0  0  0  0  0  0
  191.1000  173.1270  135.6830 C   0  0  0  0  0  2  0  0  0  0  0  0
  190.6770  174.0860  136.7850 C   0  0  0  0  0  3  0  0  0  0  0  0
  190.5370  174.4800  135.3200 C   0  0  0  0  0  2  0  0  0  0  0  0
  188.8590  178.2930  140.2550 O   0  0  0  0  0  0  0  0  0  0  0  0
  188.9570  177.2790  141.2250 C   0  0  0  0  0  2  0  0  0  0  0  0
  187.8720  177.4520  142.2770 C   0  0  0  0  0  2  0  0  0  0  0  0
  188.1230  177.6490  146.0490 C   0  0  0  0  0  0  0  0  0  0  0  0
  188.4650  177.6700  143.6300 C   0  0  0  0  0  0  0  0  0  0  0  0
  189.7910  177.7800  143.7610 C   0  0  0  0  0  3  0  0  0  0  0  0
  187.5950  177.7150  144.8230 C   0  0  0  0  0  3  0  0  0  0  0  0
  189.5990  177.4100  146.2330 C   0  0  0  0  0  2  0  0  0  0  0  0
  187.2360  177.7100  147.2390 C   0  0  0  0  0  1  0  0  0  0  0  0
  190.4050  178.0680  145.1060 C   0  0  1  0  0  3  0  0  0  0  0  0
  191.6810  176.4340  145.8810 C   0  0  0  0  0  1  0  0  0  0  0  0
  191.7250  177.6150  145.1370 O   0  0  0  0  0  0  0  0  0  0  0  0
  1  2  1  6  0  0  0
  3  4  1  0  0  0  0
  4  7  1  0  0  0  0
  4  6  2  0  0  0  0
  5  8  1  0  0  0  0
  5 28  1  6  0  0  0
  6  1  1  0  0  0  0
  7  9  1  1  0  0  0
  7  5  1  0  0  0  0
  8  1  1  0  0  0  0
 10  6  1  0  0  0  0
 10 11  2  0  0  0  0
 12 11  1  0  0  0  0
 12 16  1  1  0  0  0
 14 13  1  0  0  0  0
 14 12  1  0  0  0  0
 15 14  2  0  0  0  0
 16 17  1  0  0  0  0
 17 18  1  0  0  0  0
 18 19  1  6  0  0  0
 18 20  1  0  0  0  0
 20 21  1  0  0  0  0
 21 22  1  0  0  0  0
 22 26  1  0  0  0  0
 22 23  1  6  0  0  0
 24 26  1  0  0  0  0
 26 25  1  0  0  0  0
 27 26  1  0  0  0  0
 28 29  1  6  0  0  0
 28 42  1  0  0  0  0
 30 29  1  0  0  0  0
 30 31  1  0  0  0  0
 33 32  1  0  0  0  0
 34 33  1  0  0  0  0
 35 31  1  0  0  0  0
 35 33  2  0  0  0  0
 36 38  2  0  0  0  0
 36 37  1  0  0  0  0
 37 34  2  0  0  0  0
 38 35  1  0  0  0  0
 39 40  1  0  0  0  0
 40 38  1  0  0  0  0
 41 39  1  0  0  0  0
 41 40  1  0  0  0  0
 42 43  1  0  0  0  0
 43 44  1  0  0  0  0
 44 46  1  0  0  0  0
 45 49  1  0  0  0  0
 45 50  1  0  0  0  0
 46 47  2  0  0  0  0
 46 48  1  0  0  0  0
 47 51  1  0  0  0  0
 48 45  2  0  0  0  0
 51 53  1  6  0  0  0
 51 49  1  0  0  0  0
 53 52  1  0  0  0  0
M  END
>  <MODEL>
1

>  <REMARK>
 VINA RESULT:      -7.0      0.000      0.000
  Name = 
  21 active torsions:
  status: ('A' for Active; 'I' for Inactive)
    1  A    between atoms: N_6  and  C_13
    2  A    between atoms: N_6  and  C_44
    3  A    between atoms: C_11  and  C_13
    4  A    between atoms: C_11  and  N_27
    5  A    between atoms: C_11  and  C_42
    6  A    between atoms: C_12  and  C_41
    7  A    between atoms: C_14  and  C_26
    8  A    between atoms: C_14  and  O_40
    9  A    between atoms: O_20  and  C_32
   10  A    between atoms: O_20  and  N_34
   11  A    between atoms: C_21  and  C_32
   12  A    between atoms: N_22  and  C_25
   13  A    between atoms: N_28  and  N_34
   14  A    between atoms: N_28  and  C_38
   15  A    between atoms: C_32  and  O_45
   16  A    between atoms: C_36  and  C_41
   17  A    between atoms: C_36  and  O_45
   18  A    between atoms: C_37  and  O_43
   19  A    between atoms: O_40  and  C_48
   20  A    between atoms: C_44  and  C_48
   21  A    between atoms: C_49  and  C_52
                            x       y       z     vdW  Elec       q    Type
                         _______ _______ _______ _____ _____    ______ ____

>  <TORSDO>
F 21

$$$$
=
 OpenBabel11032420343D

 53 56  0  0  1  0  0  0  0  0999 V2000
  184.6590  178.4090  141.8830 C   0  0  1  0  0  3  0  0  0  0  0  0
  183.9620  179.2270  143.3070 Cl  0  0  0  0  0  0  0  0  0  0  0  0
  183.7590  179.0380  138.3180 F   0  0  0  0  0  0  0  0  0  0  0  0
  184.4730  178.8050  139.4500 C   0  0  0  0  0  0  0  0  0  0  0  0
  186.5620  178.1820  140.6660 C   0  0  2  0  0  3  0  0  0  0  0  0
  183.8390  178.6740  140.6250 C   0  0  0  0  0  0  0  0  0  0  0  0
  185.9730  178.7120  139.3520 C   0  0  1  0  0  3  0  0  0  0  0  0
  185.9800  178.8770  141.7390 O   0  0  0  0  0  0  0  0  0  0  0  0
  186.3130  177.8600  138.3010 O   0  0  0  0  0  1  0  0  0  0  0  0
  182.4060  178.6110  140.6210 N   0  0  0  0  0  0  0  0  0  0  0  0
  181.7720  177.5130  140.6930 N   0  0  0  0  0  0  0  0  0  0  0  0
  180.3160  177.4970  140.6790 C   0  0  1  0  0  3  0  0  0  0  0  0
  179.4060  179.8140  140.8470 O   0  0  0  0  0  1  0  0  0  0  0  0
  179.7660  178.7390  140.0460 C   0  0  0  0  0  0  0  0  0  0  0  0
  179.5950  178.8040  138.7980 O   0  0  0  0  0  0  0  0  0  0  0  0
  179.7970  176.2420  139.9850 C   0  0  0  0  0  2  0  0  0  0  0  0
  180.8790  175.5070  139.3490 N   0  0  0  0  0  2  0  0  0  0  0  0
  180.3700  175.0080  138.0820 C   0  0  1  0  0  3  0  0  0  0  0  0
  179.4370  175.8890  137.5650 F   0  0  0  0  0  0  0  0  0  0  0  0
  181.5120  174.8200  137.0980 C   0  0  0  0  0  2  0  0  0  0  0  0
  182.6470  174.3140  137.7550 O   0  0  0  0  0  0  0  0  0  0  0  0
  183.5840  173.8770  136.7910 C   0  0  2  0  0  3  0  0  0  0  0  0
  183.0210  173.7650  135.5130 O   0  0  0  0  0  1  0  0  0  0  0  0
  185.1020  172.8330  138.3310 F   0  0  0  0  0  0  0  0  0  0  0  0
  185.1650  172.2020  136.1650 F   0  0  0  0  0  0  0  0  0  0  0  0
  184.3390  172.6080  137.1990 C   0  0  0  0  0  0  0  0  0  0  0  0
  183.4280  171.6030  137.4660 F   0  0  0  0  0  0  0  0  0  0  0  0
  188.0870  178.3740  140.7000 C   0  0  1  0  0  3  0  0  0  0  0  0
  188.7470  177.1950  141.0780 O   0  0  0  0  0  0  0  0  0  0  0  0
  188.3640  176.9840  142.3590 N   0  0  0  0  0  2  0  0  0  0  0  0
  189.1380  177.8390  143.1530 N   0  0  0  0  0  2  0  0  0  0  0  0
  191.7550  176.7570  143.4960 C   0  0  0  0  0  1  0  0  0  0  0  0
  190.8570  176.9910  144.6640 C   0  0  0  0  0  0  0  0  0  0  0  0
  191.2970  176.6460  145.9020 N   0  0  0  0  0  0  0  0  0  0  0  0
  189.5710  177.5370  144.4920 C   0  0  0  0  0  0  0  0  0  0  0  0
  189.2570  177.3610  146.8960 C   0  0  0  0  0  3  0  0  0  0  0  0
  190.5300  176.8150  147.0090 C   0  0  0  0  0  3  0  0  0  0  0  0
  188.7630  177.7500  145.6410 C   0  0  0  0  0  0  0  0  0  0  0  0
  186.5780  177.9270  146.7870 C   0  0  0  0  0  2  0  0  0  0  0  0
  187.3750  178.3290  145.5560 C   0  0  0  0  0  3  0  0  0  0  0  0
  186.3000  177.2530  145.4650 C   0  0  0  0  0  2  0  0  0  0  0  0
  188.6100  178.8890  139.4940 O   0  0  0  0  0  0  0  0  0  0  0  0
  189.7480  178.1420  139.1400 C   0  0  0  0  0  2  0  0  0  0  0  0
  189.6400  177.6740  137.6970 C   0  0  0  0  0  2  0  0  0  0  0  0
  189.4250  173.9660  136.9630 C   0  0  0  0  0  0  0  0  0  0  0  0
  190.0620  176.2480  137.5600 C   0  0  0  0  0  0  0  0  0  0  0  0
  191.3620  175.9380  137.5940 C   0  0  0  0  0  3  0  0  0  0  0  0
  189.0520  175.1920  137.3410 C   0  0  0  0  0  3  0  0  0  0  0  0
  190.8670  173.6720  136.6400 C   0  0  0  0  0  2  0  0  0  0  0  0
  188.3980  172.9120  136.7600 C   0  0  0  0  0  1  0  0  0  0  0  0
  191.8060  174.4990  137.5270 C   0  0  1  0  0  3  0  0  0  0  0  0
  193.8210  175.3880  137.7560 C   0  0  0  0  0  1  0  0  0  0  0  0
  193.1110  174.4230  137.0390 O   0  0  0  0  0  0  0  0  0  0  0  0
  1  2  1  1  0  0  0
  3  4  1  0  0  0  0
  4  6  2  0  0  0  0
  5 28  1  6  0  0  0
  5  8  1  0  0  0  0
  6  1  1  0  0  0  0
  7  9  1  6  0  0  0
  7  4  1  0  0  0  0
  7  5  1  0  0  0  0
  8  1  1  0  0  0  0
 10  6  1  0  0  0  0
 10 11  2  0  0  0  0
 12 16  1  6  0  0  0
 12 11  1  0  0  0  0
 14 12  1  0  0  0  0
 14 13  1  0  0  0  0
 15 14  2  0  0  0  0
 17 16  1  0  0  0  0
 18 19  1  6  0  0  0
 18 17  1  0  0  0  0
 20 21  1  0  0  0  0
 20 18  1  0  0  0  0
 22 23  1  6  0  0  0
 22 26  1  0  0  0  0
 22 21  1  0  0  0  0
 25 26  1  0  0  0  0
 26 27  1  0  0  0  0
 26 24  1  0  0  0  0
 28 42  1  6  0  0  0
 28 29  1  0  0  0  0
 29 30  1  0  0  0  0
 30 31  1  0  0  0  0
 31 35  1  0  0  0  0
 32 33  1  0  0  0  0
 33 34  1  0  0  0  0
 34 37  2  0  0  0  0
 35 33  2  0  0  0  0
 35 38  1  0  0  0  0
 36 37  1  0  0  0  0
 38 36  2  0  0  0  0
 40 38  1  0  0  0  0
 40 39  1  0  0  0  0
 41 40  1  0  0  0  0
 41 39  1  0  0  0  0
 43 42  1  0  0  0  0
 44 43  1  0  0  0  0
 45 48  2  0  0  0  0
 46 47  2  0  0  0  0
 46 44  1  0  0  0  0
 48 46  1  0  0  0  0
 49 45  1  0  0  0  0
 49 51  1  0  0  0  0
 50 45  1  0  0  0  0
 51 53  1  6  0  0  0
 51 47  1  0  0  0  0
 53 52  1  0  0  0  0
M  END
>  <MODEL>
2

>  <REMARK>
 VINA RESULT:      -7.0      2.805      6.869
  Name = 
  21 active torsions:
  status: ('A' for Active; 'I' for Inactive)
    1  A    between atoms: N_6  and  C_13
    2  A    between atoms: N_6  and  C_44
    3  A    between atoms: C_11  and  C_13
    4  A    between atoms: C_11  and  N_27
    5  A    between atoms: C_11  and  C_42
    6  A    between atoms: C_12  and  C_41
    7  A    between atoms: C_14  and  C_26
    8  A    between atoms: C_14  and  O_40
    9  A    between atoms: O_20  and  C_32
   10  A    between atoms: O_20  and  N_34
   11  A    between atoms: C_21  and  C_32
   12  A    between atoms: N_22  and  C_25
   13  A    between atoms: N_28  and  N_34
   14  A    between atoms: N_28  and  C_38
   15  A    between atoms: C_32  and  O_45
   16  A    between atoms: C_36  and  C_41
   17  A    between atoms: C_36  and  O_45
   18  A    between atoms: C_37  and  O_43
   19  A    between atoms: O_40  and  C_48
   20  A    between atoms: C_44  and  C_48
   21  A    between atoms: C_49  and  C_52
                            x       y       z     vdW  Elec       q    Type
                         _______ _______ _______ _____ _____    ______ ____

>  <TORSDO>
F 21

$$$$
=
 OpenBabel11032420343D

 53 56  0  0  1  0  0  0  0  0999 V2000
  184.7590  179.0280  140.0560 C   0  0  1  0  0  3  0  0  0  0  0  0
  183.8780  178.6860  138.5430 Cl  0  0  0  0  0  0  0  0  0  0  0  0
  183.6940  178.0570  143.4960 F   0  0  0  0  0  0  0  0  0  0  0  0
  184.4540  178.2820  142.3930 C   0  0  0  0  0  0  0  0  0  0  0  0
  186.6430  178.5230  141.2180 C   0  0  2  0  0  3  0  0  0  0  0  0
  183.8880  178.7800  141.2830 C   0  0  0  0  0  0  0  0  0  0  0  0
  185.9210  177.9520  142.4460 C   0  0  1  0  0  3  0  0  0  0  0  0
  185.9030  178.2060  140.0670 O   0  0  0  0  0  0  0  0  0  0  0  0
  186.4710  178.4860  143.6120 O   0  0  0  0  0  1  0  0  0  0  0  0
  182.5260  179.2230  141.3530 N   0  0  0  0  0  0  0  0  0  0  0  0
  181.5430  178.4240  141.2560 N   0  0  0  0  0  0  0  0  0  0  0  0
  180.1760  178.9200  141.3270 C   0  0  1  0  0  3  0  0  0  0  0  0
  179.9230  180.8420  142.8970 O   0  0  0  0  0  0  0  0  0  0  0  0
  179.8680  179.4710  142.6850 C   0  0  0  0  0  0  0  0  0  0  0  0
  179.5940  178.7010  143.6450 O   0  0  0  0  0  1  0  0  0  0  0  0
  179.9220  179.9550  140.2360 C   0  0  0  0  0  2  0  0  0  0  0  0
  179.2500  179.3600  139.0920 N   0  0  0  0  0  2  0  0  0  0  0  0
  180.1050  179.5760  137.9350 C   0  0  1  0  0  3  0  0  0  0  0  0
  181.2750  180.2040  138.3200 F   0  0  0  0  0  0  0  0  0  0  0  0
  180.4200  178.2490  137.2650 C   0  0  0  0  0  2  0  0  0  0  0  0
  180.6160  177.2470  138.2310 O   0  0  0  0  0  0  0  0  0  0  0  0
  180.8580  176.0170  137.5780 C   0  0  2  0  0  3  0  0  0  0  0  0
  179.8390  175.0820  137.8070 O   0  0  0  0  0  1  0  0  0  0  0  0
  182.2420  174.0580  137.6980 F   0  0  0  0  0  0  0  0  0  0  0  0
  182.6270  175.7370  139.1550 F   0  0  0  0  0  0  0  0  0  0  0  0
  182.2460  175.4320  137.8610 C   0  0  0  0  0  0  0  0  0  0  0  0
  183.1590  175.9850  136.9810 F   0  0  0  0  0  0  0  0  0  0  0  0
  188.0590  177.9380  141.0930 C   0  0  1  0  0  3  0  0  0  0  0  0
  188.4350  177.7810  139.7500 O   0  0  0  0  0  0  0  0  0  0  0  0
  188.6560  179.0410  139.3070 N   0  0  0  0  0  2  0  0  0  0  0  0
  189.2070  178.9240  138.0260 N   0  0  0  0  0  2  0  0  0  0  0  0
  186.7660  178.6950  136.5680 C   0  0  0  0  0  1  0  0  0  0  0  0
  187.8310  177.6560  136.4580 C   0  0  0  0  0  0  0  0  0  0  0  0
  187.6040  176.5720  135.6700 N   0  0  0  0  0  0  0  0  0  0  0  0
  189.0390  177.7790  137.1690 C   0  0  0  0  0  0  0  0  0  0  0  0
  189.7360  175.6590  136.2050 C   0  0  0  0  0  3  0  0  0  0  0  0
  188.5200  175.5800  135.5340 C   0  0  0  0  0  3  0  0  0  0  0  0
  190.0250  176.7670  137.0170 C   0  0  0  0  0  0  0  0  0  0  0  0
  191.8380  175.3960  137.9910 C   0  0  0  0  0  2  0  0  0  0  0  0
  191.3470  176.8120  137.7370 C   0  0  0  0  0  3  0  0  0  0  0  0
  191.2710  176.2070  139.1320 C   0  0  0  0  0  2  0  0  0  0  0  0
  189.0290  178.6670  141.8140 O   0  0  0  0  0  0  0  0  0  0  0  0
  189.9500  177.7630  142.3730 C   0  0  0  0  0  2  0  0  0  0  0  0
  190.8480  178.4780  143.3710 C   0  0  0  0  0  2  0  0  0  0  0  0
  189.0790  177.5440  146.5850 C   0  0  0  0  0  0  0  0  0  0  0  0
  190.6430  177.9510  144.7520 C   0  0  0  0  0  0  0  0  0  0  0  0
  191.5930  177.2010  145.3210 C   0  0  0  0  0  3  0  0  0  0  0  0
  189.3790  178.2150  145.4690 C   0  0  0  0  0  3  0  0  0  0  0  0
  189.9670  176.4260  147.0650 C   0  0  0  0  0  2  0  0  0  0  0  0
  187.8090  177.8310  147.3000 C   0  0  0  0  0  1  0  0  0  0  0  0
  191.4380  176.7170  146.7400 C   0  0  1  0  0  3  0  0  0  0  0  0
  192.7480  175.7170  148.2180 C   0  0  0  0  0  1  0  0  0  0  0  0
  192.2050  175.5680  146.9400 O   0  0  0  0  0  0  0  0  0  0  0  0
  1  2  1  6  0  0  0
  1  8  1  0  0  0  0
  1  6  1  0  0  0  0
  4  7  1  0  0  0  0
  4  3  1  0  0  0  0
  5 28  1  6  0  0  0
  5  7  1  0  0  0  0
  6 10  1  0  0  0  0
  6  4  2  0  0  0  0
  7  9  1  1  0  0  0
  8  5  1  0  0  0  0
 11 12  1  0  0  0  0
 11 10  2  0  0  0  0
 12 16  1  6  0  0  0
 12 14  1  0  0  0  0
 14 13  2  0  0  0  0
 14 15  1  0  0  0  0
 17 16  1  0  0  0  0
 18 19  1  1  0  0  0
 18 17  1  0  0  0  0
 20 18  1  0  0  0  0
 20 21  1  0  0  0  0
 22 23  1  1  0  0  0
 22 26  1  0  0  0  0
 22 21  1  0  0  0  0
 24 26  1  0  0  0  0
 26 25  1  0  0  0  0
 27 26  1  0  0  0  0
 28 29  1  6  0  0  0
 28 42  1  0  0  0  0
 30 29  1  0  0  0  0
 31 30  1  0  0  0  0
 33 32  1  0  0  0  0
 33 35  1  0  0  0  0
 34 33  2  0  0  0  0
 35 31  1  0  0  0  0
 36 38  1  0  0  0  0
 37 34  1  0  0  0  0
 37 36  2  0  0  0  0
 38 35  2  0  0  0  0
 38 40  1  0  0  0  0
 39 41  1  0  0  0  0
 40 39  1  0  0  0  0
 40 41  1  0  0  0  0
 42 43  1  0  0  0  0
 43 44  1  0  0  0  0
 44 46  1  0  0  0  0
 45 49  1  0  0  0  0
 45 50  1  0  0  0  0
 46 47  2  0  0  0  0
 46 48  1  0  0  0  0
 47 51  1  0  0  0  0
 48 45  2  0  0  0  0
 51 53  1  6  0  0  0
 51 49  1  0  0  0  0
 53 52  1  0  0  0  0
M  END
>  <MODEL>
3

>  <REMARK>
 VINA RESULT:      -7.0      2.166      4.656
  Name = 
  21 active torsions:
  status: ('A' for Active; 'I' for Inactive)
    1  A    between atoms: N_6  and  C_13
    2  A    between atoms: N_6  and  C_44
    3  A    between atoms: C_11  and  C_13
    4  A    between atoms: C_11  and  N_27
    5  A    between atoms: C_11  and  C_42
    6  A    between atoms: C_12  and  C_41
    7  A    between atoms: C_14  and  C_26
    8  A    between atoms: C_14  and  O_40
    9  A    between atoms: O_20  and  C_32
   10  A    between atoms: O_20  and  N_34
   11  A    between atoms: C_21  and  C_32
   12  A    between atoms: N_22  and  C_25
   13  A    between atoms: N_28  and  N_34
   14  A    between atoms: N_28  and  C_38
   15  A    between atoms: C_32  and  O_45
   16  A    between atoms: C_36  and  C_41
   17  A    between atoms: C_36  and  O_45
   18  A    between atoms: C_37  and  O_43
   19  A    between atoms: O_40  and  C_48
   20  A    between atoms: C_44  and  C_48
   21  A    between atoms: C_49  and  C_52
                            x       y       z     vdW  Elec       q    Type
                         _______ _______ _______ _____ _____    ______ ____

>  <TORSDO>
F 21

$$$$
=
 OpenBabel11032420343D

 53 56  0  0  1  0  0  0  0  0999 V2000
  185.5150  178.2060  138.1350 C   0  0  1  0  0  3  0  0  0  0  0  0
  185.4070  177.0300  136.7980 Cl  0  0  0  0  0  0  0  0  0  0  0  0
  182.8730  178.9090  140.6730 F   0  0  0  0  0  0  0  0  0  0  0  0
  184.0780  178.6740  140.0920 C   0  0  0  0  0  0  0  0  0  0  0  0
  186.5750  178.6370  140.0960 C   0  0  2  0  0  3  0  0  0  0  0  0
  184.1520  178.4640  138.7690 C   0  0  0  0  0  0  0  0  0  0  0  0
  185.3070  178.6430  140.9610 C   0  0  1  0  0  3  0  0  0  0  0  0
  186.4240  177.6830  139.0760 O   0  0  0  0  0  0  0  0  0  0  0  0
  185.3070  179.7610  141.7970 O   0  0  0  0  0  1  0  0  0  0  0  0
  182.9710  178.6680  137.9810 N   0  0  0  0  0  0  0  0  0  0  0  0
  181.9950  177.8570  137.9940 N   0  0  0  0  0  0  0  0  0  0  0  0
  180.8180  178.1010  137.1720 C   0  0  1  0  0  3  0  0  0  0  0  0
  179.4310  176.5250  135.8250 O   0  0  0  0  0  0  0  0  0  0  0  0
  179.9710  176.8710  137.0570 C   0  0  0  0  0  0  0  0  0  0  0  0
  179.7160  176.1670  138.0710 O   0  0  0  0  0  1  0  0  0  0  0  0
  180.0170  179.2800  137.7140 C   0  0  0  0  0  2  0  0  0  0  0  0
  179.9330  179.2350  139.1660 N   0  0  0  0  0  2  0  0  0  0  0  0
  179.4420  180.5310  139.6060 C   0  0  1  0  0  3  0  0  0  0  0  0
  180.3050  181.0740  140.5400 F   0  0  0  0  0  0  0  0  0  0  0  0
  179.3030  181.4670  138.4170 C   0  0  0  0  0  2  0  0  0  0  0  0
  179.9710  182.6790  138.6660 O   0  0  0  0  0  0  0  0  0  0  0  0
  181.0680  182.7920  137.7820 C   0  0  2  0  0  3  0  0  0  0  0  0
  182.2400  182.2350  138.3120 O   0  0  0  0  0  1  0  0  0  0  0  0
  181.4270  184.2200  135.8850 F   0  0  0  0  0  0  0  0  0  0  0  0
  182.4380  184.7470  137.8330 F   0  0  0  0  0  0  0  0  0  0  0  0
  181.2950  184.2160  137.2630 C   0  0  0  0  0  0  0  0  0  0  0  0
  180.2120  185.0030  137.6100 F   0  0  0  0  0  0  0  0  0  0  0  0
  187.8130  178.2930  140.9400 C   0  0  1  0  0  3  0  0  0  0  0  0
  187.4540  177.7610  142.1880 O   0  0  0  0  0  0  0  0  0  0  0  0
  188.5700  177.8780  142.9440 N   0  0  0  0  0  2  0  0  0  0  0  0
  188.4500  176.9480  143.9830 N   0  0  0  0  0  2  0  0  0  0  0  0
  191.0020  176.8060  145.2480 C   0  0  0  0  0  1  0  0  0  0  0  0
  189.7820  177.1940  146.0140 C   0  0  0  0  0  0  0  0  0  0  0  0
  189.9020  177.4480  147.3430 N   0  0  0  0  0  0  0  0  0  0  0  0
  188.5270  177.2750  145.3820 C   0  0  0  0  0  0  0  0  0  0  0  0
  187.5720  177.8980  147.5300 C   0  0  0  0  0  3  0  0  0  0  0  0
  188.8330  177.7910  148.1060 C   0  0  0  0  0  3  0  0  0  0  0  0
  187.4000  177.6620  146.1570 C   0  0  0  0  0  0  0  0  0  0  0  0
  185.5950  179.2360  145.5390 C   0  0  0  0  0  2  0  0  0  0  0  0
  186.0170  177.7760  145.5700 C   0  0  0  0  0  3  0  0  0  0  0  0
  185.0020  178.3100  146.5730 C   0  0  0  0  0  2  0  0  0  0  0  0
  188.7280  177.4530  140.2690 O   0  0  0  0  0  0  0  0  0  0  0  0
  189.6570  178.2550  139.5830 C   0  0  0  0  0  2  0  0  0  0  0  0
  189.6550  177.9100  138.1020 C   0  0  0  0  0  2  0  0  0  0  0  0
  189.7630  174.2880  137.0040 C   0  0  0  0  0  0  0  0  0  0  0  0
  190.1860  176.5340  137.8690 C   0  0  0  0  0  0  0  0  0  0  0  0
  191.4970  176.3030  137.9880 C   0  0  0  0  0  3  0  0  0  0  0  0
  189.2750  175.4450  137.4620 C   0  0  0  0  0  3  0  0  0  0  0  0
  191.2430  174.1180  136.7840 C   0  0  0  0  0  2  0  0  0  0  0  0
  188.8330  173.1990  136.6110 C   0  0  0  0  0  1  0  0  0  0  0  0
  192.0460  174.9090  137.8260 C   0  0  1  0  0  3  0  0  0  0  0  0
  193.3950  175.6540  136.2370 C   0  0  0  0  0  1  0  0  0  0  0  0
  193.3890  174.9640  137.4500 O   0  0  0  0  0  0  0  0  0  0  0  0
  1  2  1  6  0  0  0
  1  6  1  0  0  0  0
  1  8  1  0  0  0  0
  4  3  1  0  0  0  0
  4  7  1  0  0  0  0
  5 28  1  1  0  0  0
  5  7  1  0  0  0  0
  6  4  2  0  0  0  0
  7  9  1  1  0  0  0
  8  5  1  0  0  0  0
 10 11  2  0  0  0  0
 10  6  1  0  0  0  0
 12 16  1  1  0  0  0
 12 11  1  0  0  0  0
 13 14  2  0  0  0  0
 14 12  1  0  0  0  0
 14 15  1  0  0  0  0
 16 17  1  0  0  0  0
 17 18  1  0  0  0  0
 18 19  1  1  0  0  0
 20 21  1  0  0  0  0
 20 18  1  0  0  0  0
 22 23  1  1  0  0  0
 22 21  1  0  0  0  0
 24 26  1  0  0  0  0
 26 27  1  0  0  0  0
 26 22  1  0  0  0  0
 26 25  1  0  0  0  0
 28 42  1  6  0  0  0
 28 29  1  0  0  0  0
 29 30  1  0  0  0  0
 30 31  1  0  0  0  0
 31 35  1  0  0  0  0
 32 33  1  0  0  0  0
 33 34  1  0  0  0  0
 34 37  2  0  0  0  0
 35 33  2  0  0  0  0
 35 38  1  0  0  0  0
 36 37  1  0  0  0  0
 38 36  2  0  0  0  0
 39 40  1  0  0  0  0
 39 41  1  0  0  0  0
 40 38  1  0  0  0  0
 40 41  1  0  0  0  0
 43 42  1  0  0  0  0
 44 43  1  0  0  0  0
 45 48  2  0  0  0  0
 46 47  2  0  0  0  0
 46 44  1  0  0  0  0
 48 46  1  0  0  0  0
 49 45  1  0  0  0  0
 49 51  1  0  0  0  0
 50 45  1  0  0  0  0
 51 53  1  6  0  0  0
 51 47  1  0  0  0  0
 52 53  1  0  0  0  0
M  END
>  <MODEL>
4

>  <REMARK>
 VINA RESULT:      -6.8      3.551      7.012
  Name = 
  21 active torsions:
  status: ('A' for Active; 'I' for Inactive)
    1  A    between atoms: N_6  and  C_13
    2  A    between atoms: N_6  and  C_44
    3  A    between atoms: C_11  and  C_13
    4  A    between atoms: C_11  and  N_27
    5  A    between atoms: C_11  and  C_42
    6  A    between atoms: C_12  and  C_41
    7  A    between atoms: C_14  and  C_26
    8  A    between atoms: C_14  and  O_40
    9  A    between atoms: O_20  and  C_32
   10  A    between atoms: O_20  and  N_34
   11  A    between atoms: C_21  and  C_32
   12  A    between atoms: N_22  and  C_25
   13  A    between atoms: N_28  and  N_34
   14  A    between atoms: N_28  and  C_38
   15  A    between atoms: C_32  and  O_45
   16  A    between atoms: C_36  and  C_41
   17  A    between atoms: C_36  and  O_45
   18  A    between atoms: C_37  and  O_43
   19  A    between atoms: O_40  and  C_48
   20  A    between atoms: C_44  and  C_48
   21  A    between atoms: C_49  and  C_52
                            x       y       z     vdW  Elec       q    Type
                         _______ _______ _______ _____ _____    ______ ____

>  <TORSDO>
F 21

$$$$
=
 OpenBabel11032420343D

 53 56  0  0  1  0  0  0  0  0999 V2000
  187.0060  177.5250  137.8810 C   0  0  1  0  0  3  0  0  0  0  0  0
  186.4320  177.9260  136.2410 Cl  0  0  0  0  0  0  0  0  0  0  0  0
  190.4940  177.8980  139.1510 F   0  0  0  0  0  0  0  0  0  0  0  0
  189.1370  177.9220  139.0690 C   0  0  0  0  0  0  0  0  0  0  0  0
  186.8570  178.1410  140.0620 C   0  0  2  0  0  3  0  0  0  0  0  0
  188.5290  177.4930  137.9530 C   0  0  0  0  0  0  0  0  0  0  0  0
  188.3510  178.4470  140.2400 C   0  0  1  0  0  3  0  0  0  0  0  0
  186.4740  178.4920  138.7570 O   0  0  0  0  0  0  0  0  0  0  0  0
  188.8210  177.8530  141.4120 O   0  0  0  0  0  1  0  0  0  0  0  0
  189.3260  176.8570  136.9440 N   0  0  0  0  0  0  0  0  0  0  0  0
  189.5160  175.6020  136.9170 N   0  0  0  0  0  0  0  0  0  0  0  0
  190.3390  175.0010  135.8770 C   0  0  1  0  0  3  0  0  0  0  0  0
  192.6600  175.7440  136.4110 O   0  0  0  0  0  0  0  0  0  0  0  0
  191.7240  174.7190  136.3760 C   0  0  0  0  0  0  0  0  0  0  0  0
  192.0560  173.5570  136.7320 O   0  0  0  0  0  1  0  0  0  0  0  0
  189.6790  173.7400  135.3280 C   0  0  0  0  0  2  0  0  0  0  0  0
  188.2440  173.7540  135.5610 N   0  0  0  0  0  2  0  0  0  0  0  0
  187.7800  172.3800  135.4540 C   0  0  1  0  0  3  0  0  0  0  0  0
  187.8820  171.7470  136.6810 F   0  0  0  0  0  0  0  0  0  0  0  0
  186.3410  172.3510  134.9700 C   0  0  0  0  0  2  0  0  0  0  0  0
  185.4640  172.6800  136.0180 O   0  0  0  0  0  0  0  0  0  0  0  0
  184.6060  171.5840  136.2650 C   0  0  2  0  0  3  0  0  0  0  0  0
  184.7450  170.5710  135.3060 O   0  0  0  0  0  1  0  0  0  0  0  0
  182.3850  171.6630  135.3540 F   0  0  0  0  0  0  0  0  0  0  0  0
  183.0550  173.3450  136.7010 F   0  0  0  0  0  0  0  0  0  0  0  0
  183.1400  171.9840  136.4680 C   0  0  0  0  0  0  0  0  0  0  0  0
  182.6330  171.3080  137.5630 F   0  0  0  0  0  0  0  0  0  0  0  0
  186.0110  178.9300  141.0740 C   0  0  1  0  0  3  0  0  0  0  0  0
  184.9340  179.5780  140.4500 O   0  0  0  0  0  0  0  0  0  0  0  0
  183.8320  179.0320  141.0150 N   0  0  0  0  0  2  0  0  0  0  0  0
  183.0510  178.5340  139.9660 N   0  0  0  0  0  2  0  0  0  0  0  0
  183.1330  175.9310  138.8010 C   0  0  0  0  0  1  0  0  0  0  0  0
  181.9340  176.4020  139.5540 C   0  0  0  0  0  0  0  0  0  0  0  0
  180.8600  175.5760  139.6490 N   0  0  0  0  0  0  0  0  0  0  0  0
  181.9030  177.6820  140.1380 C   0  0  0  0  0  0  0  0  0  0  0  0
  179.6500  177.1920  140.9100 C   0  0  0  0  0  3  0  0  0  0  0  0
  179.7300  175.9430  140.3050 C   0  0  0  0  0  3  0  0  0  0  0  0
  180.7410  178.0750  140.8550 C   0  0  0  0  0  0  0  0  0  0  0  0
  179.1470  179.8070  141.6130 C   0  0  0  0  0  2  0  0  0  0  0  0
  180.6140  179.4230  141.5140 C   0  0  0  0  0  3  0  0  0  0  0  0
  180.0250  180.4730  140.5810 C   0  0  0  0  0  2  0  0  0  0  0  0
  185.5760  178.1480  142.1650 O   0  0  0  0  0  0  0  0  0  0  0  0
  186.2310  178.5930  143.3280 C   0  0  0  0  0  2  0  0  0  0  0  0
  186.2330  177.4950  144.3810 C   0  0  0  0  0  2  0  0  0  0  0  0
  188.4170  177.6930  147.4670 C   0  0  0  0  0  0  0  0  0  0  0  0
  187.4670  177.5570  145.2200 C   0  0  0  0  0  0  0  0  0  0  0  0
  188.6530  177.2720  144.6740 C   0  0  0  0  0  3  0  0  0  0  0  0
  187.3720  177.8850  146.6580 C   0  0  0  0  0  3  0  0  0  0  0  0
  189.6690  177.0310  146.9540 C   0  0  0  0  0  2  0  0  0  0  0  0
  188.3090  178.0410  148.9070 C   0  0  0  0  0  1  0  0  0  0  0  0
  189.9180  177.3950  145.4840 C   0  0  1  0  0  3  0  0  0  0  0  0
  191.5610  177.3600  144.0020 C   0  0  0  0  0  1  0  0  0  0  0  0
  190.9100  176.5710  144.9510 O   0  0  0  0  0  0  0  0  0  0  0  0
  1  2  1  6  0  0  0
  1  6  1  0  0  0  0
  1  8  1  0  0  0  0
  4  3  1  0  0  0  0
  4  7  1  0  0  0  0
  5  7  1  0  0  0  0
  5 28  1  1  0  0  0
  6  4  2  0  0  0  0
  7  9  1  1  0  0  0
  8  5  1  0  0  0  0
 10  6  1  0  0  0  0
 11 10  2  0  0  0  0
 12 16  1  1  0  0  0
 12 14  1  0  0  0  0
 12 11  1  0  0  0  0
 14 13  2  0  0  0  0
 14 15  1  0  0  0  0
 16 17  1  0  0  0  0
 18 17  1  0  0  0  0
 18 19  1  1  0  0  0
 20 18  1  0  0  0  0
 20 21  1  0  0  0  0
 21 22  1  0  0  0  0
 22 23  1  6  0  0  0
 22 26  1  0  0  0  0
 24 26  1  0  0  0  0
 26 25  1  0  0  0  0
 26 27  1  0  0  0  0
 28 29  1  6  0  0  0
 28 42  1  0  0  0  0
 29 30  1  0  0  0  0
 31 35  1  0  0  0  0
 31 30  1  0  0  0  0
 32 33  1  0  0  0  0
 33 34  2  0  0  0  0
 33 35  1  0  0  0  0
 34 37  1  0  0  0  0
 35 38  2  0  0  0  0
 37 36  2  0  0  0  0
 38 36  1  0  0  0  0
 38 40  1  0  0  0  0
 40 39  1  0  0  0  0
 41 40  1  0  0  0  0
 41 39  1  0  0  0  0
 42 43  1  0  0  0  0
 43 44  1  0  0  0  0
 44 46  1  0  0  0  0
 45 50  1  0  0  0  0
 46 48  1  0  0  0  0
 47 46  2  0  0  0  0
 47 51  1  0  0  0  0
 48 45  2  0  0  0  0
 49 45  1  0  0  0  0
 51 53  1  6  0  0  0
 51 49  1  0  0  0  0
 52 53  1  0  0  0  0
M  END
>  <MODEL>
5

>  <REMARK>
 VINA RESULT:      -6.7      3.086      8.468
  Name = 
  21 active torsions:
  status: ('A' for Active; 'I' for Inactive)
    1  A    between atoms: N_6  and  C_13
    2  A    between atoms: N_6  and  C_44
    3  A    between atoms: C_11  and  C_13
    4  A    between atoms: C_11  and  N_27
    5  A    between atoms: C_11  and  C_42
    6  A    between atoms: C_12  and  C_41
    7  A    between atoms: C_14  and  C_26
    8  A    between atoms: C_14  and  O_40
    9  A    between atoms: O_20  and  C_32
   10  A    between atoms: O_20  and  N_34
   11  A    between atoms: C_21  and  C_32
   12  A    between atoms: N_22  and  C_25
   13  A    between atoms: N_28  and  N_34
   14  A    between atoms: N_28  and  C_38
   15  A    between atoms: C_32  and  O_45
   16  A    between atoms: C_36  and  C_41
   17  A    between atoms: C_36  and  O_45
   18  A    between atoms: C_37  and  O_43
   19  A    between atoms: O_40  and  C_48
   20  A    between atoms: C_44  and  C_48
   21  A    between atoms: C_49  and  C_52
                            x       y       z     vdW  Elec       q    Type
                         _______ _______ _______ _____ _____    ______ ____

>  <TORSDO>
F 21

$$$$
=
 OpenBabel11032420343D

 53 56  0  0  1  0  0  0  0  0999 V2000
  188.5840  177.4760  142.9340 C   0  0  1  0  0  3  0  0  0  0  0  0
  187.0440  176.8510  143.5820 Cl  0  0  0  0  0  0  0  0  0  0  0  0
  191.9950  176.7310  144.2480 F   0  0  0  0  0  0  0  0  0  0  0  0
  190.9520  176.9460  143.4030 C   0  0  0  0  0  0  0  0  0  0  0  0
  189.9790  177.3750  141.1450 C   0  0  2  0  0  3  0  0  0  0  0  0
  189.7400  177.2350  143.8990 C   0  0  0  0  0  0  0  0  0  0  0  0
  191.1890  176.8390  141.9210 C   0  0  1  0  0  3  0  0  0  0  0  0
  188.8070  176.8340  141.7000 O   0  0  0  0  0  0  0  0  0  0  0  0
  192.3310  177.5690  141.5840 O   0  0  0  0  0  1  0  0  0  0  0  0
  189.6210  177.4800  145.3070 N   0  0  0  0  0  0  0  0  0  0  0  0
  189.0730  176.6530  146.0990 N   0  0  0  0  0  0  0  0  0  0  0  0
  188.9690  176.9480  147.5210 C   0  0  1  0  0  3  0  0  0  0  0  0
  190.2280  178.6360  148.8590 O   0  0  0  0  0  1  0  0  0  0  0  0
  190.2530  177.5030  148.0560 C   0  0  0  0  0  0  0  0  0  0  0  0
  191.3580  176.9740  147.7560 O   0  0  0  0  0  0  0  0  0  0  0  0
  187.8000  177.8900  147.7920 C   0  0  0  0  0  2  0  0  0  0  0  0
  186.8120  177.8230  146.7270 N   0  0  0  0  0  2  0  0  0  0  0  0
  185.6760  178.6280  147.1470 C   0  0  1  0  0  3  0  0  0  0  0  0
  186.0690  179.9400  147.3390 F   0  0  0  0  0  0  0  0  0  0  0  0
  184.5750  178.5600  146.1020 C   0  0  0  0  0  2  0  0  0  0  0  0
  184.9170  179.3320  144.9780 O   0  0  0  0  0  0  0  0  0  0  0  0
  183.8060  179.4000  144.1070 C   0  0  2  0  0  3  0  0  0  0  0  0
  182.6750  178.7620  144.6340 O   0  0  0  0  0  1  0  0  0  0  0  0
  184.5400  177.6170  142.6760 F   0  0  0  0  0  0  0  0  0  0  0  0
  185.0990  179.7330  142.1280 F   0  0  0  0  0  0  0  0  0  0  0  0
  184.1140  178.9330  142.6800 C   0  0  0  0  0  0  0  0  0  0  0  0
  182.9690  179.0360  141.9120 F   0  0  0  0  0  0  0  0  0  0  0  0
  190.0660  176.9920  139.6590 C   0  0  1  0  0  3  0  0  0  0  0  0
  188.8560  177.2390  138.9910 O   0  0  0  0  0  0  0  0  0  0  0  0
  188.7290  178.5860  139.0010 N   0  0  0  0  0  2  0  0  0  0  0  0
  187.9880  178.9260  137.8630 N   0  0  0  0  0  2  0  0  0  0  0  0
  188.8710  177.7620  135.4130 C   0  0  0  0  0  1  0  0  0  0  0  0
  187.5160  177.4670  135.9640 C   0  0  0  0  0  0  0  0  0  0  0  0
  186.6890  176.6540  135.2570 N   0  0  0  0  0  0  0  0  0  0  0  0
  187.0890  178.0340  137.1800 C   0  0  0  0  0  0  0  0  0  0  0  0
  184.9710  176.8760  136.8880 C   0  0  0  0  0  3  0  0  0  0  0  0
  185.4380  176.3530  135.6870 C   0  0  0  0  0  3  0  0  0  0  0  0
  185.7940  177.7080  137.6640 C   0  0  0  0  0  0  0  0  0  0  0  0
  183.7730  177.9270  139.0730 C   0  0  0  0  0  2  0  0  0  0  0  0
  185.2500  178.2650  138.9540 C   0  0  0  0  0  3  0  0  0  0  0  0
  184.1910  179.3350  138.7250 C   0  0  0  0  0  2  0  0  0  0  0  0
  191.1520  177.5970  138.9910 O   0  0  0  0  0  0  0  0  0  0  0  0
  192.0770  176.5980  138.6360 C   0  0  0  0  0  2  0  0  0  0  0  0
  191.3690  175.4590  137.9190 C   0  0  0  0  0  2  0  0  0  0  0  0
  194.5560  174.5800  136.0740 C   0  0  0  0  0  0  0  0  0  0  0  0
  192.2920  174.7600  136.9760 C   0  0  0  0  0  0  0  0  0  0  0  0
  191.9150  173.6070  136.4150 C   0  0  0  0  0  3  0  0  0  0  0  0
  193.6330  175.3160  136.7010 C   0  0  0  0  0  3  0  0  0  0  0  0
  194.2840  173.1360  135.7410 C   0  0  0  0  0  2  0  0  0  0  0  0
  195.8950  175.1580  135.7940 C   0  0  0  0  0  1  0  0  0  0  0  0
  192.8020  172.9210  135.4080 C   0  0  1  0  0  3  0  0  0  0  0  0
  193.5470  170.9530  136.0940 C   0  0  0  0  0  1  0  0  0  0  0  0
  192.5170  171.5550  135.3710 O   0  0  0  0  0  0  0  0  0  0  0  0
  1  2  1  1  0  0  0
  1  6  1  0  0  0  0
  4  6  2  0  0  0  0
  4  3  1  0  0  0  0
  5 28  1  6  0  0  0
  5  8  1  0  0  0  0
  5  7  1  0  0  0  0
  6 10  1  0  0  0  0
  7  9  1  6  0  0  0
  7  4  1  0  0  0  0
  8  1  1  0  0  0  0
 10 11  2  0  0  0  0
 11 12  1  0  0  0  0
 12 16  1  6  0  0  0
 12 14  1  0  0  0  0
 14 13  1  0  0  0  0
 15 14  2  0  0  0  0
 17 18  1  0  0  0  0
 17 16  1  0  0  0  0
 18 19  1  6  0  0  0
 20 18  1  0  0  0  0
 21 20  1  0  0  0  0
 22 23  1  1  0  0  0
 22 21  1  0  0  0  0
 24 26  1  0  0  0  0
 25 26  1  0  0  0  0
 26 22  1  0  0  0  0
 27 26  1  0  0  0  0
 28 42  1  6  0  0  0
 29 30  1  0  0  0  0
 29 28  1  0  0  0  0
 31 30  1  0  0  0  0
 32 33  1  0  0  0  0
 33 35  1  0  0  0  0
 34 37  1  0  0  0  0
 34 33  2  0  0  0  0
 35 38  2  0  0  0  0
 35 31  1  0  0  0  0
 36 38  1  0  0  0  0
 37 36  2  0  0  0  0
 38 40  1  0  0  0  0
 40 39  1  0  0  0  0
 41 40  1  0  0  0  0
 41 39  1  0  0  0  0
 43 42  1  0  0  0  0
 44 43  1  0  0  0  0
 45 48  2  0  0  0  0
 46 44  1  0  0  0  0
 47 46  2  0  0  0  0
 48 46  1  0  0  0  0
 49 45  1  0  0  0  0
 50 45  1  0  0  0  0
 51 53  1  1  0  0  0
 51 49  1  0  0  0  0
 51 47  1  0  0  0  0
 53 52  1  0  0  0  0
M  END
>  <MODEL>
6

>  <REMARK>
 VINA RESULT:      -6.7      3.290      8.540
  Name = 
  21 active torsions:
  status: ('A' for Active; 'I' for Inactive)
    1  A    between atoms: N_6  and  C_13
    2  A    between atoms: N_6  and  C_44
    3  A    between atoms: C_11  and  C_13
    4  A    between atoms: C_11  and  N_27
    5  A    between atoms: C_11  and  C_42
    6  A    between atoms: C_12  and  C_41
    7  A    between atoms: C_14  and  C_26
    8  A    between atoms: C_14  and  O_40
    9  A    between atoms: O_20  and  C_32
   10  A    between atoms: O_20  and  N_34
   11  A    between atoms: C_21  and  C_32
   12  A    between atoms: N_22  and  C_25
   13  A    between atoms: N_28  and  N_34
   14  A    between atoms: N_28  and  C_38
   15  A    between atoms: C_32  and  O_45
   16  A    between atoms: C_36  and  C_41
   17  A    between atoms: C_36  and  O_45
   18  A    between atoms: C_37  and  O_43
   19  A    between atoms: O_40  and  C_48
   20  A    between atoms: C_44  and  C_48
   21  A    between atoms: C_49  and  C_52
                            x       y       z     vdW  Elec       q    Type
                         _______ _______ _______ _____ _____    ______ ____

>  <TORSDO>
F 21

$$$$
=
 OpenBabel11032420343D

 53 56  0  0  1  0  0  0  0  0999 V2000
  187.8200  177.8630  139.5380 C   0  0  1  0  0  3  0  0  0  0  0  0
  189.4540  178.1750  138.8960 Cl  0  0  0  0  0  0  0  0  0  0  0  0
  186.2400  179.5590  142.4620 F   0  0  0  0  0  0  0  0  0  0  0  0
  186.4300  178.9990  141.2380 C   0  0  0  0  0  0  0  0  0  0  0  0
  185.6090  178.0780  139.0680 C   0  0  2  0  0  3  0  0  0  0  0  0
  187.6280  178.4900  140.9160 C   0  0  0  0  0  0  0  0  0  0  0  0
  185.2800  178.9790  140.2660 C   0  0  1  0  0  3  0  0  0  0  0  0
  186.9000  178.3850  138.6080 O   0  0  0  0  0  0  0  0  0  0  0  0
  184.1380  178.5090  140.9150 O   0  0  0  0  0  1  0  0  0  0  0  0
  188.6260  178.3960  141.9420 N   0  0  0  0  0  0  0  0  0  0  0  0
  189.0820  177.2830  142.3480 N   0  0  0  0  0  0  0  0  0  0  0  0
  190.0910  177.2350  143.3970 C   0  0  1  0  0  3  0  0  0  0  0  0
  192.0490  177.3900  141.8600 O   0  0  0  0  0  0  0  0  0  0  0  0
  191.3630  177.8930  142.9580 C   0  0  0  0  0  0  0  0  0  0  0  0
  191.8340  178.8740  143.5930 O   0  0  0  0  0  1  0  0  0  0  0  0
  189.5590  177.8580  144.6840 C   0  0  0  0  0  2  0  0  0  0  0  0
  188.4810  177.0600  145.2480 N   0  0  0  0  0  2  0  0  0  0  0  0
  188.3570  177.4380  146.6470 C   0  0  1  0  0  3  0  0  0  0  0  0
  189.4160  178.2480  147.0160 F   0  0  0  0  0  0  0  0  0  0  0  0
  187.0410  178.1610  146.8780 C   0  0  0  0  0  2  0  0  0  0  0  0
  186.3730  178.3630  145.6580 O   0  0  0  0  0  0  0  0  0  0  0  0
  185.1520  179.0300  145.9040 C   0  0  2  0  0  3  0  0  0  0  0  0
  184.5510  178.6190  147.1010 O   0  0  0  0  0  1  0  0  0  0  0  0
  182.8710  178.8560  145.1740 F   0  0  0  0  0  0  0  0  0  0  0  0
  184.4800  177.9040  143.9090 F   0  0  0  0  0  0  0  0  0  0  0  0
  184.1740  178.9790  144.7250 C   0  0  0  0  0  0  0  0  0  0  0  0
  184.2860  180.1460  143.9910 F   0  0  0  0  0  0  0  0  0  0  0  0
  184.5960  178.2870  137.9300 C   0  0  1  0  0  3  0  0  0  0  0  0
  185.0870  177.8020  136.7080 O   0  0  0  0  0  0  0  0  0  0  0  0
  184.2580  176.7820  136.3870 N   0  0  0  0  0  2  0  0  0  0  0  0
  184.9930  175.9120  135.5730 N   0  0  0  0  0  2  0  0  0  0  0  0
  184.0480  173.8370  137.2880 C   0  0  0  0  0  1  0  0  0  0  0  0
  185.4900  173.9350  136.9170 C   0  0  0  0  0  0  0  0  0  0  0  0
  186.3590  173.0320  137.4410 N   0  0  0  0  0  0  0  0  0  0  0  0
  185.9490  174.9530  136.0600 C   0  0  0  0  0  0  0  0  0  0  0  0
  188.1910  174.0460  136.3100 C   0  0  0  0  0  3  0  0  0  0  0  0
  187.6860  173.0690  137.1610 C   0  0  0  0  0  3  0  0  0  0  0  0
  187.3310  174.9920  135.7290 C   0  0  0  0  0  0  0  0  0  0  0  0
  189.3730  176.2760  135.1840 C   0  0  0  0  0  2  0  0  0  0  0  0
  187.9150  176.0420  134.8220 C   0  0  0  0  0  3  0  0  0  0  0  0
  188.3320  177.2970  135.5760 C   0  0  0  0  0  2  0  0  0  0  0  0
  183.3200  177.7570  138.2160 O   0  0  0  0  0  0  0  0  0  0  0  0
  182.3660  178.7830  138.0900 C   0  0  0  0  0  2  0  0  0  0  0  0
  181.0900  178.2400  137.4670 C   0  0  0  0  0  2  0  0  0  0  0  0
  180.1240  174.8200  138.7740 C   0  0  0  0  0  0  0  0  0  0  0  0
  180.4660  177.2000  138.3390 C   0  0  0  0  0  0  0  0  0  0  0  0
  179.9710  177.5470  139.5310 C   0  0  0  0  0  3  0  0  0  0  0  0
  180.4390  175.7880  137.9070 C   0  0  0  0  0  3  0  0  0  0  0  0
  179.9070  175.1400  140.2300 C   0  0  0  0  0  2  0  0  0  0  0  0
  180.0890  173.4060  138.3200 C   0  0  0  0  0  1  0  0  0  0  0  0
  179.2760  176.5280  140.3970 C   0  0  1  0  0  3  0  0  0  0  0  0
  179.4460  178.3100  141.7000 C   0  0  0  0  0  1  0  0  0  0  0  0
  179.3330  176.9190  141.7360 O   0  0  0  0  0  0  0  0  0  0  0  0
  1  2  1  6  0  0  0
  1  6  1  0  0  0  0
  4  3  1  0  0  0  0
  5 28  1  6  0  0  0
  5  7  1  0  0  0  0
  6  4  2  0  0  0  0
  6 10  1  0  0  0  0
  7  9  1  1  0  0  0
  7  4  1  0  0  0  0
  8  5  1  0  0  0  0
  8  1  1  0  0  0  0
 10 11  2  0  0  0  0
 11 12  1  0  0  0  0
 12 16  1  1  0  0  0
 13 14  2  0  0  0  0
 14 12  1  0  0  0  0
 14 15  1  0  0  0  0
 16 17  1  0  0  0  0
 17 18  1  0  0  0  0
 18 20  1  0  0  0  0
 18 19  1  6  0  0  0
 21 22  1  0  0  0  0
 21 20  1  0  0  0  0
 22 23  1  1  0  0  0
 25 26  1  0  0  0  0
 26 24  1  0  0  0  0
 26 22  1  0  0  0  0
 27 26  1  0  0  0  0
 28 29  1  6  0  0  0
 28 42  1  0  0  0  0
 30 29  1  0  0  0  0
 31 35  1  0  0  0  0
 31 30  1  0  0  0  0
 33 32  1  0  0  0  0
 33 34  1  0  0  0  0
 35 33  2  0  0  0  0
 36 37  1  0  0  0  0
 37 34  2  0  0  0  0
 38 35  1  0  0  0  0
 38 36  2  0  0  0  0
 39 41  1  0  0  0  0
 40 39  1  0  0  0  0
 40 41  1  0  0  0  0
 40 38  1  0  0  0  0
 43 42  1  0  0  0  0
 44 43  1  0  0  0  0
 44 46  1  0  0  0  0
 45 49  1  0  0  0  0
 46 47  2  0  0  0  0
 47 51  1  0  0  0  0
 48 46  1  0  0  0  0
 48 45  2  0  0  0  0
 49 51  1  0  0  0  0
 50 45  1  0  0  0  0
 51 53  1  1  0  0  0
 52 53  1  0  0  0  0
M  END
>  <MODEL>
7

>  <REMARK>
 VINA RESULT:      -6.7      3.132      8.072
  Name = 
  21 active torsions:
  status: ('A' for Active; 'I' for Inactive)
    1  A    between atoms: N_6  and  C_13
    2  A    between atoms: N_6  and  C_44
    3  A    between atoms: C_11  and  C_13
    4  A    between atoms: C_11  and  N_27
    5  A    between atoms: C_11  and  C_42
    6  A    between atoms: C_12  and  C_41
    7  A    between atoms: C_14  and  C_26
    8  A    between atoms: C_14  and  O_40
    9  A    between atoms: O_20  and  C_32
   10  A    between atoms: O_20  and  N_34
   11  A    between atoms: C_21  and  C_32
   12  A    between atoms: N_22  and  C_25
   13  A    between atoms: N_28  and  N_34
   14  A    between atoms: N_28  and  C_38
   15  A    between atoms: C_32  and  O_45
   16  A    between atoms: C_36  and  C_41
   17  A    between atoms: C_36  and  O_45
   18  A    between atoms: C_37  and  O_43
   19  A    between atoms: O_40  and  C_48
   20  A    between atoms: C_44  and  C_48
   21  A    between atoms: C_49  and  C_52
                            x       y       z     vdW  Elec       q    Type
                         _______ _______ _______ _____ _____    ______ ____

>  <TORSDO>
F 21

$$$$
=
 OpenBabel11032420343D

 53 56  0  0  1  0  0  0  0  0999 V2000
  188.3110  177.3510  137.2930 C   0  0  1  0  0  3  0  0  0  0  0  0
  188.1910  177.7850  135.5680 Cl  0  0  0  0  0  0  0  0  0  0  0  0
  191.2950  177.8190  139.4830 F   0  0  0  0  0  0  0  0  0  0  0  0
  190.0140  177.7920  139.0300 C   0  0  0  0  0  0  0  0  0  0  0  0
  187.5420  177.8870  139.3610 C   0  0  2  0  0  3  0  0  0  0  0  0
  189.7570  177.3770  137.7810 C   0  0  0  0  0  0  0  0  0  0  0  0
  188.9130  178.2450  139.9510 C   0  0  1  0  0  3  0  0  0  0  0  0
  187.5150  178.2670  138.0090 O   0  0  0  0  0  0  0  0  0  0  0  0
  189.0710  177.6310  141.1940 O   0  0  0  0  0  1  0  0  0  0  0  0
  190.8290  176.8080  137.0180 N   0  0  0  0  0  0  0  0  0  0  0  0
  191.2160  175.6090  137.1760 N   0  0  0  0  0  0  0  0  0  0  0  0
  192.3140  175.0760  136.3830 C   0  0  1  0  0  3  0  0  0  0  0  0
  194.4720  176.2220  136.8890 O   0  0  0  0  0  0  0  0  0  0  0  0
  193.6120  175.1580  137.1280 C   0  0  0  0  0  0  0  0  0  0  0  0
  193.9450  174.2550  137.9420 O   0  0  0  0  0  1  0  0  0  0  0  0
  192.0160  173.6460  135.9410 C   0  0  0  0  0  2  0  0  0  0  0  0
  190.6530  173.2650  136.2770 N   0  0  0  0  0  2  0  0  0  0  0  0
  190.0110  172.8440  135.0420 C   0  0  1  0  0  3  0  0  0  0  0  0
  190.1230  171.4730  134.8920 F   0  0  0  0  0  0  0  0  0  0  0  0
  188.5460  173.2500  135.0520 C   0  0  0  0  0  2  0  0  0  0  0  0
  188.2130  173.8540  136.2770 O   0  0  0  0  0  0  0  0  0  0  0  0
  187.2620  173.0500  136.9460 C   0  0  2  0  0  3  0  0  0  0  0  0
  187.1410  171.7780  136.3710 O   0  0  0  0  0  1  0  0  0  0  0  0
  185.1220  173.0350  138.0350 F   0  0  0  0  0  0  0  0  0  0  0  0
  185.2420  173.7890  135.9110 F   0  0  0  0  0  0  0  0  0  0  0  0
  185.9010  173.7300  137.1260 C   0  0  0  0  0  0  0  0  0  0  0  0
  186.0950  175.0170  137.5950 F   0  0  0  0  0  0  0  0  0  0  0  0
  186.4140  178.6080  140.1180 C   0  0  1  0  0  3  0  0  0  0  0  0
  185.3610  178.9590  139.2600 O   0  0  0  0  0  0  0  0  0  0  0  0
  184.5600  179.7530  140.0080 N   0  0  0  0  0  2  0  0  0  0  0  0
  183.2660  179.2310  139.9000 N   0  0  0  0  0  2  0  0  0  0  0  0
  181.9050  181.4220  138.6810 C   0  0  0  0  0  1  0  0  0  0  0  0
  181.9020  180.0680  138.0560 C   0  0  0  0  0  0  0  0  0  0  0  0
  181.2070  179.8850  136.9030 N   0  0  0  0  0  0  0  0  0  0  0  0
  182.5860  178.9920  138.6540 C   0  0  0  0  0  0  0  0  0  0  0  0
  181.8140  177.5850  136.8280 C   0  0  0  0  0  3  0  0  0  0  0  0
  181.1460  178.6780  136.2860 C   0  0  0  0  0  3  0  0  0  0  0  0
  182.5600  177.7270  138.0090 C   0  0  0  0  0  0  0  0  0  0  0  0
  182.6200  175.2540  138.0220 C   0  0  0  0  0  2  0  0  0  0  0  0
  183.2610  176.5180  138.5720 C   0  0  0  0  0  3  0  0  0  0  0  0
  182.3470  175.6710  139.4470 C   0  0  0  0  0  2  0  0  0  0  0  0
  185.9450  177.8860  141.2370 O   0  0  0  0  0  0  0  0  0  0  0  0
  186.3440  178.5570  142.4060 C   0  0  0  0  0  2  0  0  0  0  0  0
  186.1110  177.6750  143.6230 C   0  0  0  0  0  2  0  0  0  0  0  0
  187.9560  177.7390  146.9290 C   0  0  0  0  0  0  0  0  0  0  0  0
  187.2420  177.7860  144.5920 C   0  0  0  0  0  0  0  0  0  0  0  0
  188.5010  177.7380  144.1470 C   0  0  0  0  0  3  0  0  0  0  0  0
  186.9710  177.8990  146.0400 C   0  0  0  0  0  3  0  0  0  0  0  0
  189.3330  177.3260  146.4760 C   0  0  0  0  0  2  0  0  0  0  0  0
  187.6700  177.8690  148.3800 C   0  0  0  0  0  1  0  0  0  0  0  0
  189.6560  177.9170  145.0980 C   0  0  1  0  0  3  0  0  0  0  0  0
  191.4400  176.7440  145.6820 C   0  0  0  0  0  1  0  0  0  0  0  0
  190.8020  177.3130  144.5790 O   0  0  0  0  0  0  0  0  0  0  0  0
  1  2  1  6  0  0  0
  1  6  1  0  0  0  0
  1  8  1  0  0  0  0
  4  3  1  0  0  0  0
  4  7  1  0  0  0  0
  5  7  1  0  0  0  0
  5 28  1  1  0  0  0
  6  4  2  0  0  0  0
  7  9  1  1  0  0  0
  8  5  1  0  0  0  0
 10 11  2  0  0  0  0
 10  6  1  0  0  0  0
 12 16  1  1  0  0  0
 12 14  1  0  0  0  0
 12 11  1  0  0  0  0
 13 14  2  0  0  0  0
 14 15  1  0  0  0  0
 16 17  1  0  0  0  0
 18 19  1  1  0  0  0
 18 20  1  0  0  0  0
 18 17  1  0  0  0  0
 20 21  1  0  0  0  0
 21 22  1  0  0  0  0
 22 23  1  6  0  0  0
 22 26  1  0  0  0  0
 25 26  1  0  0  0  0
 26 27  1  0  0  0  0
 26 24  1  0  0  0  0
 28 29  1  6  0  0  0
 28 42  1  0  0  0  0
 29 30  1  0  0  0  0
 31 30  1  0  0  0  0
 33 35  1  0  0  0  0
 33 32  1  0  0  0  0
 34 33  2  0  0  0  0
 35 31  1  0  0  0  0
 36 38  1  0  0  0  0
 37 36  2  0  0  0  0
 37 34  1  0  0  0  0
 38 40  1  0  0  0  0
 38 35  2  0  0  0  0
 39 40  1  0  0  0  0
 39 41  1  0  0  0  0
 40 41  1  0  0  0  0
 42 43  1  0  0  0  0
 43 44  1  0  0  0  0
 44 46  1  0  0  0  0
 45 50  1  0  0  0  0
 46 48  1  0  0  0  0
 47 46  2  0  0  0  0
 47 51  1  0  0  0  0
 48 45  2  0  0  0  0
 49 45  1  0  0  0  0
 51 53  1  6  0  0  0
 51 49  1  0  0  0  0
 53 52  1  0  0  0  0
M  END
>  <MODEL>
8

>  <REMARK>
 VINA RESULT:      -6.6      3.134      8.332
  Name = 
  21 active torsions:
  status: ('A' for Active; 'I' for Inactive)
    1  A    between atoms: N_6  and  C_13
    2  A    between atoms: N_6  and  C_44
    3  A    between atoms: C_11  and  C_13
    4  A    between atoms: C_11  and  N_27
    5  A    between atoms: C_11  and  C_42
    6  A    between atoms: C_12  and  C_41
    7  A    between atoms: C_14  and  C_26
    8  A    between atoms: C_14  and  O_40
    9  A    between atoms: O_20  and  C_32
   10  A    between atoms: O_20  and  N_34
   11  A    between atoms: C_21  and  C_32
   12  A    between atoms: N_22  and  C_25
   13  A    between atoms: N_28  and  N_34
   14  A    between atoms: N_28  and  C_38
   15  A    between atoms: C_32  and  O_45
   16  A    between atoms: C_36  and  C_41
   17  A    between atoms: C_36  and  O_45
   18  A    between atoms: C_37  and  O_43
   19  A    between atoms: O_40  and  C_48
   20  A    between atoms: C_44  and  C_48
   21  A    between atoms: C_49  and  C_52
                            x       y       z     vdW  Elec       q    Type
                         _______ _______ _______ _____ _____    ______ ____

>  <TORSDO>
F 21

$$$$
=
 OpenBabel11032420343D

 53 56  0  0  1  0  0  0  0  0999 V2000
  187.9510  178.0140  138.1800 C   0  0  1  0  0  3  0  0  0  0  0  0
  189.5050  177.7940  139.0270 Cl  0  0  0  0  0  0  0  0  0  0  0  0
  185.9760  175.3520  136.4680 F   0  0  0  0  0  0  0  0  0  0  0  0
  186.3110  176.4310  137.2230 C   0  0  0  0  0  0  0  0  0  0  0  0
  185.7570  178.5030  138.5010 C   0  0  2  0  0  3  0  0  0  0  0  0
  187.5970  176.7980  137.3290 C   0  0  0  0  0  0  0  0  0  0  0  0
  185.2180  177.1820  137.9360 C   0  0  1  0  0  3  0  0  0  0  0  0
  186.9710  178.2530  139.1630 O   0  0  0  0  0  0  0  0  0  0  0  0
  184.1770  177.4380  137.0420 O   0  0  0  0  0  1  0  0  0  0  0  0
  188.5630  176.1410  136.4980 N   0  0  0  0  0  0  0  0  0  0  0  0
  189.2430  175.1460  136.8990 N   0  0  0  0  0  0  0  0  0  0  0  0
  190.2180  174.5150  136.0220 C   0  0  1  0  0  3  0  0  0  0  0  0
  188.2240  173.6340  134.8090 O   0  0  0  0  0  1  0  0  0  0  0  0
  189.5690  173.5020  135.1290 C   0  0  0  0  0  0  0  0  0  0  0  0
  190.2210  172.5150  134.6940 O   0  0  0  0  0  0  0  0  0  0  0  0
  190.9750  175.5640  135.2140 C   0  0  0  0  0  2  0  0  0  0  0  0
  191.6980  176.4780  136.0850 N   0  0  0  0  0  2  0  0  0  0  0  0
  193.0190  175.9090  136.3000 C   0  0  1  0  0  3  0  0  0  0  0  0
  193.9860  176.7350  135.7550 F   0  0  0  0  0  0  0  0  0  0  0  0
  193.2710  175.7200  137.7860 C   0  0  0  0  0  2  0  0  0  0  0  0
  194.6430  175.5370  138.0310 O   0  0  0  0  0  0  0  0  0  0  0  0
  195.0530  174.3060  137.4710 C   0  0  2  0  0  3  0  0  0  0  0  0
  194.9140  173.2380  138.3690 O   0  0  0  0  0  1  0  0  0  0  0  0
  197.3970  174.7250  137.7830 F   0  0  0  0  0  0  0  0  0  0  0  0
  196.4660  175.2520  135.7960 F   0  0  0  0  0  0  0  0  0  0  0  0
  196.4510  174.3500  136.8450 C   0  0  0  0  0  0  0  0  0  0  0  0
  196.7720  173.0940  136.3630 F   0  0  0  0  0  0  0  0  0  0  0  0
  184.7560  179.1280  139.4870 C   0  0  1  0  0  3  0  0  0  0  0  0
  185.3460  179.3690  140.7370 O   0  0  0  0  0  0  0  0  0  0  0  0
  184.3820  179.0610  141.6350 N   0  0  0  0  0  2  0  0  0  0  0  0
  184.9000  178.0440  142.4450 N   0  0  0  0  0  2  0  0  0  0  0  0
  183.0070  179.2730  144.1890 C   0  0  0  0  0  1  0  0  0  0  0  0
  184.3400  178.8280  144.6880 C   0  0  0  0  0  0  0  0  0  0  0  0
  184.6540  179.0500  145.9910 N   0  0  0  0  0  0  0  0  0  0  0  0
  185.2670  178.2100  143.8270 C   0  0  0  0  0  0  0  0  0  0  0  0
  186.8000  178.0620  145.7080 C   0  0  0  0  0  3  0  0  0  0  0  0
  185.8530  178.6870  146.5120 C   0  0  0  0  0  3  0  0  0  0  0  0
  186.5170  177.7950  144.3590 C   0  0  0  0  0  0  0  0  0  0  0  0
  188.9490  177.6000  143.9520 C   0  0  0  0  0  2  0  0  0  0  0  0
  187.5720  177.1270  143.5160 C   0  0  0  0  0  3  0  0  0  0  0  0
  188.3530  178.1200  142.6660 C   0  0  0  0  0  2  0  0  0  0  0  0
  184.1300  180.2880  138.9830 O   0  0  0  0  0  0  0  0  0  0  0  0
  182.7980  179.9750  138.6540 C   0  0  0  0  0  2  0  0  0  0  0  0
  181.8900  181.1550  138.9660 C   0  0  0  0  0  2  0  0  0  0  0  0
  180.8600  183.5940  136.2600 C   0  0  0  0  0  0  0  0  0  0  0  0
  181.2420  181.6770  137.7270 C   0  0  0  0  0  0  0  0  0  0  0  0
  180.7400  180.8200  136.8320 C   0  0  0  0  0  3  0  0  0  0  0  0
  181.1970  183.1310  137.4670 C   0  0  0  0  0  3  0  0  0  0  0  0
  180.6320  182.6430  135.1140 C   0  0  0  0  0  2  0  0  0  0  0  0
  180.8080  185.0580  136.0190 C   0  0  0  0  0  1  0  0  0  0  0  0
  180.0210  181.3260  135.6080 C   0  0  1  0  0  3  0  0  0  0  0  0
  179.6670  179.1780  135.2030 C   0  0  0  0  0  1  0  0  0  0  0  0
  180.0700  180.3680  134.5940 O   0  0  0  0  0  0  0  0  0  0  0  0
  1  2  1  1  0  0  0
  1  8  1  0  0  0  0
  3  4  1  0  0  0  0
  4  6  2  0  0  0  0
  4  7  1  0  0  0  0
  5  8  1  0  0  0  0
  5 28  1  1  0  0  0
  6  1  1  0  0  0  0
  7  9  1  6  0  0  0
  7  5  1  0  0  0  0
 10 11  2  0  0  0  0
 10  6  1  0  0  0  0
 12 16  1  6  0  0  0
 12 11  1  0  0  0  0
 13 14  1  0  0  0  0
 14 12  1  0  0  0  0
 15 14  2  0  0  0  0
 16 17  1  0  0  0  0
 17 18  1  0  0  0  0
 18 19  1  1  0  0  0
 18 20  1  0  0  0  0
 20 21  1  0  0  0  0
 22 21  1  0  0  0  0
 22 23  1  1  0  0  0
 25 26  1  0  0  0  0
 26 22  1  0  0  0  0
 26 24  1  0  0  0  0
 27 26  1  0  0  0  0
 28 42  1  6  0  0  0
 28 29  1  0  0  0  0
 29 30  1  0  0  0  0
 30 31  1  0  0  0  0
 31 35  1  0  0  0  0
 32 33  1  0  0  0  0
 33 34  1  0  0  0  0
 34 37  2  0  0  0  0
 35 38  1  0  0  0  0
 35 33  2  0  0  0  0
 36 37  1  0  0  0  0
 38 36  2  0  0  0  0
 40 39  1  0  0  0  0
 40 38  1  0  0  0  0
 41 40  1  0  0  0  0
 41 39  1  0  0  0  0
 43 44  1  0  0  0  0
 43 42  1  0  0  0  0
 45 48  2  0  0  0  0
 46 44  1  0  0  0  0
 47 46  2  0  0  0  0
 48 46  1  0  0  0  0
 49 51  1  0  0  0  0
 49 45  1  0  0  0  0
 50 45  1  0  0  0  0
 51 53  1  6  0  0  0
 51 47  1  0  0  0  0
 53 52  1  0  0  0  0
M  END
>  <MODEL>
9

>  <REMARK>
 VINA RESULT:      -6.6      4.638     10.554
  Name = 
  21 active torsions:
  status: ('A' for Active; 'I' for Inactive)
    1  A    between atoms: N_6  and  C_13
    2  A    between atoms: N_6  and  C_44
    3  A    between atoms: C_11  and  C_13
    4  A    between atoms: C_11  and  N_27
    5  A    between atoms: C_11  and  C_42
    6  A    between atoms: C_12  and  C_41
    7  A    between atoms: C_14  and  C_26
    8  A    between atoms: C_14  and  O_40
    9  A    between atoms: O_20  and  C_32
   10  A    between atoms: O_20  and  N_34
   11  A    between atoms: C_21  and  C_32
   12  A    between atoms: N_22  and  C_25
   13  A    between atoms: N_28  and  N_34
   14  A    between atoms: N_28  and  C_38
   15  A    between atoms: C_32  and  O_45
   16  A    between atoms: C_36  and  C_41
   17  A    between atoms: C_36  and  O_45
   18  A    between atoms: C_37  and  O_43
   19  A    between atoms: O_40  and  C_48
   20  A    between atoms: C_44  and  C_48
   21  A    between atoms: C_49  and  C_52
                            x       y       z     vdW  Elec       q    Type
                         _______ _______ _______ _____ _____    ______ ____

>  <TORSDO>
F 21

$$$$
