=
 OpenBabel11042412283D

 27 29  0  0  1  0  0  0  0  0999 V2000
  191.7090  176.4540  146.3610 C   0  0  0  0  0  3  0  0  0  0  0  0
  191.2890  176.8880  145.1040 C   0  0  0  0  0  3  0  0  0  0  0  0
  187.5930  177.5490  145.8550 C   0  0  1  0  0  3  0  0  0  0  0  0
  184.6520  178.4390  144.3880 C   0  0  0  0  0  0  0  0  0  0  0  0
  189.5130  176.7110  147.2190 C   0  0  0  0  0  3  0  0  0  0  0  0
  189.9480  177.2430  144.8960 C   0  0  0  0  0  0  0  0  0  0  0  0
  187.1340  177.7250  144.4300 C   0  0  0  0  0  0  0  0  0  0  0  0
  186.0520  179.1020  147.1350 C   0  0  0  0  0  3  0  0  0  0  0  0
  188.1020  177.8590  143.3300 C   0  0  0  0  0  0  0  0  0  0  0  0
  187.7070  178.1470  142.1670 O   0  0  0  0  0  0  0  0  0  0  0  0
  189.0450  177.1610  145.9790 C   0  0  0  0  0  0  0  0  0  0  0  0
  187.2820  178.7720  146.6940 C   0  0  0  0  0  3  0  0  0  0  0  0
  189.4990  177.6480  143.5860 N   0  0  0  0  0  0  0  0  0  0  0  0
  185.8820  178.0460  144.2730 C   0  0  0  0  0  0  0  0  0  0  0  0
  184.1330  178.6860  145.6690 O   0  0  0  0  0  0  0  0  0  0  0  0
  190.8190  176.3720  147.3840 N   0  0  0  0  0  0  0  0  0  0  0  0
  183.8190  178.6800  143.1790 C   0  0  0  0  0  1  0  0  0  0  0  0
  184.8020  178.2930  146.8780 C   0  0  0  0  0  2  0  0  0  0  0  0
  190.4580  177.8380  142.5000 C   0  0  0  0  0  2  0  0  0  0  0  0
  190.3870  176.6680  141.5330 C   0  0  0  0  0  2  0  0  0  0  0  0
  190.9060  177.0920  140.1720 C   0  0  0  0  0  2  0  0  0  0  0  0
  190.5090  176.1200  139.1660 N   0  0  0  0  0  2  0  0  0  0  0  0
  189.4520  176.9160  138.0480 S   0  0  0  0  0  0  0  0  0  0  0  0
  190.1190  177.0290  136.7050 O   0  0  0  0  0  0  0  0  0  0  0  0
  188.1730  176.1370  137.9080 O   0  0  0  0  0  0  0  0  0  0  0  0
  189.0770  178.5420  138.6590 C   0  0  0  0  0  2  0  0  0  0  0  0
  188.9650  179.4700  137.5490 N   0  0  0  0  0  1  0  0  0  0  0  0
  1 16  1  0  0  0  0
  2  1  2  0  0  0  0
  3 11  1  0  0  0  0
  3 12  1  1  0  0  0
  4 15  1  0  0  0  0
  5 16  2  0  0  0  0
  6  2  1  0  0  0  0
  6 11  2  0  0  0  0
  7  3  1  0  0  0  0
  9 13  1  0  0  0  0
  9  7  1  0  0  0  0
 10  9  2  0  0  0  0
 11  5  1  0  0  0  0
 12  8  2  0  0  0  0
 13  6  1  0  0  0  0
 14  4  2  0  0  0  0
 14  7  2  0  0  0  0
 15 18  1  0  0  0  0
 17  4  1  0  0  0  0
 18  8  1  0  0  0  0
 19 13  1  0  0  0  0
 20 19  1  0  0  0  0
 21 20  1  0  0  0  0
 22 21  1  0  0  0  0
 23 26  1  0  0  0  0
 23 22  1  0  0  0  0
 24 23  2  0  0  0  0
 25 23  2  0  0  0  0
 27 26  1  0  0  0  0
M  END
>  <MODEL>
1

>  <REMARK>
 VINA RESULT:      -9.0      0.000      0.000
  Name = 
  6 active torsions:
  status: ('A' for Active; 'I' for Inactive)
    1  A    between atoms: S_4  and  C_12
    2  A    between atoms: S_4  and  N_23
    3  A    between atoms: C_7  and  C_16
    4  A    between atoms: C_7  and  C_21
    5  A    between atoms: C_16  and  N_23
    6  A    between atoms: N_20  and  C_21
                            x       y       z     vdW  Elec       q    Type
                         _______ _______ _______ _____ _____    ______ ____

>  <TORSDO>
F 6

$$$$
=
 OpenBabel11042412283D

 27 29  0  0  1  0  0  0  0  0999 V2000
  191.6480  176.4430  146.3880 C   0  0  0  0  0  3  0  0  0  0  0  0
  191.2190  176.8560  145.1280 C   0  0  0  0  0  3  0  0  0  0  0  0
  187.5350  177.5570  145.9040 C   0  0  1  0  0  3  0  0  0  0  0  0
  184.5860  178.4420  144.4510 C   0  0  0  0  0  0  0  0  0  0  0  0
  189.4640  176.7300  147.2640 C   0  0  0  0  0  3  0  0  0  0  0  0
  189.8790  177.2170  144.9270 C   0  0  0  0  0  0  0  0  0  0  0  0
  187.0630  177.7110  144.4810 C   0  0  0  0  0  0  0  0  0  0  0  0
  186.0190  179.1440  147.1710 C   0  0  0  0  0  3  0  0  0  0  0  0
  188.0210  177.8180  143.3690 C   0  0  0  0  0  0  0  0  0  0  0  0
  187.6160  178.0880  142.2050 O   0  0  0  0  0  0  0  0  0  0  0  0
  188.9860  177.1610  146.0200 C   0  0  0  0  0  0  0  0  0  0  0  0
  187.2420  178.7970  146.7240 C   0  0  0  0  0  3  0  0  0  0  0  0
  189.4190  177.6010  143.6150 N   0  0  0  0  0  0  0  0  0  0  0  0
  185.8120  178.0380  144.3310 C   0  0  0  0  0  0  0  0  0  0  0  0
  184.0820  178.7150  145.7320 O   0  0  0  0  0  0  0  0  0  0  0  0
  190.7690  176.3850  147.4220 N   0  0  0  0  0  0  0  0  0  0  0  0
  183.7430  178.6670  143.2470 C   0  0  0  0  0  1  0  0  0  0  0  0
  184.7610  178.3400  146.9420 C   0  0  0  0  0  2  0  0  0  0  0  0
  190.3680  177.7650  142.5160 C   0  0  0  0  0  2  0  0  0  0  0  0
  190.3690  176.5230  141.6400 C   0  0  0  0  0  2  0  0  0  0  0  0
  190.2990  176.9230  140.1790 C   0  0  0  0  0  2  0  0  0  0  0  0
  191.6420  177.0600  139.6380 N   0  0  0  0  0  2  0  0  0  0  0  0
  191.6690  176.2930  138.0850 S   0  0  0  0  0  0  0  0  0  0  0  0
  191.3500  174.8310  138.2310 O   0  0  0  0  0  0  0  0  0  0  0  0
  190.6570  176.9380  137.1770 O   0  0  0  0  0  0  0  0  0  0  0  0
  193.2870  176.4760  137.3730 C   0  0  0  0  0  2  0  0  0  0  0  0
  194.1800  175.4700  137.9170 N   0  0  0  0  0  1  0  0  0  0  0  0
  1 16  1  0  0  0  0
  2  1  2  0  0  0  0
  3 11  1  0  0  0  0
  3 12  1  1  0  0  0
  4 15  1  0  0  0  0
  5 16  2  0  0  0  0
  6  2  1  0  0  0  0
  6 11  2  0  0  0  0
  7  3  1  0  0  0  0
  9 13  1  0  0  0  0
  9  7  1  0  0  0  0
 10  9  2  0  0  0  0
 11  5  1  0  0  0  0
 12  8  2  0  0  0  0
 13  6  1  0  0  0  0
 14  4  2  0  0  0  0
 14  7  2  0  0  0  0
 15 18  1  0  0  0  0
 17  4  1  0  0  0  0
 18  8  1  0  0  0  0
 19 13  1  0  0  0  0
 20 19  1  0  0  0  0
 21 20  1  0  0  0  0
 22 21  1  0  0  0  0
 23 24  2  0  0  0  0
 23 22  1  0  0  0  0
 25 23  2  0  0  0  0
 26 27  1  0  0  0  0
 26 23  1  0  0  0  0
M  END
>  <MODEL>
2

>  <REMARK>
 VINA RESULT:      -8.8      1.317      1.838
  Name = 
  6 active torsions:
  status: ('A' for Active; 'I' for Inactive)
    1  A    between atoms: S_4  and  C_12
    2  A    between atoms: S_4  and  N_23
    3  A    between atoms: C_7  and  C_16
    4  A    between atoms: C_7  and  C_21
    5  A    between atoms: C_16  and  N_23
    6  A    between atoms: N_20  and  C_21
                            x       y       z     vdW  Elec       q    Type
                         _______ _______ _______ _____ _____    ______ ____

>  <TORSDO>
F 6

$$$$
=
 OpenBabel11042412283D

 27 29  0  0  1  0  0  0  0  0999 V2000
  189.6730  177.2110  147.2570 C   0  0  0  0  0  3  0  0  0  0  0  0
  189.8550  177.4810  145.9010 C   0  0  0  0  0  3  0  0  0  0  0  0
  186.2020  177.9040  144.8350 C   0  0  1  0  0  3  0  0  0  0  0  0
  184.2190  178.3960  142.1110 C   0  0  0  0  0  0  0  0  0  0  0  0
  187.3210  177.3690  147.0060 C   0  0  0  0  0  3  0  0  0  0  0  0
  188.7440  177.7010  145.0740 C   0  0  0  0  0  0  0  0  0  0  0  0
  186.4330  177.8980  143.3450 C   0  0  0  0  0  0  0  0  0  0  0  0
  184.2050  179.4440  145.0850 C   0  0  0  0  0  3  0  0  0  0  0  0
  187.7900  178.0000  142.7850 C   0  0  0  0  0  0  0  0  0  0  0  0
  187.9560  178.1370  141.5420 O   0  0  0  0  0  0  0  0  0  0  0  0
  187.4510  177.6530  145.6410 C   0  0  0  0  0  0  0  0  0  0  0  0
  185.5100  179.1750  145.2850 C   0  0  0  0  0  3  0  0  0  0  0  0
  188.9250  177.9330  143.6620 N   0  0  0  0  0  0  0  0  0  0  0  0
  185.3790  178.0960  142.6080 C   0  0  0  0  0  0  0  0  0  0  0  0
  183.1700  178.7250  142.9830 O   0  0  0  0  0  0  0  0  0  0  0  0
  188.4200  177.1580  147.7780 N   0  0  0  0  0  0  0  0  0  0  0  0
  184.0170  178.4440  140.6380 C   0  0  0  0  0  1  0  0  0  0  0  0
  183.2300  178.5130  144.4030 C   0  0  0  0  0  2  0  0  0  0  0  0
  190.2660  178.0920  143.1040 C   0  0  0  0  0  2  0  0  0  0  0  0
  190.7620  176.7640  142.5560 C   0  0  0  0  0  2  0  0  0  0  0  0
  191.2950  176.9540  141.1480 C   0  0  0  0  0  2  0  0  0  0  0  0
  190.3630  176.3870  140.1860 N   0  0  0  0  0  2  0  0  0  0  0  0
  191.1780  176.2780  138.6610 S   0  0  0  0  0  0  0  0  0  0  0  0
  191.1750  174.8530  138.1790 O   0  0  0  0  0  0  0  0  0  0  0  0
  190.4890  177.1510  137.6480 O   0  0  0  0  0  0  0  0  0  0  0  0
  192.8560  176.8300  138.8570 C   0  0  0  0  0  2  0  0  0  0  0  0
  193.7160  176.1330  137.9190 N   0  0  0  0  0  1  0  0  0  0  0  0
  1 16  1  0  0  0  0
  2  1  2  0  0  0  0
  3 12  1  1  0  0  0
  3 11  1  0  0  0  0
  4 14  2  0  0  0  0
  4 15  1  0  0  0  0
  5 16  2  0  0  0  0
  6 11  2  0  0  0  0
  6  2  1  0  0  0  0
  7  3  1  0  0  0  0
  8 12  2  0  0  0  0
  9  7  1  0  0  0  0
  9 13  1  0  0  0  0
 10  9  2  0  0  0  0
 11  5  1  0  0  0  0
 13  6  1  0  0  0  0
 14  7  2  0  0  0  0
 15 18  1  0  0  0  0
 17  4  1  0  0  0  0
 18  8  1  0  0  0  0
 19 13  1  0  0  0  0
 20 19  1  0  0  0  0
 21 20  1  0  0  0  0
 22 21  1  0  0  0  0
 23 26  1  0  0  0  0
 23 22  1  0  0  0  0
 24 23  2  0  0  0  0
 25 23  2  0  0  0  0
 27 26  1  0  0  0  0
M  END
>  <MODEL>
3

>  <REMARK>
 VINA RESULT:      -8.5      1.797      2.350
  Name = 
  6 active torsions:
  status: ('A' for Active; 'I' for Inactive)
    1  A    between atoms: S_4  and  C_12
    2  A    between atoms: S_4  and  N_23
    3  A    between atoms: C_7  and  C_16
    4  A    between atoms: C_7  and  C_21
    5  A    between atoms: C_16  and  N_23
    6  A    between atoms: N_20  and  C_21
                            x       y       z     vdW  Elec       q    Type
                         _______ _______ _______ _____ _____    ______ ____

>  <TORSDO>
F 6

$$$$
=
 OpenBabel11042412283D

 27 29  0  0  1  0  0  0  0  0999 V2000
  188.4210  177.9470  139.2400 C   0  0  0  0  0  3  0  0  0  0  0  0
  187.4710  178.2950  140.1990 C   0  0  0  0  0  3  0  0  0  0  0  0
  189.3890  177.3500  143.3760 C   0  0  1  0  0  3  0  0  0  0  0  0
  189.0780  177.1290  146.7590 C   0  0  0  0  0  0  0  0  0  0  0  0
  189.9140  177.2230  140.9340 C   0  0  0  0  0  3  0  0  0  0  0  0
  187.7460  178.1030  141.5610 C   0  0  0  0  0  0  0  0  0  0  0  0
  188.2360  177.4640  144.3400 C   0  0  0  0  0  0  0  0  0  0  0  0
  191.3750  178.0290  144.7960 C   0  0  0  0  0  3  0  0  0  0  0  0
  186.9620  178.0770  143.9330 C   0  0  0  0  0  0  0  0  0  0  0  0
  186.0600  178.2940  144.7870 O   0  0  0  0  0  0  0  0  0  0  0  0
  188.9970  177.5650  141.9350 C   0  0  0  0  0  0  0  0  0  0  0  0
  190.5340  178.2620  143.7690 C   0  0  0  0  0  3  0  0  0  0  0  0
  186.7480  178.4180  142.5540 N   0  0  0  0  0  0  0  0  0  0  0  0
  188.5250  177.2720  145.5940 C   0  0  0  0  0  0  0  0  0  0  0  0
  190.4750  177.0240  146.8420 O   0  0  0  0  0  0  0  0  0  0  0  0
  189.6130  177.4190  139.6230 N   0  0  0  0  0  0  0  0  0  0  0  0
  188.2480  177.1310  147.9930 C   0  0  0  0  0  1  0  0  0  0  0  0
  191.3180  176.8180  145.6960 C   0  0  0  0  0  2  0  0  0  0  0  0
  185.5020  179.0770  142.1690 C   0  0  0  0  0  2  0  0  0  0  0  0
  184.3860  178.0530  142.0510 C   0  0  0  0  0  2  0  0  0  0  0  0
  183.0520  178.7590  141.8990 C   0  0  0  0  0  2  0  0  0  0  0  0
  182.4600  178.9840  143.2080 N   0  0  0  0  0  2  0  0  0  0  0  0
  180.7400  179.0540  143.0060 S   0  0  0  0  0  0  0  0  0  0  0  0
  180.0610  178.4130  144.1840 O   0  0  0  0  0  0  0  0  0  0  0  0
  180.2960  180.4860  142.8890 O   0  0  0  0  0  0  0  0  0  0  0  0
  180.2930  178.1850  141.5220 C   0  0  0  0  0  2  0  0  0  0  0  0
  179.3800  177.1040  141.8420 N   0  0  0  0  0  1  0  0  0  0  0  0
  1 16  2  0  0  0  0
  1  2  1  0  0  0  0
  2  6  2  0  0  0  0
  3 12  1  1  0  0  0
  3  7  1  0  0  0  0
  4 15  1  0  0  0  0
  4 17  1  0  0  0  0
  5 11  2  0  0  0  0
  6 11  1  0  0  0  0
  6 13  1  0  0  0  0
  7 14  2  0  0  0  0
  8 18  1  0  0  0  0
  9  7  1  0  0  0  0
  9 10  2  0  0  0  0
 11  3  1  0  0  0  0
 12  8  2  0  0  0  0
 13  9  1  0  0  0  0
 14  4  2  0  0  0  0
 16  5  1  0  0  0  0
 18 15  1  0  0  0  0
 19 13  1  0  0  0  0
 20 19  1  0  0  0  0
 21 20  1  0  0  0  0
 21 22  1  0  0  0  0
 23 22  1  0  0  0  0
 23 24  2  0  0  0  0
 25 23  2  0  0  0  0
 26 27  1  0  0  0  0
 26 23  1  0  0  0  0
M  END
>  <MODEL>
4

>  <REMARK>
 VINA RESULT:      -8.2      3.854      6.912
  Name = 
  6 active torsions:
  status: ('A' for Active; 'I' for Inactive)
    1  A    between atoms: S_4  and  C_12
    2  A    between atoms: S_4  and  N_23
    3  A    between atoms: C_7  and  C_16
    4  A    between atoms: C_7  and  C_21
    5  A    between atoms: C_16  and  N_23
    6  A    between atoms: N_20  and  C_21
                            x       y       z     vdW  Elec       q    Type
                         _______ _______ _______ _____ _____    ______ ____

>  <TORSDO>
F 6

$$$$
=
 OpenBabel11042412283D

 27 29  0  0  1  0  0  0  0  0999 V2000
  188.2420  177.9500  139.3680 C   0  0  0  0  0  3  0  0  0  0  0  0
  187.3250  178.3320  140.3450 C   0  0  0  0  0  3  0  0  0  0  0  0
  189.2900  177.3540  143.4830 C   0  0  1  0  0  3  0  0  0  0  0  0
  189.0520  177.1650  146.8750 C   0  0  0  0  0  0  0  0  0  0  0  0
  189.7530  177.1960  141.0310 C   0  0  0  0  0  3  0  0  0  0  0  0
  187.6260  178.1420  141.7020 C   0  0  0  0  0  0  0  0  0  0  0  0
  188.1640  177.5080  144.4730 C   0  0  0  0  0  0  0  0  0  0  0  0
  191.3280  177.9860  144.8520 C   0  0  0  0  0  3  0  0  0  0  0  0
  186.8990  178.1540  144.0920 C   0  0  0  0  0  0  0  0  0  0  0  0
  186.0230  178.4020  144.9650 O   0  0  0  0  0  0  0  0  0  0  0  0
  188.8700  177.5700  142.0510 C   0  0  0  0  0  0  0  0  0  0  0  0
  190.4700  178.2360  143.8430 C   0  0  0  0  0  3  0  0  0  0  0  0
  186.6620  178.4920  142.7160 N   0  0  0  0  0  0  0  0  0  0  0  0
  188.4770  177.3160  145.7220 C   0  0  0  0  0  0  0  0  0  0  0  0
  190.4470  177.0210  146.9250 O   0  0  0  0  0  0  0  0  0  0  0  0
  189.4270  177.3910  139.7260 N   0  0  0  0  0  0  0  0  0  0  0  0
  188.2530  177.1990  148.1280 C   0  0  0  0  0  1  0  0  0  0  0  0
  191.2570  176.7830  145.7620 C   0  0  0  0  0  2  0  0  0  0  0  0
  185.4260  179.1840  142.3560 C   0  0  0  0  0  2  0  0  0  0  0  0
  184.2490  178.2280  142.4470 C   0  0  0  0  0  2  0  0  0  0  0  0
  183.7620  177.8750  141.0540 C   0  0  0  0  0  2  0  0  0  0  0  0
  182.7850  178.8560  140.6080 N   0  0  0  0  0  2  0  0  0  0  0  0
  183.2490  179.3820  139.0240 S   0  0  0  0  0  0  0  0  0  0  0  0
  182.1770  180.2630  138.4440 O   0  0  0  0  0  0  0  0  0  0  0  0
  184.5420  180.1470  139.0960 O   0  0  0  0  0  0  0  0  0  0  0  0
  183.4720  177.9610  137.9810 C   0  0  0  0  0  2  0  0  0  0  0  0
  184.8790  177.8010  137.6620 N   0  0  0  0  0  1  0  0  0  0  0  0
  1 16  2  0  0  0  0
  1  2  1  0  0  0  0
  2  6  2  0  0  0  0
  3 12  1  1  0  0  0
  3  7  1  0  0  0  0
  4 15  1  0  0  0  0
  4 17  1  0  0  0  0
  5 11  2  0  0  0  0
  6 11  1  0  0  0  0
  6 13  1  0  0  0  0
  7 14  2  0  0  0  0
  8 18  1  0  0  0  0
  9  7  1  0  0  0  0
  9 10  2  0  0  0  0
 11  3  1  0  0  0  0
 12  8  2  0  0  0  0
 13  9  1  0  0  0  0
 14  4  2  0  0  0  0
 16  5  1  0  0  0  0
 18 15  1  0  0  0  0
 19 20  1  0  0  0  0
 19 13  1  0  0  0  0
 21 20  1  0  0  0  0
 22 21  1  0  0  0  0
 23 25  2  0  0  0  0
 23 22  1  0  0  0  0
 24 23  2  0  0  0  0
 26 23  1  0  0  0  0
 27 26  1  0  0  0  0
M  END
>  <MODEL>
5

>  <REMARK>
 VINA RESULT:      -8.2      3.305      5.732
  Name = 
  6 active torsions:
  status: ('A' for Active; 'I' for Inactive)
    1  A    between atoms: S_4  and  C_12
    2  A    between atoms: S_4  and  N_23
    3  A    between atoms: C_7  and  C_16
    4  A    between atoms: C_7  and  C_21
    5  A    between atoms: C_16  and  N_23
    6  A    between atoms: N_20  and  C_21
                            x       y       z     vdW  Elec       q    Type
                         _______ _______ _______ _____ _____    ______ ____

>  <TORSDO>
F 6

$$$$
=
 OpenBabel11042412283D

 27 29  0  0  1  0  0  0  0  0999 V2000
  187.8580  177.8770  147.9850 C   0  0  0  0  0  3  0  0  0  0  0  0
  186.8860  177.8940  146.9860 C   0  0  0  0  0  3  0  0  0  0  0  0
  189.1370  177.6600  143.8970 C   0  0  1  0  0  3  0  0  0  0  0  0
  189.0740  177.7170  140.4930 C   0  0  0  0  0  0  0  0  0  0  0  0
  189.5770  177.7490  146.3560 C   0  0  0  0  0  3  0  0  0  0  0  0
  187.2650  177.8370  145.6360 C   0  0  0  0  0  0  0  0  0  0  0  0
  188.0840  177.9740  142.8650 C   0  0  0  0  0  0  0  0  0  0  0  0
  190.6820  176.0800  142.6560 C   0  0  0  0  0  3  0  0  0  0  0  0
  186.6560  178.0040  143.2190 C   0  0  0  0  0  0  0  0  0  0  0  0
  185.7800  178.1270  142.3200 O   0  0  0  0  0  0  0  0  0  0  0  0
  188.6390  177.7530  145.3170 C   0  0  0  0  0  0  0  0  0  0  0  0
  189.7870  176.3160  143.6350 C   0  0  0  0  0  3  0  0  0  0  0  0
  186.2660  177.9020  144.5980 N   0  0  0  0  0  0  0  0  0  0  0  0
  188.4720  177.9200  141.6240 C   0  0  0  0  0  0  0  0  0  0  0  0
  190.3800  177.2040  140.4990 O   0  0  0  0  0  0  0  0  0  0  0  0
  189.1740  177.8090  147.6530 N   0  0  0  0  0  0  0  0  0  0  0  0
  188.3700  177.9700  139.2070 C   0  0  0  0  0  1  0  0  0  0  0  0
  191.1880  177.1200  141.6850 C   0  0  0  0  0  2  0  0  0  0  0  0
  184.8450  177.8760  144.9350 C   0  0  0  0  0  2  0  0  0  0  0  0
  184.2240  179.2390  144.6800 C   0  0  0  0  0  2  0  0  0  0  0  0
  182.7490  179.0820  144.3620 C   0  0  0  0  0  2  0  0  0  0  0  0
  182.5570  179.0210  142.9210 N   0  0  0  0  0  2  0  0  0  0  0  0
  180.8540  179.0770  142.6110 S   0  0  0  0  0  0  0  0  0  0  0  0
  180.3600  180.4930  142.7230 O   0  0  0  0  0  0  0  0  0  0  0  0
  180.5660  178.5530  141.2310 O   0  0  0  0  0  0  0  0  0  0  0  0
  180.0120  178.0630  143.8030 C   0  0  0  0  0  2  0  0  0  0  0  0
  178.9320  178.8160  144.4140 N   0  0  0  0  0  1  0  0  0  0  0  0
  2  1  2  0  0  0  0
  3 12  1  6  0  0  0
  3 11  1  0  0  0  0
  4 15  1  0  0  0  0
  4 14  2  0  0  0  0
  5 16  2  0  0  0  0
  6  2  1  0  0  0  0
  7  9  1  0  0  0  0
  7  3  1  0  0  0  0
  8 12  2  0  0  0  0
  9 13  1  0  0  0  0
 10  9  2  0  0  0  0
 11  6  2  0  0  0  0
 11  5  1  0  0  0  0
 13 19  1  0  0  0  0
 13  6  1  0  0  0  0
 14  7  2  0  0  0  0
 15 18  1  0  0  0  0
 16  1  1  0  0  0  0
 17  4  1  0  0  0  0
 18  8  1  0  0  0  0
 20 19  1  0  0  0  0
 21 20  1  0  0  0  0
 22 21  1  0  0  0  0
 23 24  2  0  0  0  0
 23 22  1  0  0  0  0
 23 26  1  0  0  0  0
 25 23  2  0  0  0  0
 26 27  1  0  0  0  0
M  END
>  <MODEL>
6

>  <REMARK>
 VINA RESULT:      -7.9      3.825      6.728
  Name = 
  6 active torsions:
  status: ('A' for Active; 'I' for Inactive)
    1  A    between atoms: S_4  and  C_12
    2  A    between atoms: S_4  and  N_23
    3  A    between atoms: C_7  and  C_16
    4  A    between atoms: C_7  and  C_21
    5  A    between atoms: C_16  and  N_23
    6  A    between atoms: N_20  and  C_21
                            x       y       z     vdW  Elec       q    Type
                         _______ _______ _______ _____ _____    ______ ____

>  <TORSDO>
F 6

$$$$
=
 OpenBabel11042412283D

 27 29  0  0  1  0  0  0  0  0999 V2000
  184.5810  178.6380  145.9450 C   0  0  0  0  0  3  0  0  0  0  0  0
  184.3420  178.7580  144.5770 C   0  0  0  0  0  3  0  0  0  0  0  0
  187.8080  177.8380  143.2360 C   0  0  1  0  0  3  0  0  0  0  0  0
  189.6290  177.6230  140.3670 C   0  0  0  0  0  0  0  0  0  0  0  0
  186.8390  178.0450  145.5310 C   0  0  0  0  0  3  0  0  0  0  0  0
  185.3750  178.5170  143.6600 C   0  0  0  0  0  0  0  0  0  0  0  0
  187.5830  178.2620  141.8070 C   0  0  0  0  0  0  0  0  0  0  0  0
  189.4140  175.8920  142.9940 C   0  0  0  0  0  3  0  0  0  0  0  0
  186.2360  178.5960  141.3160 C   0  0  0  0  0  0  0  0  0  0  0  0
  186.0430  178.8110  140.0880 O   0  0  0  0  0  0  0  0  0  0  0  0
  186.6470  178.1440  144.1480 C   0  0  0  0  0  0  0  0  0  0  0  0
  188.2010  176.3770  143.3260 C   0  0  0  0  0  3  0  0  0  0  0  0
  185.1450  178.6860  142.2460 N   0  0  0  0  0  0  0  0  0  0  0  0
  188.5650  178.0320  140.9850 C   0  0  0  0  0  0  0  0  0  0  0  0
  190.5800  176.8700  141.0730 O   0  0  0  0  0  0  0  0  0  0  0  0
  185.8160  178.2890  146.3920 N   0  0  0  0  0  0  0  0  0  0  0  0
  189.8130  177.8990  138.9170 C   0  0  0  0  0  1  0  0  0  0  0  0
  190.5700  176.7310  142.5030 C   0  0  0  0  0  2  0  0  0  0  0  0
  183.8020  178.9630  141.7420 C   0  0  0  0  0  2  0  0  0  0  0  0
  183.2340  177.7250  141.0690 C   0  0  0  0  0  2  0  0  0  0  0  0
  181.7600  177.9290  140.7740 C   0  0  0  0  0  2  0  0  0  0  0  0
  181.3020  179.1710  141.3770 N   0  0  0  0  0  2  0  0  0  0  0  0
  180.2090  178.7660  142.6580 S   0  0  0  0  0  0  0  0  0  0  0  0
  179.5480  177.4460  142.3690 O   0  0  0  0  0  0  0  0  0  0  0  0
  180.9560  178.6770  143.9610 O   0  0  0  0  0  0  0  0  0  0  0  0
  178.9680  180.0310  142.7860 C   0  0  0  0  0  2  0  0  0  0  0  0
  179.3830  181.2050  142.0400 N   0  0  0  0  0  1  0  0  0  0  0  0
  1 16  1  0  0  0  0
  2  1  2  0  0  0  0
  3 12  1  6  0  0  0
  3 11  1  0  0  0  0
  4 14  2  0  0  0  0
  4 15  1  0  0  0  0
  5 16  2  0  0  0  0
  6 11  2  0  0  0  0
  6  2  1  0  0  0  0
  7  3  1  0  0  0  0
  8 12  2  0  0  0  0
  9  7  1  0  0  0  0
  9 13  1  0  0  0  0
 10  9  2  0  0  0  0
 11  5  1  0  0  0  0
 13  6  1  0  0  0  0
 14  7  2  0  0  0  0
 15 18  1  0  0  0  0
 17  4  1  0  0  0  0
 18  8  1  0  0  0  0
 19 13  1  0  0  0  0
 20 19  1  0  0  0  0
 21 20  1  0  0  0  0
 21 22  1  0  0  0  0
 22 23  1  0  0  0  0
 23 26  1  0  0  0  0
 23 25  2  0  0  0  0
 24 23  2  0  0  0  0
 27 26  1  0  0  0  0
M  END
>  <MODEL>
7

>  <REMARK>
 VINA RESULT:      -7.9      4.221      7.188
  Name = 
  6 active torsions:
  status: ('A' for Active; 'I' for Inactive)
    1  A    between atoms: S_4  and  C_12
    2  A    between atoms: S_4  and  N_23
    3  A    between atoms: C_7  and  C_16
    4  A    between atoms: C_7  and  C_21
    5  A    between atoms: C_16  and  N_23
    6  A    between atoms: N_20  and  C_21
                            x       y       z     vdW  Elec       q    Type
                         _______ _______ _______ _____ _____    ______ ____

>  <TORSDO>
F 6

$$$$
=
 OpenBabel11042412283D

 27 29  0  0  1  0  0  0  0  0999 V2000
  188.5840  177.8980  139.1990 C   0  0  0  0  0  3  0  0  0  0  0  0
  187.6100  178.2450  140.1340 C   0  0  0  0  0  3  0  0  0  0  0  0
  189.4620  177.3360  143.3600 C   0  0  1  0  0  3  0  0  0  0  0  0
  189.0760  177.1360  146.7370 C   0  0  0  0  0  0  0  0  0  0  0  0
  190.0430  177.1960  140.9320 C   0  0  0  0  0  3  0  0  0  0  0  0
  187.8550  178.0650  141.5030 C   0  0  0  0  0  0  0  0  0  0  0  0
  188.2870  177.4490  144.2970 C   0  0  0  0  0  0  0  0  0  0  0  0
  191.4110  178.0400  144.8200 C   0  0  0  0  0  3  0  0  0  0  0  0
  187.0180  178.0500  143.8570 C   0  0  0  0  0  0  0  0  0  0  0  0
  186.0950  178.2660  144.6880 O   0  0  0  0  0  0  0  0  0  0  0  0
  189.1010  177.5380  141.9100 C   0  0  0  0  0  0  0  0  0  0  0  0
  190.5920  178.2590  143.7730 C   0  0  0  0  0  3  0  0  0  0  0  0
  186.8330  178.3800  142.4710 N   0  0  0  0  0  0  0  0  0  0  0  0
  188.5490  177.2670  145.5580 C   0  0  0  0  0  0  0  0  0  0  0  0
  190.4710  177.0420  146.8520 O   0  0  0  0  0  0  0  0  0  0  0  0
  189.7710  177.3810  139.6130 N   0  0  0  0  0  0  0  0  0  0  0  0
  188.2180  177.1410  147.9520 C   0  0  0  0  0  1  0  0  0  0  0  0
  191.3420  176.8340  145.7270 C   0  0  0  0  0  2  0  0  0  0  0  0
  185.5920  179.0270  142.0540 C   0  0  0  0  0  2  0  0  0  0  0  0
  184.4280  178.0600  142.1900 C   0  0  0  0  0  2  0  0  0  0  0  0
  183.6850  177.9580  140.8710 C   0  0  0  0  0  2  0  0  0  0  0  0
  182.9610  179.1940  140.6150 N   0  0  0  0  0  2  0  0  0  0  0  0
  181.2880  178.9090  140.9600 S   0  0  0  0  0  0  0  0  0  0  0  0
  180.4290  179.7800  140.0840 O   0  0  0  0  0  0  0  0  0  0  0  0
  180.9520  177.4630  140.7120 O   0  0  0  0  0  0  0  0  0  0  0  0
  180.9720  179.2940  142.6660 C   0  0  0  0  0  2  0  0  0  0  0  0
  180.1370  180.4770  142.7560 N   0  0  0  0  0  1  0  0  0  0  0  0
  1 16  2  0  0  0  0
  1  2  1  0  0  0  0
  2  6  2  0  0  0  0
  3 12  1  1  0  0  0
  3  7  1  0  0  0  0
  4 15  1  0  0  0  0
  4 17  1  0  0  0  0
  5 11  2  0  0  0  0
  6 11  1  0  0  0  0
  6 13  1  0  0  0  0
  7 14  2  0  0  0  0
  8 18  1  0  0  0  0
  9  7  1  0  0  0  0
  9 10  2  0  0  0  0
 11  3  1  0  0  0  0
 12  8  2  0  0  0  0
 13  9  1  0  0  0  0
 14  4  2  0  0  0  0
 16  5  1  0  0  0  0
 18 15  1  0  0  0  0
 19 20  1  0  0  0  0
 19 13  1  0  0  0  0
 21 20  1  0  0  0  0
 22 21  1  0  0  0  0
 22 23  1  0  0  0  0
 23 26  1  0  0  0  0
 24 23  2  0  0  0  0
 25 23  2  0  0  0  0
 26 27  1  0  0  0  0
M  END
>  <MODEL>
8

>  <REMARK>
 VINA RESULT:      -7.8      3.818      6.449
  Name = 
  6 active torsions:
  status: ('A' for Active; 'I' for Inactive)
    1  A    between atoms: S_4  and  C_12
    2  A    between atoms: S_4  and  N_23
    3  A    between atoms: C_7  and  C_16
    4  A    between atoms: C_7  and  C_21
    5  A    between atoms: C_16  and  N_23
    6  A    between atoms: N_20  and  C_21
                            x       y       z     vdW  Elec       q    Type
                         _______ _______ _______ _____ _____    ______ ____

>  <TORSDO>
F 6

$$$$
=
 OpenBabel11042412283D

 27 29  0  0  1  0  0  0  0  0999 V2000
  187.4190  178.2870  139.4620 C   0  0  0  0  0  3  0  0  0  0  0  0
  188.5770  177.7220  139.9950 C   0  0  0  0  0  3  0  0  0  0  0  0
  187.7860  178.0360  143.7280 C   0  0  1  0  0  3  0  0  0  0  0  0
  189.1110  177.5400  146.8250 C   0  0  0  0  0  0  0  0  0  0  0  0
  186.5700  178.6820  141.6410 C   0  0  0  0  0  3  0  0  0  0  0  0
  188.7390  177.6330  141.3850 C   0  0  0  0  0  0  0  0  0  0  0  0
  189.1590  177.6930  144.2470 C   0  0  0  0  0  0  0  0  0  0  0  0
  186.2610  177.1290  145.5390 C   0  0  0  0  0  3  0  0  0  0  0  0
  190.1940  177.1450  143.3560 C   0  0  0  0  0  0  0  0  0  0  0  0
  191.2870  176.7310  143.8310 O   0  0  0  0  0  0  0  0  0  0  0  0
  187.7100  178.1150  142.2240 C   0  0  0  0  0  0  0  0  0  0  0  0
  186.7340  177.0930  144.2770 C   0  0  0  0  0  3  0  0  0  0  0  0
  189.9550  177.0920  141.9410 N   0  0  0  0  0  0  0  0  0  0  0  0
  189.2760  177.6280  145.5410 C   0  0  0  0  0  0  0  0  0  0  0  0
  187.8180  177.6630  147.3550 O   0  0  0  0  0  0  0  0  0  0  0  0
  186.4480  178.7560  140.2890 N   0  0  0  0  0  0  0  0  0  0  0  0
  190.2670  177.2590  147.7170 C   0  0  0  0  0  1  0  0  0  0  0  0
  186.6930  178.1250  146.5900 C   0  0  0  0  0  2  0  0  0  0  0  0
  190.9650  176.4940  141.0710 C   0  0  0  0  0  2  0  0  0  0  0  0
  192.0640  177.5030  140.7790 C   0  0  0  0  0  2  0  0  0  0  0  0
  192.4500  177.4350  139.3140 C   0  0  0  0  0  2  0  0  0  0  0  0
  193.6730  176.6630  139.1590 N   0  0  0  0  0  2  0  0  0  0  0  0
  193.5600  175.7830  137.6710 S   0  0  0  0  0  0  0  0  0  0  0  0
  194.2820  176.5270  136.5810 O   0  0  0  0  0  0  0  0  0  0  0  0
  194.1690  174.4180  137.8360 O   0  0  0  0  0  0  0  0  0  0  0  0
  191.8480  175.6060  137.2300 C   0  0  0  0  0  2  0  0  0  0  0  0
  191.2610  174.5030  137.9680 N   0  0  0  0  0  1  0  0  0  0  0  0
  1  2  2  0  0  0  0
  1 16  1  0  0  0  0
  2  6  1  0  0  0  0
  3  7  1  0  0  0  0
  3 12  1  6  0  0  0
  4 15  1  0  0  0  0
  4 17  1  0  0  0  0
  5 11  1  0  0  0  0
  6 13  1  0  0  0  0
  6 11  2  0  0  0  0
  7 14  2  0  0  0  0
  8 18  1  0  0  0  0
  9 10  2  0  0  0  0
  9  7  1  0  0  0  0
 11  3  1  0  0  0  0
 12  8  2  0  0  0  0
 13  9  1  0  0  0  0
 14  4  2  0  0  0  0
 16  5  2  0  0  0  0
 18 15  1  0  0  0  0
 19 13  1  0  0  0  0
 20 19  1  0  0  0  0
 21 20  1  0  0  0  0
 22 21  1  0  0  0  0
 23 25  2  0  0  0  0
 23 22  1  0  0  0  0
 24 23  2  0  0  0  0
 26 23  1  0  0  0  0
 26 27  1  0  0  0  0
M  END
>  <MODEL>
9

>  <REMARK>
 VINA RESULT:      -7.5      2.762      4.608
  Name = 
  6 active torsions:
  status: ('A' for Active; 'I' for Inactive)
    1  A    between atoms: S_4  and  C_12
    2  A    between atoms: S_4  and  N_23
    3  A    between atoms: C_7  and  C_16
    4  A    between atoms: C_7  and  C_21
    5  A    between atoms: C_16  and  N_23
    6  A    between atoms: N_20  and  C_21
                            x       y       z     vdW  Elec       q    Type
                         _______ _______ _______ _____ _____    ______ ____

>  <TORSDO>
F 6

$$$$
