=
 OpenBabel11032420163D

 28 29  0  0  1  0  0  0  0  0999 V2000
  190.1300  176.3200  142.8080 C   0  0  0  0  0  0  0  0  0  0  0  0
  191.0960  176.2130  145.0690 C   0  0  0  0  0  2  0  0  0  0  0  0
  187.7570  177.8960  145.0350 N   0  0  0  0  0  0  0  0  0  0  0  0
  188.7750  176.2970  143.4570 C   0  0  0  0  0  2  0  0  0  0  0  0
  190.0050  177.1570  145.5890 C   0  0  1  0  0  3  0  0  0  0  0  0
  191.2240  176.2920  143.5770 C   0  0  0  0  0  3  0  0  0  0  0  0
  188.7710  177.1430  144.7080 C   0  0  0  0  0  0  0  0  0  0  0  0
  185.1140  178.3540  142.6320 C   0  0  0  0  0  0  0  0  0  0  0  0
  185.3000  178.0720  144.9210 C   0  0  0  0  0  3  0  0  0  0  0  0
  186.4010  178.2280  142.9180 C   0  0  0  0  0  3  0  0  0  0  0  0
  184.2650  178.2720  143.8650 C   0  0  1  0  0  3  0  0  0  0  0  0
  186.5000  178.0550  144.3550 C   0  0  0  0  0  0  0  0  0  0  0  0
  183.5520  179.5910  144.1060 C   0  0  0  0  0  1  0  0  0  0  0  0
  183.5860  177.8540  140.8940 O   0  0  0  0  0  0  0  0  0  0  0  0
  184.5930  178.5110  141.2650 C   0  0  0  0  0  0  0  0  0  0  0  0
  185.2210  179.4050  140.3500 N   0  0  0  0  0  1  0  0  0  0  0  0
  189.1040  178.4060  140.9920 O   0  0  0  0  0  0  0  0  0  0  0  0
  190.2060  176.3680  141.3760 N   0  0  0  0  0  2  0  0  0  0  0  0
  189.6890  177.3940  140.5200 C   0  0  0  0  0  0  0  0  0  0  0  0
  189.8650  177.2570  139.0410 C   0  0  1  0  0  3  0  0  0  0  0  0
  190.3200  175.9130  138.7240 N   0  0  0  0  0  1  0  0  0  0  0  0
  188.4030  176.6780  137.2360 O   0  0  0  0  0  1  0  0  0  0  0  0
  188.5660  177.5640  138.3020 C   0  0  0  0  0  3  0  0  0  0  0  0
  188.5920  178.8700  137.8090 O   0  0  0  0  0  1  0  0  0  0  0  0
  189.6680  176.7640  147.0200 C   0  0  0  0  0  2  0  0  0  0  0  0
  190.2400  177.6700  147.9150 O   0  0  0  0  0  0  0  0  0  0  0  0
  187.9590  177.4420  148.5410 C   0  0  0  0  0  1  0  0  0  0  0  0
  189.1560  178.3660  148.4510 C   0  0  0  0  0  2  0  0  0  0  0  0
  1  4  1  0  0  0  0
  1  6  2  0  0  0  0
  2  5  1  0  0  0  0
  4  7  1  0  0  0  0
  5 25  1  1  0  0  0
  6  2  1  0  0  0  0
  7  3  2  0  0  0  0
  7  5  1  0  0  0  0
  8 10  2  0  0  0  0
  8 11  1  0  0  0  0
 10 12  1  0  0  0  0
 11 13  1  1  0  0  0
 11  9  1  0  0  0  0
 12  9  2  0  0  0  0
 12  3  1  0  0  0  0
 14 15  2  0  0  0  0
 15  8  1  0  0  0  0
 16 15  1  0  0  0  0
 18  1  1  0  0  0  0
 19 17  2  0  0  0  0
 19 18  1  0  0  0  0
 20 21  1  1  0  0  0
 20 19  1  0  0  0  0
 22 23  1  0  0  0  0
 23 20  1  0  0  0  0
 24 23  1  0  0  0  0
 25 26  1  0  0  0  0
 26 28  1  0  0  0  0
 28 27  1  0  0  0  0
M  END
>  <MODEL>
1

>  <REMARK>
 VINA RESULT:      -8.4      0.000      0.000
  Name = 
  8 active torsions:
  status: ('A' for Active; 'I' for Inactive)
    1  A    between atoms: C_1  and  C_15
    2  A    between atoms: O_2  and  C_10
    3  A    between atoms: O_2  and  C_22
    4  A    between atoms: CA_3  and  C_16
    5  A    between atoms: CA_3  and  C_27
    6  A    between atoms: C_5  and  N_26
    7  A    between atoms: C_10  and  C_19
    8  A    between atoms: N_12  and  C_23
                            x       y       z     vdW  Elec       q    Type
                         _______ _______ _______ _____ _____    ______ ____

>  <TORSDO>
F 8

$$$$
=
 OpenBabel11032420163D

 28 29  0  0  1  0  0  0  0  0999 V2000
  190.6770  177.7530  142.8880 C   0  0  0  0  0  0  0  0  0  0  0  0
  190.7330  177.3290  140.4640 C   0  0  0  0  0  2  0  0  0  0  0  0
  187.2430  177.6670  141.7640 N   0  0  0  0  0  0  0  0  0  0  0  0
  189.3870  178.4880  142.6640 C   0  0  0  0  0  2  0  0  0  0  0  0
  189.2150  177.1040  140.4610 C   0  0  1  0  0  3  0  0  0  0  0  0
  191.3040  177.1970  141.8440 C   0  0  0  0  0  3  0  0  0  0  0  0
  188.5380  177.7700  141.6420 C   0  0  0  0  0  0  0  0  0  0  0  0
  185.6030  178.5050  144.8590 C   0  0  0  0  0  0  0  0  0  0  0  0
  185.3790  179.0370  142.6180 C   0  0  0  0  0  3  0  0  0  0  0  0
  186.5470  177.8560  144.1950 C   0  0  0  0  0  3  0  0  0  0  0  0
  184.7510  179.3280  143.9400 C   0  0  1  0  0  3  0  0  0  0  0  0
  186.3920  178.1980  142.7940 C   0  0  0  0  0  0  0  0  0  0  0  0
  183.3220  178.8140  143.9400 C   0  0  0  0  0  1  0  0  0  0  0  0
  184.3120  178.6020  146.8410 O   0  0  0  0  0  0  0  0  0  0  0  0
  185.4480  178.4500  146.3210 C   0  0  0  0  0  0  0  0  0  0  0  0
  186.5770  178.2240  147.1600 N   0  0  0  0  0  1  0  0  0  0  0  0
  189.4560  176.5000  145.2620 O   0  0  0  0  0  0  0  0  0  0  0  0
  191.2020  177.6750  144.2210 N   0  0  0  0  0  2  0  0  0  0  0  0
  190.5790  177.0650  145.3580 C   0  0  0  0  0  0  0  0  0  0  0  0
  191.2890  177.0930  146.6730 C   0  0  1  0  0  3  0  0  0  0  0  0
  190.3740  177.5280  147.7150 N   0  0  0  0  0  1  0  0  0  0  0  0
  192.8590  175.8570  147.9920 O   0  0  0  0  0  1  0  0  0  0  0  0
  191.8700  175.7250  147.0150 C   0  0  0  0  0  3  0  0  0  0  0  0
  192.4300  175.1440  145.8760 O   0  0  0  0  0  1  0  0  0  0  0  0
  188.6550  177.6140  139.1420 C   0  0  0  0  0  2  0  0  0  0  0  0
  189.0250  178.9450  138.9430 O   0  0  0  0  0  0  0  0  0  0  0  0
  187.8200  178.4920  136.9460 C   0  0  0  0  0  1  0  0  0  0  0  0
  189.0680  179.0960  137.5570 C   0  0  0  0  0  2  0  0  0  0  0  0
  1 18  1  0  0  0  0
  2  6  1  0  0  0  0
  3 12  1  0  0  0  0
  4  1  1  0  0  0  0
  5 25  1  6  0  0  0
  5  2  1  0  0  0  0
  5  7  1  0  0  0  0
  6  1  2  0  0  0  0
  7  3  2  0  0  0  0
  7  4  1  0  0  0  0
  8 15  1  0  0  0  0
  9 12  2  0  0  0  0
  9 11  1  0  0  0  0
 10  8  2  0  0  0  0
 11 13  1  6  0  0  0
 11  8  1  0  0  0  0
 12 10  1  0  0  0  0
 15 14  2  0  0  0  0
 15 16  1  0  0  0  0
 17 19  2  0  0  0  0
 18 19  1  0  0  0  0
 19 20  1  0  0  0  0
 20 23  1  0  0  0  0
 20 21  1  1  0  0  0
 23 22  1  0  0  0  0
 24 23  1  0  0  0  0
 26 25  1  0  0  0  0
 27 28  1  0  0  0  0
 28 26  1  0  0  0  0
M  END
>  <MODEL>
2

>  <REMARK>
 VINA RESULT:      -7.9      2.346      6.368
  Name = 
  8 active torsions:
  status: ('A' for Active; 'I' for Inactive)
    1  A    between atoms: C_1  and  C_15
    2  A    between atoms: O_2  and  C_10
    3  A    between atoms: O_2  and  C_22
    4  A    between atoms: CA_3  and  C_16
    5  A    between atoms: CA_3  and  C_27
    6  A    between atoms: C_5  and  N_26
    7  A    between atoms: C_10  and  C_19
    8  A    between atoms: N_12  and  C_23
                            x       y       z     vdW  Elec       q    Type
                         _______ _______ _______ _____ _____    ______ ____

>  <TORSDO>
F 8

$$$$
=
 OpenBabel11032420163D

 28 29  0  0  1  0  0  0  0  0999 V2000
  190.2440  177.3360  141.2660 C   0  0  0  0  0  0  0  0  0  0  0  0
  191.5630  176.8770  143.2920 C   0  0  0  0  0  2  0  0  0  0  0  0
  188.1070  178.0610  144.0900 N   0  0  0  0  0  0  0  0  0  0  0  0
  189.0190  176.9920  142.0640 C   0  0  0  0  0  2  0  0  0  0  0  0
  190.4780  177.5310  144.1560 C   0  0  1  0  0  3  0  0  0  0  0  0
  191.4440  177.2910  141.8560 C   0  0  0  0  0  3  0  0  0  0  0  0
  189.1280  177.5400  143.4670 C   0  0  0  0  0  0  0  0  0  0  0  0
  185.0840  178.5820  142.2030 C   0  0  0  0  0  0  0  0  0  0  0  0
  185.6580  178.0270  144.3750 C   0  0  0  0  0  3  0  0  0  0  0  0
  186.4060  178.5380  142.2710 C   0  0  0  0  0  3  0  0  0  0  0  0
  184.4540  178.2660  143.5270 C   0  0  1  0  0  3  0  0  0  0  0  0
  186.7490  178.1910  143.6380 C   0  0  0  0  0  0  0  0  0  0  0  0
  183.6990  179.4730  144.0560 C   0  0  0  0  0  1  0  0  0  0  0  0
  184.8050  179.6720  140.1200 O   0  0  0  0  0  0  0  0  0  0  0  0
  184.3390  178.8650  140.9670 C   0  0  0  0  0  0  0  0  0  0  0  0
  183.0870  178.2320  140.7160 N   0  0  0  0  0  1  0  0  0  0  0  0
  190.5910  175.6400  138.8780 O   0  0  0  0  0  0  0  0  0  0  0  0
  190.0870  177.7000  139.8870 N   0  0  0  0  0  2  0  0  0  0  0  0
  190.2710  176.8530  138.7460 C   0  0  0  0  0  0  0  0  0  0  0  0
  190.0650  177.4250  137.3800 C   0  0  1  0  0  3  0  0  0  0  0  0
  190.1030  176.3600  136.3910 N   0  0  0  0  0  1  0  0  0  0  0  0
  188.0870  177.8620  136.1030 O   0  0  0  0  0  1  0  0  0  0  0  0
  188.7420  178.1810  137.2940 C   0  0  0  0  0  3  0  0  0  0  0  0
  188.9730  179.5570  137.3340 O   0  0  0  0  0  1  0  0  0  0  0  0
  190.4140  176.7980  145.4880 C   0  0  0  0  0  2  0  0  0  0  0  0
  191.7000  176.6210  146.0010 O   0  0  0  0  0  0  0  0  0  0  0  0
  192.5800  175.6920  148.0040 C   0  0  0  0  0  1  0  0  0  0  0  0
  191.5250  176.5870  147.3850 C   0  0  0  0  0  2  0  0  0  0  0  0
  1  6  2  0  0  0  0
  1  4  1  0  0  0  0
  2  5  1  0  0  0  0
  4  7  1  0  0  0  0
  5 25  1  1  0  0  0
  6  2  1  0  0  0  0
  7  3  2  0  0  0  0
  7  5  1  0  0  0  0
  8 10  2  0  0  0  0
  8 11  1  0  0  0  0
 10 12  1  0  0  0  0
 11 13  1  1  0  0  0
 11  9  1  0  0  0  0
 12  3  1  0  0  0  0
 12  9  2  0  0  0  0
 14 15  2  0  0  0  0
 15  8  1  0  0  0  0
 16 15  1  0  0  0  0
 18  1  1  0  0  0  0
 19 17  2  0  0  0  0
 19 18  1  0  0  0  0
 20 21  1  6  0  0  0
 20 19  1  0  0  0  0
 22 23  1  0  0  0  0
 23 24  1  0  0  0  0
 23 20  1  0  0  0  0
 25 26  1  0  0  0  0
 26 28  1  0  0  0  0
 28 27  1  0  0  0  0
M  END
>  <MODEL>
3

>  <REMARK>
 VINA RESULT:      -7.9      1.753      2.007
  Name = 
  8 active torsions:
  status: ('A' for Active; 'I' for Inactive)
    1  A    between atoms: C_1  and  C_15
    2  A    between atoms: O_2  and  C_10
    3  A    between atoms: O_2  and  C_22
    4  A    between atoms: CA_3  and  C_16
    5  A    between atoms: CA_3  and  C_27
    6  A    between atoms: C_5  and  N_26
    7  A    between atoms: C_10  and  C_19
    8  A    between atoms: N_12  and  C_23
                            x       y       z     vdW  Elec       q    Type
                         _______ _______ _______ _____ _____    ______ ____

>  <TORSDO>
F 8

$$$$
=
 OpenBabel11032420163D

 28 29  0  0  1  0  0  0  0  0999 V2000
  187.0550  177.6130  145.1660 C   0  0  0  0  0  0  0  0  0  0  0  0
  184.7690  178.5220  145.2410 C   0  0  0  0  0  2  0  0  0  0  0  0
  186.3130  178.8490  141.8510 N   0  0  0  0  0  0  0  0  0  0  0  0
  186.8180  177.3130  143.7130 C   0  0  0  0  0  2  0  0  0  0  0  0
  184.9590  179.1370  143.8490 C   0  0  1  0  0  3  0  0  0  0  0  0
  186.0850  178.1950  145.8810 C   0  0  0  0  0  3  0  0  0  0  0  0
  186.0460  178.4350  143.0590 C   0  0  0  0  0  0  0  0  0  0  0  0
  189.2510  177.5130  140.2540 C   0  0  0  0  0  0  0  0  0  0  0  0
  187.1590  178.2610  139.6100 C   0  0  0  0  0  3  0  0  0  0  0  0
  188.6030  177.8850  141.3480 C   0  0  0  0  0  3  0  0  0  0  0  0
  188.4150  177.7080  139.0250 C   0  0  1  0  0  3  0  0  0  0  0  0
  187.2960  178.3530  140.9270 C   0  0  0  0  0  0  0  0  0  0  0  0
  189.0440  178.7490  138.1160 C   0  0  0  0  0  1  0  0  0  0  0  0
  190.8890  175.9740  139.5080 O   0  0  0  0  0  0  0  0  0  0  0  0
  190.6070  176.9410  140.2630 C   0  0  0  0  0  0  0  0  0  0  0  0
  191.6110  177.4740  141.1230 N   0  0  0  0  0  1  0  0  0  0  0  0
  189.7200  178.7120  144.5470 O   0  0  0  0  0  0  0  0  0  0  0  0
  188.3190  177.2580  145.7440 N   0  0  0  0  0  2  0  0  0  0  0  0
  189.6010  177.8060  145.4150 C   0  0  0  0  0  0  0  0  0  0  0  0
  190.8100  177.2950  146.1310 C   0  0  1  0  0  3  0  0  0  0  0  0
  190.4020  176.5090  147.2830 N   0  0  0  0  0  1  0  0  0  0  0  0
  190.9280  175.9780  144.1360 O   0  0  0  0  0  1  0  0  0  0  0  0
  191.6870  176.4600  145.2030 C   0  0  0  0  0  3  0  0  0  0  0  0
  192.2310  175.3800  145.9010 O   0  0  0  0  0  1  0  0  0  0  0  0
  183.6270  179.0930  143.1160 C   0  0  0  0  0  2  0  0  0  0  0  0
  182.5930  178.8220  144.0140 O   0  0  0  0  0  0  0  0  0  0  0  0
  180.2560  178.3960  143.9580 C   0  0  0  0  0  1  0  0  0  0  0  0
  181.4260  179.0990  143.3010 C   0  0  0  0  0  2  0  0  0  0  0  0
  1 18  1  0  0  0  0
  1  6  2  0  0  0  0
  2  6  1  0  0  0  0
  3  7  2  0  0  0  0
  4  1  1  0  0  0  0
  5 25  1  6  0  0  0
  5  2  1  0  0  0  0
  7  4  1  0  0  0  0
  7  5  1  0  0  0  0
  8 15  1  0  0  0  0
  8 10  2  0  0  0  0
  9 12  2  0  0  0  0
 11 13  1  6  0  0  0
 11  9  1  0  0  0  0
 11  8  1  0  0  0  0
 12 10  1  0  0  0  0
 12  3  1  0  0  0  0
 14 15  2  0  0  0  0
 15 16  1  0  0  0  0
 17 19  2  0  0  0  0
 19 18  1  0  0  0  0
 19 20  1  0  0  0  0
 20 21  1  1  0  0  0
 22 23  1  0  0  0  0
 23 24  1  0  0  0  0
 23 20  1  0  0  0  0
 25 26  1  0  0  0  0
 28 27  1  0  0  0  0
 28 26  1  0  0  0  0
M  END
>  <MODEL>
4

>  <REMARK>
 VINA RESULT:      -7.7      2.197      6.480
  Name = 
  8 active torsions:
  status: ('A' for Active; 'I' for Inactive)
    1  A    between atoms: C_1  and  C_15
    2  A    between atoms: O_2  and  C_10
    3  A    between atoms: O_2  and  C_22
    4  A    between atoms: CA_3  and  C_16
    5  A    between atoms: CA_3  and  C_27
    6  A    between atoms: C_5  and  N_26
    7  A    between atoms: C_10  and  C_19
    8  A    between atoms: N_12  and  C_23
                            x       y       z     vdW  Elec       q    Type
                         _______ _______ _______ _____ _____    ______ ____

>  <TORSDO>
F 8

$$$$
=
 OpenBabel11032420163D

 28 29  0  0  1  0  0  0  0  0999 V2000
  188.5220  177.6560  142.5660 C   0  0  0  0  0  0  0  0  0  0  0  0
  189.1630  177.2350  144.9040 C   0  0  0  0  0  2  0  0  0  0  0  0
  185.6980  178.6110  144.6110 N   0  0  0  0  0  0  0  0  0  0  0  0
  187.1000  177.4050  142.9790 C   0  0  0  0  0  2  0  0  0  0  0  0
  187.9120  177.9790  145.3890 C   0  0  1  0  0  3  0  0  0  0  0  0
  189.4930  177.5850  143.4840 C   0  0  0  0  0  3  0  0  0  0  0  0
  186.8250  178.0150  144.3330 C   0  0  0  0  0  0  0  0  0  0  0  0
  182.3750  178.9690  143.2690 C   0  0  0  0  0  0  0  0  0  0  0  0
  184.5410  178.9180  142.4550 C   0  0  0  0  0  3  0  0  0  0  0  0
  183.1900  178.8120  144.3020 C   0  0  0  0  0  3  0  0  0  0  0  0
  183.1330  179.0530  141.9780 C   0  0  1  0  0  3  0  0  0  0  0  0
  184.5410  178.7800  143.7750 C   0  0  0  0  0  0  0  0  0  0  0  0
  182.7920  177.8730  141.0850 C   0  0  0  0  0  1  0  0  0  0  0  0
  180.2690  178.2520  144.0780 O   0  0  0  0  0  0  0  0  0  0  0  0
  180.9140  179.0870  143.3920 C   0  0  0  0  0  0  0  0  0  0  0  0
  180.2170  180.1440  142.7380 N   0  0  0  0  0  1  0  0  0  0  0  0
  190.3660  176.2780  140.7220 O   0  0  0  0  0  0  0  0  0  0  0  0
  188.7950  177.9600  141.1900 N   0  0  0  0  0  2  0  0  0  0  0  0
  189.7060  177.2740  140.3210 C   0  0  0  0  0  0  0  0  0  0  0  0
  189.8560  177.7510  138.9120 C   0  0  1  0  0  3  0  0  0  0  0  0
  190.0360  176.6120  138.0260 N   0  0  0  0  0  1  0  0  0  0  0  0
  187.6850  177.7430  137.9030 O   0  0  0  0  0  1  0  0  0  0  0  0
  188.6480  178.5750  138.4780 C   0  0  0  0  0  3  0  0  0  0  0  0
  189.0350  179.5370  137.5440 O   0  0  0  0  0  1  0  0  0  0  0  0
  187.4200  177.3140  146.6660 C   0  0  0  0  0  2  0  0  0  0  0  0
  187.1800  178.2770  147.6480 O   0  0  0  0  0  0  0  0  0  0  0  0
  189.3750  178.2730  148.5590 C   0  0  0  0  0  1  0  0  0  0  0  0
  187.9300  177.8550  148.7460 C   0  0  0  0  0  2  0  0  0  0  0  0
  1  4  1  0  0  0  0
  1  6  2  0  0  0  0
  2  5  1  0  0  0  0
  4  7  1  0  0  0  0
  5 25  1  1  0  0  0
  6  2  1  0  0  0  0
  7  3  2  0  0  0  0
  7  5  1  0  0  0  0
  8 15  1  0  0  0  0
  8 10  2  0  0  0  0
  9 12  2  0  0  0  0
 11 13  1  6  0  0  0
 11  9  1  0  0  0  0
 11  8  1  0  0  0  0
 12 10  1  0  0  0  0
 12  3  1  0  0  0  0
 15 14  2  0  0  0  0
 16 15  1  0  0  0  0
 18  1  1  0  0  0  0
 19 17  2  0  0  0  0
 19 18  1  0  0  0  0
 20 21  1  6  0  0  0
 20 19  1  0  0  0  0
 22 23  1  0  0  0  0
 23 20  1  0  0  0  0
 24 23  1  0  0  0  0
 25 26  1  0  0  0  0
 26 28  1  0  0  0  0
 27 28  1  0  0  0  0
M  END
>  <MODEL>
5

>  <REMARK>
 VINA RESULT:      -7.7      2.020      2.610
  Name = 
  8 active torsions:
  status: ('A' for Active; 'I' for Inactive)
    1  A    between atoms: C_1  and  C_15
    2  A    between atoms: O_2  and  C_10
    3  A    between atoms: O_2  and  C_22
    4  A    between atoms: CA_3  and  C_16
    5  A    between atoms: CA_3  and  C_27
    6  A    between atoms: C_5  and  N_26
    7  A    between atoms: C_10  and  C_19
    8  A    between atoms: N_12  and  C_23
                            x       y       z     vdW  Elec       q    Type
                         _______ _______ _______ _____ _____    ______ ____

>  <TORSDO>
F 8

$$$$
=
 OpenBabel11032420163D

 28 29  0  0  1  0  0  0  0  0999 V2000
  190.7450  177.6460  143.5930 C   0  0  0  0  0  0  0  0  0  0  0  0
  191.5610  177.3270  141.2930 C   0  0  0  0  0  2  0  0  0  0  0  0
  187.8480  177.7430  141.4340 N   0  0  0  0  0  0  0  0  0  0  0  0
  189.6110  178.4400  143.0110 C   0  0  0  0  0  2  0  0  0  0  0  0
  190.1190  177.1620  140.7970 C   0  0  1  0  0  3  0  0  0  0  0  0
  191.6590  177.1130  142.7740 C   0  0  0  0  0  3  0  0  0  0  0  0
  189.1160  177.8010  141.7350 C   0  0  0  0  0  0  0  0  0  0  0  0
  185.4000  178.6110  143.9300 C   0  0  0  0  0  0  0  0  0  0  0  0
  185.7490  179.0140  141.6780 C   0  0  0  0  0  3  0  0  0  0  0  0
  186.5220  178.0000  143.5810 C   0  0  0  0  0  3  0  0  0  0  0  0
  184.7770  179.3230  142.7670 C   0  0  1  0  0  3  0  0  0  0  0  0
  186.7250  178.2610  142.1680 C   0  0  0  0  0  0  0  0  0  0  0  0
  183.4310  178.7070  142.4270 C   0  0  0  0  0  1  0  0  0  0  0  0
  183.7290  179.1050  145.5330 O   0  0  0  0  0  0  0  0  0  0  0  0
  184.8660  178.6170  145.3010 C   0  0  0  0  0  0  0  0  0  0  0  0
  185.6270  178.0720  146.3750 N   0  0  0  0  0  1  0  0  0  0  0  0
  188.6510  176.6800  145.4300 O   0  0  0  0  0  0  0  0  0  0  0  0
  190.8160  177.4900  145.0170 N   0  0  0  0  0  2  0  0  0  0  0  0
  189.7750  177.0240  145.8850 C   0  0  0  0  0  0  0  0  0  0  0  0
  190.0440  176.9370  147.3540 C   0  0  1  0  0  3  0  0  0  0  0  0
  191.4600  177.1490  147.6060 N   0  0  0  0  0  1  0  0  0  0  0  0
  189.9590  178.4850  149.1780 O   0  0  0  0  0  1  0  0  0  0  0  0
  189.2100  177.9540  148.1270 C   0  0  0  0  0  3  0  0  0  0  0  0
  188.0670  177.3410  148.6460 O   0  0  0  0  0  1  0  0  0  0  0  0
  190.0200  177.7490  139.3970 C   0  0  0  0  0  2  0  0  0  0  0  0
  189.3640  176.8580  138.5460 O   0  0  0  0  0  0  0  0  0  0  0  0
  191.2100  176.4270  137.1140 C   0  0  0  0  0  1  0  0  0  0  0  0
  190.3270  175.9010  138.2270 C   0  0  0  0  0  2  0  0  0  0  0  0
  1 18  1  0  0  0  0
  2  6  1  0  0  0  0
  3  7  2  0  0  0  0
  3 12  1  0  0  0  0
  4  1  1  0  0  0  0
  5 25  1  6  0  0  0
  5  2  1  0  0  0  0
  5  7  1  0  0  0  0
  6  1  2  0  0  0  0
  7  4  1  0  0  0  0
  8 15  1  0  0  0  0
  9 12  2  0  0  0  0
  9 11  1  0  0  0  0
 10  8  2  0  0  0  0
 11 13  1  6  0  0  0
 11  8  1  0  0  0  0
 12 10  1  0  0  0  0
 15 14  2  0  0  0  0
 15 16  1  0  0  0  0
 17 19  2  0  0  0  0
 18 19  1  0  0  0  0
 19 20  1  0  0  0  0
 20 21  1  6  0  0  0
 20 23  1  0  0  0  0
 23 24  1  0  0  0  0
 23 22  1  0  0  0  0
 26 25  1  0  0  0  0
 27 28  1  0  0  0  0
 28 26  1  0  0  0  0
M  END
>  <MODEL>
6

>  <REMARK>
 VINA RESULT:      -7.4      2.077      6.434
  Name = 
  8 active torsions:
  status: ('A' for Active; 'I' for Inactive)
    1  A    between atoms: C_1  and  C_15
    2  A    between atoms: O_2  and  C_10
    3  A    between atoms: O_2  and  C_22
    4  A    between atoms: CA_3  and  C_16
    5  A    between atoms: CA_3  and  C_27
    6  A    between atoms: C_5  and  N_26
    7  A    between atoms: C_10  and  C_19
    8  A    between atoms: N_12  and  C_23
                            x       y       z     vdW  Elec       q    Type
                         _______ _______ _______ _____ _____    ______ ____

>  <TORSDO>
F 8

$$$$
=
 OpenBabel11032420163D

 28 29  0  0  1  0  0  0  0  0999 V2000
  189.4350  176.6990  142.7820 C   0  0  0  0  0  0  0  0  0  0  0  0
  189.5250  176.9520  145.2290 C   0  0  0  0  0  2  0  0  0  0  0  0
  186.4160  178.4260  143.7640 N   0  0  0  0  0  0  0  0  0  0  0  0
  187.9390  176.6880  142.9030 C   0  0  0  0  0  2  0  0  0  0  0  0
  188.3160  177.8960  145.1830 C   0  0  1  0  0  3  0  0  0  0  0  0
  190.1810  176.8360  143.8850 C   0  0  0  0  0  3  0  0  0  0  0  0
  187.4820  177.6940  143.9330 C   0  0  0  0  0  0  0  0  0  0  0  0
  184.6990  178.8940  140.6330 C   0  0  0  0  0  0  0  0  0  0  0  0
  184.2950  177.8380  142.6520 C   0  0  0  0  0  3  0  0  0  0  0  0
  185.7570  179.0870  141.4070 C   0  0  0  0  0  3  0  0  0  0  0  0
  183.6480  178.0830  141.3300 C   0  0  1  0  0  3  0  0  0  0  0  0
  185.4870  178.4220  142.6670 C   0  0  0  0  0  0  0  0  0  0  0  0
  182.3890  178.9080  141.5330 C   0  0  0  0  0  1  0  0  0  0  0  0
  185.1920  178.7770  138.3200 O   0  0  0  0  0  0  0  0  0  0  0  0
  184.5990  179.3850  139.2490 C   0  0  0  0  0  0  0  0  0  0  0  0
  183.8330  180.5480  138.9490 N   0  0  0  0  0  1  0  0  0  0  0  0
  189.0100  178.3760  140.3940 O   0  0  0  0  0  0  0  0  0  0  0  0
  190.0210  176.5560  141.4810 N   0  0  0  0  0  2  0  0  0  0  0  0
  189.7870  177.3850  140.3350 C   0  0  0  0  0  0  0  0  0  0  0  0
  190.4940  177.0660  139.0560 C   0  0  1  0  0  3  0  0  0  0  0  0
  190.9880  175.6990  139.0970 N   0  0  0  0  0  1  0  0  0  0  0  0
  188.5250  176.3420  137.9030 O   0  0  0  0  0  1  0  0  0  0  0  0
  189.5740  177.2620  137.8550 C   0  0  0  0  0  3  0  0  0  0  0  0
  190.2870  177.0780  136.6700 O   0  0  0  0  0  1  0  0  0  0  0  0
  187.4890  177.6820  146.4410 C   0  0  0  0  0  2  0  0  0  0  0  0
  188.1580  176.8240  147.3170 O   0  0  0  0  0  0  0  0  0  0  0  0
  189.1890  178.4830  148.6700 C   0  0  0  0  0  1  0  0  0  0  0  0
  188.0800  177.4570  148.5580 C   0  0  0  0  0  2  0  0  0  0  0  0
  1  4  1  0  0  0  0
  1  6  2  0  0  0  0
  3  7  2  0  0  0  0
  4  7  1  0  0  0  0
  5  2  1  0  0  0  0
  5 25  1  1  0  0  0
  6  2  1  0  0  0  0
  7  5  1  0  0  0  0
  8 11  1  0  0  0  0
  8 10  2  0  0  0  0
  9 12  2  0  0  0  0
 10 12  1  0  0  0  0
 11 13  1  1  0  0  0
 11  9  1  0  0  0  0
 12  3  1  0  0  0  0
 14 15  2  0  0  0  0
 15  8  1  0  0  0  0
 16 15  1  0  0  0  0
 18  1  1  0  0  0  0
 19 17  2  0  0  0  0
 19 18  1  0  0  0  0
 20 21  1  1  0  0  0
 20 19  1  0  0  0  0
 23 22  1  0  0  0  0
 23 20  1  0  0  0  0
 24 23  1  0  0  0  0
 25 26  1  0  0  0  0
 26 28  1  0  0  0  0
 28 27  1  0  0  0  0
M  END
>  <MODEL>
7

>  <REMARK>
 VINA RESULT:      -7.4      1.466      1.855
  Name = 
  8 active torsions:
  status: ('A' for Active; 'I' for Inactive)
    1  A    between atoms: C_1  and  C_15
    2  A    between atoms: O_2  and  C_10
    3  A    between atoms: O_2  and  C_22
    4  A    between atoms: CA_3  and  C_16
    5  A    between atoms: CA_3  and  C_27
    6  A    between atoms: C_5  and  N_26
    7  A    between atoms: C_10  and  C_19
    8  A    between atoms: N_12  and  C_23
                            x       y       z     vdW  Elec       q    Type
                         _______ _______ _______ _____ _____    ______ ____

>  <TORSDO>
F 8

$$$$
=
 OpenBabel11032420163D

 28 29  0  0  1  0  0  0  0  0999 V2000
  189.5690  177.1620  141.3960 C   0  0  0  0  0  0  0  0  0  0  0  0
  191.6840  176.7720  142.5920 C   0  0  0  0  0  2  0  0  0  0  0  0
  188.9250  177.8070  144.8930 N   0  0  0  0  0  0  0  0  0  0  0  0
  188.8580  176.7680  142.6580 C   0  0  0  0  0  2  0  0  0  0  0  0
  191.0850  177.3820  143.8650 C   0  0  1  0  0  3  0  0  0  0  0  0
  190.9070  177.1730  141.3740 C   0  0  0  0  0  3  0  0  0  0  0  0
  189.5710  177.3280  143.8660 C   0  0  0  0  0  0  0  0  0  0  0  0
  185.3660  178.3000  144.6350 C   0  0  0  0  0  0  0  0  0  0  0  0
  186.8640  177.5220  146.2180 C   0  0  0  0  0  3  0  0  0  0  0  0
  186.5790  178.3640  144.1070 C   0  0  0  0  0  3  0  0  0  0  0  0
  185.4030  177.7620  146.0340 C   0  0  1  0  0  3  0  0  0  0  0  0
  187.5060  177.8750  145.1110 C   0  0  0  0  0  0  0  0  0  0  0  0
  184.9410  178.8190  147.0210 C   0  0  0  0  0  1  0  0  0  0  0  0
  184.1790  178.8860  142.6730 O   0  0  0  0  0  0  0  0  0  0  0  0
  184.1400  178.6750  143.9130 C   0  0  0  0  0  0  0  0  0  0  0  0
  182.9030  178.8020  144.6070 N   0  0  0  0  0  1  0  0  0  0  0  0
  189.8840  176.2210  138.6180 O   0  0  0  0  0  0  0  0  0  0  0  0
  188.7870  177.5110  140.2450 N   0  0  0  0  0  2  0  0  0  0  0  0
  188.9700  177.0410  138.9030 C   0  0  0  0  0  0  0  0  0  0  0  0
  188.0470  177.5320  137.8340 C   0  0  1  0  0  3  0  0  0  0  0  0
  186.9320  178.2440  138.4370 N   0  0  0  0  0  1  0  0  0  0  0  0
  189.0540  179.6670  137.4390 O   0  0  0  0  0  1  0  0  0  0  0  0
  188.7790  178.4340  136.8450 C   0  0  0  0  0  3  0  0  0  0  0  0
  187.9930  178.6390  135.7100 O   0  0  0  0  0  1  0  0  0  0  0  0
  191.6660  176.6540  145.0690 C   0  0  0  0  0  2  0  0  0  0  0  0
  191.6840  177.4990  146.1790 O   0  0  0  0  0  0  0  0  0  0  0  0
  192.1780  175.2780  146.8650 C   0  0  0  0  0  1  0  0  0  0  0  0
  191.6530  176.6380  147.2770 C   0  0  0  0  0  2  0  0  0  0  0  0
  1  4  1  0  0  0  0
  2  5  1  0  0  0  0
  3 12  1  0  0  0  0
  4  7  1  0  0  0  0
  5  7  1  0  0  0  0
  5 25  1  1  0  0  0
  6  1  2  0  0  0  0
  6  2  1  0  0  0  0
  7  3  2  0  0  0  0
  8 11  1  0  0  0  0
 10  8  2  0  0  0  0
 10 12  1  0  0  0  0
 11  9  1  0  0  0  0
 11 13  1  1  0  0  0
 12  9  2  0  0  0  0
 14 15  2  0  0  0  0
 15 16  1  0  0  0  0
 15  8  1  0  0  0  0
 17 19  2  0  0  0  0
 18  1  1  0  0  0  0
 19 18  1  0  0  0  0
 20 21  1  1  0  0  0
 20 19  1  0  0  0  0
 23 22  1  0  0  0  0
 23 20  1  0  0  0  0
 24 23  1  0  0  0  0
 25 26  1  0  0  0  0
 26 28  1  0  0  0  0
 27 28  1  0  0  0  0
M  END
>  <MODEL>
8

>  <REMARK>
 VINA RESULT:      -7.3      1.820      2.636
  Name = 
  8 active torsions:
  status: ('A' for Active; 'I' for Inactive)
    1  A    between atoms: C_1  and  C_15
    2  A    between atoms: O_2  and  C_10
    3  A    between atoms: O_2  and  C_22
    4  A    between atoms: CA_3  and  C_16
    5  A    between atoms: CA_3  and  C_27
    6  A    between atoms: C_5  and  N_26
    7  A    between atoms: C_10  and  C_19
    8  A    between atoms: N_12  and  C_23
                            x       y       z     vdW  Elec       q    Type
                         _______ _______ _______ _____ _____    ______ ____

>  <TORSDO>
F 8

$$$$
=
 OpenBabel11032420163D

 28 29  0  0  1  0  0  0  0  0999 V2000
  187.6590  178.0390  140.7810 C   0  0  0  0  0  0  0  0  0  0  0  0
  189.1750  177.4800  138.9240 C   0  0  0  0  0  2  0  0  0  0  0  0
  190.9570  177.6420  142.2070 N   0  0  0  0  0  0  0  0  0  0  0  0
  188.5790  177.2610  141.6790 C   0  0  0  0  0  2  0  0  0  0  0  0
  190.3860  177.6700  139.8450 C   0  0  1  0  0  3  0  0  0  0  0  0
  187.9530  178.1490  139.4810 C   0  0  0  0  0  3  0  0  0  0  0  0
  190.0210  177.5130  141.3080 C   0  0  0  0  0  0  0  0  0  0  0  0
  191.3160  176.8180  145.6950 C   0  0  0  0  0  0  0  0  0  0  0  0
  190.0020  178.2200  144.4050 C   0  0  0  0  0  3  0  0  0  0  0  0
  191.6830  176.6640  144.4320 C   0  0  0  0  0  3  0  0  0  0  0  0
  190.2070  177.8190  145.8280 C   0  0  1  0  0  3  0  0  0  0  0  0
  190.8490  177.5470  143.6370 C   0  0  0  0  0  0  0  0  0  0  0  0
  188.9470  177.1490  146.3470 C   0  0  0  0  0  1  0  0  0  0  0  0
  192.4050  174.9540  146.6670 O   0  0  0  0  0  0  0  0  0  0  0  0
  191.9530  176.1190  146.8210 C   0  0  0  0  0  0  0  0  0  0  0  0
  192.0660  176.7500  148.0940 N   0  0  0  0  0  1  0  0  0  0  0  0
  186.6260  177.7770  143.5310 O   0  0  0  0  0  0  0  0  0  0  0  0
  186.4870  178.6380  141.3510 N   0  0  0  0  0  2  0  0  0  0  0  0
  186.0060  178.4840  142.6920 C   0  0  0  0  0  0  0  0  0  0  0  0
  184.7510  179.1910  143.0950 C   0  0  1  0  0  3  0  0  0  0  0  0
  183.7680  179.0910  142.0280 N   0  0  0  0  0  1  0  0  0  0  0  0
  182.7910  178.6270  144.3490 O   0  0  0  0  0  1  0  0  0  0  0  0
  184.1860  178.6160  144.3900 C   0  0  0  0  0  3  0  0  0  0  0  0
  184.6160  179.3760  145.4790 O   0  0  0  0  0  1  0  0  0  0  0  0
  191.4650  176.6790  139.4340 C   0  0  0  0  0  2  0  0  0  0  0  0
  190.8980  175.6190  138.7230 O   0  0  0  0  0  0  0  0  0  0  0  0
  192.8960  176.3420  137.6590 C   0  0  0  0  0  1  0  0  0  0  0  0
  191.8970  175.2170  137.8360 C   0  0  0  0  0  2  0  0  0  0  0  0
  1 18  1  0  0  0  0
  1  4  1  0  0  0  0
  2  6  1  0  0  0  0
  2  5  1  0  0  0  0
  3 12  1  0  0  0  0
  5 25  1  6  0  0  0
  5  7  1  0  0  0  0
  6  1  2  0  0  0  0
  7  4  1  0  0  0  0
  7  3  2  0  0  0  0
  8 11  1  0  0  0  0
  8 15  1  0  0  0  0
  9 11  1  0  0  0  0
 10  8  2  0  0  0  0
 11 13  1  6  0  0  0
 12  9  2  0  0  0  0
 12 10  1  0  0  0  0
 14 15  2  0  0  0  0
 15 16  1  0  0  0  0
 18 19  1  0  0  0  0
 19 20  1  0  0  0  0
 19 17  2  0  0  0  0
 20 21  1  6  0  0  0
 20 23  1  0  0  0  0
 22 23  1  0  0  0  0
 23 24  1  0  0  0  0
 26 25  1  0  0  0  0
 27 28  1  0  0  0  0
 28 26  1  0  0  0  0
M  END
>  <MODEL>
9

>  <REMARK>
 VINA RESULT:      -7.3      2.417      7.291
  Name = 
  8 active torsions:
  status: ('A' for Active; 'I' for Inactive)
    1  A    between atoms: C_1  and  C_15
    2  A    between atoms: O_2  and  C_10
    3  A    between atoms: O_2  and  C_22
    4  A    between atoms: CA_3  and  C_16
    5  A    between atoms: CA_3  and  C_27
    6  A    between atoms: C_5  and  N_26
    7  A    between atoms: C_10  and  C_19
    8  A    between atoms: N_12  and  C_23
                            x       y       z     vdW  Elec       q    Type
                         _______ _______ _______ _____ _____    ______ ____

>  <TORSDO>
F 8

$$$$
