=
 OpenBabel11042411403D

 65 73  0  0  1  0  0  0  0  0999 V2000
  184.8670  179.5610  144.0530 C   0  0  2  0  0  3  0  0  0  0  0  0
  183.5720  179.6200  144.8690 C   0  0  2  0  0  3  0  0  0  0  0  0
  185.2860  178.1630  143.5870 C   0  0  2  0  0  3  0  0  0  0  0  0
  185.4020  178.1670  145.9900 C   0  0  0  0  0  2  0  0  0  0  0  0
  184.9320  179.5610  145.5770 C   0  0  1  0  0  3  0  0  0  0  0  0
  186.0170  177.5390  144.7610 C   0  0  0  0  0  2  0  0  0  0  0  0
  187.5360  178.1110  142.4380 C   0  0  0  0  0  3  0  0  0  0  0  0
  188.2330  178.2120  141.2510 C   0  0  0  0  0  0  0  0  0  0  0  0
  186.1230  178.2090  142.3300 C   0  0  0  0  0  0  0  0  0  0  0  0
  190.1330  176.7330  140.7860 C   0  0  1  0  0  3  0  0  0  0  0  0
  186.2390  178.5490  139.8500 C   0  0  0  0  0  3  0  0  0  0  0  0
  189.5760  178.1530  140.6060 C   0  0  1  0  0  3  0  0  0  0  0  0
  189.9250  176.3260  138.3770 C   0  0  0  0  0  3  0  0  0  0  0  0
  189.0320  177.3200  138.2620 C   0  0  0  0  0  0  0  0  0  0  0  0
  188.9300  178.4210  139.3080 C   0  0  1  0  0  3  0  0  0  0  0  0
  190.8720  176.2830  139.5360 C   0  0  0  0  0  2  0  0  0  0  0  0
  185.5020  178.4460  141.0550 C   0  0  0  0  0  3  0  0  0  0  0  0
  187.6050  178.4190  139.9970 C   0  0  0  0  0  0  0  0  0  0  0  0
  189.4300  175.7310  143.3460 O   0  0  0  0  0  0  0  0  0  0  0  0
  191.5180  176.1700  144.2930 N   0  0  0  0  0  2  0  0  0  0  0  0
  191.0200  176.6930  141.9360 N   0  0  0  0  0  2  0  0  0  0  0  0
  190.6020  176.1740  143.1980 C   0  0  0  0  0  0  0  0  0  0  0  0
  191.1460  175.7020  145.6190 C   0  0  1  0  0  3  0  0  0  0  0  0
  192.1650  177.7220  148.5610 O   0  0  0  0  0  1  0  0  0  0  0  0
  191.5490  177.0550  147.5110 C   0  0  0  0  0  0  0  0  0  0  0  0
  192.2450  176.0850  146.6200 C   0  0  1  0  0  3  0  0  0  0  0  0
  189.9900  176.3990  146.0680 O   0  0  0  0  0  0  0  0  0  0  0  0
  192.6270  174.9100  147.3860 N   0  0  0  0  0  1  0  0  0  0  0  0
  190.2830  177.1880  147.1620 C   0  0  0  0  0  0  0  0  0  0  0  0
  189.3210  178.0020  147.7730 O   0  0  0  0  0  0  0  0  0  0  0  0
  188.1630  177.5010  148.4240 C   0  0  0  0  0  1  0  0  0  0  0  0
  188.7670  178.0700  135.9780 N   0  0  0  0  0  1  0  0  0  0  0  0
  188.1260  177.3610  137.0710 C   0  0  0  0  0  2  0  0  0  0  0  0
  182.7600  178.3190  144.9410 C   0  0  0  0  0  2  0  0  0  0  0  0
  181.3730  178.5100  144.3470 C   0  0  0  0  0  2  0  0  0  0  0  0
  181.3490  179.6400  143.3290 C   0  0  0  0  0  2  0  0  0  0  0  0
  180.3610  179.3620  142.2040 C   0  0  0  0  0  2  0  0  0  0  0  0
  180.9890  178.5230  141.0980 C   0  0  0  0  0  2  0  0  0  0  0  0
  179.9820  177.5000  140.5770 C   0  0  0  0  0  2  0  0  0  0  0  0
  180.3130  177.0110  139.1700 C   0  0  1  0  0  3  0  0  0  0  0  0
  180.4590  175.5590  139.1440 N   0  0  0  0  0  2  0  0  0  0  0  0
  180.4890  175.4030  136.7760 N   0  0  0  0  0  0  0  0  0  0  0  0
  180.7020  173.0510  137.9190 S   0  0  0  0  0  0  0  0  0  0  0  0
  180.5440  174.8220  137.9230 C   0  0  0  0  0  0  0  0  0  0  0  0
  180.3940  173.0760  136.1230 C   0  0  1  0  0  3  0  0  0  0  0  0
  180.5760  174.5150  135.6320 C   0  0  1  0  0  3  0  0  0  0  0  0
  178.9520  176.0760  134.5940 C   0  0  0  0  0  2  0  0  0  0  0  0
  179.5540  174.8870  134.5980 C   0  0  0  0  0  3  0  0  0  0  0  0
  181.3490  172.2010  135.4600 N   0  0  0  0  0  2  0  0  0  0  0  0
  183.2630  172.5780  136.8950 C   0  0  0  0  0  2  0  0  0  0  0  0
  183.7870  170.7850  134.8730 O   0  0  0  0  0  0  0  0  0  0  0  0
  182.1950  171.5960  136.4780 C   0  0  2  0  0  3  0  0  0  0  0  0
  184.5480  171.8890  136.8420 N   0  0  0  0  0  0  0  0  0  0  0  0
  184.3680  170.6060  136.1490 C   0  0  1  0  0  3  0  0  0  0  0  0
  182.9230  170.3890  135.9140 C   0  0  2  0  0  3  0  0  0  0  0  0
  186.4490  172.0640  134.9800 O   0  0  0  0  0  0  0  0  0  0  0  0
  184.9340  173.9690  135.2460 O   0  0  0  0  0  0  0  0  0  0  0  0
  185.6810  172.8870  135.9760 S   0  0  0  0  0  0  0  0  0  0  0  0
  188.0940  173.7000  136.5390 O   0  0  0  0  0  1  0  0  0  0  0  0
  186.8250  173.6440  137.1140 C   0  0  0  0  0  2  0  0  0  0  0  0
  179.2480  177.4700  138.1770 C   0  0  0  0  0  2  0  0  0  0  0  0
  179.6580  178.7380  137.5100 C   0  0  0  0  0  0  0  0  0  0  0  0
  178.9980  179.1640  136.5230 O   0  0  0  0  0  0  0  0  0  0  0  0
  180.7270  180.8330  138.2210 C   0  0  0  0  0  1  0  0  0  0  0  0
  180.7680  179.4340  137.9850 O   0  0  0  0  0  0  0  0  0  0  0  0
  1  2  1  0  0  0  0
  1  5  1  0  0  0  0
  2 34  1  0  0  0  0
  2  5  1  0  0  0  0
  3  1  1  0  0  0  0
  3  6  1  0  0  0  0
  5  4  1  0  0  0  0
  6  4  1  0  0  0  0
  8  7  2  0  0  0  0
  9  7  1  0  0  0  0
  9  3  1  0  0  0  0
 10 21  1  0  0  0  0
 11 18  2  0  0  0  0
 11 17  1  0  0  0  0
 12 10  1  0  0  0  0
 12  8  1  0  0  0  0
 13 16  1  0  0  0  0
 14 13  2  0  0  0  0
 14 15  1  0  0  0  0
 15 18  1  0  0  0  0
 15 12  1  0  0  0  0
 16 10  1  0  0  0  0
 17  9  2  0  0  0  0
 18  8  1  0  0  0  0
 20 23  1  0  0  0  0
 21 22  1  0  0  0  0
 22 19  2  0  0  0  0
 22 20  1  0  0  0  0
 23 27  1  0  0  0  0
 23 26  1  0  0  0  0
 25 24  1  0  0  0  0
 26 28  1  0  0  0  0
 26 25  1  0  0  0  0
 27 29  1  0  0  0  0
 29 25  2  0  0  0  0
 29 30  1  0  0  0  0
 30 31  1  0  0  0  0
 32 33  1  0  0  0  0
 33 14  1  0  0  0  0
 35 34  1  0  0  0  0
 36 35  1  0  0  0  0
 37 36  1  0  0  0  0
 38 37  1  0  0  0  0
 39 38  1  0  0  0  0
 40 39  1  0  0  0  0
 41 40  1  0  0  0  0
 42 44  2  0  0  0  0
 43 44  1  0  0  0  0
 44 41  1  0  0  0  0
 45 43  1  0  0  0  0
 46 45  1  0  0  0  0
 46 42  1  0  0  0  0
 47 48  2  0  0  0  0
 48 46  1  0  0  0  0
 49 45  1  0  0  0  0
 49 52  1  0  0  0  0
 51 55  1  0  0  0  0
 51 54  1  0  0  0  0
 52 50  1  0  0  0  0
 53 50  1  0  0  0  0
 54 53  1  0  0  0  0
 55 54  1  0  0  0  0
 55 52  1  0  0  0  0
 56 58  2  0  0  0  0
 57 58  2  0  0  0  0
 58 53  1  0  0  0  0
 58 60  1  0  0  0  0
 59 60  1  0  0  0  0
 61 40  1  0  0  0  0
 62 65  1  0  0  0  0
 62 61  1  0  0  0  0
 63 62  2  0  0  0  0
 65 64  1  0  0  0  0
M  END
>  <MODEL>
1

>  <REMARK>
 VINA RESULT:      -6.2      0.000      0.000
  Name = 
  21 active torsions:
  status: ('A' for Active; 'I' for Inactive)
    1  A    between atoms: N_8  and  C_44
    2  A    between atoms: C_9  and  N_35
    3  A    between atoms: C_11  and  C_34
    4  A    between atoms: S_12  and  N_24
    5  A    between atoms: S_12  and  C_57
    6  A    between atoms: C_14  and  C_16
    7  A    between atoms: C_18  and  N_27
    8  A    between atoms: C_20  and  C_42
    9  A    between atoms: C_20  and  C_44
   10  A    between atoms: O_21  and  C_42
   11  A    between atoms: C_23  and  C_45
   12  A    between atoms: C_23  and  C_48
   13  A    between atoms: C_26  and  C_44
   14  A    between atoms: C_26  and  C_48
   15  A    between atoms: N_27  and  C_52
   16  A    between atoms: C_29  and  N_58
   17  A    between atoms: C_34  and  C_47
   18  A    between atoms: C_39  and  C_62
   19  A    between atoms: O_41  and  C_60
   20  A    between atoms: C_45  and  C_47
   21  A    between atoms: C_54  and  C_59
                            x       y       z     vdW  Elec       q    Type
                         _______ _______ _______ _____ _____    ______ ____

>  <TORSDO>
F 21

$$$$
=
 OpenBabel11042411403D

 65 73  0  0  1  0  0  0  0  0999 V2000
  184.7600  179.3350  143.3930 C   0  0  2  0  0  3  0  0  0  0  0  0
  183.4760  179.4970  142.5750 C   0  0  2  0  0  3  0  0  0  0  0  0
  184.8940  178.0100  144.1510 C   0  0  2  0  0  3  0  0  0  0  0  0
  183.0240  179.1830  145.1080 C   0  0  0  0  0  2  0  0  0  0  0  0
  183.5690  180.0740  143.9940 C   0  0  1  0  0  3  0  0  0  0  0  0
  184.1170  178.1940  145.4410 C   0  0  0  0  0  2  0  0  0  0  0  0
  187.1180  177.1790  143.2850 C   0  0  0  0  0  3  0  0  0  0  0  0
  188.4110  176.8040  143.5880 C   0  0  0  0  0  0  0  0  0  0  0  0
  186.3380  177.6310  144.3830 C   0  0  0  0  0  0  0  0  0  0  0  0
  190.2730  177.4320  142.1190 C   0  0  1  0  0  3  0  0  0  0  0  0
  188.2120  177.2430  146.0000 C   0  0  0  0  0  3  0  0  0  0  0  0
  189.7150  176.3340  143.0360 C   0  0  1  0  0  3  0  0  0  0  0  0
  192.0920  177.8600  143.7050 C   0  0  0  0  0  3  0  0  0  0  0  0
  191.3960  177.2840  144.6970 C   0  0  0  0  0  0  0  0  0  0  0  0
  190.2550  176.3200  144.4090 C   0  0  1  0  0  3  0  0  0  0  0  0
  191.7800  177.5490  142.2740 C   0  0  0  0  0  2  0  0  0  0  0  0
  186.8820  177.6360  145.7140 C   0  0  0  0  0  3  0  0  0  0  0  0
  188.9440  176.8390  144.9010 C   0  0  0  0  0  0  0  0  0  0  0  0
  192.1470  176.8820  140.0600 O   0  0  0  0  0  0  0  0  0  0  0  0
  190.5230  176.6030  138.4070 N   0  0  0  0  0  2  0  0  0  0  0  0
  189.9300  177.1420  140.7370 N   0  0  0  0  0  2  0  0  0  0  0  0
  190.9250  176.8730  139.7500 C   0  0  0  0  0  0  0  0  0  0  0  0
  191.4840  176.3680  137.3390 C   0  0  1  0  0  3  0  0  0  0  0  0
  194.1100  173.7960  137.8500 O   0  0  0  0  0  1  0  0  0  0  0  0
  193.0250  174.5880  137.4990 C   0  0  0  0  0  0  0  0  0  0  0  0
  192.8420  175.9950  137.9490 C   0  0  1  0  0  3  0  0  0  0  0  0
  191.0980  175.2230  136.5890 O   0  0  0  0  0  0  0  0  0  0  0  0
  193.8770  176.8310  137.3620 N   0  0  0  0  0  1  0  0  0  0  0  0
  192.0210  174.2060  136.7300 C   0  0  0  0  0  0  0  0  0  0  0  0
  191.8550  172.9580  136.1180 O   0  0  0  0  0  0  0  0  0  0  0  0
  191.3340  172.7850  134.8090 C   0  0  0  0  0  1  0  0  0  0  0  0
  191.4710  176.4330  146.9590 N   0  0  0  0  0  1  0  0  0  0  0  0
  191.7580  177.5820  146.1180 C   0  0  0  0  0  2  0  0  0  0  0  0
  182.5910  178.2470  142.4550 C   0  0  0  0  0  2  0  0  0  0  0  0
  181.4000  178.5110  141.5450 C   0  0  0  0  0  2  0  0  0  0  0  0
  181.8320  178.7150  140.1000 C   0  0  0  0  0  2  0  0  0  0  0  0
  183.1830  178.0690  139.8210 C   0  0  0  0  0  2  0  0  0  0  0  0
  183.6120  178.2660  138.3730 C   0  0  0  0  0  2  0  0  0  0  0  0
  185.1140  178.5340  138.3010 C   0  0  0  0  0  2  0  0  0  0  0  0
  185.7990  177.7530  137.1830 C   0  0  1  0  0  3  0  0  0  0  0  0
  184.8260  177.2970  136.1940 N   0  0  0  0  0  2  0  0  0  0  0  0
  185.1990  174.9880  136.5960 N   0  0  0  0  0  0  0  0  0  0  0  0
  183.3980  175.3830  134.7290 S   0  0  0  0  0  0  0  0  0  0  0  0
  184.5730  175.9120  135.9540 C   0  0  0  0  0  0  0  0  0  0  0  0
  184.0220  173.6830  134.9340 C   0  0  1  0  0  3  0  0  0  0  0  0
  184.8380  173.6320  136.2280 C   0  0  1  0  0  3  0  0  0  0  0  0
  186.0290  171.4560  136.2190 C   0  0  0  0  0  2  0  0  0  0  0  0
  186.0660  172.7820  136.0820 C   0  0  0  0  0  3  0  0  0  0  0  0
  182.8960  172.7650  135.0200 N   0  0  0  0  0  2  0  0  0  0  0  0
  181.3670  174.4960  135.7520 C   0  0  0  0  0  2  0  0  0  0  0  0
  180.2570  171.9800  135.8620 O   0  0  0  0  0  0  0  0  0  0  0  0
  181.6860  173.4950  134.6670 C   0  0  2  0  0  3  0  0  0  0  0  0
  179.9630  174.3300  136.1120 N   0  0  0  0  0  0  0  0  0  0  0  0
  179.4620  173.0910  135.5030 C   0  0  1  0  0  3  0  0  0  0  0  0
  180.4990  172.5500  134.5970 C   0  0  2  0  0  3  0  0  0  0  0  0
  178.9310  173.1130  138.2490 O   0  0  0  0  0  0  0  0  0  0  0  0
  181.2040  174.0050  138.4300 O   0  0  0  0  0  0  0  0  0  0  0  0
  179.8390  174.2410  137.8460 S   0  0  0  0  0  0  0  0  0  0  0  0
  179.8020  176.8490  137.8550 O   0  0  0  0  0  1  0  0  0  0  0  0
  179.1920  175.7700  138.4940 C   0  0  0  0  0  2  0  0  0  0  0  0
  186.8890  178.5960  136.5270 C   0  0  0  0  0  2  0  0  0  0  0  0
  187.9710  177.7300  135.9790 C   0  0  0  0  0  0  0  0  0  0  0  0
  189.1510  178.1710  135.9200 O   0  0  0  0  0  0  0  0  0  0  0  0
  188.4850  175.7570  134.6080 C   0  0  0  0  0  1  0  0  0  0  0  0
  187.6620  176.4460  135.5360 O   0  0  0  0  0  0  0  0  0  0  0  0
  1  5  1  0  0  0  0
  1  3  1  0  0  0  0
  2  1  1  0  0  0  0
  2  5  1  0  0  0  0
  3  9  1  0  0  0  0
  3  6  1  0  0  0  0
  4  6  1  0  0  0  0
  5  4  1  0  0  0  0
  7  8  2  0  0  0  0
  7  9  1  0  0  0  0
  8 18  1  0  0  0  0
  9 17  2  0  0  0  0
 10 16  1  0  0  0  0
 10 12  1  0  0  0  0
 12  8  1  0  0  0  0
 12 15  1  0  0  0  0
 13 14  2  0  0  0  0
 14 33  1  0  0  0  0
 15 14  1  0  0  0  0
 15 18  1  0  0  0  0
 16 13  1  0  0  0  0
 17 11  1  0  0  0  0
 18 11  2  0  0  0  0
 20 22  1  0  0  0  0
 21 10  1  0  0  0  0
 22 19  2  0  0  0  0
 22 21  1  0  0  0  0
 23 26  1  0  0  0  0
 23 20  1  0  0  0  0
 25 24  1  0  0  0  0
 25 26  1  0  0  0  0
 27 29  1  0  0  0  0
 27 23  1  0  0  0  0
 28 26  1  0  0  0  0
 29 25  2  0  0  0  0
 30 29  1  0  0  0  0
 31 30  1  0  0  0  0
 33 32  1  0  0  0  0
 34  2  1  0  0  0  0
 35 34  1  0  0  0  0
 36 35  1  0  0  0  0
 37 36  1  0  0  0  0
 38 37  1  0  0  0  0
 39 38  1  0  0  0  0
 40 39  1  0  0  0  0
 41 40  1  0  0  0  0
 43 45  1  0  0  0  0
 43 44  1  0  0  0  0
 44 41  1  0  0  0  0
 44 42  2  0  0  0  0
 45 49  1  0  0  0  0
 45 46  1  0  0  0  0
 46 42  1  0  0  0  0
 48 47  2  0  0  0  0
 48 46  1  0  0  0  0
 50 53  1  0  0  0  0
 52 49  1  0  0  0  0
 52 50  1  0  0  0  0
 53 58  1  0  0  0  0
 54 51  1  0  0  0  0
 54 53  1  0  0  0  0
 55 52  1  0  0  0  0
 55 54  1  0  0  0  0
 55 51  1  0  0  0  0
 58 56  2  0  0  0  0
 58 57  2  0  0  0  0
 58 60  1  0  0  0  0
 59 60  1  0  0  0  0
 61 40  1  0  0  0  0
 62 61  1  0  0  0  0
 63 62  2  0  0  0  0
 64 65  1  0  0  0  0
 65 62  1  0  0  0  0
M  END
>  <MODEL>
2

>  <REMARK>
 VINA RESULT:      -5.2      2.780      6.581
  Name = 
  21 active torsions:
  status: ('A' for Active; 'I' for Inactive)
    1  A    between atoms: N_8  and  C_44
    2  A    between atoms: C_9  and  N_35
    3  A    between atoms: C_11  and  C_34
    4  A    between atoms: S_12  and  N_24
    5  A    between atoms: S_12  and  C_57
    6  A    between atoms: C_14  and  C_16
    7  A    between atoms: C_18  and  N_27
    8  A    between atoms: C_20  and  C_42
    9  A    between atoms: C_20  and  C_44
   10  A    between atoms: O_21  and  C_42
   11  A    between atoms: C_23  and  C_45
   12  A    between atoms: C_23  and  C_48
   13  A    between atoms: C_26  and  C_44
   14  A    between atoms: C_26  and  C_48
   15  A    between atoms: N_27  and  C_52
   16  A    between atoms: C_29  and  N_58
   17  A    between atoms: C_34  and  C_47
   18  A    between atoms: C_39  and  C_62
   19  A    between atoms: O_41  and  C_60
   20  A    between atoms: C_45  and  C_47
   21  A    between atoms: C_54  and  C_59
                            x       y       z     vdW  Elec       q    Type
                         _______ _______ _______ _____ _____    ______ ____

>  <TORSDO>
F 21

$$$$
=
 OpenBabel11042411403D

 65 73  0  0  1  0  0  0  0  0999 V2000
  186.8810  176.6270  143.9460 C   0  0  2  0  0  3  0  0  0  0  0  0
  188.3300  176.3520  143.5370 C   0  0  2  0  0  3  0  0  0  0  0  0
  186.5270  178.1030  144.1580 C   0  0  2  0  0  3  0  0  0  0  0  0
  188.1400  177.5170  145.8450 C   0  0  0  0  0  2  0  0  0  0  0  0
  187.9100  176.2580  145.0100 C   0  0  1  0  0  3  0  0  0  0  0  0
  186.9700  178.4340  145.5710 C   0  0  0  0  0  2  0  0  0  0  0  0
  184.5370  178.2510  142.6070 C   0  0  0  0  0  3  0  0  0  0  0  0
  183.2000  178.5660  142.4660 C   0  0  0  0  0  0  0  0  0  0  0  0
  185.0600  178.3760  143.9230 C   0  0  0  0  0  0  0  0  0  0  0  0
  181.7310  177.1870  141.0670 C   0  0  1  0  0  3  0  0  0  0  0  0
  182.8610  179.1680  144.8270 C   0  0  0  0  0  3  0  0  0  0  0  0
  182.0440  178.6190  141.5260 C   0  0  1  0  0  3  0  0  0  0  0  0
  179.6120  177.2330  142.2980 C   0  0  0  0  0  3  0  0  0  0  0  0
  180.0540  178.2380  143.0700 C   0  0  0  0  0  0  0  0  0  0  0  0
  181.2090  179.1260  142.6310 C   0  0  1  0  0  3  0  0  0  0  0  0
  180.2310  176.9710  140.9600 C   0  0  0  0  0  2  0  0  0  0  0  0
  184.2300  178.8480  144.9980 C   0  0  0  0  0  3  0  0  0  0  0  0
  182.3870  179.0050  143.5410 C   0  0  0  0  0  0  0  0  0  0  0  0
  180.7610  175.3860  139.1000 O   0  0  0  0  0  0  0  0  0  0  0  0
  182.5060  175.7940  137.6040 N   0  0  0  0  0  2  0  0  0  0  0  0
  182.3700  176.9300  139.7870 N   0  0  0  0  0  2  0  0  0  0  0  0
  181.8270  176.0090  138.8410 C   0  0  0  0  0  0  0  0  0  0  0  0
  182.0380  174.8350  136.6140 C   0  0  1  0  0  3  0  0  0  0  0  0
  182.3220  171.2150  137.3810 O   0  0  0  0  0  1  0  0  0  0  0  0
  181.9660  172.5340  137.1330 C   0  0  0  0  0  0  0  0  0  0  0  0
  182.9190  173.5790  136.6670 C   0  0  1  0  0  3  0  0  0  0  0  0
  180.7380  174.3800  136.9640 O   0  0  0  0  0  0  0  0  0  0  0  0
  183.3740  173.2560  135.3250 N   0  0  0  0  0  1  0  0  0  0  0  0
  180.7520  173.0350  137.2750 C   0  0  0  0  0  0  0  0  0  0  0  0
  179.6010  172.3510  137.6860 O   0  0  0  0  0  0  0  0  0  0  0  0
  178.9480  171.3640  136.9020 C   0  0  0  0  0  1  0  0  0  0  0  0
  178.9570  179.8870  144.4560 N   0  0  0  0  0  1  0  0  0  0  0  0
  179.3890  178.5030  144.3840 C   0  0  0  0  0  2  0  0  0  0  0  0
  189.1810  177.5840  143.1970 C   0  0  0  0  0  2  0  0  0  0  0  0
  189.8950  177.3990  141.8660 C   0  0  0  0  0  2  0  0  0  0  0  0
  188.9900  177.7370  140.6900 C   0  0  0  0  0  2  0  0  0  0  0  0
  189.5100  177.1380  139.3910 C   0  0  0  0  0  2  0  0  0  0  0  0
  190.0570  178.2080  138.4560 C   0  0  0  0  0  2  0  0  0  0  0  0
  189.6890  177.8830  137.0100 C   0  0  0  0  0  2  0  0  0  0  0  0
  189.1880  176.4520  136.8370 C   0  0  1  0  0  3  0  0  0  0  0  0
  187.8650  176.4350  136.2180 N   0  0  0  0  0  2  0  0  0  0  0  0
  186.9040  177.9620  137.7590 N   0  0  0  0  0  0  0  0  0  0  0  0
  185.1700  177.1550  135.9620 S   0  0  0  0  0  0  0  0  0  0  0  0
  186.7760  177.2100  136.7230 C   0  0  0  0  0  0  0  0  0  0  0  0
  184.5150  178.0770  137.3910 C   0  0  1  0  0  3  0  0  0  0  0  0
  185.7020  178.6740  138.1530 C   0  0  1  0  0  3  0  0  0  0  0  0
  186.5300  178.6850  140.4900 C   0  0  0  0  0  2  0  0  0  0  0  0
  185.5080  178.5990  139.6390 C   0  0  0  0  0  3  0  0  0  0  0  0
  183.6430  179.1410  136.9180 N   0  0  0  0  0  2  0  0  0  0  0  0
  181.2340  179.3370  137.0770 C   0  0  0  0  0  2  0  0  0  0  0  0
  182.5370  181.6640  137.7560 O   0  0  0  0  0  0  0  0  0  0  0  0
  182.5300  179.2640  137.8480 C   0  0  2  0  0  3  0  0  0  0  0  0
  180.4780  180.4780  137.5810 N   0  0  0  0  0  0  0  0  0  0  0  0
  181.3580  181.2870  138.4370 C   0  0  1  0  0  3  0  0  0  0  0  0
  182.6340  180.5630  138.6290 C   0  0  2  0  0  3  0  0  0  0  0  0
  178.9470  180.6310  135.4020 O   0  0  0  0  0  0  0  0  0  0  0  0
  179.2470  182.6650  136.7310 O   0  0  0  0  0  0  0  0  0  0  0  0
  179.9240  181.4220  136.2270 S   0  0  0  0  0  0  0  0  0  0  0  0
  181.0470  183.1230  134.5990 O   0  0  0  0  0  1  0  0  0  0  0  0
  181.3050  181.8930  135.2020 C   0  0  0  0  0  2  0  0  0  0  0  0
  190.1810  175.6290  136.0220 C   0  0  0  0  0  2  0  0  0  0  0  0
  191.2770  175.1120  136.8900 C   0  0  0  0  0  0  0  0  0  0  0  0
  190.9940  174.5510  137.9840 O   0  0  0  0  0  0  0  0  0  0  0  0
  193.5610  175.9320  137.2810 C   0  0  0  0  0  1  0  0  0  0  0  0
  192.6010  175.2580  136.4810 O   0  0  0  0  0  0  0  0  0  0  0  0
  1  3  1  0  0  0  0
  1  5  1  0  0  0  0
  2  1  1  0  0  0  0
  2  5  1  0  0  0  0
  3  6  1  0  0  0  0
  5  4  1  0  0  0  0
  6  4  1  0  0  0  0
  7  9  1  0  0  0  0
  8  7  2  0  0  0  0
  8 18  1  0  0  0  0
  9  3  1  0  0  0  0
  9 17  2  0  0  0  0
 10 12  1  0  0  0  0
 11 17  1  0  0  0  0
 12  8  1  0  0  0  0
 12 15  1  0  0  0  0
 13 14  2  0  0  0  0
 14 33  1  0  0  0  0
 15 14  1  0  0  0  0
 15 18  1  0  0  0  0
 16 10  1  0  0  0  0
 16 13  1  0  0  0  0
 18 11  2  0  0  0  0
 20 22  1  0  0  0  0
 21 10  1  0  0  0  0
 22 19  2  0  0  0  0
 22 21  1  0  0  0  0
 23 26  1  0  0  0  0
 23 27  1  0  0  0  0
 23 20  1  0  0  0  0
 25 29  2  0  0  0  0
 25 24  1  0  0  0  0
 26 25  1  0  0  0  0
 27 29  1  0  0  0  0
 28 26  1  0  0  0  0
 29 30  1  0  0  0  0
 31 30  1  0  0  0  0
 33 32  1  0  0  0  0
 34  2  1  0  0  0  0
 35 34  1  0  0  0  0
 36 35  1  0  0  0  0
 37 36  1  0  0  0  0
 38 37  1  0  0  0  0
 39 38  1  0  0  0  0
 40 39  1  0  0  0  0
 41 44  1  0  0  0  0
 41 40  1  0  0  0  0
 42 46  1  0  0  0  0
 43 44  1  0  0  0  0
 43 45  1  0  0  0  0
 44 42  2  0  0  0  0
 45 46  1  0  0  0  0
 46 48  1  0  0  0  0
 48 47  2  0  0  0  0
 49 45  1  0  0  0  0
 49 52  1  0  0  0  0
 50 53  1  0  0  0  0
 50 52  1  0  0  0  0
 51 54  1  0  0  0  0
 51 55  1  0  0  0  0
 52 55  1  0  0  0  0
 53 54  1  0  0  0  0
 54 55  1  0  0  0  0
 56 58  2  0  0  0  0
 58 57  2  0  0  0  0
 58 53  1  0  0  0  0
 59 60  1  0  0  0  0
 60 58  1  0  0  0  0
 61 40  1  0  0  0  0
 61 62  1  0  0  0  0
 62 63  2  0  0  0  0
 65 62  1  0  0  0  0
 65 64  1  0  0  0  0
M  END
>  <MODEL>
3

>  <REMARK>
 VINA RESULT:      -3.8      3.748      9.951
  Name = 
  21 active torsions:
  status: ('A' for Active; 'I' for Inactive)
    1  A    between atoms: N_8  and  C_44
    2  A    between atoms: C_9  and  N_35
    3  A    between atoms: C_11  and  C_34
    4  A    between atoms: S_12  and  N_24
    5  A    between atoms: S_12  and  C_57
    6  A    between atoms: C_14  and  C_16
    7  A    between atoms: C_18  and  N_27
    8  A    between atoms: C_20  and  C_42
    9  A    between atoms: C_20  and  C_44
   10  A    between atoms: O_21  and  C_42
   11  A    between atoms: C_23  and  C_45
   12  A    between atoms: C_23  and  C_48
   13  A    between atoms: C_26  and  C_44
   14  A    between atoms: C_26  and  C_48
   15  A    between atoms: N_27  and  C_52
   16  A    between atoms: C_29  and  N_58
   17  A    between atoms: C_34  and  C_47
   18  A    between atoms: C_39  and  C_62
   19  A    between atoms: O_41  and  C_60
   20  A    between atoms: C_45  and  C_47
   21  A    between atoms: C_54  and  C_59
                            x       y       z     vdW  Elec       q    Type
                         _______ _______ _______ _____ _____    ______ ____

>  <TORSDO>
F 21

$$$$
=
 OpenBabel11042411403D

 65 73  0  0  1  0  0  0  0  0999 V2000
  184.7510  177.9740  143.8140 C   0  0  2  0  0  3  0  0  0  0  0  0
  183.2700  178.0680  143.4370 C   0  0  2  0  0  3  0  0  0  0  0  0
  185.1920  178.8700  144.9760 C   0  0  2  0  0  3  0  0  0  0  0  0
  184.5200  180.3250  143.1810 C   0  0  0  0  0  2  0  0  0  0  0  0
  184.3170  178.8960  142.6790 C   0  0  1  0  0  3  0  0  0  0  0  0
  185.4520  180.2350  144.3660 C   0  0  0  0  0  2  0  0  0  0  0  0
  187.2870  177.4570  145.0010 C   0  0  0  0  0  3  0  0  0  0  0  0
  188.3310  176.9480  145.7470 C   0  0  0  0  0  0  0  0  0  0  0  0
  186.3930  178.3120  145.7020 C   0  0  0  0  0  0  0  0  0  0  0  0
  190.5950  176.8280  144.8110 C   0  0  1  0  0  3  0  0  0  0  0  0
  187.6520  178.0280  147.8500 C   0  0  0  0  0  3  0  0  0  0  0  0
  189.5750  176.1250  145.7170 C   0  0  1  0  0  3  0  0  0  0  0  0
  192.0100  177.3210  146.7510 C   0  0  0  0  0  3  0  0  0  0  0  0
  190.9690  177.1570  147.5820 C   0  0  0  0  0  0  0  0  0  0  0  0
  189.7350  176.3720  147.1630 C   0  0  1  0  0  3  0  0  0  0  0  0
  191.9980  176.7090  145.3850 C   0  0  0  0  0  2  0  0  0  0  0  0
  186.5730  178.5650  147.1060 C   0  0  0  0  0  3  0  0  0  0  0  0
  188.5120  177.2280  147.1250 C   0  0  0  0  0  0  0  0  0  0  0  0
  191.6070  178.0720  142.4690 O   0  0  0  0  0  0  0  0  0  0  0  0
  190.9910  176.3210  141.0530 N   0  0  0  0  0  2  0  0  0  0  0  0
  190.5470  176.2540  143.4760 N   0  0  0  0  0  2  0  0  0  0  0  0
  191.0760  176.9350  142.3400 C   0  0  0  0  0  0  0  0  0  0  0  0
  191.4650  176.9770  139.8430 C   0  0  1  0  0  3  0  0  0  0  0  0
  194.4940  175.6350  138.1710 O   0  0  0  0  0  1  0  0  0  0  0  0
  193.2350  176.0350  138.5990 C   0  0  0  0  0  0  0  0  0  0  0  0
  192.9970  176.8980  139.7890 C   0  0  1  0  0  3  0  0  0  0  0  0
  191.0250  176.2530  138.7010 O   0  0  0  0  0  0  0  0  0  0  0  0
  193.5370  178.2240  139.5420 N   0  0  0  0  0  1  0  0  0  0  0  0
  192.0950  175.7080  138.0190 C   0  0  0  0  0  0  0  0  0  0  0  0
  191.9260  174.9190  136.8750 O   0  0  0  0  0  0  0  0  0  0  0  0
  190.7860  174.1070  136.6380 C   0  0  0  0  0  1  0  0  0  0  0  0
  192.3690  178.2200  149.2430 N   0  0  0  0  0  1  0  0  0  0  0  0
  191.0270  177.7450  148.9570 C   0  0  0  0  0  2  0  0  0  0  0  0
  182.3830  178.8840  144.3890 C   0  0  0  0  0  2  0  0  0  0  0  0
  181.0540  179.2280  143.7310 C   0  0  0  0  0  2  0  0  0  0  0  0
  181.1080  179.0370  142.2220 C   0  0  0  0  0  2  0  0  0  0  0  0
  179.8750  179.6130  141.5390 C   0  0  0  0  0  2  0  0  0  0  0  0
  179.0440  178.5270  140.8680 C   0  0  0  0  0  2  0  0  0  0  0  0
  179.9060  177.7370  139.8860 C   0  0  0  0  0  2  0  0  0  0  0  0
  179.1450  176.5920  139.2230 C   0  0  1  0  0  3  0  0  0  0  0  0
  179.8260  176.1450  138.0120 N   0  0  0  0  0  2  0  0  0  0  0  0
  180.8530  178.2390  137.5760 N   0  0  0  0  0  0  0  0  0  0  0  0
  181.4650  176.4470  135.7600 S   0  0  0  0  0  0  0  0  0  0  0  0
  180.6620  177.0110  137.2420 C   0  0  0  0  0  0  0  0  0  0  0  0
  181.9140  178.1760  135.4020 C   0  0  1  0  0  3  0  0  0  0  0  0
  181.7170  178.9910  136.6840 C   0  0  1  0  0  3  0  0  0  0  0  0
  180.0420  180.5030  135.6570 C   0  0  0  0  0  2  0  0  0  0  0  0
  181.1350  180.3440  136.4040 C   0  0  0  0  0  3  0  0  0  0  0  0
  183.3070  178.2350  134.9860 N   0  0  0  0  0  2  0  0  0  0  0  0
  184.4770  177.4960  136.9740 C   0  0  0  0  0  2  0  0  0  0  0  0
  186.1580  177.8660  134.8250 O   0  0  0  0  0  0  0  0  0  0  0  0
  184.0100  177.1130  135.5900 C   0  0  2  0  0  3  0  0  0  0  0  0
  185.8890  177.1460  137.0800 N   0  0  0  0  0  0  0  0  0  0  0  0
  186.3970  176.8170  135.7410 C   0  0  1  0  0  3  0  0  0  0  0  0
  185.2600  176.7800  134.7950 C   0  0  2  0  0  3  0  0  0  0  0  0
  186.4700  179.7450  136.9260 O   0  0  0  0  0  0  0  0  0  0  0  0
  186.3200  178.7400  139.1530 O   0  0  0  0  0  0  0  0  0  0  0  0
  186.7540  178.5090  137.7330 S   0  0  0  0  0  0  0  0  0  0  0  0
  189.1790  179.2780  137.1570 O   0  0  0  0  0  1  0  0  0  0  0  0
  188.5070  178.1890  137.7110 C   0  0  0  0  0  2  0  0  0  0  0  0
  178.9550  175.4350  140.2010 C   0  0  0  0  0  2  0  0  0  0  0  0
  180.1530  174.5480  140.2100 C   0  0  0  0  0  0  0  0  0  0  0  0
  181.2880  175.0370  140.4650 O   0  0  0  0  0  0  0  0  0  0  0  0
  180.2700  172.6540  138.6490 C   0  0  0  0  0  1  0  0  0  0  0  0
  180.0020  173.1910  139.9360 O   0  0  0  0  0  0  0  0  0  0  0  0
  1  3  1  0  0  0  0
  2  1  1  0  0  0  0
  2 34  1  0  0  0  0
  3  9  1  0  0  0  0
  4  6  1  0  0  0  0
  5  4  1  0  0  0  0
  5  2  1  0  0  0  0
  5  1  1  0  0  0  0
  6  3  1  0  0  0  0
  7  9  2  0  0  0  0
  7  8  1  0  0  0  0
  8 18  2  0  0  0  0
  9 17  1  0  0  0  0
 10 16  1  0  0  0  0
 10 12  1  0  0  0  0
 12  8  1  0  0  0  0
 12 15  1  0  0  0  0
 13 14  2  0  0  0  0
 14 33  1  0  0  0  0
 15 14  1  0  0  0  0
 16 13  1  0  0  0  0
 17 11  2  0  0  0  0
 18 15  1  0  0  0  0
 18 11  1  0  0  0  0
 20 22  1  0  0  0  0
 21 10  1  0  0  0  0
 22 19  2  0  0  0  0
 22 21  1  0  0  0  0
 23 20  1  0  0  0  0
 24 25  1  0  0  0  0
 25 26  1  0  0  0  0
 26 23  1  0  0  0  0
 27 23  1  0  0  0  0
 28 26  1  0  0  0  0
 29 25  2  0  0  0  0
 29 27  1  0  0  0  0
 30 29  1  0  0  0  0
 31 30  1  0  0  0  0
 33 32  1  0  0  0  0
 35 34  1  0  0  0  0
 36 35  1  0  0  0  0
 37 36  1  0  0  0  0
 38 37  1  0  0  0  0
 39 38  1  0  0  0  0
 40 39  1  0  0  0  0
 40 61  1  0  0  0  0
 41 40  1  0  0  0  0
 43 44  1  0  0  0  0
 44 42  2  0  0  0  0
 44 41  1  0  0  0  0
 45 43  1  0  0  0  0
 45 46  1  0  0  0  0
 46 42  1  0  0  0  0
 47 48  2  0  0  0  0
 48 46  1  0  0  0  0
 49 45  1  0  0  0  0
 49 52  1  0  0  0  0
 50 53  1  0  0  0  0
 51 54  1  0  0  0  0
 52 50  1  0  0  0  0
 53 58  1  0  0  0  0
 54 53  1  0  0  0  0
 55 51  1  0  0  0  0
 55 52  1  0  0  0  0
 55 54  1  0  0  0  0
 56 58  2  0  0  0  0
 58 57  2  0  0  0  0
 59 60  1  0  0  0  0
 60 58  1  0  0  0  0
 61 62  1  0  0  0  0
 62 63  2  0  0  0  0
 64 65  1  0  0  0  0
 65 62  1  0  0  0  0
M  END
>  <MODEL>
4

>  <REMARK>
 VINA RESULT:      -3.4      3.102      6.222
  Name = 
  21 active torsions:
  status: ('A' for Active; 'I' for Inactive)
    1  A    between atoms: N_8  and  C_44
    2  A    between atoms: C_9  and  N_35
    3  A    between atoms: C_11  and  C_34
    4  A    between atoms: S_12  and  N_24
    5  A    between atoms: S_12  and  C_57
    6  A    between atoms: C_14  and  C_16
    7  A    between atoms: C_18  and  N_27
    8  A    between atoms: C_20  and  C_42
    9  A    between atoms: C_20  and  C_44
   10  A    between atoms: O_21  and  C_42
   11  A    between atoms: C_23  and  C_45
   12  A    between atoms: C_23  and  C_48
   13  A    between atoms: C_26  and  C_44
   14  A    between atoms: C_26  and  C_48
   15  A    between atoms: N_27  and  C_52
   16  A    between atoms: C_29  and  N_58
   17  A    between atoms: C_34  and  C_47
   18  A    between atoms: C_39  and  C_62
   19  A    between atoms: O_41  and  C_60
   20  A    between atoms: C_45  and  C_47
   21  A    between atoms: C_54  and  C_59
                            x       y       z     vdW  Elec       q    Type
                         _______ _______ _______ _____ _____    ______ ____

>  <TORSDO>
F 21

$$$$
=
 OpenBabel11042411403D

 65 73  0  0  1  0  0  0  0  0999 V2000
  186.4610  178.9230  141.1610 C   0  0  2  0  0  3  0  0  0  0  0  0
  186.2130  178.9160  139.6490 C   0  0  2  0  0  3  0  0  0  0  0  0
  185.9430  177.6960  141.9170 C   0  0  2  0  0  3  0  0  0  0  0  0
  184.0200  178.8370  141.0300 C   0  0  0  0  0  2  0  0  0  0  0  0
  185.2420  179.6420  140.5900 C   0  0  1  0  0  3  0  0  0  0  0  0
  184.4720  177.9610  142.1750 C   0  0  0  0  0  2  0  0  0  0  0  0
  188.0410  176.9090  143.0870 C   0  0  0  0  0  3  0  0  0  0  0  0
  188.6690  176.6530  144.2890 C   0  0  0  0  0  0  0  0  0  0  0  0
  186.7240  177.4370  143.1840 C   0  0  0  0  0  0  0  0  0  0  0  0
  191.0330  177.2210  144.6110 C   0  0  1  0  0  3  0  0  0  0  0  0
  186.7720  177.3570  145.6880 C   0  0  0  0  0  3  0  0  0  0  0  0
  189.9320  176.2050  144.9440 C   0  0  1  0  0  3  0  0  0  0  0  0
  191.1030  177.9440  146.9520 C   0  0  0  0  0  3  0  0  0  0  0  0
  189.8760  177.4450  147.1680 C   0  0  0  0  0  0  0  0  0  0  0  0
  189.2790  176.3850  146.2550 C   0  0  1  0  0  3  0  0  0  0  0  0
  191.9370  177.4490  145.8120 C   0  0  0  0  0  2  0  0  0  0  0  0
  186.1070  177.6310  144.4680 C   0  0  0  0  0  3  0  0  0  0  0  0
  188.0580  176.8750  145.5490 C   0  0  0  0  0  0  0  0  0  0  0  0
  190.5880  177.9690  141.9090 O   0  0  0  0  0  0  0  0  0  0  0  0
  192.3310  176.6630  141.0700 N   0  0  0  0  0  2  0  0  0  0  0  0
  191.8120  176.7510  143.4770 N   0  0  0  0  0  2  0  0  0  0  0  0
  191.5340  177.1680  142.1420 C   0  0  0  0  0  0  0  0  0  0  0  0
  192.0740  177.0060  139.6790 C   0  0  1  0  0  3  0  0  0  0  0  0
  193.0130  174.5620  137.0490 O   0  0  0  0  0  1  0  0  0  0  0  0
  192.4220  175.4070  137.9790 C   0  0  0  0  0  0  0  0  0  0  0  0
  193.1730  176.4000  138.7950 C   0  0  1  0  0  3  0  0  0  0  0  0
  190.8740  176.3810  139.2430 O   0  0  0  0  0  0  0  0  0  0  0  0
  193.7140  177.4320  137.9260 N   0  0  0  0  0  1  0  0  0  0  0  0
  191.1330  175.4430  138.2630 C   0  0  0  0  0  0  0  0  0  0  0  0
  190.1210  174.6630  137.6910 O   0  0  0  0  0  0  0  0  0  0  0  0
  190.0240  174.3940  136.3000 C   0  0  0  0  0  1  0  0  0  0  0  0
  189.1020  179.3800  148.3950 N   0  0  0  0  0  1  0  0  0  0  0  0
  189.0820  177.9280  148.3400 C   0  0  0  0  0  2  0  0  0  0  0  0
  185.6670  177.6060  139.0620 C   0  0  0  0  0  2  0  0  0  0  0  0
  186.7140  176.9220  138.1950 C   0  0  0  0  0  2  0  0  0  0  0  0
  186.2260  175.5760  137.6800 C   0  0  0  0  0  2  0  0  0  0  0  0
  185.0830  175.7360  136.6870 C   0  0  0  0  0  2  0  0  0  0  0  0
  185.3180  174.9210  135.4220 C   0  0  0  0  0  2  0  0  0  0  0  0
  184.0370  174.8520  134.5940 C   0  0  0  0  0  2  0  0  0  0  0  0
  182.8730  174.2280  135.3590 C   0  0  1  0  0  3  0  0  0  0  0  0
  181.7240  175.1280  135.3840 N   0  0  0  0  0  2  0  0  0  0  0  0
  181.3300  174.8860  137.7110 N   0  0  0  0  0  0  0  0  0  0  0  0
  179.5950  176.4990  136.5830 S   0  0  0  0  0  0  0  0  0  0  0  0
  181.0040  175.4150  136.5840 C   0  0  0  0  0  0  0  0  0  0  0  0
  179.2430  175.9640  138.2890 C   0  0  1  0  0  3  0  0  0  0  0  0
  180.4940  175.2670  138.8340 C   0  0  1  0  0  3  0  0  0  0  0  0
  179.0450  174.0170  140.4110 C   0  0  0  0  0  2  0  0  0  0  0  0
  180.1480  174.0670  139.6640 C   0  0  0  0  0  3  0  0  0  0  0  0
  178.9310  177.1290  139.1030 N   0  0  0  0  0  2  0  0  0  0  0  0
  180.8050  177.7080  140.5240 C   0  0  0  0  0  2  0  0  0  0  0  0
  178.9740  179.7500  140.2950 O   0  0  0  0  0  0  0  0  0  0  0  0
  180.1270  177.9530  139.1970 C   0  0  2  0  0  3  0  0  0  0  0  0
  181.0760  179.0050  141.1330 N   0  0  0  0  0  0  0  0  0  0  0  0
  180.3540  180.0400  140.3800 C   0  0  1  0  0  3  0  0  0  0  0  0
  179.7600  179.4260  139.1720 C   0  0  2  0  0  3  0  0  0  0  0  0
  179.7160  180.1980  143.0930 O   0  0  0  0  0  0  0  0  0  0  0  0
  179.6770  177.7520  143.0020 O   0  0  0  0  0  0  0  0  0  0  0  0
  180.5290  178.9710  142.7850 S   0  0  0  0  0  0  0  0  0  0  0  0
  182.2900  180.1930  144.2700 O   0  0  0  0  0  1  0  0  0  0  0  0
  181.9240  178.9030  143.8910 C   0  0  0  0  0  2  0  0  0  0  0  0
  182.4960  172.8780  134.7560 C   0  0  0  0  0  2  0  0  0  0  0  0
  182.7160  171.7790  135.7390 C   0  0  0  0  0  0  0  0  0  0  0  0
  183.5040  170.8370  135.4530 O   0  0  0  0  0  0  0  0  0  0  0  0
  180.6530  171.5470  137.0540 C   0  0  0  0  0  1  0  0  0  0  0  0
  182.0450  171.8080  136.9600 O   0  0  0  0  0  0  0  0  0  0  0  0
  1  3  1  0  0  0  0
  2  5  1  0  0  0  0
  2  1  1  0  0  0  0
  3  6  1  0  0  0  0
  3  9  1  0  0  0  0
  4  6  1  0  0  0  0
  5  4  1  0  0  0  0
  5  1  1  0  0  0  0
  7  9  2  0  0  0  0
  7  8  1  0  0  0  0
  8 12  1  0  0  0  0
  8 18  2  0  0  0  0
  9 17  1  0  0  0  0
 10 12  1  0  0  0  0
 10 16  1  0  0  0  0
 12 15  1  0  0  0  0
 13 14  2  0  0  0  0
 14 33  1  0  0  0  0
 15 14  1  0  0  0  0
 16 13  1  0  0  0  0
 17 11  2  0  0  0  0
 18 11  1  0  0  0  0
 18 15  1  0  0  0  0
 19 22  2  0  0  0  0
 20 22  1  0  0  0  0
 21 10  1  0  0  0  0
 22 21  1  0  0  0  0
 23 20  1  0  0  0  0
 24 25  1  0  0  0  0
 25 29  2  0  0  0  0
 25 26  1  0  0  0  0
 26 23  1  0  0  0  0
 27 23  1  0  0  0  0
 28 26  1  0  0  0  0
 29 27  1  0  0  0  0
 30 29  1  0  0  0  0
 31 30  1  0  0  0  0
 33 32  1  0  0  0  0
 34  2  1  0  0  0  0
 35 34  1  0  0  0  0
 36 35  1  0  0  0  0
 37 36  1  0  0  0  0
 38 37  1  0  0  0  0
 39 40  1  0  0  0  0
 39 38  1  0  0  0  0
 40 41  1  0  0  0  0
 41 44  1  0  0  0  0
 42 46  1  0  0  0  0
 43 44  1  0  0  0  0
 43 45  1  0  0  0  0
 44 42  2  0  0  0  0
 45 46  1  0  0  0  0
 45 49  1  0  0  0  0
 46 48  1  0  0  0  0
 48 47  2  0  0  0  0
 49 52  1  0  0  0  0
 50 53  1  0  0  0  0
 51 54  1  0  0  0  0
 52 50  1  0  0  0  0
 53 58  1  0  0  0  0
 54 53  1  0  0  0  0
 55 52  1  0  0  0  0
 55 51  1  0  0  0  0
 55 54  1  0  0  0  0
 58 57  2  0  0  0  0
 58 56  2  0  0  0  0
 58 60  1  0  0  0  0
 60 59  1  0  0  0  0
 61 40  1  0  0  0  0
 61 62  1  0  0  0  0
 62 65  1  0  0  0  0
 63 62  2  0  0  0  0
 65 64  1  0  0  0  0
M  END
>  <MODEL>
5

>  <REMARK>
 VINA RESULT:      -3.3      2.706      7.566
  Name = 
  21 active torsions:
  status: ('A' for Active; 'I' for Inactive)
    1  A    between atoms: N_8  and  C_44
    2  A    between atoms: C_9  and  N_35
    3  A    between atoms: C_11  and  C_34
    4  A    between atoms: S_12  and  N_24
    5  A    between atoms: S_12  and  C_57
    6  A    between atoms: C_14  and  C_16
    7  A    between atoms: C_18  and  N_27
    8  A    between atoms: C_20  and  C_42
    9  A    between atoms: C_20  and  C_44
   10  A    between atoms: O_21  and  C_42
   11  A    between atoms: C_23  and  C_45
   12  A    between atoms: C_23  and  C_48
   13  A    between atoms: C_26  and  C_44
   14  A    between atoms: C_26  and  C_48
   15  A    between atoms: N_27  and  C_52
   16  A    between atoms: C_29  and  N_58
   17  A    between atoms: C_34  and  C_47
   18  A    between atoms: C_39  and  C_62
   19  A    between atoms: O_41  and  C_60
   20  A    between atoms: C_45  and  C_47
   21  A    between atoms: C_54  and  C_59
                            x       y       z     vdW  Elec       q    Type
                         _______ _______ _______ _____ _____    ______ ____

>  <TORSDO>
F 21

$$$$
