=
 OpenBabel11042410073D

 54 61  0  0  1  0  0  0  0  0999 V2000
  183.8070  178.3650  142.0580 C   0  0  1  0  0  3  0  0  0  0  0  0
  184.8440  179.0300  146.9210 O   0  0  0  0  0  0  0  0  0  0  0  0
  183.0710  178.5700  144.4150 C   0  0  0  0  0  2  0  0  0  0  0  0
  185.1950  178.9290  145.7550 C   0  0  0  0  0  0  0  0  0  0  0  0
  186.4820  178.1890  145.4700 C   0  0  0  0  0  2  0  0  0  0  0  0
  185.1310  178.9500  142.5650 C   0  0  1  0  0  3  0  0  0  0  0  0
  187.0580  178.3480  144.0660 C   0  0  2  0  0  3  0  0  0  0  0  0
  184.9530  179.9680  143.5400 O   0  0  0  0  0  0  0  0  0  0  0  0
  186.0720  177.8360  143.0220 C   0  0  0  0  0  2  0  0  0  0  0  0
  182.6300  178.7140  142.9700 C   0  0  0  0  0  2  0  0  0  0  0  0
  184.2770  179.4840  144.6910 C   0  0  1  0  0  3  0  0  0  0  0  0
  182.9590  177.5660  139.8690 N   0  0  0  0  0  0  0  0  0  0  0  0
  181.7820  175.9780  138.8250 C   0  0  0  0  0  0  0  0  0  0  0  0
  183.7260  177.0690  138.9270 C   0  0  0  0  0  0  0  0  0  0  0  0
  180.7160  177.3040  140.6700 C   0  0  0  0  0  3  0  0  0  0  0  0
  179.5400  175.0170  138.9530 N   0  0  0  0  0  0  0  0  0  0  0  0
  185.0430  177.7310  138.8000 C   0  0  2  0  0  3  0  0  0  0  0  0
  183.0620  176.0710  138.2550 C   0  0  0  0  0  0  0  0  0  0  0  0
  180.7800  175.0900  138.4080 C   0  0  0  0  0  0  0  0  0  0  0  0
  184.9210  178.8570  139.8550 C   0  0  0  0  0  2  0  0  0  0  0  0
  181.0360  174.2990  137.4620 O   0  0  0  0  0  0  0  0  0  0  0  0
  178.9330  175.7070  139.9490 C   0  0  0  0  0  3  0  0  0  0  0  0
  181.7570  176.9520  139.8310 C   0  0  0  0  0  0  0  0  0  0  0  0
  179.4560  176.7400  140.7190 C   0  0  0  0  0  3  0  0  0  0  0  0
  183.5620  178.6760  140.5760 C   0  0  2  0  0  3  0  0  0  0  0  0
  183.5690  175.3150  137.2030 O   0  0  0  0  0  1  0  0  0  0  0  0
  185.2120  178.3600  137.4240 C   0  0  0  0  0  2  0  0  0  0  0  0
  186.5000  177.8800  136.7840 C   0  0  0  0  0  1  0  0  0  0  0  0
  188.6020  176.7960  145.0800 O   0  0  0  0  0  1  0  0  0  0  0  0
  188.4030  177.6300  143.9790 C   0  0  1  0  0  3  0  0  0  0  0  0
  188.5150  176.8240  142.6800 C   0  0  0  0  0  2  0  0  0  0  0  0
  188.5770  178.4720  139.7120 C   0  0  0  0  0  1  0  0  0  0  0  0
  189.0020  177.1590  140.3450 C   0  0  2  0  0  3  0  0  0  0  0  0
  190.1060  176.2840  138.3540 N   0  0  0  0  0  0  0  0  0  0  0  0
  189.4590  177.4010  141.7130 N   0  0  0  0  0  0  0  0  0  0  0  0
  190.1530  176.5840  139.6210 C   0  0  0  0  0  0  0  0  0  0  0  0
  191.3160  176.4000  140.5080 C   0  0  0  0  0  2  0  0  0  0  0  0
  190.7780  176.7720  141.8770 C   0  0  0  0  0  2  0  0  0  0  0  0
  193.1370  175.0980  136.1690 N   0  0  0  0  0  0  0  0  0  0  0  0
  191.1990  174.3830  137.2670 N   0  0  0  0  0  0  0  0  0  0  0  0
  192.4670  176.4490  136.8660 S   0  0  0  0  0  0  0  0  0  0  0  0
  192.2980  174.0770  136.5090 C   0  0  0  0  0  0  0  0  0  0  0  0
  191.1450  175.7000  137.5560 C   0  0  0  0  0  0  0  0  0  0  0  0
  192.5410  172.6890  136.0220 C   0  0  0  0  0  2  0  0  0  0  0  0
  193.9620  172.5440  135.4850 C   0  0  0  0  0  2  0  0  0  0  0  0
  194.7720  171.5840  136.3420 C   0  0  0  0  0  2  0  0  0  0  0  0
  196.1870  171.4250  135.7710 C   0  0  0  0  0  2  0  0  0  0  0  0
  197.2010  172.1920  136.5050 N   0  0  0  0  0  0  0  0  0  0  0  0
  195.4830  174.4090  138.6370 C   0  0  0  0  0  1  0  0  0  0  0  0
  197.3710  175.6930  136.7180 O   0  0  0  0  0  0  0  0  0  0  0  0
  196.8500  173.9120  138.2040 C   0  0  1  0  0  3  0  0  0  0  0  0
  196.7690  172.4250  137.8940 C   0  0  0  0  0  2  0  0  0  0  0  0
  197.4000  173.4860  135.8530 C   0  0  0  0  0  2  0  0  0  0  0  0
  197.2170  174.4950  136.9040 C   0  0  0  0  0  0  0  0  0  0  0  0
  1  6  1  0  0  0  0
  1 10  1  1  0  0  0
  4  2  2  0  0  0  0
  5  4  1  0  0  0  0
  6  9  1  1  0  0  0
  6  8  1  0  0  0  0
  7 30  1  1  0  0  0
  7  5  1  0  0  0  0
  8 11  1  0  0  0  0
  9  7  1  0  0  0  0
 10  3  1  0  0  0  0
 11  3  1  6  0  0  0
 11  4  1  0  0  0  0
 12 25  1  0  0  0  0
 13 23  2  0  0  0  0
 14 12  1  0  0  0  0
 15 24  2  0  0  0  0
 16 22  2  0  0  0  0
 17 27  1  6  0  0  0
 17 14  1  0  0  0  0
 17 20  1  0  0  0  0
 18 13  1  0  0  0  0
 18 14  2  0  0  0  0
 19 13  1  0  0  0  0
 19 16  1  0  0  0  0
 21 19  2  0  0  0  0
 22 24  1  0  0  0  0
 23 12  1  0  0  0  0
 23 15  1  0  0  0  0
 25 20  1  6  0  0  0
 25  1  1  0  0  0  0
 26 18  1  0  0  0  0
 28 27  1  0  0  0  0
 30 29  1  1  0  0  0
 31 30  1  0  0  0  0
 33 32  1  6  0  0  0
 33 35  1  0  0  0  0
 34 36  2  0  0  0  0
 35 38  1  0  0  0  0
 35 31  1  0  0  0  0
 36 33  1  0  0  0  0
 36 37  1  0  0  0  0
 37 38  1  0  0  0  0
 39 42  2  0  0  0  0
 39 41  1  0  0  0  0
 40 43  2  0  0  0  0
 41 43  1  0  0  0  0
 42 40  1  0  0  0  0
 43 34  1  0  0  0  0
 44 42  1  0  0  0  0
 45 44  1  0  0  0  0
 45 46  1  0  0  0  0
 47 46  1  0  0  0  0
 47 48  1  0  0  0  0
 48 52  1  0  0  0  0
 50 54  2  0  0  0  0
 51 49  1  6  0  0  0
 52 51  1  0  0  0  0
 53 48  1  0  0  0  0
 53 54  1  0  0  0  0
 54 51  1  0  0  0  0
M  END
>  <MODEL>
1

>  <REMARK>
 VINA RESULT:      -8.5      0.000      0.000
  Name = 
  11 active torsions:
  status: ('A' for Active; 'I' for Inactive)
    1  A    between atoms: C_4  and  N_16
    2  A    between atoms: C_4  and  C_25
    3  A    between atoms: C_6  and  C_52
    4  A    between atoms: C_9  and  C_15
    5  A    between atoms: C_17  and  C_23
    6  A    between atoms: C_17  and  C_35
    7  A    between atoms: C_18  and  N_33
    8  A    between atoms: C_18  and  C_36
    9  A    between atoms: C_23  and  C_25
   10  A    between atoms: N_31  and  C_37
   11  A    between atoms: C_32  and  C_36
                            x       y       z     vdW  Elec       q    Type
                         _______ _______ _______ _____ _____    ______ ____

>  <TORSDO>
F 11

$$$$
=
 OpenBabel11042410073D

 54 61  0  0  1  0  0  0  0  0999 V2000
  184.3130  175.1330  135.5500 C   0  0  1  0  0  3  0  0  0  0  0  0
  188.7820  173.1810  136.7270 O   0  0  0  0  0  0  0  0  0  0  0  0
  185.9310  173.2580  135.4990 C   0  0  0  0  0  2  0  0  0  0  0  0
  187.9740  174.0980  136.7460 C   0  0  0  0  0  0  0  0  0  0  0  0
  188.5060  175.5050  136.6000 C   0  0  0  0  0  2  0  0  0  0  0  0
  185.2200  175.7050  136.6470 C   0  0  1  0  0  3  0  0  0  0  0  0
  187.5390  176.6340  136.9420 C   0  0  2  0  0  3  0  0  0  0  0  0
  185.7250  174.7110  137.5260 O   0  0  0  0  0  0  0  0  0  0  0  0
  186.3140  176.5820  136.0370 C   0  0  0  0  0  2  0  0  0  0  0  0
  184.4600  173.6170  135.4060 C   0  0  0  0  0  2  0  0  0  0  0  0
  186.5080  173.7460  136.8390 C   0  0  1  0  0  3  0  0  0  0  0  0
  182.5270  175.9820  137.0460 N   0  0  0  0  0  0  0  0  0  0  0  0
  182.0690  176.8190  139.0680 C   0  0  0  0  0  0  0  0  0  0  0  0
  181.6030  175.2200  137.5840 C   0  0  0  0  0  0  0  0  0  0  0  0
  183.7280  177.9820  137.5860 C   0  0  0  0  0  3  0  0  0  0  0  0
  182.7790  178.7140  140.4370 N   0  0  0  0  0  0  0  0  0  0  0  0
  181.1150  174.1370  136.7010 C   0  0  2  0  0  3  0  0  0  0  0  0
  181.2880  175.6750  138.8410 C   0  0  0  0  0  0  0  0  0  0  0  0
  182.0320  177.6000  140.2310 C   0  0  0  0  0  0  0  0  0  0  0  0
  181.9010  174.4280  135.3990 C   0  0  0  0  0  2  0  0  0  0  0  0
  181.2540  177.2550  141.1600 O   0  0  0  0  0  0  0  0  0  0  0  0
  183.6850  179.3650  139.6680 C   0  0  0  0  0  3  0  0  0  0  0  0
  182.8260  176.9830  137.9000 C   0  0  0  0  0  0  0  0  0  0  0  0
  184.1100  179.0430  138.3840 C   0  0  0  0  0  3  0  0  0  0  0  0
  182.8610  175.6090  135.6880 C   0  0  2  0  0  3  0  0  0  0  0  0
  180.3590  175.1090  139.7080 O   0  0  0  0  0  1  0  0  0  0  0  0
  179.6260  174.2850  136.4210 C   0  0  0  0  0  2  0  0  0  0  0  0
  179.4010  174.6480  134.9650 C   0  0  0  0  0  1  0  0  0  0  0  0
  187.3540  179.0370  136.8250 O   0  0  0  0  0  1  0  0  0  0  0  0
  188.2610  177.9760  136.8450 C   0  0  1  0  0  3  0  0  0  0  0  0
  189.2550  178.1520  137.9990 C   0  0  0  0  0  2  0  0  0  0  0  0
  187.1150  178.2970  140.6310 C   0  0  0  0  0  1  0  0  0  0  0  0
  188.5990  178.3330  140.3090 C   0  0  2  0  0  3  0  0  0  0  0  0
  189.3400  178.4310  142.6300 N   0  0  0  0  0  0  0  0  0  0  0  0
  188.8820  177.4100  139.2110 N   0  0  0  0  0  0  0  0  0  0  0  0
  189.3890  177.8570  141.4630 C   0  0  0  0  0  0  0  0  0  0  0  0
  190.2150  176.6880  141.1100 C   0  0  0  0  0  2  0  0  0  0  0  0
  189.9950  176.5380  139.6170 C   0  0  0  0  0  2  0  0  0  0  0  0
  191.7230  177.6150  145.6350 N   0  0  0  0  0  0  0  0  0  0  0  0
  189.4900  177.6230  144.9360 N   0  0  0  0  0  0  0  0  0  0  0  0
  191.7230  178.1690  144.0680 S   0  0  0  0  0  0  0  0  0  0  0  0
  190.4100  177.3780  145.9210 C   0  0  0  0  0  0  0  0  0  0  0  0
  190.0770  178.0780  143.8090 C   0  0  0  0  0  0  0  0  0  0  0  0
  190.0010  176.8180  147.2400 C   0  0  0  0  0  2  0  0  0  0  0  0
  188.4840  176.6750  147.3210 C   0  0  0  0  0  2  0  0  0  0  0  0
  187.8650  177.8500  148.0630 C   0  0  0  0  0  2  0  0  0  0  0  0
  187.0180  178.6980  147.1070 C   0  0  0  0  0  2  0  0  0  0  0  0
  186.0210  177.9170  146.3650 N   0  0  0  0  0  0  0  0  0  0  0  0
  185.2180  179.7480  143.4640 C   0  0  0  0  0  1  0  0  0  0  0  0
  182.9110  179.1000  145.2410 O   0  0  0  0  0  0  0  0  0  0  0  0
  184.9660  178.4620  144.2300 C   0  0  1  0  0  3  0  0  0  0  0  0
  186.2520  178.0250  144.9150 C   0  0  0  0  0  2  0  0  0  0  0  0
  184.6820  178.4260  146.6640 C   0  0  0  0  0  2  0  0  0  0  0  0
  184.0630  178.7110  145.3640 C   0  0  0  0  0  0  0  0  0  0  0  0
  1 10  1  1  0  0  0
  1 25  1  0  0  0  0
  1  6  1  0  0  0  0
  2  4  2  0  0  0  0
  4 11  1  0  0  0  0
  5  4  1  0  0  0  0
  5  7  1  0  0  0  0
  6  9  1  6  0  0  0
  6  8  1  0  0  0  0
  7 30  1  6  0  0  0
  9  7  1  0  0  0  0
 10  3  1  0  0  0  0
 11  3  1  6  0  0  0
 11  8  1  0  0  0  0
 12 14  1  0  0  0  0
 12 23  1  0  0  0  0
 13 19  1  0  0  0  0
 14 18  2  0  0  0  0
 15 23  1  0  0  0  0
 15 24  2  0  0  0  0
 17 27  1  6  0  0  0
 17 14  1  0  0  0  0
 18 13  1  0  0  0  0
 18 26  1  0  0  0  0
 19 16  1  0  0  0  0
 19 21  2  0  0  0  0
 20 17  1  0  0  0  0
 22 16  2  0  0  0  0
 23 13  2  0  0  0  0
 24 22  1  0  0  0  0
 25 20  1  1  0  0  0
 25 12  1  0  0  0  0
 28 27  1  0  0  0  0
 30 29  1  1  0  0  0
 30 31  1  0  0  0  0
 31 35  1  0  0  0  0
 33 32  1  1  0  0  0
 33 36  1  0  0  0  0
 34 43  1  0  0  0  0
 35 38  1  0  0  0  0
 35 33  1  0  0  0  0
 36 34  2  0  0  0  0
 37 36  1  0  0  0  0
 38 37  1  0  0  0  0
 39 42  2  0  0  0  0
 40 42  1  0  0  0  0
 41 39  1  0  0  0  0
 42 44  1  0  0  0  0
 43 41  1  0  0  0  0
 43 40  2  0  0  0  0
 44 45  1  0  0  0  0
 45 46  1  0  0  0  0
 47 46  1  0  0  0  0
 48 53  1  0  0  0  0
 48 47  1  0  0  0  0
 50 54  2  0  0  0  0
 51 49  1  1  0  0  0
 51 52  1  0  0  0  0
 51 54  1  0  0  0  0
 52 48  1  0  0  0  0
 54 53  1  0  0  0  0
M  END
>  <MODEL>
2

>  <REMARK>
 VINA RESULT:      -8.0      4.203      9.033
  Name = 
  11 active torsions:
  status: ('A' for Active; 'I' for Inactive)
    1  A    between atoms: C_4  and  N_16
    2  A    between atoms: C_4  and  C_25
    3  A    between atoms: C_6  and  C_52
    4  A    between atoms: C_9  and  C_15
    5  A    between atoms: C_17  and  C_23
    6  A    between atoms: C_17  and  C_35
    7  A    between atoms: C_18  and  N_33
    8  A    between atoms: C_18  and  C_36
    9  A    between atoms: C_23  and  C_25
   10  A    between atoms: N_31  and  C_37
   11  A    between atoms: C_32  and  C_36
                            x       y       z     vdW  Elec       q    Type
                         _______ _______ _______ _____ _____    ______ ____

>  <TORSDO>
F 11

$$$$
=
 OpenBabel11042410073D

 54 61  0  0  1  0  0  0  0  0999 V2000
  189.7230  177.2780  140.2440 C   0  0  1  0  0  3  0  0  0  0  0  0
  192.3840  175.1900  136.5390 O   0  0  0  0  0  0  0  0  0  0  0  0
  191.8570  176.3880  139.3550 C   0  0  0  0  0  2  0  0  0  0  0  0
  191.3380  175.6330  136.9890 C   0  0  0  0  0  0  0  0  0  0  0  0
  190.0560  174.9240  136.6140 C   0  0  0  0  0  2  0  0  0  0  0  0
  189.2710  177.2790  138.7780 C   0  0  1  0  0  3  0  0  0  0  0  0
  188.7590  175.6670  136.9160 C   0  0  2  0  0  3  0  0  0  0  0  0
  190.2980  177.6750  137.8790 O   0  0  0  0  0  0  0  0  0  0  0  0
  188.6330  175.9390  138.4110 C   0  0  0  0  0  2  0  0  0  0  0  0
  191.2450  177.3210  140.3840 C   0  0  0  0  0  2  0  0  0  0  0  0
  191.4180  176.8040  137.9400 C   0  0  1  0  0  3  0  0  0  0  0  0
  188.7870  177.9160  142.4500 N   0  0  0  0  0  0  0  0  0  0  0  0
  188.7070  177.4090  144.6260 C   0  0  0  0  0  0  0  0  0  0  0  0
  187.5220  177.7800  142.7720 C   0  0  0  0  0  0  0  0  0  0  0  0
  190.9220  177.8590  143.5350 C   0  0  0  0  0  3  0  0  0  0  0  0
  190.2850  177.1060  146.4660 N   0  0  0  0  0  0  0  0  0  0  0  0
  186.5770  178.0660  141.6690 C   0  0  2  0  0  3  0  0  0  0  0  0
  187.4050  177.4510  144.1010 C   0  0  0  0  0  0  0  0  0  0  0  0
  189.0250  177.1290  145.9620 C   0  0  0  0  0  0  0  0  0  0  0  0
  187.5460  178.5070  140.5450 C   0  0  0  0  0  2  0  0  0  0  0  0
  188.0850  176.8790  146.7630 O   0  0  0  0  0  0  0  0  0  0  0  0
  191.4990  177.3350  145.9110 C   0  0  0  0  0  3  0  0  0  0  0  0
  189.5470  177.7250  143.5500 C   0  0  0  0  0  0  0  0  0  0  0  0
  191.7900  177.6790  144.5950 C   0  0  0  0  0  3  0  0  0  0  0  0
  188.9900  178.3360  141.0800 C   0  0  2  0  0  3  0  0  0  0  0  0
  186.2170  177.2210  144.7860 O   0  0  0  0  0  1  0  0  0  0  0  0
  185.6620  179.2310  142.0160 C   0  0  0  0  0  2  0  0  0  0  0  0
  184.3720  178.7180  142.6280 C   0  0  0  0  0  1  0  0  0  0  0  0
  187.8540  173.4980  136.3680 O   0  0  0  0  0  1  0  0  0  0  0  0
  187.5730  174.8650  136.3830 C   0  0  1  0  0  3  0  0  0  0  0  0
  186.3090  175.1360  137.2070 C   0  0  0  0  0  2  0  0  0  0  0  0
  186.3810  178.5170  136.9090 C   0  0  0  0  0  1  0  0  0  0  0  0
  185.6040  177.4060  137.5940 C   0  0  2  0  0  3  0  0  0  0  0  0
  183.9380  178.8720  138.6050 N   0  0  0  0  0  0  0  0  0  0  0  0
  185.5060  176.2550  136.6970 N   0  0  0  0  0  0  0  0  0  0  0  0
  184.2180  177.8360  137.8660 C   0  0  0  0  0  0  0  0  0  0  0  0
  183.2360  176.9520  137.2120 C   0  0  0  0  0  2  0  0  0  0  0  0
  184.0940  175.8520  136.6170 C   0  0  0  0  0  2  0  0  0  0  0  0
  180.3580  180.3750  139.1480 N   0  0  0  0  0  0  0  0  0  0  0  0
  182.0660  179.1370  140.1600 N   0  0  0  0  0  0  0  0  0  0  0  0
  181.5770  180.2530  138.0260 S   0  0  0  0  0  0  0  0  0  0  0  0
  180.8190  179.6970  140.2390 C   0  0  0  0  0  0  0  0  0  0  0  0
  182.6380  179.3660  138.9590 C   0  0  0  0  0  0  0  0  0  0  0  0
  180.0140  179.6210  141.4920 C   0  0  0  0  0  2  0  0  0  0  0  0
  179.7180  178.1690  141.8580 C   0  0  0  0  0  2  0  0  0  0  0  0
  179.1260  177.4190  140.6740 C   0  0  0  0  0  2  0  0  0  0  0  0
  179.1490  175.9080  140.9360 C   0  0  0  0  0  2  0  0  0  0  0  0
  180.0810  175.1800  140.0670 N   0  0  0  0  0  0  0  0  0  0  0  0
  178.9360  175.5690  136.7590 C   0  0  0  0  0  1  0  0  0  0  0  0
  179.2010  172.7490  137.6920 O   0  0  0  0  0  0  0  0  0  0  0  0
  180.0250  174.9780  137.6340 C   0  0  1  0  0  3  0  0  0  0  0  0
  180.2910  175.9100  138.8060 C   0  0  0  0  0  2  0  0  0  0  0  0
  179.5310  173.8610  139.7590 C   0  0  0  0  0  2  0  0  0  0  0  0
  179.5430  173.7550  138.2940 C   0  0  0  0  0  0  0  0  0  0  0  0
  1 10  1  6  0  0  0
  1 25  1  0  0  0  0
  2  4  2  0  0  0  0
  3 10  1  0  0  0  0
  4 11  1  0  0  0  0
  5  7  1  0  0  0  0
  5  4  1  0  0  0  0
  6  9  1  6  0  0  0
  6  1  1  0  0  0  0
  7 30  1  1  0  0  0
  7  9  1  0  0  0  0
  8 11  1  0  0  0  0
  8  6  1  0  0  0  0
 11  3  1  1  0  0  0
 12 14  1  0  0  0  0
 12 23  1  0  0  0  0
 13 19  1  0  0  0  0
 14 18  2  0  0  0  0
 15 23  1  0  0  0  0
 15 24  2  0  0  0  0
 17 27  1  1  0  0  0
 17 14  1  0  0  0  0
 18 13  1  0  0  0  0
 18 26  1  0  0  0  0
 19 16  1  0  0  0  0
 19 21  2  0  0  0  0
 20 17  1  0  0  0  0
 22 16  2  0  0  0  0
 23 13  2  0  0  0  0
 24 22  1  0  0  0  0
 25 20  1  6  0  0  0
 25 12  1  0  0  0  0
 27 28  1  0  0  0  0
 30 29  1  1  0  0  0
 30 31  1  0  0  0  0
 33 32  1  6  0  0  0
 33 36  1  0  0  0  0
 34 43  1  0  0  0  0
 35 31  1  0  0  0  0
 35 33  1  0  0  0  0
 36 34  2  0  0  0  0
 37 36  1  0  0  0  0
 38 35  1  0  0  0  0
 38 37  1  0  0  0  0
 39 42  2  0  0  0  0
 40 42  1  0  0  0  0
 41 43  1  0  0  0  0
 41 39  1  0  0  0  0
 42 44  1  0  0  0  0
 43 40  2  0  0  0  0
 44 45  1  0  0  0  0
 46 47  1  0  0  0  0
 46 45  1  0  0  0  0
 48 47  1  0  0  0  0
 50 54  2  0  0  0  0
 51 49  1  6  0  0  0
 51 54  1  0  0  0  0
 51 52  1  0  0  0  0
 52 48  1  0  0  0  0
 53 48  1  0  0  0  0
 54 53  1  0  0  0  0
M  END
>  <MODEL>
3

>  <REMARK>
 VINA RESULT:      -8.0      3.886     11.246
  Name = 
  11 active torsions:
  status: ('A' for Active; 'I' for Inactive)
    1  A    between atoms: C_4  and  N_16
    2  A    between atoms: C_4  and  C_25
    3  A    between atoms: C_6  and  C_52
    4  A    between atoms: C_9  and  C_15
    5  A    between atoms: C_17  and  C_23
    6  A    between atoms: C_17  and  C_35
    7  A    between atoms: C_18  and  N_33
    8  A    between atoms: C_18  and  C_36
    9  A    between atoms: C_23  and  C_25
   10  A    between atoms: N_31  and  C_37
   11  A    between atoms: C_32  and  C_36
                            x       y       z     vdW  Elec       q    Type
                         _______ _______ _______ _____ _____    ______ ____

>  <TORSDO>
F 11

$$$$
=
 OpenBabel11042410073D

 54 61  0  0  1  0  0  0  0  0999 V2000
  189.8570  177.2650  142.4000 C   0  0  1  0  0  3  0  0  0  0  0  0
  188.5360  179.3760  138.0460 O   0  0  0  0  0  0  0  0  0  0  0  0
  188.6700  179.0280  141.1280 C   0  0  0  0  0  2  0  0  0  0  0  0
  189.1160  178.5100  138.6850 C   0  0  0  0  0  0  0  0  0  0  0  0
  190.4600  178.0430  138.1750 C   0  0  0  0  0  2  0  0  0  0  0  0
  189.9300  176.5340  141.0540 C   0  0  1  0  0  3  0  0  0  0  0  0
  191.0090  176.7610  138.7930 C   0  0  2  0  0  3  0  0  0  0  0  0
  188.7480  176.6750  140.2790 O   0  0  0  0  0  0  0  0  0  0  0  0
  191.1980  176.9290  140.2960 C   0  0  0  0  0  2  0  0  0  0  0  0
  188.7160  178.2820  142.4490 C   0  0  0  0  0  2  0  0  0  0  0  0
  188.4780  178.0340  139.9690 C   0  0  1  0  0  3  0  0  0  0  0  0
  189.4020  176.9080  144.8120 N   0  0  0  0  0  0  0  0  0  0  0  0
  188.4170  177.7420  146.6380 C   0  0  0  0  0  0  0  0  0  0  0  0
  190.3200  176.9900  145.7470 C   0  0  0  0  0  0  0  0  0  0  0  0
  187.0520  177.3070  144.5770 C   0  0  0  0  0  3  0  0  0  0  0  0
  186.1810  178.4570  147.3130 N   0  0  0  0  0  0  0  0  0  0  0  0
  191.6440  176.4590  145.3510 C   0  0  2  0  0  3  0  0  0  0  0  0
  189.7780  177.5130  146.8960 C   0  0  0  0  0  0  0  0  0  0  0  0
  187.4990  178.2530  147.5650 C   0  0  0  0  0  0  0  0  0  0  0  0
  191.3450  175.9270  143.9280 C   0  0  0  0  0  2  0  0  0  0  0  0
  187.9120  178.5490  148.7180 O   0  0  0  0  0  0  0  0  0  0  0  0
  185.4130  178.2420  146.2170 C   0  0  0  0  0  3  0  0  0  0  0  0
  188.2220  177.3300  145.3130 C   0  0  0  0  0  0  0  0  0  0  0  0
  185.7990  177.7200  144.9880 C   0  0  0  0  0  3  0  0  0  0  0  0
  189.8790  176.2960  143.5900 C   0  0  2  0  0  3  0  0  0  0  0  0
  190.4570  177.7510  148.0860 O   0  0  0  0  0  1  0  0  0  0  0  0
  192.0560  175.2930  146.2370 C   0  0  0  0  0  2  0  0  0  0  0  0
  192.7710  175.8030  147.4740 C   0  0  0  0  0  1  0  0  0  0  0  0
  193.4190  176.6880  138.8860 O   0  0  0  0  0  1  0  0  0  0  0  0
  192.3130  176.3740  138.0960 C   0  0  1  0  0  3  0  0  0  0  0  0
  192.3250  174.8830  137.7390 C   0  0  0  0  0  2  0  0  0  0  0  0
  191.4400  175.9810  134.6510 C   0  0  0  0  0  1  0  0  0  0  0  0
  190.8610  175.7540  136.0370 C   0  0  2  0  0  3  0  0  0  0  0  0
  188.5810  176.3860  135.4460 N   0  0  0  0  0  0  0  0  0  0  0  0
  191.4420  174.5430  136.6150 N   0  0  0  0  0  0  0  0  0  0  0  0
  189.4060  175.5170  135.9570 C   0  0  0  0  0  0  0  0  0  0  0  0
  189.0370  174.2070  136.5240 C   0  0  0  0  0  2  0  0  0  0  0  0
  190.3440  173.6880  137.0920 C   0  0  0  0  0  2  0  0  0  0  0  0
  184.6990  176.4690  134.9060 N   0  0  0  0  0  0  0  0  0  0  0  0
  186.4550  175.2370  135.8380 N   0  0  0  0  0  0  0  0  0  0  0  0
  186.0890  177.3240  134.5960 S   0  0  0  0  0  0  0  0  0  0  0  0
  185.1150  175.3620  135.5870 C   0  0  0  0  0  0  0  0  0  0  0  0
  187.1540  176.2780  135.3400 C   0  0  0  0  0  0  0  0  0  0  0  0
  184.1360  174.3560  136.0890 C   0  0  0  0  0  2  0  0  0  0  0  0
  183.9620  174.4760  137.6000 C   0  0  0  0  0  2  0  0  0  0  0  0
  183.6910  175.9180  138.0040 C   0  0  0  0  0  2  0  0  0  0  0  0
  182.5820  175.9760  139.0610 C   0  0  0  0  0  2  0  0  0  0  0  0
  182.6400  177.1770  139.9020 N   0  0  0  0  0  0  0  0  0  0  0  0
  181.9350  179.9330  137.8240 C   0  0  0  0  0  1  0  0  0  0  0  0
  184.5530  180.0490  139.2480 O   0  0  0  0  0  0  0  0  0  0  0  0
  182.2410  179.4960  139.2440 C   0  0  1  0  0  3  0  0  0  0  0  0
  181.6010  178.1400  139.5020 C   0  0  0  0  0  2  0  0  0  0  0  0
  183.9500  177.8130  139.7530 C   0  0  0  0  0  2  0  0  0  0  0  0
  183.6770  179.2100  139.3930 C   0  0  0  0  0  0  0  0  0  0  0  0
  1 10  1  6  0  0  0
  1 25  1  0  0  0  0
  2  4  2  0  0  0  0
  3 10  1  0  0  0  0
  4 11  1  0  0  0  0
  5  4  1  0  0  0  0
  5  7  1  0  0  0  0
  6  9  1  6  0  0  0
  6  1  1  0  0  0  0
  7 30  1  6  0  0  0
  7  9  1  0  0  0  0
  8  6  1  0  0  0  0
 11  8  1  0  0  0  0
 11  3  1  1  0  0  0
 12 23  1  0  0  0  0
 12 14  1  0  0  0  0
 13 18  1  0  0  0  0
 13 19  1  0  0  0  0
 14 18  2  0  0  0  0
 15 24  2  0  0  0  0
 15 23  1  0  0  0  0
 16 19  1  0  0  0  0
 17 14  1  0  0  0  0
 17 27  1  1  0  0  0
 18 26  1  0  0  0  0
 19 21  2  0  0  0  0
 20 17  1  0  0  0  0
 22 16  2  0  0  0  0
 23 13  2  0  0  0  0
 24 22  1  0  0  0  0
 25 20  1  1  0  0  0
 25 12  1  0  0  0  0
 27 28  1  0  0  0  0
 30 29  1  1  0  0  0
 31 30  1  0  0  0  0
 33 32  1  6  0  0  0
 33 35  1  0  0  0  0
 34 36  2  0  0  0  0
 35 38  1  0  0  0  0
 35 31  1  0  0  0  0
 36 33  1  0  0  0  0
 36 37  1  0  0  0  0
 37 38  1  0  0  0  0
 39 42  2  0  0  0  0
 41 39  1  0  0  0  0
 41 43  1  0  0  0  0
 42 40  1  0  0  0  0
 42 44  1  0  0  0  0
 43 34  1  0  0  0  0
 43 40  2  0  0  0  0
 44 45  1  0  0  0  0
 45 46  1  0  0  0  0
 46 47  1  0  0  0  0
 47 48  1  0  0  0  0
 50 54  2  0  0  0  0
 51 49  1  6  0  0  0
 51 54  1  0  0  0  0
 51 52  1  0  0  0  0
 52 48  1  0  0  0  0
 53 48  1  0  0  0  0
 54 53  1  0  0  0  0
M  END
>  <MODEL>
4

>  <REMARK>
 VINA RESULT:      -8.0      3.216      9.644
  Name = 
  11 active torsions:
  status: ('A' for Active; 'I' for Inactive)
    1  A    between atoms: C_4  and  N_16
    2  A    between atoms: C_4  and  C_25
    3  A    between atoms: C_6  and  C_52
    4  A    between atoms: C_9  and  C_15
    5  A    between atoms: C_17  and  C_23
    6  A    between atoms: C_17  and  C_35
    7  A    between atoms: C_18  and  N_33
    8  A    between atoms: C_18  and  C_36
    9  A    between atoms: C_23  and  C_25
   10  A    between atoms: N_31  and  C_37
   11  A    between atoms: C_32  and  C_36
                            x       y       z     vdW  Elec       q    Type
                         _______ _______ _______ _____ _____    ______ ____

>  <TORSDO>
F 11

$$$$
=
 OpenBabel11042410073D

 54 61  0  0  1  0  0  0  0  0999 V2000
  182.0710  177.2140  139.5190 C   0  0  1  0  0  3  0  0  0  0  0  0
  180.1920  179.2650  143.6930 O   0  0  0  0  0  0  0  0  0  0  0  0
  180.2030  177.5370  141.1130 C   0  0  0  0  0  2  0  0  0  0  0  0
  181.1050  179.0980  142.8990 C   0  0  0  0  0  0  0  0  0  0  0  0
  182.5080  178.9920  143.4520 C   0  0  0  0  0  2  0  0  0  0  0  0
  182.6930  178.4320  140.2120 C   0  0  1  0  0  3  0  0  0  0  0  0
  183.6450  179.1050  142.4420 C   0  0  2  0  0  3  0  0  0  0  0  0
  181.7390  179.4300  140.5470 O   0  0  0  0  0  0  0  0  0  0  0  0
  183.5490  177.9950  141.4020 C   0  0  0  0  0  2  0  0  0  0  0  0
  180.5520  177.1630  139.6850 C   0  0  0  0  0  2  0  0  0  0  0  0
  180.7500  178.9380  141.4390 C   0  0  1  0  0  3  0  0  0  0  0  0
  183.0000  175.7240  137.7670 N   0  0  0  0  0  0  0  0  0  0  0  0
  183.4460  173.6070  137.2050 C   0  0  0  0  0  0  0  0  0  0  0  0
  184.2760  175.6620  137.4650 C   0  0  0  0  0  0  0  0  0  0  0  0
  181.0970  174.2700  137.7890 C   0  0  0  0  0  3  0  0  0  0  0  0
  182.2210  171.5050  136.9780 N   0  0  0  0  0  0  0  0  0  0  0  0
  184.9790  176.9640  137.5110 C   0  0  2  0  0  3  0  0  0  0  0  0
  184.6180  174.3760  137.1230 C   0  0  0  0  0  0  0  0  0  0  0  0
  183.3610  172.2390  136.9120 C   0  0  0  0  0  0  0  0  0  0  0  0
  183.8140  177.9260  137.8480 C   0  0  0  0  0  2  0  0  0  0  0  0
  184.4100  171.6340  136.5630 O   0  0  0  0  0  0  0  0  0  0  0  0
  180.9430  171.8240  137.2940 C   0  0  0  0  0  3  0  0  0  0  0  0
  182.4460  174.5050  137.6010 C   0  0  0  0  0  0  0  0  0  0  0  0
  180.4320  173.0660  137.6540 C   0  0  0  0  0  3  0  0  0  0  0  0
  182.5450  177.0650  138.0670 C   0  0  2  0  0  3  0  0  0  0  0  0
  185.8860  173.9360  136.7550 O   0  0  0  0  0  1  0  0  0  0  0  0
  185.5450  177.3320  136.1480 C   0  0  0  0  0  2  0  0  0  0  0  0
  186.9760  177.8150  136.2880 C   0  0  0  0  0  1  0  0  0  0  0  0
  185.1870  177.8650  143.8230 O   0  0  0  0  0  1  0  0  0  0  0  0
  184.9850  179.0840  143.1740 C   0  0  1  0  0  3  0  0  0  0  0  0
  186.1440  179.3680  142.2110 C   0  0  0  0  0  2  0  0  0  0  0  0
  187.9480  176.6360  143.1120 C   0  0  0  0  0  1  0  0  0  0  0  0
  188.0410  177.8850  142.2520 C   0  0  2  0  0  3  0  0  0  0  0  0
  190.2390  177.3710  141.3280 N   0  0  0  0  0  0  0  0  0  0  0  0
  186.7400  178.1530  141.6390 N   0  0  0  0  0  0  0  0  0  0  0  0
  188.9870  177.6750  141.1370 C   0  0  0  0  0  0  0  0  0  0  0  0
  188.3340  177.8610  139.8280 C   0  0  0  0  0  2  0  0  0  0  0  0
  186.9400  178.3360  140.1940 C   0  0  0  0  0  2  0  0  0  0  0  0
  193.3030  176.9670  138.9160 N   0  0  0  0  0  0  0  0  0  0  0  0
  190.9940  176.6440  139.1170 N   0  0  0  0  0  0  0  0  0  0  0  0
  192.8850  177.4910  140.4370 S   0  0  0  0  0  0  0  0  0  0  0  0
  192.1320  176.5400  138.3610 C   0  0  0  0  0  0  0  0  0  0  0  0
  191.2510  177.1720  140.3310 C   0  0  0  0  0  0  0  0  0  0  0  0
  192.0860  176.0320  136.9600 C   0  0  0  0  0  2  0  0  0  0  0  0
  193.4910  175.9410  136.3700 C   0  0  0  0  0  2  0  0  0  0  0  0
  193.8280  174.5080  135.9870 C   0  0  0  0  0  2  0  0  0  0  0  0
  195.1150  174.4690  135.1540 C   0  0  0  0  0  2  0  0  0  0  0  0
  196.2450  173.8480  135.8560 N   0  0  0  0  0  0  0  0  0  0  0  0
  195.7630  174.4140  139.3000 C   0  0  0  0  0  1  0  0  0  0  0  0
  198.3350  175.4360  138.1880 O   0  0  0  0  0  0  0  0  0  0  0  0
  196.6550  173.7570  138.2620 C   0  0  1  0  0  3  0  0  0  0  0  0
  195.7970  173.2370  137.1190 C   0  0  0  0  0  2  0  0  0  0  0  0
  197.2490  174.8670  136.1600 C   0  0  0  0  0  2  0  0  0  0  0  0
  197.4990  174.7640  137.6030 C   0  0  0  0  0  0  0  0  0  0  0  0
  1 10  1  6  0  0  0
  1  6  1  0  0  0  0
  4  5  1  0  0  0  0
  4  2  2  0  0  0  0
  6  8  1  0  0  0  0
  6  9  1  1  0  0  0
  7 30  1  1  0  0  0
  7  5  1  0  0  0  0
  8 11  1  0  0  0  0
  9  7  1  0  0  0  0
 10  3  1  0  0  0  0
 11  3  1  6  0  0  0
 11  4  1  0  0  0  0
 12 25  1  0  0  0  0
 13 23  2  0  0  0  0
 14 17  1  0  0  0  0
 14 12  1  0  0  0  0
 16 22  2  0  0  0  0
 17 27  1  6  0  0  0
 17 20  1  0  0  0  0
 18 13  1  0  0  0  0
 18 14  2  0  0  0  0
 19 16  1  0  0  0  0
 19 13  1  0  0  0  0
 21 19  2  0  0  0  0
 22 24  1  0  0  0  0
 23 12  1  0  0  0  0
 23 15  1  0  0  0  0
 24 15  2  0  0  0  0
 25 20  1  1  0  0  0
 25  1  1  0  0  0  0
 26 18  1  0  0  0  0
 27 28  1  0  0  0  0
 30 29  1  6  0  0  0
 31 30  1  0  0  0  0
 33 32  1  1  0  0  0
 35 31  1  0  0  0  0
 35 33  1  0  0  0  0
 36 34  2  0  0  0  0
 36 33  1  0  0  0  0
 37 38  1  0  0  0  0
 37 36  1  0  0  0  0
 38 35  1  0  0  0  0
 39 41  1  0  0  0  0
 40 43  2  0  0  0  0
 42 39  2  0  0  0  0
 42 40  1  0  0  0  0
 43 41  1  0  0  0  0
 43 34  1  0  0  0  0
 44 42  1  0  0  0  0
 45 44  1  0  0  0  0
 46 45  1  0  0  0  0
 47 48  1  0  0  0  0
 47 46  1  0  0  0  0
 48 53  1  0  0  0  0
 48 52  1  0  0  0  0
 51 49  1  1  0  0  0
 52 51  1  0  0  0  0
 53 54  1  0  0  0  0
 54 50  2  0  0  0  0
 54 51  1  0  0  0  0
M  END
>  <MODEL>
5

>  <REMARK>
 VINA RESULT:      -7.9      2.125      3.413
  Name = 
  11 active torsions:
  status: ('A' for Active; 'I' for Inactive)
    1  A    between atoms: C_4  and  N_16
    2  A    between atoms: C_4  and  C_25
    3  A    between atoms: C_6  and  C_52
    4  A    between atoms: C_9  and  C_15
    5  A    between atoms: C_17  and  C_23
    6  A    between atoms: C_17  and  C_35
    7  A    between atoms: C_18  and  N_33
    8  A    between atoms: C_18  and  C_36
    9  A    between atoms: C_23  and  C_25
   10  A    between atoms: N_31  and  C_37
   11  A    between atoms: C_32  and  C_36
                            x       y       z     vdW  Elec       q    Type
                         _______ _______ _______ _____ _____    ______ ____

>  <TORSDO>
F 11

$$$$
=
 OpenBabel11042410073D

 54 61  0  0  1  0  0  0  0  0999 V2000
  183.5630  175.4770  137.2270 C   0  0  1  0  0  3  0  0  0  0  0  0
  178.9770  174.1070  138.7270 O   0  0  0  0  0  0  0  0  0  0  0  0
  181.8680  173.7240  137.6610 C   0  0  0  0  0  2  0  0  0  0  0  0
  179.8220  174.9620  138.5080 C   0  0  0  0  0  0  0  0  0  0  0  0
  179.9040  176.1300  139.4640 C   0  0  0  0  0  2  0  0  0  0  0  0
  182.3820  176.4500  137.3190 C   0  0  1  0  0  3  0  0  0  0  0  0
  180.7310  177.3260  139.0030 C   0  0  2  0  0  3  0  0  0  0  0  0
  181.1960  175.9450  136.7220 O   0  0  0  0  0  0  0  0  0  0  0  0
  182.1790  176.9150  138.7610 C   0  0  0  0  0  2  0  0  0  0  0  0
  183.1210  174.0570  136.8720 C   0  0  0  0  0  2  0  0  0  0  0  0
  180.7610  174.7450  137.3450 C   0  0  1  0  0  3  0  0  0  0  0  0
  185.9570  175.3540  136.5890 N   0  0  0  0  0  0  0  0  0  0  0  0
  187.8430  174.1650  136.7570 C   0  0  0  0  0  0  0  0  0  0  0  0
  186.8810  176.1540  137.0680 C   0  0  0  0  0  0  0  0  0  0  0  0
  185.7810  173.0990  135.8020 C   0  0  0  0  0  3  0  0  0  0  0  0
  188.5920  171.8940  136.2610 N   0  0  0  0  0  0  0  0  0  0  0  0
  186.4350  177.5510  137.2680 C   0  0  2  0  0  3  0  0  0  0  0  0
  188.0670  175.4750  137.2100 C   0  0  0  0  0  0  0  0  0  0  0  0
  188.8120  173.1540  136.7150 C   0  0  0  0  0  0  0  0  0  0  0  0
  184.9880  177.4900  136.7200 C   0  0  0  0  0  2  0  0  0  0  0  0
  189.9730  173.4180  137.1250 O   0  0  0  0  0  0  0  0  0  0  0  0
  187.4980  171.2820  135.7470 C   0  0  0  0  0  3  0  0  0  0  0  0
  186.4990  174.1390  136.3610 C   0  0  0  0  0  0  0  0  0  0  0  0
  186.2350  171.8210  135.5330 C   0  0  0  0  0  3  0  0  0  0  0  0
  184.6940  176.0170  136.3410 C   0  0  2  0  0  3  0  0  0  0  0  0
  189.2580  176.0020  137.6980 O   0  0  0  0  0  1  0  0  0  0  0  0
  187.2450  178.5150  136.4140 C   0  0  0  0  0  2  0  0  0  0  0  0
  188.3090  179.1930  137.2570 C   0  0  0  0  0  1  0  0  0  0  0  0
  179.3080  178.8990  140.1520 O   0  0  0  0  0  1  0  0  0  0  0  0
  180.6230  178.4510  140.0310 C   0  0  1  0  0  3  0  0  0  0  0  0
  181.1560  178.0020  141.3970 C   0  0  0  0  0  2  0  0  0  0  0  0
  184.3090  179.1700  140.9290 C   0  0  0  0  0  1  0  0  0  0  0  0
  183.4770  178.3770  141.9210 C   0  0  2  0  0  3  0  0  0  0  0  0
  185.2510  178.1320  143.5750 N   0  0  0  0  0  0  0  0  0  0  0  0
  182.1270  178.9370  141.9820 N   0  0  0  0  0  0  0  0  0  0  0  0
  184.0370  178.5010  143.2810 C   0  0  0  0  0  0  0  0  0  0  0  0
  183.0570  179.0720  144.2230 C   0  0  0  0  0  2  0  0  0  0  0  0
  181.7910  179.1770  143.3930 C   0  0  0  0  0  2  0  0  0  0  0  0
  186.7290  178.6100  147.1750 N   0  0  0  0  0  0  0  0  0  0  0  0
  186.8050  177.2700  145.2580 N   0  0  0  0  0  0  0  0  0  0  0  0
  185.6540  179.2720  146.0960 S   0  0  0  0  0  0  0  0  0  0  0  0
  187.2480  177.5250  146.5290 C   0  0  0  0  0  0  0  0  0  0  0  0
  185.8920  178.1790  144.8580 C   0  0  0  0  0  0  0  0  0  0  0  0
  188.3020  176.6840  147.1650 C   0  0  0  0  0  2  0  0  0  0  0  0
  189.6760  177.3300  147.0140 C   0  0  0  0  0  2  0  0  0  0  0  0
  189.8010  178.0330  145.6710 C   0  0  0  0  0  2  0  0  0  0  0  0
  190.6850  177.2150  144.7220 C   0  0  0  0  0  2  0  0  0  0  0  0
  189.9400  176.6020  143.6160 N   0  0  0  0  0  0  0  0  0  0  0  0
  191.6090  177.4640  140.6360 C   0  0  0  0  0  1  0  0  0  0  0  0
  188.7420  178.2760  140.7710 O   0  0  0  0  0  0  0  0  0  0  0  0
  190.4490  176.6860  141.2280 C   0  0  1  0  0  3  0  0  0  0  0  0
  190.8620  176.1160  142.5770 C   0  0  0  0  0  2  0  0  0  0  0  0
  189.0460  177.5960  143.0210 C   0  0  0  0  0  2  0  0  0  0  0  0
  189.3510  177.5980  141.5850 C   0  0  0  0  0  0  0  0  0  0  0  0
  1 10  1  6  0  0  0
  1  6  1  0  0  0  0
  4  2  2  0  0  0  0
  4  5  1  0  0  0  0
  6  9  1  1  0  0  0
  7  5  1  0  0  0  0
  7 30  1  1  0  0  0
  8  6  1  0  0  0  0
  8 11  1  0  0  0  0
  9  7  1  0  0  0  0
 10  3  1  0  0  0  0
 11  3  1  1  0  0  0
 11  4  1  0  0  0  0
 12 14  1  0  0  0  0
 13 18  1  0  0  0  0
 14 18  2  0  0  0  0
 14 17  1  0  0  0  0
 15 23  1  0  0  0  0
 16 19  1  0  0  0  0
 17 27  1  6  0  0  0
 18 26  1  0  0  0  0
 19 13  1  0  0  0  0
 19 21  2  0  0  0  0
 20 17  1  0  0  0  0
 22 16  2  0  0  0  0
 23 12  1  0  0  0  0
 23 13  2  0  0  0  0
 24 22  1  0  0  0  0
 24 15  2  0  0  0  0
 25 12  1  0  0  0  0
 25 20  1  1  0  0  0
 25  1  1  0  0  0  0
 27 28  1  0  0  0  0
 30 29  1  1  0  0  0
 30 31  1  0  0  0  0
 31 35  1  0  0  0  0
 33 32  1  6  0  0  0
 33 35  1  0  0  0  0
 33 36  1  0  0  0  0
 34 43  1  0  0  0  0
 35 38  1  0  0  0  0
 36 34  2  0  0  0  0
 36 37  1  0  0  0  0
 38 37  1  0  0  0  0
 40 42  1  0  0  0  0
 41 39  1  0  0  0  0
 42 44  1  0  0  0  0
 42 39  2  0  0  0  0
 43 40  2  0  0  0  0
 43 41  1  0  0  0  0
 45 44  1  0  0  0  0
 46 45  1  0  0  0  0
 47 46  1  0  0  0  0
 48 47  1  0  0  0  0
 50 54  2  0  0  0  0
 51 49  1  1  0  0  0
 51 54  1  0  0  0  0
 51 52  1  0  0  0  0
 52 48  1  0  0  0  0
 53 48  1  0  0  0  0
 54 53  1  0  0  0  0
M  END
>  <MODEL>
6

>  <REMARK>
 VINA RESULT:      -7.9      4.219      8.665
  Name = 
  11 active torsions:
  status: ('A' for Active; 'I' for Inactive)
    1  A    between atoms: C_4  and  N_16
    2  A    between atoms: C_4  and  C_25
    3  A    between atoms: C_6  and  C_52
    4  A    between atoms: C_9  and  C_15
    5  A    between atoms: C_17  and  C_23
    6  A    between atoms: C_17  and  C_35
    7  A    between atoms: C_18  and  N_33
    8  A    between atoms: C_18  and  C_36
    9  A    between atoms: C_23  and  C_25
   10  A    between atoms: N_31  and  C_37
   11  A    between atoms: C_32  and  C_36
                            x       y       z     vdW  Elec       q    Type
                         _______ _______ _______ _____ _____    ______ ____

>  <TORSDO>
F 11

$$$$
=
 OpenBabel11042410073D

 54 61  0  0  1  0  0  0  0  0999 V2000
  182.0620  178.2810  140.2610 C   0  0  1  0  0  3  0  0  0  0  0  0
  186.9230  178.7950  141.3880 O   0  0  0  0  0  0  0  0  0  0  0  0
  183.8770  178.5320  141.9280 C   0  0  0  0  0  2  0  0  0  0  0  0
  186.0190  178.6730  140.5750 C   0  0  0  0  0  0  0  0  0  0  0  0
  186.2800  177.8170  139.3570 C   0  0  0  0  0  2  0  0  0  0  0  0
  183.1190  178.7330  139.2450 C   0  0  1  0  0  3  0  0  0  0  0  0
  185.2720  177.9340  138.2180 C   0  0  2  0  0  3  0  0  0  0  0  0
  183.9720  179.7530  139.7450 O   0  0  0  0  0  0  0  0  0  0  0  0
  183.8810  177.5280  138.6900 C   0  0  0  0  0  2  0  0  0  0  0  0
  182.3920  178.7330  141.6840 C   0  0  0  0  0  2  0  0  0  0  0  0
  184.6920  179.3240  140.8910 C   0  0  1  0  0  3  0  0  0  0  0  0
  180.2860  178.0100  138.5510 N   0  0  0  0  0  0  0  0  0  0  0  0
  179.6270  176.8510  136.7560 C   0  0  0  0  0  0  0  0  0  0  0  0
  180.0620  178.8750  137.5890 C   0  0  0  0  0  0  0  0  0  0  0  0
  180.1010  175.6490  138.9080 C   0  0  0  0  0  3  0  0  0  0  0  0
  179.1970  174.5170  136.1750 N   0  0  0  0  0  0  0  0  0  0  0  0
  180.2310  180.2900  137.9890 C   0  0  2  0  0  3  0  0  0  0  0  0
  179.6670  178.2200  136.4480 C   0  0  0  0  0  0  0  0  0  0  0  0
  179.2480  175.8370  135.8650 C   0  0  0  0  0  0  0  0  0  0  0  0
  180.5500  180.1440  139.4960 C   0  0  0  0  0  2  0  0  0  0  0  0
  178.9310  176.1600  134.6900 O   0  0  0  0  0  0  0  0  0  0  0  0
  179.4510  173.8330  137.3170 C   0  0  0  0  0  3  0  0  0  0  0  0
  180.0120  176.7670  138.1010 C   0  0  0  0  0  0  0  0  0  0  0  0
  179.8510  174.3380  138.5490 C   0  0  0  0  0  3  0  0  0  0  0  0
  180.6370  178.6300  139.8110 C   0  0  2  0  0  3  0  0  0  0  0  0
  179.3540  178.8140  135.2290 O   0  0  0  0  0  1  0  0  0  0  0  0
  178.9310  181.0650  137.8330 C   0  0  0  0  0  2  0  0  0  0  0  0
  178.9760  182.3360  138.6590 C   0  0  0  0  0  1  0  0  0  0  0  0
  184.6600  176.4650  136.4050 O   0  0  0  0  0  1  0  0  0  0  0  0
  185.7380  177.0910  137.0320 C   0  0  1  0  0  3  0  0  0  0  0  0
  186.5150  177.9440  136.0220 C   0  0  0  0  0  2  0  0  0  0  0  0
  189.0070  175.6410  136.1190 C   0  0  0  0  0  1  0  0  0  0  0  0
  188.3250  176.6830  136.9870 C   0  0  2  0  0  3  0  0  0  0  0  0
  189.7980  176.3890  138.9090 N   0  0  0  0  0  0  0  0  0  0  0  0
  187.9730  177.8440  136.1700 N   0  0  0  0  0  0  0  0  0  0  0  0
  189.2510  177.1760  138.0270 C   0  0  0  0  0  0  0  0  0  0  0  0
  189.4520  178.6330  137.9290 C   0  0  0  0  0  2  0  0  0  0  0  0
  188.4830  179.0500  136.8390 C   0  0  0  0  0  2  0  0  0  0  0  0
  192.5170  177.5100  141.5010 N   0  0  0  0  0  0  0  0  0  0  0  0
  190.3310  176.7070  141.2760 N   0  0  0  0  0  0  0  0  0  0  0  0
  192.2500  177.3220  139.8720 S   0  0  0  0  0  0  0  0  0  0  0  0
  191.3480  177.1250  142.0920 C   0  0  0  0  0  0  0  0  0  0  0  0
  190.6850  176.7540  139.9750 C   0  0  0  0  0  0  0  0  0  0  0  0
  191.2070  177.1090  143.5770 C   0  0  0  0  0  2  0  0  0  0  0  0
  190.3540  178.2810  144.0530 C   0  0  0  0  0  2  0  0  0  0  0  0
  188.9420  177.8250  144.3880 C   0  0  0  0  0  2  0  0  0  0  0  0
  188.9000  177.2090  145.7910 C   0  0  0  0  0  2  0  0  0  0  0  0
  187.5430  177.1020  146.3410 N   0  0  0  0  0  0  0  0  0  0  0  0
  185.5760  179.5380  144.7270 C   0  0  0  0  0  1  0  0  0  0  0  0
  185.6660  179.7400  147.7010 O   0  0  0  0  0  0  0  0  0  0  0  0
  185.5680  178.4050  145.7360 C   0  0  1  0  0  3  0  0  0  0  0  0
  186.5390  177.3240  145.2870 C   0  0  0  0  0  2  0  0  0  0  0  0
  187.3590  178.1120  147.3840 C   0  0  0  0  0  2  0  0  0  0  0  0
  186.1480  178.8530  147.0120 C   0  0  0  0  0  0  0  0  0  0  0  0
  1 10  1  1  0  0  0
  4 11  1  0  0  0  0
  4  2  2  0  0  0  0
  5  4  1  0  0  0  0
  6  9  1  1  0  0  0
  6  8  1  0  0  0  0
  6  1  1  0  0  0  0
  7 30  1  6  0  0  0
  7  9  1  0  0  0  0
  7  5  1  0  0  0  0
  8 11  1  0  0  0  0
 10  3  1  0  0  0  0
 11  3  1  6  0  0  0
 12 25  1  0  0  0  0
 13 23  2  0  0  0  0
 14 17  1  0  0  0  0
 14 12  1  0  0  0  0
 16 22  2  0  0  0  0
 17 27  1  1  0  0  0
 17 20  1  0  0  0  0
 18 13  1  0  0  0  0
 18 14  2  0  0  0  0
 19 16  1  0  0  0  0
 19 13  1  0  0  0  0
 21 19  2  0  0  0  0
 22 24  1  0  0  0  0
 23 12  1  0  0  0  0
 23 15  1  0  0  0  0
 24 15  2  0  0  0  0
 25 20  1  6  0  0  0
 25  1  1  0  0  0  0
 26 18  1  0  0  0  0
 27 28  1  0  0  0  0
 30 29  1  6  0  0  0
 31 35  1  0  0  0  0
 31 30  1  0  0  0  0
 33 32  1  6  0  0  0
 33 36  1  0  0  0  0
 34 43  1  0  0  0  0
 35 38  1  0  0  0  0
 35 33  1  0  0  0  0
 36 34  2  0  0  0  0
 37 36  1  0  0  0  0
 38 37  1  0  0  0  0
 39 42  2  0  0  0  0
 40 42  1  0  0  0  0
 41 43  1  0  0  0  0
 41 39  1  0  0  0  0
 42 44  1  0  0  0  0
 43 40  2  0  0  0  0
 44 45  1  0  0  0  0
 45 46  1  0  0  0  0
 46 47  1  0  0  0  0
 47 48  1  0  0  0  0
 48 53  1  0  0  0  0
 51 49  1  6  0  0  0
 51 54  1  0  0  0  0
 52 51  1  0  0  0  0
 52 48  1  0  0  0  0
 54 53  1  0  0  0  0
 54 50  2  0  0  0  0
M  END
>  <MODEL>
7

>  <REMARK>
 VINA RESULT:      -7.6      3.963      7.524
  Name = 
  11 active torsions:
  status: ('A' for Active; 'I' for Inactive)
    1  A    between atoms: C_4  and  N_16
    2  A    between atoms: C_4  and  C_25
    3  A    between atoms: C_6  and  C_52
    4  A    between atoms: C_9  and  C_15
    5  A    between atoms: C_17  and  C_23
    6  A    between atoms: C_17  and  C_35
    7  A    between atoms: C_18  and  N_33
    8  A    between atoms: C_18  and  C_36
    9  A    between atoms: C_23  and  C_25
   10  A    between atoms: N_31  and  C_37
   11  A    between atoms: C_32  and  C_36
                            x       y       z     vdW  Elec       q    Type
                         _______ _______ _______ _____ _____    ______ ____

>  <TORSDO>
F 11

$$$$
=
 OpenBabel11042410073D

 54 61  0  0  1  0  0  0  0  0999 V2000
  189.8170  177.1040  139.5860 C   0  0  1  0  0  3  0  0  0  0  0  0
  192.4150  174.6420  136.0710 O   0  0  0  0  0  0  0  0  0  0  0  0
  191.9470  176.1690  138.7340 C   0  0  0  0  0  2  0  0  0  0  0  0
  191.3710  175.1090  136.5020 C   0  0  0  0  0  0  0  0  0  0  0  0
  190.1010  174.3230  136.2670 C   0  0  0  0  0  2  0  0  0  0  0  0
  189.3150  176.9090  138.1500 C   0  0  1  0  0  3  0  0  0  0  0  0
  188.7910  175.0620  136.5240 C   0  0  2  0  0  3  0  0  0  0  0  0
  190.2970  177.2170  137.1700 O   0  0  0  0  0  0  0  0  0  0  0  0
  188.7080  175.5160  137.9770 C   0  0  0  0  0  2  0  0  0  0  0  0
  191.3410  177.2070  139.6610 C   0  0  0  0  0  2  0  0  0  0  0  0
  191.4460  176.3920  137.2960 C   0  0  1  0  0  3  0  0  0  0  0  0
  188.7960  177.9180  141.6940 N   0  0  0  0  0  0  0  0  0  0  0  0
  188.5920  177.5630  143.8920 C   0  0  0  0  0  0  0  0  0  0  0  0
  187.5120  177.8420  141.9600 C   0  0  0  0  0  0  0  0  0  0  0  0
  190.8720  177.8710  142.8880 C   0  0  0  0  0  3  0  0  0  0  0  0
  190.0670  177.3380  145.8270 N   0  0  0  0  0  0  0  0  0  0  0  0
  186.6330  178.0800  140.7930 C   0  0  2  0  0  3  0  0  0  0  0  0
  187.3200  177.6080  143.3000 C   0  0  0  0  0  0  0  0  0  0  0  0
  188.8350  177.3650  145.2580 C   0  0  0  0  0  0  0  0  0  0  0  0
  187.6700  178.4150  139.6930 C   0  0  0  0  0  2  0  0  0  0  0  0
  187.8490  177.1980  146.0250 O   0  0  0  0  0  0  0  0  0  0  0  0
  191.3140  177.4930  145.3200 C   0  0  0  0  0  3  0  0  0  0  0  0
  189.4940  177.7790  142.8420 C   0  0  0  0  0  0  0  0  0  0  0  0
  191.6800  177.7380  144.0010 C   0  0  0  0  0  3  0  0  0  0  0  0
  189.0790  178.2370  140.3110 C   0  0  2  0  0  3  0  0  0  0  0  0
  186.0920  177.4610  143.9370 O   0  0  0  0  0  1  0  0  0  0  0  0
  185.7410  179.2930  141.0150 C   0  0  0  0  0  2  0  0  0  0  0  0
  184.3070  178.8540  141.2390 C   0  0  0  0  0  1  0  0  0  0  0  0
  187.1750  173.4160  137.2310 O   0  0  0  0  0  1  0  0  0  0  0  0
  187.6140  174.1670  136.1400 C   0  0  1  0  0  3  0  0  0  0  0  0
  186.4570  174.9950  135.5680 C   0  0  0  0  0  2  0  0  0  0  0  0
  183.5810  173.6810  136.8050 C   0  0  0  0  0  1  0  0  0  0  0  0
  184.0950  174.8770  136.0240 C   0  0  2  0  0  3  0  0  0  0  0  0
  181.9400  176.0100  135.8840 N   0  0  0  0  0  0  0  0  0  0  0  0
  185.4000  175.2780  136.5480 N   0  0  0  0  0  0  0  0  0  0  0  0
  183.2010  176.0380  136.2090 C   0  0  0  0  0  0  0  0  0  0  0  0
  183.9190  177.1900  136.7850 C   0  0  0  0  0  2  0  0  0  0  0  0
  185.3610  176.7220  136.8260 C   0  0  0  0  0  2  0  0  0  0  0  0
  179.2070  178.7370  136.5690 N   0  0  0  0  0  0  0  0  0  0  0  0
  180.9230  178.0990  135.1130 N   0  0  0  0  0  0  0  0  0  0  0  0
  179.8280  177.3170  137.1680 S   0  0  0  0  0  0  0  0  0  0  0  0
  179.9430  178.9950  135.4500 C   0  0  0  0  0  0  0  0  0  0  0  0
  180.9870  177.0780  135.9920 C   0  0  0  0  0  0  0  0  0  0  0  0
  179.6510  180.1800  134.5940 C   0  0  0  0  0  2  0  0  0  0  0  0
  180.5600  181.3500  134.9600 C   0  0  0  0  0  2  0  0  0  0  0  0
  179.7780  182.4440  135.6740 C   0  0  0  0  0  2  0  0  0  0  0  0
  180.7360  183.3910  136.4060 C   0  0  0  0  0  2  0  0  0  0  0  0
  180.7590  183.1870  137.8590 N   0  0  0  0  0  0  0  0  0  0  0  0
  182.0110  179.9450  138.4330 C   0  0  0  0  0  1  0  0  0  0  0  0
  179.3110  180.4890  139.5770 O   0  0  0  0  0  0  0  0  0  0  0  0
  181.5200  181.2210  139.0920 C   0  0  1  0  0  3  0  0  0  0  0  0
  181.9490  182.4160  138.2550 C   0  0  0  0  0  2  0  0  0  0  0  0
  179.5650  182.4470  138.2670 C   0  0  0  0  0  2  0  0  0  0  0  0
  180.0520  181.2940  139.0330 C   0  0  0  0  0  0  0  0  0  0  0  0
  1 10  1  6  0  0  0
  1 25  1  0  0  0  0
  2  4  2  0  0  0  0
  3 10  1  0  0  0  0
  4 11  1  0  0  0  0
  5  4  1  0  0  0  0
  5  7  1  0  0  0  0
  6  9  1  1  0  0  0
  6  1  1  0  0  0  0
  7 30  1  1  0  0  0
  7  9  1  0  0  0  0
  8 11  1  0  0  0  0
  8  6  1  0  0  0  0
 11  3  1  1  0  0  0
 12 14  1  0  0  0  0
 12 23  1  0  0  0  0
 13 19  1  0  0  0  0
 14 18  2  0  0  0  0
 15 24  2  0  0  0  0
 17 27  1  1  0  0  0
 17 14  1  0  0  0  0
 18 13  1  0  0  0  0
 18 26  1  0  0  0  0
 19 16  1  0  0  0  0
 19 21  2  0  0  0  0
 20 17  1  0  0  0  0
 22 16  2  0  0  0  0
 23 15  1  0  0  0  0
 23 13  2  0  0  0  0
 24 22  1  0  0  0  0
 25 20  1  6  0  0  0
 25 12  1  0  0  0  0
 27 28  1  0  0  0  0
 30 29  1  1  0  0  0
 31 30  1  0  0  0  0
 31 35  1  0  0  0  0
 33 36  1  0  0  0  0
 33 35  1  0  0  0  0
 33 32  1  1  0  0  0
 34 43  1  0  0  0  0
 34 36  2  0  0  0  0
 35 38  1  0  0  0  0
 36 37  1  0  0  0  0
 37 38  1  0  0  0  0
 39 41  1  0  0  0  0
 40 42  1  0  0  0  0
 40 43  2  0  0  0  0
 42 39  2  0  0  0  0
 43 41  1  0  0  0  0
 44 45  1  0  0  0  0
 44 42  1  0  0  0  0
 45 46  1  0  0  0  0
 46 47  1  0  0  0  0
 47 48  1  0  0  0  0
 48 52  1  0  0  0  0
 48 53  1  0  0  0  0
 51 49  1  6  0  0  0
 52 51  1  0  0  0  0
 53 54  1  0  0  0  0
 54 51  1  0  0  0  0
 54 50  2  0  0  0  0
M  END
>  <MODEL>
8

>  <REMARK>
 VINA RESULT:      -7.3      4.200     11.560
  Name = 
  11 active torsions:
  status: ('A' for Active; 'I' for Inactive)
    1  A    between atoms: C_4  and  N_16
    2  A    between atoms: C_4  and  C_25
    3  A    between atoms: C_6  and  C_52
    4  A    between atoms: C_9  and  C_15
    5  A    between atoms: C_17  and  C_23
    6  A    between atoms: C_17  and  C_35
    7  A    between atoms: C_18  and  N_33
    8  A    between atoms: C_18  and  C_36
    9  A    between atoms: C_23  and  C_25
   10  A    between atoms: N_31  and  C_37
   11  A    between atoms: C_32  and  C_36
                            x       y       z     vdW  Elec       q    Type
                         _______ _______ _______ _____ _____    ______ ____

>  <TORSDO>
F 11

$$$$
=
 OpenBabel11042410073D

 54 61  0  0  1  0  0  0  0  0999 V2000
  184.9130  178.5730  143.8640 C   0  0  1  0  0  3  0  0  0  0  0  0
  186.6610  177.9250  148.5210 O   0  0  0  0  0  0  0  0  0  0  0  0
  184.5360  178.0840  146.2630 C   0  0  0  0  0  2  0  0  0  0  0  0
  186.8330  178.1670  147.3360 C   0  0  0  0  0  0  0  0  0  0  0  0
  188.0700  177.6000  146.6770 C   0  0  0  0  0  2  0  0  0  0  0  0
  186.2930  179.0620  144.3210 C   0  0  1  0  0  3  0  0  0  0  0  0
  188.4280  178.1680  145.3070 C   0  0  2  0  0  3  0  0  0  0  0  0
  186.2530  179.7620  145.5580 O   0  0  0  0  0  0  0  0  0  0  0  0
  187.3020  177.9130  144.3110 C   0  0  0  0  0  2  0  0  0  0  0  0
  183.8820  178.5980  144.9930 C   0  0  0  0  0  2  0  0  0  0  0  0
  185.7620  178.9460  146.6100 C   0  0  1  0  0  3  0  0  0  0  0  0
  183.2410  178.6770  142.0350 N   0  0  0  0  0  0  0  0  0  0  0  0
  181.2410  177.9640  141.3330 C   0  0  0  0  0  0  0  0  0  0  0  0
  183.4150  178.1270  140.8560 C   0  0  0  0  0  0  0  0  0  0  0  0
  181.4310  179.1780  143.5220 C   0  0  0  0  0  3  0  0  0  0  0  0
  178.9350  177.9880  142.1370 N   0  0  0  0  0  0  0  0  0  0  0  0
  184.8010  178.2110  140.3420 C   0  0  2  0  0  3  0  0  0  0  0  0
  182.2190  177.6520  140.3750 C   0  0  0  0  0  0  0  0  0  0  0  0
  179.8760  177.6700  141.2130 C   0  0  0  0  0  0  0  0  0  0  0  0
  185.4890  179.0340  141.4570 C   0  0  0  0  0  2  0  0  0  0  0  0
  179.4820  177.0670  140.1810 O   0  0  0  0  0  0  0  0  0  0  0  0
  178.9990  178.6330  143.3270 C   0  0  0  0  0  3  0  0  0  0  0  0
  181.9310  178.6250  142.3590 C   0  0  0  0  0  0  0  0  0  0  0  0
  180.1170  179.1740  143.9510 C   0  0  0  0  0  3  0  0  0  0  0  0
  184.4460  179.2670  142.5780 C   0  0  2  0  0  3  0  0  0  0  0  0
  182.0250  177.0020  139.1600 O   0  0  0  0  0  1  0  0  0  0  0  0
  184.8570  178.9980  139.0410 C   0  0  0  0  0  2  0  0  0  0  0  0
  185.6640  178.2380  138.0050 C   0  0  0  0  0  1  0  0  0  0  0  0
  190.3290  176.7760  145.8240 O   0  0  0  0  0  1  0  0  0  0  0  0
  189.7510  177.5700  144.8330 C   0  0  1  0  0  3  0  0  0  0  0  0
  189.5600  176.7560  143.5480 C   0  0  0  0  0  2  0  0  0  0  0  0
  188.4220  178.2310  140.7100 C   0  0  0  0  0  1  0  0  0  0  0  0
  189.2540  177.0500  141.1770 C   0  0  2  0  0  3  0  0  0  0  0  0
  189.8550  176.2850  138.9410 N   0  0  0  0  0  0  0  0  0  0  0  0
  190.0460  177.4420  142.3430 N   0  0  0  0  0  0  0  0  0  0  0  0
  190.2220  176.6550  140.1350 C   0  0  0  0  0  0  0  0  0  0  0  0
  191.6100  176.7290  140.6260 C   0  0  0  0  0  2  0  0  0  0  0  0
  191.4470  177.0690  142.0950 C   0  0  0  0  0  2  0  0  0  0  0  0
  192.1410  175.5410  135.8440 N   0  0  0  0  0  0  0  0  0  0  0  0
  191.2050  174.6090  137.7750 N   0  0  0  0  0  0  0  0  0  0  0  0
  191.2440  176.7440  136.5590 S   0  0  0  0  0  0  0  0  0  0  0  0
  191.9920  174.4610  136.6640 C   0  0  0  0  0  0  0  0  0  0  0  0
  190.6970  175.8560  137.8620 C   0  0  0  0  0  0  0  0  0  0  0  0
  192.6200  173.1500  136.3290 C   0  0  0  0  0  2  0  0  0  0  0  0
  193.6350  173.3080  135.2020 C   0  0  0  0  0  2  0  0  0  0  0  0
  194.9650  172.6690  135.5740 C   0  0  0  0  0  2  0  0  0  0  0  0
  195.9830  173.7470  135.9650 C   0  0  0  0  0  2  0  0  0  0  0  0
  196.7840  173.3920  137.1430 N   0  0  0  0  0  0  0  0  0  0  0  0
  195.5440  175.2780  139.8480 C   0  0  0  0  0  1  0  0  0  0  0  0
  198.4430  175.6540  139.2550 O   0  0  0  0  0  0  0  0  0  0  0  0
  196.5520  174.2240  139.4280 C   0  0  1  0  0  3  0  0  0  0  0  0
  195.9400  173.3450  138.3480 C   0  0  0  0  0  2  0  0  0  0  0  0
  197.8290  174.3970  137.3420 C   0  0  0  0  0  2  0  0  0  0  0  0
  197.6860  174.8510  138.7310 C   0  0  0  0  0  0  0  0  0  0  0  0
  1  6  1  0  0  0  0
  1 10  1  1  0  0  0
  4  2  2  0  0  0  0
  5  4  1  0  0  0  0
  6  9  1  1  0  0  0
  6  8  1  0  0  0  0
  7 30  1  6  0  0  0
  7  5  1  0  0  0  0
  8 11  1  0  0  0  0
  9  7  1  0  0  0  0
 10  3  1  0  0  0  0
 11  3  1  6  0  0  0
 11  4  1  0  0  0  0
 12 23  1  0  0  0  0
 12 25  1  0  0  0  0
 13 23  2  0  0  0  0
 14 12  1  0  0  0  0
 15 24  2  0  0  0  0
 16 22  2  0  0  0  0
 17 27  1  6  0  0  0
 17 14  1  0  0  0  0
 17 20  1  0  0  0  0
 18 14  2  0  0  0  0
 18 13  1  0  0  0  0
 19 13  1  0  0  0  0
 19 16  1  0  0  0  0
 21 19  2  0  0  0  0
 22 24  1  0  0  0  0
 23 15  1  0  0  0  0
 25 20  1  6  0  0  0
 25  1  1  0  0  0  0
 26 18  1  0  0  0  0
 28 27  1  0  0  0  0
 30 29  1  1  0  0  0
 31 30  1  0  0  0  0
 33 32  1  6  0  0  0
 33 35  1  0  0  0  0
 34 36  2  0  0  0  0
 35 31  1  0  0  0  0
 36 37  1  0  0  0  0
 36 33  1  0  0  0  0
 37 38  1  0  0  0  0
 38 35  1  0  0  0  0
 39 41  1  0  0  0  0
 39 42  2  0  0  0  0
 40 43  2  0  0  0  0
 41 43  1  0  0  0  0
 42 40  1  0  0  0  0
 43 34  1  0  0  0  0
 44 42  1  0  0  0  0
 45 46  1  0  0  0  0
 45 44  1  0  0  0  0
 46 47  1  0  0  0  0
 47 48  1  0  0  0  0
 48 53  1  0  0  0  0
 48 52  1  0  0  0  0
 51 49  1  6  0  0  0
 52 51  1  0  0  0  0
 53 54  1  0  0  0  0
 54 50  2  0  0  0  0
 54 51  1  0  0  0  0
M  END
>  <MODEL>
9

>  <REMARK>
 VINA RESULT:      -7.2      1.662      2.225
  Name = 
  11 active torsions:
  status: ('A' for Active; 'I' for Inactive)
    1  A    between atoms: C_4  and  N_16
    2  A    between atoms: C_4  and  C_25
    3  A    between atoms: C_6  and  C_52
    4  A    between atoms: C_9  and  C_15
    5  A    between atoms: C_17  and  C_23
    6  A    between atoms: C_17  and  C_35
    7  A    between atoms: C_18  and  N_33
    8  A    between atoms: C_18  and  C_36
    9  A    between atoms: C_23  and  C_25
   10  A    between atoms: N_31  and  C_37
   11  A    between atoms: C_32  and  C_36
                            x       y       z     vdW  Elec       q    Type
                         _______ _______ _______ _____ _____    ______ ____

>  <TORSDO>
F 11

$$$$
