=
 OpenBabel11032420093D

 28 31  0  0  1  0  0  0  0  0999 V2000
  188.5510  178.2180  141.9850 C   0  0  2  0  0  3  0  0  0  0  0  0
  190.1230  177.5150  140.0800 C   0  0  0  0  0  3  0  0  0  0  0  0
  188.1870  177.5880  138.7380 C   0  0  0  0  0  3  0  0  0  0  0  0
  189.6270  177.2410  138.8620 C   0  0  0  0  0  0  0  0  0  0  0  0
  187.0780  178.3820  141.8190 C   0  0  0  0  0  0  0  0  0  0  0  0
  187.9210  178.2120  139.8690 C   0  0  0  0  0  0  0  0  0  0  0  0
  186.1620  178.4940  142.9170 N   0  0  0  0  0  2  0  0  0  0  0  0
  186.6970  178.3390  140.5710 N   0  0  0  0  0  0  0  0  0  0  0  0
  189.0110  178.1630  140.7440 C   0  0  1  0  0  3  0  0  0  0  0  0
  184.7380  178.6400  142.8380 C   0  0  0  0  0  0  0  0  0  0  0  0
  182.5670  179.0520  143.8330 C   0  0  0  0  0  3  0  0  0  0  0  0
  183.9510  178.9220  143.9620 C   0  0  0  0  0  3  0  0  0  0  0  0
  184.1100  178.4920  141.5990 C   0  0  0  0  0  3  0  0  0  0  0  0
  182.7600  178.6210  141.4920 N   0  0  0  0  0  0  0  0  0  0  0  0
  181.9840  178.8960  142.5750 C   0  0  0  0  0  3  0  0  0  0  0  0
  190.5970  178.4070  143.4160 C   0  0  0  0  0  3  0  0  0  0  0  0
  191.2980  178.1230  144.5910 C   0  0  0  0  0  3  0  0  0  0  0  0
  189.4140  176.8510  145.4070 C   0  0  0  0  0  3  0  0  0  0  0  0
  189.2990  177.9130  143.2240 C   0  0  0  0  0  0  0  0  0  0  0  0
  188.7140  177.1350  144.2320 C   0  0  0  0  0  3  0  0  0  0  0  0
  190.7100  177.3410  145.5960 C   0  0  0  0  0  0  0  0  0  0  0  0
  192.3700  174.9810  146.1940 O   0  0  0  0  0  0  0  0  0  0  0  0
  191.3960  177.0260  146.8150 N   0  0  0  0  0  2  0  0  0  0  0  0
  192.8390  175.7060  148.4030 C   0  0  0  0  0  1  0  0  0  0  0  0
  192.1980  175.8670  147.0720 C   0  0  0  0  0  0  0  0  0  0  0  0
  190.3910  176.5070  137.8170 C   0  0  0  0  0  2  0  0  0  0  0  0
  190.8380  175.2290  138.3430 N   0  0  0  0  0  2  0  0  0  0  0  0
  192.0280  174.8650  137.5960 C   0  0  0  0  0  1  0  0  0  0  0  0
  1 19  1  1  0  0  0
  3  4  1  0  0  0  0
  3  6  2  0  0  0  0
  4  2  2  0  0  0  0
  5  1  1  0  0  0  0
  5  7  1  0  0  0  0
  6  8  1  0  0  0  0
  6  9  1  0  0  0  0
  8  5  2  0  0  0  0
  9  2  1  1  0  0  0
  9  1  1  0  0  0  0
 10  7  1  0  0  0  0
 10 12  1  0  0  0  0
 11 12  2  0  0  0  0
 13 10  2  0  0  0  0
 14 13  1  0  0  0  0
 14 15  2  0  0  0  0
 15 11  1  0  0  0  0
 16 17  1  0  0  0  0
 17 21  2  0  0  0  0
 18 21  1  0  0  0  0
 19 16  2  0  0  0  0
 19 20  1  0  0  0  0
 20 18  2  0  0  0  0
 21 23  1  0  0  0  0
 22 25  2  0  0  0  0
 23 25  1  0  0  0  0
 25 24  1  0  0  0  0
 26 27  1  0  0  0  0
 26  4  1  0  0  0  0
 28 27  1  0  0  0  0
M  END
>  <MODEL>
1

>  <REMARK>
 VINA RESULT:      -9.0      0.000      0.000
  Name = 
  5 active torsions:
  status: ('A' for Active; 'I' for Inactive)
    1  A    between atoms: C_1  and  N_26
    2  A    between atoms: C_4  and  C_13
    3  A    between atoms: C_4  and  N_15
    4  A    between atoms: C_5  and  C_16
    5  A    between atoms: N_17  and  C_24
                            x       y       z     vdW  Elec       q    Type
                         _______ _______ _______ _____ _____    ______ ____

>  <TORSDO>
F 5

$$$$
=
 OpenBabel11032420093D

 28 31  0  0  1  0  0  0  0  0999 V2000
  188.5770  178.1670  141.3550 C   0  0  2  0  0  3  0  0  0  0  0  0
  189.9200  177.6900  139.2190 C   0  0  0  0  0  3  0  0  0  0  0  0
  187.8610  177.9830  138.1110 C   0  0  0  0  0  3  0  0  0  0  0  0
  189.2920  177.5910  138.0360 C   0  0  0  0  0  0  0  0  0  0  0  0
  187.1010  178.3840  141.3690 C   0  0  0  0  0  0  0  0  0  0  0  0
  187.7340  178.4560  139.3350 C   0  0  0  0  0  0  0  0  0  0  0  0
  186.3060  178.3680  142.5630 N   0  0  0  0  0  2  0  0  0  0  0  0
  186.5930  178.5160  140.1730 N   0  0  0  0  0  0  0  0  0  0  0  0
  188.9050  178.2680  140.0760 C   0  0  1  0  0  3  0  0  0  0  0  0
  184.8880  178.5550  142.6550 C   0  0  0  0  0  0  0  0  0  0  0  0
  182.8700  179.0770  143.8900 C   0  0  0  0  0  3  0  0  0  0  0  0
  184.2550  178.9100  143.8520 C   0  0  0  0  0  3  0  0  0  0  0  0
  184.1050  178.3720  141.5110 C   0  0  0  0  0  3  0  0  0  0  0  0
  182.7570  178.5380  141.5670 N   0  0  0  0  0  0  0  0  0  0  0  0
  182.1290  178.8850  142.7240 C   0  0  0  0  0  3  0  0  0  0  0  0
  189.6530  176.3110  142.6460 C   0  0  0  0  0  3  0  0  0  0  0  0
  190.4700  175.8590  143.6850 C   0  0  0  0  0  3  0  0  0  0  0  0
  190.8710  178.1410  144.3650 C   0  0  0  0  0  3  0  0  0  0  0  0
  189.4350  177.6840  142.4580 C   0  0  0  0  0  0  0  0  0  0  0  0
  190.0540  178.5940  143.3260 C   0  0  0  0  0  3  0  0  0  0  0  0
  191.0840  176.7730  144.5540 C   0  0  0  0  0  0  0  0  0  0  0  0
  190.3920  176.4850  147.4040 O   0  0  0  0  0  0  0  0  0  0  0  0
  191.9290  176.3480  145.6320 N   0  0  0  0  0  2  0  0  0  0  0  0
  192.5720  175.7600  147.9960 C   0  0  0  0  0  1  0  0  0  0  0  0
  191.5580  176.2180  147.0100 C   0  0  0  0  0  0  0  0  0  0  0  0
  189.9190  176.9860  136.8290 C   0  0  0  0  0  2  0  0  0  0  0  0
  191.2080  176.4170  137.1790 N   0  0  0  0  0  2  0  0  0  0  0  0
  191.6140  175.5840  136.0620 C   0  0  0  0  0  1  0  0  0  0  0  0
  1  5  1  0  0  0  0
  1 19  1  6  0  0  0
  3  6  2  0  0  0  0
  4  3  1  0  0  0  0
  4  2  2  0  0  0  0
  5  7  1  0  0  0  0
  6  9  1  0  0  0  0
  6  8  1  0  0  0  0
  7 10  1  0  0  0  0
  8  5  2  0  0  0  0
  9  2  1  6  0  0  0
  9  1  1  0  0  0  0
 10 12  1  0  0  0  0
 12 11  2  0  0  0  0
 13 14  1  0  0  0  0
 13 10  2  0  0  0  0
 14 15  2  0  0  0  0
 15 11  1  0  0  0  0
 16 17  1  0  0  0  0
 17 21  2  0  0  0  0
 18 21  1  0  0  0  0
 19 16  2  0  0  0  0
 19 20  1  0  0  0  0
 20 18  2  0  0  0  0
 21 23  1  0  0  0  0
 23 25  1  0  0  0  0
 25 22  2  0  0  0  0
 25 24  1  0  0  0  0
 26 27  1  0  0  0  0
 26  4  1  0  0  0  0
 28 27  1  0  0  0  0
M  END
>  <MODEL>
2

>  <REMARK>
 VINA RESULT:      -8.8      1.084      1.293
  Name = 
  5 active torsions:
  status: ('A' for Active; 'I' for Inactive)
    1  A    between atoms: C_1  and  N_26
    2  A    between atoms: C_4  and  C_13
    3  A    between atoms: C_4  and  N_15
    4  A    between atoms: C_5  and  C_16
    5  A    between atoms: N_17  and  C_24
                            x       y       z     vdW  Elec       q    Type
                         _______ _______ _______ _____ _____    ______ ____

>  <TORSDO>
F 5

$$$$
=
 OpenBabel11032420093D

 28 31  0  0  1  0  0  0  0  0999 V2000
  189.2850  177.9010  142.8570 C   0  0  2  0  0  3  0  0  0  0  0  0
  189.5280  177.7010  145.4060 C   0  0  0  0  0  3  0  0  0  0  0  0
  191.6670  176.8380  144.9220 C   0  0  0  0  0  3  0  0  0  0  0  0
  190.6180  177.1220  145.9360 C   0  0  2  0  0  3  0  0  0  0  0  0
  190.3210  177.4320  141.8910 C   0  0  0  0  0  0  0  0  0  0  0  0
  191.2060  177.4150  143.8310 C   0  0  0  0  0  0  0  0  0  0  0  0
  190.0850  177.2770  140.4850 N   0  0  0  0  0  2  0  0  0  0  0  0
  191.4460  177.1070  142.4690 N   0  0  0  0  0  0  0  0  0  0  0  0
  189.9110  177.9070  144.0240 C   0  0  0  0  0  0  0  0  0  0  0  0
  191.0220  176.8220  139.5000 C   0  0  0  0  0  0  0  0  0  0  0  0
  191.6030  175.5570  137.5170 C   0  0  0  0  0  3  0  0  0  0  0  0
  190.6510  175.9750  138.4490 C   0  0  0  0  0  3  0  0  0  0  0  0
  192.3550  177.2330  139.5930 C   0  0  0  0  0  3  0  0  0  0  0  0
  193.2680  176.8160  138.6760 N   0  0  0  0  0  0  0  0  0  0  0  0
  192.9210  175.9930  137.6490 C   0  0  0  0  0  3  0  0  0  0  0  0
  187.3570  178.7250  141.4870 C   0  0  0  0  0  3  0  0  0  0  0  0
  185.9850  178.8670  141.2690 C   0  0  0  0  0  3  0  0  0  0  0  0
  185.5360  177.6760  143.3220 C   0  0  0  0  0  3  0  0  0  0  0  0
  187.8320  178.0590  142.6260 C   0  0  0  0  0  0  0  0  0  0  0  0
  186.9080  177.5350  143.5400 C   0  0  0  0  0  3  0  0  0  0  0  0
  185.0630  178.3430  142.1880 C   0  0  0  0  0  0  0  0  0  0  0  0
  183.0760  179.4890  144.0380 O   0  0  0  0  0  0  0  0  0  0  0  0
  183.6470  178.4690  142.0000 N   0  0  0  0  0  2  0  0  0  0  0  0
  181.2680  179.0820  142.5570 C   0  0  0  0  0  1  0  0  0  0  0  0
  182.7080  179.0340  142.9230 C   0  0  0  0  0  0  0  0  0  0  0  0
  190.6870  176.6560  147.3470 C   0  0  0  0  0  2  0  0  0  0  0  0
  192.0010  176.9420  147.8950 N   0  0  0  0  0  2  0  0  0  0  0  0
  192.6460  175.6620  148.1220 C   0  0  0  0  0  1  0  0  0  0  0  0
  1 19  1  1  0  0  0
  1  9  1  0  0  0  0
  2  4  1  0  0  0  0
  3  4  1  0  0  0  0
  4 26  1  6  0  0  0
  5  8  2  0  0  0  0
  5  1  1  0  0  0  0
  6  9  1  0  0  0  0
  6  3  2  0  0  0  0
  7  5  1  0  0  0  0
  8  6  1  0  0  0  0
  9  2  2  0  0  0  0
 10 13  1  0  0  0  0
 10  7  1  0  0  0  0
 11 15  2  0  0  0  0
 11 12  1  0  0  0  0
 12 10  2  0  0  0  0
 14 13  2  0  0  0  0
 15 14  1  0  0  0  0
 16 19  1  0  0  0  0
 17 16  2  0  0  0  0
 17 21  1  0  0  0  0
 18 20  1  0  0  0  0
 19 20  2  0  0  0  0
 21 18  2  0  0  0  0
 23 21  1  0  0  0  0
 23 25  1  0  0  0  0
 24 25  1  0  0  0  0
 25 22  2  0  0  0  0
 26 27  1  0  0  0  0
 27 28  1  0  0  0  0
M  END
>  <MODEL>
3

>  <REMARK>
 VINA RESULT:      -8.8      2.552      7.948
  Name = 
  5 active torsions:
  status: ('A' for Active; 'I' for Inactive)
    1  A    between atoms: C_1  and  N_26
    2  A    between atoms: C_4  and  C_13
    3  A    between atoms: C_4  and  N_15
    4  A    between atoms: C_5  and  C_16
    5  A    between atoms: N_17  and  C_24
                            x       y       z     vdW  Elec       q    Type
                         _______ _______ _______ _____ _____    ______ ____

>  <TORSDO>
F 5

$$$$
=
 OpenBabel11032420093D

 28 31  0  0  1  0  0  0  0  0999 V2000
  186.4710  177.7470  142.9470 C   0  0  2  0  0  3  0  0  0  0  0  0
  187.2170  177.8680  145.4010 C   0  0  0  0  0  3  0  0  0  0  0  0
  185.0550  178.7170  145.7970 C   0  0  0  0  0  3  0  0  0  0  0  0
  186.4110  178.4170  146.3250 C   0  0  2  0  0  3  0  0  0  0  0  0
  185.1450  178.2300  142.4640 C   0  0  0  0  0  0  0  0  0  0  0  0
  185.0660  178.1780  144.5940 C   0  0  0  0  0  0  0  0  0  0  0  0
  184.8280  178.4300  141.0800 N   0  0  0  0  0  2  0  0  0  0  0  0
  184.3250  178.5240  143.4360 N   0  0  0  0  0  0  0  0  0  0  0  0
  186.3370  177.6980  144.2630 C   0  0  0  0  0  0  0  0  0  0  0  0
  183.5860  178.9020  140.5420 C   0  0  0  0  0  0  0  0  0  0  0  0
  181.1690  179.0780  140.5640 C   0  0  0  0  0  3  0  0  0  0  0  0
  182.3520  178.5970  141.1290 C   0  0  0  0  0  3  0  0  0  0  0  0
  183.6030  179.6910  139.3880 C   0  0  0  0  0  3  0  0  0  0  0  0
  182.4410  180.1510  138.8530 N   0  0  0  0  0  0  0  0  0  0  0  0
  181.2350  179.8630  139.4130 C   0  0  0  0  0  3  0  0  0  0  0  0
  188.7350  176.7350  142.5970 C   0  0  0  0  0  3  0  0  0  0  0  0
  189.9170  176.6080  141.8620 C   0  0  0  0  0  3  0  0  0  0  0  0
  189.1020  178.2310  140.2690 C   0  0  0  0  0  3  0  0  0  0  0  0
  187.7270  177.6140  142.1760 C   0  0  0  0  0  0  0  0  0  0  0  0
  187.9210  178.3580  141.0040 C   0  0  0  0  0  3  0  0  0  0  0  0
  190.1080  177.3570  140.6920 C   0  0  0  0  0  0  0  0  0  0  0  0
  190.7000  175.4760  138.5020 O   0  0  0  0  0  0  0  0  0  0  0  0
  191.3070  177.2550  139.9110 N   0  0  0  0  0  2  0  0  0  0  0  0
  192.8690  176.3660  138.1460 C   0  0  0  0  0  1  0  0  0  0  0  0
  191.5610  176.3260  138.8500 C   0  0  0  0  0  0  0  0  0  0  0  0
  186.8840  178.8390  147.6710 C   0  0  0  0  0  2  0  0  0  0  0  0
  187.6410  177.7630  148.2850 N   0  0  0  0  0  2  0  0  0  0  0  0
  188.9870  178.2640  148.4920 C   0  0  0  0  0  1  0  0  0  0  0  0
  1 19  1  1  0  0  0
  1  9  1  0  0  0  0
  2  4  1  0  0  0  0
  3  4  1  0  0  0  0
  4 26  1  6  0  0  0
  5  1  1  0  0  0  0
  5  8  2  0  0  0  0
  6  3  2  0  0  0  0
  7  5  1  0  0  0  0
  8  6  1  0  0  0  0
  9  6  1  0  0  0  0
  9  2  2  0  0  0  0
 10  7  1  0  0  0  0
 10 12  1  0  0  0  0
 11 12  2  0  0  0  0
 13 10  2  0  0  0  0
 14 13  1  0  0  0  0
 14 15  2  0  0  0  0
 15 11  1  0  0  0  0
 17 16  2  0  0  0  0
 18 21  2  0  0  0  0
 18 20  1  0  0  0  0
 19 16  1  0  0  0  0
 20 19  2  0  0  0  0
 21 17  1  0  0  0  0
 22 25  2  0  0  0  0
 23 21  1  0  0  0  0
 24 25  1  0  0  0  0
 25 23  1  0  0  0  0
 26 27  1  0  0  0  0
 27 28  1  0  0  0  0
M  END
>  <MODEL>
4

>  <REMARK>
 VINA RESULT:      -8.7      2.730      6.103
  Name = 
  5 active torsions:
  status: ('A' for Active; 'I' for Inactive)
    1  A    between atoms: C_1  and  N_26
    2  A    between atoms: C_4  and  C_13
    3  A    between atoms: C_4  and  N_15
    4  A    between atoms: C_5  and  C_16
    5  A    between atoms: N_17  and  C_24
                            x       y       z     vdW  Elec       q    Type
                         _______ _______ _______ _____ _____    ______ ____

>  <TORSDO>
F 5

$$$$
=
 OpenBabel11032420093D

 28 31  0  0  1  0  0  0  0  0999 V2000
  188.7780  178.0080  142.6870 C   0  0  2  0  0  3  0  0  0  0  0  0
  188.8800  177.8580  145.2480 C   0  0  0  0  0  3  0  0  0  0  0  0
  191.0000  176.8910  144.8970 C   0  0  0  0  0  3  0  0  0  0  0  0
  189.9140  177.2440  145.8470 C   0  0  2  0  0  3  0  0  0  0  0  0
  189.8410  177.4730  141.7870 C   0  0  0  0  0  0  0  0  0  0  0  0
  190.6230  177.4630  143.7700 C   0  0  0  0  0  0  0  0  0  0  0  0
  189.6710  177.2960  140.3740 N   0  0  0  0  0  2  0  0  0  0  0  0
  190.9190  177.1130  142.4290 N   0  0  0  0  0  0  0  0  0  0  0  0
  189.3430  178.0150  143.8850 C   0  0  0  0  0  0  0  0  0  0  0  0
  190.6370  176.7780  139.4500 C   0  0  0  0  0  0  0  0  0  0  0  0
  192.8920  176.6010  138.5800 C   0  0  0  0  0  3  0  0  0  0  0  0
  191.9910  177.1310  139.5060 C   0  0  0  0  0  3  0  0  0  0  0  0
  190.2150  175.8920  138.4540 C   0  0  0  0  0  3  0  0  0  0  0  0
  191.1070  175.3860  137.5620 N   0  0  0  0  0  0  0  0  0  0  0  0
  192.4260  175.7200  137.6050 C   0  0  0  0  0  3  0  0  0  0  0  0
  186.3550  177.8790  143.3050 C   0  0  0  0  0  3  0  0  0  0  0  0
  185.0060  178.0900  143.0110 C   0  0  0  0  0  3  0  0  0  0  0  0
  185.6160  179.0030  140.8600 C   0  0  0  0  0  3  0  0  0  0  0  0
  187.3480  178.2250  142.3770 C   0  0  0  0  0  0  0  0  0  0  0  0
  186.9650  178.7910  141.1530 C   0  0  0  0  0  3  0  0  0  0  0  0
  184.6270  178.6540  141.7840 C   0  0  0  0  0  0  0  0  0  0  0  0
  182.8710  177.0160  140.0750 O   0  0  0  0  0  0  0  0  0  0  0  0
  183.2530  178.8860  141.4450 N   0  0  0  0  0  2  0  0  0  0  0  0
  181.0150  178.4640  140.3680 C   0  0  0  0  0  1  0  0  0  0  0  0
  182.4260  178.0660  140.6100 C   0  0  0  0  0  0  0  0  0  0  0  0
  189.8890  176.8090  147.2700 C   0  0  0  0  0  2  0  0  0  0  0  0
  188.5180  176.7590  147.7450 N   0  0  0  0  0  2  0  0  0  0  0  0
  188.3520  177.8770  148.6550 C   0  0  0  0  0  1  0  0  0  0  0  0
  1 19  1  1  0  0  0
  1  9  1  0  0  0  0
  2  4  1  0  0  0  0
  3  4  1  0  0  0  0
  4 26  1  6  0  0  0
  5  8  2  0  0  0  0
  5  1  1  0  0  0  0
  6  9  1  0  0  0  0
  6  3  2  0  0  0  0
  7  5  1  0  0  0  0
  8  6  1  0  0  0  0
  9  2  2  0  0  0  0
 10 12  1  0  0  0  0
 10  7  1  0  0  0  0
 11 12  2  0  0  0  0
 13 10  2  0  0  0  0
 14 15  2  0  0  0  0
 14 13  1  0  0  0  0
 15 11  1  0  0  0  0
 17 16  1  0  0  0  0
 18 20  2  0  0  0  0
 18 21  1  0  0  0  0
 19 16  2  0  0  0  0
 20 19  1  0  0  0  0
 21 17  2  0  0  0  0
 22 25  2  0  0  0  0
 23 21  1  0  0  0  0
 24 25  1  0  0  0  0
 25 23  1  0  0  0  0
 26 27  1  0  0  0  0
 27 28  1  0  0  0  0
M  END
>  <MODEL>
5

>  <REMARK>
 VINA RESULT:      -8.4      2.829      8.168
  Name = 
  5 active torsions:
  status: ('A' for Active; 'I' for Inactive)
    1  A    between atoms: C_1  and  N_26
    2  A    between atoms: C_4  and  C_13
    3  A    between atoms: C_4  and  N_15
    4  A    between atoms: C_5  and  C_16
    5  A    between atoms: N_17  and  C_24
                            x       y       z     vdW  Elec       q    Type
                         _______ _______ _______ _____ _____    ______ ____

>  <TORSDO>
F 5

$$$$
=
 OpenBabel11032420093D

 28 31  0  0  1  0  0  0  0  0999 V2000
  187.6820  177.4720  143.3040 C   0  0  2  0  0  3  0  0  0  0  0  0
  185.5460  178.3230  144.4480 C   0  0  0  0  0  3  0  0  0  0  0  0
  184.8450  178.8650  142.2640 C   0  0  0  0  0  3  0  0  0  0  0  0
  184.5950  178.9400  143.7270 C   0  0  2  0  0  3  0  0  0  0  0  0
  187.9340  177.5880  141.8380 C   0  0  0  0  0  0  0  0  0  0  0  0
  185.8800  178.0540  142.1690 C   0  0  0  0  0  0  0  0  0  0  0  0
  189.2180  177.3810  141.2330 N   0  0  0  0  0  2  0  0  0  0  0  0
  186.8800  177.9710  141.1690 N   0  0  0  0  0  0  0  0  0  0  0  0
  186.3890  177.7290  143.4300 C   0  0  0  0  0  0  0  0  0  0  0  0
  189.5400  177.4870  139.8400 C   0  0  0  0  0  0  0  0  0  0  0  0
  189.3060  178.5160  137.6590 C   0  0  0  0  0  3  0  0  0  0  0  0
  188.9610  178.4560  139.0110 C   0  0  0  0  0  3  0  0  0  0  0  0
  190.4590  176.5910  139.2870 C   0  0  0  0  0  3  0  0  0  0  0  0
  190.7810  176.6650  137.9680 N   0  0  0  0  0  0  0  0  0  0  0  0
  190.2280  177.6010  137.1510 C   0  0  0  0  0  3  0  0  0  0  0  0
  190.0470  177.5080  144.1250 C   0  0  0  0  0  3  0  0  0  0  0  0
  190.9850  177.4140  145.1560 C   0  0  0  0  0  3  0  0  0  0  0  0
  189.2030  177.0400  146.7430 C   0  0  0  0  0  3  0  0  0  0  0  0
  188.6780  177.3660  144.3920 C   0  0  0  0  0  0  0  0  0  0  0  0
  188.2660  177.1330  145.7110 C   0  0  0  0  0  3  0  0  0  0  0  0
  190.5680  177.1780  146.4740 C   0  0  0  0  0  0  0  0  0  0  0  0
  192.4400  174.9800  147.0640 O   0  0  0  0  0  0  0  0  0  0  0  0
  191.4990  177.0740  147.5600 N   0  0  0  0  0  2  0  0  0  0  0  0
  193.2980  176.0530  148.9970 C   0  0  0  0  0  1  0  0  0  0  0  0
  192.3980  175.9880  147.8170 C   0  0  0  0  0  0  0  0  0  0  0  0
  183.5130  179.7570  144.3380 C   0  0  0  0  0  2  0  0  0  0  0  0
  182.2860  178.9820  144.3990 N   0  0  0  0  0  2  0  0  0  0  0  0
  181.5110  179.3370  143.2250 C   0  0  0  0  0  1  0  0  0  0  0  0
  1  9  1  0  0  0  0
  1 19  1  1  0  0  0
  3  4  1  0  0  0  0
  4 26  1  1  0  0  0
  4  2  1  0  0  0  0
  5  1  1  0  0  0  0
  6  3  2  0  0  0  0
  6  9  1  0  0  0  0
  7  5  1  0  0  0  0
  8  5  2  0  0  0  0
  8  6  1  0  0  0  0
  9  2  2  0  0  0  0
 10  7  1  0  0  0  0
 11 12  1  0  0  0  0
 12 10  2  0  0  0  0
 13 10  1  0  0  0  0
 14 13  2  0  0  0  0
 15 11  2  0  0  0  0
 15 14  1  0  0  0  0
 16 19  2  0  0  0  0
 16 17  1  0  0  0  0
 17 21  2  0  0  0  0
 19 20  1  0  0  0  0
 20 18  2  0  0  0  0
 21 18  1  0  0  0  0
 21 23  1  0  0  0  0
 22 25  2  0  0  0  0
 23 25  1  0  0  0  0
 25 24  1  0  0  0  0
 26 27  1  0  0  0  0
 28 27  1  0  0  0  0
M  END
>  <MODEL>
6

>  <REMARK>
 VINA RESULT:      -8.4      1.333      5.839
  Name = 
  5 active torsions:
  status: ('A' for Active; 'I' for Inactive)
    1  A    between atoms: C_1  and  N_26
    2  A    between atoms: C_4  and  C_13
    3  A    between atoms: C_4  and  N_15
    4  A    between atoms: C_5  and  C_16
    5  A    between atoms: N_17  and  C_24
                            x       y       z     vdW  Elec       q    Type
                         _______ _______ _______ _____ _____    ______ ____

>  <TORSDO>
F 5

$$$$
=
 OpenBabel11032420093D

 28 31  0  0  1  0  0  0  0  0999 V2000
  188.5310  178.0740  142.2280 C   0  0  2  0  0  3  0  0  0  0  0  0
  189.8560  177.4570  144.3390 C   0  0  0  0  0  3  0  0  0  0  0  0
  191.5050  176.7080  142.8310 C   0  0  0  0  0  3  0  0  0  0  0  0
  191.0280  176.8090  144.2350 C   0  0  2  0  0  3  0  0  0  0  0  0
  189.0050  177.7830  140.8440 C   0  0  0  0  0  0  0  0  0  0  0  0
  190.6490  177.4530  142.1600 C   0  0  0  0  0  0  0  0  0  0  0  0
  188.1650  177.8600  139.6830 N   0  0  0  0  0  2  0  0  0  0  0  0
  190.2460  177.3780  140.8040 N   0  0  0  0  0  0  0  0  0  0  0  0
  189.6060  177.8930  142.9810 C   0  0  0  0  0  0  0  0  0  0  0  0
  188.5430  177.5840  138.3280 C   0  0  0  0  0  0  0  0  0  0  0  0
  189.4070  178.2530  136.1650 C   0  0  0  0  0  3  0  0  0  0  0  0
  189.0560  178.5720  137.4780 C   0  0  0  0  0  3  0  0  0  0  0  0
  188.3920  176.2860  137.8330 C   0  0  0  0  0  3  0  0  0  0  0  0
  188.7380  175.9940  136.5520 N   0  0  0  0  0  0  0  0  0  0  0  0
  189.2390  176.9430  135.7150 C   0  0  0  0  0  3  0  0  0  0  0  0
  186.1850  178.8740  141.8740 C   0  0  0  0  0  3  0  0  0  0  0  0
  184.8690  179.0360  142.3150 C   0  0  0  0  0  3  0  0  0  0  0  0
  185.4340  177.9550  144.3990 C   0  0  0  0  0  3  0  0  0  0  0  0
  187.1390  178.2530  142.6930 C   0  0  0  0  0  0  0  0  0  0  0  0
  186.7490  177.7940  143.9590 C   0  0  0  0  0  3  0  0  0  0  0  0
  184.4850  178.5780  143.5830 C   0  0  0  0  0  0  0  0  0  0  0  0
  181.9780  178.6280  142.0340 O   0  0  0  0  0  0  0  0  0  0  0  0
  183.1450  178.7260  144.0710 N   0  0  0  0  0  2  0  0  0  0  0  0
  180.6340  178.9080  143.9690 C   0  0  0  0  0  1  0  0  0  0  0  0
  181.9450  178.7450  143.2880 C   0  0  0  0  0  0  0  0  0  0  0  0
  191.6810  176.1170  145.3790 C   0  0  0  0  0  2  0  0  0  0  0  0
  191.4650  176.8740  146.5990 N   0  0  0  0  0  2  0  0  0  0  0  0
  192.0460  176.0990  147.6790 C   0  0  0  0  0  1  0  0  0  0  0  0
  1 19  1  1  0  0  0
  1  9  1  0  0  0  0
  3  4  1  0  0  0  0
  4  2  1  0  0  0  0
  4 26  1  6  0  0  0
  5  1  1  0  0  0  0
  6  3  2  0  0  0  0
  6  9  1  0  0  0  0
  7  5  1  0  0  0  0
  8  5  2  0  0  0  0
  8  6  1  0  0  0  0
  9  2  2  0  0  0  0
 10  7  1  0  0  0  0
 11 12  1  0  0  0  0
 12 10  2  0  0  0  0
 13 10  1  0  0  0  0
 14 13  2  0  0  0  0
 15 11  2  0  0  0  0
 15 14  1  0  0  0  0
 16 17  2  0  0  0  0
 16 19  1  0  0  0  0
 17 21  1  0  0  0  0
 19 20  2  0  0  0  0
 20 18  1  0  0  0  0
 21 23  1  0  0  0  0
 21 18  2  0  0  0  0
 22 25  2  0  0  0  0
 25 24  1  0  0  0  0
 25 23  1  0  0  0  0
 26 27  1  0  0  0  0
 27 28  1  0  0  0  0
M  END
>  <MODEL>
7

>  <REMARK>
 VINA RESULT:      -8.3      2.769      7.188
  Name = 
  5 active torsions:
  status: ('A' for Active; 'I' for Inactive)
    1  A    between atoms: C_1  and  N_26
    2  A    between atoms: C_4  and  C_13
    3  A    between atoms: C_4  and  N_15
    4  A    between atoms: C_5  and  C_16
    5  A    between atoms: N_17  and  C_24
                            x       y       z     vdW  Elec       q    Type
                         _______ _______ _______ _____ _____    ______ ____

>  <TORSDO>
F 5

$$$$
=
 OpenBabel11032420093D

 28 31  0  0  1  0  0  0  0  0999 V2000
  189.1330  178.0740  141.4340 C   0  0  2  0  0  3  0  0  0  0  0  0
  190.9670  177.2350  139.8440 C   0  0  0  0  0  3  0  0  0  0  0  0
  189.2750  177.2860  138.2050 C   0  0  0  0  0  3  0  0  0  0  0  0
  190.6630  176.9100  138.5770 C   0  0  0  0  0  0  0  0  0  0  0  0
  187.7120  178.2660  141.0250 C   0  0  0  0  0  0  0  0  0  0  0  0
  188.8510  177.9740  139.2470 C   0  0  0  0  0  0  0  0  0  0  0  0
  186.6360  178.4570  141.9530 N   0  0  0  0  0  2  0  0  0  0  0  0
  187.5350  178.1680  139.7340 N   0  0  0  0  0  0  0  0  0  0  0  0
  189.7840  177.9440  140.2880 C   0  0  1  0  0  3  0  0  0  0  0  0
  185.2480  178.6340  141.6380 C   0  0  0  0  0  0  0  0  0  0  0  0
  182.8980  178.6280  142.2280 C   0  0  0  0  0  3  0  0  0  0  0  0
  184.2350  178.4460  142.5860 C   0  0  0  0  0  3  0  0  0  0  0  0
  184.8910  179.0030  140.3380 C   0  0  0  0  0  3  0  0  0  0  0  0
  183.5830  179.1750  140.0070 N   0  0  0  0  0  0  0  0  0  0  0  0
  182.5890  178.9970  140.9190 C   0  0  0  0  0  3  0  0  0  0  0  0
  188.9580  177.0000  143.6890 C   0  0  0  0  0  3  0  0  0  0  0  0
  189.4630  176.7530  144.9680 C   0  0  0  0  0  3  0  0  0  0  0  0
  191.3870  178.1270  144.4740 C   0  0  0  0  0  3  0  0  0  0  0  0
  189.6620  177.8160  142.7910 C   0  0  0  0  0  0  0  0  0  0  0  0
  190.8820  178.3750  143.1960 C   0  0  0  0  0  3  0  0  0  0  0  0
  190.6830  177.3170  145.3700 C   0  0  0  0  0  0  0  0  0  0  0  0
  192.4310  175.1110  146.2460 O   0  0  0  0  0  0  0  0  0  0  0  0
  191.2340  177.0880  146.6730 N   0  0  0  0  0  2  0  0  0  0  0  0
  192.5640  175.9250  148.4700 C   0  0  0  0  0  1  0  0  0  0  0  0
  192.0840  176.0020  147.0660 C   0  0  0  0  0  0  0  0  0  0  0  0
  191.5610  176.1040  137.7050 C   0  0  0  0  0  2  0  0  0  0  0  0
  192.9430  176.4780  137.9450 N   0  0  0  0  0  2  0  0  0  0  0  0
  193.7490  175.3080  137.6490 C   0  0  0  0  0  1  0  0  0  0  0  0
  1 19  1  1  0  0  0
  3  4  1  0  0  0  0
  3  6  2  0  0  0  0
  4  2  2  0  0  0  0
  5  1  1  0  0  0  0
  5  7  1  0  0  0  0
  6  8  1  0  0  0  0
  6  9  1  0  0  0  0
  8  5  2  0  0  0  0
  9  2  1  1  0  0  0
  9  1  1  0  0  0  0
 10  7  1  0  0  0  0
 10 12  1  0  0  0  0
 11 12  2  0  0  0  0
 13 10  2  0  0  0  0
 14 13  1  0  0  0  0
 14 15  2  0  0  0  0
 15 11  1  0  0  0  0
 16 17  1  0  0  0  0
 17 21  2  0  0  0  0
 18 21  1  0  0  0  0
 19 20  1  0  0  0  0
 19 16  2  0  0  0  0
 20 18  2  0  0  0  0
 21 23  1  0  0  0  0
 22 25  2  0  0  0  0
 23 25  1  0  0  0  0
 25 24  1  0  0  0  0
 26 27  1  0  0  0  0
 26  4  1  0  0  0  0
 28 27  1  0  0  0  0
M  END
>  <MODEL>
8

>  <REMARK>
 VINA RESULT:      -8.3      1.054      1.476
  Name = 
  5 active torsions:
  status: ('A' for Active; 'I' for Inactive)
    1  A    between atoms: C_1  and  N_26
    2  A    between atoms: C_4  and  C_13
    3  A    between atoms: C_4  and  N_15
    4  A    between atoms: C_5  and  C_16
    5  A    between atoms: N_17  and  C_24
                            x       y       z     vdW  Elec       q    Type
                         _______ _______ _______ _____ _____    ______ ____

>  <TORSDO>
F 5

$$$$
=
 OpenBabel11032420093D

 28 31  0  0  1  0  0  0  0  0999 V2000
  188.1330  177.0670  143.7950 C   0  0  2  0  0  3  0  0  0  0  0  0
  189.8980  176.9790  145.6580 C   0  0  0  0  0  3  0  0  0  0  0  0
  188.1290  177.6250  147.0750 C   0  0  0  0  0  3  0  0  0  0  0  0
  189.5830  177.3680  146.9050 C   0  0  2  0  0  3  0  0  0  0  0  0
  186.7240  177.5020  144.0150 C   0  0  0  0  0  0  0  0  0  0  0  0
  187.6080  177.2190  145.9340 C   0  0  0  0  0  0  0  0  0  0  0  0
  185.8160  177.8250  142.9530 N   0  0  0  0  0  2  0  0  0  0  0  0
  186.4220  177.6320  145.2790 N   0  0  0  0  0  0  0  0  0  0  0  0
  188.6040  176.8690  145.0170 C   0  0  0  0  0  0  0  0  0  0  0  0
  184.4570  178.2610  143.0850 C   0  0  0  0  0  0  0  0  0  0  0  0
  182.5770  179.0510  144.3950 C   0  0  0  0  0  3  0  0  0  0  0  0
  183.9080  178.6360  144.3180 C   0  0  0  0  0  3  0  0  0  0  0  0
  183.6470  178.3120  141.9470 C   0  0  0  0  0  3  0  0  0  0  0  0
  182.3530  178.7180  142.0410 N   0  0  0  0  0  0  0  0  0  0  0  0
  181.8070  179.0860  143.2320 C   0  0  0  0  0  3  0  0  0  0  0  0
  188.3380  177.6010  141.3570 C   0  0  0  0  0  3  0  0  0  0  0  0
  189.0780  177.6430  140.1730 C   0  0  0  0  0  3  0  0  0  0  0  0
  190.9800  176.7040  141.3280 C   0  0  0  0  0  3  0  0  0  0  0  0
  188.9110  177.1070  142.5380 C   0  0  0  0  0  0  0  0  0  0  0  0
  190.2400  176.6610  142.5110 C   0  0  0  0  0  3  0  0  0  0  0  0
  190.4060  177.1940  140.1510 C   0  0  0  0  0  0  0  0  0  0  0  0
  191.0230  174.9640  138.3250 O   0  0  0  0  0  0  0  0  0  0  0  0
  191.1980  177.2200  138.9560 N   0  0  0  0  0  2  0  0  0  0  0  0
  192.3230  176.3290  136.8850 C   0  0  0  0  0  1  0  0  0  0  0  0
  191.4780  176.1140  138.0880 C   0  0  0  0  0  0  0  0  0  0  0  0
  190.6030  177.6780  147.9430 C   0  0  0  0  0  2  0  0  0  0  0  0
  191.8780  177.0930  147.5700 N   0  0  0  0  0  2  0  0  0  0  0  0
  191.7420  175.6570  147.7350 C   0  0  0  0  0  1  0  0  0  0  0  0
  1 19  1  1  0  0  0
  1  5  1  0  0  0  0
  1  9  1  0  0  0  0
  2  4  1  0  0  0  0
  4  3  1  0  0  0  0
  4 26  1  6  0  0  0
  5  8  2  0  0  0  0
  6  3  2  0  0  0  0
  7 10  1  0  0  0  0
  7  5  1  0  0  0  0
  8  6  1  0  0  0  0
  9  2  2  0  0  0  0
  9  6  1  0  0  0  0
 10 12  1  0  0  0  0
 12 11  2  0  0  0  0
 13 14  1  0  0  0  0
 13 10  2  0  0  0  0
 14 15  2  0  0  0  0
 15 11  1  0  0  0  0
 16 19  1  0  0  0  0
 17 16  2  0  0  0  0
 18 20  1  0  0  0  0
 20 19  2  0  0  0  0
 21 17  1  0  0  0  0
 21 18  2  0  0  0  0
 23 21  1  0  0  0  0
 24 25  1  0  0  0  0
 25 22  2  0  0  0  0
 25 23  1  0  0  0  0
 27 28  1  0  0  0  0
 27 26  1  0  0  0  0
M  END
>  <MODEL>
9

>  <REMARK>
 VINA RESULT:      -8.2      2.021      5.938
  Name = 
  5 active torsions:
  status: ('A' for Active; 'I' for Inactive)
    1  A    between atoms: C_1  and  N_26
    2  A    between atoms: C_4  and  C_13
    3  A    between atoms: C_4  and  N_15
    4  A    between atoms: C_5  and  C_16
    5  A    between atoms: N_17  and  C_24
                            x       y       z     vdW  Elec       q    Type
                         _______ _______ _______ _____ _____    ______ ____

>  <TORSDO>
F 5

$$$$
