=
 OpenBabel11042412323D

 68 74  0  0  1  0  0  0  0  0999 V2000
  190.2090  176.8920  139.2870 C   0  0  0  0  0  3  0  0  0  0  0  0
  193.2480  173.7580  136.3000 N   0  0  0  0  0  0  0  0  0  0  0  0
  189.2850  174.5610  136.6280 F   0  0  0  0  0  0  0  0  0  0  0  0
  194.1900  175.9530  136.8210 C   0  0  0  0  0  0  0  0  0  0  0  0
  189.4420  176.2040  138.3450 C   0  0  0  0  0  0  0  0  0  0  0  0
  192.0200  173.9890  136.6690 C   0  0  0  0  0  3  0  0  0  0  0  0
  192.2270  175.9850  138.3030 C   0  0  0  0  0  0  0  0  0  0  0  0
  191.6000  176.7660  139.2810 C   0  0  0  0  0  0  0  0  0  0  0  0
  193.6210  176.1800  138.0940 N   0  0  0  0  0  2  0  0  0  0  0  0
  194.4830  174.5330  136.4910 C   0  0  1  0  0  3  0  0  0  0  0  0
  193.8340  176.9830  135.5900 S   0  0  0  0  0  0  0  0  0  0  0  0
  190.0630  175.2900  137.4800 C   0  0  0  0  0  0  0  0  0  0  0  0
  191.4610  175.1170  137.4800 C   0  0  0  0  0  0  0  0  0  0  0  0
  188.0820  176.5010  138.2290 O   0  0  0  0  0  0  0  0  0  0  0  0
  187.5990  177.8180  138.0120 C   0  0  0  0  0  2  0  0  0  0  0  0
  187.9450  178.2890  136.6200 C   0  0  0  0  0  2  0  0  0  0  0  0
  187.0540  177.5720  135.6170 C   0  0  0  0  0  2  0  0  0  0  0  0
  187.9090  176.6650  134.7330 C   0  0  0  0  0  2  0  0  0  0  0  0
  187.3020  175.3430  134.5960 N   0  0  0  0  0  2  0  0  0  0  0  0
  185.8020  173.8570  135.8200 C   0  0  0  0  0  0  0  0  0  0  0  0
  186.0840  175.0140  135.2610 C   0  0  0  0  0  0  0  0  0  0  0  0
  183.8830  175.2360  135.8840 N   0  0  0  0  0  0  0  0  0  0  0  0
  184.9930  175.8450  135.3280 O   0  0  0  0  0  0  0  0  0  0  0  0
  184.3560  173.8760  136.2130 C   0  0  2  0  0  3  0  0  0  0  0  0
  184.2080  173.6320  137.7010 C   0  0  0  0  0  1  0  0  0  0  0  0
  186.6610  172.6490  135.7370 C   0  0  0  0  0  2  0  0  0  0  0  0
  187.4430  172.4650  137.0100 C   0  0  0  0  0  1  0  0  0  0  0  0
  182.8910  175.1530  134.8070 C   0  0  0  0  0  2  0  0  0  0  0  0
  181.5400  175.7910  135.1860 C   0  0  0  0  0  0  0  0  0  0  0  0
  181.5290  177.2290  134.7230 C   0  0  0  0  0  1  0  0  0  0  0  0
  181.3420  175.7910  136.6940 C   0  0  0  0  0  1  0  0  0  0  0  0
  180.4800  175.0980  134.5960 O   0  0  0  0  0  1  0  0  0  0  0  0
  195.4260  173.8790  137.5310 C   0  0  0  0  0  2  0  0  0  0  0  0
  197.8870  174.2050  138.0730 C   0  0  2  0  0  0  0  0  0  0  0  0
  196.5540  174.8450  137.9420 C   0  0  2  0  0  3  0  0  0  0  0  0
  197.0370  174.4030  139.6750 S   0  0  0  0  0  0  0  0  0  0  0  0
  199.0280  175.0110  138.0170 O   0  0  0  0  0  1  0  0  0  0  0  0
  198.0530  172.8180  137.6570 N   0  0  0  0  0  1  0  0  0  0  0  0
  192.5270  177.5600  140.5890 S   0  0  0  0  0  0  0  0  0  0  0  0
  189.5760  178.6350  143.1520 C   0  0  0  0  0  3  0  0  0  0  0  0
  188.8710  177.4540  143.3360 C   0  0  0  0  0  0  0  0  0  0  0  0
  190.7800  178.6300  142.4470 C   0  0  0  0  0  3  0  0  0  0  0  0
  191.2980  177.4410  141.9060 C   0  0  0  0  0  0  0  0  0  0  0  0
  190.5930  176.2520  142.1030 C   0  0  0  0  0  3  0  0  0  0  0  0
  189.3810  176.2550  142.8050 C   0  0  0  0  0  3  0  0  0  0  0  0
  187.0310  178.6860  144.4590 N   0  0  1  0  0  0  0  0  0  0  0  0
  186.5400  177.6520  145.3950 C   0  0  2  0  0  0  0  0  0  0  0  0
  187.4290  177.5090  143.6880 C   0  0  2  0  0  3  0  0  0  0  0  0
  187.0520  176.5750  144.6510 O   0  0  0  0  0  0  0  0  0  0  0  0
  185.5980  178.6320  144.8050 C   0  0  2  0  0  3  0  0  0  0  0  0
  187.0900  177.8720  146.6610 O   0  0  0  0  0  1  0  0  0  0  0  0
  184.7880  178.0770  143.6660 C   0  0  0  0  0  3  0  0  0  0  0  0
  184.4680  178.8430  142.6180 C   0  0  0  0  0  3  0  0  0  0  0  0
  182.2670  178.9820  141.5120 C   0  0  0  0  0  0  0  0  0  0  0  0
  183.5870  178.4070  141.5750 N   0  0  0  0  0  0  0  0  0  0  0  0
  182.1580  180.2300  141.3670 O   0  0  0  0  0  0  0  0  0  0  0  0
  184.2510  177.9840  140.3290 C   0  0  1  0  0  3  0  0  0  0  0  0
  183.8140  176.7060  139.8990 O   0  0  0  0  0  1  0  0  0  0  0  0
  184.1950  179.0020  139.3360 O   0  0  0  0  0  0  0  0  0  0  0  0
  183.3670  178.5880  138.2780 C   0  0  0  0  0  1  0  0  0  0  0  0
  181.0680  178.0800  141.4310 C   0  0  1  0  0  3  0  0  0  0  0  0
  179.9240  178.6300  142.2420 C   0  0  0  0  0  0  0  0  0  0  0  0
  179.2250  179.5270  141.7930 O   0  0  0  0  0  0  0  0  0  0  0  0
  179.7230  178.1370  143.6490 C   0  0  2  0  0  3  0  0  0  0  0  0
  179.0160  179.1840  144.4800 C   0  0  0  0  0  1  0  0  0  0  0  0
  180.9230  177.8210  144.2400 F   0  0  0  0  0  0  0  0  0  0  0  0
  180.5110  176.4620  139.6180 C   0  0  0  0  0  2  0  0  0  0  0  0
  180.6010  177.7460  140.0360 C   0  0  0  0  0  3  0  0  0  0  0  0
  2 10  1  0  0  0  0
  2  6  2  0  0  0  0
  3 12  1  0  0  0  0
  4  9  1  0  0  0  0
  5  1  2  0  0  0  0
  6 13  1  0  0  0  0
  7  8  2  0  0  0  0
  8  1  1  0  0  0  0
  8 39  1  0  0  0  0
  9  7  1  0  0  0  0
 10  4  1  0  0  0  0
 10 33  1  1  0  0  0
 11  4  2  0  0  0  0
 12  5  1  0  0  0  0
 13 12  2  0  0  0  0
 13  7  1  0  0  0  0
 14  5  1  0  0  0  0
 15 14  1  0  0  0  0
 16 15  1  0  0  0  0
 17 16  1  0  0  0  0
 18 17  1  0  0  0  0
 19 18  1  0  0  0  0
 19 21  1  0  0  0  0
 20 24  1  0  0  0  0
 21 23  1  0  0  0  0
 21 20  2  0  0  0  0
 22 24  1  0  0  0  0
 23 22  1  0  0  0  0
 24 25  1  1  0  0  0
 26 20  1  0  0  0  0
 26 27  1  0  0  0  0
 28 29  1  0  0  0  0
 28 22  1  0  0  0  0
 29 31  1  0  0  0  0
 30 29  1  0  0  0  0
 32 29  1  0  0  0  0
 34 38  1  6  0  0  0
 34 36  1  0  0  0  0
 35 33  1  6  0  0  0
 35 34  1  0  0  0  0
 35 36  1  0  0  0  0
 37 34  1  0  0  0  0
 39 43  1  0  0  0  0
 40 41  1  0  0  0  0
 41 48  1  0  0  0  0
 42 40  2  0  0  0  0
 43 44  2  0  0  0  0
 43 42  1  0  0  0  0
 44 45  1  0  0  0  0
 45 41  2  0  0  0  0
 46 50  1  0  0  0  0
 46 47  1  0  0  0  0
 47 51  1  0  0  0  0
 48 46  1  0  0  0  0
 48 49  1  0  0  0  0
 49 47  1  0  0  0  0
 50 47  1  0  0  0  0
 52 50  1  0  0  0  0
 53 52  2  0  0  0  0
 54 55  1  0  0  0  0
 55 53  1  0  0  0  0
 56 54  2  0  0  0  0
 57 55  1  0  0  0  0
 58 57  1  0  0  0  0
 59 57  1  0  0  0  0
 60 59  1  0  0  0  0
 61 54  1  0  0  0  0
 61 62  1  0  0  0  0
 62 64  1  0  0  0  0
 63 62  2  0  0  0  0
 64 66  1  0  0  0  0
 64 65  1  0  0  0  0
 67 68  2  0  0  0  0
 68 61  1  0  0  0  0
M  END
>  <MODEL>
1

>  <REMARK>
 VINA RESULT:      -4.9      0.000      0.000
  Name = 
  23 active torsions:
  status: ('A' for Active; 'I' for Inactive)
    1  A    between atoms: C_1  and  C_18
    2  A    between atoms: O_6  and  C_53
    3  A    between atoms: C_7  and  C_9
    4  A    between atoms: C_7  and  C_60
    5  A    between atoms: C_8  and  C_38
    6  A    between atoms: C_9  and  C_44
    7  A    between atoms: C_11  and  C_59
    8  A    between atoms: C_12  and  C_28
    9  A    between atoms: C_15  and  C_17
   10  A    between atoms: C_17  and  C_18
   11  A    between atoms: C_17  and  C_51
   12  A    between atoms: C_21  and  C_45
   13  A    between atoms: C_22  and  S_68
   14  A    between atoms: O_23  and  C_40
   15  A    between atoms: O_23  and  C_60
   16  A    between atoms: C_24  and  C_29
   17  A    between atoms: C_26  and  N_43
   18  A    between atoms: C_29  and  C_56
   19  A    between atoms: C_36  and  N_41
   20  A    between atoms: N_37  and  C_59
   21  A    between atoms: N_41  and  C_44
   22  A    between atoms: N_43  and  C_53
   23  A    between atoms: C_52  and  S_68
                            x       y       z     vdW  Elec       q    Type
                         _______ _______ _______ _____ _____    ______ ____

>  <TORSDO>
F 23

$$$$
=
 OpenBabel11042412323D

 68 74  0  0  1  0  0  0  0  0999 V2000
  190.1830  176.9810  139.2410 C   0  0  0  0  0  3  0  0  0  0  0  0
  192.6350  173.3780  136.2430 N   0  0  0  0  0  0  0  0  0  0  0  0
  188.8220  174.6650  136.7630 F   0  0  0  0  0  0  0  0  0  0  0  0
  193.8590  175.4650  136.5950 C   0  0  0  0  0  0  0  0  0  0  0  0
  189.2820  176.3490  138.3820 C   0  0  0  0  0  0  0  0  0  0  0  0
  191.4690  173.7710  136.6710 C   0  0  0  0  0  3  0  0  0  0  0  0
  192.0130  175.7960  138.1870 C   0  0  0  0  0  0  0  0  0  0  0  0
  191.5460  176.6880  139.1600 C   0  0  0  0  0  0  0  0  0  0  0  0
  193.4030  175.8130  137.8870 N   0  0  0  0  0  2  0  0  0  0  0  0
  193.9620  174.0070  136.3200 C   0  0  1  0  0  3  0  0  0  0  0  0
  193.5460  176.4760  135.3370 S   0  0  0  0  0  0  0  0  0  0  0  0
  189.7340  175.3310  137.5300 C   0  0  0  0  0  0  0  0  0  0  0  0
  191.0990  174.9920  137.4560 C   0  0  0  0  0  0  0  0  0  0  0  0
  187.9600  176.8010  138.3330 O   0  0  0  0  0  0  0  0  0  0  0  0
  187.6100  178.0960  137.8660 C   0  0  0  0  0  2  0  0  0  0  0  0
  188.0340  178.2760  136.4290 C   0  0  0  0  0  2  0  0  0  0  0  0
  186.8540  177.9690  135.5190 C   0  0  0  0  0  2  0  0  0  0  0  0
  187.0370  176.5870  134.8940 C   0  0  0  0  0  2  0  0  0  0  0  0
  185.8370  175.7710  135.0630 N   0  0  0  0  0  2  0  0  0  0  0  0
  184.1990  175.2990  136.8090 C   0  0  0  0  0  0  0  0  0  0  0  0
  184.8230  176.1280  136.0020 C   0  0  0  0  0  0  0  0  0  0  0  0
  183.2180  177.4440  136.9880 N   0  0  0  0  0  0  0  0  0  0  0  0
  184.2960  177.3900  136.1240 O   0  0  0  0  0  0  0  0  0  0  0  0
  183.0810  176.0530  137.4650 C   0  0  2  0  0  3  0  0  0  0  0  0
  183.2300  176.0150  138.9730 C   0  0  0  0  0  1  0  0  0  0  0  0
  184.3520  173.8230  136.7870 C   0  0  0  0  0  2  0  0  0  0  0  0
  185.5230  173.3980  137.6330 C   0  0  0  0  0  1  0  0  0  0  0  0
  182.0570  177.7840  136.1580 C   0  0  0  0  0  2  0  0  0  0  0  0
  181.1920  178.9040  136.7700 C   0  0  0  0  0  0  0  0  0  0  0  0
  181.8840  179.4400  138.0020 C   0  0  0  0  0  1  0  0  0  0  0  0
  179.8340  178.3700  137.2000 C   0  0  0  0  0  1  0  0  0  0  0  0
  180.9960  179.9380  135.8520 O   0  0  0  0  0  1  0  0  0  0  0  0
  194.8870  173.2900  137.3340 C   0  0  0  0  0  2  0  0  0  0  0  0
  196.0420  171.0280  137.4030 C   0  0  2  0  0  0  0  0  0  0  0  0
  195.7990  172.2700  136.6270 C   0  0  2  0  0  3  0  0  0  0  0  0
  197.3980  172.2360  137.5620 S   0  0  0  0  0  0  0  0  0  0  0  0
  196.4750  169.8840  136.7260 O   0  0  0  0  0  1  0  0  0  0  0  0
  195.2970  170.8050  138.6370 N   0  0  0  0  0  1  0  0  0  0  0  0
  192.6420  177.4210  140.3680 S   0  0  0  0  0  0  0  0  0  0  0  0
  190.2830  178.2750  143.5520 C   0  0  0  0  0  3  0  0  0  0  0  0
  189.4740  177.1530  143.6560 C   0  0  0  0  0  0  0  0  0  0  0  0
  191.3520  178.2870  142.6570 C   0  0  0  0  0  3  0  0  0  0  0  0
  191.6280  177.1760  141.8420 C   0  0  0  0  0  0  0  0  0  0  0  0
  190.8190  176.0430  141.9570 C   0  0  0  0  0  3  0  0  0  0  0  0
  189.7420  176.0300  142.8510 C   0  0  0  0  0  3  0  0  0  0  0  0
  188.0190  178.2640  145.3330 N   0  0  1  0  0  0  0  0  0  0  0  0
  187.5200  177.0920  146.0840 C   0  0  2  0  0  0  0  0  0  0  0  0
  188.1220  177.2770  144.2590 C   0  0  2  0  0  3  0  0  0  0  0  0
  187.7530  176.1820  145.0380 O   0  0  0  0  0  0  0  0  0  0  0  0
  186.6590  178.2840  145.9040 C   0  0  2  0  0  3  0  0  0  0  0  0
  188.2740  176.9310  147.2500 O   0  0  0  0  0  1  0  0  0  0  0  0
  185.6200  178.1190  144.8300 C   0  0  0  0  0  3  0  0  0  0  0  0
  184.8090  179.1310  144.5030 C   0  0  0  0  0  3  0  0  0  0  0  0
  182.5370  179.7890  143.8010 C   0  0  0  0  0  0  0  0  0  0  0  0
  183.7160  178.9870  143.5860 N   0  0  0  0  0  0  0  0  0  0  0  0
  182.6500  181.0440  143.7930 O   0  0  0  0  0  0  0  0  0  0  0  0
  184.0940  178.6100  142.2130 C   0  0  1  0  0  3  0  0  0  0  0  0
  183.2070  179.1510  141.2490 O   0  0  0  0  0  1  0  0  0  0  0  0
  185.4730  178.8590  141.9650 O   0  0  0  0  0  0  0  0  0  0  0  0
  185.7800  178.5410  140.6300 C   0  0  0  0  0  1  0  0  0  0  0  0
  181.1880  179.1280  143.8400 C   0  0  1  0  0  3  0  0  0  0  0  0
  180.3160  179.6160  142.7130 C   0  0  0  0  0  0  0  0  0  0  0  0
  179.5420  180.5450  142.8900 O   0  0  0  0  0  0  0  0  0  0  0  0
  180.3350  178.8770  141.4030 C   0  0  2  0  0  3  0  0  0  0  0  0
  178.9310  178.5050  140.9850 C   0  0  0  0  0  1  0  0  0  0  0  0
  181.1010  177.7380  141.4870 F   0  0  0  0  0  0  0  0  0  0  0  0
  180.1860  176.9190  144.4170 C   0  0  0  0  0  2  0  0  0  0  0  0
  181.2060  177.6200  143.8680 C   0  0  0  0  0  3  0  0  0  0  0  0
  2 10  1  0  0  0  0
  2  6  2  0  0  0  0
  3 12  1  0  0  0  0
  4  9  1  0  0  0  0
  5  1  2  0  0  0  0
  6 13  1  0  0  0  0
  7  8  2  0  0  0  0
  8  1  1  0  0  0  0
  8 39  1  0  0  0  0
  9  7  1  0  0  0  0
 10  4  1  0  0  0  0
 10 33  1  1  0  0  0
 11  4  2  0  0  0  0
 12  5  1  0  0  0  0
 13 12  2  0  0  0  0
 13  7  1  0  0  0  0
 14  5  1  0  0  0  0
 15 14  1  0  0  0  0
 16 15  1  0  0  0  0
 17 16  1  0  0  0  0
 18 19  1  0  0  0  0
 18 17  1  0  0  0  0
 19 21  1  0  0  0  0
 20 24  1  0  0  0  0
 21 23  1  0  0  0  0
 21 20  2  0  0  0  0
 22 24  1  0  0  0  0
 23 22  1  0  0  0  0
 24 25  1  1  0  0  0
 26 20  1  0  0  0  0
 26 27  1  0  0  0  0
 28 29  1  0  0  0  0
 28 22  1  0  0  0  0
 29 31  1  0  0  0  0
 29 30  1  0  0  0  0
 32 29  1  0  0  0  0
 34 37  1  6  0  0  0
 34 36  1  0  0  0  0
 34 38  1  0  0  0  0
 35 33  1  1  0  0  0
 35 34  1  0  0  0  0
 35 36  1  0  0  0  0
 39 43  1  0  0  0  0
 40 41  1  0  0  0  0
 41 48  1  0  0  0  0
 42 40  2  0  0  0  0
 43 44  2  0  0  0  0
 43 42  1  0  0  0  0
 44 45  1  0  0  0  0
 45 41  2  0  0  0  0
 46 50  1  0  0  0  0
 46 47  1  0  0  0  0
 47 51  1  0  0  0  0
 48 49  1  0  0  0  0
 48 46  1  0  0  0  0
 49 47  1  0  0  0  0
 50 47  1  0  0  0  0
 52 50  1  0  0  0  0
 53 52  2  0  0  0  0
 54 61  1  0  0  0  0
 55 54  1  0  0  0  0
 55 53  1  0  0  0  0
 56 54  2  0  0  0  0
 57 55  1  0  0  0  0
 58 57  1  0  0  0  0
 59 57  1  0  0  0  0
 60 59  1  0  0  0  0
 61 68  1  0  0  0  0
 62 63  2  0  0  0  0
 62 61  1  0  0  0  0
 64 66  1  0  0  0  0
 64 62  1  0  0  0  0
 65 64  1  0  0  0  0
 68 67  2  0  0  0  0
M  END
>  <MODEL>
2

>  <REMARK>
 VINA RESULT:      -4.1      1.786      2.269
  Name = 
  23 active torsions:
  status: ('A' for Active; 'I' for Inactive)
    1  A    between atoms: C_1  and  C_18
    2  A    between atoms: O_6  and  C_53
    3  A    between atoms: C_7  and  C_9
    4  A    between atoms: C_7  and  C_60
    5  A    between atoms: C_8  and  C_38
    6  A    between atoms: C_9  and  C_44
    7  A    between atoms: C_11  and  C_59
    8  A    between atoms: C_12  and  C_28
    9  A    between atoms: C_15  and  C_17
   10  A    between atoms: C_17  and  C_18
   11  A    between atoms: C_17  and  C_51
   12  A    between atoms: C_21  and  C_45
   13  A    between atoms: C_22  and  S_68
   14  A    between atoms: O_23  and  C_40
   15  A    between atoms: O_23  and  C_60
   16  A    between atoms: C_24  and  C_29
   17  A    between atoms: C_26  and  N_43
   18  A    between atoms: C_29  and  C_56
   19  A    between atoms: C_36  and  N_41
   20  A    between atoms: N_37  and  C_59
   21  A    between atoms: N_41  and  C_44
   22  A    between atoms: N_43  and  C_53
   23  A    between atoms: C_52  and  S_68
                            x       y       z     vdW  Elec       q    Type
                         _______ _______ _______ _____ _____    ______ ____

>  <TORSDO>
F 23

$$$$
=
 OpenBabel11042412323D

 68 74  0  0  1  0  0  0  0  0999 V2000
  189.5940  176.7330  136.9680 C   0  0  0  0  0  3  0  0  0  0  0  0
  193.3320  173.1280  135.9630 N   0  0  0  0  0  0  0  0  0  0  0  0
  189.6030  173.9540  134.5940 F   0  0  0  0  0  0  0  0  0  0  0  0
  194.1440  175.3870  136.4280 C   0  0  0  0  0  0  0  0  0  0  0  0
  189.2010  175.8810  135.9340 C   0  0  0  0  0  0  0  0  0  0  0  0
  192.0740  173.4150  135.7840 C   0  0  0  0  0  3  0  0  0  0  0  0
  191.7710  175.6750  137.0080 C   0  0  0  0  0  0  0  0  0  0  0  0
  190.8710  176.6160  137.5210 C   0  0  0  0  0  0  0  0  0  0  0  0
  193.1490  175.8370  137.3240 N   0  0  0  0  0  2  0  0  0  0  0  0
  194.4490  173.9330  136.4810 C   0  0  1  0  0  3  0  0  0  0  0  0
  194.3500  176.1750  134.9990 S   0  0  0  0  0  0  0  0  0  0  0  0
  190.0440  174.8290  135.5440 C   0  0  0  0  0  0  0  0  0  0  0  0
  191.3220  174.6680  136.1130 C   0  0  0  0  0  0  0  0  0  0  0  0
  188.0090  176.1430  135.2540 O   0  0  0  0  0  0  0  0  0  0  0  0
  186.7310  175.8920  135.8210 C   0  0  0  0  0  2  0  0  0  0  0  0
  186.1350  177.1640  136.3730 C   0  0  0  0  0  2  0  0  0  0  0  0
  185.2550  176.8240  137.5670 C   0  0  0  0  0  2  0  0  0  0  0  0
  184.3840  175.6160  137.2310 C   0  0  0  0  0  2  0  0  0  0  0  0
  183.0370  176.0310  136.8450 N   0  0  0  0  0  2  0  0  0  0  0  0
  181.1520  176.2260  138.3830 C   0  0  0  0  0  0  0  0  0  0  0  0
  182.1890  176.7330  137.7530 C   0  0  0  0  0  0  0  0  0  0  0  0
  181.2570  178.5490  138.8080 N   0  0  0  0  0  0  0  0  0  0  0  0
  182.2920  178.0750  138.0230 O   0  0  0  0  0  0  0  0  0  0  0  0
  180.4320  177.3520  139.0630 C   0  0  2  0  0  3  0  0  0  0  0  0
  180.3460  177.1010  140.5550 C   0  0  0  0  0  1  0  0  0  0  0  0
  180.6080  174.8640  138.1530 C   0  0  0  0  0  2  0  0  0  0  0  0
  179.6490  174.8650  136.9910 C   0  0  0  0  0  1  0  0  0  0  0  0
  180.5050  179.4790  137.9580 C   0  0  0  0  0  2  0  0  0  0  0  0
  180.3180  180.8650  138.6060 C   0  0  0  0  0  0  0  0  0  0  0  0
  181.5370  181.7100  138.3160 C   0  0  0  0  0  1  0  0  0  0  0  0
  180.1880  180.7470  140.1170 C   0  0  0  0  0  1  0  0  0  0  0  0
  179.1770  181.4980  138.1060 O   0  0  0  0  0  1  0  0  0  0  0  0
  194.8810  173.4830  137.8980 C   0  0  0  0  0  2  0  0  0  0  0  0
  197.4150  173.6130  137.7530 C   0  0  2  0  0  0  0  0  0  0  0  0
  196.2250  172.7310  137.8560 C   0  0  2  0  0  3  0  0  0  0  0  0
  196.9000  172.9280  136.1430 S   0  0  0  0  0  0  0  0  0  0  0  0
  198.6620  173.1070  138.1290 O   0  0  0  0  0  1  0  0  0  0  0  0
  197.2410  175.0560  137.8670 N   0  0  0  0  0  1  0  0  0  0  0  0
  191.2790  177.6380  138.9300 S   0  0  0  0  0  0  0  0  0  0  0  0
  188.7800  176.6780  141.9740 C   0  0  0  0  0  3  0  0  0  0  0  0
  187.7660  177.6190  141.8600 C   0  0  0  0  0  0  0  0  0  0  0  0
  189.7610  176.5830  140.9880 C   0  0  0  0  0  3  0  0  0  0  0  0
  189.7510  177.4330  139.8690 C   0  0  0  0  0  0  0  0  0  0  0  0
  188.7230  178.3720  139.7500 C   0  0  0  0  0  3  0  0  0  0  0  0
  187.7390  178.4740  140.7420 C   0  0  0  0  0  3  0  0  0  0  0  0
  185.6710  177.4050  143.1750 N   0  0  1  0  0  0  0  0  0  0  0  0
  185.2520  178.8210  143.2540 C   0  0  2  0  0  0  0  0  0  0  0  0
  186.9960  178.0160  143.0650 C   0  0  2  0  0  3  0  0  0  0  0  0
  186.5420  179.3330  143.0320 O   0  0  0  0  0  0  0  0  0  0  0  0
  184.9610  177.8930  144.3720 C   0  0  2  0  0  3  0  0  0  0  0  0
  184.2870  179.0750  142.2760 O   0  0  0  0  0  1  0  0  0  0  0  0
  185.9030  178.0410  145.5360 C   0  0  0  0  0  3  0  0  0  0  0  0
  187.0970  177.4400  145.5280 C   0  0  0  0  0  3  0  0  0  0  0  0
  189.3790  177.6660  146.4400 C   0  0  0  0  0  0  0  0  0  0  0  0
  187.9740  177.4350  146.6630 N   0  0  0  0  0  0  0  0  0  0  0  0
  189.7360  178.7510  145.9070 O   0  0  0  0  0  0  0  0  0  0  0  0
  187.3620  177.8720  147.9300 C   0  0  1  0  0  3  0  0  0  0  0  0
  187.7720  177.0710  149.0250 O   0  0  0  0  0  1  0  0  0  0  0  0
  187.5100  179.2740  148.1250 O   0  0  0  0  0  0  0  0  0  0  0  0
  186.3280  179.9340  147.7440 C   0  0  0  0  0  1  0  0  0  0  0  0
  190.3880  176.7080  147.0090 C   0  0  1  0  0  3  0  0  0  0  0  0
  191.3290  176.2190  145.9400 C   0  0  0  0  0  0  0  0  0  0  0  0
  192.1920  175.3950  146.2080 O   0  0  0  0  0  0  0  0  0  0  0  0
  191.2620  176.8350  144.5690 C   0  0  2  0  0  3  0  0  0  0  0  0
  191.7330  175.8520  143.5240 C   0  0  0  0  0  1  0  0  0  0  0  0
  192.0280  177.9750  144.5000 F   0  0  0  0  0  0  0  0  0  0  0  0
  190.7540  178.3040  148.8890 C   0  0  0  0  0  2  0  0  0  0  0  0
  191.1690  177.2180  148.1950 C   0  0  0  0  0  3  0  0  0  0  0  0
  1  8  1  0  0  0  0
  2 10  1  0  0  0  0
  3 12  1  0  0  0  0
  4 10  1  0  0  0  0
  4  9  1  0  0  0  0
  5  1  2  0  0  0  0
  6  2  2  0  0  0  0
  6 13  1  0  0  0  0
  7  9  1  0  0  0  0
  7  8  2  0  0  0  0
  8 39  1  0  0  0  0
 10 33  1  1  0  0  0
 11  4  2  0  0  0  0
 12  5  1  0  0  0  0
 12 13  2  0  0  0  0
 13  7  1  0  0  0  0
 14 15  1  0  0  0  0
 14  5  1  0  0  0  0
 15 16  1  0  0  0  0
 16 17  1  0  0  0  0
 18 17  1  0  0  0  0
 19 18  1  0  0  0  0
 19 21  1  0  0  0  0
 20 24  1  0  0  0  0
 21 23  1  0  0  0  0
 21 20  2  0  0  0  0
 22 24  1  0  0  0  0
 23 22  1  0  0  0  0
 24 25  1  1  0  0  0
 26 20  1  0  0  0  0
 27 26  1  0  0  0  0
 28 29  1  0  0  0  0
 28 22  1  0  0  0  0
 29 31  1  0  0  0  0
 30 29  1  0  0  0  0
 32 29  1  0  0  0  0
 34 35  1  0  0  0  0
 34 38  1  1  0  0  0
 34 37  1  0  0  0  0
 35 33  1  6  0  0  0
 36 34  1  0  0  0  0
 36 35  1  0  0  0  0
 39 43  1  0  0  0  0
 41 40  1  0  0  0  0
 41 48  1  0  0  0  0
 42 40  2  0  0  0  0
 43 42  1  0  0  0  0
 44 43  2  0  0  0  0
 44 45  1  0  0  0  0
 45 41  2  0  0  0  0
 46 47  1  0  0  0  0
 46 50  1  0  0  0  0
 47 50  1  0  0  0  0
 48 46  1  0  0  0  0
 49 48  1  0  0  0  0
 49 47  1  0  0  0  0
 50 52  1  0  0  0  0
 51 47  1  0  0  0  0
 53 52  2  0  0  0  0
 53 55  1  0  0  0  0
 54 55  1  0  0  0  0
 54 61  1  0  0  0  0
 55 57  1  0  0  0  0
 56 54  2  0  0  0  0
 57 59  1  0  0  0  0
 57 58  1  0  0  0  0
 60 59  1  0  0  0  0
 61 68  1  0  0  0  0
 62 63  2  0  0  0  0
 62 61  1  0  0  0  0
 64 62  1  0  0  0  0
 65 64  1  0  0  0  0
 66 64  1  0  0  0  0
 68 67  2  0  0  0  0
M  END
>  <MODEL>
3

>  <REMARK>
 VINA RESULT:      -3.6      2.667      6.172
  Name = 
  23 active torsions:
  status: ('A' for Active; 'I' for Inactive)
    1  A    between atoms: C_1  and  C_18
    2  A    between atoms: O_6  and  C_53
    3  A    between atoms: C_7  and  C_9
    4  A    between atoms: C_7  and  C_60
    5  A    between atoms: C_8  and  C_38
    6  A    between atoms: C_9  and  C_44
    7  A    between atoms: C_11  and  C_59
    8  A    between atoms: C_12  and  C_28
    9  A    between atoms: C_15  and  C_17
   10  A    between atoms: C_17  and  C_18
   11  A    between atoms: C_17  and  C_51
   12  A    between atoms: C_21  and  C_45
   13  A    between atoms: C_22  and  S_68
   14  A    between atoms: O_23  and  C_40
   15  A    between atoms: O_23  and  C_60
   16  A    between atoms: C_24  and  C_29
   17  A    between atoms: C_26  and  N_43
   18  A    between atoms: C_29  and  C_56
   19  A    between atoms: C_36  and  N_41
   20  A    between atoms: N_37  and  C_59
   21  A    between atoms: N_41  and  C_44
   22  A    between atoms: N_43  and  C_53
   23  A    between atoms: C_52  and  S_68
                            x       y       z     vdW  Elec       q    Type
                         _______ _______ _______ _____ _____    ______ ____

>  <TORSDO>
F 23

$$$$
=
 OpenBabel11042412323D

 68 74  0  0  1  0  0  0  0  0999 V2000
  190.2710  175.3890  137.6820 C   0  0  0  0  0  3  0  0  0  0  0  0
  194.5200  172.6500  136.1240 N   0  0  0  0  0  0  0  0  0  0  0  0
  190.5160  172.4780  135.4860 F   0  0  0  0  0  0  0  0  0  0  0  0
  194.8350  175.0680  136.3110 C   0  0  0  0  0  0  0  0  0  0  0  0
  189.9130  174.3790  136.7880 C   0  0  0  0  0  0  0  0  0  0  0  0
  193.2180  172.6270  136.1850 C   0  0  0  0  0  3  0  0  0  0  0  0
  192.6090  174.8620  137.3380 C   0  0  0  0  0  0  0  0  0  0  0  0
  191.6170  175.6170  137.9750 C   0  0  0  0  0  0  0  0  0  0  0  0
  193.9410  175.3610  137.3660 N   0  0  0  0  0  2  0  0  0  0  0  0
  195.4850  173.7320  136.3710 C   0  0  1  0  0  3  0  0  0  0  0  0
  194.5810  175.7470  134.8350 S   0  0  0  0  0  0  0  0  0  0  0  0
  190.8990  173.5150  136.2870 C   0  0  0  0  0  0  0  0  0  0  0  0
  192.2600  173.7010  136.5980 C   0  0  0  0  0  0  0  0  0  0  0  0
  188.5890  174.3000  136.3470 O   0  0  0  0  0  0  0  0  0  0  0  0
  187.9430  175.3650  135.6650 C   0  0  0  0  0  2  0  0  0  0  0  0
  186.8960  174.8320  134.7170 C   0  0  0  0  0  2  0  0  0  0  0  0
  185.8050  174.1390  135.5180 C   0  0  0  0  0  2  0  0  0  0  0  0
  184.5210  174.0860  134.6920 C   0  0  0  0  0  2  0  0  0  0  0  0
  183.6750  175.2470  134.9620 N   0  0  0  0  0  0  0  0  0  0  0  0
  181.4160  176.1050  135.3020 C   0  0  1  0  0  3  0  0  0  0  0  0
  182.2620  175.1170  135.1080 C   0  0  0  0  0  0  0  0  0  0  0  0
  180.2600  174.0490  135.4660 N   0  0  0  0  0  0  0  0  0  0  0  0
  181.6000  173.9140  135.1560 O   0  0  0  0  0  0  0  0  0  0  0  0
  180.0750  175.5070  135.6070 C   0  0  2  0  0  3  0  0  0  0  0  0
  179.0420  175.9880  134.6080 C   0  0  0  0  0  1  0  0  0  0  0  0
  181.8070  177.5180  135.5340 C   0  0  0  0  0  2  0  0  0  0  0  0
  181.0630  178.4350  134.6000 C   0  0  0  0  0  1  0  0  0  0  0  0
  180.0860  173.4130  136.7770 C   0  0  0  0  0  2  0  0  0  0  0  0
  180.4850  171.9240  136.7780 C   0  0  0  0  0  0  0  0  0  0  0  0
  181.4150  171.6650  135.6150 C   0  0  0  0  0  1  0  0  0  0  0  0
  179.2660  171.0330  136.6010 C   0  0  0  0  0  1  0  0  0  0  0  0
  181.1200  171.5820  137.9740 O   0  0  0  0  0  1  0  0  0  0  0  0
  196.2630  173.5250  137.6940 C   0  0  0  0  0  2  0  0  0  0  0  0
  198.1600  174.8750  138.7130 C   0  0  2  0  0  0  0  0  0  0  0  0
  196.7420  174.8700  138.2720 C   0  0  2  0  0  3  0  0  0  0  0  0
  196.9930  174.6180  140.0900 S   0  0  0  0  0  0  0  0  0  0  0  0
  198.8190  176.1000  138.8460 O   0  0  0  0  0  1  0  0  0  0  0  0
  198.9980  173.7170  138.4210 N   0  0  0  0  0  1  0  0  0  0  0  0
  192.0170  176.8320  139.2260 S   0  0  0  0  0  0  0  0  0  0  0  0
  188.5330  178.5190  138.0240 C   0  0  0  0  0  3  0  0  0  0  0  0
  187.6790  178.2760  139.0910 C   0  0  0  0  0  0  0  0  0  0  0  0
  189.8910  178.2240  138.1330 C   0  0  0  0  0  3  0  0  0  0  0  0
  190.4220  177.6720  139.3110 C   0  0  0  0  0  0  0  0  0  0  0  0
  189.5630  177.4390  140.3880 C   0  0  0  0  0  3  0  0  0  0  0  0
  188.1970  177.7290  140.2800 C   0  0  0  0  0  3  0  0  0  0  0  0
  185.7930  176.9740  138.1350 N   0  0  1  0  0  0  0  0  0  0  0  0
  185.2050  177.9750  137.2210 C   0  0  2  0  0  0  0  0  0  0  0  0
  186.2170  178.1760  138.8510 C   0  0  2  0  0  3  0  0  0  0  0  0
  185.7420  179.0800  137.9040 O   0  0  0  0  0  0  0  0  0  0  0  0
  184.3380  176.9830  137.8990 C   0  0  2  0  0  3  0  0  0  0  0  0
  185.6620  177.7450  135.9200 O   0  0  0  0  0  1  0  0  0  0  0  0
  183.6020  177.5410  139.0860 C   0  0  0  0  0  3  0  0  0  0  0  0
  182.3160  177.2410  139.2940 C   0  0  0  0  0  3  0  0  0  0  0  0
  182.2090  178.6590  141.3110 C   0  0  0  0  0  0  0  0  0  0  0  0
  181.5320  177.8500  140.3290 N   0  0  0  0  0  0  0  0  0  0  0  0
  182.8560  179.6690  140.9200 O   0  0  0  0  0  0  0  0  0  0  0  0
  180.1450  178.1780  139.9550 C   0  0  1  0  0  3  0  0  0  0  0  0
  179.2700  178.1450  141.0690 O   0  0  0  0  0  1  0  0  0  0  0  0
  180.0820  179.3690  139.1780 O   0  0  0  0  0  0  0  0  0  0  0  0
  179.4130  180.3720  139.9020 C   0  0  0  0  0  1  0  0  0  0  0  0
  181.9800  178.3990  142.7730 C   0  0  1  0  0  3  0  0  0  0  0  0
  183.0370  179.0670  143.6120 C   0  0  0  0  0  0  0  0  0  0  0  0
  182.8410  180.1790  144.0800 O   0  0  0  0  0  0  0  0  0  0  0  0
  184.3730  178.3950  143.7740 C   0  0  2  0  0  3  0  0  0  0  0  0
  185.4030  179.3810  144.2760 C   0  0  0  0  0  1  0  0  0  0  0  0
  184.8040  177.8530  142.5860 F   0  0  0  0  0  0  0  0  0  0  0  0
  179.9820  177.9820  144.2050 C   0  0  0  0  0  2  0  0  0  0  0  0
  180.6070  178.7560  143.2870 C   0  0  0  0  0  3  0  0  0  0  0  0
  1  8  1  0  0  0  0
  2  6  2  0  0  0  0
  2 10  1  0  0  0  0
  3 12  1  0  0  0  0
  4 10  1  0  0  0  0
  4  9  1  0  0  0  0
  5  1  2  0  0  0  0
  6 13  1  0  0  0  0
  7  9  1  0  0  0  0
  7  8  2  0  0  0  0
  8 39  1  0  0  0  0
 10 33  1  1  0  0  0
 11  4  2  0  0  0  0
 12 13  2  0  0  0  0
 12  5  1  0  0  0  0
 13  7  1  0  0  0  0
 14  5  1  0  0  0  0
 15 14  1  0  0  0  0
 16 17  1  0  0  0  0
 16 15  1  0  0  0  0
 18 19  1  0  0  0  0
 18 17  1  0  0  0  0
 19 21  2  0  0  0  0
 20 26  1  1  0  0  0
 20 24  1  0  0  0  0
 21 23  1  0  0  0  0
 21 20  1  0  0  0  0
 22 24  1  0  0  0  0
 22 28  1  0  0  0  0
 23 22  1  0  0  0  0
 24 25  1  6  0  0  0
 27 26  1  0  0  0  0
 28 29  1  0  0  0  0
 29 32  1  0  0  0  0
 30 29  1  0  0  0  0
 31 29  1  0  0  0  0
 34 38  1  6  0  0  0
 34 37  1  0  0  0  0
 34 36  1  0  0  0  0
 35 33  1  6  0  0  0
 35 34  1  0  0  0  0
 35 36  1  0  0  0  0
 39 43  1  0  0  0  0
 40 42  2  0  0  0  0
 40 41  1  0  0  0  0
 41 45  2  0  0  0  0
 42 43  1  0  0  0  0
 43 44  2  0  0  0  0
 45 44  1  0  0  0  0
 46 48  1  0  0  0  0
 47 50  1  0  0  0  0
 47 49  1  0  0  0  0
 47 46  1  0  0  0  0
 48 41  1  0  0  0  0
 49 48  1  0  0  0  0
 50 46  1  0  0  0  0
 50 52  1  0  0  0  0
 51 47  1  0  0  0  0
 52 53  2  0  0  0  0
 53 55  1  0  0  0  0
 54 61  1  0  0  0  0
 55 54  1  0  0  0  0
 56 54  2  0  0  0  0
 57 55  1  0  0  0  0
 57 58  1  0  0  0  0
 59 60  1  0  0  0  0
 59 57  1  0  0  0  0
 61 68  1  0  0  0  0
 61 62  1  0  0  0  0
 62 64  1  0  0  0  0
 62 63  2  0  0  0  0
 64 65  1  0  0  0  0
 66 64  1  0  0  0  0
 68 67  2  0  0  0  0
M  END
>  <MODEL>
4

>  <REMARK>
 VINA RESULT:      -3.5      2.168      4.274
  Name = 
  23 active torsions:
  status: ('A' for Active; 'I' for Inactive)
    1  A    between atoms: C_1  and  C_18
    2  A    between atoms: O_6  and  C_53
    3  A    between atoms: C_7  and  C_9
    4  A    between atoms: C_7  and  C_60
    5  A    between atoms: C_8  and  C_38
    6  A    between atoms: C_9  and  C_44
    7  A    between atoms: C_11  and  C_59
    8  A    between atoms: C_12  and  C_28
    9  A    between atoms: C_15  and  C_17
   10  A    between atoms: C_17  and  C_18
   11  A    between atoms: C_17  and  C_51
   12  A    between atoms: C_21  and  C_45
   13  A    between atoms: C_22  and  S_68
   14  A    between atoms: O_23  and  C_40
   15  A    between atoms: O_23  and  C_60
   16  A    between atoms: C_24  and  C_29
   17  A    between atoms: C_26  and  N_43
   18  A    between atoms: C_29  and  C_56
   19  A    between atoms: C_36  and  N_41
   20  A    between atoms: N_37  and  C_59
   21  A    between atoms: N_41  and  C_44
   22  A    between atoms: N_43  and  C_53
   23  A    between atoms: C_52  and  S_68
                            x       y       z     vdW  Elec       q    Type
                         _______ _______ _______ _____ _____    ______ ____

>  <TORSDO>
F 23

$$$$
=
 OpenBabel11042412323D

 68 74  0  0  1  0  0  0  0  0999 V2000
  185.8560  178.9290  140.4960 C   0  0  0  0  0  3  0  0  0  0  0  0
  187.3570  177.5600  145.3800 N   0  0  0  0  0  0  0  0  0  0  0  0
  183.8460  177.9210  143.3770 F   0  0  0  0  0  0  0  0  0  0  0  0
  188.8200  176.7990  143.5760 C   0  0  0  0  0  0  0  0  0  0  0  0
  184.7560  178.5560  141.2700 C   0  0  0  0  0  0  0  0  0  0  0  0
  186.3320  177.9100  144.6550 C   0  0  0  0  0  3  0  0  0  0  0  0
  187.3380  178.2930  142.3010 C   0  0  0  0  0  0  0  0  0  0  0  0
  187.1470  178.8190  141.0180 C   0  0  0  0  0  0  0  0  0  0  0  0
  188.6450  177.8480  142.6450 N   0  0  0  0  0  2  0  0  0  0  0  0
  188.7300  177.1870  145.0080 C   0  0  1  0  0  3  0  0  0  0  0  0
  188.3810  175.2720  143.1520 S   0  0  0  0  0  0  0  0  0  0  0  0
  184.9430  178.1940  142.6130 C   0  0  0  0  0  0  0  0  0  0  0  0
  186.2330  178.1120  143.1740 C   0  0  0  0  0  0  0  0  0  0  0  0
  183.4980  178.4740  140.6670 O   0  0  0  0  0  0  0  0  0  0  0  0
  182.7910  179.6170  140.2080 C   0  0  0  0  0  2  0  0  0  0  0  0
  181.8220  179.2400  139.1150 C   0  0  0  0  0  2  0  0  0  0  0  0
  182.5620  178.4560  138.0410 C   0  0  0  0  0  2  0  0  0  0  0  0
  182.0060  178.8240  136.6670 C   0  0  0  0  0  2  0  0  0  0  0  0
  181.6890  177.6260  135.8920 N   0  0  0  0  0  2  0  0  0  0  0  0
  183.2530  175.7710  136.1520 C   0  0  0  0  0  0  0  0  0  0  0  0
  182.0770  176.3280  136.3400 C   0  0  0  0  0  0  0  0  0  0  0  0
  181.7990  174.1950  137.1470 N   0  0  0  0  0  0  0  0  0  0  0  0
  181.2300  175.4410  136.9580 O   0  0  0  0  0  0  0  0  0  0  0  0
  183.1610  174.3420  136.5960 C   0  0  2  0  0  3  0  0  0  0  0  0
  184.1820  174.0580  137.6790 C   0  0  0  0  0  1  0  0  0  0  0  0
  184.3390  176.3520  135.3220 C   0  0  0  0  0  2  0  0  0  0  0  0
  185.3050  177.1260  136.1780 C   0  0  0  0  0  1  0  0  0  0  0  0
  181.0340  173.2740  136.2990 C   0  0  0  0  0  2  0  0  0  0  0  0
  180.2100  172.2550  137.1120 C   0  0  0  0  0  0  0  0  0  0  0  0
  179.6800  171.1950  136.1750 C   0  0  0  0  0  1  0  0  0  0  0  0
  179.0160  172.9250  137.7740 C   0  0  0  0  0  1  0  0  0  0  0  0
  180.9950  171.6600  138.1020 O   0  0  0  0  0  1  0  0  0  0  0  0
  189.7510  178.2920  145.3750 C   0  0  0  0  0  2  0  0  0  0  0  0
  191.2630  177.0320  146.9820 C   0  0  2  0  0  0  0  0  0  0  0  0
  190.2640  178.1170  146.8170 C   0  0  2  0  0  3  0  0  0  0  0  0
  189.5770  176.5150  147.4440 S   0  0  0  0  0  0  0  0  0  0  0  0
  192.0990  177.0510  148.1030 O   0  0  0  0  0  1  0  0  0  0  0  0
  191.7860  176.3620  145.7970 N   0  0  0  0  0  1  0  0  0  0  0  0
  188.5110  179.4340  140.0390 S   0  0  0  0  0  0  0  0  0  0  0  0
  189.7170  177.2960  136.8130 C   0  0  0  0  0  3  0  0  0  0  0  0
  189.4490  175.9860  137.1840 C   0  0  0  0  0  0  0  0  0  0  0  0
  189.2830  178.3530  137.6130 C   0  0  0  0  0  3  0  0  0  0  0  0
  188.5770  178.1180  138.8050 C   0  0  0  0  0  0  0  0  0  0  0  0
  188.2980  176.7990  139.1700 C   0  0  0  0  0  3  0  0  0  0  0  0
  188.7380  175.7350  138.3710 C   0  0  0  0  0  3  0  0  0  0  0  0
  190.0930  174.7050  135.1560 N   0  0  1  0  0  0  0  0  0  0  0  0
  189.7270  173.3340  135.5700 C   0  0  2  0  0  0  0  0  0  0  0  0
  190.2510  174.8810  136.5990 C   0  0  2  0  0  3  0  0  0  0  0  0
  189.7920  173.6120  136.9470 O   0  0  0  0  0  0  0  0  0  0  0  0
  190.8840  173.5590  134.6720 C   0  0  2  0  0  3  0  0  0  0  0  0
  188.4740  173.0080  135.0430 O   0  0  0  0  0  1  0  0  0  0  0  0
  192.2120  173.4850  135.3730 C   0  0  0  0  0  3  0  0  0  0  0  0
  192.7500  174.5740  135.9330 C   0  0  0  0  0  3  0  0  0  0  0  0
  195.1260  173.9280  135.7680 C   0  0  0  0  0  0  0  0  0  0  0  0
  194.0700  174.5900  136.4930 N   0  0  0  0  0  0  0  0  0  0  0  0
  195.3920  174.3170  134.5990 O   0  0  0  0  0  0  0  0  0  0  0  0
  194.3880  175.7700  137.3160 C   0  0  1  0  0  3  0  0  0  0  0  0
  194.4430  176.9580  136.5460 O   0  0  0  0  0  1  0  0  0  0  0  0
  193.5550  175.8420  138.4690 O   0  0  0  0  0  0  0  0  0  0  0  0
  194.0920  176.7630  139.3850 C   0  0  0  0  0  1  0  0  0  0  0  0
  196.0000  172.9320  136.4770 C   0  0  1  0  0  3  0  0  0  0  0  0
  196.0770  173.2340  137.9500 C   0  0  0  0  0  0  0  0  0  0  0  0
  195.3250  172.6730  138.7350 O   0  0  0  0  0  0  0  0  0  0  0  0
  197.0130  174.3100  138.4280 C   0  0  2  0  0  3  0  0  0  0  0  0
  198.4200  174.0370  137.9490 C   0  0  0  0  0  1  0  0  0  0  0  0
  197.0090  174.3980  139.8000 F   0  0  0  0  0  0  0  0  0  0  0  0
  195.8030  170.8930  135.0550 C   0  0  0  0  0  2  0  0  0  0  0  0
  195.6370  171.4830  136.2620 C   0  0  0  0  0  3  0  0  0  0  0  0
  1  8  2  0  0  0  0
  1  5  1  0  0  0  0
  4 10  1  0  0  0  0
  5 12  2  0  0  0  0
  6  2  2  0  0  0  0
  7  9  1  0  0  0  0
  7 13  2  0  0  0  0
  8  7  1  0  0  0  0
  9  4  1  0  0  0  0
 10 33  1  6  0  0  0
 10  2  1  0  0  0  0
 11  4  2  0  0  0  0
 12 13  1  0  0  0  0
 12  3  1  0  0  0  0
 13  6  1  0  0  0  0
 14  5  1  0  0  0  0
 15 14  1  0  0  0  0
 16 15  1  0  0  0  0
 17 16  1  0  0  0  0
 18 17  1  0  0  0  0
 19 21  1  0  0  0  0
 19 18  1  0  0  0  0
 20 21  2  0  0  0  0
 20 24  1  0  0  0  0
 21 23  1  0  0  0  0
 23 22  1  0  0  0  0
 24 22  1  0  0  0  0
 24 25  1  1  0  0  0
 26 20  1  0  0  0  0
 26 27  1  0  0  0  0
 28 29  1  0  0  0  0
 28 22  1  0  0  0  0
 29 31  1  0  0  0  0
 29 32  1  0  0  0  0
 30 29  1  0  0  0  0
 34 38  1  6  0  0  0
 34 36  1  0  0  0  0
 34 37  1  0  0  0  0
 35 33  1  6  0  0  0
 35 34  1  0  0  0  0
 35 36  1  0  0  0  0
 39  8  1  0  0  0  0
 40 41  2  0  0  0  0
 40 42  1  0  0  0  0
 41 45  1  0  0  0  0
 42 43  2  0  0  0  0
 43 44  1  0  0  0  0
 43 39  1  0  0  0  0
 45 44  2  0  0  0  0
 46 47  1  0  0  0  0
 46 48  1  0  0  0  0
 47 49  1  0  0  0  0
 48 49  1  0  0  0  0
 48 41  1  0  0  0  0
 50 46  1  0  0  0  0
 50 52  1  0  0  0  0
 50 47  1  0  0  0  0
 51 47  1  0  0  0  0
 52 53  2  0  0  0  0
 53 55  1  0  0  0  0
 54 61  1  0  0  0  0
 54 55  1  0  0  0  0
 55 57  1  0  0  0  0
 56 54  2  0  0  0  0
 57 59  1  0  0  0  0
 58 57  1  0  0  0  0
 59 60  1  0  0  0  0
 61 62  1  0  0  0  0
 62 64  1  0  0  0  0
 62 63  2  0  0  0  0
 64 66  1  0  0  0  0
 65 64  1  0  0  0  0
 67 68  2  0  0  0  0
 68 61  1  0  0  0  0
M  END
>  <MODEL>
5

>  <REMARK>
 VINA RESULT:      -3.1      3.141     10.065
  Name = 
  23 active torsions:
  status: ('A' for Active; 'I' for Inactive)
    1  A    between atoms: C_1  and  C_18
    2  A    between atoms: O_6  and  C_53
    3  A    between atoms: C_7  and  C_9
    4  A    between atoms: C_7  and  C_60
    5  A    between atoms: C_8  and  C_38
    6  A    between atoms: C_9  and  C_44
    7  A    between atoms: C_11  and  C_59
    8  A    between atoms: C_12  and  C_28
    9  A    between atoms: C_15  and  C_17
   10  A    between atoms: C_17  and  C_18
   11  A    between atoms: C_17  and  C_51
   12  A    between atoms: C_21  and  C_45
   13  A    between atoms: C_22  and  S_68
   14  A    between atoms: O_23  and  C_40
   15  A    between atoms: O_23  and  C_60
   16  A    between atoms: C_24  and  C_29
   17  A    between atoms: C_26  and  N_43
   18  A    between atoms: C_29  and  C_56
   19  A    between atoms: C_36  and  N_41
   20  A    between atoms: N_37  and  C_59
   21  A    between atoms: N_41  and  C_44
   22  A    between atoms: N_43  and  C_53
   23  A    between atoms: C_52  and  S_68
                            x       y       z     vdW  Elec       q    Type
                         _______ _______ _______ _____ _____    ______ ____

>  <TORSDO>
F 23

$$$$
