=
 OpenBabel11032420283D

 39 43  0  0  1  0  0  0  0  0999 V2000
  184.3160  179.1530  144.6430 C   0  0  0  0  0  0  0  0  0  0  0  0
  184.8430  178.9100  140.1910 C   0  0  0  0  0  0  0  0  0  0  0  0
  184.4070  179.0730  143.2740 C   0  0  0  0  0  0  0  0  0  0  0  0
  183.0060  178.8950  145.0230 C   0  0  0  0  0  3  0  0  0  0  0  0
  180.2470  177.9770  139.0980 N   0  0  0  0  0  0  0  0  0  0  0  0
  181.4290  178.2470  139.7090 C   0  0  0  0  0  0  0  0  0  0  0  0
  182.7040  178.4500  139.2470 C   0  0  0  0  0  3  0  0  0  0  0  0
  179.2540  177.8540  139.9860 N   0  0  0  0  0  0  0  0  0  0  0  0
  185.5480  179.2210  142.5780 N   0  0  0  0  0  0  0  0  0  0  0  0
  182.2540  178.6760  143.8750 C   0  0  0  0  0  3  0  0  0  0  0  0
  183.0920  178.7760  142.7740 C   0  0  0  0  0  0  0  0  0  0  0  0
  185.7490  179.1490  141.2410 C   0  0  0  0  0  3  0  0  0  0  0  0
  179.8650  178.0830  141.5380 S   0  0  0  0  0  0  0  0  0  0  0  0
  182.7070  178.6110  141.4530 C   0  0  0  0  0  0  0  0  0  0  0  0
  183.5020  178.6780  140.3380 N   0  0  0  0  0  0  0  0  0  0  0  0
  181.4280  178.3440  141.0350 C   0  0  0  0  0  0  0  0  0  0  0  0
  185.4650  179.3810  145.5750 C   0  0  0  0  0  2  0  0  0  0  0  0
  186.2160  178.0870  145.8740 C   0  0  2  0  0  3  0  0  0  0  0  0
  186.4170  177.9390  147.3740 C   0  0  0  0  0  2  0  0  0  0  0  0
  187.8960  177.9170  147.7060 C   0  0  0  0  0  1  0  0  0  0  0  0
  187.5090  178.0960  145.2030 N   0  0  0  0  0  2  0  0  0  0  0  0
  187.5490  176.9550  144.2940 C   0  0  0  0  0  2  0  0  0  0  0  0
  191.9650  178.9670  144.0880 O   0  0  0  0  0  1  0  0  0  0  0  0
  190.8950  178.3430  143.4440 C   0  0  2  0  0  3  0  0  0  0  0  0
  188.9570  176.7190  143.7600 C   0  0  2  0  0  3  0  0  0  0  0  0
  189.9820  177.6310  144.4530 C   0  0  1  0  0  3  0  0  0  0  0  0
  188.9890  176.8460  142.3020 N   0  0  0  0  0  2  0  0  0  0  0  0
  191.4080  177.3970  142.3560 C   0  0  0  0  0  2  0  0  0  0  0  0
  190.3170  176.4430  141.8470 C   0  0  0  0  0  2  0  0  0  0  0  0
  190.7380  176.8750  145.3530 O   0  0  0  0  0  1  0  0  0  0  0  0
  185.3490  178.8880  138.8730 O   0  0  0  0  0  0  0  0  0  0  0  0
  187.7180  178.3290  138.7620 N   0  0  0  0  0  2  0  0  0  0  0  0
  188.8760  177.6150  138.3190 C   0  0  0  0  0  0  0  0  0  0  0  0
  188.7580  176.5030  137.4270 N   0  0  0  0  0  2  0  0  0  0  0  0
  186.3690  178.0690  138.3610 C   0  0  0  0  0  0  0  0  0  0  0  0
  186.1120  177.1160  137.5760 O   0  0  0  0  0  0  0  0  0  0  0  0
  190.0120  177.9800  138.7230 O   0  0  0  0  0  0  0  0  0  0  0  0
  190.2760  174.7850  137.8580 O   0  0  0  0  0  1  0  0  0  0  0  0
  189.9110  175.7660  136.9360 C   0  0  0  0  0  2  0  0  0  0  0  0
  1  4  2  0  0  0  0
  1 17  1  0  0  0  0
  2 15  1  0  0  0  0
  2 12  2  0  0  0  0
  3  1  1  0  0  0  0
  5  6  1  0  0  0  0
  5  8  2  0  0  0  0
  6 16  1  0  0  0  0
  7  6  2  0  0  0  0
  7 15  1  0  0  0  0
  8 13  1  0  0  0  0
  9  3  2  0  0  0  0
 10  4  1  0  0  0  0
 11  3  1  0  0  0  0
 11 10  2  0  0  0  0
 12  9  1  0  0  0  0
 14 11  1  0  0  0  0
 15 14  1  0  0  0  0
 16 14  2  0  0  0  0
 16 13  1  0  0  0  0
 18 17  1  1  0  0  0
 18 19  1  0  0  0  0
 19 20  1  0  0  0  0
 21 18  1  0  0  0  0
 22 21  1  0  0  0  0
 24 23  1  1  0  0  0
 24 26  1  0  0  0  0
 25 22  1  1  0  0  0
 25 26  1  0  0  0  0
 26 30  1  1  0  0  0
 27 25  1  0  0  0  0
 28 24  1  0  0  0  0
 29 27  1  0  0  0  0
 29 28  1  0  0  0  0
 31  2  1  0  0  0  0
 33 37  2  0  0  0  0
 33 32  1  0  0  0  0
 34 33  1  0  0  0  0
 35 32  1  0  0  0  0
 35 31  1  0  0  0  0
 36 35  2  0  0  0  0
 39 34  1  0  0  0  0
 39 38  1  0  0  0  0
M  END
>  <MODEL>
1

>  <REMARK>
 VINA RESULT:      -9.2      0.000      0.000
  Name = 
  9 active torsions:
  status: ('A' for Active; 'I' for Inactive)
    1  A    between atoms: C_4  and  C_27
    2  A    between atoms: C_5  and  C_24
    3  A    between atoms: C_7  and  C_37
    4  A    between atoms: C_9  and  O_26
    5  A    between atoms: C_11  and  N_30
    6  A    between atoms: N_12  and  C_27
    7  A    between atoms: N_12  and  C_37
    8  A    between atoms: C_24  and  C_37
    9  A    between atoms: O_26  and  C_31
                            x       y       z     vdW  Elec       q    Type
                         _______ _______ _______ _____ _____    ______ ____

>  <TORSDO>
F 9

$$$$
=
 OpenBabel11032420283D

 39 43  0  0  1  0  0  0  0  0999 V2000
  184.4800  179.0830  144.6030 C   0  0  0  0  0  0  0  0  0  0  0  0
  184.5480  179.0470  140.1140 C   0  0  0  0  0  0  0  0  0  0  0  0
  184.4300  179.0680  143.2300 C   0  0  0  0  0  0  0  0  0  0  0  0
  183.2070  178.8470  145.1020 C   0  0  0  0  0  3  0  0  0  0  0  0
  179.8350  178.3150  139.4540 N   0  0  0  0  0  0  0  0  0  0  0  0
  181.0810  178.5160  139.9530 C   0  0  0  0  0  0  0  0  0  0  0  0
  182.3090  178.7020  139.3730 C   0  0  0  0  0  3  0  0  0  0  0  0
  178.9320  178.1780  140.4330 N   0  0  0  0  0  0  0  0  0  0  0  0
  185.5000  179.2150  142.4280 N   0  0  0  0  0  0  0  0  0  0  0  0
  182.3360  178.7090  144.0290 C   0  0  0  0  0  3  0  0  0  0  0  0
  183.0620  178.8390  142.8540 C   0  0  0  0  0  0  0  0  0  0  0  0
  185.5630  179.2050  141.0770 C   0  0  0  0  0  3  0  0  0  0  0  0
  179.7040  178.3100  141.9220 S   0  0  0  0  0  0  0  0  0  0  0  0
  182.5400  178.7520  141.5730 C   0  0  0  0  0  0  0  0  0  0  0  0
  183.2210  178.8500  140.3870 N   0  0  0  0  0  0  0  0  0  0  0  0
  181.2170  178.5460  141.2760 C   0  0  0  0  0  0  0  0  0  0  0  0
  185.7240  179.2270  145.4230 C   0  0  0  0  0  2  0  0  0  0  0  0
  186.4550  177.8970  145.5810 C   0  0  2  0  0  3  0  0  0  0  0  0
  186.4080  177.4500  147.0340 C   0  0  0  0  0  2  0  0  0  0  0  0
  187.7630  177.6400  147.6870 C   0  0  0  0  0  1  0  0  0  0  0  0
  187.8410  178.0360  145.1550 N   0  0  0  0  0  2  0  0  0  0  0  0
  188.0150  177.2510  143.9370 C   0  0  0  0  0  2  0  0  0  0  0  0
  190.4090  176.4890  139.7810 O   0  0  0  0  0  1  0  0  0  0  0  0
  190.4230  176.6340  141.1700 C   0  0  2  0  0  3  0  0  0  0  0  0
  189.2320  177.7160  143.1450 C   0  0  2  0  0  3  0  0  0  0  0  0
  189.1330  177.3010  141.6680 C   0  0  1  0  0  3  0  0  0  0  0  0
  190.4700  177.2550  143.7750 N   0  0  0  0  0  2  0  0  0  0  0  0
  191.6770  177.3920  141.6120 C   0  0  0  0  0  2  0  0  0  0  0  0
  191.5890  177.8730  143.0680 C   0  0  0  0  0  2  0  0  0  0  0  0
  188.8260  178.4220  140.8930 O   0  0  0  0  0  1  0  0  0  0  0  0
  184.9180  179.0750  138.7520 O   0  0  0  0  0  0  0  0  0  0  0  0
  187.1640  178.5960  137.9380 N   0  0  0  0  0  2  0  0  0  0  0  0
  188.1820  177.8470  137.2660 C   0  0  0  0  0  0  0  0  0  0  0  0
  187.8970  176.5660  136.6980 N   0  0  0  0  0  2  0  0  0  0  0  0
  185.7950  178.2040  138.0850 C   0  0  0  0  0  0  0  0  0  0  0  0
  185.3990  177.0950  137.6330 O   0  0  0  0  0  0  0  0  0  0  0  0
  189.3400  178.3330  137.1770 O   0  0  0  0  0  0  0  0  0  0  0  0
  189.6110  174.9940  136.8900 O   0  0  0  0  0  1  0  0  0  0  0  0
  188.8980  175.7840  135.9890 C   0  0  0  0  0  2  0  0  0  0  0  0
  1  4  2  0  0  0  0
  1 17  1  0  0  0  0
  2 15  1  0  0  0  0
  2 12  2  0  0  0  0
  3  1  1  0  0  0  0
  5  6  1  0  0  0  0
  5  8  2  0  0  0  0
  6 16  1  0  0  0  0
  7  6  2  0  0  0  0
  7 15  1  0  0  0  0
  8 13  1  0  0  0  0
  9  3  2  0  0  0  0
 10  4  1  0  0  0  0
 11  3  1  0  0  0  0
 11 10  2  0  0  0  0
 12  9  1  0  0  0  0
 14 11  1  0  0  0  0
 15 14  1  0  0  0  0
 16 14  2  0  0  0  0
 16 13  1  0  0  0  0
 18 17  1  1  0  0  0
 18 19  1  0  0  0  0
 19 20  1  0  0  0  0
 21 18  1  0  0  0  0
 22 21  1  0  0  0  0
 24 23  1  6  0  0  0
 24 28  1  0  0  0  0
 24 26  1  0  0  0  0
 25 27  1  0  0  0  0
 25 22  1  1  0  0  0
 26 30  1  6  0  0  0
 26 25  1  0  0  0  0
 28 29  1  0  0  0  0
 29 27  1  0  0  0  0
 31  2  1  0  0  0  0
 32 35  1  0  0  0  0
 33 32  1  0  0  0  0
 34 33  1  0  0  0  0
 35 31  1  0  0  0  0
 36 35  2  0  0  0  0
 37 33  2  0  0  0  0
 39 34  1  0  0  0  0
 39 38  1  0  0  0  0
M  END
>  <MODEL>
2

>  <REMARK>
 VINA RESULT:      -8.9      1.351      1.574
  Name = 
  9 active torsions:
  status: ('A' for Active; 'I' for Inactive)
    1  A    between atoms: C_4  and  C_27
    2  A    between atoms: C_5  and  C_24
    3  A    between atoms: C_7  and  C_37
    4  A    between atoms: C_9  and  O_26
    5  A    between atoms: C_11  and  N_30
    6  A    between atoms: N_12  and  C_27
    7  A    between atoms: N_12  and  C_37
    8  A    between atoms: C_24  and  C_37
    9  A    between atoms: O_26  and  C_31
                            x       y       z     vdW  Elec       q    Type
                         _______ _______ _______ _____ _____    ______ ____

>  <TORSDO>
F 9

$$$$
=
 OpenBabel11032420283D

 39 43  0  0  1  0  0  0  0  0999 V2000
  189.0090  178.0680  140.9330 C   0  0  0  0  0  0  0  0  0  0  0  0
  185.6980  178.3030  143.9550 C   0  0  0  0  0  0  0  0  0  0  0  0
  188.0430  178.1300  141.9090 C   0  0  0  0  0  0  0  0  0  0  0  0
  190.2120  177.6910  141.5130 C   0  0  0  0  0  3  0  0  0  0  0  0
  188.3430  177.1940  147.8230 N   0  0  0  0  0  0  0  0  0  0  0  0
  187.8800  177.4760  146.5780 C   0  0  0  0  0  0  0  0  0  0  0  0
  186.6440  177.8040  146.0850 C   0  0  0  0  0  3  0  0  0  0  0  0
  189.6530  176.9200  147.8080 N   0  0  0  0  0  0  0  0  0  0  0  0
  186.7490  178.4190  141.6820 N   0  0  0  0  0  0  0  0  0  0  0  0
  190.0090  177.5390  142.8790 C   0  0  0  0  0  3  0  0  0  0  0  0
  188.6760  177.8020  143.1580 C   0  0  0  0  0  0  0  0  0  0  0  0
  185.7240  178.4940  142.5610 C   0  0  0  0  0  3  0  0  0  0  0  0
  190.2240  177.0320  146.2290 S   0  0  0  0  0  0  0  0  0  0  0  0
  188.0900  177.7450  144.4120 C   0  0  0  0  0  0  0  0  0  0  0  0
  186.7760  177.9730  144.7310 N   0  0  0  0  0  0  0  0  0  0  0  0
  188.7520  177.4400  145.5750 C   0  0  0  0  0  0  0  0  0  0  0  0
  188.7750  178.2750  139.4690 C   0  0  0  0  0  2  0  0  0  0  0  0
  188.6250  176.9490  138.7280 C   0  0  2  0  0  3  0  0  0  0  0  0
  189.7860  176.7610  137.7630 C   0  0  0  0  0  2  0  0  0  0  0  0
  190.8340  175.8510  138.3730 C   0  0  0  0  0  1  0  0  0  0  0  0
  187.3670  176.9280  137.9930 N   0  0  0  0  0  2  0  0  0  0  0  0
  186.8490  178.2910  137.9540 C   0  0  0  0  0  2  0  0  0  0  0  0
  182.7800  178.4810  140.6000 O   0  0  0  0  0  1  0  0  0  0  0  0
  183.5280  177.8870  139.5800 C   0  0  2  0  0  3  0  0  0  0  0  0
  185.3300  178.3060  137.8290 C   0  0  2  0  0  3  0  0  0  0  0  0
  184.6640  178.8110  139.1190 C   0  0  1  0  0  3  0  0  0  0  0  0
  184.8290  176.9940  137.4160 N   0  0  0  0  0  2  0  0  0  0  0  0
  182.6130  177.4700  138.4260 C   0  0  0  0  0  2  0  0  0  0  0  0
  183.3980  177.1240  137.1520 C   0  0  0  0  0  2  0  0  0  0  0  0
  184.1920  180.1100  138.9170 O   0  0  0  0  0  1  0  0  0  0  0  0
  184.4590  178.4440  144.6190 O   0  0  0  0  0  0  0  0  0  0  0  0
  182.0750  178.2930  144.1420 N   0  0  0  0  0  2  0  0  0  0  0  0
  180.8040  178.7420  143.6600 C   0  0  0  0  0  0  0  0  0  0  0  0
  180.6400  180.0650  143.1420 N   0  0  0  0  0  2  0  0  0  0  0  0
  183.2900  179.0500  144.1310 C   0  0  0  0  0  0  0  0  0  0  0  0
  183.2960  180.2360  143.7010 O   0  0  0  0  0  0  0  0  0  0  0  0
  179.8240  177.9520  143.6940 O   0  0  0  0  0  0  0  0  0  0  0  0
  179.5800  181.2430  141.4300 O   0  0  0  0  0  1  0  0  0  0  0  0
  179.3720  180.5510  142.6230 C   0  0  0  0  0  2  0  0  0  0  0  0
  1  4  2  0  0  0  0
  1  3  1  0  0  0  0
  2 31  1  0  0  0  0
  2 15  1  0  0  0  0
  3 11  1  0  0  0  0
  4 10  1  0  0  0  0
  6  5  1  0  0  0  0
  7  6  2  0  0  0  0
  8  5  2  0  0  0  0
  9  3  2  0  0  0  0
  9 12  1  0  0  0  0
 10 11  2  0  0  0  0
 11 14  1  0  0  0  0
 12  2  2  0  0  0  0
 13  8  1  0  0  0  0
 14 15  1  0  0  0  0
 14 16  2  0  0  0  0
 15  7  1  0  0  0  0
 16 13  1  0  0  0  0
 16  6  1  0  0  0  0
 17  1  1  0  0  0  0
 18 19  1  6  0  0  0
 18 17  1  0  0  0  0
 19 20  1  0  0  0  0
 21 18  1  0  0  0  0
 22 21  1  0  0  0  0
 24 23  1  1  0  0  0
 25 22  1  1  0  0  0
 25 26  1  0  0  0  0
 26 30  1  6  0  0  0
 26 24  1  0  0  0  0
 27 25  1  0  0  0  0
 28 24  1  0  0  0  0
 29 27  1  0  0  0  0
 29 28  1  0  0  0  0
 33 37  2  0  0  0  0
 33 32  1  0  0  0  0
 34 33  1  0  0  0  0
 35 32  1  0  0  0  0
 35 31  1  0  0  0  0
 36 35  2  0  0  0  0
 38 39  1  0  0  0  0
 39 34  1  0  0  0  0
M  END
>  <MODEL>
3

>  <REMARK>
 VINA RESULT:      -8.6      3.459      8.502
  Name = 
  9 active torsions:
  status: ('A' for Active; 'I' for Inactive)
    1  A    between atoms: C_4  and  C_27
    2  A    between atoms: C_5  and  C_24
    3  A    between atoms: C_7  and  C_37
    4  A    between atoms: C_9  and  O_26
    5  A    between atoms: C_11  and  N_30
    6  A    between atoms: N_12  and  C_27
    7  A    between atoms: N_12  and  C_37
    8  A    between atoms: C_24  and  C_37
    9  A    between atoms: O_26  and  C_31
                            x       y       z     vdW  Elec       q    Type
                         _______ _______ _______ _____ _____    ______ ____

>  <TORSDO>
F 9

$$$$
=
 OpenBabel11032420283D

 39 43  0  0  1  0  0  0  0  0999 V2000
  185.5400  178.5370  138.9970 C   0  0  0  0  0  0  0  0  0  0  0  0
  189.7680  177.7430  140.2820 C   0  0  0  0  0  0  0  0  0  0  0  0
  186.8490  178.2730  139.3240 C   0  0  0  0  0  0  0  0  0  0  0  0
  185.2940  178.0690  137.7150 C   0  0  0  0  0  3  0  0  0  0  0  0
  191.2620  175.7060  136.1820 N   0  0  0  0  0  0  0  0  0  0  0  0
  190.5620  176.3090  137.1770 C   0  0  0  0  0  0  0  0  0  0  0  0
  190.8830  176.7040  138.4490 C   0  0  0  0  0  3  0  0  0  0  0  0
  190.5030  175.5110  135.0970 N   0  0  0  0  0  0  0  0  0  0  0  0
  187.4060  178.5520  140.5170 N   0  0  0  0  0  0  0  0  0  0  0  0
  186.4700  177.5250  137.2150 C   0  0  0  0  0  3  0  0  0  0  0  0
  187.4530  177.6330  138.1870 C   0  0  0  0  0  0  0  0  0  0  0  0
  188.6700  178.3240  140.9430 C   0  0  0  0  0  3  0  0  0  0  0  0
  188.9520  176.0960  135.3930 S   0  0  0  0  0  0  0  0  0  0  0  0
  188.7610  177.1940  138.0620 C   0  0  0  0  0  0  0  0  0  0  0  0
  189.7570  177.2580  139.0020 N   0  0  0  0  0  0  0  0  0  0  0  0
  189.2860  176.6020  136.9410 C   0  0  0  0  0  0  0  0  0  0  0  0
  184.5230  179.1410  139.9150 C   0  0  0  0  0  2  0  0  0  0  0  0
  183.8100  178.0780  140.7460 C   0  0  2  0  0  3  0  0  0  0  0  0
  182.5270  177.6510  140.0500 C   0  0  0  0  0  2  0  0  0  0  0  0
  181.7510  178.8680  139.5860 C   0  0  0  0  0  1  0  0  0  0  0  0
  183.5000  178.6050  142.0690 N   0  0  0  0  0  2  0  0  0  0  0  0
  184.7390  179.1070  142.6520 C   0  0  0  0  0  2  0  0  0  0  0  0
  185.6960  179.7170  147.3750 O   0  0  0  0  0  1  0  0  0  0  0  0
  186.0410  179.1700  146.1360 C   0  0  2  0  0  3  0  0  0  0  0  0
  185.1100  178.3380  143.9150 C   0  0  2  0  0  3  0  0  0  0  0  0
  184.8400  179.1700  145.1800 C   0  0  1  0  0  3  0  0  0  0  0  0
  186.4910  177.8580  143.8450 N   0  0  0  0  0  2  0  0  0  0  0  0
  186.6370  177.7730  146.3210 C   0  0  0  0  0  2  0  0  0  0  0  0
  186.7230  176.9930  145.0000 C   0  0  0  0  0  2  0  0  0  0  0  0
  183.6990  178.6800  145.8190 O   0  0  0  0  0  1  0  0  0  0  0  0
  190.9830  177.6300  140.9920 O   0  0  0  0  0  0  0  0  0  0  0  0
  191.5690  176.2430  142.9070 N   0  0  0  0  0  2  0  0  0  0  0  0
  191.7650  175.9350  144.2910 C   0  0  0  0  0  0  0  0  0  0  0  0
  191.5920  176.9360  145.2980 N   0  0  0  0  0  2  0  0  0  0  0  0
  191.1550  177.5080  142.3800 C   0  0  0  0  0  0  0  0  0  0  0  0
  190.9640  178.4860  143.1530 O   0  0  0  0  0  0  0  0  0  0  0  0
  192.0930  174.7640  144.6160 O   0  0  0  0  0  0  0  0  0  0  0  0
  190.5250  176.3640  147.2930 O   0  0  0  0  0  1  0  0  0  0  0  0
  191.7600  176.6590  146.7160 C   0  0  0  0  0  2  0  0  0  0  0  0
  1  3  1  0  0  0  0
  1 17  1  0  0  0  0
  2 12  2  0  0  0  0
  2 31  1  0  0  0  0
  3  9  2  0  0  0  0
  4  1  2  0  0  0  0
  5  6  1  0  0  0  0
  6  7  2  0  0  0  0
  7 15  1  0  0  0  0
  8 13  1  0  0  0  0
  8  5  2  0  0  0  0
  9 12  1  0  0  0  0
 10  4  1  0  0  0  0
 10 11  2  0  0  0  0
 11  3  1  0  0  0  0
 13 16  1  0  0  0  0
 14 11  1  0  0  0  0
 14 15  1  0  0  0  0
 15  2  1  0  0  0  0
 16  6  1  0  0  0  0
 16 14  2  0  0  0  0
 18 17  1  6  0  0  0
 18 21  1  0  0  0  0
 19 18  1  0  0  0  0
 20 19  1  0  0  0  0
 21 22  1  0  0  0  0
 24 28  1  0  0  0  0
 24 23  1  1  0  0  0
 25 22  1  6  0  0  0
 25 26  1  0  0  0  0
 26 30  1  1  0  0  0
 26 24  1  0  0  0  0
 27 25  1  0  0  0  0
 27 29  1  0  0  0  0
 29 28  1  0  0  0  0
 31 35  1  0  0  0  0
 32 33  1  0  0  0  0
 33 37  2  0  0  0  0
 33 34  1  0  0  0  0
 34 39  1  0  0  0  0
 35 32  1  0  0  0  0
 35 36  2  0  0  0  0
 39 38  1  0  0  0  0
M  END
>  <MODEL>
4

>  <REMARK>
 VINA RESULT:      -8.4      2.981      7.300
  Name = 
  9 active torsions:
  status: ('A' for Active; 'I' for Inactive)
    1  A    between atoms: C_4  and  C_27
    2  A    between atoms: C_5  and  C_24
    3  A    between atoms: C_7  and  C_37
    4  A    between atoms: C_9  and  O_26
    5  A    between atoms: C_11  and  N_30
    6  A    between atoms: N_12  and  C_27
    7  A    between atoms: N_12  and  C_37
    8  A    between atoms: C_24  and  C_37
    9  A    between atoms: O_26  and  C_31
                            x       y       z     vdW  Elec       q    Type
                         _______ _______ _______ _____ _____    ______ ____

>  <TORSDO>
F 9

$$$$
=
 OpenBabel11032420283D

 39 43  0  0  1  0  0  0  0  0999 V2000
  184.5810  178.8820  141.9310 C   0  0  0  0  0  0  0  0  0  0  0  0
  186.6230  177.8800  138.0610 C   0  0  0  0  0  0  0  0  0  0  0  0
  185.1420  178.5660  140.7170 C   0  0  0  0  0  0  0  0  0  0  0  0
  183.2140  178.6520  141.8680 C   0  0  0  0  0  3  0  0  0  0  0  0
  182.6730  176.6190  135.6130 N   0  0  0  0  0  0  0  0  0  0  0  0
  183.5750  177.0310  136.5410 C   0  0  0  0  0  0  0  0  0  0  0  0
  184.9350  177.1910  136.5250 C   0  0  0  0  0  3  0  0  0  0  0  0
  181.4280  176.6210  136.1050 N   0  0  0  0  0  0  0  0  0  0  0  0
  186.4590  178.6270  140.4490 N   0  0  0  0  0  0  0  0  0  0  0  0
  182.9040  178.2100  140.5890 C   0  0  0  0  0  3  0  0  0  0  0  0
  184.0760  178.1430  139.8500 C   0  0  0  0  0  0  0  0  0  0  0  0
  187.1120  178.3300  139.3020 C   0  0  0  0  0  3  0  0  0  0  0  0
  181.4660  177.1390  137.7060 S   0  0  0  0  0  0  0  0  0  0  0  0
  184.1730  177.7370  138.5290 C   0  0  0  0  0  0  0  0  0  0  0  0
  185.3090  177.6340  137.7680 N   0  0  0  0  0  0  0  0  0  0  0  0
  183.1130  177.3580  137.7440 C   0  0  0  0  0  0  0  0  0  0  0  0
  185.3380  179.3080  143.1510 C   0  0  0  0  0  2  0  0  0  0  0  0
  185.2940  178.2440  144.2430 C   0  0  2  0  0  3  0  0  0  0  0  0
  184.5030  178.7580  145.4360 C   0  0  0  0  0  2  0  0  0  0  0  0
  185.2750  178.5220  146.7190 C   0  0  0  0  0  1  0  0  0  0  0  0
  186.6480  177.9030  144.6610 N   0  0  0  0  0  2  0  0  0  0  0  0
  187.2230  177.0290  143.6450 C   0  0  0  0  0  2  0  0  0  0  0  0
  191.5590  179.1950  143.9630 O   0  0  0  0  0  1  0  0  0  0  0  0
  190.7620  178.1600  143.4660 C   0  0  2  0  0  3  0  0  0  0  0  0
  188.6940  176.7440  143.9240 C   0  0  2  0  0  3  0  0  0  0  0  0
  189.4610  178.0310  144.2700 C   0  0  1  0  0  3  0  0  0  0  0  0
  189.3030  176.0120  142.8120 N   0  0  0  0  0  2  0  0  0  0  0  0
  191.5550  176.8510  143.4300 C   0  0  0  0  0  2  0  0  0  0  0  0
  190.6530  175.6260  143.2160 C   0  0  0  0  0  2  0  0  0  0  0  0
  189.7230  178.0580  145.6420 O   0  0  0  0  0  1  0  0  0  0  0  0
  187.5570  177.6440  137.0290 O   0  0  0  0  0  0  0  0  0  0  0  0
  189.3570  176.0620  137.4690 N   0  0  0  0  0  2  0  0  0  0  0  0
  190.7100  175.6380  137.6640 C   0  0  0  0  0  0  0  0  0  0  0  0
  191.7970  176.5560  137.5150 N   0  0  0  0  0  2  0  0  0  0  0  0
  188.9330  177.3940  137.1590 C   0  0  0  0  0  0  0  0  0  0  0  0
  189.7840  178.3100  136.9980 O   0  0  0  0  0  0  0  0  0  0  0  0
  190.9360  174.4380  137.9730 O   0  0  0  0  0  0  0  0  0  0  0  0
  194.0270  177.0150  137.0060 O   0  0  0  0  0  1  0  0  0  0  0  0
  193.1830  176.1690  137.7250 C   0  0  0  0  0  2  0  0  0  0  0  0
  1 17  1  0  0  0  0
  2 12  2  0  0  0  0
  3  1  1  0  0  0  0
  4  1  2  0  0  0  0
  5  8  2  0  0  0  0
  5  6  1  0  0  0  0
  6 16  1  0  0  0  0
  7  6  2  0  0  0  0
  7 15  1  0  0  0  0
  8 13  1  0  0  0  0
  9  3  2  0  0  0  0
 10  4  1  0  0  0  0
 11 10  2  0  0  0  0
 11  3  1  0  0  0  0
 12  9  1  0  0  0  0
 13 16  1  0  0  0  0
 14 11  1  0  0  0  0
 15  2  1  0  0  0  0
 15 14  1  0  0  0  0
 16 14  2  0  0  0  0
 18 17  1  6  0  0  0
 18 21  1  0  0  0  0
 18 19  1  0  0  0  0
 19 20  1  0  0  0  0
 22 21  1  0  0  0  0
 24 23  1  1  0  0  0
 24 26  1  0  0  0  0
 25 22  1  6  0  0  0
 25 26  1  0  0  0  0
 26 30  1  1  0  0  0
 27 29  1  0  0  0  0
 27 25  1  0  0  0  0
 28 24  1  0  0  0  0
 29 28  1  0  0  0  0
 31 35  1  0  0  0  0
 31  2  1  0  0  0  0
 32 33  1  0  0  0  0
 33 37  2  0  0  0  0
 34 33  1  0  0  0  0
 34 39  1  0  0  0  0
 35 32  1  0  0  0  0
 36 35  2  0  0  0  0
 38 39  1  0  0  0  0
M  END
>  <MODEL>
5

>  <REMARK>
 VINA RESULT:      -8.3      2.009      2.929
  Name = 
  9 active torsions:
  status: ('A' for Active; 'I' for Inactive)
    1  A    between atoms: C_4  and  C_27
    2  A    between atoms: C_5  and  C_24
    3  A    between atoms: C_7  and  C_37
    4  A    between atoms: C_9  and  O_26
    5  A    between atoms: C_11  and  N_30
    6  A    between atoms: N_12  and  C_27
    7  A    between atoms: N_12  and  C_37
    8  A    between atoms: C_24  and  C_37
    9  A    between atoms: O_26  and  C_31
                            x       y       z     vdW  Elec       q    Type
                         _______ _______ _______ _____ _____    ______ ____

>  <TORSDO>
F 9

$$$$
=
 OpenBabel11032420283D

 39 43  0  0  1  0  0  0  0  0999 V2000
  190.5390  177.5040  140.7300 C   0  0  0  0  0  0  0  0  0  0  0  0
  187.0090  177.9820  143.4630 C   0  0  0  0  0  0  0  0  0  0  0  0
  189.5020  177.6430  141.6220 C   0  0  0  0  0  0  0  0  0  0  0  0
  191.6830  177.1370  141.4240 C   0  0  0  0  0  3  0  0  0  0  0  0
  189.3170  177.0450  147.5840 N   0  0  0  0  0  0  0  0  0  0  0  0
  188.9590  177.2640  146.2920 C   0  0  0  0  0  0  0  0  0  0  0  0
  187.7740  177.5880  145.6860 C   0  0  0  0  0  3  0  0  0  0  0  0
  190.6170  176.7440  147.6880 N   0  0  0  0  0  0  0  0  0  0  0  0
  188.2370  177.9440  141.2770 N   0  0  0  0  0  0  0  0  0  0  0  0
  191.3710  177.0690  142.7750 C   0  0  0  0  0  3  0  0  0  0  0  0
  190.0280  177.3750  142.9330 C   0  0  0  0  0  0  0  0  0  0  0  0
  187.1490  178.0910  142.0660 C   0  0  0  0  0  3  0  0  0  0  0  0
  191.3130  176.7530  146.1550 S   0  0  0  0  0  0  0  0  0  0  0  0
  189.3450  177.4030  144.1380 C   0  0  0  0  0  0  0  0  0  0  0  0
  188.0160  177.6750  144.3380 N   0  0  0  0  0  0  0  0  0  0  0  0
  189.9060  177.1520  145.3650 C   0  0  0  0  0  0  0  0  0  0  0  0
  190.4250  177.6300  139.2430 C   0  0  0  0  0  2  0  0  0  0  0  0
  190.5750  176.2800  138.5480 C   0  0  2  0  0  3  0  0  0  0  0  0
  191.6210  176.3780  137.4470 C   0  0  0  0  0  2  0  0  0  0  0  0
  193.0140  176.3800  138.0460 C   0  0  0  0  0  1  0  0  0  0  0  0
  189.2990  175.8680  137.9770 N   0  0  0  0  0  2  0  0  0  0  0  0
  189.1590  176.5190  136.6790 C   0  0  0  0  0  2  0  0  0  0  0  0
  185.6100  179.0000  138.8790 O   0  0  0  0  0  1  0  0  0  0  0  0
  186.0270  177.8830  138.1520 C   0  0  2  0  0  3  0  0  0  0  0  0
  187.7410  177.0360  136.4680 C   0  0  2  0  0  3  0  0  0  0  0  0
  187.3850  178.1350  137.4830 C   0  0  1  0  0  3  0  0  0  0  0  0
  186.7780  175.9340  136.4740 N   0  0  0  0  0  2  0  0  0  0  0  0
  184.9500  177.4730  137.1440 C   0  0  0  0  0  2  0  0  0  0  0  0
  185.4740  176.4770  136.0990 C   0  0  0  0  0  2  0  0  0  0  0  0
  187.3980  179.3770  136.8430 O   0  0  0  0  0  1  0  0  0  0  0  0
  185.7270  178.1860  144.0170 O   0  0  0  0  0  0  0  0  0  0  0  0
  183.3250  178.5900  144.0930 N   0  0  0  0  0  2  0  0  0  0  0  0
  182.0210  178.8360  143.5590 C   0  0  0  0  0  0  0  0  0  0  0  0
  181.8250  179.0170  142.1530 N   0  0  0  0  0  2  0  0  0  0  0  0
  184.5310  178.4560  143.3330 C   0  0  0  0  0  0  0  0  0  0  0  0
  184.5100  178.5920  142.0790 O   0  0  0  0  0  0  0  0  0  0  0  0
  181.0390  178.8910  144.3440 O   0  0  0  0  0  0  0  0  0  0  0  0
  180.0570  180.5210  141.9090 O   0  0  0  0  0  1  0  0  0  0  0  0
  180.5130  179.2470  141.5690 C   0  0  0  0  0  2  0  0  0  0  0  0
  1  4  2  0  0  0  0
  1  3  1  0  0  0  0
  2 31  1  0  0  0  0
  2 15  1  0  0  0  0
  3 11  1  0  0  0  0
  4 10  1  0  0  0  0
  5  8  2  0  0  0  0
  6  5  1  0  0  0  0
  7  6  2  0  0  0  0
  9  3  2  0  0  0  0
  9 12  1  0  0  0  0
 10 11  2  0  0  0  0
 11 14  1  0  0  0  0
 12  2  2  0  0  0  0
 13  8  1  0  0  0  0
 14 15  1  0  0  0  0
 14 16  2  0  0  0  0
 15  7  1  0  0  0  0
 16 13  1  0  0  0  0
 16  6  1  0  0  0  0
 17  1  1  0  0  0  0
 18 19  1  6  0  0  0
 18 17  1  0  0  0  0
 19 20  1  0  0  0  0
 21 18  1  0  0  0  0
 22 21  1  0  0  0  0
 24 23  1  6  0  0  0
 25 27  1  0  0  0  0
 25 22  1  1  0  0  0
 25 26  1  0  0  0  0
 26 30  1  6  0  0  0
 26 24  1  0  0  0  0
 28 24  1  0  0  0  0
 29 27  1  0  0  0  0
 29 28  1  0  0  0  0
 33 32  1  0  0  0  0
 33 37  2  0  0  0  0
 34 33  1  0  0  0  0
 35 31  1  0  0  0  0
 35 32  1  0  0  0  0
 36 35  2  0  0  0  0
 39 38  1  0  0  0  0
 39 34  1  0  0  0  0
M  END
>  <MODEL>
6

>  <REMARK>
 VINA RESULT:      -8.3      3.224      8.571
  Name = 
  9 active torsions:
  status: ('A' for Active; 'I' for Inactive)
    1  A    between atoms: C_4  and  C_27
    2  A    between atoms: C_5  and  C_24
    3  A    between atoms: C_7  and  C_37
    4  A    between atoms: C_9  and  O_26
    5  A    between atoms: C_11  and  N_30
    6  A    between atoms: N_12  and  C_27
    7  A    between atoms: N_12  and  C_37
    8  A    between atoms: C_24  and  C_37
    9  A    between atoms: O_26  and  C_31
                            x       y       z     vdW  Elec       q    Type
                         _______ _______ _______ _____ _____    ______ ____

>  <TORSDO>
F 9

$$$$
=
 OpenBabel11032420283D

 39 43  0  0  1  0  0  0  0  0999 V2000
  190.7820  178.0550  142.9550 C   0  0  0  0  0  0  0  0  0  0  0  0
  187.6040  178.2480  139.7900 C   0  0  0  0  0  0  0  0  0  0  0  0
  189.8520  178.0770  141.9430 C   0  0  0  0  0  0  0  0  0  0  0  0
  191.9650  177.5180  142.4670 C   0  0  0  0  0  3  0  0  0  0  0  0
  190.1640  176.2140  136.2540 N   0  0  0  0  0  0  0  0  0  0  0  0
  189.7110  176.7370  137.4220 C   0  0  0  0  0  0  0  0  0  0  0  0
  188.5190  177.2920  137.8070 C   0  0  0  0  0  3  0  0  0  0  0  0
  191.4280  175.7910  136.3630 N   0  0  0  0  0  0  0  0  0  0  0  0
  188.6100  178.5810  142.0620 N   0  0  0  0  0  0  0  0  0  0  0  0
  191.7700  177.1710  141.1360 C   0  0  0  0  0  3  0  0  0  0  0  0
  190.4730  177.5060  140.7790 C   0  0  0  0  0  0  0  0  0  0  0  0
  187.6290  178.6630  141.1340 C   0  0  0  0  0  3  0  0  0  0  0  0
  191.9750  176.0750  137.9300 S   0  0  0  0  0  0  0  0  0  0  0  0
  189.9090  177.3190  139.5270 C   0  0  0  0  0  0  0  0  0  0  0  0
  188.6430  177.6550  139.1230 N   0  0  0  0  0  0  0  0  0  0  0  0
  190.5500  176.7510  138.4540 C   0  0  0  0  0  0  0  0  0  0  0  0
  190.5800  178.6140  144.3290 C   0  0  0  0  0  2  0  0  0  0  0  0
  190.3470  177.5120  145.3590 C   0  0  2  0  0  3  0  0  0  0  0  0
  191.3000  176.3540  145.1030 C   0  0  0  0  0  2  0  0  0  0  0  0
  192.0550  176.0060  146.3710 C   0  0  0  0  0  1  0  0  0  0  0  0
  188.9700  177.0410  145.2820 N   0  0  0  0  0  2  0  0  0  0  0  0
  188.2120  177.7030  146.3380 C   0  0  0  0  0  2  0  0  0  0  0  0
  184.9060  179.5460  143.2940 O   0  0  0  0  0  1  0  0  0  0  0  0
  185.3230  179.2750  144.5990 C   0  0  2  0  0  3  0  0  0  0  0  0
  186.7180  177.7000  146.0360 C   0  0  2  0  0  3  0  0  0  0  0  0
  186.4300  178.2110  144.6150 C   0  0  1  0  0  3  0  0  0  0  0  0
  185.9780  178.4410  147.0590 N   0  0  0  0  0  2  0  0  0  0  0  0
  184.1260  178.8810  145.4670 C   0  0  0  0  0  2  0  0  0  0  0  0
  184.5520  178.2530  146.8030 C   0  0  0  0  0  2  0  0  0  0  0  0
  186.0890  177.1320  143.7960 O   0  0  0  0  0  1  0  0  0  0  0  0
  186.4220  178.4710  139.0500 O   0  0  0  0  0  0  0  0  0  0  0  0
  184.2240  177.5330  139.5210 N   0  0  0  0  0  2  0  0  0  0  0  0
  182.8620  177.5430  139.9590 C   0  0  0  0  0  0  0  0  0  0  0  0
  182.2800  178.7210  140.5250 N   0  0  0  0  0  2  0  0  0  0  0  0
  185.1210  178.6480  139.5480 C   0  0  0  0  0  0  0  0  0  0  0  0
  184.7450  179.7550  140.0220 O   0  0  0  0  0  0  0  0  0  0  0  0
  182.1730  176.4960  139.8390 O   0  0  0  0  0  0  0  0  0  0  0  0
  180.6480  179.9930  141.6040 O   0  0  0  0  0  1  0  0  0  0  0  0
  180.8950  178.7790  140.9630 C   0  0  0  0  0  2  0  0  0  0  0  0
  1 17  1  0  0  0  0
  2 12  2  0  0  0  0
  3  9  2  0  0  0  0
  3  1  1  0  0  0  0
  4  1  2  0  0  0  0
  5  8  2  0  0  0  0
  5  6  1  0  0  0  0
  6  7  2  0  0  0  0
  6 16  1  0  0  0  0
  7 15  1  0  0  0  0
  8 13  1  0  0  0  0
 10  4  1  0  0  0  0
 11 10  2  0  0  0  0
 11  3  1  0  0  0  0
 12  9  1  0  0  0  0
 13 16  1  0  0  0  0
 14 11  1  0  0  0  0
 15 14  1  0  0  0  0
 15  2  1  0  0  0  0
 16 14  2  0  0  0  0
 18 17  1  6  0  0  0
 19 18  1  0  0  0  0
 19 20  1  0  0  0  0
 21 18  1  0  0  0  0
 21 22  1  0  0  0  0
 24 23  1  6  0  0  0
 24 26  1  0  0  0  0
 24 28  1  0  0  0  0
 25 22  1  1  0  0  0
 25 27  1  0  0  0  0
 26 30  1  6  0  0  0
 26 25  1  0  0  0  0
 28 29  1  0  0  0  0
 29 27  1  0  0  0  0
 31 35  1  0  0  0  0
 31  2  1  0  0  0  0
 32 35  1  0  0  0  0
 32 33  1  0  0  0  0
 33 34  1  0  0  0  0
 34 39  1  0  0  0  0
 35 36  2  0  0  0  0
 37 33  2  0  0  0  0
 39 38  1  0  0  0  0
M  END
>  <MODEL>
7

>  <REMARK>
 VINA RESULT:      -8.2      3.068      7.007
  Name = 
  9 active torsions:
  status: ('A' for Active; 'I' for Inactive)
    1  A    between atoms: C_4  and  C_27
    2  A    between atoms: C_5  and  C_24
    3  A    between atoms: C_7  and  C_37
    4  A    between atoms: C_9  and  O_26
    5  A    between atoms: C_11  and  N_30
    6  A    between atoms: N_12  and  C_27
    7  A    between atoms: N_12  and  C_37
    8  A    between atoms: C_24  and  C_37
    9  A    between atoms: O_26  and  C_31
                            x       y       z     vdW  Elec       q    Type
                         _______ _______ _______ _____ _____    ______ ____

>  <TORSDO>
F 9

$$$$
=
 OpenBabel11032420283D

 39 43  0  0  1  0  0  0  0  0999 V2000
  183.5570  178.7090  143.5870 C   0  0  0  0  0  0  0  0  0  0  0  0
  187.7930  177.9600  142.3030 C   0  0  0  0  0  0  0  0  0  0  0  0
  184.8700  178.4660  143.2620 C   0  0  0  0  0  0  0  0  0  0  0  0
  183.4320  178.7290  144.9690 C   0  0  0  0  0  3  0  0  0  0  0  0
  189.6700  177.4570  146.7090 N   0  0  0  0  0  0  0  0  0  0  0  0
  188.8650  177.6400  145.6310 C   0  0  0  0  0  0  0  0  0  0  0  0
  189.0880  177.6430  144.2790 C   0  0  0  0  0  3  0  0  0  0  0  0
  188.9840  177.5540  147.8540 N   0  0  0  0  0  0  0  0  0  0  0  0
  185.3480  178.4300  142.0050 N   0  0  0  0  0  0  0  0  0  0  0  0
  184.6790  178.4700  145.5240 C   0  0  0  0  0  3  0  0  0  0  0  0
  185.5930  178.3040  144.4940 C   0  0  0  0  0  0  0  0  0  0  0  0
  186.6140  178.2140  141.5780 C   0  0  0  0  0  3  0  0  0  0  0  0
  187.3680  177.8710  147.5070 S   0  0  0  0  0  0  0  0  0  0  0  0
  186.9440  178.0390  144.6520 C   0  0  0  0  0  0  0  0  0  0  0  0
  187.8860  177.8910  143.6670 N   0  0  0  0  0  0  0  0  0  0  0  0
  187.5770  177.8780  145.8590 C   0  0  0  0  0  0  0  0  0  0  0  0
  182.4630  179.0020  142.6090 C   0  0  0  0  0  2  0  0  0  0  0  0
  181.1860  179.4580  143.3090 C   0  0  2  0  0  3  0  0  0  0  0  0
  180.3320  178.2520  143.6680 C   0  0  0  0  0  2  0  0  0  0  0  0
  179.3060  178.6280  144.7180 C   0  0  0  0  0  1  0  0  0  0  0  0
  180.4320  180.3520  142.4390 N   0  0  0  0  0  2  0  0  0  0  0  0
  179.6410  179.5300  141.5300 C   0  0  0  0  0  2  0  0  0  0  0  0
  182.6820  178.5950  137.8600 O   0  0  0  0  0  1  0  0  0  0  0  0
  182.0020  179.5200  138.6550 C   0  0  2  0  0  3  0  0  0  0  0  0
  179.9180  179.8870  140.0740 C   0  0  2  0  0  3  0  0  0  0  0  0
  180.8420  178.8540  139.4080 C   0  0  1  0  0  3  0  0  0  0  0  0
  180.4310  181.2530  139.9620 N   0  0  0  0  0  2  0  0  0  0  0  0
  181.5400  180.7090  137.8090 C   0  0  0  0  0  2  0  0  0  0  0  0
  180.5110  181.5840  138.5410 C   0  0  0  0  0  2  0  0  0  0  0  0
  180.0900  178.0510  138.5460 O   0  0  0  0  0  1  0  0  0  0  0  0
  188.9900  177.7760  141.5760 O   0  0  0  0  0  0  0  0  0  0  0  0
  188.9300  178.7120  139.3270 N   0  0  0  0  0  2  0  0  0  0  0  0
  189.0060  178.6940  137.8980 C   0  0  0  0  0  0  0  0  0  0  0  0
  189.3460  177.4960  137.1950 N   0  0  0  0  0  2  0  0  0  0  0  0
  189.1300  177.5890  140.1910 C   0  0  0  0  0  0  0  0  0  0  0  0
  189.4370  176.4640  139.7100 O   0  0  0  0  0  0  0  0  0  0  0  0
  188.7660  179.7520  137.2600 O   0  0  0  0  0  0  0  0  0  0  0  0
  188.3050  176.7440  135.2470 O   0  0  0  0  0  1  0  0  0  0  0  0
  189.4130  177.4310  135.7440 C   0  0  0  0  0  2  0  0  0  0  0  0
  1  4  2  0  0  0  0
  2 15  1  0  0  0  0
  3  1  1  0  0  0  0
  3 11  1  0  0  0  0
  4 10  1  0  0  0  0
  5  8  2  0  0  0  0
  6 16  1  0  0  0  0
  6  5  1  0  0  0  0
  7  6  2  0  0  0  0
  9  3  2  0  0  0  0
 11 14  1  0  0  0  0
 11 10  2  0  0  0  0
 12  9  1  0  0  0  0
 12  2  2  0  0  0  0
 13  8  1  0  0  0  0
 14 16  2  0  0  0  0
 15  7  1  0  0  0  0
 15 14  1  0  0  0  0
 16 13  1  0  0  0  0
 17  1  1  0  0  0  0
 18 17  1  6  0  0  0
 18 19  1  0  0  0  0
 19 20  1  0  0  0  0
 21 18  1  0  0  0  0
 22 21  1  0  0  0  0
 24 23  1  6  0  0  0
 24 26  1  0  0  0  0
 25 22  1  1  0  0  0
 26 30  1  6  0  0  0
 26 25  1  0  0  0  0
 27 25  1  0  0  0  0
 28 29  1  0  0  0  0
 28 24  1  0  0  0  0
 29 27  1  0  0  0  0
 31  2  1  0  0  0  0
 32 35  1  0  0  0  0
 33 32  1  0  0  0  0
 34 33  1  0  0  0  0
 35 31  1  0  0  0  0
 36 35  2  0  0  0  0
 37 33  2  0  0  0  0
 38 39  1  0  0  0  0
 39 34  1  0  0  0  0
M  END
>  <MODEL>
8

>  <REMARK>
 VINA RESULT:      -8.2      2.711      7.307
  Name = 
  9 active torsions:
  status: ('A' for Active; 'I' for Inactive)
    1  A    between atoms: C_4  and  C_27
    2  A    between atoms: C_5  and  C_24
    3  A    between atoms: C_7  and  C_37
    4  A    between atoms: C_9  and  O_26
    5  A    between atoms: C_11  and  N_30
    6  A    between atoms: N_12  and  C_27
    7  A    between atoms: N_12  and  C_37
    8  A    between atoms: C_24  and  C_37
    9  A    between atoms: O_26  and  C_31
                            x       y       z     vdW  Elec       q    Type
                         _______ _______ _______ _____ _____    ______ ____

>  <TORSDO>
F 9

$$$$
=
 OpenBabel11032420283D

 39 43  0  0  1  0  0  0  0  0999 V2000
  183.9920  178.5090  143.7710 C   0  0  0  0  0  0  0  0  0  0  0  0
  188.3930  177.9420  143.0880 C   0  0  0  0  0  0  0  0  0  0  0  0
  185.3470  178.3280  143.6320 C   0  0  0  0  0  0  0  0  0  0  0  0
  183.6880  178.6120  145.1210 C   0  0  0  0  0  3  0  0  0  0  0  0
  189.7050  177.8450  147.7210 N   0  0  0  0  0  0  0  0  0  0  0  0
  189.0390  177.9070  146.5390 C   0  0  0  0  0  0  0  0  0  0  0  0
  189.4350  177.8350  145.2290 C   0  0  0  0  0  3  0  0  0  0  0  0
  188.8720  177.9730  148.7600 N   0  0  0  0  0  0  0  0  0  0  0  0
  185.9860  178.2390  142.4510 N   0  0  0  0  0  0  0  0  0  0  0  0
  184.8640  178.4670  145.8460 C   0  0  0  0  0  3  0  0  0  0  0  0
  185.9110  178.2910  144.9540 C   0  0  0  0  0  0  0  0  0  0  0  0
  187.3060  178.0750  142.2040 C   0  0  0  0  0  3  0  0  0  0  0  0
  187.3000  178.1660  148.1910 S   0  0  0  0  0  0  0  0  0  0  0  0
  187.2430  178.1210  145.3000 C   0  0  0  0  0  0  0  0  0  0  0  0
  188.3110  177.9680  144.4550 N   0  0  0  0  0  0  0  0  0  0  0  0
  187.7210  178.0790  146.5850 C   0  0  0  0  0  0  0  0  0  0  0  0
  183.0200  178.6700  142.6440 C   0  0  0  0  0  2  0  0  0  0  0  0
  181.7310  179.3470  143.1020 C   0  0  2  0  0  3  0  0  0  0  0  0
  181.0200  178.4720  144.1230 C   0  0  0  0  0  2  0  0  0  0  0  0
  179.5200  178.6780  144.0360 C   0  0  0  0  0  1  0  0  0  0  0  0
  180.8570  179.5790  141.9590 N   0  0  0  0  0  2  0  0  0  0  0  0
  181.4100  178.8560  140.8190 C   0  0  0  0  0  2  0  0  0  0  0  0
  179.6790  174.3990  139.9690 O   0  0  0  0  0  1  0  0  0  0  0  0
  180.1070  175.6370  139.4860 C   0  0  2  0  0  3  0  0  0  0  0  0
  180.3240  178.1120  140.0510 C   0  0  2  0  0  3  0  0  0  0  0  0
  180.1190  176.6910  140.6020 C   0  0  1  0  0  3  0  0  0  0  0  0
  180.6030  178.1220  138.6150 N   0  0  0  0  0  2  0  0  0  0  0  0
  179.2510  176.0660  138.2910 C   0  0  0  0  0  2  0  0  0  0  0  0
  179.4460  177.5460  137.9310 C   0  0  0  0  0  2  0  0  0  0  0  0
  178.9310  176.6480  141.3350 O   0  0  0  0  0  1  0  0  0  0  0  0
  189.6810  177.7860  142.5330 O   0  0  0  0  0  0  0  0  0  0  0  0
  189.9020  177.5970  140.1140 N   0  0  0  0  0  2  0  0  0  0  0  0
  190.1960  176.9500  138.8720 C   0  0  0  0  0  0  0  0  0  0  0  0
  190.7230  175.6200  138.8420 N   0  0  0  0  0  2  0  0  0  0  0  0
  190.0450  177.0170  141.4150 C   0  0  0  0  0  0  0  0  0  0  0  0
  190.4990  175.8480  141.5440 O   0  0  0  0  0  0  0  0  0  0  0  0
  189.9840  177.5680  137.7960 O   0  0  0  0  0  0  0  0  0  0  0  0
  190.1600  173.8280  137.4580 O   0  0  0  0  0  1  0  0  0  0  0  0
  191.0150  174.9210  137.6010 C   0  0  0  0  0  2  0  0  0  0  0  0
  1  4  2  0  0  0  0
  2 15  1  0  0  0  0
  3  1  1  0  0  0  0
  3 11  1  0  0  0  0
  4 10  1  0  0  0  0
  5  8  2  0  0  0  0
  6 16  1  0  0  0  0
  6  5  1  0  0  0  0
  7  6  2  0  0  0  0
  9  3  2  0  0  0  0
 11 14  1  0  0  0  0
 11 10  2  0  0  0  0
 12  9  1  0  0  0  0
 12  2  2  0  0  0  0
 13  8  1  0  0  0  0
 14 16  2  0  0  0  0
 15  7  1  0  0  0  0
 15 14  1  0  0  0  0
 16 13  1  0  0  0  0
 17  1  1  0  0  0  0
 18 17  1  6  0  0  0
 18 19  1  0  0  0  0
 20 19  1  0  0  0  0
 21 18  1  0  0  0  0
 22 21  1  0  0  0  0
 24 23  1  1  0  0  0
 24 26  1  0  0  0  0
 25 26  1  0  0  0  0
 25 22  1  1  0  0  0
 26 30  1  6  0  0  0
 27 25  1  0  0  0  0
 28 24  1  0  0  0  0
 29 28  1  0  0  0  0
 29 27  1  0  0  0  0
 31  2  1  0  0  0  0
 32 35  1  0  0  0  0
 33 32  1  0  0  0  0
 34 33  1  0  0  0  0
 35 36  2  0  0  0  0
 35 31  1  0  0  0  0
 37 33  2  0  0  0  0
 38 39  1  0  0  0  0
 39 34  1  0  0  0  0
M  END
>  <MODEL>
9

>  <REMARK>
 VINA RESULT:      -8.1      2.988      7.658
  Name = 
  9 active torsions:
  status: ('A' for Active; 'I' for Inactive)
    1  A    between atoms: C_4  and  C_27
    2  A    between atoms: C_5  and  C_24
    3  A    between atoms: C_7  and  C_37
    4  A    between atoms: C_9  and  O_26
    5  A    between atoms: C_11  and  N_30
    6  A    between atoms: N_12  and  C_27
    7  A    between atoms: N_12  and  C_37
    8  A    between atoms: C_24  and  C_37
    9  A    between atoms: O_26  and  C_31
                            x       y       z     vdW  Elec       q    Type
                         _______ _______ _______ _____ _____    ______ ____

>  <TORSDO>
F 9

$$$$
