=
 OpenBabel11032421213D

 58 61  0  0  1  0  0  0  0  0999 V2000
  189.7130  177.7880  142.7470 C   0  0  2  0  0  3  0  0  0  0  0  0
  191.1700  178.2080  142.7040 C   0  0  0  0  0  2  0  0  0  0  0  0
  192.0020  177.1700  141.9750 C   0  0  0  0  0  2  0  0  0  0  0  0
  192.5160  177.7690  140.6840 C   0  0  0  0  0  2  0  0  0  0  0  0
  193.5020  176.8180  140.0350 C   0  0  0  0  0  2  0  0  0  0  0  0
  193.0670  176.5440  138.6100 C   0  0  0  0  0  2  0  0  0  0  0  0
  194.1940  176.4070  137.7950 O   0  0  0  0  0  0  0  0  0  0  0  0
  198.0220  173.4800  136.9550 O   0  0  0  0  0  0  0  0  0  0  0  0
  196.9940  172.8460  136.7700 C   0  0  0  0  0  0  0  0  0  0  0  0
  195.8240  171.2760  135.3890 O   0  0  0  0  0  1  0  0  0  0  0  0
  196.1340  172.4720  137.9440 C   0  0  0  0  0  2  0  0  0  0  0  0
  196.2300  174.7650  138.8010 O   0  0  0  0  0  1  0  0  0  0  0  0
  193.9700  175.2360  137.0590 C   0  0  2  0  0  3  0  0  0  0  0  0
  194.0510  173.9840  137.9540 C   0  0  0  0  0  2  0  0  0  0  0  0
  196.1420  175.6080  136.0850 O   0  0  0  0  0  1  0  0  0  0  0  0
  194.7540  173.8900  135.2240 O   0  0  0  0  0  0  0  0  0  0  0  0
  195.9610  173.5380  134.5980 C   0  0  0  0  0  2  0  0  0  0  0  0
  194.8350  175.1850  135.7950 C   0  0  1  0  0  3  0  0  0  0  0  0
  196.6410  172.4090  135.3730 C   0  0  1  0  0  3  0  0  0  0  0  0
  195.4060  173.6520  138.6020 C   0  0  1  0  0  3  0  0  0  0  0  0
  189.3800  177.3440  144.0960 N   0  0  0  0  0  2  0  0  0  0  0  0
  185.6720  178.4390  146.4650 C   0  0  0  0  0  3  0  0  0  0  0  0
  185.4750  178.9760  145.0850 C   0  0  1  0  0  3  0  0  0  0  0  0
  186.8440  177.9750  146.9000 C   0  0  0  0  0  3  0  0  0  0  0  0
  188.0830  177.8620  146.0990 C   0  0  0  0  0  0  0  0  0  0  0  0
  188.1280  177.5520  144.7740 C   0  0  0  0  0  0  0  0  0  0  0  0
  189.2360  177.9870  146.8120 F   0  0  0  0  0  0  0  0  0  0  0  0
  185.7360  177.9100  144.0760 C   0  0  0  0  0  3  0  0  0  0  0  0
  186.9230  177.3170  143.9420 C   0  0  0  0  0  3  0  0  0  0  0  0
  184.0470  179.4690  144.9280 C   0  0  0  0  0  2  0  0  0  0  0  0
  182.5210  179.1830  143.1400 N   0  0  0  0  0  0  0  0  0  0  0  0
  183.3320  178.6480  143.9650 N   0  0  0  0  0  0  0  0  0  0  0  0
  181.8090  178.4360  142.2150 O   0  0  0  0  0  0  0  0  0  0  0  0
  180.4040  178.6020  141.9570 C   0  0  2  0  0  0  0  0  0  0  0  0
  180.1700  179.8590  141.1090 C   0  0  0  0  0  1  0  0  0  0  0  0
  179.6220  177.6850  144.1650 O   0  0  0  0  0  1  0  0  0  0  0  0
  179.0930  179.8290  143.5550 O   0  0  0  0  0  0  0  0  0  0  0  0
  179.6550  178.7380  143.2570 C   0  0  0  0  0  0  0  0  0  0  0  0
  179.8890  177.4630  141.2930 O   0  0  0  0  0  0  0  0  0  0  0  0
  179.8160  177.7170  139.9120 C   0  0  0  0  0  2  0  0  0  0  0  0
  180.6370  176.7180  139.1740 C   0  0  0  0  0  0  0  0  0  0  0  0
  181.6060  176.1520  139.7480 O   0  0  0  0  0  1  0  0  0  0  0  0
  180.3650  176.4440  137.8400 O   0  0  0  0  0  0  0  0  0  0  0  0
  189.4680  176.6630  141.7460 C   0  0  0  0  0  2  0  0  0  0  0  0
  187.9650  178.1190  137.9980 C   0  0  0  0  0  0  0  0  0  0  0  0
  189.1420  177.3610  138.0410 C   0  0  0  0  0  3  0  0  0  0  0  0
  189.6360  176.8970  139.2630 C   0  0  0  0  0  3  0  0  0  0  0  0
  188.9580  177.2000  140.4500 C   0  0  0  0  0  0  0  0  0  0  0  0
  187.2870  178.4260  139.1860 C   0  0  0  0  0  3  0  0  0  0  0  0
  187.7810  177.9620  140.4090 C   0  0  0  0  0  3  0  0  0  0  0  0
  187.4550  178.6180  136.6910 C   0  0  0  0  0  2  0  0  0  0  0  0
  187.1890  177.4530  135.7550 C   0  0  0  0  0  2  0  0  0  0  0  0
  186.1310  176.5730  136.3210 C   0  0  0  0  0  0  0  0  0  0  0  0
  184.8310  177.0640  136.4830 C   0  0  0  0  0  3  0  0  0  0  0  0
  186.4250  175.2500  136.6670 C   0  0  0  0  0  3  0  0  0  0  0  0
  184.1250  174.9190  137.3490 C   0  0  0  0  0  3  0  0  0  0  0  0
  183.8290  176.2380  136.9990 C   0  0  0  0  0  3  0  0  0  0  0  0
  185.4220  174.4240  137.1830 C   0  0  0  0  0  3  0  0  0  0  0  0
  1 44  1  6  0  0  0
  1 21  1  0  0  0  0
  2  1  1  0  0  0  0
  3  2  1  0  0  0  0
  4  3  1  0  0  0  0
  5  4  1  0  0  0  0
  6  5  1  0  0  0  0
  7  6  1  0  0  0  0
  9  8  2  0  0  0  0
  9 11  1  0  0  0  0
 11 20  1  0  0  0  0
 13  7  1  1  0  0  0
 13 14  1  0  0  0  0
 14 20  1  0  0  0  0
 16 18  1  0  0  0  0
 17 16  1  0  0  0  0
 17 19  1  0  0  0  0
 18 15  1  1  0  0  0
 18 13  1  0  0  0  0
 19 10  1  1  0  0  0
 19  9  1  0  0  0  0
 20 12  1  6  0  0  0
 21 26  1  0  0  0  0
 22 24  2  0  0  0  0
 23 30  1  1  0  0  0
 23 22  1  0  0  0  0
 25 27  1  0  0  0  0
 25 24  1  0  0  0  0
 26 25  2  0  0  0  0
 28 23  1  0  0  0  0
 29 28  2  0  0  0  0
 29 26  1  0  0  0  0
 31 32  2  0  0  0  0
 32 30  1  0  0  0  0
 33 31  1  0  0  0  0
 34 35  1  6  0  0  0
 34 33  1  0  0  0  0
 34 38  1  0  0  0  0
 38 37  2  0  0  0  0
 38 36  1  0  0  0  0
 39 34  1  0  0  0  0
 40 39  1  0  0  0  0
 41 42  1  0  0  0  0
 41 40  1  0  0  0  0
 43 41  2  0  0  0  0
 45 46  2  0  0  0  0
 45 49  1  0  0  0  0
 46 47  1  0  0  0  0
 47 48  2  0  0  0  0
 48 44  1  0  0  0  0
 49 50  2  0  0  0  0
 50 48  1  0  0  0  0
 51 45  1  0  0  0  0
 52 53  1  0  0  0  0
 52 51  1  0  0  0  0
 53 54  2  0  0  0  0
 53 55  1  0  0  0  0
 54 57  1  0  0  0  0
 55 58  2  0  0  0  0
 57 56  2  0  0  0  0
 58 56  1  0  0  0  0
M  END
>  <MODEL>
1

>  <REMARK>
 VINA RESULT:      -7.2      0.000      0.000
  Name = 
  22 active torsions:
  status: ('A' for Active; 'I' for Inactive)
    1  A    between atoms: C_3  and  C_5
    2  A    between atoms: C_3  and  C_27
    3  A    between atoms: C_4  and  C_5
    4  A    between atoms: C_4  and  C_40
    5  A    between atoms: C_6  and  C_32
    6  A    between atoms: N_7  and  O_10
    7  A    between atoms: C_8  and  O_10
    8  A    between atoms: C_8  and  O_37
    9  A    between atoms: C_8  and  C_43
   10  A    between atoms: C_12  and  C_24
   11  A    between atoms: C_13  and  O_37
   12  A    between atoms: C_13  and  C_39
   13  A    between atoms: C_15  and  C_17
   14  A    between atoms: C_17  and  C_24
   15  A    between atoms: C_25  and  C_33
   16  A    between atoms: C_25  and  C_54
   17  A    between atoms: N_26  and  C_41
   18  A    between atoms: N_26  and  C_54
   19  A    between atoms: C_27  and  O_56
   20  A    between atoms: C_28  and  O_56
   21  A    between atoms: N_31  and  C_32
   22  A    between atoms: C_40  and  C_54
                            x       y       z     vdW  Elec       q    Type
                         _______ _______ _______ _____ _____    ______ ____

>  <TORSDO>
F 22

$$$$
=
 OpenBabel11032421213D

 58 61  0  0  1  0  0  0  0  0999 V2000
  184.0920  178.5820  143.1080 C   0  0  2  0  0  3  0  0  0  0  0  0
  183.0140  179.4350  143.7480 C   0  0  0  0  0  2  0  0  0  0  0  0
  181.8130  178.5850  144.1170 C   0  0  0  0  0  2  0  0  0  0  0  0
  180.5630  179.2310  143.5580 C   0  0  0  0  0  2  0  0  0  0  0  0
  180.6630  179.3160  142.0470 C   0  0  0  0  0  2  0  0  0  0  0  0
  179.4370  178.6760  141.4290 C   0  0  0  0  0  2  0  0  0  0  0  0
  179.5160  178.7620  140.0360 O   0  0  0  0  0  0  0  0  0  0  0  0
  180.1290  176.1110  135.9720 O   0  0  0  0  0  0  0  0  0  0  0  0
  181.2110  176.5650  136.3120 C   0  0  0  0  0  0  0  0  0  0  0  0
  183.5520  176.1600  136.6150 O   0  0  0  0  0  1  0  0  0  0  0  0
  181.4720  178.0390  136.1730 C   0  0  0  0  0  2  0  0  0  0  0  0
  179.3330  178.5630  137.2470 O   0  0  0  0  0  1  0  0  0  0  0  0
  180.8160  178.3450  139.7210 C   0  0  2  0  0  3  0  0  0  0  0  0
  181.3760  179.1150  138.5090 C   0  0  0  0  0  2  0  0  0  0  0  0
  179.8070  176.3090  138.9170 O   0  0  0  0  0  1  0  0  0  0  0  0
  182.1690  176.4650  139.0630 O   0  0  0  0  0  0  0  0  0  0  0  0
  182.0680  175.2960  138.2920 C   0  0  0  0  0  2  0  0  0  0  0  0
  180.9130  176.8190  139.6180 C   0  0  1  0  0  3  0  0  0  0  0  0
  182.2760  175.6270  136.8140 C   0  0  1  0  0  3  0  0  0  0  0  0
  180.6820  178.9200  137.1510 C   0  0  1  0  0  3  0  0  0  0  0  0
  184.6640  177.6930  144.1140 N   0  0  0  0  0  2  0  0  0  0  0  0
  187.3860  178.5220  147.6430 C   0  0  0  0  0  3  0  0  0  0  0  0
  188.0510  177.4600  146.8280 C   0  0  1  0  0  3  0  0  0  0  0  0
  186.1250  178.9030  147.4430 C   0  0  0  0  0  3  0  0  0  0  0  0
  185.2250  178.4030  146.3810 C   0  0  0  0  0  0  0  0  0  0  0  0
  185.6200  178.0570  145.1250 C   0  0  0  0  0  0  0  0  0  0  0  0
  183.9030  178.4040  146.7070 F   0  0  0  0  0  0  0  0  0  0  0  0
  188.1160  177.8760  145.3980 C   0  0  0  0  0  3  0  0  0  0  0  0
  187.0280  178.1070  144.6620 C   0  0  0  0  0  3  0  0  0  0  0  0
  189.4600  177.2280  147.3430 C   0  0  0  0  0  2  0  0  0  0  0  0
  190.7610  176.5540  145.4830 N   0  0  0  0  0  0  0  0  0  0  0  0
  190.4300  177.4820  146.2910 N   0  0  0  0  0  0  0  0  0  0  0  0
  191.6920  176.7490  144.4750 O   0  0  0  0  0  0  0  0  0  0  0  0
  191.3520  177.0930  143.1200 C   0  0  2  0  0  0  0  0  0  0  0  0
  190.9090  178.5610  143.0460 C   0  0  0  0  0  1  0  0  0  0  0  0
  189.1220  176.7720  142.0000 O   0  0  0  0  0  0  0  0  0  0  0  0
  190.3080  174.9610  142.7500 O   0  0  0  0  0  1  0  0  0  0  0  0
  190.2290  176.2150  142.6330 C   0  0  0  0  0  0  0  0  0  0  0  0
  192.4580  176.8730  142.2650 O   0  0  0  0  0  0  0  0  0  0  0  0
  192.4210  177.7930  141.2020 C   0  0  0  0  0  2  0  0  0  0  0  0
  192.5380  177.0680  139.9070 C   0  0  0  0  0  0  0  0  0  0  0  0
  193.6660  176.9310  139.3620 O   0  0  0  0  0  1  0  0  0  0  0  0
  191.3990  176.5850  139.2760 O   0  0  0  0  0  0  0  0  0  0  0  0
  185.1780  179.4760  142.5160 C   0  0  0  0  0  2  0  0  0  0  0  0
  186.2770  178.2580  138.5490 C   0  0  0  0  0  0  0  0  0  0  0  0
  184.9490  178.5920  138.8430 C   0  0  0  0  0  3  0  0  0  0  0  0
  184.5910  178.9780  140.1380 C   0  0  0  0  0  3  0  0  0  0  0  0
  185.5600  179.0190  141.1470 C   0  0  0  0  0  0  0  0  0  0  0  0
  187.2470  178.2960  139.5590 C   0  0  0  0  0  3  0  0  0  0  0  0
  186.8890  178.6820  140.8550 C   0  0  0  0  0  3  0  0  0  0  0  0
  186.6440  177.8370  137.1690 C   0  0  0  0  0  2  0  0  0  0  0  0
  188.1140  178.1170  136.9100 C   0  0  0  0  0  2  0  0  0  0  0  0
  188.8460  176.8410  136.6860 C   0  0  0  0  0  0  0  0  0  0  0  0
  188.2930  175.6350  137.1290 C   0  0  0  0  0  3  0  0  0  0  0  0
  190.0710  176.8400  136.0100 C   0  0  0  0  0  3  0  0  0  0  0  0
  190.1930  174.4320  136.2380 C   0  0  0  0  0  3  0  0  0  0  0  0
  188.9680  174.4320  136.9080 C   0  0  0  0  0  3  0  0  0  0  0  0
  190.7450  175.6360  135.7880 C   0  0  0  0  0  3  0  0  0  0  0  0
  1 44  1  1  0  0  0
  1  2  1  0  0  0  0
  1 21  1  0  0  0  0
  2  3  1  0  0  0  0
  4  3  1  0  0  0  0
  5  4  1  0  0  0  0
  6  5  1  0  0  0  0
  7  6  1  0  0  0  0
  8  9  2  0  0  0  0
  9 19  1  0  0  0  0
 11  9  1  0  0  0  0
 11 20  1  0  0  0  0
 13  7  1  6  0  0  0
 14 13  1  0  0  0  0
 16 18  1  0  0  0  0
 17 16  1  0  0  0  0
 18 15  1  6  0  0  0
 18 13  1  0  0  0  0
 19 10  1  1  0  0  0
 19 17  1  0  0  0  0
 20 12  1  1  0  0  0
 20 14  1  0  0  0  0
 21 26  1  0  0  0  0
 23 30  1  1  0  0  0
 23 22  1  0  0  0  0
 24 22  2  0  0  0  0
 25 27  1  0  0  0  0
 25 24  1  0  0  0  0
 26 25  2  0  0  0  0
 28 23  1  0  0  0  0
 29 26  1  0  0  0  0
 29 28  2  0  0  0  0
 31 32  2  0  0  0  0
 32 30  1  0  0  0  0
 33 31  1  0  0  0  0
 34 35  1  6  0  0  0
 34 33  1  0  0  0  0
 36 38  2  0  0  0  0
 38 37  1  0  0  0  0
 38 34  1  0  0  0  0
 39 34  1  0  0  0  0
 40 39  1  0  0  0  0
 41 40  1  0  0  0  0
 42 41  1  0  0  0  0
 43 41  2  0  0  0  0
 45 46  2  0  0  0  0
 45 49  1  0  0  0  0
 46 47  1  0  0  0  0
 47 48  2  0  0  0  0
 48 44  1  0  0  0  0
 49 50  2  0  0  0  0
 50 48  1  0  0  0  0
 51 45  1  0  0  0  0
 52 51  1  0  0  0  0
 53 52  1  0  0  0  0
 53 54  1  0  0  0  0
 55 53  2  0  0  0  0
 56 57  1  0  0  0  0
 57 54  2  0  0  0  0
 58 55  1  0  0  0  0
 58 56  2  0  0  0  0
M  END
>  <MODEL>
2

>  <REMARK>
 VINA RESULT:      -7.2      3.053     10.135
  Name = 
  22 active torsions:
  status: ('A' for Active; 'I' for Inactive)
    1  A    between atoms: C_3  and  C_5
    2  A    between atoms: C_3  and  C_27
    3  A    between atoms: C_4  and  C_5
    4  A    between atoms: C_4  and  C_40
    5  A    between atoms: C_6  and  C_32
    6  A    between atoms: N_7  and  O_10
    7  A    between atoms: C_8  and  O_10
    8  A    between atoms: C_8  and  O_37
    9  A    between atoms: C_8  and  C_43
   10  A    between atoms: C_12  and  C_24
   11  A    between atoms: C_13  and  O_37
   12  A    between atoms: C_13  and  C_39
   13  A    between atoms: C_15  and  C_17
   14  A    between atoms: C_17  and  C_24
   15  A    between atoms: C_25  and  C_33
   16  A    between atoms: C_25  and  C_54
   17  A    between atoms: N_26  and  C_41
   18  A    between atoms: N_26  and  C_54
   19  A    between atoms: C_27  and  O_56
   20  A    between atoms: C_28  and  O_56
   21  A    between atoms: N_31  and  C_32
   22  A    between atoms: C_40  and  C_54
                            x       y       z     vdW  Elec       q    Type
                         _______ _______ _______ _____ _____    ______ ____

>  <TORSDO>
F 22

$$$$
=
 OpenBabel11032421213D

 58 61  0  0  1  0  0  0  0  0999 V2000
  189.4860  177.9410  140.4160 C   0  0  2  0  0  3  0  0  0  0  0  0
  188.0470  177.4610  140.4460 C   0  0  0  0  0  2  0  0  0  0  0  0
  187.3620  177.9130  141.7220 C   0  0  0  0  0  2  0  0  0  0  0  0
  186.3680  179.0040  141.3860 C   0  0  0  0  0  2  0  0  0  0  0  0
  185.4310  179.2210  142.5590 C   0  0  0  0  0  2  0  0  0  0  0  0
  184.2600  178.2660  142.4450 C   0  0  0  0  0  2  0  0  0  0  0  0
  183.2220  178.8820  141.7400 O   0  0  0  0  0  0  0  0  0  0  0  0
  181.2760  179.9110  137.3730 O   0  0  0  0  0  0  0  0  0  0  0  0
  181.4070  178.7000  137.4680 C   0  0  0  0  0  0  0  0  0  0  0  0
  180.4410  176.5410  137.0970 O   0  0  0  0  0  1  0  0  0  0  0  0
  182.7860  178.1020  137.4420 C   0  0  0  0  0  2  0  0  0  0  0  0
  183.5740  179.7320  139.0930 O   0  0  0  0  0  1  0  0  0  0  0  0
  182.5880  177.8420  141.0480 C   0  0  2  0  0  3  0  0  0  0  0  0
  183.4180  177.3860  139.8320 C   0  0  0  0  0  2  0  0  0  0  0  0
  181.0080  179.5010  140.3010 O   0  0  0  0  0  1  0  0  0  0  0  0
  180.6030  177.2110  139.8410 O   0  0  0  0  0  0  0  0  0  0  0  0
  179.6440  177.7840  138.9890 C   0  0  0  0  0  2  0  0  0  0  0  0
  181.1230  178.1730  140.7430 C   0  0  1  0  0  3  0  0  0  0  0  0
  180.1810  177.8330  137.5580 C   0  0  1  0  0  3  0  0  0  0  0  0
  183.6310  178.3930  138.6900 C   0  0  1  0  0  3  0  0  0  0  0  0
  189.8190  178.3780  139.0640 N   0  0  0  0  0  2  0  0  0  0  0  0
  189.4200  176.4290  134.9910 C   0  0  0  0  0  3  0  0  0  0  0  0
  190.7620  176.0420  135.5230 C   0  0  1  0  0  3  0  0  0  0  0  0
  188.6660  177.3750  135.5500 C   0  0  0  0  0  3  0  0  0  0  0  0
  188.9910  178.1280  136.7820 C   0  0  0  0  0  0  0  0  0  0  0  0
  189.6480  177.6150  137.8580 C   0  0  0  0  0  0  0  0  0  0  0  0
  188.4830  179.3900  136.8280 F   0  0  0  0  0  0  0  0  0  0  0  0
  190.6290  175.5010  136.9050 C   0  0  0  0  0  3  0  0  0  0  0  0
  190.1600  176.2240  137.9230 C   0  0  0  0  0  3  0  0  0  0  0  0
  191.3780  174.9790  134.6300 C   0  0  0  0  0  2  0  0  0  0  0  0
  193.3500  173.8520  135.3010 N   0  0  0  0  0  0  0  0  0  0  0  0
  192.8150  174.9140  134.8420 N   0  0  0  0  0  0  0  0  0  0  0  0
  194.7120  173.7520  135.5320 O   0  0  0  0  0  0  0  0  0  0  0  0
  195.2880  173.1690  136.7140 C   0  0  2  0  0  0  0  0  0  0  0  0
  194.6560  171.7980  136.9860 C   0  0  0  0  0  1  0  0  0  0  0  0
  193.9090  174.8680  137.9560 O   0  0  0  0  0  0  0  0  0  0  0  0
  195.8460  174.0600  138.8760 O   0  0  0  0  0  1  0  0  0  0  0  0
  195.0450  174.0670  137.9000 C   0  0  0  0  0  0  0  0  0  0  0  0
  196.6900  173.0400  136.5660 O   0  0  0  0  0  0  0  0  0  0  0  0
  197.1450  173.9500  135.5950 C   0  0  0  0  0  2  0  0  0  0  0  0
  197.9340  175.0290  136.2510 C   0  0  0  0  0  0  0  0  0  0  0  0
  197.5150  176.2180  136.2280 O   0  0  0  0  0  0  0  0  0  0  0  0
  199.1540  174.7340  136.8450 O   0  0  0  0  0  1  0  0  0  0  0  0
  190.4180  176.8150  140.8510 C   0  0  0  0  0  2  0  0  0  0  0  0
  191.2120  177.1040  145.0590 C   0  0  0  0  0  0  0  0  0  0  0  0
  191.1220  178.2620  144.2760 C   0  0  0  0  0  3  0  0  0  0  0  0
  190.8740  178.1650  142.9040 C   0  0  0  0  0  3  0  0  0  0  0  0
  190.7270  176.9070  142.3080 C   0  0  0  0  0  0  0  0  0  0  0  0
  191.0680  175.8440  144.4640 C   0  0  0  0  0  3  0  0  0  0  0  0
  190.8200  175.7470  143.0910 C   0  0  0  0  0  3  0  0  0  0  0  0
  191.4880  177.2190  146.5180 C   0  0  0  0  0  2  0  0  0  0  0  0
  190.4550  176.4370  147.3090 C   0  0  0  0  0  2  0  0  0  0  0  0
  189.1430  177.1380  147.2710 C   0  0  0  0  0  0  0  0  0  0  0  0
  188.6810  177.8110  148.4070 C   0  0  0  0  0  3  0  0  0  0  0  0
  188.3830  177.1500  146.0960 C   0  0  0  0  0  3  0  0  0  0  0  0
  186.6970  178.4910  147.2020 C   0  0  0  0  0  3  0  0  0  0  0  0
  187.4580  178.4840  148.3730 C   0  0  0  0  0  3  0  0  0  0  0  0
  187.1600  177.8250  146.0630 C   0  0  0  0  0  3  0  0  0  0  0  0
  1  2  1  6  0  0  0
  1 44  1  0  0  0  0
  2  3  1  0  0  0  0
  4  3  1  0  0  0  0
  4  5  1  0  0  0  0
  6  5  1  0  0  0  0
  7  6  1  0  0  0  0
  8  9  2  0  0  0  0
  9 19  1  0  0  0  0
 11  9  1  0  0  0  0
 11 20  1  0  0  0  0
 13  7  1  6  0  0  0
 14 13  1  0  0  0  0
 16 18  1  0  0  0  0
 17 16  1  0  0  0  0
 18 15  1  6  0  0  0
 18 13  1  0  0  0  0
 19 10  1  1  0  0  0
 19 17  1  0  0  0  0
 20 12  1  1  0  0  0
 20 14  1  0  0  0  0
 21  1  1  0  0  0  0
 22 23  1  0  0  0  0
 22 24  2  0  0  0  0
 23 30  1  6  0  0  0
 23 28  1  0  0  0  0
 24 25  1  0  0  0  0
 25 27  1  0  0  0  0
 25 26  2  0  0  0  0
 26 29  1  0  0  0  0
 26 21  1  0  0  0  0
 28 29  2  0  0  0  0
 30 32  1  0  0  0  0
 31 33  1  0  0  0  0
 32 31  2  0  0  0  0
 33 34  1  0  0  0  0
 34 35  1  1  0  0  0
 34 38  1  0  0  0  0
 38 36  2  0  0  0  0
 38 37  1  0  0  0  0
 39 34  1  0  0  0  0
 40 41  1  0  0  0  0
 40 39  1  0  0  0  0
 41 43  1  0  0  0  0
 42 41  2  0  0  0  0
 44 48  1  0  0  0  0
 45 51  1  0  0  0  0
 46 45  2  0  0  0  0
 47 46  1  0  0  0  0
 48 47  2  0  0  0  0
 48 50  1  0  0  0  0
 49 45  1  0  0  0  0
 50 49  2  0  0  0  0
 51 52  1  0  0  0  0
 53 52  1  0  0  0  0
 53 54  1  0  0  0  0
 55 53  2  0  0  0  0
 56 57  1  0  0  0  0
 57 54  2  0  0  0  0
 58 55  1  0  0  0  0
 58 56  2  0  0  0  0
M  END
>  <MODEL>
3

>  <REMARK>
 VINA RESULT:      -7.0      3.119     12.645
  Name = 
  22 active torsions:
  status: ('A' for Active; 'I' for Inactive)
    1  A    between atoms: C_3  and  C_5
    2  A    between atoms: C_3  and  C_27
    3  A    between atoms: C_4  and  C_5
    4  A    between atoms: C_4  and  C_40
    5  A    between atoms: C_6  and  C_32
    6  A    between atoms: N_7  and  O_10
    7  A    between atoms: C_8  and  O_10
    8  A    between atoms: C_8  and  O_37
    9  A    between atoms: C_8  and  C_43
   10  A    between atoms: C_12  and  C_24
   11  A    between atoms: C_13  and  O_37
   12  A    between atoms: C_13  and  C_39
   13  A    between atoms: C_15  and  C_17
   14  A    between atoms: C_17  and  C_24
   15  A    between atoms: C_25  and  C_33
   16  A    between atoms: C_25  and  C_54
   17  A    between atoms: N_26  and  C_41
   18  A    between atoms: N_26  and  C_54
   19  A    between atoms: C_27  and  O_56
   20  A    between atoms: C_28  and  O_56
   21  A    between atoms: N_31  and  C_32
   22  A    between atoms: C_40  and  C_54
                            x       y       z     vdW  Elec       q    Type
                         _______ _______ _______ _____ _____    ______ ____

>  <TORSDO>
F 22

$$$$
=
 OpenBabel11032421213D

 58 61  0  0  1  0  0  0  0  0999 V2000
  183.4630  178.6520  143.3340 C   0  0  2  0  0  3  0  0  0  0  0  0
  184.6900  179.1680  142.6090 C   0  0  0  0  0  2  0  0  0  0  0  0
  185.0470  178.2550  141.4500 C   0  0  0  0  0  2  0  0  0  0  0  0
  186.0510  178.9570  140.5620 C   0  0  0  0  0  2  0  0  0  0  0  0
  187.4360  178.3890  140.8070 C   0  0  0  0  0  2  0  0  0  0  0  0
  188.1910  178.3320  139.4940 C   0  0  0  0  0  2  0  0  0  0  0  0
  189.0370  177.2200  139.4900 O   0  0  0  0  0  0  0  0  0  0  0  0
  190.3550  173.8150  136.2360 O   0  0  0  0  0  0  0  0  0  0  0  0
  190.7560  174.9030  135.8500 C   0  0  0  0  0  0  0  0  0  0  0  0
  192.5550  176.1520  134.8800 O   0  0  0  0  0  1  0  0  0  0  0  0
  189.7670  175.9240  135.3600 C   0  0  0  0  0  2  0  0  0  0  0  0
  188.3560  175.5690  137.3310 O   0  0  0  0  0  1  0  0  0  0  0  0
  190.0560  177.5440  138.5850 C   0  0  2  0  0  3  0  0  0  0  0  0
  189.5030  177.7440  137.1610 C   0  0  0  0  0  2  0  0  0  0  0  0
  190.7720  175.2530  138.8000 O   0  0  0  0  0  1  0  0  0  0  0  0
  192.1210  176.7910  137.6010 O   0  0  0  0  0  0  0  0  0  0  0  0
  192.7410  175.5950  137.2070 C   0  0  0  0  0  2  0  0  0  0  0  0
  191.2380  176.5740  138.6900 C   0  0  1  0  0  3  0  0  0  0  0  0
  192.2360  175.1750  135.8270 C   0  0  1  0  0  3  0  0  0  0  0  0
  188.8780  176.5280  136.4560 C   0  0  1  0  0  3  0  0  0  0  0  0
  182.2730  179.2970  142.7880 N   0  0  0  0  0  2  0  0  0  0  0  0
  180.0840  177.5940  139.2020 C   0  0  0  0  0  3  0  0  0  0  0  0
  180.2240  176.4810  140.1890 C   0  0  1  0  0  3  0  0  0  0  0  0
  180.7340  178.7520  139.3210 C   0  0  0  0  0  3  0  0  0  0  0  0
  181.6200  179.1370  140.4410 C   0  0  0  0  0  0  0  0  0  0  0  0
  181.4320  178.7820  141.7410 C   0  0  0  0  0  0  0  0  0  0  0  0
  182.6230  179.9930  140.1040 F   0  0  0  0  0  0  0  0  0  0  0  0
  179.7490  176.9210  141.5310 C   0  0  0  0  0  3  0  0  0  0  0  0
  180.3170  177.9220  142.2060 C   0  0  0  0  0  3  0  0  0  0  0  0
  179.3980  175.2890  139.7360 C   0  0  0  0  0  2  0  0  0  0  0  0
  180.6970  174.5300  137.9070 N   0  0  0  0  0  0  0  0  0  0  0  0
  179.6050  175.0430  138.3180 N   0  0  0  0  0  0  0  0  0  0  0  0
  180.9410  174.2910  136.5650 O   0  0  0  0  0  0  0  0  0  0  0  0
  181.7220  173.1880  136.0710 C   0  0  2  0  0  0  0  0  0  0  0  0
  181.2610  172.8080  134.6580 C   0  0  0  0  0  1  0  0  0  0  0  0
  180.2920  171.5450  137.3300 O   0  0  0  0  0  0  0  0  0  0  0  0
  182.5760  171.3690  137.3890 O   0  0  0  0  0  1  0  0  0  0  0  0
  181.5610  171.9970  136.9800 C   0  0  0  0  0  0  0  0  0  0  0  0
  183.0970  173.5250  136.0620 O   0  0  0  0  0  0  0  0  0  0  0  0
  183.3230  174.6040  136.9350 C   0  0  0  0  0  2  0  0  0  0  0  0
  184.1160  175.6540  136.2390 C   0  0  0  0  0  0  0  0  0  0  0  0
  185.1570  176.1180  136.7790 O   0  0  0  0  0  1  0  0  0  0  0  0
  183.6850  176.1570  135.0180 O   0  0  0  0  0  0  0  0  0  0  0  0
  183.5810  178.9430  144.8270 C   0  0  0  0  0  2  0  0  0  0  0  0
  187.3820  177.6170  146.3170 C   0  0  0  0  0  0  0  0  0  0  0  0
  186.9270  177.1890  145.0630 C   0  0  0  0  0  3  0  0  0  0  0  0
  185.6840  177.6130  144.5840 C   0  0  0  0  0  3  0  0  0  0  0  0
  184.8870  178.4590  145.3650 C   0  0  0  0  0  0  0  0  0  0  0  0
  186.5840  178.4620  147.1000 C   0  0  0  0  0  3  0  0  0  0  0  0
  185.3410  178.8860  146.6210 C   0  0  0  0  0  3  0  0  0  0  0  0
  188.7030  177.1490  146.8210 C   0  0  0  0  0  2  0  0  0  0  0  0
  189.8000  178.0990  146.3730 C   0  0  0  0  0  2  0  0  0  0  0  0
  190.3690  177.6470  145.0750 C   0  0  0  0  0  0  0  0  0  0  0  0
  190.1520  178.4040  143.9190 C   0  0  0  0  0  3  0  0  0  0  0  0
  191.1410  176.4820  145.0110 C   0  0  0  0  0  3  0  0  0  0  0  0
  191.4640  176.8280  142.6360 C   0  0  0  0  0  3  0  0  0  0  0  0
  190.6970  177.9930  142.7000 C   0  0  0  0  0  3  0  0  0  0  0  0
  191.6870  176.0720  143.7910 C   0  0  0  0  0  3  0  0  0  0  0  0
  1  2  1  6  0  0  0
  1 44  1  0  0  0  0
  3  2  1  0  0  0  0
  4  5  1  0  0  0  0
  4  3  1  0  0  0  0
  6  5  1  0  0  0  0
  7  6  1  0  0  0  0
  9  8  2  0  0  0  0
 11  9  1  0  0  0  0
 11 20  1  0  0  0  0
 13 18  1  0  0  0  0
 13  7  1  1  0  0  0
 14 13  1  0  0  0  0
 16 18  1  0  0  0  0
 17 16  1  0  0  0  0
 18 15  1  6  0  0  0
 19 10  1  6  0  0  0
 19  9  1  0  0  0  0
 19 17  1  0  0  0  0
 20 14  1  0  0  0  0
 20 12  1  1  0  0  0
 21  1  1  0  0  0  0
 22 24  2  0  0  0  0
 22 23  1  0  0  0  0
 23 30  1  6  0  0  0
 23 28  1  0  0  0  0
 24 25  1  0  0  0  0
 25 26  2  0  0  0  0
 26 29  1  0  0  0  0
 26 21  1  0  0  0  0
 27 25  1  0  0  0  0
 28 29  2  0  0  0  0
 31 32  2  0  0  0  0
 32 30  1  0  0  0  0
 33 31  1  0  0  0  0
 34 35  1  6  0  0  0
 34 33  1  0  0  0  0
 34 38  1  0  0  0  0
 38 36  2  0  0  0  0
 38 37  1  0  0  0  0
 39 34  1  0  0  0  0
 39 40  1  0  0  0  0
 41 42  1  0  0  0  0
 41 40  1  0  0  0  0
 43 41  2  0  0  0  0
 44 48  1  0  0  0  0
 45 51  1  0  0  0  0
 45 49  1  0  0  0  0
 46 45  2  0  0  0  0
 47 46  1  0  0  0  0
 47 48  2  0  0  0  0
 48 50  1  0  0  0  0
 50 49  2  0  0  0  0
 52 51  1  0  0  0  0
 53 52  1  0  0  0  0
 54 53  2  0  0  0  0
 55 53  1  0  0  0  0
 56 57  2  0  0  0  0
 56 58  1  0  0  0  0
 57 54  1  0  0  0  0
 58 55  2  0  0  0  0
M  END
>  <MODEL>
4

>  <REMARK>
 VINA RESULT:      -6.8      3.536      7.585
  Name = 
  22 active torsions:
  status: ('A' for Active; 'I' for Inactive)
    1  A    between atoms: C_3  and  C_5
    2  A    between atoms: C_3  and  C_27
    3  A    between atoms: C_4  and  C_5
    4  A    between atoms: C_4  and  C_40
    5  A    between atoms: C_6  and  C_32
    6  A    between atoms: N_7  and  O_10
    7  A    between atoms: C_8  and  O_10
    8  A    between atoms: C_8  and  O_37
    9  A    between atoms: C_8  and  C_43
   10  A    between atoms: C_12  and  C_24
   11  A    between atoms: C_13  and  O_37
   12  A    between atoms: C_13  and  C_39
   13  A    between atoms: C_15  and  C_17
   14  A    between atoms: C_17  and  C_24
   15  A    between atoms: C_25  and  C_33
   16  A    between atoms: C_25  and  C_54
   17  A    between atoms: N_26  and  C_41
   18  A    between atoms: N_26  and  C_54
   19  A    between atoms: C_27  and  O_56
   20  A    between atoms: C_28  and  O_56
   21  A    between atoms: N_31  and  C_32
   22  A    between atoms: C_40  and  C_54
                            x       y       z     vdW  Elec       q    Type
                         _______ _______ _______ _____ _____    ______ ____

>  <TORSDO>
F 22

$$$$
=
 OpenBabel11032421213D

 58 61  0  0  1  0  0  0  0  0999 V2000
  184.6560  178.3170  140.8660 C   0  0  2  0  0  3  0  0  0  0  0  0
  185.1460  178.8540  142.1970 C   0  0  0  0  0  2  0  0  0  0  0  0
  184.0110  178.9000  143.2020 C   0  0  0  0  0  2  0  0  0  0  0  0
  184.5460  179.4030  144.5260 C   0  0  0  0  0  2  0  0  0  0  0  0
  184.7030  178.2430  145.4890 C   0  0  0  0  0  2  0  0  0  0  0  0
  186.1230  178.2200  146.0150 C   0  0  0  0  0  2  0  0  0  0  0  0
  187.0160  178.4240  144.9590 O   0  0  0  0  0  0  0  0  0  0  0  0
  191.8000  178.3600  143.9470 O   0  0  0  0  0  0  0  0  0  0  0  0
  191.4610  177.2430  144.3090 C   0  0  0  0  0  0  0  0  0  0  0  0
  191.6200  174.8810  143.9500 O   0  0  0  0  0  1  0  0  0  0  0  0
  191.0960  177.0120  145.7490 C   0  0  0  0  0  2  0  0  0  0  0  0
  189.6460  178.9860  145.7450 O   0  0  0  0  0  1  0  0  0  0  0  0
  187.6200  177.1780  144.7500 C   0  0  2  0  0  3  0  0  0  0  0  0
  188.5380  176.7920  145.9260 C   0  0  0  0  0  2  0  0  0  0  0  0
  188.9630  178.2760  143.0770 O   0  0  0  0  0  1  0  0  0  0  0  0
  189.0700  175.9180  143.2970 O   0  0  0  0  0  0  0  0  0  0  0  0
  190.1880  176.1170  142.4720 C   0  0  0  0  0  2  0  0  0  0  0  0
  188.2720  177.0880  143.3650 C   0  0  1  0  0  3  0  0  0  0  0  0
  191.4650  176.1150  143.3130 C   0  0  1  0  0  3  0  0  0  0  0  0
  189.7780  177.6650  146.1860 C   0  0  1  0  0  3  0  0  0  0  0  0
  185.3770  178.9810  139.7840 N   0  0  0  0  0  2  0  0  0  0  0  0
  188.3910  176.7530  137.2350 C   0  0  0  0  0  3  0  0  0  0  0  0
  187.1230  175.9640  137.1890 C   0  0  1  0  0  3  0  0  0  0  0  0
  188.5890  177.7560  138.0900 C   0  0  0  0  0  3  0  0  0  0  0  0
  187.5990  178.2770  139.0580 C   0  0  0  0  0  0  0  0  0  0  0  0
  186.2580  178.3510  138.8380 C   0  0  0  0  0  0  0  0  0  0  0  0
  188.1350  178.8010  140.1940 F   0  0  0  0  0  0  0  0  0  0  0  0
  185.9790  176.8500  136.8350 C   0  0  0  0  0  3  0  0  0  0  0  0
  185.6010  177.8800  137.5940 C   0  0  0  0  0  3  0  0  0  0  0  0
  187.2430  174.8650  136.1470 C   0  0  0  0  0  2  0  0  0  0  0  0
  189.3030  174.0470  135.3150 N   0  0  0  0  0  0  0  0  0  0  0  0
  188.4780  175.0150  135.3960 N   0  0  0  0  0  0  0  0  0  0  0  0
  190.4980  174.1520  134.6210 O   0  0  0  0  0  0  0  0  0  0  0  0
  191.7880  174.2540  135.2500 C   0  0  2  0  0  0  0  0  0  0  0  0
  192.5860  175.4070  134.6290 C   0  0  0  0  0  1  0  0  0  0  0  0
  191.9510  171.7450  135.3370 O   0  0  0  0  0  1  0  0  0  0  0  0
  193.7310  172.9920  134.6120 O   0  0  0  0  0  0  0  0  0  0  0  0
  192.5530  172.9690  135.0650 C   0  0  0  0  0  0  0  0  0  0  0  0
  191.6410  174.4570  136.6440 O   0  0  0  0  0  0  0  0  0  0  0  0
  192.8990  174.7150  137.2160 C   0  0  0  0  0  2  0  0  0  0  0  0
  192.8440  175.9810  137.9980 C   0  0  0  0  0  0  0  0  0  0  0  0
  191.8280  176.7230  137.9240 O   0  0  0  0  0  0  0  0  0  0  0  0
  193.9310  176.3670  138.7720 O   0  0  0  0  0  1  0  0  0  0  0  0
  183.1570  178.5620  140.7270 C   0  0  0  0  0  2  0  0  0  0  0  0
  181.3960  176.1010  137.6820 C   0  0  0  0  0  0  0  0  0  0  0  0
  181.9820  175.5160  138.8120 C   0  0  0  0  0  3  0  0  0  0  0  0
  182.5650  176.3180  139.7970 C   0  0  0  0  0  3  0  0  0  0  0  0
  182.5720  177.7100  139.6490 C   0  0  0  0  0  0  0  0  0  0  0  0
  181.4050  177.4940  137.5320 C   0  0  0  0  0  3  0  0  0  0  0  0
  181.9890  178.2970  138.5170 C   0  0  0  0  0  3  0  0  0  0  0  0
  180.7890  175.2360  136.6340 C   0  0  0  0  0  2  0  0  0  0  0  0
  180.0560  174.0720  137.2770 C   0  0  0  0  0  2  0  0  0  0  0  0
  180.5470  172.7850  136.7130 C   0  0  0  0  0  0  0  0  0  0  0  0
  179.6450  171.8970  136.1190 C   0  0  0  0  0  3  0  0  0  0  0  0
  181.9100  172.4720  136.7530 C   0  0  0  0  0  3  0  0  0  0  0  0
  181.4610  170.3800  135.6180 C   0  0  0  0  0  3  0  0  0  0  0  0
  180.1010  170.6940  135.5740 C   0  0  0  0  0  3  0  0  0  0  0  0
  182.3660  171.2690  136.2080 C   0  0  0  0  0  3  0  0  0  0  0  0
  1 44  1  6  0  0  0
  1  2  1  0  0  0  0
  2  3  1  0  0  0  0
  3  4  1  0  0  0  0
  4  5  1  0  0  0  0
  5  6  1  0  0  0  0
  7  6  1  0  0  0  0
  8  9  2  0  0  0  0
  9 11  1  0  0  0  0
 11 20  1  0  0  0  0
 13  7  1  1  0  0  0
 13 14  1  0  0  0  0
 14 20  1  0  0  0  0
 16 18  1  0  0  0  0
 17 16  1  0  0  0  0
 17 19  1  0  0  0  0
 18 15  1  1  0  0  0
 18 13  1  0  0  0  0
 19 10  1  1  0  0  0
 19  9  1  0  0  0  0
 20 12  1  6  0  0  0
 21  1  1  0  0  0  0
 22 24  2  0  0  0  0
 23 30  1  6  0  0  0
 23 22  1  0  0  0  0
 24 25  1  0  0  0  0
 25 27  1  0  0  0  0
 26 25  2  0  0  0  0
 26 21  1  0  0  0  0
 28 23  1  0  0  0  0
 28 29  2  0  0  0  0
 29 26  1  0  0  0  0
 31 32  2  0  0  0  0
 32 30  1  0  0  0  0
 33 34  1  0  0  0  0
 33 31  1  0  0  0  0
 34 35  1  6  0  0  0
 34 39  1  0  0  0  0
 37 38  2  0  0  0  0
 38 34  1  0  0  0  0
 38 36  1  0  0  0  0
 39 40  1  0  0  0  0
 40 41  1  0  0  0  0
 41 43  1  0  0  0  0
 42 41  2  0  0  0  0
 45 46  1  0  0  0  0
 46 47  2  0  0  0  0
 48 47  1  0  0  0  0
 48 44  1  0  0  0  0
 49 45  2  0  0  0  0
 49 50  1  0  0  0  0
 50 48  2  0  0  0  0
 51 52  1  0  0  0  0
 51 45  1  0  0  0  0
 53 55  1  0  0  0  0
 53 52  1  0  0  0  0
 54 53  2  0  0  0  0
 56 58  1  0  0  0  0
 57 56  2  0  0  0  0
 57 54  1  0  0  0  0
 58 55  2  0  0  0  0
M  END
>  <MODEL>
5

>  <REMARK>
 VINA RESULT:      -6.7      3.892      9.890
  Name = 
  22 active torsions:
  status: ('A' for Active; 'I' for Inactive)
    1  A    between atoms: C_3  and  C_5
    2  A    between atoms: C_3  and  C_27
    3  A    between atoms: C_4  and  C_5
    4  A    between atoms: C_4  and  C_40
    5  A    between atoms: C_6  and  C_32
    6  A    between atoms: N_7  and  O_10
    7  A    between atoms: C_8  and  O_10
    8  A    between atoms: C_8  and  O_37
    9  A    between atoms: C_8  and  C_43
   10  A    between atoms: C_12  and  C_24
   11  A    between atoms: C_13  and  O_37
   12  A    between atoms: C_13  and  C_39
   13  A    between atoms: C_15  and  C_17
   14  A    between atoms: C_17  and  C_24
   15  A    between atoms: C_25  and  C_33
   16  A    between atoms: C_25  and  C_54
   17  A    between atoms: N_26  and  C_41
   18  A    between atoms: N_26  and  C_54
   19  A    between atoms: C_27  and  O_56
   20  A    between atoms: C_28  and  O_56
   21  A    between atoms: N_31  and  C_32
   22  A    between atoms: C_40  and  C_54
                            x       y       z     vdW  Elec       q    Type
                         _______ _______ _______ _____ _____    ______ ____

>  <TORSDO>
F 22

$$$$
=
 OpenBabel11032421213D

 58 61  0  0  1  0  0  0  0  0999 V2000
  189.9210  177.7220  142.8190 C   0  0  2  0  0  3  0  0  0  0  0  0
  191.3850  178.1180  142.8080 C   0  0  0  0  0  2  0  0  0  0  0  0
  192.2020  177.1140  142.0160 C   0  0  0  0  0  2  0  0  0  0  0  0
  192.4190  177.6500  140.6170 C   0  0  0  0  0  2  0  0  0  0  0  0
  193.4230  176.7810  139.8860 C   0  0  0  0  0  2  0  0  0  0  0  0
  193.0420  176.7040  138.4210 C   0  0  0  0  0  2  0  0  0  0  0  0
  194.1940  176.5340  137.6480 O   0  0  0  0  0  0  0  0  0  0  0  0
  197.9990  173.5210  137.0490 O   0  0  0  0  0  0  0  0  0  0  0  0
  196.9690  172.8990  136.8360 C   0  0  0  0  0  0  0  0  0  0  0  0
  195.8310  171.3140  135.4470 O   0  0  0  0  0  1  0  0  0  0  0  0
  196.0530  172.5720  137.9820 C   0  0  0  0  0  2  0  0  0  0  0  0
  196.1540  174.8850  138.7820 O   0  0  0  0  0  1  0  0  0  0  0  0
  193.9790  175.3490  136.9340 C   0  0  2  0  0  3  0  0  0  0  0  0
  194.0000  174.1200  137.8620 C   0  0  0  0  0  2  0  0  0  0  0  0
  196.1980  175.6570  136.0450 O   0  0  0  0  0  1  0  0  0  0  0  0
  194.8170  173.9410  135.1690 O   0  0  0  0  0  0  0  0  0  0  0  0
  196.0420  173.5520  134.6040 C   0  0  0  0  0  2  0  0  0  0  0  0
  194.8970  175.2490  135.7090 C   0  0  1  0  0  3  0  0  0  0  0  0
  196.6680  172.4330  135.4370 C   0  0  1  0  0  3  0  0  0  0  0  0
  195.3190  173.7820  138.5770 C   0  0  1  0  0  3  0  0  0  0  0  0
  189.5360  177.3390  144.1730 N   0  0  0  0  0  2  0  0  0  0  0  0
  185.7570  178.6080  146.3320 C   0  0  0  0  0  3  0  0  0  0  0  0
  185.5780  178.9820  144.8960 C   0  0  1  0  0  3  0  0  0  0  0  0
  186.9290  178.2240  146.8390 C   0  0  0  0  0  3  0  0  0  0  0  0
  188.1860  178.0500  146.0790 C   0  0  0  0  0  0  0  0  0  0  0  0
  188.2660  177.5930  144.7990 C   0  0  0  0  0  0  0  0  0  0  0  0
  189.3210  178.2810  146.7950 F   0  0  0  0  0  0  0  0  0  0  0  0
  185.8830  177.8150  144.0200 C   0  0  0  0  0  3  0  0  0  0  0  0
  187.0840  177.2380  143.9770 C   0  0  0  0  0  3  0  0  0  0  0  0
  184.1440  179.4210  144.6580 C   0  0  0  0  0  2  0  0  0  0  0  0
  183.4870  179.0900  142.4070 N   0  0  0  0  0  0  0  0  0  0  0  0
  183.5440  178.6320  143.5950 N   0  0  0  0  0  0  0  0  0  0  0  0
  182.9120  178.3780  141.3680 O   0  0  0  0  0  0  0  0  0  0  0  0
  181.6030  178.6460  140.8340 C   0  0  2  0  0  0  0  0  0  0  0  0
  180.9990  177.3620  140.2520 C   0  0  0  0  0  1  0  0  0  0  0  0
  180.6860  180.6290  139.5860 O   0  0  0  0  0  1  0  0  0  0  0  0
  182.7150  179.7370  139.0040 O   0  0  0  0  0  0  0  0  0  0  0  0
  181.6950  179.6850  139.7460 C   0  0  0  0  0  0  0  0  0  0  0  0
  180.7590  179.1690  141.8430 O   0  0  0  0  0  0  0  0  0  0  0  0
  180.0160  178.1240  142.4210 C   0  0  0  0  0  2  0  0  0  0  0  0
  180.0180  178.2700  143.9030 C   0  0  0  0  0  0  0  0  0  0  0  0
  180.2090  177.2610  144.6350 O   0  0  0  0  0  1  0  0  0  0  0  0
  179.7610  179.5070  144.4800 O   0  0  0  0  0  0  0  0  0  0  0  0
  189.6900  176.5610  141.8570 C   0  0  0  0  0  2  0  0  0  0  0  0
  187.7860  177.8230  138.2230 C   0  0  0  0  0  0  0  0  0  0  0  0
  188.8870  176.9590  138.1800 C   0  0  0  0  0  3  0  0  0  0  0  0
  189.5130  176.5570  139.3640 C   0  0  0  0  0  3  0  0  0  0  0  0
  189.0440  177.0300  140.5950 C   0  0  0  0  0  0  0  0  0  0  0  0
  187.3190  178.2990  139.4550 C   0  0  0  0  0  3  0  0  0  0  0  0
  187.9450  177.8980  140.6400 C   0  0  0  0  0  3  0  0  0  0  0  0
  187.1350  178.2530  136.9550 C   0  0  0  0  0  2  0  0  0  0  0  0
  186.8610  177.0480  136.0730 C   0  0  0  0  0  2  0  0  0  0  0  0
  185.6840  176.2960  136.5870 C   0  0  0  0  0  0  0  0  0  0  0  0
  185.5930  174.9170  136.3730 C   0  0  0  0  0  3  0  0  0  0  0  0
  184.6830  176.9580  137.3060 C   0  0  0  0  0  3  0  0  0  0  0  0
  183.4970  174.8640  137.5800 C   0  0  0  0  0  3  0  0  0  0  0  0
  184.4990  174.2020  136.8670 C   0  0  0  0  0  3  0  0  0  0  0  0
  183.5890  176.2420  137.8000 C   0  0  0  0  0  3  0  0  0  0  0  0
  1 44  1  6  0  0  0
  1 21  1  0  0  0  0
  2  1  1  0  0  0  0
  3  2  1  0  0  0  0
  4  3  1  0  0  0  0
  5  4  1  0  0  0  0
  6  5  1  0  0  0  0
  7  6  1  0  0  0  0
  9  8  2  0  0  0  0
  9 11  1  0  0  0  0
 11 20  1  0  0  0  0
 13  7  1  1  0  0  0
 13 14  1  0  0  0  0
 14 20  1  0  0  0  0
 16 18  1  0  0  0  0
 17 16  1  0  0  0  0
 17 19  1  0  0  0  0
 18 15  1  1  0  0  0
 18 13  1  0  0  0  0
 19 10  1  1  0  0  0
 19  9  1  0  0  0  0
 20 12  1  6  0  0  0
 21 26  1  0  0  0  0
 22 24  2  0  0  0  0
 23 30  1  1  0  0  0
 23 22  1  0  0  0  0
 25 27  1  0  0  0  0
 25 24  1  0  0  0  0
 26 25  2  0  0  0  0
 28 23  1  0  0  0  0
 29 28  2  0  0  0  0
 29 26  1  0  0  0  0
 31 32  2  0  0  0  0
 32 30  1  0  0  0  0
 33 31  1  0  0  0  0
 34 35  1  6  0  0  0
 34 33  1  0  0  0  0
 34 39  1  0  0  0  0
 36 38  1  0  0  0  0
 37 38  2  0  0  0  0
 38 34  1  0  0  0  0
 39 40  1  0  0  0  0
 40 41  1  0  0  0  0
 41 43  2  0  0  0  0
 41 42  1  0  0  0  0
 45 49  1  0  0  0  0
 46 45  2  0  0  0  0
 46 47  1  0  0  0  0
 47 48  2  0  0  0  0
 48 50  1  0  0  0  0
 48 44  1  0  0  0  0
 49 50  2  0  0  0  0
 51 45  1  0  0  0  0
 52 53  1  0  0  0  0
 52 51  1  0  0  0  0
 53 55  1  0  0  0  0
 54 53  2  0  0  0  0
 54 57  1  0  0  0  0
 55 58  2  0  0  0  0
 56 58  1  0  0  0  0
 57 56  2  0  0  0  0
M  END
>  <MODEL>
6

>  <REMARK>
 VINA RESULT:      -6.7      0.942      2.030
  Name = 
  22 active torsions:
  status: ('A' for Active; 'I' for Inactive)
    1  A    between atoms: C_3  and  C_5
    2  A    between atoms: C_3  and  C_27
    3  A    between atoms: C_4  and  C_5
    4  A    between atoms: C_4  and  C_40
    5  A    between atoms: C_6  and  C_32
    6  A    between atoms: N_7  and  O_10
    7  A    between atoms: C_8  and  O_10
    8  A    between atoms: C_8  and  O_37
    9  A    between atoms: C_8  and  C_43
   10  A    between atoms: C_12  and  C_24
   11  A    between atoms: C_13  and  O_37
   12  A    between atoms: C_13  and  C_39
   13  A    between atoms: C_15  and  C_17
   14  A    between atoms: C_17  and  C_24
   15  A    between atoms: C_25  and  C_33
   16  A    between atoms: C_25  and  C_54
   17  A    between atoms: N_26  and  C_41
   18  A    between atoms: N_26  and  C_54
   19  A    between atoms: C_27  and  O_56
   20  A    between atoms: C_28  and  O_56
   21  A    between atoms: N_31  and  C_32
   22  A    between atoms: C_40  and  C_54
                            x       y       z     vdW  Elec       q    Type
                         _______ _______ _______ _____ _____    ______ ____

>  <TORSDO>
F 22

$$$$
=
 OpenBabel11032421213D

 58 61  0  0  1  0  0  0  0  0999 V2000
  184.7890  179.4820  143.2300 C   0  0  2  0  0  3  0  0  0  0  0  0
  183.3340  179.7500  143.5650 C   0  0  0  0  0  2  0  0  0  0  0  0
  182.4220  178.9810  142.6260 C   0  0  0  0  0  2  0  0  0  0  0  0
  180.9880  179.3810  142.8980 C   0  0  0  0  0  2  0  0  0  0  0  0
  180.2780  179.6600  141.5870 C   0  0  0  0  0  2  0  0  0  0  0  0
  179.3090  178.5320  141.2950 C   0  0  0  0  0  2  0  0  0  0  0  0
  180.0070  177.4440  140.7610 O   0  0  0  0  0  0  0  0  0  0  0  0
  183.1430  174.8330  138.0650 O   0  0  0  0  0  0  0  0  0  0  0  0
  182.2810  175.2930  137.3300 C   0  0  0  0  0  0  0  0  0  0  0  0
  181.7790  176.3560  135.2440 O   0  0  0  0  0  1  0  0  0  0  0  0
  180.8800  174.7520  137.4060 C   0  0  0  0  0  2  0  0  0  0  0  0
  180.8890  174.9460  139.8480 O   0  0  0  0  0  1  0  0  0  0  0  0
  180.0140  177.6630  139.3780 C   0  0  2  0  0  3  0  0  0  0  0  0
  179.3980  176.4730  138.6150 C   0  0  0  0  0  2  0  0  0  0  0  0
  182.3990  177.3310  139.4880 O   0  0  0  0  0  1  0  0  0  0  0  0
  181.4150  178.0730  137.4620 O   0  0  0  0  0  0  0  0  0  0  0  0
  182.6910  177.7370  136.9820 C   0  0  0  0  0  2  0  0  0  0  0  0
  181.3960  178.1030  138.8800 C   0  0  1  0  0  3  0  0  0  0  0  0
  182.6560  176.3540  136.3310 C   0  0  1  0  0  3  0  0  0  0  0  0
  180.1240  175.1190  138.6900 C   0  0  1  0  0  3  0  0  0  0  0  0
  185.0150  179.7520  141.8140 N   0  0  0  0  0  2  0  0  0  0  0  0
  187.5750  177.7440  138.6580 C   0  0  0  0  0  3  0  0  0  0  0  0
  188.5130  178.3410  139.6560 C   0  0  1  0  0  3  0  0  0  0  0  0
  186.2710  178.0200  138.6350 C   0  0  0  0  0  3  0  0  0  0  0  0
  185.5510  178.8830  139.5970 C   0  0  0  0  0  0  0  0  0  0  0  0
  185.8400  178.9810  140.9230 C   0  0  0  0  0  0  0  0  0  0  0  0
  184.4670  179.5260  139.0830 F   0  0  0  0  0  0  0  0  0  0  0  0
  188.1260  177.9320  141.0350 C   0  0  0  0  0  3  0  0  0  0  0  0
  186.9510  178.2490  141.5800 C   0  0  0  0  0  3  0  0  0  0  0  0
  189.9280  177.8660  139.3740 C   0  0  0  0  0  2  0  0  0  0  0  0
  191.0840  176.8160  137.5940 N   0  0  0  0  0  0  0  0  0  0  0  0
  189.9680  177.1040  138.1380 N   0  0  0  0  0  0  0  0  0  0  0  0
  191.1660  176.1040  136.4090 O   0  0  0  0  0  0  0  0  0  0  0  0
  191.4010  174.6860  136.3350 C   0  0  2  0  0  0  0  0  0  0  0  0
  192.0260  174.3260  134.9810 C   0  0  0  0  0  1  0  0  0  0  0  0
  189.2550  173.7640  135.4000 O   0  0  0  0  0  0  0  0  0  0  0  0
  189.7920  173.4280  137.6020 O   0  0  0  0  0  1  0  0  0  0  0  0
  190.1000  173.9410  136.4910 C   0  0  0  0  0  0  0  0  0  0  0  0
  192.2500  174.2730  137.3900 O   0  0  0  0  0  0  0  0  0  0  0  0
  193.5430  174.0430  136.8880 C   0  0  0  0  0  2  0  0  0  0  0  0
  194.4470  175.1490  137.3080 C   0  0  0  0  0  0  0  0  0  0  0  0
  194.7970  175.2540  138.5140 O   0  0  0  0  0  1  0  0  0  0  0  0
  194.8660  176.0940  136.3800 O   0  0  0  0  0  0  0  0  0  0  0  0
  185.1370  178.0320  143.5530 C   0  0  0  0  0  2  0  0  0  0  0  0
  187.4810  177.7170  147.1350 C   0  0  0  0  0  0  0  0  0  0  0  0
  186.3550  178.5490  147.0990 C   0  0  0  0  0  3  0  0  0  0  0  0
  185.5990  178.6590  145.9280 C   0  0  0  0  0  3  0  0  0  0  0  0
  185.9760  177.9440  144.7850 C   0  0  0  0  0  0  0  0  0  0  0  0
  187.8600  177.0030  145.9900 C   0  0  0  0  0  3  0  0  0  0  0  0
  187.1040  177.1130  144.8190 C   0  0  0  0  0  3  0  0  0  0  0  0
  188.2850  177.6170  148.3840 C   0  0  0  0  0  2  0  0  0  0  0  0
  189.6390  178.2770  148.1890 C   0  0  0  0  0  2  0  0  0  0  0  0
  190.4680  177.4740  147.2500 C   0  0  0  0  0  0  0  0  0  0  0  0
  190.6020  177.8810  145.9180 C   0  0  0  0  0  3  0  0  0  0  0  0
  191.1350  176.3290  147.6990 C   0  0  0  0  0  3  0  0  0  0  0  0
  192.0530  175.9950  145.4840 C   0  0  0  0  0  3  0  0  0  0  0  0
  191.3920  177.1410  145.0350 C   0  0  0  0  0  3  0  0  0  0  0  0
  191.9250  175.5890  146.8160 C   0  0  0  0  0  3  0  0  0  0  0  0
  1 44  1  6  0  0  0
  1  2  1  0  0  0  0
  3  4  1  0  0  0  0
  3  2  1  0  0  0  0
  5  4  1  0  0  0  0
  6  5  1  0  0  0  0
  7  6  1  0  0  0  0
  9 11  1  0  0  0  0
  9  8  2  0  0  0  0
 11 20  1  0  0  0  0
 13  7  1  1  0  0  0
 14 20  1  0  0  0  0
 14 13  1  0  0  0  0
 16 18  1  0  0  0  0
 17 16  1  0  0  0  0
 18 13  1  0  0  0  0
 18 15  1  1  0  0  0
 19 10  1  6  0  0  0
 19 17  1  0  0  0  0
 19  9  1  0  0  0  0
 20 12  1  1  0  0  0
 21  1  1  0  0  0  0
 22 23  1  0  0  0  0
 23 30  1  6  0  0  0
 23 28  1  0  0  0  0
 24 22  2  0  0  0  0
 24 25  1  0  0  0  0
 25 26  2  0  0  0  0
 26 29  1  0  0  0  0
 26 21  1  0  0  0  0
 27 25  1  0  0  0  0
 28 29  2  0  0  0  0
 31 32  2  0  0  0  0
 32 30  1  0  0  0  0
 33 31  1  0  0  0  0
 34 35  1  6  0  0  0
 34 33  1  0  0  0  0
 34 38  1  0  0  0  0
 34 39  1  0  0  0  0
 36 38  2  0  0  0  0
 38 37  1  0  0  0  0
 40 41  1  0  0  0  0
 40 39  1  0  0  0  0
 41 42  1  0  0  0  0
 43 41  2  0  0  0  0
 44 48  1  0  0  0  0
 45 51  1  0  0  0  0
 46 45  1  0  0  0  0
 47 46  2  0  0  0  0
 48 50  2  0  0  0  0
 48 47  1  0  0  0  0
 49 45  2  0  0  0  0
 50 49  1  0  0  0  0
 52 51  1  0  0  0  0
 53 55  1  0  0  0  0
 53 52  1  0  0  0  0
 54 53  2  0  0  0  0
 56 58  1  0  0  0  0
 57 56  2  0  0  0  0
 57 54  1  0  0  0  0
 58 55  2  0  0  0  0
M  END
>  <MODEL>
7

>  <REMARK>
 VINA RESULT:      -6.7      2.790     11.652
  Name = 
  22 active torsions:
  status: ('A' for Active; 'I' for Inactive)
    1  A    between atoms: C_3  and  C_5
    2  A    between atoms: C_3  and  C_27
    3  A    between atoms: C_4  and  C_5
    4  A    between atoms: C_4  and  C_40
    5  A    between atoms: C_6  and  C_32
    6  A    between atoms: N_7  and  O_10
    7  A    between atoms: C_8  and  O_10
    8  A    between atoms: C_8  and  O_37
    9  A    between atoms: C_8  and  C_43
   10  A    between atoms: C_12  and  C_24
   11  A    between atoms: C_13  and  O_37
   12  A    between atoms: C_13  and  C_39
   13  A    between atoms: C_15  and  C_17
   14  A    between atoms: C_17  and  C_24
   15  A    between atoms: C_25  and  C_33
   16  A    between atoms: C_25  and  C_54
   17  A    between atoms: N_26  and  C_41
   18  A    between atoms: N_26  and  C_54
   19  A    between atoms: C_27  and  O_56
   20  A    between atoms: C_28  and  O_56
   21  A    between atoms: N_31  and  C_32
   22  A    between atoms: C_40  and  C_54
                            x       y       z     vdW  Elec       q    Type
                         _______ _______ _______ _____ _____    ______ ____

>  <TORSDO>
F 22

$$$$
=
 OpenBabel11032421213D

 58 61  0  0  1  0  0  0  0  0999 V2000
  184.5250  178.3350  143.7620 C   0  0  2  0  0  3  0  0  0  0  0  0
  183.4550  179.3150  144.2040 C   0  0  0  0  0  2  0  0  0  0  0  0
  182.0970  178.6410  144.2350 C   0  0  0  0  0  2  0  0  0  0  0  0
  181.2170  179.2590  143.1690 C   0  0  0  0  0  2  0  0  0  0  0  0
  180.9070  178.2290  142.1010 C   0  0  0  0  0  2  0  0  0  0  0  0
  180.5200  178.9400  140.8200 C   0  0  0  0  0  2  0  0  0  0  0  0
  181.2320  178.3920  139.7480 O   0  0  0  0  0  0  0  0  0  0  0  0
  182.0630  174.6590  136.6990 O   0  0  0  0  0  0  0  0  0  0  0  0
  180.8740  174.9390  136.6630 C   0  0  0  0  0  0  0  0  0  0  0  0
  178.9310  175.2750  135.3030 O   0  0  0  0  0  1  0  0  0  0  0  0
  180.0050  174.6290  137.8500 C   0  0  0  0  0  2  0  0  0  0  0  0
  181.6370  175.6460  139.3670 O   0  0  0  0  0  1  0  0  0  0  0  0
  180.2640  178.1210  138.7730 C   0  0  2  0  0  3  0  0  0  0  0  0
  179.4920  176.8250  139.0890 C   0  0  0  0  0  2  0  0  0  0  0  0
  182.1020  177.5630  137.3170 O   0  0  0  0  0  1  0  0  0  0  0  0
  179.9050  177.6780  136.4330 O   0  0  0  0  0  0  0  0  0  0  0  0
  180.5480  177.0480  135.3550 C   0  0  0  0  0  2  0  0  0  0  0  0
  180.8480  178.1950  137.3570 C   0  0  1  0  0  3  0  0  0  0  0  0
  180.2980  175.5400  135.4090 C   0  0  1  0  0  3  0  0  0  0  0  0
  180.2750  175.5020  139.0830 C   0  0  1  0  0  3  0  0  0  0  0  0
  184.9780  177.5640  144.9150 N   0  0  0  0  0  2  0  0  0  0  0  0
  188.2570  178.2460  147.9700 C   0  0  0  0  0  3  0  0  0  0  0  0
  188.7450  177.1770  147.0470 C   0  0  1  0  0  3  0  0  0  0  0  0
  186.9940  178.6720  147.9800 C   0  0  0  0  0  3  0  0  0  0  0  0
  185.9190  178.2180  147.0710 C   0  0  0  0  0  0  0  0  0  0  0  0
  186.0950  177.8800  145.7640 C   0  0  0  0  0  0  0  0  0  0  0  0
  184.6670  178.2570  147.6040 F   0  0  0  0  0  0  0  0  0  0  0  0
  188.5950  177.6130  145.6300 C   0  0  0  0  0  3  0  0  0  0  0  0
  187.4120  177.8920  145.0810 C   0  0  0  0  0  3  0  0  0  0  0  0
  190.2100  176.8910  147.3270 C   0  0  0  0  0  2  0  0  0  0  0  0
  191.2850  176.2030  145.3320 N   0  0  0  0  0  0  0  0  0  0  0  0
  191.0100  177.1490  146.1400 N   0  0  0  0  0  0  0  0  0  0  0  0
  192.0550  176.4020  144.1980 O   0  0  0  0  0  0  0  0  0  0  0  0
  191.5820  177.0560  143.0070 C   0  0  2  0  0  0  0  0  0  0  0  0
  191.5500  178.5750  143.2190 C   0  0  0  0  0  1  0  0  0  0  0  0
  189.8720  175.2250  142.7710 O   0  0  0  0  0  1  0  0  0  0  0  0
  189.2950  177.4040  142.3540 O   0  0  0  0  0  0  0  0  0  0  0  0
  190.1930  176.5760  142.6740 C   0  0  0  0  0  0  0  0  0  0  0  0
  192.4120  176.7340  141.9060 O   0  0  0  0  0  0  0  0  0  0  0  0
  192.0560  177.5280  140.8020 C   0  0  0  0  0  2  0  0  0  0  0  0
  192.3670  176.8000  139.5410 C   0  0  0  0  0  0  0  0  0  0  0  0
  191.4780  176.1030  138.9810 O   0  0  0  0  0  0  0  0  0  0  0  0
  193.6480  176.8510  139.0060 O   0  0  0  0  0  1  0  0  0  0  0  0
  185.6960  179.0900  143.1410 C   0  0  0  0  0  2  0  0  0  0  0  0
  186.0050  178.3480  138.9240 C   0  0  0  0  0  0  0  0  0  0  0  0
  184.7530  178.5620  139.5130 C   0  0  0  0  0  3  0  0  0  0  0  0
  184.6530  178.7930  140.8890 C   0  0  0  0  0  3  0  0  0  0  0  0
  185.8080  178.7990  141.6810 C   0  0  0  0  0  0  0  0  0  0  0  0
  187.1610  178.3510  139.7160 C   0  0  0  0  0  3  0  0  0  0  0  0
  187.0610  178.5820  141.0920 C   0  0  0  0  0  3  0  0  0  0  0  0
  186.0980  178.0920  137.4600 C   0  0  0  0  0  2  0  0  0  0  0  0
  185.5170  176.7290  137.1300 C   0  0  0  0  0  2  0  0  0  0  0  0
  186.6110  175.7380  136.9420 C   0  0  0  0  0  0  0  0  0  0  0  0
  186.3070  174.3770  136.8370 C   0  0  0  0  0  3  0  0  0  0  0  0
  187.9400  176.1650  136.8430 C   0  0  0  0  0  3  0  0  0  0  0  0
  188.6540  173.8700  136.5510 C   0  0  0  0  0  3  0  0  0  0  0  0
  187.3270  173.4440  136.6440 C   0  0  0  0  0  3  0  0  0  0  0  0
  188.9610  175.2310  136.6490 C   0  0  0  0  0  3  0  0  0  0  0  0
  1 44  1  1  0  0  0
  1  2  1  0  0  0  0
  1 21  1  0  0  0  0
  2  3  1  0  0  0  0
  4  3  1  0  0  0  0
  5  4  1  0  0  0  0
  6  5  1  0  0  0  0
  7  6  1  0  0  0  0
  9  8  2  0  0  0  0
  9 11  1  0  0  0  0
 11 20  1  0  0  0  0
 13 14  1  0  0  0  0
 13  7  1  1  0  0  0
 16 18  1  0  0  0  0
 17 19  1  0  0  0  0
 17 16  1  0  0  0  0
 18 15  1  1  0  0  0
 18 13  1  0  0  0  0
 19 10  1  1  0  0  0
 19  9  1  0  0  0  0
 20 14  1  0  0  0  0
 20 12  1  6  0  0  0
 21 26  1  0  0  0  0
 22 24  2  0  0  0  0
 23 30  1  1  0  0  0
 23 22  1  0  0  0  0
 25 27  1  0  0  0  0
 25 24  1  0  0  0  0
 26 25  2  0  0  0  0
 28 23  1  0  0  0  0
 29 28  2  0  0  0  0
 29 26  1  0  0  0  0
 31 32  2  0  0  0  0
 32 30  1  0  0  0  0
 33 31  1  0  0  0  0
 34 35  1  1  0  0  0
 34 33  1  0  0  0  0
 37 38  2  0  0  0  0
 38 36  1  0  0  0  0
 38 34  1  0  0  0  0
 39 34  1  0  0  0  0
 40 39  1  0  0  0  0
 41 40  1  0  0  0  0
 42 41  2  0  0  0  0
 43 41  1  0  0  0  0
 45 46  2  0  0  0  0
 45 49  1  0  0  0  0
 46 47  1  0  0  0  0
 47 48  2  0  0  0  0
 48 44  1  0  0  0  0
 49 50  2  0  0  0  0
 50 48  1  0  0  0  0
 51 45  1  0  0  0  0
 52 51  1  0  0  0  0
 53 52  1  0  0  0  0
 54 53  2  0  0  0  0
 55 53  1  0  0  0  0
 56 57  2  0  0  0  0
 56 58  1  0  0  0  0
 57 54  1  0  0  0  0
 58 55  2  0  0  0  0
M  END
>  <MODEL>
8

>  <REMARK>
 VINA RESULT:      -6.6      3.095     10.071
  Name = 
  22 active torsions:
  status: ('A' for Active; 'I' for Inactive)
    1  A    between atoms: C_3  and  C_5
    2  A    between atoms: C_3  and  C_27
    3  A    between atoms: C_4  and  C_5
    4  A    between atoms: C_4  and  C_40
    5  A    between atoms: C_6  and  C_32
    6  A    between atoms: N_7  and  O_10
    7  A    between atoms: C_8  and  O_10
    8  A    between atoms: C_8  and  O_37
    9  A    between atoms: C_8  and  C_43
   10  A    between atoms: C_12  and  C_24
   11  A    between atoms: C_13  and  O_37
   12  A    between atoms: C_13  and  C_39
   13  A    between atoms: C_15  and  C_17
   14  A    between atoms: C_17  and  C_24
   15  A    between atoms: C_25  and  C_33
   16  A    between atoms: C_25  and  C_54
   17  A    between atoms: N_26  and  C_41
   18  A    between atoms: N_26  and  C_54
   19  A    between atoms: C_27  and  O_56
   20  A    between atoms: C_28  and  O_56
   21  A    between atoms: N_31  and  C_32
   22  A    between atoms: C_40  and  C_54
                            x       y       z     vdW  Elec       q    Type
                         _______ _______ _______ _____ _____    ______ ____

>  <TORSDO>
F 22

$$$$
=
 OpenBabel11032421213D

 58 61  0  0  1  0  0  0  0  0999 V2000
  184.0030  178.2830  141.0290 C   0  0  2  0  0  3  0  0  0  0  0  0
  184.5200  178.1220  142.4450 C   0  0  0  0  0  2  0  0  0  0  0  0
  184.1590  179.3330  143.2840 C   0  0  0  0  0  2  0  0  0  0  0  0
  185.1530  179.4590  144.4190 C   0  0  0  0  0  2  0  0  0  0  0  0
  184.6900  178.6270  145.6000 C   0  0  0  0  0  2  0  0  0  0  0  0
  185.8890  177.9580  146.2400 C   0  0  0  0  0  2  0  0  0  0  0  0
  187.0510  178.3290  145.5560 O   0  0  0  0  0  0  0  0  0  0  0  0
  191.6850  178.5350  144.0070 O   0  0  0  0  0  0  0  0  0  0  0  0
  191.4430  177.3940  144.3700 C   0  0  0  0  0  0  0  0  0  0  0  0
  191.6720  175.0530  143.9200 O   0  0  0  0  0  1  0  0  0  0  0  0
  191.2580  177.1070  145.8340 C   0  0  0  0  0  2  0  0  0  0  0  0
  189.7240  179.0040  146.0570 O   0  0  0  0  0  1  0  0  0  0  0  0
  187.6860  177.1210  145.2410 C   0  0  2  0  0  3  0  0  0  0  0  0
  188.7500  176.7520  146.2920 C   0  0  0  0  0  2  0  0  0  0  0  0
  188.7740  178.3300  143.4620 O   0  0  0  0  0  1  0  0  0  0  0  0
  189.0180  175.9750  143.5940 O   0  0  0  0  0  0  0  0  0  0  0  0
  190.0230  176.2530  142.6540 C   0  0  0  0  0  2  0  0  0  0  0  0
  188.1770  177.1010  143.7890 C   0  0  1  0  0  3  0  0  0  0  0  0
  191.3860  176.2940  143.3450 C   0  0  1  0  0  3  0  0  0  0  0  0
  189.9680  177.6800  146.4380 C   0  0  1  0  0  3  0  0  0  0  0  0
  184.9600  179.0660  140.2530 N   0  0  0  0  0  2  0  0  0  0  0  0
  188.0390  177.1210  137.5530 C   0  0  0  0  0  3  0  0  0  0  0  0
  186.7330  176.4520  137.2690 C   0  0  1  0  0  3  0  0  0  0  0  0
  188.2230  177.9330  138.5940 C   0  0  0  0  0  3  0  0  0  0  0  0
  187.1880  178.3410  139.5700 C   0  0  0  0  0  0  0  0  0  0  0  0
  185.8780  178.5550  139.2710 C   0  0  0  0  0  0  0  0  0  0  0  0
  187.6570  178.6060  140.8200 F   0  0  0  0  0  0  0  0  0  0  0  0
  185.6790  177.4720  137.0070 C   0  0  0  0  0  3  0  0  0  0  0  0
  185.3020  178.3710  137.9170 C   0  0  0  0  0  3  0  0  0  0  0  0
  186.8740  175.5570  136.0500 C   0  0  0  0  0  2  0  0  0  0  0  0
  189.1270  174.8960  135.7470 N   0  0  0  0  0  0  0  0  0  0  0  0
  188.1930  175.7130  135.4590 N   0  0  0  0  0  0  0  0  0  0  0  0
  190.4020  175.0160  135.2180 O   0  0  0  0  0  0  0  0  0  0  0  0
  191.6090  174.7560  135.9570 C   0  0  2  0  0  0  0  0  0  0  0  0
  191.8070  173.2430  136.1240 C   0  0  0  0  0  1  0  0  0  0  0  0
  191.6180  176.7760  137.4570 O   0  0  0  0  0  0  0  0  0  0  0  0
  191.3190  174.6840  138.3420 O   0  0  0  0  0  1  0  0  0  0  0  0
  191.5250  175.3940  137.3190 C   0  0  0  0  0  0  0  0  0  0  0  0
  192.7230  175.3240  135.2950 O   0  0  0  0  0  0  0  0  0  0  0  0
  193.9090  174.8880  135.9120 C   0  0  0  0  0  2  0  0  0  0  0  0
  195.0100  175.8450  135.6140 C   0  0  0  0  0  0  0  0  0  0  0  0
  194.8370  177.0810  135.7950 O   0  0  0  0  0  1  0  0  0  0  0  0
  196.2110  175.3820  135.0920 O   0  0  0  0  0  0  0  0  0  0  0  0
  182.6450  178.9790  141.0470 C   0  0  0  0  0  2  0  0  0  0  0  0
  179.9640  176.9960  138.3440 C   0  0  0  0  0  0  0  0  0  0  0  0
  180.8670  177.9540  137.8670 C   0  0  0  0  0  3  0  0  0  0  0  0
  181.7320  178.6070  138.7500 C   0  0  0  0  0  3  0  0  0  0  0  0
  181.6880  178.3100  140.1180 C   0  0  0  0  0  0  0  0  0  0  0  0
  179.9170  176.7000  139.7130 C   0  0  0  0  0  3  0  0  0  0  0  0
  180.7820  177.3530  140.5970 C   0  0  0  0  0  3  0  0  0  0  0  0
  179.0400  176.3160  137.3960 C   0  0  0  0  0  2  0  0  0  0  0  0
  179.4150  174.8510  137.2590 C   0  0  0  0  0  2  0  0  0  0  0  0
  180.8040  174.7250  136.7390 C   0  0  0  0  0  0  0  0  0  0  0  0
  181.0880  175.0940  135.4200 C   0  0  0  0  0  3  0  0  0  0  0  0
  181.8300  174.2650  137.5710 C   0  0  0  0  0  3  0  0  0  0  0  0
  183.4160  174.5290  135.7600 C   0  0  0  0  0  3  0  0  0  0  0  0
  182.3920  174.9940  134.9300 C   0  0  0  0  0  3  0  0  0  0  0  0
  183.1350  174.1650  137.0810 C   0  0  0  0  0  3  0  0  0  0  0  0
  1 44  1  1  0  0  0
  1  2  1  0  0  0  0
  2  3  1  0  0  0  0
  3  4  1  0  0  0  0
  4  5  1  0  0  0  0
  5  6  1  0  0  0  0
  7  6  1  0  0  0  0
  8  9  2  0  0  0  0
  9 11  1  0  0  0  0
 11 20  1  0  0  0  0
 13  7  1  1  0  0  0
 13 14  1  0  0  0  0
 14 20  1  0  0  0  0
 16 18  1  0  0  0  0
 17 19  1  0  0  0  0
 17 16  1  0  0  0  0
 18 15  1  1  0  0  0
 18 13  1  0  0  0  0
 19 10  1  1  0  0  0
 19  9  1  0  0  0  0
 20 12  1  6  0  0  0
 21  1  1  0  0  0  0
 22 24  2  0  0  0  0
 23 30  1  6  0  0  0
 23 22  1  0  0  0  0
 24 25  1  0  0  0  0
 25 27  1  0  0  0  0
 26 25  2  0  0  0  0
 26 21  1  0  0  0  0
 28 23  1  0  0  0  0
 28 29  2  0  0  0  0
 29 26  1  0  0  0  0
 32 31  2  0  0  0  0
 32 30  1  0  0  0  0
 33 31  1  0  0  0  0
 33 34  1  0  0  0  0
 34 35  1  1  0  0  0
 34 38  1  0  0  0  0
 38 36  2  0  0  0  0
 38 37  1  0  0  0  0
 39 40  1  0  0  0  0
 39 34  1  0  0  0  0
 41 42  1  0  0  0  0
 41 40  1  0  0  0  0
 43 41  2  0  0  0  0
 45 49  1  0  0  0  0
 46 45  2  0  0  0  0
 46 47  1  0  0  0  0
 47 48  2  0  0  0  0
 48 50  1  0  0  0  0
 48 44  1  0  0  0  0
 49 50  2  0  0  0  0
 51 45  1  0  0  0  0
 52 51  1  0  0  0  0
 53 52  1  0  0  0  0
 53 55  1  0  0  0  0
 54 53  2  0  0  0  0
 56 58  1  0  0  0  0
 57 54  1  0  0  0  0
 57 56  2  0  0  0  0
 58 55  2  0  0  0  0
M  END
>  <MODEL>
9

>  <REMARK>
 VINA RESULT:      -6.6      3.574      9.843
  Name = 
  22 active torsions:
  status: ('A' for Active; 'I' for Inactive)
    1  A    between atoms: C_3  and  C_5
    2  A    between atoms: C_3  and  C_27
    3  A    between atoms: C_4  and  C_5
    4  A    between atoms: C_4  and  C_40
    5  A    between atoms: C_6  and  C_32
    6  A    between atoms: N_7  and  O_10
    7  A    between atoms: C_8  and  O_10
    8  A    between atoms: C_8  and  O_37
    9  A    between atoms: C_8  and  C_43
   10  A    between atoms: C_12  and  C_24
   11  A    between atoms: C_13  and  O_37
   12  A    between atoms: C_13  and  C_39
   13  A    between atoms: C_15  and  C_17
   14  A    between atoms: C_17  and  C_24
   15  A    between atoms: C_25  and  C_33
   16  A    between atoms: C_25  and  C_54
   17  A    between atoms: N_26  and  C_41
   18  A    between atoms: N_26  and  C_54
   19  A    between atoms: C_27  and  O_56
   20  A    between atoms: C_28  and  O_56
   21  A    between atoms: N_31  and  C_32
   22  A    between atoms: C_40  and  C_54
                            x       y       z     vdW  Elec       q    Type
                         _______ _______ _______ _____ _____    ______ ____

>  <TORSDO>
F 22

$$$$
