=
 OpenBabel11032419173D

 25 28  0  0  1  0  0  0  0  0999 V2000
  189.6830  177.5690  144.2870 C   0  0  0  0  0  0  0  0  0  0  0  0
  189.9150  177.2160  142.9500 C   0  0  0  0  0  0  0  0  0  0  0  0
  187.3810  176.5530  143.9200 C   0  0  1  0  0  3  0  0  0  0  0  0
  192.0460  178.3610  143.0060 C   0  0  0  0  0  3  0  0  0  0  0  0
  188.8950  176.4800  142.2680 N   0  0  0  0  0  2  0  0  0  0  0  0
  188.0180  175.7130  142.9770 O   0  0  0  0  0  0  0  0  0  0  0  0
  190.6630  178.2790  144.9930 C   0  0  0  0  0  3  0  0  0  0  0  0
  191.8410  178.6750  144.3520 C   0  0  0  0  0  3  0  0  0  0  0  0
  188.3940  177.1270  144.9490 C   0  0  2  0  0  3  0  0  0  0  0  0
  191.0830  177.6380  142.2950 C   0  0  0  0  0  0  0  0  0  0  0  0
  186.5410  177.5660  143.2720 N   0  0  0  0  0  0  0  0  0  0  0  0
  185.8500  179.2000  141.9220 N   0  0  0  0  0  0  0  0  0  0  0  0
  186.8890  178.4250  142.2930 C   0  0  0  0  0  3  0  0  0  0  0  0
  185.2430  177.7710  143.5440 C   0  0  0  0  0  3  0  0  0  0  0  0
  184.8370  178.7920  142.7120 C   0  0  0  0  0  0  0  0  0  0  0  0
  183.4550  179.3350  142.6310 C   0  0  0  0  0  2  0  0  0  0  0  0
  182.7040  178.8680  143.7090 O   0  0  0  0  0  1  0  0  0  0  0  0
  188.8480  177.9210  148.2480 O   0  0  0  0  0  0  0  0  0  0  0  0
  187.7740  178.2220  145.8210 C   0  0  2  0  0  3  0  0  0  0  0  0
  188.0900  177.9390  147.2920 C   0  0  0  0  0  0  0  0  0  0  0  0
  186.7290  177.6950  146.6440 C   0  0  1  0  0  3  0  0  0  0  0  0
  185.7800  178.8010  147.0580 C   0  0  0  0  0  2  0  0  0  0  0  0
  184.4720  178.4360  146.7390 O   0  0  0  0  0  1  0  0  0  0  0  0
  191.5050  177.0720  139.7970 N   0  0  0  0  0  0  0  0  0  0  0  0
  191.3180  177.3240  140.9110 C   0  0  0  0  0  0  0  0  0  0  0  0
  1  7  1  0  0  0  0
  2  1  2  0  0  0  0
  3 11  1  6  0  0  0
  3  9  1  0  0  0  0
  4  8  1  0  0  0  0
  5  2  1  0  0  0  0
  5  6  1  0  0  0  0
  6  3  1  0  0  0  0
  8  7  2  0  0  0  0
  9  1  1  6  0  0  0
  9 19  1  0  0  0  0
 10  2  1  0  0  0  0
 10  4  2  0  0  0  0
 11 14  1  0  0  0  0
 12 13  2  0  0  0  0
 12 15  1  0  0  0  0
 13 11  1  0  0  0  0
 15 14  2  0  0  0  0
 16 15  1  0  0  0  0
 16 17  1  0  0  0  0
 19 21  1  0  0  0  0
 19 20  1  1  0  0  0
 20 18  2  0  0  0  0
 21 22  1  1  0  0  0
 21 20  1  0  0  0  0
 23 22  1  0  0  0  0
 24 25  3  0  0  0  0
 25 10  1  0  0  0  0
M  END
>  <MODEL>
1

>  <REMARK>
 VINA RESULT:      -7.4      0.000      0.000
  Name = 
  5 active torsions:
  status: ('A' for Active; 'I' for Inactive)
    1  A    between atoms: C_1  and  C_25
    2  A    between atoms: C_2  and  CA_23
    3  A    between atoms: C_5  and  N_10
    4  A    between atoms: C_13  and  C_17
    5  A    between atoms: C_19  and  C_24
                            x       y       z     vdW  Elec       q    Type
                         _______ _______ _______ _____ _____    ______ ____

>  <TORSDO>
F 5

$$$$
=
 OpenBabel11032419173D

 25 28  0  0  1  0  0  0  0  0999 V2000
  189.6990  177.7280  142.4410 C   0  0  0  0  0  0  0  0  0  0  0  0
  191.0100  177.7840  141.9450 C   0  0  0  0  0  0  0  0  0  0  0  0
  190.7420  178.4560  144.6430 C   0  0  1  0  0  3  0  0  0  0  0  0
  190.2670  176.8460  139.8420 C   0  0  0  0  0  3  0  0  0  0  0  0
  192.0330  178.2660  142.8210 N   0  0  0  0  0  2  0  0  0  0  0  0
  191.7140  179.1060  143.8460 O   0  0  0  0  0  0  0  0  0  0  0  0
  188.6670  177.2730  141.6100 C   0  0  0  0  0  3  0  0  0  0  0  0
  188.9510  176.8330  140.3140 C   0  0  0  0  0  3  0  0  0  0  0  0
  189.4270  178.2100  143.8510 C   0  0  2  0  0  3  0  0  0  0  0  0
  191.3030  177.3130  140.6560 C   0  0  0  0  0  0  0  0  0  0  0  0
  191.2810  177.2620  145.3020 N   0  0  0  0  0  0  0  0  0  0  0  0
  192.1260  175.2270  145.6420 N   0  0  0  0  0  0  0  0  0  0  0  0
  191.6500  176.0980  144.7300 C   0  0  0  0  0  3  0  0  0  0  0  0
  191.5300  177.1600  146.6170 C   0  0  0  0  0  3  0  0  0  0  0  0
  192.0370  175.8940  146.8100 C   0  0  0  0  0  0  0  0  0  0  0  0
  192.4970  175.3440  148.1130 C   0  0  0  0  0  2  0  0  0  0  0  0
  193.2060  176.3210  148.8100 O   0  0  0  0  0  1  0  0  0  0  0  0
  186.0060  178.1260  143.9470 O   0  0  0  0  0  0  0  0  0  0  0  0
  188.4580  177.2990  144.6090 C   0  0  2  0  0  3  0  0  0  0  0  0
  187.0480  177.8880  144.5380 C   0  0  0  0  0  0  0  0  0  0  0  0
  187.9420  177.9510  145.7730 C   0  0  1  0  0  3  0  0  0  0  0  0
  187.4660  176.9240  146.7810 C   0  0  0  0  0  2  0  0  0  0  0  0
  188.2750  176.9750  147.9150 O   0  0  0  0  0  1  0  0  0  0  0  0
  193.7310  177.3280  139.7370 N   0  0  0  0  0  0  0  0  0  0  0  0
  192.6490  177.3210  140.1460 C   0  0  0  0  0  0  0  0  0  0  0  0
  2  1  1  0  0  0  0
  2  5  1  0  0  0  0
  3 11  1  6  0  0  0
  4  8  2  0  0  0  0
  4 10  1  0  0  0  0
  5  6  1  0  0  0  0
  6  3  1  0  0  0  0
  7  1  2  0  0  0  0
  8  7  1  0  0  0  0
  9  1  1  6  0  0  0
  9 19  1  0  0  0  0
  9  3  1  0  0  0  0
 10  2  2  0  0  0  0
 11 14  1  0  0  0  0
 12 15  1  0  0  0  0
 13 11  1  0  0  0  0
 13 12  2  0  0  0  0
 14 15  2  0  0  0  0
 15 16  1  0  0  0  0
 16 17  1  0  0  0  0
 18 20  2  0  0  0  0
 19 20  1  6  0  0  0
 19 21  1  0  0  0  0
 20 21  1  0  0  0  0
 21 22  1  1  0  0  0
 22 23  1  0  0  0  0
 24 25  3  0  0  0  0
 25 10  1  0  0  0  0
M  END
>  <MODEL>
2

>  <REMARK>
 VINA RESULT:      -7.0      2.660      5.388
  Name = 
  5 active torsions:
  status: ('A' for Active; 'I' for Inactive)
    1  A    between atoms: C_1  and  C_25
    2  A    between atoms: C_2  and  CA_23
    3  A    between atoms: C_5  and  N_10
    4  A    between atoms: C_13  and  C_17
    5  A    between atoms: C_19  and  C_24
                            x       y       z     vdW  Elec       q    Type
                         _______ _______ _______ _____ _____    ______ ____

>  <TORSDO>
F 5

$$$$
=
 OpenBabel11032419173D

 25 28  0  0  1  0  0  0  0  0999 V2000
  189.5740  177.6430  139.9200 C   0  0  0  0  0  0  0  0  0  0  0  0
  188.3120  178.2550  139.9660 C   0  0  0  0  0  0  0  0  0  0  0  0
  189.3720  177.9370  137.4020 C   0  0  1  0  0  3  0  0  0  0  0  0
  188.1850  177.8360  142.3460 C   0  0  0  0  0  3  0  0  0  0  0  0
  187.7590  178.7340  138.7380 N   0  0  0  0  0  2  0  0  0  0  0  0
  188.5810  179.0700  137.7030 O   0  0  0  0  0  0  0  0  0  0  0  0
  190.1560  177.1730  141.1040 C   0  0  0  0  0  3  0  0  0  0  0  0
  189.4620  177.2680  142.3140 C   0  0  0  0  0  3  0  0  0  0  0  0
  190.2970  177.5530  138.5920 C   0  0  2  0  0  3  0  0  0  0  0  0
  187.6000  178.3250  141.1740 C   0  0  0  0  0  0  0  0  0  0  0  0
  188.5660  176.8270  136.8830 N   0  0  0  0  0  0  0  0  0  0  0  0
  187.5710  175.3980  135.4910 N   0  0  0  0  0  0  0  0  0  0  0  0
  188.3450  176.4970  135.5950 C   0  0  0  0  0  3  0  0  0  0  0  0
  187.9340  175.9200  137.6440 C   0  0  0  0  0  3  0  0  0  0  0  0
  187.3140  175.0560  136.7690 C   0  0  0  0  0  0  0  0  0  0  0  0
  186.5240  173.8580  137.1610 C   0  0  0  0  0  2  0  0  0  0  0  0
  187.3470  172.7340  137.1620 O   0  0  0  0  0  1  0  0  0  0  0  0
  193.5770  176.6070  138.8310 O   0  0  0  0  0  0  0  0  0  0  0  0
  190.9770  176.1990  138.3810 C   0  0  2  0  0  3  0  0  0  0  0  0
  192.4920  176.3970  138.3130 C   0  0  0  0  0  0  0  0  0  0  0  0
  191.6070  176.1320  137.0980 C   0  0  1  0  0  3  0  0  0  0  0  0
  191.7740  174.6880  136.6710 C   0  0  0  0  0  2  0  0  0  0  0  0
  190.8780  173.8860  137.3780 O   0  0  0  0  0  1  0  0  0  0  0  0
  185.2290  179.3760  141.2810 N   0  0  0  0  0  0  0  0  0  0  0  0
  186.2870  178.9080  141.2330 C   0  0  0  0  0  0  0  0  0  0  0  0
  1  2  2  0  0  0  0
  1  7  1  0  0  0  0
  2 10  1  0  0  0  0
  3 11  1  1  0  0  0
  3  6  1  0  0  0  0
  3  9  1  0  0  0  0
  5  2  1  0  0  0  0
  6  5  1  0  0  0  0
  7  8  2  0  0  0  0
  8  4  1  0  0  0  0
  9  1  1  1  0  0  0
 10 25  1  0  0  0  0
 10  4  2  0  0  0  0
 11 14  1  0  0  0  0
 12 13  2  0  0  0  0
 12 15  1  0  0  0  0
 13 11  1  0  0  0  0
 15 16  1  0  0  0  0
 15 14  2  0  0  0  0
 16 17  1  0  0  0  0
 19 20  1  1  0  0  0
 19  9  1  0  0  0  0
 20 18  2  0  0  0  0
 21 22  1  1  0  0  0
 21 20  1  0  0  0  0
 21 19  1  0  0  0  0
 22 23  1  0  0  0  0
 25 24  3  0  0  0  0
M  END
>  <MODEL>
3

>  <REMARK>
 VINA RESULT:      -6.7      4.596      7.628
  Name = 
  5 active torsions:
  status: ('A' for Active; 'I' for Inactive)
    1  A    between atoms: C_1  and  C_25
    2  A    between atoms: C_2  and  CA_23
    3  A    between atoms: C_5  and  N_10
    4  A    between atoms: C_13  and  C_17
    5  A    between atoms: C_19  and  C_24
                            x       y       z     vdW  Elec       q    Type
                         _______ _______ _______ _____ _____    ______ ____

>  <TORSDO>
F 5

$$$$
=
 OpenBabel11032419173D

 25 28  0  0  1  0  0  0  0  0999 V2000
  187.5240  177.6480  145.7650 C   0  0  0  0  0  0  0  0  0  0  0  0
  188.7990  177.0660  145.8110 C   0  0  0  0  0  0  0  0  0  0  0  0
  187.3970  176.6440  143.4320 C   0  0  1  0  0  3  0  0  0  0  0  0
  189.2290  178.1470  147.9320 C   0  0  0  0  0  3  0  0  0  0  0  0
  189.1990  176.2510  144.7060 N   0  0  0  0  0  2  0  0  0  0  0  0
  188.2580  175.6390  143.9320 O   0  0  0  0  0  0  0  0  0  0  0  0
  187.0900  178.4420  146.8350 C   0  0  0  0  0  3  0  0  0  0  0  0
  187.9420  178.6920  147.9150 C   0  0  0  0  0  3  0  0  0  0  0  0
  186.6280  177.3590  144.5780 C   0  0  2  0  0  3  0  0  0  0  0  0
  189.6680  177.3390  146.8790 C   0  0  0  0  0  0  0  0  0  0  0  0
  188.0910  177.5530  142.5140 N   0  0  0  0  0  0  0  0  0  0  0  0
  189.4160  179.1610  141.7190 N   0  0  0  0  0  0  0  0  0  0  0  0
  188.9500  178.5450  142.8240 C   0  0  0  0  0  3  0  0  0  0  0  0
  187.9980  177.5070  141.1760 C   0  0  0  0  0  3  0  0  0  0  0  0
  188.8100  178.5140  140.7040 C   0  0  0  0  0  0  0  0  0  0  0  0
  189.0550  178.8170  139.2680 C   0  0  0  0  0  2  0  0  0  0  0  0
  187.8810  178.6280  138.5420 O   0  0  0  0  0  1  0  0  0  0  0  0
  183.8050  178.9110  145.7350 O   0  0  0  0  0  0  0  0  0  0  0  0
  185.8830  178.6020  144.0860 C   0  0  2  0  0  3  0  0  0  0  0  0
  184.5170  178.6790  144.7710 C   0  0  0  0  0  0  0  0  0  0  0  0
  184.7270  178.2420  143.3230 C   0  0  1  0  0  3  0  0  0  0  0  0
  184.3320  179.3780  142.4020 C   0  0  0  0  0  2  0  0  0  0  0  0
  185.4290  179.7510  141.6260 O   0  0  0  0  0  1  0  0  0  0  0  0
  192.0640  176.3440  146.9550 N   0  0  0  0  0  0  0  0  0  0  0  0
  190.9960  176.7870  146.9220 C   0  0  0  0  0  0  0  0  0  0  0  0
  1  2  2  0  0  0  0
  1  7  1  0  0  0  0
  2 10  1  0  0  0  0
  3 11  1  1  0  0  0
  3  6  1  0  0  0  0
  3  9  1  0  0  0  0
  5  2  1  0  0  0  0
  6  5  1  0  0  0  0
  7  8  2  0  0  0  0
  8  4  1  0  0  0  0
  9  1  1  1  0  0  0
 10 25  1  0  0  0  0
 10  4  2  0  0  0  0
 11 13  1  0  0  0  0
 12 13  2  0  0  0  0
 14 11  1  0  0  0  0
 15 14  2  0  0  0  0
 15 12  1  0  0  0  0
 16 15  1  0  0  0  0
 17 16  1  0  0  0  0
 19  9  1  0  0  0  0
 19 20  1  1  0  0  0
 20 18  2  0  0  0  0
 21 22  1  6  0  0  0
 21 19  1  0  0  0  0
 21 20  1  0  0  0  0
 23 22  1  0  0  0  0
 25 24  3  0  0  0  0
M  END
>  <MODEL>
4

>  <REMARK>
 VINA RESULT:      -6.6      2.321      4.437
  Name = 
  5 active torsions:
  status: ('A' for Active; 'I' for Inactive)
    1  A    between atoms: C_1  and  C_25
    2  A    between atoms: C_2  and  CA_23
    3  A    between atoms: C_5  and  N_10
    4  A    between atoms: C_13  and  C_17
    5  A    between atoms: C_19  and  C_24
                            x       y       z     vdW  Elec       q    Type
                         _______ _______ _______ _____ _____    ______ ____

>  <TORSDO>
F 5

$$$$
=
 OpenBabel11032419173D

 25 28  0  0  1  0  0  0  0  0999 V2000
  189.7810  177.6330  139.9500 C   0  0  0  0  0  0  0  0  0  0  0  0
  188.5320  178.2520  140.1010 C   0  0  0  0  0  0  0  0  0  0  0  0
  189.4020  177.9830  137.4600 C   0  0  1  0  0  3  0  0  0  0  0  0
  188.5720  177.7820  142.4740 C   0  0  0  0  0  3  0  0  0  0  0  0
  187.8950  178.7620  138.9260 N   0  0  0  0  0  2  0  0  0  0  0  0
  188.6440  179.1150  137.8420 O   0  0  0  0  0  0  0  0  0  0  0  0
  190.4430  177.1320  141.0790 C   0  0  0  0  0  3  0  0  0  0  0  0
  189.8380  177.2060  142.3380 C   0  0  0  0  0  3  0  0  0  0  0  0
  190.4060  177.5670  138.5720 C   0  0  2  0  0  3  0  0  0  0  0  0
  187.9090  178.3000  141.3580 C   0  0  0  0  0  0  0  0  0  0  0  0
  188.5510  176.8910  136.9770 N   0  0  0  0  0  0  0  0  0  0  0  0
  187.3700  175.0020  136.8910 N   0  0  0  0  0  0  0  0  0  0  0  0
  188.1790  175.7770  137.6410 C   0  0  0  0  0  3  0  0  0  0  0  0
  187.9650  176.8530  135.7700 C   0  0  0  0  0  3  0  0  0  0  0  0
  187.2530  175.6750  135.7300 C   0  0  0  0  0  0  0  0  0  0  0  0
  186.4050  175.2240  134.5950 C   0  0  0  0  0  2  0  0  0  0  0  0
  185.5230  174.2370  135.0330 O   0  0  0  0  0  1  0  0  0  0  0  0
  193.6620  176.5330  138.7780 O   0  0  0  0  0  0  0  0  0  0  0  0
  191.0570  176.2120  138.2840 C   0  0  2  0  0  3  0  0  0  0  0  0
  192.5780  176.3800  138.2400 C   0  0  0  0  0  0  0  0  0  0  0  0
  191.6970  176.2090  137.0040 C   0  0  1  0  0  3  0  0  0  0  0  0
  191.8360  174.7910  136.4910 C   0  0  0  0  0  2  0  0  0  0  0  0
  191.4260  173.8960  137.4790 O   0  0  0  0  0  1  0  0  0  0  0  0
  185.5610  179.3670  141.6590 N   0  0  0  0  0  0  0  0  0  0  0  0
  186.6080  178.8910  141.5240 C   0  0  0  0  0  0  0  0  0  0  0  0
  1  2  2  0  0  0  0
  1  7  1  0  0  0  0
  2 10  1  0  0  0  0
  3 11  1  1  0  0  0
  3  6  1  0  0  0  0
  3  9  1  0  0  0  0
  5  2  1  0  0  0  0
  6  5  1  0  0  0  0
  7  8  2  0  0  0  0
  8  4  1  0  0  0  0
  9  1  1  1  0  0  0
 10 25  1  0  0  0  0
 10  4  2  0  0  0  0
 11 13  1  0  0  0  0
 12 13  2  0  0  0  0
 14 11  1  0  0  0  0
 15 14  2  0  0  0  0
 15 12  1  0  0  0  0
 16 17  1  0  0  0  0
 16 15  1  0  0  0  0
 19 20  1  1  0  0  0
 19  9  1  0  0  0  0
 20 18  2  0  0  0  0
 21 22  1  1  0  0  0
 21 20  1  0  0  0  0
 21 19  1  0  0  0  0
 22 23  1  0  0  0  0
 25 24  3  0  0  0  0
M  END
>  <MODEL>
5

>  <REMARK>
 VINA RESULT:      -6.5      4.652      7.683
  Name = 
  5 active torsions:
  status: ('A' for Active; 'I' for Inactive)
    1  A    between atoms: C_1  and  C_25
    2  A    between atoms: C_2  and  CA_23
    3  A    between atoms: C_5  and  N_10
    4  A    between atoms: C_13  and  C_17
    5  A    between atoms: C_19  and  C_24
                            x       y       z     vdW  Elec       q    Type
                         _______ _______ _______ _____ _____    ______ ____

>  <TORSDO>
F 5

$$$$
=
 OpenBabel11032419173D

 25 28  0  0  1  0  0  0  0  0999 V2000
  188.5720  178.0300  139.9090 C   0  0  0  0  0  0  0  0  0  0  0  0
  187.2790  178.4600  139.5760 C   0  0  0  0  0  0  0  0  0  0  0  0
  188.9650  178.0030  137.3960 C   0  0  1  0  0  3  0  0  0  0  0  0
  186.6170  178.3010  141.8990 C   0  0  0  0  0  3  0  0  0  0  0  0
  186.9950  178.7120  138.1970 N   0  0  0  0  0  2  0  0  0  0  0  0
  188.0040  179.0410  137.3420 O   0  0  0  0  0  0  0  0  0  0  0  0
  188.8940  177.7850  141.2500 C   0  0  0  0  0  3  0  0  0  0  0  0
  187.9170  177.9190  142.2420 C   0  0  0  0  0  3  0  0  0  0  0  0
  189.6040  177.8930  138.8090 C   0  0  2  0  0  3  0  0  0  0  0  0
  186.2890  178.5660  140.5660 C   0  0  0  0  0  0  0  0  0  0  0  0
  188.4370  176.7390  136.8730 N   0  0  0  0  0  0  0  0  0  0  0  0
  188.0540  174.9870  135.5480 N   0  0  0  0  0  0  0  0  0  0  0  0
  188.6990  176.1640  135.6820 C   0  0  0  0  0  3  0  0  0  0  0  0
  187.6110  175.9190  137.5420 C   0  0  0  0  0  3  0  0  0  0  0  0
  187.3750  174.8520  136.7040 C   0  0  0  0  0  0  0  0  0  0  0  0
  186.5430  173.6650  137.0400 C   0  0  0  0  0  2  0  0  0  0  0  0
  185.3190  174.0830  137.5600 O   0  0  0  0  0  1  0  0  0  0  0  0
  192.6570  177.3890  140.2740 O   0  0  0  0  0  0  0  0  0  0  0  0
  190.4600  176.6320  138.9580 C   0  0  2  0  0  3  0  0  0  0  0  0
  191.8650  177.0240  139.4200 C   0  0  0  0  0  0  0  0  0  0  0  0
  191.5160  176.6080  137.9930 C   0  0  1  0  0  3  0  0  0  0  0  0
  191.9850  175.1870  137.7640 C   0  0  0  0  0  2  0  0  0  0  0  0
  190.9120  174.3100  137.9260 O   0  0  0  0  0  1  0  0  0  0  0  0
  183.8640  179.2770  139.9730 N   0  0  0  0  0  0  0  0  0  0  0  0
  184.9450  178.9610  140.2370 C   0  0  0  0  0  0  0  0  0  0  0  0
  1  7  1  0  0  0  0
  2  1  2  0  0  0  0
  2 10  1  0  0  0  0
  3 11  1  1  0  0  0
  3  9  1  0  0  0  0
  4  8  1  0  0  0  0
  5  2  1  0  0  0  0
  6  3  1  0  0  0  0
  6  5  1  0  0  0  0
  7  8  2  0  0  0  0
  9 19  1  0  0  0  0
  9  1  1  1  0  0  0
 10  4  2  0  0  0  0
 11 14  1  0  0  0  0
 12 13  2  0  0  0  0
 12 15  1  0  0  0  0
 13 11  1  0  0  0  0
 15 16  1  0  0  0  0
 15 14  2  0  0  0  0
 16 17  1  0  0  0  0
 19 20  1  1  0  0  0
 20 18  2  0  0  0  0
 21 22  1  1  0  0  0
 21 19  1  0  0  0  0
 21 20  1  0  0  0  0
 22 23  1  0  0  0  0
 24 25  3  0  0  0  0
 25 10  1  0  0  0  0
M  END
>  <MODEL>
6

>  <REMARK>
 VINA RESULT:      -6.1      4.630      7.449
  Name = 
  5 active torsions:
  status: ('A' for Active; 'I' for Inactive)
    1  A    between atoms: C_1  and  C_25
    2  A    between atoms: C_2  and  CA_23
    3  A    between atoms: C_5  and  N_10
    4  A    between atoms: C_13  and  C_17
    5  A    between atoms: C_19  and  C_24
                            x       y       z     vdW  Elec       q    Type
                         _______ _______ _______ _____ _____    ______ ____

>  <TORSDO>
F 5

$$$$
=
 OpenBabel11032419173D

 25 28  0  0  1  0  0  0  0  0999 V2000
  184.0190  178.2610  141.1450 C   0  0  0  0  0  0  0  0  0  0  0  0
  184.6960  178.1560  139.9210 C   0  0  0  0  0  0  0  0  0  0  0  0
  186.1770  179.3090  141.9900 C   0  0  1  0  0  3  0  0  0  0  0  0
  182.8450  176.9040  138.9920 C   0  0  0  0  0  3  0  0  0  0  0  0
  186.0040  178.7280  139.8310 N   0  0  0  0  0  2  0  0  0  0  0  0
  186.3590  179.7530  140.6590 O   0  0  0  0  0  0  0  0  0  0  0  0
  182.7310  177.7250  141.2680 C   0  0  0  0  0  3  0  0  0  0  0  0
  182.1460  177.0470  140.1940 C   0  0  0  0  0  3  0  0  0  0  0  0
  184.6830  178.9990  142.2890 C   0  0  2  0  0  3  0  0  0  0  0  0
  184.1250  177.4500  138.8510 C   0  0  0  0  0  0  0  0  0  0  0  0
  187.0980  178.2220  142.3360 N   0  0  0  0  0  0  0  0  0  0  0  0
  187.9380  176.3530  143.2130 N   0  0  0  0  0  0  0  0  0  0  0  0
  186.8670  177.1680  143.1450 C   0  0  0  0  0  3  0  0  0  0  0  0
  188.3440  178.0920  141.8530 C   0  0  0  0  0  3  0  0  0  0  0  0
  188.8510  176.9410  142.4160 C   0  0  0  0  0  0  0  0  0  0  0  0
  190.1960  176.3710  142.1370 C   0  0  0  0  0  2  0  0  0  0  0  0
  190.4800  175.3680  143.0630 O   0  0  0  0  0  1  0  0  0  0  0  0
  182.0100  178.8570  144.4220 O   0  0  0  0  0  0  0  0  0  0  0  0
  184.4980  178.2920  143.6330 C   0  0  2  0  0  3  0  0  0  0  0  0
  183.2240  178.8060  144.3060 C   0  0  0  0  0  0  0  0  0  0  0  0
  184.6370  179.2090  144.7220 C   0  0  1  0  0  3  0  0  0  0  0  0
  185.0090  178.4670  145.9890 C   0  0  0  0  0  2  0  0  0  0  0  0
  185.4160  179.3800  146.9610 O   0  0  0  0  0  1  0  0  0  0  0  0
  185.3840  177.1660  136.5980 N   0  0  0  0  0  0  0  0  0  0  0  0
  184.8230  177.2930  137.6020 C   0  0  0  0  0  0  0  0  0  0  0  0
  1  7  1  0  0  0  0
  2  1  2  0  0  0  0
  3  9  1  0  0  0  0
  3 11  1  6  0  0  0
  4  8  1  0  0  0  0
  5  2  1  0  0  0  0
  5  6  1  0  0  0  0
  6  3  1  0  0  0  0
  8  7  2  0  0  0  0
  9  1  1  6  0  0  0
  9 19  1  0  0  0  0
 10  4  2  0  0  0  0
 10  2  1  0  0  0  0
 11 13  1  0  0  0  0
 13 12  2  0  0  0  0
 14 11  1  0  0  0  0
 14 15  2  0  0  0  0
 15 12  1  0  0  0  0
 16 15  1  0  0  0  0
 16 17  1  0  0  0  0
 19 20  1  6  0  0  0
 19 21  1  0  0  0  0
 20 18  2  0  0  0  0
 20 21  1  0  0  0  0
 21 22  1  1  0  0  0
 22 23  1  0  0  0  0
 24 25  3  0  0  0  0
 25 10  1  0  0  0  0
M  END
>  <MODEL>
7

>  <REMARK>
 VINA RESULT:      -5.9      2.719      6.062
  Name = 
  5 active torsions:
  status: ('A' for Active; 'I' for Inactive)
    1  A    between atoms: C_1  and  C_25
    2  A    between atoms: C_2  and  CA_23
    3  A    between atoms: C_5  and  N_10
    4  A    between atoms: C_13  and  C_17
    5  A    between atoms: C_19  and  C_24
                            x       y       z     vdW  Elec       q    Type
                         _______ _______ _______ _____ _____    ______ ____

>  <TORSDO>
F 5

$$$$
=
 OpenBabel11032419173D

 25 28  0  0  1  0  0  0  0  0999 V2000
  189.7760  177.4570  139.0940 C   0  0  0  0  0  0  0  0  0  0  0  0
  188.5770  178.0560  139.5100 C   0  0  0  0  0  0  0  0  0  0  0  0
  188.8710  177.8080  136.7430 C   0  0  1  0  0  3  0  0  0  0  0  0
  189.1270  177.5800  141.8180 C   0  0  0  0  0  3  0  0  0  0  0  0
  187.6980  178.5580  138.5000 N   0  0  0  0  0  2  0  0  0  0  0  0
  188.1940  178.9260  137.2850 O   0  0  0  0  0  0  0  0  0  0  0  0
  190.6700  176.9650  140.0540 C   0  0  0  0  0  3  0  0  0  0  0  0
  190.3450  177.0250  141.4130 C   0  0  0  0  0  3  0  0  0  0  0  0
  190.0950  177.4060  137.6150 C   0  0  2  0  0  3  0  0  0  0  0  0
  188.2340  178.0900  140.8710 C   0  0  0  0  0  0  0  0  0  0  0  0
  187.9550  176.7030  136.4450 N   0  0  0  0  0  0  0  0  0  0  0  0
  186.6030  175.3040  135.3570 N   0  0  0  0  0  0  0  0  0  0  0  0
  187.3670  176.4110  135.2670 C   0  0  0  0  0  3  0  0  0  0  0  0
  187.5780  175.7630  137.3260 C   0  0  0  0  0  3  0  0  0  0  0  0
  186.7340  174.9180  136.6410 C   0  0  0  0  0  0  0  0  0  0  0  0
  186.0990  173.6960  137.2050 C   0  0  0  0  0  2  0  0  0  0  0  0
  184.8480  174.0180  137.7290 O   0  0  0  0  0  1  0  0  0  0  0  0
  193.3410  176.3480  137.3690 O   0  0  0  0  0  0  0  0  0  0  0  0
  190.6920  176.0630  137.1870 C   0  0  2  0  0  3  0  0  0  0  0  0
  192.1970  176.2250  136.9620 C   0  0  0  0  0  0  0  0  0  0  0  0
  191.1690  176.1170  135.8390 C   0  0  1  0  0  3  0  0  0  0  0  0
  191.2280  174.7240  135.2480 C   0  0  0  0  0  2  0  0  0  0  0  0
  190.1660  173.9640  135.7380 O   0  0  0  0  0  1  0  0  0  0  0  0
  185.9870  179.1150  141.6680 N   0  0  0  0  0  0  0  0  0  0  0  0
  186.9890  178.6590  141.3130 C   0  0  0  0  0  0  0  0  0  0  0  0
  1  2  2  0  0  0  0
  1  7  1  0  0  0  0
  2 10  1  0  0  0  0
  3 11  1  1  0  0  0
  3  6  1  0  0  0  0
  3  9  1  0  0  0  0
  5  2  1  0  0  0  0
  6  5  1  0  0  0  0
  7  8  2  0  0  0  0
  8  4  1  0  0  0  0
  9  1  1  1  0  0  0
 10 25  1  0  0  0  0
 10  4  2  0  0  0  0
 11 14  1  0  0  0  0
 12 15  1  0  0  0  0
 13 12  2  0  0  0  0
 13 11  1  0  0  0  0
 15 16  1  0  0  0  0
 15 14  2  0  0  0  0
 16 17  1  0  0  0  0
 19 20  1  1  0  0  0
 19  9  1  0  0  0  0
 20 18  2  0  0  0  0
 21 22  1  6  0  0  0
 21 20  1  0  0  0  0
 21 19  1  0  0  0  0
 22 23  1  0  0  0  0
 25 24  3  0  0  0  0
M  END
>  <MODEL>
8

>  <REMARK>
 VINA RESULT:      -5.9      4.985      7.966
  Name = 
  5 active torsions:
  status: ('A' for Active; 'I' for Inactive)
    1  A    between atoms: C_1  and  C_25
    2  A    between atoms: C_2  and  CA_23
    3  A    between atoms: C_5  and  N_10
    4  A    between atoms: C_13  and  C_17
    5  A    between atoms: C_19  and  C_24
                            x       y       z     vdW  Elec       q    Type
                         _______ _______ _______ _____ _____    ______ ____

>  <TORSDO>
F 5

$$$$
=
 OpenBabel11032419173D

 25 28  0  0  1  0  0  0  0  0999 V2000
  184.1120  177.4730  138.2320 C   0  0  0  0  0  0  0  0  0  0  0  0
  185.3030  178.2090  138.3160 C   0  0  0  0  0  0  0  0  0  0  0  0
  183.1650  179.2570  139.7760 C   0  0  1  0  0  3  0  0  0  0  0  0
  186.4670  176.4890  137.0740 C   0  0  0  0  0  3  0  0  0  0  0  0
  185.2740  179.4430  139.0380 N   0  0  0  0  0  2  0  0  0  0  0  0
  184.1020  180.1280  139.1720 O   0  0  0  0  0  0  0  0  0  0  0  0
  184.0970  176.2650  137.5210 C   0  0  0  0  0  3  0  0  0  0  0  0
  185.2730  175.7740  136.9460 C   0  0  0  0  0  3  0  0  0  0  0  0
  182.8580  178.0320  138.8700 C   0  0  2  0  0  3  0  0  0  0  0  0
  186.4920  177.7040  137.7650 C   0  0  0  0  0  0  0  0  0  0  0  0
  183.5460  178.9110  141.1490 N   0  0  0  0  0  0  0  0  0  0  0  0
  184.7300  178.2530  142.9200 N   0  0  0  0  0  0  0  0  0  0  0  0
  184.7310  178.4370  141.5840 C   0  0  0  0  0  3  0  0  0  0  0  0
  182.7510  179.0520  142.2220 C   0  0  0  0  0  3  0  0  0  0  0  0
  183.4930  178.6280  143.3020 C   0  0  0  0  0  0  0  0  0  0  0  0
  183.0350  178.6430  144.7170 C   0  0  0  0  0  2  0  0  0  0  0  0
  184.0940  179.0030  145.5490 O   0  0  0  0  0  1  0  0  0  0  0  0
  180.6090  175.7220  137.7200 O   0  0  0  0  0  0  0  0  0  0  0  0
  182.0420  176.9640  139.6010 C   0  0  2  0  0  3  0  0  0  0  0  0
  180.9680  176.4120  138.6600 C   0  0  0  0  0  0  0  0  0  0  0  0
  180.6910  177.3910  139.7980 C   0  0  1  0  0  3  0  0  0  0  0  0
  180.0660  176.6390  140.9550 C   0  0  0  0  0  2  0  0  0  0  0  0
  179.3060  177.5180  141.7260 O   0  0  0  0  0  1  0  0  0  0  0  0
  188.7300  179.0030  137.9750 N   0  0  0  0  0  0  0  0  0  0  0  0
  187.7320  178.4230  137.8810 C   0  0  0  0  0  0  0  0  0  0  0  0
  1  2  1  0  0  0  0
  2  5  1  0  0  0  0
  3 11  1  1  0  0  0
  4 10  1  0  0  0  0
  5  6  1  0  0  0  0
  6  3  1  0  0  0  0
  7  1  2  0  0  0  0
  8  4  2  0  0  0  0
  8  7  1  0  0  0  0
  9  1  1  1  0  0  0
  9 19  1  0  0  0  0
  9  3  1  0  0  0  0
 10 25  1  0  0  0  0
 10  2  2  0  0  0  0
 11 13  1  0  0  0  0
 11 14  1  0  0  0  0
 12 15  1  0  0  0  0
 13 12  2  0  0  0  0
 14 15  2  0  0  0  0
 15 16  1  0  0  0  0
 16 17  1  0  0  0  0
 18 20  2  0  0  0  0
 19 20  1  6  0  0  0
 19 21  1  0  0  0  0
 20 21  1  0  0  0  0
 21 22  1  1  0  0  0
 22 23  1  0  0  0  0
 25 24  3  0  0  0  0
M  END
>  <MODEL>
9

>  <REMARK>
 VINA RESULT:      -5.6      4.572      7.220
  Name = 
  5 active torsions:
  status: ('A' for Active; 'I' for Inactive)
    1  A    between atoms: C_1  and  C_25
    2  A    between atoms: C_2  and  CA_23
    3  A    between atoms: C_5  and  N_10
    4  A    between atoms: C_13  and  C_17
    5  A    between atoms: C_19  and  C_24
                            x       y       z     vdW  Elec       q    Type
                         _______ _______ _______ _____ _____    ______ ____

>  <TORSDO>
F 5

$$$$
