=
 OpenBabel11032421293D

 26 29  0  0  1  0  0  0  0  0999 V2000
  188.1440  177.0490  146.4320 C   0  0  1  0  0  3  0  0  0  0  0  0
  186.4360  178.8140  146.5140 C   0  0  0  0  0  3  0  0  0  0  0  0
  186.3870  177.2060  144.5470 C   0  0  1  0  0  3  0  0  0  0  0  0
  187.3310  176.2920  143.8860 N   0  0  0  0  0  0  0  0  0  0  0  0
  189.5520  178.0910  148.5880 N   0  0  0  0  0  2  0  0  0  0  0  0
  189.1770  177.9350  143.6000 C   0  0  2  0  0  3  0  0  0  0  0  0
  189.2810  175.7240  142.7270 O   0  0  0  0  0  0  0  0  0  0  0  0
  184.1700  178.8850  145.4570 C   0  0  0  0  0  2  0  0  0  0  0  0
  186.9500  177.7540  145.8510 C   0  0  0  0  0  0  0  0  0  0  0  0
  189.4100  177.8410  146.2430 C   0  0  0  0  0  0  0  0  0  0  0  0
  190.3890  176.3840  142.1470 C   0  0  0  0  0  2  0  0  0  0  0  0
  189.9670  178.1100  144.8940 C   0  0  0  0  0  0  0  0  0  0  0  0
  188.2290  177.6690  148.8070 N   0  0  0  0  0  2  0  0  0  0  0  0
  188.5290  176.5990  143.4760 C   0  0  0  0  0  0  0  0  0  0  0  0
  190.1440  177.8740  142.4110 C   0  0  0  0  0  2  0  0  0  0  0  0
  190.0460  178.2850  147.2870 N   0  0  0  0  0  0  0  0  0  0  0  0
  187.9490  176.5800  147.8800 C   0  0  0  0  0  2  0  0  0  0  0  0
  191.1260  178.6080  144.8300 O   0  0  0  0  0  0  0  0  0  0  0  0
  185.8420  178.2950  143.5950 C   0  0  2  0  0  3  0  0  0  0  0  0
  185.2990  179.6930  146.0690 C   0  0  0  0  0  2  0  0  0  0  0  0
  184.4000  178.6870  143.9600 C   0  0  0  0  0  2  0  0  0  0  0  0
  185.9370  177.9200  142.1100 C   0  0  1  0  0  3  0  0  0  0  0  0
  184.6650  177.7610  141.5520 O   0  0  0  0  0  1  0  0  0  0  0  0
  186.7340  178.9620  141.3370 C   0  0  0  0  0  2  0  0  0  0  0  0
  186.7720  178.6370  138.9690 O   0  0  0  0  0  1  0  0  0  0  0  0
  187.4460  178.3320  140.1510 C   0  0  0  0  0  2  0  0  0  0  0  0
  1 17  1  1  0  0  0
  3  4  1  6  0  0  0
  3  9  1  0  0  0  0
  5 13  1  0  0  0  0
  6 15  1  6  0  0  0
  6 12  1  0  0  0  0
  7 14  1  0  0  0  0
  8 20  1  0  0  0  0
  9  1  1  0  0  0  0
  9  2  2  0  0  0  0
 10  1  1  0  0  0  0
 10 16  2  0  0  0  0
 11 15  1  0  0  0  0
 11  7  1  0  0  0  0
 12 10  1  0  0  0  0
 14  6  1  0  0  0  0
 14  4  2  0  0  0  0
 16  5  1  0  0  0  0
 17 13  1  0  0  0  0
 18 12  2  0  0  0  0
 19 22  1  6  0  0  0
 19 21  1  0  0  0  0
 19  3  1  0  0  0  0
 20  2  1  0  0  0  0
 21  8  1  0  0  0  0
 22 23  1  6  0  0  0
 24 22  1  0  0  0  0
 25 26  1  0  0  0  0
 26 24  1  0  0  0  0
M  END
>  <MODEL>
1

>  <REMARK>
 VINA RESULT:      -7.6      0.000      0.000
  Name = 
  3 active torsions:
  status: ('A' for Active; 'I' for Inactive)
    1  A    between atoms: C_3  and  C_14
    2  A    between atoms: C_3  and  C_24
    3  A    between atoms: C_14  and  C_23
                            x       y       z     vdW  Elec       q    Type
                         _______ _______ _______ _____ _____    ______ ____

>  <TORSDO>
F 3

$$$$
=
 OpenBabel11032421293D

 26 29  0  0  1  0  0  0  0  0999 V2000
  189.3870  176.7690  145.6950 C   0  0  1  0  0  3  0  0  0  0  0  0
  187.9000  178.3520  146.8450 C   0  0  0  0  0  3  0  0  0  0  0  0
  186.9690  177.0860  144.8480 C   0  0  1  0  0  3  0  0  0  0  0  0
  187.5140  176.3710  143.6820 N   0  0  0  0  0  0  0  0  0  0  0  0
  191.6160  177.5580  147.1530 N   0  0  0  0  0  2  0  0  0  0  0  0
  189.0340  178.1850  142.9130 C   0  0  2  0  0  3  0  0  0  0  0  0
  188.7330  176.1610  141.6970 O   0  0  0  0  0  0  0  0  0  0  0  0
  185.4000  178.4080  146.9340 C   0  0  0  0  0  2  0  0  0  0  0  0
  188.0600  177.4600  145.8420 C   0  0  0  0  0  0  0  0  0  0  0  0
  190.4330  177.6830  145.1120 C   0  0  0  0  0  0  0  0  0  0  0  0
  189.4610  176.9960  140.8180 C   0  0  0  0  0  2  0  0  0  0  0  0
  190.3220  178.2120  143.7300 C   0  0  0  0  0  0  0  0  0  0  0  0
  190.5330  177.0000  147.8550 N   0  0  0  0  0  2  0  0  0  0  0  0
  188.3990  176.8390  142.8480 C   0  0  0  0  0  0  0  0  0  0  0  0
  189.3620  178.3980  141.4290 C   0  0  0  0  0  2  0  0  0  0  0  0
  191.4710  178.0010  145.8270 N   0  0  0  0  0  0  0  0  0  0  0  0
  189.8660  176.0570  146.9670 C   0  0  0  0  0  2  0  0  0  0  0  0
  191.3270  178.8070  143.2510 O   0  0  0  0  0  0  0  0  0  0  0  0
  186.0540  178.2670  144.4510 C   0  0  2  0  0  3  0  0  0  0  0  0
  186.6850  179.1950  147.1180 C   0  0  0  0  0  2  0  0  0  0  0  0
  184.9310  178.4750  145.4820 C   0  0  0  0  0  2  0  0  0  0  0  0
  185.4700  178.1470  143.0380 C   0  0  1  0  0  3  0  0  0  0  0  0
  184.0790  178.0130  143.0810 O   0  0  0  0  0  1  0  0  0  0  0  0
  185.8660  179.3440  142.1830 C   0  0  0  0  0  2  0  0  0  0  0  0
  184.8550  179.7160  140.0490 O   0  0  0  0  0  1  0  0  0  0  0  0
  185.8460  178.9870  140.7060 C   0  0  0  0  0  2  0  0  0  0  0  0
  1  9  1  0  0  0  0
  1 17  1  1  0  0  0
  2 20  1  0  0  0  0
  3  4  1  6  0  0  0
  3  9  1  0  0  0  0
  5 13  1  0  0  0  0
  6 15  1  6  0  0  0
  6 12  1  0  0  0  0
  7 14  1  0  0  0  0
  8 20  1  0  0  0  0
  9  2  2  0  0  0  0
 10  1  1  0  0  0  0
 10 16  2  0  0  0  0
 11 15  1  0  0  0  0
 11  7  1  0  0  0  0
 12 10  1  0  0  0  0
 14  6  1  0  0  0  0
 14  4  2  0  0  0  0
 16  5  1  0  0  0  0
 17 13  1  0  0  0  0
 18 12  2  0  0  0  0
 19 22  1  6  0  0  0
 19  3  1  0  0  0  0
 19 21  1  0  0  0  0
 21  8  1  0  0  0  0
 22 23  1  1  0  0  0
 24 22  1  0  0  0  0
 25 26  1  0  0  0  0
 26 24  1  0  0  0  0
M  END
>  <MODEL>
2

>  <REMARK>
 VINA RESULT:      -7.4      1.389      1.617
  Name = 
  3 active torsions:
  status: ('A' for Active; 'I' for Inactive)
    1  A    between atoms: C_3  and  C_14
    2  A    between atoms: C_3  and  C_24
    3  A    between atoms: C_14  and  C_23
                            x       y       z     vdW  Elec       q    Type
                         _______ _______ _______ _____ _____    ______ ____

>  <TORSDO>
F 3

$$$$
=
 OpenBabel11032421293D

 26 29  0  0  1  0  0  0  0  0999 V2000
  188.8960  176.5620  143.0930 C   0  0  1  0  0  3  0  0  0  0  0  0
  189.6490  177.5590  145.2100 C   0  0  0  0  0  3  0  0  0  0  0  0
  187.1820  177.0000  144.9730 C   0  0  1  0  0  3  0  0  0  0  0  0
  186.2370  176.7630  143.8700 N   0  0  0  0  0  0  0  0  0  0  0  0
  191.3550  176.9400  141.8560 N   0  0  0  0  0  2  0  0  0  0  0  0
  186.7740  178.8210  142.5800 C   0  0  2  0  0  3  0  0  0  0  0  0
  185.0400  177.3220  141.9400 O   0  0  0  0  0  0  0  0  0  0  0  0
  188.6190  177.4260  147.4860 C   0  0  0  0  0  2  0  0  0  0  0  0
  188.6200  177.0770  144.4780 C   0  0  0  0  0  0  0  0  0  0  0  0
  189.1270  177.6830  142.1150 C   0  0  0  0  0  0  0  0  0  0  0  0
  184.8540  178.4510  141.1090 C   0  0  0  0  0  2  0  0  0  0  0  0
  188.0530  178.6460  141.7660 C   0  0  0  0  0  0  0  0  0  0  0  0
  191.3080  176.1090  142.9890 N   0  0  0  0  0  2  0  0  0  0  0  0
  186.0570  177.5420  142.8420 C   0  0  0  0  0  0  0  0  0  0  0  0
  185.7220  179.5490  141.7330 C   0  0  0  0  0  2  0  0  0  0  0  0
  190.2890  177.8010  141.5430 N   0  0  0  0  0  0  0  0  0  0  0  0
  189.9900  175.4880  143.0320 C   0  0  0  0  0  2  0  0  0  0  0  0
  188.2640  179.4300  140.7990 O   0  0  0  0  0  0  0  0  0  0  0  0
  186.7670  178.1850  145.8730 C   0  0  2  0  0  3  0  0  0  0  0  0
  189.5720  178.1800  146.5770 C   0  0  0  0  0  2  0  0  0  0  0  0
  187.1960  177.9570  147.3320 C   0  0  0  0  0  2  0  0  0  0  0  0
  185.2710  178.5210  145.8000 C   0  0  1  0  0  3  0  0  0  0  0  0
  184.6900  178.4950  147.0710 O   0  0  0  0  0  1  0  0  0  0  0  0
  185.0510  179.8750  145.1380 C   0  0  0  0  0  2  0  0  0  0  0  0
  183.1650  178.6350  144.3490 O   0  0  0  0  0  1  0  0  0  0  0  0
  183.7140  179.9160  144.4170 C   0  0  0  0  0  2  0  0  0  0  0  0
  1 17  1  1  0  0  0
  1  9  1  0  0  0  0
  2 20  1  0  0  0  0
  3  4  1  6  0  0  0
  3 19  1  0  0  0  0
  5 13  1  0  0  0  0
  6 15  1  6  0  0  0
  6 14  1  0  0  0  0
  7 14  1  0  0  0  0
  9  3  1  0  0  0  0
  9  2  2  0  0  0  0
 10  1  1  0  0  0  0
 11 15  1  0  0  0  0
 11  7  1  0  0  0  0
 12 10  1  0  0  0  0
 12  6  1  0  0  0  0
 13 17  1  0  0  0  0
 14  4  2  0  0  0  0
 16  5  1  0  0  0  0
 16 10  2  0  0  0  0
 18 12  2  0  0  0  0
 19 22  1  1  0  0  0
 19 21  1  0  0  0  0
 20  8  1  0  0  0  0
 21  8  1  0  0  0  0
 22 23  1  1  0  0  0
 24 22  1  0  0  0  0
 25 26  1  0  0  0  0
 26 24  1  0  0  0  0
M  END
>  <MODEL>
3

>  <REMARK>
 VINA RESULT:      -5.8      2.499      4.618
  Name = 
  3 active torsions:
  status: ('A' for Active; 'I' for Inactive)
    1  A    between atoms: C_3  and  C_14
    2  A    between atoms: C_3  and  C_24
    3  A    between atoms: C_14  and  C_23
                            x       y       z     vdW  Elec       q    Type
                         _______ _______ _______ _____ _____    ______ ____

>  <TORSDO>
F 3

$$$$
=
 OpenBabel11032421293D

 26 29  0  0  1  0  0  0  0  0999 V2000
  184.6900  179.3730  143.1130 C   0  0  1  0  0  3  0  0  0  0  0  0
  186.3060  177.6680  143.8360 C   0  0  0  0  0  3  0  0  0  0  0  0
  186.8240  178.9710  141.7180 C   0  0  1  0  0  3  0  0  0  0  0  0
  186.0690  179.7630  140.7330 N   0  0  0  0  0  0  0  0  0  0  0  0
  182.8140  178.6340  145.0250 N   0  0  0  0  0  2  0  0  0  0  0  0
  184.3080  178.0640  140.2820 C   0  0  2  0  0  3  0  0  0  0  0  0
  184.4400  180.1220  139.0940 O   0  0  0  0  0  0  0  0  0  0  0  0
  188.7500  177.4810  143.3390 C   0  0  0  0  0  2  0  0  0  0  0  0
  185.9720  178.6100  142.9260 C   0  0  0  0  0  0  0  0  0  0  0  0
  183.4860  178.5390  142.7610 C   0  0  0  0  0  0  0  0  0  0  0  0
  183.4810  179.3640  138.3820 C   0  0  0  0  0  2  0  0  0  0  0  0
  183.2440  178.0670  141.3760 C   0  0  0  0  0  0  0  0  0  0  0  0
  184.0610  179.1050  145.4720 N   0  0  0  0  0  2  0  0  0  0  0  0
  184.9900  179.3780  140.1130 C   0  0  0  0  0  0  0  0  0  0  0  0
  183.6350  177.9330  138.9100 C   0  0  0  0  0  2  0  0  0  0  0  0
  182.6230  178.2430  143.6880 N   0  0  0  0  0  0  0  0  0  0  0  0
  184.5610  180.0520  144.4830 C   0  0  0  0  0  2  0  0  0  0  0  0
  182.1210  177.5450  141.1250 O   0  0  0  0  0  0  0  0  0  0  0  0
  187.5520  177.7640  141.0830 C   0  0  2  0  0  3  0  0  0  0  0  0
  187.4990  176.7530  143.7930 C   0  0  0  0  0  2  0  0  0  0  0  0
  188.8670  177.4540  141.8170 C   0  0  0  0  0  2  0  0  0  0  0  0
  187.8010  177.9160  139.5770 C   0  0  1  0  0  3  0  0  0  0  0  0
  188.6920  178.9620  139.3200 O   0  0  0  0  0  1  0  0  0  0  0  0
  188.3160  176.6140  138.9770 C   0  0  0  0  0  2  0  0  0  0  0  0
  190.6240  176.0030  139.0930 O   0  0  0  0  0  1  0  0  0  0  0  0
  189.7100  176.7950  138.4000 C   0  0  0  0  0  2  0  0  0  0  0  0
  1 17  1  1  0  0  0
  3  4  1  6  0  0  0
  3  9  1  0  0  0  0
  5 13  1  0  0  0  0
  6 15  1  6  0  0  0
  6 12  1  0  0  0  0
  7 14  1  0  0  0  0
  8 20  1  0  0  0  0
  9  1  1  0  0  0  0
  9  2  2  0  0  0  0
 10  1  1  0  0  0  0
 10 16  2  0  0  0  0
 11 15  1  0  0  0  0
 11  7  1  0  0  0  0
 12 10  1  0  0  0  0
 14  6  1  0  0  0  0
 14  4  2  0  0  0  0
 16  5  1  0  0  0  0
 17 13  1  0  0  0  0
 18 12  2  0  0  0  0
 19 22  1  6  0  0  0
 19  3  1  0  0  0  0
 19 21  1  0  0  0  0
 20  2  1  0  0  0  0
 21  8  1  0  0  0  0
 22 23  1  1  0  0  0
 24 22  1  0  0  0  0
 26 24  1  0  0  0  0
 26 25  1  0  0  0  0
M  END
>  <MODEL>
4

>  <REMARK>
 VINA RESULT:      -5.6      3.176      5.828
  Name = 
  3 active torsions:
  status: ('A' for Active; 'I' for Inactive)
    1  A    between atoms: C_3  and  C_14
    2  A    between atoms: C_3  and  C_24
    3  A    between atoms: C_14  and  C_23
                            x       y       z     vdW  Elec       q    Type
                         _______ _______ _______ _____ _____    ______ ____

>  <TORSDO>
F 3

$$$$
=
 OpenBabel11032421293D

 26 29  0  0  1  0  0  0  0  0999 V2000
  187.3120  177.1470  145.2540 C   0  0  1  0  0  3  0  0  0  0  0  0
  186.1670  178.9850  144.0920 C   0  0  0  0  0  3  0  0  0  0  0  0
  187.1710  177.1290  142.6770 C   0  0  1  0  0  3  0  0  0  0  0  0
  188.1990  176.0890  142.8440 N   0  0  0  0  0  0  0  0  0  0  0  0
  187.1630  178.4050  147.7270 N   0  0  0  0  0  2  0  0  0  0  0  0
  189.9970  177.5900  143.6830 C   0  0  2  0  0  3  0  0  0  0  0  0
  190.3550  175.2780  143.2470 O   0  0  0  0  0  0  0  0  0  0  0  0
  185.1040  179.0180  141.8290 C   0  0  0  0  0  2  0  0  0  0  0  0
  186.8500  177.8220  143.9930 C   0  0  0  0  0  0  0  0  0  0  0  0
  188.5000  177.8460  145.8610 C   0  0  0  0  0  0  0  0  0  0  0  0
  191.6510  175.8010  143.4640 C   0  0  0  0  0  2  0  0  0  0  0  0
  189.8100  177.9020  145.1650 C   0  0  0  0  0  0  0  0  0  0  0  0
  185.9590  178.0790  147.0790 N   0  0  0  0  0  2  0  0  0  0  0  0
  189.4140  176.2820  143.2730 C   0  0  0  0  0  0  0  0  0  0  0  0
  191.4800  177.3230  143.3980 C   0  0  0  0  0  2  0  0  0  0  0  0
  188.3850  178.3970  147.0330 N   0  0  0  0  0  0  0  0  0  0  0  0
  186.1940  176.8890  146.2720 C   0  0  0  0  0  2  0  0  0  0  0  0
  190.8000  178.3320  145.8200 O   0  0  0  0  0  0  0  0  0  0  0  0
  187.4860  178.1020  141.5190 C   0  0  2  0  0  3  0  0  0  0  0  0
  185.6840  179.8470  142.9590 C   0  0  0  0  0  2  0  0  0  0  0  0
  186.1980  178.6070  140.8460 C   0  0  0  0  0  2  0  0  0  0  0  0
  188.4480  177.5250  140.4720 C   0  0  1  0  0  3  0  0  0  0  0  0
  187.8360  177.4530  139.2160 O   0  0  0  0  0  1  0  0  0  0  0  0
  189.7280  178.3470  140.3980 C   0  0  0  0  0  2  0  0  0  0  0  0
  190.5560  176.1490  139.9540 O   0  0  0  0  0  1  0  0  0  0  0  0
  190.8880  177.5020  139.8980 C   0  0  0  0  0  2  0  0  0  0  0  0
  1 10  1  0  0  0  0
  1 17  1  1  0  0  0
  3  4  1  1  0  0  0
  3  9  1  0  0  0  0
  4 14  2  0  0  0  0
  6 15  1  1  0  0  0
  6 12  1  0  0  0  0
  7 14  1  0  0  0  0
  7 11  1  0  0  0  0
  8 20  1  0  0  0  0
  9  2  2  0  0  0  0
  9  1  1  0  0  0  0
 10 16  2  0  0  0  0
 12 18  2  0  0  0  0
 12 10  1  0  0  0  0
 13  5  1  0  0  0  0
 14  6  1  0  0  0  0
 15 11  1  0  0  0  0
 16  5  1  0  0  0  0
 17 13  1  0  0  0  0
 19 22  1  6  0  0  0
 19  3  1  0  0  0  0
 20  2  1  0  0  0  0
 21 19  1  0  0  0  0
 21  8  1  0  0  0  0
 22 23  1  6  0  0  0
 24 22  1  0  0  0  0
 26 25  1  0  0  0  0
 26 24  1  0  0  0  0
M  END
>  <MODEL>
5

>  <REMARK>
 VINA RESULT:      -5.5      1.654      2.529
  Name = 
  3 active torsions:
  status: ('A' for Active; 'I' for Inactive)
    1  A    between atoms: C_3  and  C_14
    2  A    between atoms: C_3  and  C_24
    3  A    between atoms: C_14  and  C_23
                            x       y       z     vdW  Elec       q    Type
                         _______ _______ _______ _____ _____    ______ ____

>  <TORSDO>
F 3

$$$$
=
 OpenBabel11032421293D

 26 29  0  0  1  0  0  0  0  0999 V2000
  180.9460  179.1180  141.2430 C   0  0  1  0  0  3  0  0  0  0  0  0
  183.0080  178.5640  142.4600 C   0  0  0  0  0  3  0  0  0  0  0  0
  183.2260  179.3650  140.0580 C   0  0  1  0  0  3  0  0  0  0  0  0
  182.3570  179.4530  138.8740 N   0  0  0  0  0  0  0  0  0  0  0  0
  179.3040  178.1410  143.2600 N   0  0  0  0  0  2  0  0  0  0  0  0
  181.5640  177.0950  138.9190 C   0  0  2  0  0  3  0  0  0  0  0  0
  180.9840  178.6110  137.1780 O   0  0  0  0  0  0  0  0  0  0  0  0
  185.3460  179.3670  142.0750 C   0  0  0  0  0  2  0  0  0  0  0  0
  182.4420  178.9880  141.3070 C   0  0  0  0  0  0  0  0  0  0  0  0
  180.2710  177.7760  141.1350 C   0  0  0  0  0  0  0  0  0  0  0  0
  180.5470  177.3500  136.7080 C   0  0  0  0  0  2  0  0  0  0  0  0
  180.4530  176.9050  139.9480 C   0  0  0  0  0  0  0  0  0  0  0  0
  180.1560  179.2170  143.5660 N   0  0  0  0  0  2  0  0  0  0  0  0
  181.6430  178.4820  138.3800 C   0  0  0  0  0  0  0  0  0  0  0  0
  181.2140  176.3290  137.6370 C   0  0  0  0  0  2  0  0  0  0  0  0
  179.4910  177.3760  142.0960 N   0  0  0  0  0  0  0  0  0  0  0  0
  180.3460  179.9960  142.3490 C   0  0  0  0  0  2  0  0  0  0  0  0
  179.7050  175.8920  139.8470 O   0  0  0  0  0  0  0  0  0  0  0  0
  184.4780  178.4920  139.8190 C   0  0  2  0  0  3  0  0  0  0  0  0
  184.4680  178.3010  142.7050 C   0  0  0  0  0  2  0  0  0  0  0  0
  185.6810  179.0030  140.6300 C   0  0  0  0  0  2  0  0  0  0  0  0
  184.8530  178.3440  138.3380 C   0  0  1  0  0  3  0  0  0  0  0  0
  186.0550  179.0030  138.0580 O   0  0  0  0  0  1  0  0  0  0  0  0
  184.9430  176.8760  137.9440 C   0  0  0  0  0  2  0  0  0  0  0  0
  183.9840  177.4910  135.8430 O   0  0  0  0  0  1  0  0  0  0  0  0
  184.9850  176.7200  136.4340 C   0  0  0  0  0  2  0  0  0  0  0  0
  1  9  1  0  0  0  0
  1 17  1  1  0  0  0
  2 20  1  0  0  0  0
  3  4  1  6  0  0  0
  3  9  1  0  0  0  0
  5 13  1  0  0  0  0
  6 15  1  6  0  0  0
  6 12  1  0  0  0  0
  7 14  1  0  0  0  0
  8 20  1  0  0  0  0
  9  2  2  0  0  0  0
 10  1  1  0  0  0  0
 10 16  2  0  0  0  0
 11  7  1  0  0  0  0
 11 15  1  0  0  0  0
 12 10  1  0  0  0  0
 14  4  2  0  0  0  0
 14  6  1  0  0  0  0
 16  5  1  0  0  0  0
 17 13  1  0  0  0  0
 18 12  2  0  0  0  0
 19 22  1  6  0  0  0
 19  3  1  0  0  0  0
 19 21  1  0  0  0  0
 21  8  1  0  0  0  0
 22 23  1  1  0  0  0
 24 22  1  0  0  0  0
 25 26  1  0  0  0  0
 26 24  1  0  0  0  0
M  END
>  <MODEL>
6

>  <REMARK>
 VINA RESULT:      -5.4      5.629      8.205
  Name = 
  3 active torsions:
  status: ('A' for Active; 'I' for Inactive)
    1  A    between atoms: C_3  and  C_14
    2  A    between atoms: C_3  and  C_24
    3  A    between atoms: C_14  and  C_23
                            x       y       z     vdW  Elec       q    Type
                         _______ _______ _______ _____ _____    ______ ____

>  <TORSDO>
F 3

$$$$
=
 OpenBabel11032421293D

 26 29  0  0  1  0  0  0  0  0999 V2000
  189.5950  178.2800  142.5580 C   0  0  1  0  0  3  0  0  0  0  0  0
  190.3650  176.7320  140.8110 C   0  0  0  0  0  3  0  0  0  0  0  0
  188.7650  178.5850  140.1330 C   0  0  1  0  0  3  0  0  0  0  0  0
  187.7950  179.4650  140.8050 N   0  0  0  0  0  0  0  0  0  0  0  0
  190.7530  176.7990  144.6040 N   0  0  0  0  0  2  0  0  0  0  0  0
  186.5620  177.6710  142.0100 C   0  0  2  0  0  3  0  0  0  0  0  0
  185.8880  179.9520  142.0690 O   0  0  0  0  0  0  0  0  0  0  0  0
  190.5070  177.0700  138.3370 C   0  0  0  0  0  2  0  0  0  0  0  0
  189.6060  177.8040  141.1320 C   0  0  0  0  0  0  0  0  0  0  0  0
  188.7770  177.3780  143.4440 C   0  0  0  0  0  0  0  0  0  0  0  0
  184.8110  179.2510  142.6590 C   0  0  0  0  0  2  0  0  0  0  0  0
  187.3110  177.2310  143.2640 C   0  0  0  0  0  0  0  0  0  0  0  0
  191.6000  177.3390  143.6200 N   0  0  0  0  0  2  0  0  0  0  0  0
  186.8460  179.0770  141.6100 C   0  0  0  0  0  0  0  0  0  0  0  0
  185.0630  177.7780  142.3180 C   0  0  0  0  0  2  0  0  0  0  0  0
  189.3630  176.7260  144.4040 N   0  0  0  0  0  0  0  0  0  0  0  0
  190.9880  178.5690  143.1310 C   0  0  0  0  0  2  0  0  0  0  0  0
  186.6730  176.6150  144.1630 O   0  0  0  0  0  0  0  0  0  0  0  0
  188.1170  177.7060  139.0390 C   0  0  2  0  0  3  0  0  0  0  0  0
  190.4560  176.0600  139.4690 C   0  0  0  0  0  2  0  0  0  0  0  0
  189.0970  177.4400  137.8830 C   0  0  0  0  0  2  0  0  0  0  0  0
  186.7930  178.2650  138.5020 C   0  0  1  0  0  3  0  0  0  0  0  0
  187.0150  179.1320  137.4270 O   0  0  0  0  0  1  0  0  0  0  0  0
  185.8530  177.1380  138.0950 C   0  0  0  0  0  2  0  0  0  0  0  0
  184.2620  178.6420  139.0530 O   0  0  0  0  0  1  0  0  0  0  0  0
  184.4040  177.5930  138.1450 C   0  0  0  0  0  2  0  0  0  0  0  0
  1 17  1  1  0  0  0
  1 10  1  0  0  0  0
  2  9  2  0  0  0  0
  3  4  1  1  0  0  0
  3  9  1  0  0  0  0
  4 14  2  0  0  0  0
  6 15  1  1  0  0  0
  6 12  1  0  0  0  0
  7 11  1  0  0  0  0
  8 20  1  0  0  0  0
  9  1  1  0  0  0  0
 10 16  2  0  0  0  0
 12 10  1  0  0  0  0
 12 18  2  0  0  0  0
 13  5  1  0  0  0  0
 14  6  1  0  0  0  0
 14  7  1  0  0  0  0
 15 11  1  0  0  0  0
 16  5  1  0  0  0  0
 17 13  1  0  0  0  0
 19 22  1  6  0  0  0
 19  3  1  0  0  0  0
 20  2  1  0  0  0  0
 21  8  1  0  0  0  0
 21 19  1  0  0  0  0
 22 23  1  6  0  0  0
 24 26  1  0  0  0  0
 24 22  1  0  0  0  0
 26 25  1  0  0  0  0
M  END
>  <MODEL>
7

>  <REMARK>
 VINA RESULT:      -5.4      2.743      5.368
  Name = 
  3 active torsions:
  status: ('A' for Active; 'I' for Inactive)
    1  A    between atoms: C_3  and  C_14
    2  A    between atoms: C_3  and  C_24
    3  A    between atoms: C_14  and  C_23
                            x       y       z     vdW  Elec       q    Type
                         _______ _______ _______ _____ _____    ______ ____

>  <TORSDO>
F 3

$$$$
=
 OpenBabel11032421293D

 26 29  0  0  1  0  0  0  0  0999 V2000
  188.7370  177.1610  141.5490 C   0  0  1  0  0  3  0  0  0  0  0  0
  190.5860  178.0260  142.9180 C   0  0  0  0  0  3  0  0  0  0  0  0
  188.6750  176.8510  144.1110 C   0  0  1  0  0  3  0  0  0  0  0  0
  187.2720  176.5170  143.8200 N   0  0  0  0  0  0  0  0  0  0  0  0
  189.6810  178.3640  139.2300 N   0  0  0  0  0  2  0  0  0  0  0  0
  186.5690  178.8000  143.1240 C   0  0  2  0  0  3  0  0  0  0  0  0
  185.0390  176.9850  143.3020 O   0  0  0  0  0  0  0  0  0  0  0  0
  191.3580  177.3060  145.1860 C   0  0  0  0  0  2  0  0  0  0  0  0
  189.3960  177.3850  142.8820 C   0  0  0  0  0  0  0  0  0  0  0  0
  188.1250  178.4250  141.0070 C   0  0  0  0  0  0  0  0  0  0  0  0
  184.2170  178.1230  143.1270 C   0  0  0  0  0  2  0  0  0  0  0  0
  186.9890  179.0950  141.6880 C   0  0  0  0  0  0  0  0  0  0  0  0
  190.4980  177.4050  139.8540 N   0  0  0  0  0  2  0  0  0  0  0  0
  186.3630  177.3500  143.3970 C   0  0  0  0  0  0  0  0  0  0  0  0
  185.1450  179.3210  143.3600 C   0  0  0  0  0  2  0  0  0  0  0  0
  188.5870  178.9340  139.9030 N   0  0  0  0  0  0  0  0  0  0  0  0
  189.6270  176.4470  140.5240 C   0  0  0  0  0  2  0  0  0  0  0  0
  186.4100  180.0320  141.0700 O   0  0  0  0  0  0  0  0  0  0  0  0
  188.8300  177.7420  145.3640 C   0  0  2  0  0  3  0  0  0  0  0  0
  191.3670  178.4100  144.1450 C   0  0  0  0  0  2  0  0  0  0  0  0
  190.1450  177.4430  146.1040 C   0  0  0  0  0  2  0  0  0  0  0  0
  187.6410  177.6620  146.3290 C   0  0  1  0  0  3  0  0  0  0  0  0
  188.0240  177.0980  147.5500 O   0  0  0  0  0  1  0  0  0  0  0  0
  187.0230  179.0380  146.5460 C   0  0  0  0  0  2  0  0  0  0  0  0
  184.6820  178.5740  146.6800 O   0  0  0  0  0  1  0  0  0  0  0  0
  185.7940  178.9480  147.4340 C   0  0  0  0  0  2  0  0  0  0  0  0
  1 17  1  6  0  0  0
  1  9  1  0  0  0  0
  2 20  1  0  0  0  0
  3  9  1  6  0  0  0
  3 19  1  0  0  0  0
  4  3  1  0  0  0  0
  5 13  1  0  0  0  0
  5 16  1  0  0  0  0
  6 15  1  6  0  0  0
  6 14  1  0  0  0  0
  7 14  1  0  0  0  0
  8 21  1  0  0  0  0
  9  2  2  0  0  0  0
 10  1  1  0  0  0  0
 10 12  1  0  0  0  0
 11  7  1  0  0  0  0
 11 15  1  0  0  0  0
 12  6  1  0  0  0  0
 13 17  1  0  0  0  0
 14  4  2  0  0  0  0
 16 10  2  0  0  0  0
 18 12  2  0  0  0  0
 19 21  1  0  0  0  0
 19 22  1  1  0  0  0
 20  8  1  0  0  0  0
 22 24  1  0  0  0  0
 22 23  1  1  0  0  0
 24 26  1  0  0  0  0
 25 26  1  0  0  0  0
M  END
>  <MODEL>
8

>  <REMARK>
 VINA RESULT:      -5.2      2.510      5.939
  Name = 
  3 active torsions:
  status: ('A' for Active; 'I' for Inactive)
    1  A    between atoms: C_3  and  C_14
    2  A    between atoms: C_3  and  C_24
    3  A    between atoms: C_14  and  C_23
                            x       y       z     vdW  Elec       q    Type
                         _______ _______ _______ _____ _____    ______ ____

>  <TORSDO>
F 3

$$$$
=
 OpenBabel11032421293D

 26 29  0  0  1  0  0  0  0  0999 V2000
  185.3090  177.5190  136.6550 C   0  0  1  0  0  3  0  0  0  0  0  0
  185.4530  175.1320  137.2210 C   0  0  0  0  0  3  0  0  0  0  0  0
  183.1530  176.1020  136.7480 C   0  0  1  0  0  3  0  0  0  0  0  0
  182.5330  177.4370  136.7370 N   0  0  0  0  0  0  0  0  0  0  0  0
  187.9870  177.9810  137.2310 N   0  0  0  0  0  2  0  0  0  0  0  0
  183.3070  178.1350  138.9970 C   0  0  2  0  0  3  0  0  0  0  0  0
  181.8540  179.4720  137.6680 O   0  0  0  0  0  0  0  0  0  0  0  0
  183.8770  173.2690  136.6700 C   0  0  0  0  0  2  0  0  0  0  0  0
  184.6650  176.1830  136.9000 C   0  0  0  0  0  0  0  0  0  0  0  0
  185.7410  178.1770  137.9390 C   0  0  0  0  0  0  0  0  0  0  0  0
  181.8460  180.0970  138.9370 C   0  0  0  0  0  2  0  0  0  0  0  0
  184.7580  178.6060  138.9640 C   0  0  0  0  0  0  0  0  0  0  0  0
  187.6810  177.0750  136.2000 N   0  0  0  0  0  2  0  0  0  0  0  0
  182.5950  178.3130  137.7000 C   0  0  0  0  0  0  0  0  0  0  0  0
  182.4820  179.0740  139.8860 C   0  0  0  0  0  2  0  0  0  0  0  0
  187.0060  178.3940  138.1490 N   0  0  0  0  0  0  0  0  0  0  0  0
  186.4210  177.4940  135.5990 C   0  0  0  0  0  2  0  0  0  0  0  0
  185.1810  179.3210  139.9150 O   0  0  0  0  0  0  0  0  0  0  0  0
  182.4750  175.1360  137.7460 C   0  0  2  0  0  3  0  0  0  0  0  0
  185.0030  173.7410  137.5720 C   0  0  0  0  0  2  0  0  0  0  0  0
  182.5230  173.6840  137.2390 C   0  0  0  0  0  2  0  0  0  0  0  0
  181.0380  175.5310  138.1080 C   0  0  1  0  0  3  0  0  0  0  0  0
  180.1120  174.7640  137.3940 O   0  0  0  0  0  1  0  0  0  0  0  0
  180.8000  175.4000  139.6070 C   0  0  0  0  0  2  0  0  0  0  0  0
  179.2600  176.0580  141.3120 O   0  0  0  0  0  1  0  0  0  0  0  0
  179.8160  176.4500  140.0940 C   0  0  0  0  0  2  0  0  0  0  0  0
  1 17  1  6  0  0  0
  1  9  1  0  0  0  0
  1 10  1  0  0  0  0
  2 20  1  0  0  0  0
  3  4  1  1  0  0  0
  3  9  1  0  0  0  0
  3 19  1  0  0  0  0
  4 14  2  0  0  0  0
  5 16  1  0  0  0  0
  6 15  1  1  0  0  0
  7 14  1  0  0  0  0
  7 11  1  0  0  0  0
  8 21  1  0  0  0  0
  8 20  1  0  0  0  0
  9  2  2  0  0  0  0
 10 16  2  0  0  0  0
 10 12  1  0  0  0  0
 11 15  1  0  0  0  0
 12  6  1  0  0  0  0
 12 18  2  0  0  0  0
 13  5  1  0  0  0  0
 14  6  1  0  0  0  0
 17 13  1  0  0  0  0
 19 22  1  6  0  0  0
 21 19  1  0  0  0  0
 22 23  1  6  0  0  0
 22 24  1  0  0  0  0
 24 26  1  0  0  0  0
 26 25  1  0  0  0  0
M  END
>  <MODEL>
9

>  <REMARK>
 VINA RESULT:      -5.1      6.886      9.175
  Name = 
  3 active torsions:
  status: ('A' for Active; 'I' for Inactive)
    1  A    between atoms: C_3  and  C_14
    2  A    between atoms: C_3  and  C_24
    3  A    between atoms: C_14  and  C_23
                            x       y       z     vdW  Elec       q    Type
                         _______ _______ _______ _____ _____    ______ ____

>  <TORSDO>
F 3

$$$$
