=
 OpenBabel11032419363D

 49 54  0  0  1  0  0  0  0  0999 V2000
  181.8070  177.0490  139.1610 C   0  0  0  0  0  0  0  0  0  0  0  0
  181.9810  176.8190  140.5360 C   0  0  0  0  0  3  0  0  0  0  0  0
  183.8350  178.3770  140.5950 C   0  0  0  0  0  0  0  0  0  0  0  0
  183.6710  178.6140  139.2270 C   0  0  0  0  0  3  0  0  0  0  0  0
  182.9880  177.4680  141.2480 C   0  0  0  0  0  3  0  0  0  0  0  0
  182.6640  177.9620  138.4950 C   0  0  0  0  0  0  0  0  0  0  0  0
  183.3900  177.4310  136.1030 N   0  0  0  0  0  2  0  0  0  0  0  0
  182.5850  178.1730  137.0290 C   0  0  0  0  0  0  0  0  0  0  0  0
  181.7700  179.0160  136.5680 O   0  0  0  0  0  0  0  0  0  0  0  0
  184.5880  176.6800  136.4540 C   0  0  0  0  0  2  0  0  0  0  0  0
  185.7960  177.2370  135.7120 C   0  0  0  0  0  2  0  0  0  0  0  0
  188.4740  177.5860  138.1290 C   0  0  0  0  0  0  0  0  0  0  0  0
  190.0940  175.7830  138.0390 C   0  0  0  0  0  3  0  0  0  0  0  0
  188.0330  175.0890  135.7770 O   0  0  0  0  0  0  0  0  0  0  0  0
  190.3180  177.5920  139.6670 C   0  0  0  0  0  3  0  0  0  0  0  0
  188.0040  176.0860  136.5420 C   0  0  0  0  0  0  0  0  0  0  0  0
  187.0020  177.1560  136.5800 C   0  0  0  0  0  0  0  0  0  0  0  0
  187.2680  178.0310  137.5010 N   0  0  0  0  0  0  0  0  0  0  0  0
  189.1450  178.2060  139.1820 C   0  0  0  0  0  3  0  0  0  0  0  0
  188.9430  176.4170  137.5800 C   0  0  0  0  0  0  0  0  0  0  0  0
  190.7870  176.3870  139.1010 C   0  0  0  0  0  3  0  0  0  0  0  0
  184.9340  179.0680  141.3410 C   0  0  2  0  0  3  0  0  0  0  0  0
  186.1150  179.0140  140.5900 O   0  0  0  0  0  1  0  0  0  0  0  0
  185.1150  178.4380  142.7310 C   0  0  2  0  0  3  0  0  0  0  0  0
  183.2560  179.6280  144.0510 C   0  0  0  0  0  2  0  0  0  0  0  0
  184.0590  178.7830  145.0280 C   0  0  0  0  0  2  0  0  0  0  0  0
  184.7500  179.4470  143.8470 C   0  0  0  0  0  3  0  0  0  0  0  0
  187.0180  177.5900  144.0190 N   0  0  0  0  0  0  0  0  0  0  0  0
  186.3980  177.6510  142.8890 C   0  0  0  0  0  3  0  0  0  0  0  0
  188.7010  176.3500  142.7730 C   0  0  0  0  0  1  0  0  0  0  0  0
  188.2680  176.8780  144.1400 C   0  0  1  0  0  3  0  0  0  0  0  0
  191.0240  176.7620  146.0590 C   0  0  0  0  0  0  0  0  0  0  0  0
  192.0920  176.1770  146.3800 O   0  0  0  0  0  0  0  0  0  0  0  0
  188.9620  177.7630  146.2550 C   0  0  0  0  0  3  0  0  0  0  0  0
  190.0570  177.1590  146.9990 N   0  0  0  0  0  0  0  0  0  0  0  0
  190.6310  177.1050  144.6840 C   0  0  1  0  0  3  0  0  0  0  0  0
  189.2890  177.7000  144.8140 N   0  0  0  0  0  0  0  0  0  0  0  0
  191.0690  179.5150  144.0150 C   0  0  0  0  0  1  0  0  0  0  0  0
  191.6030  178.0980  144.0390 C   0  0  0  0  0  2  0  0  0  0  0  0
  180.7200  176.4250  138.4560 N   0  0  0  0  0  2  0  0  0  0  0  0
  179.4270  174.0050  138.0310 S   0  0  0  0  0  0  0  0  0  0  0  0
  180.2370  172.7340  137.2840 C   0  0  0  0  0  0  0  0  0  0  0  0
  179.6200  171.4020  137.0380 C   0  0  0  0  0  1  0  0  0  0  0  0
  180.7040  175.0960  137.9250 C   0  0  0  0  0  0  0  0  0  0  0  0
  181.7950  174.4860  137.3210 C   0  0  0  0  0  3  0  0  0  0  0  0
  181.5370  173.1560  136.9500 C   0  0  0  0  0  0  0  0  0  0  0  0
  182.5230  172.3430  136.2790 N   0  0  0  0  0  0  0  0  0  0  0  0
  183.5200  171.5680  137.0020 C   0  0  0  0  0  1  0  0  0  0  0  0
  182.5590  172.2790  134.8220 C   0  0  0  0  0  1  0  0  0  0  0  0
  1  2  1  0  0  0  0
  2  5  2  0  0  0  0
  3  5  1  0  0  0  0
  3 22  1  0  0  0  0
  4  3  2  0  0  0  0
  6  1  2  0  0  0  0
  6  4  1  0  0  0  0
  7 10  1  0  0  0  0
  7  8  1  0  0  0  0
  8  6  1  0  0  0  0
  9  8  2  0  0  0  0
 11 10  1  0  0  0  0
 11 17  1  0  0  0  0
 12 19  1  0  0  0  0
 13 21  2  0  0  0  0
 14 16  2  0  0  0  0
 16 17  1  0  0  0  0
 16 20  1  0  0  0  0
 17 18  2  0  0  0  0
 18 12  1  0  0  0  0
 19 15  2  0  0  0  0
 20 13  1  0  0  0  0
 20 12  2  0  0  0  0
 21 15  1  0  0  0  0
 22 23  1  6  0  0  0
 22 24  1  0  0  0  0
 24 29  1  1  0  0  0
 24 27  1  0  0  0  0
 25 26  1  0  0  0  0
 27 25  1  0  0  0  0
 27 26  1  0  0  0  0
 28 31  1  0  0  0  0
 29 28  2  0  0  0  0
 31 30  1  6  0  0  0
 31 37  1  0  0  0  0
 32 33  2  0  0  0  0
 32 35  1  0  0  0  0
 34 35  2  0  0  0  0
 36 39  1  1  0  0  0
 36 37  1  0  0  0  0
 36 32  1  0  0  0  0
 37 34  1  0  0  0  0
 38 39  1  0  0  0  0
 40  1  1  0  0  0  0
 42 41  1  0  0  0  0
 43 42  1  0  0  0  0
 44 41  1  0  0  0  0
 44 40  1  0  0  0  0
 45 44  2  0  0  0  0
 46 42  2  0  0  0  0
 46 45  1  0  0  0  0
 47 46  1  0  0  0  0
 47 48  1  0  0  0  0
 49 47  1  0  0  0  0
M  END
>  <MODEL>
1

>  <REMARK>
 VINA RESULT:      -8.1      0.000      0.000
  Name = 
  14 active torsions:
  status: ('A' for Active; 'I' for Inactive)
    1  A    between atoms: N_1  and  C_26
    2  A    between atoms: C_3  and  C_20
    3  A    between atoms: N_5  and  C_41
    4  A    between atoms: C_7  and  C_12
    5  A    between atoms: C_7  and  C_29
    6  A    between atoms: C_8  and  N_11
    7  A    between atoms: N_11  and  C_28
    8  A    between atoms: C_12  and  N_38
    9  A    between atoms: C_15  and  C_20
   10  A    between atoms: C_15  and  C_22
   11  A    between atoms: C_20  and  C_45
   12  A    between atoms: C_26  and  N_44
   13  A    between atoms: C_35  and  C_40
   14  A    between atoms: C_46  and  C_47
                            x       y       z     vdW  Elec       q    Type
                         _______ _______ _______ _____ _____    ______ ____

>  <TORSDO>
F 14

$$$$
=
 OpenBabel11032419363D

 49 54  0  0  1  0  0  0  0  0999 V2000
  190.0680  176.1950  137.2450 C   0  0  0  0  0  0  0  0  0  0  0  0
  189.9560  174.8910  136.7360 C   0  0  0  0  0  3  0  0  0  0  0  0
  187.5810  175.2020  136.3710 C   0  0  0  0  0  0  0  0  0  0  0  0
  187.6810  176.5020  136.8750 C   0  0  0  0  0  3  0  0  0  0  0  0
  188.7260  174.3920  136.3090 C   0  0  0  0  0  3  0  0  0  0  0  0
  188.9130  177.0160  137.3140 C   0  0  0  0  0  0  0  0  0  0  0  0
  188.9980  178.5630  139.3470 N   0  0  0  0  0  2  0  0  0  0  0  0
  188.9560  178.3650  137.9270 C   0  0  0  0  0  0  0  0  0  0  0  0
  188.9780  179.3820  137.1840 O   0  0  0  0  0  0  0  0  0  0  0  0
  188.6510  177.5530  140.3400 C   0  0  0  0  0  2  0  0  0  0  0  0
  189.8270  177.3100  141.2760 C   0  0  0  0  0  2  0  0  0  0  0  0
  188.0940  177.5520  144.4500 C   0  0  0  0  0  0  0  0  0  0  0  0
  189.5460  177.2360  146.3680 C   0  0  0  0  0  3  0  0  0  0  0  0
  191.4620  176.9930  143.8940 O   0  0  0  0  0  0  0  0  0  0  0  0
  187.1530  177.6350  146.6570 C   0  0  0  0  0  3  0  0  0  0  0  0
  190.2230  177.2090  143.8690 C   0  0  0  0  0  0  0  0  0  0  0  0
  189.3690  177.3850  142.6900 C   0  0  0  0  0  0  0  0  0  0  0  0
  188.1300  177.5830  143.0210 N   0  0  0  0  0  0  0  0  0  0  0  0
  186.9730  177.7140  145.2610 C   0  0  0  0  0  3  0  0  0  0  0  0
  189.3350  177.3260  144.9940 C   0  0  0  0  0  0  0  0  0  0  0  0
  188.4300  177.3940  147.2060 C   0  0  0  0  0  3  0  0  0  0  0  0
  186.2500  174.6760  135.9350 C   0  0  2  0  0  3  0  0  0  0  0  0
  185.7200  175.5070  134.9410 O   0  0  0  0  0  1  0  0  0  0  0  0
  185.3020  174.5540  137.1380 C   0  0  2  0  0  3  0  0  0  0  0  0
  183.9310  172.3780  137.1600 C   0  0  0  0  0  2  0  0  0  0  0  0
  185.2510  172.0950  136.4600 C   0  0  0  0  0  2  0  0  0  0  0  0
  185.1970  173.0850  137.6140 C   0  0  0  0  0  3  0  0  0  0  0  0
  183.6080  176.1450  137.9140 N   0  0  0  0  0  0  0  0  0  0  0  0
  184.0160  175.3380  136.9920 C   0  0  0  0  0  3  0  0  0  0  0  0
  181.2100  175.8420  137.6350 C   0  0  0  0  0  1  0  0  0  0  0  0
  182.3540  176.8450  137.7820 C   0  0  1  0  0  3  0  0  0  0  0  0
  183.9390  178.9800  139.8370 C   0  0  0  0  0  0  0  0  0  0  0  0
  184.8720  179.8050  140.0250 O   0  0  0  0  0  0  0  0  0  0  0  0
  182.5600  177.1650  140.1470 C   0  0  0  0  0  3  0  0  0  0  0  0
  183.6760  177.9100  140.7100 N   0  0  0  0  0  0  0  0  0  0  0  0
  183.0100  179.0050  138.6980 C   0  0  1  0  0  3  0  0  0  0  0  0
  182.1620  177.8130  138.8780 N   0  0  0  0  0  0  0  0  0  0  0  0
  181.2100  180.3350  137.4970 C   0  0  0  0  0  1  0  0  0  0  0  0
  182.1560  180.2770  138.6790 C   0  0  0  0  0  2  0  0  0  0  0  0
  191.3550  176.7180  137.6160 N   0  0  0  0  0  2  0  0  0  0  0  0
  193.4290  176.1350  135.8640 S   0  0  0  0  0  0  0  0  0  0  0  0
  194.7160  175.1790  136.3680 C   0  0  0  0  0  0  0  0  0  0  0  0
  195.8550  174.8060  135.4850 C   0  0  0  0  0  1  0  0  0  0  0  0
  192.6260  176.1200  137.3430 C   0  0  0  0  0  0  0  0  0  0  0  0
  193.3370  175.3530  138.2570 C   0  0  0  0  0  3  0  0  0  0  0  0
  194.5210  174.8240  137.7170 C   0  0  0  0  0  0  0  0  0  0  0  0
  195.4280  174.0210  138.5000 N   0  0  0  0  0  0  0  0  0  0  0  0
  196.2290  174.5750  139.5810 C   0  0  0  0  0  1  0  0  0  0  0  0
  195.5840  172.5980  138.2190 C   0  0  0  0  0  1  0  0  0  0  0  0
  1  6  1  0  0  0  0
  1 40  1  0  0  0  0
  2  1  2  0  0  0  0
  3  4  1  0  0  0  0
  4  6  2  0  0  0  0
  5  3  2  0  0  0  0
  5  2  1  0  0  0  0
  6  8  1  0  0  0  0
  7 10  1  0  0  0  0
  8  7  1  0  0  0  0
  9  8  2  0  0  0  0
 10 11  1  0  0  0  0
 11 17  1  0  0  0  0
 12 20  2  0  0  0  0
 12 19  1  0  0  0  0
 13 21  2  0  0  0  0
 15 21  1  0  0  0  0
 16 14  2  0  0  0  0
 16 20  1  0  0  0  0
 17 18  2  0  0  0  0
 17 16  1  0  0  0  0
 18 12  1  0  0  0  0
 19 15  2  0  0  0  0
 20 13  1  0  0  0  0
 22 23  1  6  0  0  0
 22  3  1  0  0  0  0
 22 24  1  0  0  0  0
 24 29  1  6  0  0  0
 24 27  1  0  0  0  0
 25 27  1  0  0  0  0
 26 25  1  0  0  0  0
 26 27  1  0  0  0  0
 29 28  2  0  0  0  0
 31 30  1  1  0  0  0
 31 28  1  0  0  0  0
 31 37  1  0  0  0  0
 32 33  2  0  0  0  0
 32 35  1  0  0  0  0
 34 35  2  0  0  0  0
 36 39  1  1  0  0  0
 36 37  1  0  0  0  0
 36 32  1  0  0  0  0
 37 34  1  0  0  0  0
 38 39  1  0  0  0  0
 41 42  1  0  0  0  0
 41 44  1  0  0  0  0
 42 46  2  0  0  0  0
 43 42  1  0  0  0  0
 44 40  1  0  0  0  0
 44 45  2  0  0  0  0
 46 45  1  0  0  0  0
 46 47  1  0  0  0  0
 47 48  1  0  0  0  0
 49 47  1  0  0  0  0
M  END
>  <MODEL>
2

>  <REMARK>
 VINA RESULT:      -8.1      3.543      9.477
  Name = 
  14 active torsions:
  status: ('A' for Active; 'I' for Inactive)
    1  A    between atoms: N_1  and  C_26
    2  A    between atoms: C_3  and  C_20
    3  A    between atoms: N_5  and  C_41
    4  A    between atoms: C_7  and  C_12
    5  A    between atoms: C_7  and  C_29
    6  A    between atoms: C_8  and  N_11
    7  A    between atoms: N_11  and  C_28
    8  A    between atoms: C_12  and  N_38
    9  A    between atoms: C_15  and  C_20
   10  A    between atoms: C_15  and  C_22
   11  A    between atoms: C_20  and  C_45
   12  A    between atoms: C_26  and  N_44
   13  A    between atoms: C_35  and  C_40
   14  A    between atoms: C_46  and  C_47
                            x       y       z     vdW  Elec       q    Type
                         _______ _______ _______ _____ _____    ______ ____

>  <TORSDO>
F 14

$$$$
=
 OpenBabel11032419363D

 49 54  0  0  1  0  0  0  0  0999 V2000
  183.5030  177.1710  138.3700 C   0  0  0  0  0  0  0  0  0  0  0  0
  184.7250  177.8460  138.2190 C   0  0  0  0  0  3  0  0  0  0  0  0
  184.6510  178.5650  140.5320 C   0  0  0  0  0  0  0  0  0  0  0  0
  183.4340  177.8970  140.6930 C   0  0  0  0  0  3  0  0  0  0  0  0
  185.2940  178.5430  139.2840 C   0  0  0  0  0  3  0  0  0  0  0  0
  182.8460  177.1950  139.6270 C   0  0  0  0  0  0  0  0  0  0  0  0
  180.2970  177.2450  139.4420 N   0  0  0  0  0  2  0  0  0  0  0  0
  181.5100  176.5790  139.8170 C   0  0  0  0  0  0  0  0  0  0  0  0
  181.4270  175.4200  140.3050 O   0  0  0  0  0  0  0  0  0  0  0  0
  180.1770  178.6740  139.1830 C   0  0  0  0  0  2  0  0  0  0  0  0
  180.2460  178.9460  137.6860 C   0  0  0  0  0  2  0  0  0  0  0  0
  179.9980  182.4530  136.8080 C   0  0  0  0  0  0  0  0  0  0  0  0
  181.8310  183.7940  137.6640 C   0  0  0  0  0  3  0  0  0  0  0  0
  182.4900  180.8770  138.6150 O   0  0  0  0  0  0  0  0  0  0  0  0
  180.0220  184.8160  136.3770 C   0  0  0  0  0  3  0  0  0  0  0  0
  181.4940  181.2420  137.9400 C   0  0  0  0  0  0  0  0  0  0  0  0
  180.3940  180.4080  137.4450 C   0  0  0  0  0  0  0  0  0  0  0  0
  179.5200  181.1060  136.7880 N   0  0  0  0  0  0  0  0  0  0  0  0
  179.3880  183.5660  136.2300 C   0  0  0  0  0  3  0  0  0  0  0  0
  181.1820  182.5730  137.4950 C   0  0  0  0  0  0  0  0  0  0  0  0
  181.2330  184.9290  137.0920 C   0  0  0  0  0  3  0  0  0  0  0  0
  185.2380  179.3250  141.6790 C   0  0  2  0  0  3  0  0  0  0  0  0
  186.5390  179.7300  141.3560 O   0  0  0  0  0  1  0  0  0  0  0  0
  185.2100  178.4720  142.9570 C   0  0  2  0  0  3  0  0  0  0  0  0
  183.1920  179.6210  144.0630 C   0  0  0  0  0  2  0  0  0  0  0  0
  183.6640  178.5080  144.9860 C   0  0  0  0  0  2  0  0  0  0  0  0
  184.6710  179.2890  144.1560 C   0  0  0  0  0  3  0  0  0  0  0  0
  187.0760  177.6410  144.3100 N   0  0  0  0  0  0  0  0  0  0  0  0
  186.4600  177.6470  143.1760 C   0  0  0  0  0  3  0  0  0  0  0  0
  188.7560  176.3230  143.1440 C   0  0  0  0  0  1  0  0  0  0  0  0
  188.2960  176.8910  144.4850 C   0  0  1  0  0  3  0  0  0  0  0  0
  191.0600  176.7120  146.3890 C   0  0  0  0  0  0  0  0  0  0  0  0
  192.1280  176.1150  146.6870 O   0  0  0  0  0  0  0  0  0  0  0  0
  189.0010  177.7100  146.6230 C   0  0  0  0  0  3  0  0  0  0  0  0
  190.0980  177.0820  147.3440 N   0  0  0  0  0  0  0  0  0  0  0  0
  190.6620  177.0960  145.0270 C   0  0  1  0  0  3  0  0  0  0  0  0
  189.3220  177.6900  145.1790 N   0  0  0  0  0  0  0  0  0  0  0  0
  190.9370  179.3410  143.8700 C   0  0  0  0  0  1  0  0  0  0  0  0
  191.6330  178.1060  144.4070 C   0  0  0  0  0  2  0  0  0  0  0  0
  182.9640  176.3990  137.2830 N   0  0  0  0  0  2  0  0  0  0  0  0
  182.3170  173.7310  136.8730 S   0  0  0  0  0  0  0  0  0  0  0  0
  183.5170  172.6230  136.4720 C   0  0  0  0  0  0  0  0  0  0  0  0
  183.2540  171.1740  136.2540 C   0  0  0  0  0  1  0  0  0  0  0  0
  183.3390  175.0670  136.9190 C   0  0  0  0  0  0  0  0  0  0  0  0
  184.6410  174.6750  136.6400 C   0  0  0  0  0  3  0  0  0  0  0  0
  184.7490  173.2980  136.3800 C   0  0  0  0  0  0  0  0  0  0  0  0
  186.0070  172.6790  136.0370 N   0  0  0  0  0  0  0  0  0  0  0  0
  186.2830  172.1550  134.7090 C   0  0  0  0  0  1  0  0  0  0  0  0
  187.0600  172.5470  137.0380 C   0  0  0  0  0  1  0  0  0  0  0  0
  1  6  1  0  0  0  0
  2  1  2  0  0  0  0
  2  5  1  0  0  0  0
  3  4  1  0  0  0  0
  3 22  1  0  0  0  0
  5  3  2  0  0  0  0
  6  8  1  0  0  0  0
  6  4  2  0  0  0  0
  7  8  1  0  0  0  0
  8  9  2  0  0  0  0
 10  7  1  0  0  0  0
 11 10  1  0  0  0  0
 12 20  1  0  0  0  0
 15 21  2  0  0  0  0
 16 14  2  0  0  0  0
 17 11  1  0  0  0  0
 17 16  1  0  0  0  0
 18 12  1  0  0  0  0
 18 17  2  0  0  0  0
 19 15  1  0  0  0  0
 19 12  2  0  0  0  0
 20 13  2  0  0  0  0
 20 16  1  0  0  0  0
 21 13  1  0  0  0  0
 22 23  1  6  0  0  0
 22 24  1  0  0  0  0
 24 29  1  1  0  0  0
 24 27  1  0  0  0  0
 25 27  1  0  0  0  0
 25 26  1  0  0  0  0
 27 26  1  0  0  0  0
 28 31  1  0  0  0  0
 29 28  2  0  0  0  0
 31 30  1  6  0  0  0
 31 37  1  0  0  0  0
 32 33  2  0  0  0  0
 32 35  1  0  0  0  0
 34 35  2  0  0  0  0
 36 39  1  1  0  0  0
 36 37  1  0  0  0  0
 36 32  1  0  0  0  0
 37 34  1  0  0  0  0
 38 39  1  0  0  0  0
 40  1  1  0  0  0  0
 41 44  1  0  0  0  0
 42 41  1  0  0  0  0
 43 42  1  0  0  0  0
 44 40  1  0  0  0  0
 45 44  2  0  0  0  0
 46 42  2  0  0  0  0
 46 45  1  0  0  0  0
 47 46  1  0  0  0  0
 47 49  1  0  0  0  0
 48 47  1  0  0  0  0
M  END
>  <MODEL>
3

>  <REMARK>
 VINA RESULT:      -7.9      2.831      5.249
  Name = 
  14 active torsions:
  status: ('A' for Active; 'I' for Inactive)
    1  A    between atoms: N_1  and  C_26
    2  A    between atoms: C_3  and  C_20
    3  A    between atoms: N_5  and  C_41
    4  A    between atoms: C_7  and  C_12
    5  A    between atoms: C_7  and  C_29
    6  A    between atoms: C_8  and  N_11
    7  A    between atoms: N_11  and  C_28
    8  A    between atoms: C_12  and  N_38
    9  A    between atoms: C_15  and  C_20
   10  A    between atoms: C_15  and  C_22
   11  A    between atoms: C_20  and  C_45
   12  A    between atoms: C_26  and  N_44
   13  A    between atoms: C_35  and  C_40
   14  A    between atoms: C_46  and  C_47
                            x       y       z     vdW  Elec       q    Type
                         _______ _______ _______ _____ _____    ______ ____

>  <TORSDO>
F 14

$$$$
=
 OpenBabel11032419363D

 49 54  0  0  1  0  0  0  0  0999 V2000
  185.9730  177.9260  138.3390 C   0  0  0  0  0  0  0  0  0  0  0  0
  184.9370  177.0920  137.8890 C   0  0  0  0  0  3  0  0  0  0  0  0
  186.5210  175.7260  136.6680 C   0  0  0  0  0  0  0  0  0  0  0  0
  187.5610  176.5490  137.1090 C   0  0  0  0  0  3  0  0  0  0  0  0
  185.2020  176.0060  137.0560 C   0  0  0  0  0  3  0  0  0  0  0  0
  187.3080  177.6500  137.9450 C   0  0  0  0  0  0  0  0  0  0  0  0
  189.2080  178.3590  139.5000 N   0  0  0  0  0  2  0  0  0  0  0  0
  188.4280  178.5500  138.3130 C   0  0  0  0  0  0  0  0  0  0  0  0
  188.7270  179.5080  137.5510 O   0  0  0  0  0  0  0  0  0  0  0  0
  188.8110  177.5360  140.6350 C   0  0  0  0  0  2  0  0  0  0  0  0
  190.0070  177.2760  141.5410 C   0  0  0  0  0  2  0  0  0  0  0  0
  188.3560  177.5330  144.7570 C   0  0  0  0  0  0  0  0  0  0  0  0
  189.8340  177.1220  146.6360 C   0  0  0  0  0  3  0  0  0  0  0  0
  191.6830  176.8440  144.1170 O   0  0  0  0  0  0  0  0  0  0  0  0
  187.4660  177.6160  146.9860 C   0  0  0  0  0  3  0  0  0  0  0  0
  190.4550  177.1120  144.1230 C   0  0  0  0  0  0  0  0  0  0  0  0
  189.5830  177.3440  142.9670 C   0  0  0  0  0  0  0  0  0  0  0  0
  188.3610  177.5880  143.3280 N   0  0  0  0  0  0  0  0  0  0  0  0
  187.2600  177.7280  145.5960 C   0  0  0  0  0  3  0  0  0  0  0  0
  189.5970  177.2450  145.2700 C   0  0  0  0  0  0  0  0  0  0  0  0
  188.7440  177.3120  147.5020 C   0  0  0  0  0  3  0  0  0  0  0  0
  186.8200  174.5760  135.7580 C   0  0  2  0  0  3  0  0  0  0  0  0
  186.0510  174.6880  134.5940 O   0  0  0  0  0  1  0  0  0  0  0  0
  186.5690  173.2430  136.4790 C   0  0  2  0  0  3  0  0  0  0  0  0
  188.8740  172.6140  135.5250 C   0  0  0  0  0  2  0  0  0  0  0  0
  189.0940  173.3790  136.8210 C   0  0  0  0  0  2  0  0  0  0  0  0
  187.8910  172.4600  136.6730 C   0  0  0  0  0  3  0  0  0  0  0  0
  184.1710  172.7570  136.3500 N   0  0  0  0  0  0  0  0  0  0  0  0
  185.3700  172.4770  135.9610 C   0  0  0  0  0  3  0  0  0  0  0  0
  182.9080  170.7100  136.7200 C   0  0  0  0  0  1  0  0  0  0  0  0
  183.0450  171.9830  135.8860 C   0  0  1  0  0  3  0  0  0  0  0  0
  180.9000  173.7890  137.7400 C   0  0  0  0  0  0  0  0  0  0  0  0
  180.7020  174.5610  138.7160 O   0  0  0  0  0  0  0  0  0  0  0  0
  180.6920  171.9810  136.3340 C   0  0  0  0  0  3  0  0  0  0  0  0
  180.1530  172.6180  137.5250 N   0  0  0  0  0  0  0  0  0  0  0  0
  181.9260  173.9870  136.7050 C   0  0  1  0  0  3  0  0  0  0  0  0
  181.8180  172.8000  135.8370 N   0  0  0  0  0  0  0  0  0  0  0  0
  182.4900  175.3100  134.6120 C   0  0  0  0  0  1  0  0  0  0  0  0
  181.6920  175.2680  135.9000 C   0  0  0  0  0  2  0  0  0  0  0  0
  185.6920  179.0000  139.2530 N   0  0  0  0  0  2  0  0  0  0  0  0
  185.2810  178.9010  141.9970 S   0  0  0  0  0  0  0  0  0  0  0  0
  183.7220  178.7560  142.6120 C   0  0  0  0  0  0  0  0  0  0  0  0
  183.4200  178.6770  144.0680 C   0  0  0  0  0  1  0  0  0  0  0  0
  184.8130  178.9480  140.3810 C   0  0  0  0  0  0  0  0  0  0  0  0
  183.4330  178.8320  140.2860 C   0  0  0  0  0  3  0  0  0  0  0  0
  182.8090  178.7300  141.5410 C   0  0  0  0  0  0  0  0  0  0  0  0
  181.3760  178.6310  141.6790 N   0  0  0  0  0  0  0  0  0  0  0  0
  180.5970  177.5980  141.0150 C   0  0  0  0  0  1  0  0  0  0  0  0
  180.6460  179.5930  142.4970 C   0  0  0  0  0  1  0  0  0  0  0  0
  1 40  1  0  0  0  0
  2  1  2  0  0  0  0
  3  5  2  0  0  0  0
  3  4  1  0  0  0  0
  4  6  2  0  0  0  0
  5  2  1  0  0  0  0
  6  8  1  0  0  0  0
  6  1  1  0  0  0  0
  7 10  1  0  0  0  0
  8  7  1  0  0  0  0
  9  8  2  0  0  0  0
 10 11  1  0  0  0  0
 11 17  1  0  0  0  0
 12 20  2  0  0  0  0
 12 19  1  0  0  0  0
 13 21  2  0  0  0  0
 14 16  2  0  0  0  0
 15 21  1  0  0  0  0
 16 20  1  0  0  0  0
 17 18  2  0  0  0  0
 17 16  1  0  0  0  0
 18 12  1  0  0  0  0
 19 15  2  0  0  0  0
 20 13  1  0  0  0  0
 22 23  1  6  0  0  0
 22 24  1  0  0  0  0
 22  3  1  0  0  0  0
 24 29  1  6  0  0  0
 24 27  1  0  0  0  0
 25 27  1  0  0  0  0
 25 26  1  0  0  0  0
 27 26  1  0  0  0  0
 29 28  2  0  0  0  0
 31 28  1  0  0  0  0
 31 30  1  1  0  0  0
 32 33  2  0  0  0  0
 34 35  2  0  0  0  0
 35 32  1  0  0  0  0
 36 39  1  6  0  0  0
 36 32  1  0  0  0  0
 37 31  1  0  0  0  0
 37 34  1  0  0  0  0
 37 36  1  0  0  0  0
 38 39  1  0  0  0  0
 40 44  1  0  0  0  0
 41 42  1  0  0  0  0
 42 43  1  0  0  0  0
 44 41  1  0  0  0  0
 45 44  2  0  0  0  0
 45 46  1  0  0  0  0
 46 47  1  0  0  0  0
 46 42  2  0  0  0  0
 47 49  1  0  0  0  0
 48 47  1  0  0  0  0
M  END
>  <MODEL>
4

>  <REMARK>
 VINA RESULT:      -7.8      2.453      9.048
  Name = 
  14 active torsions:
  status: ('A' for Active; 'I' for Inactive)
    1  A    between atoms: N_1  and  C_26
    2  A    between atoms: C_3  and  C_20
    3  A    between atoms: N_5  and  C_41
    4  A    between atoms: C_7  and  C_12
    5  A    between atoms: C_7  and  C_29
    6  A    between atoms: C_8  and  N_11
    7  A    between atoms: N_11  and  C_28
    8  A    between atoms: C_12  and  N_38
    9  A    between atoms: C_15  and  C_20
   10  A    between atoms: C_15  and  C_22
   11  A    between atoms: C_20  and  C_45
   12  A    between atoms: C_26  and  N_44
   13  A    between atoms: C_35  and  C_40
   14  A    between atoms: C_46  and  C_47
                            x       y       z     vdW  Elec       q    Type
                         _______ _______ _______ _____ _____    ______ ____

>  <TORSDO>
F 14

$$$$
=
 OpenBabel11032419363D

 49 54  0  0  1  0  0  0  0  0999 V2000
  189.8310  176.1350  137.4020 C   0  0  0  0  0  0  0  0  0  0  0  0
  189.6360  174.8450  136.8840 C   0  0  0  0  0  3  0  0  0  0  0  0
  187.2700  175.2810  136.5980 C   0  0  0  0  0  0  0  0  0  0  0  0
  187.4520  176.5680  137.1120 C   0  0  0  0  0  3  0  0  0  0  0  0
  188.3690  174.4150  136.4910 C   0  0  0  0  0  3  0  0  0  0  0  0
  188.7220  177.0130  137.5170 C   0  0  0  0  0  0  0  0  0  0  0  0
  189.1170  178.5230  139.5410 N   0  0  0  0  0  2  0  0  0  0  0  0
  188.8530  178.3510  138.1420 C   0  0  0  0  0  0  0  0  0  0  0  0
  188.7530  179.3820  137.4240 O   0  0  0  0  0  0  0  0  0  0  0  0
  188.9360  177.4920  140.5560 C   0  0  0  0  0  2  0  0  0  0  0  0
  188.1350  178.0430  141.7290 C   0  0  0  0  0  2  0  0  0  0  0  0
  190.3210  177.1310  144.4720 C   0  0  0  0  0  0  0  0  0  0  0  0
  189.2070  177.1110  146.6270 C   0  0  0  0  0  3  0  0  0  0  0  0
  186.9500  177.8920  144.5920 O   0  0  0  0  0  0  0  0  0  0  0  0
  191.5870  176.5890  146.4390 C   0  0  0  0  0  3  0  0  0  0  0  0
  188.1530  177.6470  144.3240 C   0  0  0  0  0  0  0  0  0  0  0  0
  188.8020  177.6790  143.0090 C   0  0  0  0  0  0  0  0  0  0  0  0
  190.0620  177.3810  143.0880 N   0  0  0  0  0  0  0  0  0  0  0  0
  191.5430  176.7780  145.0430 C   0  0  0  0  0  3  0  0  0  0  0  0
  189.1970  177.2850  145.2460 C   0  0  0  0  0  0  0  0  0  0  0  0
  190.4280  176.7570  147.2260 C   0  0  0  0  0  3  0  0  0  0  0  0
  185.9000  174.8280  136.1990 C   0  0  2  0  0  3  0  0  0  0  0  0
  185.2590  175.8490  135.4860 O   0  0  0  0  0  1  0  0  0  0  0  0
  185.0940  174.4080  137.4380 C   0  0  2  0  0  3  0  0  0  0  0  0
  183.8750  172.1930  136.9620 C   0  0  0  0  0  2  0  0  0  0  0  0
  185.2240  172.1480  136.2610 C   0  0  0  0  0  2  0  0  0  0  0  0
  185.0810  172.8680  137.5930 C   0  0  0  0  0  3  0  0  0  0  0  0
  183.6630  176.1600  138.3790 N   0  0  0  0  0  0  0  0  0  0  0  0
  183.7790  175.1400  137.5960 C   0  0  0  0  0  3  0  0  0  0  0  0
  181.4750  175.9470  139.4220 C   0  0  0  0  0  1  0  0  0  0  0  0
  182.3900  176.8140  138.5580 C   0  0  1  0  0  3  0  0  0  0  0  0
  181.4360  178.9760  140.9470 C   0  0  0  0  0  0  0  0  0  0  0  0
  181.0910  179.1820  142.1420 O   0  0  0  0  0  0  0  0  0  0  0  0
  181.3850  178.9870  138.6480 C   0  0  0  0  0  3  0  0  0  0  0  0
  180.7030  179.4500  139.8460 N   0  0  0  0  0  0  0  0  0  0  0  0
  182.6270  178.2190  140.5340 C   0  0  1  0  0  3  0  0  0  0  0  0
  182.5600  178.1890  139.0620 N   0  0  0  0  0  0  0  0  0  0  0  0
  184.4960  178.2490  142.2530 C   0  0  0  0  0  1  0  0  0  0  0  0
  183.9240  178.8850  141.0020 C   0  0  0  0  0  2  0  0  0  0  0  0
  191.1540  176.5880  137.7370 N   0  0  0  0  0  2  0  0  0  0  0  0
  193.0300  176.0080  135.7740 S   0  0  0  0  0  0  0  0  0  0  0  0
  194.3580  175.0420  136.1350 C   0  0  0  0  0  0  0  0  0  0  0  0
  195.3970  174.6700  135.1360 C   0  0  0  0  0  1  0  0  0  0  0  0
  192.3870  175.9860  137.3290 C   0  0  0  0  0  0  0  0  0  0  0  0
  193.1850  175.2090  138.1590 C   0  0  0  0  0  3  0  0  0  0  0  0
  194.3030  174.6790  137.4950 C   0  0  0  0  0  0  0  0  0  0  0  0
  195.2830  173.8660  138.1740 N   0  0  0  0  0  0  0  0  0  0  0  0
  195.3740  172.4270  137.9810 C   0  0  0  0  0  1  0  0  0  0  0  0
  196.2280  174.4730  139.1050 C   0  0  0  0  0  1  0  0  0  0  0  0
  1  6  1  0  0  0  0
  1 40  1  0  0  0  0
  2  1  2  0  0  0  0
  3  4  1  0  0  0  0
  4  6  2  0  0  0  0
  5  3  2  0  0  0  0
  5  2  1  0  0  0  0
  6  8  1  0  0  0  0
  7 10  1  0  0  0  0
  8  7  1  0  0  0  0
  9  8  2  0  0  0  0
 10 11  1  0  0  0  0
 11 17  1  0  0  0  0
 12 19  2  0  0  0  0
 12 20  1  0  0  0  0
 13 21  1  0  0  0  0
 15 21  2  0  0  0  0
 16 14  2  0  0  0  0
 16 20  1  0  0  0  0
 17 18  2  0  0  0  0
 17 16  1  0  0  0  0
 18 12  1  0  0  0  0
 19 15  1  0  0  0  0
 20 13  2  0  0  0  0
 22 23  1  1  0  0  0
 22  3  1  0  0  0  0
 22 24  1  0  0  0  0
 24 27  1  0  0  0  0
 24 29  1  6  0  0  0
 25 27  1  0  0  0  0
 26 25  1  0  0  0  0
 26 27  1  0  0  0  0
 28 31  1  0  0  0  0
 29 28  2  0  0  0  0
 31 37  1  0  0  0  0
 31 30  1  1  0  0  0
 32 33  2  0  0  0  0
 34 37  1  0  0  0  0
 34 35  2  0  0  0  0
 35 32  1  0  0  0  0
 36 32  1  0  0  0  0
 36 39  1  6  0  0  0
 37 36  1  0  0  0  0
 39 38  1  0  0  0  0
 41 42  1  0  0  0  0
 41 44  1  0  0  0  0
 42 46  2  0  0  0  0
 43 42  1  0  0  0  0
 44 40  1  0  0  0  0
 44 45  2  0  0  0  0
 46 45  1  0  0  0  0
 46 47  1  0  0  0  0
 47 49  1  0  0  0  0
 48 47  1  0  0  0  0
M  END
>  <MODEL>
5

>  <REMARK>
 VINA RESULT:      -7.8      3.569      9.345
  Name = 
  14 active torsions:
  status: ('A' for Active; 'I' for Inactive)
    1  A    between atoms: N_1  and  C_26
    2  A    between atoms: C_3  and  C_20
    3  A    between atoms: N_5  and  C_41
    4  A    between atoms: C_7  and  C_12
    5  A    between atoms: C_7  and  C_29
    6  A    between atoms: C_8  and  N_11
    7  A    between atoms: N_11  and  C_28
    8  A    between atoms: C_12  and  N_38
    9  A    between atoms: C_15  and  C_20
   10  A    between atoms: C_15  and  C_22
   11  A    between atoms: C_20  and  C_45
   12  A    between atoms: C_26  and  N_44
   13  A    between atoms: C_35  and  C_40
   14  A    between atoms: C_46  and  C_47
                            x       y       z     vdW  Elec       q    Type
                         _______ _______ _______ _____ _____    ______ ____

>  <TORSDO>
F 14

$$$$
=
 OpenBabel11032419363D

 49 54  0  0  1  0  0  0  0  0999 V2000
  186.0770  178.2380  138.7840 C   0  0  0  0  0  0  0  0  0  0  0  0
  184.9730  177.6540  138.1420 C   0  0  0  0  0  3  0  0  0  0  0  0
  186.4430  176.4500  136.6380 C   0  0  0  0  0  0  0  0  0  0  0  0
  187.5490  177.0250  137.2700 C   0  0  0  0  0  3  0  0  0  0  0  0
  185.1490  176.7740  137.0750 C   0  0  0  0  0  3  0  0  0  0  0  0
  187.3870  177.9180  138.3430 C   0  0  0  0  0  0  0  0  0  0  0  0
  189.2440  178.0750  140.0920 N   0  0  0  0  0  2  0  0  0  0  0  0
  188.5830  178.5750  138.9220 C   0  0  0  0  0  0  0  0  0  0  0  0
  189.0590  179.5990  138.3620 O   0  0  0  0  0  0  0  0  0  0  0  0
  188.6620  177.1320  141.0390 C   0  0  0  0  0  2  0  0  0  0  0  0
  189.7160  176.6720  142.0380 C   0  0  0  0  0  2  0  0  0  0  0  0
  188.0300  177.5090  145.1360 C   0  0  0  0  0  0  0  0  0  0  0  0
  189.5020  177.5100  147.0640 C   0  0  0  0  0  3  0  0  0  0  0  0
  191.3800  176.7930  144.6540 O   0  0  0  0  0  0  0  0  0  0  0  0
  187.1200  178.0010  147.3030 C   0  0  0  0  0  3  0  0  0  0  0  0
  190.1450  177.0260  144.6040 C   0  0  0  0  0  0  0  0  0  0  0  0
  189.2780  177.0060  143.4210 C   0  0  0  0  0  0  0  0  0  0  0  0
  188.0470  177.2840  143.7240 N   0  0  0  0  0  0  0  0  0  0  0  0
  186.9230  177.8350  145.9170 C   0  0  0  0  0  3  0  0  0  0  0  0
  189.2740  177.3580  145.6990 C   0  0  0  0  0  0  0  0  0  0  0  0
  188.4000  177.8370  147.8730 C   0  0  0  0  0  3  0  0  0  0  0  0
  186.6480  175.5230  135.4810 C   0  0  2  0  0  3  0  0  0  0  0  0
  185.5710  175.6370  134.5940 O   0  0  0  0  0  1  0  0  0  0  0  0
  186.8260  174.0790  135.9770 C   0  0  2  0  0  3  0  0  0  0  0  0
  184.6920  173.2790  137.1690 C   0  0  0  0  0  2  0  0  0  0  0  0
  185.8420  172.3890  137.6150 C   0  0  0  0  0  2  0  0  0  0  0  0
  186.0870  173.8600  137.3200 C   0  0  0  0  0  3  0  0  0  0  0  0
  189.1960  174.0260  136.5960 N   0  0  0  0  0  0  0  0  0  0  0  0
  188.2420  173.5580  135.8620 C   0  0  0  0  0  3  0  0  0  0  0  0
  190.6250  172.5650  135.2750 C   0  0  0  0  0  1  0  0  0  0  0  0
  190.5500  173.5540  136.4370 C   0  0  1  0  0  3  0  0  0  0  0  0
  191.8180  176.2150  138.0520 C   0  0  0  0  0  0  0  0  0  0  0  0
  192.1830  176.7480  139.1330 O   0  0  0  0  0  0  0  0  0  0  0  0
  190.7310  175.9110  136.0480 C   0  0  0  0  0  3  0  0  0  0  0  0
  190.9430  176.8400  137.1470 N   0  0  0  0  0  0  0  0  0  0  0  0
  192.2370  174.8850  137.5860 C   0  0  1  0  0  3  0  0  0  0  0  0
  191.4990  174.6780  136.3270 N   0  0  0  0  0  0  0  0  0  0  0  0
  194.2500  173.3860  137.1950 C   0  0  0  0  0  1  0  0  0  0  0  0
  193.7480  174.8080  137.3450 C   0  0  0  0  0  2  0  0  0  0  0  0
  185.8820  179.0880  139.9270 N   0  0  0  0  0  2  0  0  0  0  0  0
  184.9710  178.9070  142.5430 S   0  0  0  0  0  0  0  0  0  0  0  0
  183.3250  178.7600  142.8550 C   0  0  0  0  0  0  0  0  0  0  0  0
  182.7590  178.6390  144.2270 C   0  0  0  0  0  1  0  0  0  0  0  0
  184.8100  179.0110  140.8710 C   0  0  0  0  0  0  0  0  0  0  0  0
  183.4700  178.9150  140.5190 C   0  0  0  0  0  3  0  0  0  0  0  0
  182.6250  178.7800  141.6340 C   0  0  0  0  0  0  0  0  0  0  0  0
  181.1900  178.6940  141.5020 N   0  0  0  0  0  0  0  0  0  0  0  0
  180.3000  179.7540  141.9460 C   0  0  0  0  0  1  0  0  0  0  0  0
  180.5730  177.5090  140.9150 C   0  0  0  0  0  1  0  0  0  0  0  0
  1 40  1  0  0  0  0
  2  1  2  0  0  0  0
  3  5  2  0  0  0  0
  3  4  1  0  0  0  0
  4  6  2  0  0  0  0
  5  2  1  0  0  0  0
  6  1  1  0  0  0  0
  6  8  1  0  0  0  0
  7 10  1  0  0  0  0
  8  7  1  0  0  0  0
  9  8  2  0  0  0  0
 10 11  1  0  0  0  0
 11 17  1  0  0  0  0
 12 20  2  0  0  0  0
 12 19  1  0  0  0  0
 13 21  2  0  0  0  0
 15 21  1  0  0  0  0
 16 14  2  0  0  0  0
 16 20  1  0  0  0  0
 17 18  2  0  0  0  0
 17 16  1  0  0  0  0
 18 12  1  0  0  0  0
 19 15  2  0  0  0  0
 20 13  1  0  0  0  0
 22 23  1  6  0  0  0
 22 24  1  0  0  0  0
 22  3  1  0  0  0  0
 24 29  1  1  0  0  0
 24 27  1  0  0  0  0
 25 27  1  0  0  0  0
 25 26  1  0  0  0  0
 27 26  1  0  0  0  0
 29 28  2  0  0  0  0
 31 30  1  6  0  0  0
 31 28  1  0  0  0  0
 32 33  2  0  0  0  0
 34 37  1  0  0  0  0
 34 35  2  0  0  0  0
 35 32  1  0  0  0  0
 36 39  1  6  0  0  0
 36 32  1  0  0  0  0
 37 31  1  0  0  0  0
 37 36  1  0  0  0  0
 38 39  1  0  0  0  0
 40 44  1  0  0  0  0
 41 42  1  0  0  0  0
 42 43  1  0  0  0  0
 44 41  1  0  0  0  0
 45 44  2  0  0  0  0
 45 46  1  0  0  0  0
 46 42  2  0  0  0  0
 47 46  1  0  0  0  0
 47 48  1  0  0  0  0
 49 47  1  0  0  0  0
M  END
>  <MODEL>
6

>  <REMARK>
 VINA RESULT:      -7.8      2.938      7.882
  Name = 
  14 active torsions:
  status: ('A' for Active; 'I' for Inactive)
    1  A    between atoms: N_1  and  C_26
    2  A    between atoms: C_3  and  C_20
    3  A    between atoms: N_5  and  C_41
    4  A    between atoms: C_7  and  C_12
    5  A    between atoms: C_7  and  C_29
    6  A    between atoms: C_8  and  N_11
    7  A    between atoms: N_11  and  C_28
    8  A    between atoms: C_12  and  N_38
    9  A    between atoms: C_15  and  C_20
   10  A    between atoms: C_15  and  C_22
   11  A    between atoms: C_20  and  C_45
   12  A    between atoms: C_26  and  N_44
   13  A    between atoms: C_35  and  C_40
   14  A    between atoms: C_46  and  C_47
                            x       y       z     vdW  Elec       q    Type
                         _______ _______ _______ _____ _____    ______ ____

>  <TORSDO>
F 14

$$$$
=
 OpenBabel11032419363D

 49 54  0  0  1  0  0  0  0  0999 V2000
  184.8900  177.7190  137.8180 C   0  0  0  0  0  0  0  0  0  0  0  0
  185.6670  176.8950  136.9870 C   0  0  0  0  0  3  0  0  0  0  0  0
  187.6920  177.6320  138.0930 C   0  0  0  0  0  0  0  0  0  0  0  0
  186.9290  178.4570  138.9250 C   0  0  0  0  0  3  0  0  0  0  0  0
  187.0540  176.8540  137.1140 C   0  0  0  0  0  3  0  0  0  0  0  0
  185.5300  178.5120  138.8040 C   0  0  0  0  0  0  0  0  0  0  0  0
  184.7510  179.3860  141.0760 N   0  0  0  0  0  2  0  0  0  0  0  0
  184.7710  179.4680  139.6450 C   0  0  0  0  0  0  0  0  0  0  0  0
  184.1330  180.4050  139.0930 O   0  0  0  0  0  0  0  0  0  0  0  0
  185.1390  178.2130  141.8490 C   0  0  0  0  0  2  0  0  0  0  0  0
  184.5870  178.3090  143.2650 C   0  0  0  0  0  2  0  0  0  0  0  0
  187.6100  177.5520  145.1150 C   0  0  0  0  0  0  0  0  0  0  0  0
  187.4320  178.0210  147.4880 C   0  0  0  0  0  3  0  0  0  0  0  0
  184.6130  178.7710  146.3330 O   0  0  0  0  0  0  0  0  0  0  0  0
  189.5090  177.1590  146.5320 C   0  0  0  0  0  3  0  0  0  0  0  0
  185.5960  178.3260  145.6890 C   0  0  0  0  0  0  0  0  0  0  0  0
  185.6780  178.0630  144.2480 C   0  0  0  0  0  0  0  0  0  0  0  0
  186.8460  177.6140  143.9080 N   0  0  0  0  0  0  0  0  0  0  0  0
  188.9330  177.1310  145.2450 C   0  0  0  0  0  3  0  0  0  0  0  0
  186.8920  177.9760  146.2060 C   0  0  0  0  0  0  0  0  0  0  0  0
  188.7650  177.6040  147.6450 C   0  0  0  0  0  3  0  0  0  0  0  0
  189.1830  177.6150  138.2290 C   0  0  2  0  0  3  0  0  0  0  0  0
  189.7690  177.9330  136.9980 O   0  0  0  0  0  1  0  0  0  0  0  0
  189.6570  176.2490  138.7490 C   0  0  2  0  0  3  0  0  0  0  0  0
  190.3950  177.8090  140.6570 C   0  0  0  0  0  2  0  0  0  0  0  0
  189.4980  176.7330  141.2490 C   0  0  0  0  0  2  0  0  0  0  0  0
  190.4210  176.4010  140.0870 C   0  0  0  0  0  3  0  0  0  0  0  0
  191.3520  174.6930  137.9080 N   0  0  0  0  0  0  0  0  0  0  0  0
  190.2720  175.3640  137.6860 C   0  0  0  0  0  3  0  0  0  0  0  0
  191.0890  173.9410  135.6090 C   0  0  0  0  0  1  0  0  0  0  0  0
  191.9550  173.8960  136.8680 C   0  0  1  0  0  3  0  0  0  0  0  0
  194.9650  174.2020  138.3310 C   0  0  0  0  0  0  0  0  0  0  0  0
  195.8040  173.7810  139.1710 O   0  0  0  0  0  0  0  0  0  0  0  0
  193.5670  175.6360  137.2020 C   0  0  0  0  0  3  0  0  0  0  0  0
  194.5620  175.5460  138.2590 N   0  0  0  0  0  0  0  0  0  0  0  0
  194.2880  173.3670  137.3270 C   0  0  1  0  0  3  0  0  0  0  0  0
  193.3590  174.2830  136.6420 N   0  0  0  0  0  0  0  0  0  0  0  0
  194.7270  171.5180  135.6420 C   0  0  0  0  0  1  0  0  0  0  0  0
  195.2750  172.7520  136.3300 C   0  0  0  0  0  2  0  0  0  0  0  0
  183.4560  177.6970  137.7210 N   0  0  0  0  0  2  0  0  0  0  0  0
  182.3900  175.1860  137.2040 S   0  0  0  0  0  0  0  0  0  0  0  0
  181.2030  174.5490  138.2110 C   0  0  0  0  0  0  0  0  0  0  0  0
  180.5690  173.2200  137.9920 C   0  0  0  0  0  1  0  0  0  0  0  0
  182.5960  176.6100  138.0770 C   0  0  0  0  0  0  0  0  0  0  0  0
  181.7300  176.6280  139.1620 C   0  0  0  0  0  3  0  0  0  0  0  0
  180.9460  175.4650  139.2490 C   0  0  0  0  0  0  0  0  0  0  0  0
  179.9980  175.2580  140.3180 N   0  0  0  0  0  0  0  0  0  0  0  0
  179.7040  173.9400  140.8570 C   0  0  0  0  0  1  0  0  0  0  0  0
  179.2810  176.3890  140.8970 C   0  0  0  0  0  1  0  0  0  0  0  0
  1  6  1  0  0  0  0
  2  5  1  0  0  0  0
  2  1  2  0  0  0  0
  3 22  1  0  0  0  0
  3  4  1  0  0  0  0
  5  3  2  0  0  0  0
  6  4  2  0  0  0  0
  6  8  1  0  0  0  0
  7 10  1  0  0  0  0
  8  7  1  0  0  0  0
  9  8  2  0  0  0  0
 10 11  1  0  0  0  0
 11 17  1  0  0  0  0
 12 19  2  0  0  0  0
 12 20  1  0  0  0  0
 13 21  1  0  0  0  0
 15 21  2  0  0  0  0
 16 20  1  0  0  0  0
 16 14  2  0  0  0  0
 17 16  1  0  0  0  0
 18 17  2  0  0  0  0
 18 12  1  0  0  0  0
 19 15  1  0  0  0  0
 20 13  2  0  0  0  0
 22 23  1  6  0  0  0
 22 24  1  0  0  0  0
 24 29  1  6  0  0  0
 24 27  1  0  0  0  0
 25 26  1  0  0  0  0
 27 25  1  0  0  0  0
 27 26  1  0  0  0  0
 29 28  2  0  0  0  0
 31 30  1  6  0  0  0
 31 28  1  0  0  0  0
 32 33  2  0  0  0  0
 34 35  2  0  0  0  0
 35 32  1  0  0  0  0
 36 39  1  6  0  0  0
 36 32  1  0  0  0  0
 37 31  1  0  0  0  0
 37 34  1  0  0  0  0
 37 36  1  0  0  0  0
 38 39  1  0  0  0  0
 40  1  1  0  0  0  0
 40 44  1  0  0  0  0
 41 44  1  0  0  0  0
 41 42  1  0  0  0  0
 42 46  2  0  0  0  0
 43 42  1  0  0  0  0
 44 45  2  0  0  0  0
 45 46  1  0  0  0  0
 46 47  1  0  0  0  0
 47 48  1  0  0  0  0
 47 49  1  0  0  0  0
M  END
>  <MODEL>
7

>  <REMARK>
 VINA RESULT:      -7.7      3.296      7.118
  Name = 
  14 active torsions:
  status: ('A' for Active; 'I' for Inactive)
    1  A    between atoms: N_1  and  C_26
    2  A    between atoms: C_3  and  C_20
    3  A    between atoms: N_5  and  C_41
    4  A    between atoms: C_7  and  C_12
    5  A    between atoms: C_7  and  C_29
    6  A    between atoms: C_8  and  N_11
    7  A    between atoms: N_11  and  C_28
    8  A    between atoms: C_12  and  N_38
    9  A    between atoms: C_15  and  C_20
   10  A    between atoms: C_15  and  C_22
   11  A    between atoms: C_20  and  C_45
   12  A    between atoms: C_26  and  N_44
   13  A    between atoms: C_35  and  C_40
   14  A    between atoms: C_46  and  C_47
                            x       y       z     vdW  Elec       q    Type
                         _______ _______ _______ _____ _____    ______ ____

>  <TORSDO>
F 14

$$$$
=
 OpenBabel11032419363D

 49 54  0  0  1  0  0  0  0  0999 V2000
  182.6640  175.8770  137.7970 C   0  0  0  0  0  0  0  0  0  0  0  0
  182.6200  175.6800  139.1870 C   0  0  0  0  0  3  0  0  0  0  0  0
  183.3550  177.9570  139.5670 C   0  0  0  0  0  0  0  0  0  0  0  0
  183.4020  178.1650  138.1860 C   0  0  0  0  0  3  0  0  0  0  0  0
  182.9680  176.7030  140.0670 C   0  0  0  0  0  3  0  0  0  0  0  0
  183.0600  177.1410  137.2870 C   0  0  0  0  0  0  0  0  0  0  0  0
  184.4050  177.0220  135.1170 N   0  0  0  0  0  2  0  0  0  0  0  0
  183.2130  177.3760  135.8310 C   0  0  0  0  0  0  0  0  0  0  0  0
  182.2600  177.8860  135.1830 O   0  0  0  0  0  0  0  0  0  0  0  0
  185.6950  176.7420  135.7360 C   0  0  0  0  0  2  0  0  0  0  0  0
  186.4840  178.0330  135.9130 C   0  0  0  0  0  2  0  0  0  0  0  0
  188.6240  177.7940  138.8280 C   0  0  0  0  0  0  0  0  0  0  0  0
  190.7560  176.7290  138.3750 C   0  0  0  0  0  3  0  0  0  0  0  0
  189.2940  176.7550  135.5980 O   0  0  0  0  0  0  0  0  0  0  0  0
  190.1900  177.4960  140.6250 C   0  0  0  0  0  3  0  0  0  0  0  0
  188.8530  177.2050  136.6860 C   0  0  0  0  0  0  0  0  0  0  0  0
  187.5510  177.8350  136.9320 C   0  0  0  0  0  0  0  0  0  0  0  0
  187.4110  178.1780  138.1750 N   0  0  0  0  0  0  0  0  0  0  0  0
  188.9360  177.9590  140.1770 C   0  0  0  0  0  3  0  0  0  0  0  0
  189.5130  177.2020  137.9640 C   0  0  0  0  0  0  0  0  0  0  0  0
  191.0920  176.8820  139.7300 C   0  0  0  0  0  3  0  0  0  0  0  0
  183.7500  179.0600  140.4980 C   0  0  2  0  0  3  0  0  0  0  0  0
  185.1250  179.3000  140.3830 O   0  0  0  0  0  1  0  0  0  0  0  0
  183.3530  178.7120  141.9410 C   0  0  2  0  0  3  0  0  0  0  0  0
  180.9980  178.0030  142.6960 C   0  0  0  0  0  2  0  0  0  0  0  0
  181.5330  179.0090  143.7040 C   0  0  0  0  0  2  0  0  0  0  0  0
  181.8940  179.1390  142.2320 C   0  0  0  0  0  3  0  0  0  0  0  0
  184.9390  178.1580  143.7240 N   0  0  0  0  0  0  0  0  0  0  0  0
  184.4050  179.0600  142.9720 C   0  0  0  0  0  3  0  0  0  0  0  0
  185.1850  179.0810  145.9620 C   0  0  0  0  0  1  0  0  0  0  0  0
  185.9020  178.5140  144.7370 C   0  0  1  0  0  3  0  0  0  0  0  0
  189.1160  177.5320  144.7820 C   0  0  0  0  0  0  0  0  0  0  0  0
  190.3300  177.8170  144.9640 O   0  0  0  0  0  0  0  0  0  0  0  0
  187.2050  176.7540  143.7650 C   0  0  0  0  0  3  0  0  0  0  0  0
  188.6490  176.8740  143.6310 N   0  0  0  0  0  0  0  0  0  0  0  0
  188.0280  177.8430  145.7210 C   0  0  1  0  0  3  0  0  0  0  0  0
  186.8030  177.3860  145.0400 N   0  0  0  0  0  0  0  0  0  0  0  0
  187.9120  178.0170  148.2520 C   0  0  0  0  0  1  0  0  0  0  0  0
  188.2010  177.1240  147.0620 C   0  0  0  0  0  2  0  0  0  0  0  0
  182.2360  174.8340  136.9050 N   0  0  0  0  0  2  0  0  0  0  0  0
  182.2540  172.0820  136.5390 S   0  0  0  0  0  0  0  0  0  0  0  0
  183.7050  171.2740  136.2780 C   0  0  0  0  0  0  0  0  0  0  0  0
  183.8000  169.8010  136.0920 C   0  0  0  0  0  1  0  0  0  0  0  0
  182.9350  173.6190  136.6210 C   0  0  0  0  0  0  0  0  0  0  0  0
  184.3130  173.5320  136.4640 C   0  0  0  0  0  3  0  0  0  0  0  0
  184.7540  172.2140  136.2630 C   0  0  0  0  0  0  0  0  0  0  0  0
  186.1450  171.8960  136.0470 N   0  0  0  0  0  0  0  0  0  0  0  0
  187.2110  172.4680  136.8530 C   0  0  0  0  0  1  0  0  0  0  0  0
  186.5350  170.9790  134.9810 C   0  0  0  0  0  1  0  0  0  0  0  0
  1  2  1  0  0  0  0
  2  5  2  0  0  0  0
  3  5  1  0  0  0  0
  3 22  1  0  0  0  0
  4  3  2  0  0  0  0
  6  1  2  0  0  0  0
  6  4  1  0  0  0  0
  7 10  1  0  0  0  0
  7  8  1  0  0  0  0
  8  6  1  0  0  0  0
  9  8  2  0  0  0  0
 10 11  1  0  0  0  0
 11 17  1  0  0  0  0
 12 19  1  0  0  0  0
 13 21  2  0  0  0  0
 14 16  2  0  0  0  0
 16 17  1  0  0  0  0
 16 20  1  0  0  0  0
 17 18  2  0  0  0  0
 18 12  1  0  0  0  0
 19 15  2  0  0  0  0
 20 13  1  0  0  0  0
 20 12  2  0  0  0  0
 21 15  1  0  0  0  0
 22 23  1  1  0  0  0
 22 24  1  0  0  0  0
 24 27  1  0  0  0  0
 24 29  1  1  0  0  0
 25 26  1  0  0  0  0
 27 25  1  0  0  0  0
 27 26  1  0  0  0  0
 28 31  1  0  0  0  0
 29 28  2  0  0  0  0
 31 37  1  0  0  0  0
 31 30  1  1  0  0  0
 32 33  2  0  0  0  0
 32 36  1  0  0  0  0
 34 37  1  0  0  0  0
 35 34  2  0  0  0  0
 35 32  1  0  0  0  0
 36 39  1  1  0  0  0
 37 36  1  0  0  0  0
 39 38  1  0  0  0  0
 40  1  1  0  0  0  0
 41 44  1  0  0  0  0
 42 41  1  0  0  0  0
 43 42  1  0  0  0  0
 44 40  1  0  0  0  0
 45 44  2  0  0  0  0
 46 42  2  0  0  0  0
 46 45  1  0  0  0  0
 47 46  1  0  0  0  0
 47 48  1  0  0  0  0
 49 47  1  0  0  0  0
M  END
>  <MODEL>
8

>  <REMARK>
 VINA RESULT:      -7.6      1.823      2.708
  Name = 
  14 active torsions:
  status: ('A' for Active; 'I' for Inactive)
    1  A    between atoms: N_1  and  C_26
    2  A    between atoms: C_3  and  C_20
    3  A    between atoms: N_5  and  C_41
    4  A    between atoms: C_7  and  C_12
    5  A    between atoms: C_7  and  C_29
    6  A    between atoms: C_8  and  N_11
    7  A    between atoms: N_11  and  C_28
    8  A    between atoms: C_12  and  N_38
    9  A    between atoms: C_15  and  C_20
   10  A    between atoms: C_15  and  C_22
   11  A    between atoms: C_20  and  C_45
   12  A    between atoms: C_26  and  N_44
   13  A    between atoms: C_35  and  C_40
   14  A    between atoms: C_46  and  C_47
                            x       y       z     vdW  Elec       q    Type
                         _______ _______ _______ _____ _____    ______ ____

>  <TORSDO>
F 14

$$$$
=
 OpenBabel11032419363D

 49 54  0  0  1  0  0  0  0  0999 V2000
  191.1850  175.5540  137.6780 C   0  0  0  0  0  0  0  0  0  0  0  0
  190.3270  175.2260  136.6160 C   0  0  0  0  0  3  0  0  0  0  0  0
  188.9990  177.2090  137.0320 C   0  0  0  0  0  0  0  0  0  0  0  0
  189.8460  177.5450  138.0930 C   0  0  0  0  0  3  0  0  0  0  0  0
  189.2400  176.0380  136.2960 C   0  0  0  0  0  3  0  0  0  0  0  0
  190.9430  176.7330  138.4290 C   0  0  0  0  0  0  0  0  0  0  0  0
  191.2890  176.8770  140.9570 N   0  0  0  0  0  2  0  0  0  0  0  0
  191.7590  177.0780  139.6170 C   0  0  0  0  0  0  0  0  0  0  0  0
  192.9180  177.5460  139.4570 O   0  0  0  0  0  0  0  0  0  0  0  0
  189.8950  176.6690  141.3290 C   0  0  0  0  0  2  0  0  0  0  0  0
  189.2790  177.9750  141.8130 C   0  0  0  0  0  2  0  0  0  0  0  0
  187.9630  177.7280  145.1810 C   0  0  0  0  0  0  0  0  0  0  0  0
  189.6880  177.5920  146.8820 C   0  0  0  0  0  3  0  0  0  0  0  0
  191.2730  177.8380  144.1850 O   0  0  0  0  0  0  0  0  0  0  0  0
  187.3210  177.5210  147.4850 C   0  0  0  0  0  3  0  0  0  0  0  0
  190.0240  177.8190  144.3250 C   0  0  0  0  0  0  0  0  0  0  0  0
  189.0040  177.8910  143.2740 C   0  0  0  0  0  0  0  0  0  0  0  0
  187.8040  177.8370  143.7640 N   0  0  0  0  0  0  0  0  0  0  0  0
  186.9470  177.6360  146.1310 C   0  0  0  0  0  3  0  0  0  0  0  0
  189.2850  177.7100  145.5540 C   0  0  0  0  0  0  0  0  0  0  0  0
  188.6820  177.4960  147.8580 C   0  0  0  0  0  3  0  0  0  0  0  0
  187.8240  178.0810  136.7160 C   0  0  2  0  0  3  0  0  0  0  0  0
  187.9700  179.3150  137.3610 O   0  0  0  0  0  1  0  0  0  0  0  0
  186.5150  177.3820  137.1160 C   0  0  2  0  0  3  0  0  0  0  0  0
  185.6780  175.6960  135.3620 C   0  0  0  0  0  2  0  0  0  0  0  0
  184.4800  176.1670  136.1710 C   0  0  0  0  0  2  0  0  0  0  0  0
  185.6240  177.1240  135.8760 C   0  0  0  0  0  3  0  0  0  0  0  0
  184.7400  178.6130  138.2700 N   0  0  0  0  0  0  0  0  0  0  0  0
  185.8550  177.9670  138.3450 C   0  0  0  0  0  3  0  0  0  0  0  0
  183.0590  180.1980  139.0340 C   0  0  0  0  0  1  0  0  0  0  0  0
  184.1500  179.2100  139.4440 C   0  0  1  0  0  3  0  0  0  0  0  0
  182.1440  178.6320  142.0770 C   0  0  0  0  0  0  0  0  0  0  0  0
  181.0650  178.8670  142.6840 O   0  0  0  0  0  0  0  0  0  0  0  0
  184.3970  178.3940  141.6830 C   0  0  0  0  0  3  0  0  0  0  0  0
  183.4010  178.6850  142.7030 N   0  0  0  0  0  0  0  0  0  0  0  0
  182.2490  178.2830  140.6530 C   0  0  1  0  0  3  0  0  0  0  0  0
  183.6970  178.1800  140.3970 N   0  0  0  0  0  0  0  0  0  0  0  0
  182.3060  176.1210  139.3210 C   0  0  0  0  0  1  0  0  0  0  0  0
  181.5490  176.9590  140.3310 C   0  0  0  0  0  2  0  0  0  0  0  0
  192.3420  174.7440  137.9500 N   0  0  0  0  0  2  0  0  0  0  0  0
  194.0580  175.9840  136.1540 S   0  0  0  0  0  0  0  0  0  0  0  0
  195.6350  175.4280  135.9730 C   0  0  0  0  0  0  0  0  0  0  0  0
  196.6100  176.0260  135.0200 C   0  0  0  0  0  1  0  0  0  0  0  0
  193.6350  174.8820  137.3540 C   0  0  0  0  0  0  0  0  0  0  0  0
  194.7100  174.0450  137.6260 C   0  0  0  0  0  3  0  0  0  0  0  0
  195.8440  174.3520  136.8560 C   0  0  0  0  0  0  0  0  0  0  0  0
  197.0840  173.6280  136.9980 N   0  0  0  0  0  0  0  0  0  0  0  0
  198.0970  173.9950  137.9750 C   0  0  0  0  0  1  0  0  0  0  0  0
  197.3740  172.4850  136.1380 C   0  0  0  0  0  1  0  0  0  0  0  0
  1 40  1  0  0  0  0
  1  6  1  0  0  0  0
  2  1  2  0  0  0  0
  3  4  1  0  0  0  0
  4  6  2  0  0  0  0
  5  2  1  0  0  0  0
  5  3  2  0  0  0  0
  6  8  1  0  0  0  0
  7 10  1  0  0  0  0
  8  7  1  0  0  0  0
  9  8  2  0  0  0  0
 10 11  1  0  0  0  0
 11 17  1  0  0  0  0
 12 20  2  0  0  0  0
 12 19  1  0  0  0  0
 13 21  2  0  0  0  0
 14 16  2  0  0  0  0
 15 21  1  0  0  0  0
 16 20  1  0  0  0  0
 17 18  2  0  0  0  0
 17 16  1  0  0  0  0
 18 12  1  0  0  0  0
 19 15  2  0  0  0  0
 20 13  1  0  0  0  0
 22  3  1  0  0  0  0
 22 24  1  0  0  0  0
 22 23  1  1  0  0  0
 24 29  1  1  0  0  0
 25 27  1  0  0  0  0
 25 26  1  0  0  0  0
 27 26  1  0  0  0  0
 27 24  1  0  0  0  0
 28 29  2  0  0  0  0
 28 31  1  0  0  0  0
 31 30  1  6  0  0  0
 31 37  1  0  0  0  0
 32 33  2  0  0  0  0
 32 35  1  0  0  0  0
 34 35  2  0  0  0  0
 36 39  1  1  0  0  0
 36 32  1  0  0  0  0
 37 36  1  0  0  0  0
 37 34  1  0  0  0  0
 38 39  1  0  0  0  0
 41 44  1  0  0  0  0
 42 41  1  0  0  0  0
 42 46  2  0  0  0  0
 43 42  1  0  0  0  0
 44 45  2  0  0  0  0
 44 40  1  0  0  0  0
 46 47  1  0  0  0  0
 46 45  1  0  0  0  0
 47 48  1  0  0  0  0
 49 47  1  0  0  0  0
M  END
>  <MODEL>
9

>  <REMARK>
 VINA RESULT:      -7.5      4.212      9.882
  Name = 
  14 active torsions:
  status: ('A' for Active; 'I' for Inactive)
    1  A    between atoms: N_1  and  C_26
    2  A    between atoms: C_3  and  C_20
    3  A    between atoms: N_5  and  C_41
    4  A    between atoms: C_7  and  C_12
    5  A    between atoms: C_7  and  C_29
    6  A    between atoms: C_8  and  N_11
    7  A    between atoms: N_11  and  C_28
    8  A    between atoms: C_12  and  N_38
    9  A    between atoms: C_15  and  C_20
   10  A    between atoms: C_15  and  C_22
   11  A    between atoms: C_20  and  C_45
   12  A    between atoms: C_26  and  N_44
   13  A    between atoms: C_35  and  C_40
   14  A    between atoms: C_46  and  C_47
                            x       y       z     vdW  Elec       q    Type
                         _______ _______ _______ _____ _____    ______ ____

>  <TORSDO>
F 14

$$$$
