=
 OpenBabel11032421243D

 64 69  0  0  1  0  0  0  0  0999 V2000
  185.2860  176.7660  136.7430 C   0  0  2  0  0  3  0  0  0  0  0  0
  184.5240  171.8060  135.6650 C   0  0  0  0  0  2  0  0  0  0  0  0
  184.4290  174.2740  135.5670 C   0  0  0  0  0  3  0  0  0  0  0  0
  186.0140  171.9490  135.9600 C   0  0  0  0  0  2  0  0  0  0  0  0
  183.9700  173.0970  135.1370 C   0  0  0  0  0  3  0  0  0  0  0  0
  186.2540  173.0830  136.9620 C   0  0  2  0  0  3  0  0  0  0  0  0
  185.5510  174.3490  136.5320 C   0  0  0  0  0  0  0  0  0  0  0  0
  185.8920  175.4800  137.0780 N   0  0  0  0  0  0  0  0  0  0  0  0
  187.6300  173.3070  137.0670 O   0  0  0  0  0  0  0  0  0  0  0  0
  188.1980  172.6580  135.9670 C   0  0  0  0  0  2  0  0  0  0  0  0
  189.1730  173.5790  135.2370 C   0  0  0  0  0  2  0  0  0  0  0  0
  190.9340  171.8710  135.2510 C   0  0  0  0  0  1  0  0  0  0  0  0
  191.5510  174.1450  134.6090 C   0  0  0  0  0  1  0  0  0  0  0  0
  190.6600  173.3310  135.5350 C   0  0  0  0  0  0  0  0  0  0  0  0
  192.3000  174.2390  137.1610 N   0  0  0  0  0  1  0  0  0  0  0  0
  191.0100  173.5790  137.0070 C   0  0  0  0  0  2  0  0  0  0  0  0
  186.2610  177.6350  136.0040 C   0  0  0  0  0  0  0  0  0  0  0  0
  186.1930  177.7560  134.7900 O   0  0  0  0  0  0  0  0  0  0  0  0
  187.2780  178.4130  136.7790 C   0  0  0  0  0  2  0  0  0  0  0  0
  188.9000  177.6900  136.6250 S   0  0  0  0  0  0  0  0  0  0  0  0
  189.6170  178.3130  135.4600 O   0  0  0  0  0  0  0  0  0  0  0  0
  188.7690  176.2080  136.3960 O   0  0  0  0  0  0  0  0  0  0  0  0
  191.1040  177.2610  138.1400 C   0  0  0  0  0  2  0  0  0  0  0  0
  189.9310  176.7840  138.9750 C   0  0  2  0  0  3  0  0  0  0  0  0
  189.8060  178.0360  138.1240 C   0  0  2  0  0  3  0  0  0  0  0  0
  191.1790  177.7230  140.7730 O   0  0  0  0  0  0  0  0  0  0  0  0
  189.0480  176.9570  141.3430 N   0  0  0  0  0  2  0  0  0  0  0  0
  190.1060  177.1740  140.4050 C   0  0  0  0  0  0  0  0  0  0  0  0
  187.9570  176.7970  145.8730 C   0  0  0  0  0  2  0  0  0  0  0  0
  188.0460  178.5360  144.1390 O   0  0  0  0  0  0  0  0  0  0  0  0
  190.0010  175.9930  143.6560 S   0  0  0  0  0  0  0  0  0  0  0  0
  190.3750  177.0920  145.0670 C   0  0  1  0  0  3  0  0  0  0  0  0
  187.8840  177.5450  143.2780 O   0  0  0  0  0  0  0  0  0  0  0  0
  187.4310  178.1440  145.3500 C   0  0  1  0  0  3  0  0  0  0  0  0
  189.4410  176.8250  146.2520 C   0  0  1  0  0  3  0  0  0  0  0  0
  189.6570  177.7640  147.2630 O   0  0  0  0  0  1  0  0  0  0  0  0
  189.1600  177.3260  142.7440 C   0  0  2  0  0  3  0  0  0  0  0  0
  183.7360  178.5520  146.3890 C   0  0  0  0  0  2  0  0  0  0  0  0
  185.9030  178.1440  145.2260 C   0  0  1  0  0  3  0  0  0  0  0  0
  185.2520  178.7150  146.4860 C   0  0  0  0  0  2  0  0  0  0  0  0
  183.9710  179.1890  143.9830 C   0  0  0  0  0  3  0  0  0  0  0  0
  183.1940  179.0370  145.0680 C   0  0  0  0  0  3  0  0  0  0  0  0
  185.4650  178.9910  144.0270 C   0  0  0  0  0  2  0  0  0  0  0  0
  191.8220  176.9030  145.4950 C   0  0  0  0  0  2  0  0  0  0  0  0
  191.9080  175.9170  146.6450 C   0  0  0  0  0  1  0  0  0  0  0  0
  184.7160  177.4480  137.9850 C   0  0  0  0  0  2  0  0  0  0  0  0
  183.5430  178.3690  137.6640 C   0  0  0  0  0  2  0  0  0  0  0  0
  182.4400  177.5710  136.9940 C   0  0  0  0  0  2  0  0  0  0  0  0
  180.2720  173.4700  137.4010 C   0  0  0  0  0  3  0  0  0  0  0  0
  181.5910  176.8330  137.9820 C   0  0  0  0  0  0  0  0  0  0  0  0
  179.8440  173.1830  138.7490 N   0  0  0  0  0  0  0  0  0  0  0  0
  179.5410  173.7000  141.0910 C   0  0  0  0  0  1  0  0  0  0  0  0
  180.3740  176.5030  139.7740 C   0  0  1  0  0  3  0  0  0  0  0  0
  180.0460  174.0190  139.7260 C   0  0  0  0  0  0  0  0  0  0  0  0
  181.6460  175.3560  138.2410 C   0  0  1  0  0  3  0  0  0  0  0  0
  180.7530  175.2770  139.4310 C   0  0  1  0  0  3  0  0  0  0  0  0
  181.0730  174.5150  137.1290 C   0  0  0  0  0  3  0  0  0  0  0  0
  180.9160  177.4680  138.8850 N   0  0  0  0  0  0  0  0  0  0  0  0
  179.2960  176.8340  140.7510 C   0  0  0  0  0  2  0  0  0  0  0  0
  179.8730  177.6300  141.9090 C   0  0  0  0  0  2  0  0  0  0  0  0
  180.4390  179.7820  141.0490 O   0  0  0  0  0  1  0  0  0  0  0  0
  179.4790  179.0930  141.7940 C   0  0  2  0  0  3  0  0  0  0  0  0
  180.2130  180.8070  143.3150 O   0  0  0  0  0  1  0  0  0  0  0  0
  179.3230  179.7410  143.1660 C   0  0  0  0  0  2  0  0  0  0  0  0
  1  8  1  0  0  0  0
  1 46  1  1  0  0  0
  2  4  1  0  0  0  0
  3  7  1  0  0  0  0
  4  6  1  0  0  0  0
  5  3  2  0  0  0  0
  5  2  1  0  0  0  0
  6  9  1  6  0  0  0
  7  6  1  0  0  0  0
  7  8  2  0  0  0  0
 10  9  1  0  0  0  0
 11 14  1  0  0  0  0
 11 10  1  0  0  0  0
 12 14  1  0  0  0  0
 13 14  1  0  0  0  0
 14 16  1  0  0  0  0
 16 15  1  0  0  0  0
 17  1  1  0  0  0  0
 17 19  1  0  0  0  0
 18 17  2  0  0  0  0
 20 19  1  0  0  0  0
 21 20  2  0  0  0  0
 22 20  2  0  0  0  0
 23 24  1  0  0  0  0
 24 28  1  1  0  0  0
 25 20  1  6  0  0  0
 25 23  1  0  0  0  0
 25 24  1  0  0  0  0
 28 26  2  0  0  0  0
 28 27  1  0  0  0  0
 29 35  1  0  0  0  0
 30 34  1  0  0  0  0
 31 32  1  0  0  0  0
 32 44  1  1  0  0  0
 32 35  1  0  0  0  0
 33 30  1  0  0  0  0
 34 29  1  6  0  0  0
 35 36  1  1  0  0  0
 37 27  1  6  0  0  0
 37 33  1  0  0  0  0
 37 31  1  0  0  0  0
 38 40  1  0  0  0  0
 39 43  1  6  0  0  0
 39 34  1  0  0  0  0
 39 40  1  0  0  0  0
 41 43  1  0  0  0  0
 41 42  2  0  0  0  0
 42 38  1  0  0  0  0
 44 45  1  0  0  0  0
 47 46  1  0  0  0  0
 48 47  1  0  0  0  0
 48 50  1  0  0  0  0
 49 51  1  0  0  0  0
 50 55  1  0  0  0  0
 50 58  2  0  0  0  0
 51 54  2  0  0  0  0
 53 59  1  6  0  0  0
 54 52  1  0  0  0  0
 55 57  1  6  0  0  0
 55 56  1  0  0  0  0
 56 54  1  6  0  0  0
 56 53  1  0  0  0  0
 57 49  2  0  0  0  0
 58 53  1  0  0  0  0
 59 60  1  0  0  0  0
 62 61  1  6  0  0  0
 62 60  1  0  0  0  0
 62 64  1  0  0  0  0
 64 63  1  0  0  0  0
M  END
>  <MODEL>
1

>  <REMARK>
 VINA RESULT:      -6.3      0.000      0.000
  Name = 
  22 active torsions:
  status: ('A' for Active; 'I' for Inactive)
    1  A    between atoms: C_5  and  C_40
    2  A    between atoms: C_7  and  C_8
    3  A    between atoms: C_7  and  C_43
    4  A    between atoms: C_8  and  C_33
    5  A    between atoms: C_9  and  C_43
    6  A    between atoms: C_9  and  C_53
    7  A    between atoms: S_13  and  C_53
    8  A    between atoms: S_13  and  C_63
    9  A    between atoms: C_14  and  C_38
   10  A    between atoms: C_16  and  C_34
   11  A    between atoms: C_16  and  O_56
   12  A    between atoms: C_20  and  C_33
   13  A    between atoms: N_21  and  C_59
   14  A    between atoms: C_25  and  C_27
   15  A    between atoms: C_30  and  C_35
   16  A    between atoms: C_34  and  C_45
   17  A    between atoms: C_35  and  C_47
   18  A    between atoms: C_43  and  N_60
   19  A    between atoms: C_44  and  C_45
   20  A    between atoms: C_47  and  C_57
   21  A    between atoms: C_50  and  O_56
   22  A    between atoms: C_54  and  C_57
                            x       y       z     vdW  Elec       q    Type
                         _______ _______ _______ _____ _____    ______ ____

>  <TORSDO>
F 22

$$$$
=
 OpenBabel11032421243D

 64 69  0  0  1  0  0  0  0  0999 V2000
  184.4730  179.1800  140.1850 C   0  0  2  0  0  3  0  0  0  0  0  0
  179.7100  180.1460  138.5340 C   0  0  0  0  0  2  0  0  0  0  0  0
  182.1660  180.2220  138.7990 C   0  0  0  0  0  3  0  0  0  0  0  0
  179.8200  178.6280  138.6380 C   0  0  0  0  0  2  0  0  0  0  0  0
  181.0590  180.7520  138.2750 C   0  0  0  0  0  3  0  0  0  0  0  0
  180.8030  178.2380  139.7470 C   0  0  2  0  0  3  0  0  0  0  0  0
  182.1130  178.9770  139.6010 C   0  0  0  0  0  0  0  0  0  0  0  0
  183.1570  178.5500  140.2480 N   0  0  0  0  0  0  0  0  0  0  0  0
  181.0190  176.8580  139.6920 O   0  0  0  0  0  0  0  0  0  0  0  0
  180.4650  176.4420  138.4770 C   0  0  0  0  0  2  0  0  0  0  0  0
  181.4730  175.6250  137.6720 C   0  0  0  0  0  2  0  0  0  0  0  0
  180.4920  175.6460  135.4250 C   0  0  0  0  0  1  0  0  0  0  0  0
  181.7500  177.6130  136.1410 C   0  0  0  0  0  1  0  0  0  0  0  0
  181.6930  176.0950  136.2260 C   0  0  0  0  0  0  0  0  0  0  0  0
  183.5250  174.4340  136.4370 N   0  0  0  0  0  1  0  0  0  0  0  0
  182.9300  175.4540  135.5840 C   0  0  0  0  0  2  0  0  0  0  0  0
  185.2180  178.7270  138.9640 C   0  0  0  0  0  0  0  0  0  0  0  0
  184.6580  178.6600  137.8800 O   0  0  0  0  0  0  0  0  0  0  0  0
  186.6810  178.4270  139.0700 C   0  0  0  0  0  2  0  0  0  0  0  0
  187.3060  177.7200  137.5580 S   0  0  0  0  0  0  0  0  0  0  0  0
  187.9310  178.8010  136.7210 O   0  0  0  0  0  0  0  0  0  0  0  0
  186.1740  177.0870  136.7940 O   0  0  0  0  0  0  0  0  0  0  0  0
  189.3510  176.9890  139.1780 C   0  0  0  0  0  2  0  0  0  0  0  0
  189.9440  177.0900  137.7850 C   0  0  2  0  0  3  0  0  0  0  0  0
  188.5530  176.5140  137.9850 C   0  0  2  0  0  3  0  0  0  0  0  0
  191.1100  175.1180  138.4390 O   0  0  0  0  0  0  0  0  0  0  0  0
  191.5710  175.8680  136.2760 N   0  0  0  0  0  2  0  0  0  0  0  0
  190.9080  175.9770  137.5380 C   0  0  0  0  0  0  0  0  0  0  0  0
  194.7000  172.5640  137.2910 C   0  0  0  0  0  2  0  0  0  0  0  0
  194.6540  174.5800  135.8860 O   0  0  0  0  0  0  0  0  0  0  0  0
  191.7690  173.1990  136.4270 S   0  0  0  0  0  0  0  0  0  0  0  0
  192.9750  172.2720  135.4140 C   0  0  1  0  0  3  0  0  0  0  0  0
  193.6960  175.0010  136.6950 O   0  0  0  0  0  0  0  0  0  0  0  0
  195.4840  173.7130  136.6330 C   0  0  1  0  0  3  0  0  0  0  0  0
  194.0500  171.6100  136.2830 C   0  0  1  0  0  3  0  0  0  0  0  0
  195.0320  171.0240  135.4810 O   0  0  0  0  0  1  0  0  0  0  0  0
  192.5110  174.8000  135.9780 C   0  0  2  0  0  3  0  0  0  0  0  0
  196.6860  174.9820  140.0740 C   0  0  0  0  0  2  0  0  0  0  0  0
  196.3200  174.4860  137.6580 C   0  0  1  0  0  3  0  0  0  0  0  0
  195.9490  174.0810  139.0850 C   0  0  0  0  0  2  0  0  0  0  0  0
  198.6620  174.7820  138.5540 C   0  0  0  0  0  3  0  0  0  0  0  0
  198.1580  175.0870  139.7620 C   0  0  0  0  0  3  0  0  0  0  0  0
  197.8130  174.2080  137.4480 C   0  0  0  0  0  2  0  0  0  0  0  0
  192.2510  171.2160  134.5940 C   0  0  0  0  0  2  0  0  0  0  0  0
  192.5380  169.8310  135.1430 C   0  0  0  0  0  1  0  0  0  0  0  0
  185.2600  178.9470  141.4730 C   0  0  0  0  0  2  0  0  0  0  0  0
  184.5460  178.0050  142.4360 C   0  0  0  0  0  2  0  0  0  0  0  0
  184.5250  178.6190  143.8250 C   0  0  0  0  0  2  0  0  0  0  0  0
  186.3030  179.3540  148.0640 C   0  0  0  0  0  3  0  0  0  0  0  0
  185.7850  178.3470  144.5850 C   0  0  0  0  0  0  0  0  0  0  0  0
  187.4900  178.5760  148.3280 N   0  0  0  0  0  0  0  0  0  0  0  0
  189.2490  177.0250  147.7390 C   0  0  0  0  0  1  0  0  0  0  0  0
  187.8580  177.7310  144.9360 C   0  0  1  0  0  3  0  0  0  0  0  0
  187.9940  177.7710  147.4390 C   0  0  0  0  0  0  0  0  0  0  0  0
  185.8600  177.9900  146.0410 C   0  0  1  0  0  3  0  0  0  0  0  0
  187.3070  177.6480  146.1420 C   0  0  1  0  0  3  0  0  0  0  0  0
  185.5520  179.1360  146.9720 C   0  0  0  0  0  3  0  0  0  0  0  0
  186.9040  178.1430  143.9700 N   0  0  0  0  0  0  0  0  0  0  0  0
  189.3220  177.7040  144.6510 C   0  0  0  0  0  2  0  0  0  0  0  0
  189.5590  177.7620  143.1520 C   0  0  0  0  0  2  0  0  0  0  0  0
  191.2920  177.6130  141.5190 O   0  0  0  0  0  1  0  0  0  0  0  0
  190.9370  177.2190  142.8110 C   0  0  2  0  0  3  0  0  0  0  0  0
  191.6360  175.3070  144.0940 O   0  0  0  0  0  1  0  0  0  0  0  0
  190.9840  175.6980  142.9230 C   0  0  0  0  0  2  0  0  0  0  0  0
  1  8  1  0  0  0  0
  1 46  1  1  0  0  0
  2  4  1  0  0  0  0
  3  7  1  0  0  0  0
  4  6  1  0  0  0  0
  5  2  1  0  0  0  0
  5  3  2  0  0  0  0
  6  9  1  6  0  0  0
  7  6  1  0  0  0  0
  7  8  2  0  0  0  0
 10  9  1  0  0  0  0
 11 10  1  0  0  0  0
 12 14  1  0  0  0  0
 13 14  1  0  0  0  0
 14 11  1  0  0  0  0
 16 14  1  0  0  0  0
 16 15  1  0  0  0  0
 17 19  1  0  0  0  0
 17  1  1  0  0  0  0
 18 17  2  0  0  0  0
 20 19  1  0  0  0  0
 21 20  2  0  0  0  0
 22 20  2  0  0  0  0
 24 28  1  1  0  0  0
 24 25  1  0  0  0  0
 24 23  1  0  0  0  0
 25 20  1  6  0  0  0
 25 23  1  0  0  0  0
 27 28  1  0  0  0  0
 28 26  2  0  0  0  0
 30 34  1  0  0  0  0
 30 33  1  0  0  0  0
 32 44  1  1  0  0  0
 32 35  1  0  0  0  0
 32 31  1  0  0  0  0
 34 29  1  1  0  0  0
 34 39  1  0  0  0  0
 35 36  1  6  0  0  0
 35 29  1  0  0  0  0
 37 27  1  1  0  0  0
 37 31  1  0  0  0  0
 37 33  1  0  0  0  0
 39 43  1  6  0  0  0
 39 40  1  0  0  0  0
 40 38  1  0  0  0  0
 41 42  2  0  0  0  0
 42 38  1  0  0  0  0
 43 41  1  0  0  0  0
 44 45  1  0  0  0  0
 46 47  1  0  0  0  0
 47 48  1  0  0  0  0
 48 50  1  0  0  0  0
 49 51  1  0  0  0  0
 50 55  1  0  0  0  0
 53 59  1  1  0  0  0
 53 56  1  0  0  0  0
 54 52  1  0  0  0  0
 54 51  2  0  0  0  0
 55 56  1  0  0  0  0
 55 57  1  1  0  0  0
 56 54  1  1  0  0  0
 57 49  2  0  0  0  0
 58 50  2  0  0  0  0
 58 53  1  0  0  0  0
 60 59  1  0  0  0  0
 62 61  1  6  0  0  0
 62 64  1  0  0  0  0
 62 60  1  0  0  0  0
 64 63  1  0  0  0  0
M  END
>  <MODEL>
2

>  <REMARK>
 VINA RESULT:      -6.0      3.425      9.762
  Name = 
  22 active torsions:
  status: ('A' for Active; 'I' for Inactive)
    1  A    between atoms: C_5  and  C_40
    2  A    between atoms: C_7  and  C_8
    3  A    between atoms: C_7  and  C_43
    4  A    between atoms: C_8  and  C_33
    5  A    between atoms: C_9  and  C_43
    6  A    between atoms: C_9  and  C_53
    7  A    between atoms: S_13  and  C_53
    8  A    between atoms: S_13  and  C_63
    9  A    between atoms: C_14  and  C_38
   10  A    between atoms: C_16  and  C_34
   11  A    between atoms: C_16  and  O_56
   12  A    between atoms: C_20  and  C_33
   13  A    between atoms: N_21  and  C_59
   14  A    between atoms: C_25  and  C_27
   15  A    between atoms: C_30  and  C_35
   16  A    between atoms: C_34  and  C_45
   17  A    between atoms: C_35  and  C_47
   18  A    between atoms: C_43  and  N_60
   19  A    between atoms: C_44  and  C_45
   20  A    between atoms: C_47  and  C_57
   21  A    between atoms: C_50  and  O_56
   22  A    between atoms: C_54  and  C_57
                            x       y       z     vdW  Elec       q    Type
                         _______ _______ _______ _____ _____    ______ ____

>  <TORSDO>
F 22

$$$$
=
 OpenBabel11032421243D

 64 69  0  0  1  0  0  0  0  0999 V2000
  189.3920  176.3460  139.0120 C   0  0  2  0  0  3  0  0  0  0  0  0
  190.5610  172.8010  135.4900 C   0  0  0  0  0  2  0  0  0  0  0  0
  189.4270  174.6460  136.6800 C   0  0  0  0  0  3  0  0  0  0  0  0
  191.8810  173.4590  135.8780 C   0  0  0  0  0  2  0  0  0  0  0  0
  189.4210  173.7580  135.6840 C   0  0  0  0  0  3  0  0  0  0  0  0
  191.8300  173.9410  137.3320 C   0  0  2  0  0  3  0  0  0  0  0  0
  190.5900  174.7650  137.5910 C   0  0  0  0  0  0  0  0  0  0  0  0
  190.5350  175.5080  138.6570 N   0  0  0  0  0  0  0  0  0  0  0  0
  192.9750  174.6980  137.5950 O   0  0  0  0  0  0  0  0  0  0  0  0
  193.9110  174.3070  136.6320 C   0  0  0  0  0  2  0  0  0  0  0  0
  195.2690  174.9500  136.9010 C   0  0  0  0  0  2  0  0  0  0  0  0
  196.9520  173.2210  137.3400 C   0  0  0  0  0  1  0  0  0  0  0  0
  196.0780  173.4150  135.0680 C   0  0  0  0  0  1  0  0  0  0  0  0
  196.4760  174.2110  136.3020 C   0  0  0  0  0  0  0  0  0  0  0  0
  198.7660  174.9440  136.9150 N   0  0  0  0  0  1  0  0  0  0  0  0
  197.6490  175.1530  136.0040 C   0  0  0  0  0  2  0  0  0  0  0  0
  189.4490  177.6560  138.2810 C   0  0  0  0  0  0  0  0  0  0  0  0
  190.4120  177.9400  137.5850 O   0  0  0  0  0  0  0  0  0  0  0  0
  188.2770  178.5840  138.3540 C   0  0  0  0  0  2  0  0  0  0  0  0
  187.4340  178.6820  136.7870 S   0  0  0  0  0  0  0  0  0  0  0  0
  188.1510  177.8280  135.7780 O   0  0  0  0  0  0  0  0  0  0  0  0
  187.4180  180.1100  136.3130 O   0  0  0  0  0  0  0  0  0  0  0  0
  185.4350  177.9940  138.4820 C   0  0  0  0  0  2  0  0  0  0  0  0
  185.8010  176.7230  137.7370 C   0  0  2  0  0  3  0  0  0  0  0  0
  185.7760  178.0560  137.0100 C   0  0  2  0  0  3  0  0  0  0  0  0
  183.5380  176.5560  137.0140 O   0  0  0  0  0  0  0  0  0  0  0  0
  184.5940  174.5170  137.4370 N   0  0  0  0  0  2  0  0  0  0  0  0
  184.5760  175.9460  137.3860 C   0  0  0  0  0  0  0  0  0  0  0  0
  180.3260  173.7270  135.7340 C   0  0  0  0  0  2  0  0  0  0  0  0
  181.4540  173.3960  137.8910 O   0  0  0  0  0  0  0  0  0  0  0  0
  183.4010  173.4280  135.2970 S   0  0  0  0  0  0  0  0  0  0  0  0
  182.2320  172.0330  135.4610 C   0  0  1  0  0  3  0  0  0  0  0  0
  182.2670  174.3650  137.5020 O   0  0  0  0  0  0  0  0  0  0  0  0
  180.2070  173.6150  137.2630 C   0  0  1  0  0  3  0  0  0  0  0  0
  180.8110  172.4390  135.0610 C   0  0  1  0  0  3  0  0  0  0  0  0
  179.9160  171.3990  135.3230 O   0  0  0  0  0  1  0  0  0  0  0  0
  183.4340  173.7090  137.0960 C   0  0  2  0  0  3  0  0  0  0  0  0
  179.3000  176.3610  139.8200 C   0  0  0  0  0  2  0  0  0  0  0  0
  179.4850  174.8260  137.8640 C   0  0  1  0  0  3  0  0  0  0  0  0
  180.1390  175.2590  139.1750 C   0  0  0  0  0  2  0  0  0  0  0  0
  179.0050  177.2800  137.5130 C   0  0  0  0  0  3  0  0  0  0  0  0
  178.9510  177.4560  138.8440 C   0  0  0  0  0  3  0  0  0  0  0  0
  179.5220  176.0080  136.8890 C   0  0  0  0  0  2  0  0  0  0  0  0
  182.7000  170.8690  134.6020 C   0  0  0  0  0  2  0  0  0  0  0  0
  183.6050  169.9510  135.4020 C   0  0  0  0  0  1  0  0  0  0  0  0
  189.2840  176.5220  140.5250 C   0  0  0  0  0  2  0  0  0  0  0  0
  190.6450  176.6330  141.2030 C   0  0  0  0  0  2  0  0  0  0  0  0
  190.6910  177.8940  142.0460 C   0  0  0  0  0  2  0  0  0  0  0  0
  191.5070  176.5620  146.4320 C   0  0  0  0  0  3  0  0  0  0  0  0
  189.9520  177.7420  143.3380 C   0  0  0  0  0  0  0  0  0  0  0  0
  190.4480  176.9220  147.3440 N   0  0  0  0  0  0  0  0  0  0  0  0
  188.2880  177.8490  147.9110 C   0  0  0  0  0  1  0  0  0  0  0  0
  188.2440  177.6660  144.7090 C   0  0  1  0  0  3  0  0  0  0  0  0
  189.3770  177.5420  146.9410 C   0  0  0  0  0  0  0  0  0  0  0  0
  190.5130  178.0310  144.6990 C   0  0  1  0  0  3  0  0  0  0  0  0
  189.2730  177.8980  145.5160 C   0  0  1  0  0  3  0  0  0  0  0  0
  191.5320  177.0250  145.1710 C   0  0  0  0  0  3  0  0  0  0  0  0
  188.6670  177.5920  143.3560 N   0  0  0  0  0  0  0  0  0  0  0  0
  186.8840  177.2350  145.1450 C   0  0  0  0  0  2  0  0  0  0  0  0
  185.8260  177.9350  144.3080 C   0  0  0  0  0  2  0  0  0  0  0  0
  184.5610  178.5060  146.2480 O   0  0  0  0  0  1  0  0  0  0  0  0
  185.1650  179.0440  145.1100 C   0  0  2  0  0  3  0  0  0  0  0  0
  183.4780  178.9320  143.3990 O   0  0  0  0  0  1  0  0  0  0  0  0
  184.1320  179.7980  144.2780 C   0  0  0  0  0  2  0  0  0  0  0  0
  1 46  1  1  0  0  0
  2  5  1  0  0  0  0
  2  4  1  0  0  0  0
  3  7  1  0  0  0  0
  4  6  1  0  0  0  0
  5  3  2  0  0  0  0
  6  7  1  0  0  0  0
  6  9  1  6  0  0  0
  7  8  2  0  0  0  0
  8  1  1  0  0  0  0
 10 11  1  0  0  0  0
 10  9  1  0  0  0  0
 13 14  1  0  0  0  0
 14 11  1  0  0  0  0
 14 12  1  0  0  0  0
 16 14  1  0  0  0  0
 16 15  1  0  0  0  0
 17 19  1  0  0  0  0
 17  1  1  0  0  0  0
 18 17  2  0  0  0  0
 20 19  1  0  0  0  0
 21 20  2  0  0  0  0
 22 20  2  0  0  0  0
 24 28  1  6  0  0  0
 24 23  1  0  0  0  0
 25 20  1  1  0  0  0
 25 24  1  0  0  0  0
 25 23  1  0  0  0  0
 26 28  2  0  0  0  0
 28 27  1  0  0  0  0
 31 32  1  0  0  0  0
 31 37  1  0  0  0  0
 32 44  1  6  0  0  0
 33 30  1  0  0  0  0
 34 29  1  6  0  0  0
 34 39  1  0  0  0  0
 34 30  1  0  0  0  0
 35 36  1  1  0  0  0
 35 32  1  0  0  0  0
 35 29  1  0  0  0  0
 37 27  1  6  0  0  0
 37 33  1  0  0  0  0
 39 43  1  6  0  0  0
 39 40  1  0  0  0  0
 40 38  1  0  0  0  0
 41 42  2  0  0  0  0
 42 38  1  0  0  0  0
 43 41  1  0  0  0  0
 44 45  1  0  0  0  0
 46 47  1  0  0  0  0
 47 48  1  0  0  0  0
 48 50  1  0  0  0  0
 49 51  1  0  0  0  0
 50 58  2  0  0  0  0
 50 55  1  0  0  0  0
 53 59  1  1  0  0  0
 53 56  1  0  0  0  0
 54 51  2  0  0  0  0
 54 52  1  0  0  0  0
 55 57  1  1  0  0  0
 55 56  1  0  0  0  0
 56 54  1  1  0  0  0
 57 49  2  0  0  0  0
 58 53  1  0  0  0  0
 60 62  1  0  0  0  0
 60 59  1  0  0  0  0
 62 61  1  1  0  0  0
 63 64  1  0  0  0  0
 64 62  1  0  0  0  0
M  END
>  <MODEL>
3

>  <REMARK>
 VINA RESULT:      -5.8      3.072      8.830
  Name = 
  22 active torsions:
  status: ('A' for Active; 'I' for Inactive)
    1  A    between atoms: C_5  and  C_40
    2  A    between atoms: C_7  and  C_8
    3  A    between atoms: C_7  and  C_43
    4  A    between atoms: C_8  and  C_33
    5  A    between atoms: C_9  and  C_43
    6  A    between atoms: C_9  and  C_53
    7  A    between atoms: S_13  and  C_53
    8  A    between atoms: S_13  and  C_63
    9  A    between atoms: C_14  and  C_38
   10  A    between atoms: C_16  and  C_34
   11  A    between atoms: C_16  and  O_56
   12  A    between atoms: C_20  and  C_33
   13  A    between atoms: N_21  and  C_59
   14  A    between atoms: C_25  and  C_27
   15  A    between atoms: C_30  and  C_35
   16  A    between atoms: C_34  and  C_45
   17  A    between atoms: C_35  and  C_47
   18  A    between atoms: C_43  and  N_60
   19  A    between atoms: C_44  and  C_45
   20  A    between atoms: C_47  and  C_57
   21  A    between atoms: C_50  and  O_56
   22  A    between atoms: C_54  and  C_57
                            x       y       z     vdW  Elec       q    Type
                         _______ _______ _______ _____ _____    ______ ____

>  <TORSDO>
F 22

$$$$
=
 OpenBabel11032421243D

 64 69  0  0  1  0  0  0  0  0999 V2000
  191.8340  176.3750  139.3370 C   0  0  2  0  0  3  0  0  0  0  0  0
  195.9410  174.7380  136.7300 C   0  0  0  0  0  2  0  0  0  0  0  0
  194.1980  174.9660  138.4670 C   0  0  0  0  0  3  0  0  0  0  0  0
  194.8330  174.9200  135.6980 C   0  0  0  0  0  2  0  0  0  0  0  0
  195.3550  174.4290  138.0780 C   0  0  0  0  0  3  0  0  0  0  0  0
  193.8760  176.0360  136.1330 C   0  0  2  0  0  3  0  0  0  0  0  0
  193.4130  175.8330  137.5570 C   0  0  0  0  0  0  0  0  0  0  0  0
  192.3730  176.4890  137.9850 N   0  0  0  0  0  0  0  0  0  0  0  0
  192.7790  176.0510  135.2670 O   0  0  0  0  0  0  0  0  0  0  0  0
  192.7490  174.7820  134.6810 C   0  0  0  0  0  2  0  0  0  0  0  0
  191.3170  174.2580  134.5940 C   0  0  0  0  0  2  0  0  0  0  0  0
  192.2580  172.1230  135.3520 C   0  0  0  0  0  1  0  0  0  0  0  0
  190.8040  173.3420  136.8900 C   0  0  0  0  0  1  0  0  0  0  0  0
  191.0270  172.9980  135.4240 C   0  0  0  0  0  0  0  0  0  0  0  0
  188.6420  172.3490  135.6430 N   0  0  0  0  0  1  0  0  0  0  0  0
  189.8580  172.1810  134.8600 C   0  0  0  0  0  2  0  0  0  0  0  0
  190.3360  176.2900  139.3040 C   0  0  0  0  0  0  0  0  0  0  0  0
  189.6840  176.3610  140.3350 O   0  0  0  0  0  0  0  0  0  0  0  0
  189.6390  176.1910  137.9820 C   0  0  0  0  0  2  0  0  0  0  0  0
  188.6860  177.6580  137.6440 S   0  0  0  0  0  0  0  0  0  0  0  0
  189.2850  178.3850  136.4720 O   0  0  0  0  0  0  0  0  0  0  0  0
  188.7010  178.5560  138.8510 O   0  0  0  0  0  0  0  0  0  0  0  0
  186.3840  178.1690  136.3110 C   0  0  0  0  0  2  0  0  0  0  0  0
  186.0130  178.1470  137.7820 C   0  0  2  0  0  3  0  0  0  0  0  0
  187.0230  177.1550  137.2320 C   0  0  2  0  0  3  0  0  0  0  0  0
  183.8090  178.0150  138.6770 O   0  0  0  0  0  0  0  0  0  0  0  0
  184.4590  176.1880  137.3760 N   0  0  0  0  0  2  0  0  0  0  0  0
  184.7040  177.4570  137.9870 C   0  0  0  0  0  0  0  0  0  0  0  0
  179.8380  175.6270  137.0960 C   0  0  0  0  0  2  0  0  0  0  0  0
  181.5210  175.5450  138.8840 O   0  0  0  0  0  0  0  0  0  0  0  0
  182.6280  174.8930  135.9060 S   0  0  0  0  0  0  0  0  0  0  0  0
  181.4700  173.6960  136.6600 C   0  0  1  0  0  3  0  0  0  0  0  0
  182.2460  176.3280  138.1020 O   0  0  0  0  0  0  0  0  0  0  0  0
  180.1620  175.7980  138.5900 C   0  0  1  0  0  3  0  0  0  0  0  0
  180.0230  174.1930  136.5890 C   0  0  1  0  0  3  0  0  0  0  0  0
  179.1770  173.3290  137.2890 O   0  0  0  0  0  1  0  0  0  0  0  0
  183.2000  175.4770  137.5330 C   0  0  2  0  0  3  0  0  0  0  0  0
  179.6890  178.7300  141.0550 C   0  0  0  0  0  2  0  0  0  0  0  0
  179.7250  177.1720  139.1090 C   0  0  1  0  0  3  0  0  0  0  0  0
  180.2740  177.4270  140.5120 C   0  0  0  0  0  2  0  0  0  0  0  0
  180.0040  179.6560  138.7540 C   0  0  0  0  0  3  0  0  0  0  0  0
  179.8060  179.8630  140.0660 C   0  0  0  0  0  3  0  0  0  0  0  0
  180.2330  178.2810  138.1800 C   0  0  0  0  0  2  0  0  0  0  0  0
  181.5920  172.3530  135.9570 C   0  0  0  0  0  2  0  0  0  0  0  0
  180.3550  172.0810  135.1210 C   0  0  0  0  0  1  0  0  0  0  0  0
  192.3380  177.5070  140.2300 C   0  0  0  0  0  2  0  0  0  0  0  0
  191.3390  177.8850  141.3190 C   0  0  0  0  0  2  0  0  0  0  0  0
  191.9210  177.5480  142.6800 C   0  0  0  0  0  2  0  0  0  0  0  0
  191.4430  175.8810  147.0010 C   0  0  0  0  0  3  0  0  0  0  0  0
  190.8660  177.4240  143.7350 C   0  0  0  0  0  0  0  0  0  0  0  0
  190.2370  176.3270  147.6540 N   0  0  0  0  0  0  0  0  0  0  0  0
  188.1240  177.4990  147.7550 C   0  0  0  0  0  1  0  0  0  0  0  0
  188.8700  177.5000  144.6360 C   0  0  1  0  0  3  0  0  0  0  0  0
  189.3800  177.1050  147.0580 C   0  0  0  0  0  0  0  0  0  0  0  0
  191.0940  177.5610  145.2110 C   0  0  1  0  0  3  0  0  0  0  0  0
  189.6820  177.5490  145.6870 C   0  0  1  0  0  3  0  0  0  0  0  0
  191.8390  176.4050  145.8290 C   0  0  0  0  0  3  0  0  0  0  0  0
  189.6100  177.4460  143.4260 N   0  0  0  0  0  0  0  0  0  0  0  0
  187.4040  177.2300  144.6880 C   0  0  0  0  0  2  0  0  0  0  0  0
  186.8100  177.3280  143.2930 C   0  0  0  0  0  2  0  0  0  0  0  0
  184.9390  178.7300  143.7680 O   0  0  0  0  0  1  0  0  0  0  0  0
  186.1590  178.6860  143.0890 C   0  0  2  0  0  3  0  0  0  0  0  0
  184.5810  179.0880  141.3180 O   0  0  0  0  0  1  0  0  0  0  0  0
  185.9440  178.9880  141.6100 C   0  0  0  0  0  2  0  0  0  0  0  0
  1 46  1  1  0  0  0
  2  5  1  0  0  0  0
  4  6  1  0  0  0  0
  4  2  1  0  0  0  0
  5  3  2  0  0  0  0
  6  9  1  6  0  0  0
  6  7  1  0  0  0  0
  7  8  2  0  0  0  0
  7  3  1  0  0  0  0
  8  1  1  0  0  0  0
 10  9  1  0  0  0  0
 11 10  1  0  0  0  0
 11 14  1  0  0  0  0
 12 14  1  0  0  0  0
 14 13  1  0  0  0  0
 16 14  1  0  0  0  0
 16 15  1  0  0  0  0
 17  1  1  0  0  0  0
 17 18  2  0  0  0  0
 19 17  1  0  0  0  0
 20 19  1  0  0  0  0
 20 22  2  0  0  0  0
 21 20  2  0  0  0  0
 23 25  1  0  0  0  0
 23 24  1  0  0  0  0
 24 28  1  6  0  0  0
 25 20  1  1  0  0  0
 25 24  1  0  0  0  0
 27 28  1  0  0  0  0
 28 26  2  0  0  0  0
 31 32  1  0  0  0  0
 31 37  1  0  0  0  0
 32 44  1  6  0  0  0
 33 30  1  0  0  0  0
 34 29  1  6  0  0  0
 34 30  1  0  0  0  0
 34 39  1  0  0  0  0
 35 32  1  0  0  0  0
 35 29  1  0  0  0  0
 35 36  1  1  0  0  0
 37 27  1  6  0  0  0
 37 33  1  0  0  0  0
 39 43  1  6  0  0  0
 39 40  1  0  0  0  0
 40 38  1  0  0  0  0
 41 42  2  0  0  0  0
 42 38  1  0  0  0  0
 43 41  1  0  0  0  0
 45 44  1  0  0  0  0
 46 47  1  0  0  0  0
 47 48  1  0  0  0  0
 48 50  1  0  0  0  0
 49 51  1  0  0  0  0
 50 55  1  0  0  0  0
 53 59  1  1  0  0  0
 53 56  1  0  0  0  0
 54 51  2  0  0  0  0
 54 52  1  0  0  0  0
 55 56  1  0  0  0  0
 55 57  1  1  0  0  0
 56 54  1  1  0  0  0
 57 49  2  0  0  0  0
 58 50  2  0  0  0  0
 58 53  1  0  0  0  0
 60 59  1  0  0  0  0
 62 60  1  0  0  0  0
 62 61  1  1  0  0  0
 63 64  1  0  0  0  0
 64 62  1  0  0  0  0
M  END
>  <MODEL>
4

>  <REMARK>
 VINA RESULT:      -5.4      2.782      8.907
  Name = 
  22 active torsions:
  status: ('A' for Active; 'I' for Inactive)
    1  A    between atoms: C_5  and  C_40
    2  A    between atoms: C_7  and  C_8
    3  A    between atoms: C_7  and  C_43
    4  A    between atoms: C_8  and  C_33
    5  A    between atoms: C_9  and  C_43
    6  A    between atoms: C_9  and  C_53
    7  A    between atoms: S_13  and  C_53
    8  A    between atoms: S_13  and  C_63
    9  A    between atoms: C_14  and  C_38
   10  A    between atoms: C_16  and  C_34
   11  A    between atoms: C_16  and  O_56
   12  A    between atoms: C_20  and  C_33
   13  A    between atoms: N_21  and  C_59
   14  A    between atoms: C_25  and  C_27
   15  A    between atoms: C_30  and  C_35
   16  A    between atoms: C_34  and  C_45
   17  A    between atoms: C_35  and  C_47
   18  A    between atoms: C_43  and  N_60
   19  A    between atoms: C_44  and  C_45
   20  A    between atoms: C_47  and  C_57
   21  A    between atoms: C_50  and  O_56
   22  A    between atoms: C_54  and  C_57
                            x       y       z     vdW  Elec       q    Type
                         _______ _______ _______ _____ _____    ______ ____

>  <TORSDO>
F 22

$$$$
=
 OpenBabel11032421243D

 64 69  0  0  1  0  0  0  0  0999 V2000
  186.2060  176.9340  136.5870 C   0  0  2  0  0  3  0  0  0  0  0  0
  184.2650  179.0330  140.8490 C   0  0  0  0  0  2  0  0  0  0  0  0
  185.8600  178.2520  139.1310 C   0  0  0  0  0  3  0  0  0  0  0  0
  183.3790  179.5110  139.7030 C   0  0  0  0  0  2  0  0  0  0  0  0
  185.6530  178.7470  140.3520 C   0  0  0  0  0  3  0  0  0  0  0  0
  183.3400  178.4630  138.5860 C   0  0  2  0  0  3  0  0  0  0  0  0
  184.7340  178.0310  138.1940 C   0  0  0  0  0  0  0  0  0  0  0  0
  184.9090  177.3990  137.0700 N   0  0  0  0  0  0  0  0  0  0  0  0
  182.6760  179.0070  137.4820 O   0  0  0  0  0  0  0  0  0  0  0  0
  181.7120  179.8690  138.0150 C   0  0  0  0  0  2  0  0  0  0  0  0
  181.2560  180.8850  136.9700 C   0  0  0  0  0  2  0  0  0  0  0  0
  178.9310  181.2050  136.2590 C   0  0  0  0  0  1  0  0  0  0  0  0
  179.4040  181.2020  138.6550 C   0  0  0  0  0  1  0  0  0  0  0  0
  179.9480  181.6220  137.2980 C   0  0  0  0  0  0  0  0  0  0  0  0
  181.4870  183.5570  137.0910 N   0  0  0  0  0  1  0  0  0  0  0  0
  180.0940  183.1450  137.2020 C   0  0  0  0  0  2  0  0  0  0  0  0
  186.9310  178.0360  135.8710 C   0  0  0  0  0  0  0  0  0  0  0  0
  186.4480  178.5560  134.8760 O   0  0  0  0  0  0  0  0  0  0  0  0
  188.2210  178.5470  136.4320 C   0  0  0  0  0  2  0  0  0  0  0  0
  189.3250  177.2070  136.8330 S   0  0  0  0  0  0  0  0  0  0  0  0
  190.3360  177.0440  135.7320 O   0  0  0  0  0  0  0  0  0  0  0  0
  188.5370  175.9330  136.9810 O   0  0  0  0  0  0  0  0  0  0  0  0
  191.5070  176.9130  138.4120 C   0  0  0  0  0  2  0  0  0  0  0  0
  190.3360  176.3930  139.2250 C   0  0  2  0  0  3  0  0  0  0  0  0
  190.1730  177.6220  138.3490 C   0  0  2  0  0  3  0  0  0  0  0  0
  191.5620  177.2240  141.0900 O   0  0  0  0  0  0  0  0  0  0  0  0
  189.3060  176.7880  141.5050 N   0  0  0  0  0  2  0  0  0  0  0  0
  190.4540  176.8150  140.6520 C   0  0  0  0  0  0  0  0  0  0  0  0
  188.0630  176.7230  145.9990 C   0  0  0  0  0  2  0  0  0  0  0  0
  188.1710  178.4160  144.2210 O   0  0  0  0  0  0  0  0  0  0  0  0
  190.2000  175.9100  143.8750 S   0  0  0  0  0  0  0  0  0  0  0  0
  190.4990  177.0550  145.2680 C   0  0  1  0  0  3  0  0  0  0  0  0
  188.0630  177.3990  143.3830 O   0  0  0  0  0  0  0  0  0  0  0  0
  187.5240  178.0420  145.4210 C   0  0  1  0  0  3  0  0  0  0  0  0
  189.5320  176.7970  146.4270 C   0  0  1  0  0  3  0  0  0  0  0  0
  189.6900  177.7680  147.4190 O   0  0  0  0  0  1  0  0  0  0  0  0
  189.3610  177.1970  142.8990 C   0  0  2  0  0  3  0  0  0  0  0  0
  183.7920  178.6400  146.2090 C   0  0  0  0  0  2  0  0  0  0  0  0
  186.0020  178.0020  145.2450 C   0  0  1  0  0  3  0  0  0  0  0  0
  185.3040  178.8330  146.3220 C   0  0  0  0  0  2  0  0  0  0  0  0
  184.1160  178.7260  143.7310 C   0  0  0  0  0  3  0  0  0  0  0  0
  183.3000  178.8140  144.7940 C   0  0  0  0  0  3  0  0  0  0  0  0
  185.6080  178.5560  143.8720 C   0  0  0  0  0  2  0  0  0  0  0  0
  191.9350  176.9130  145.7490 C   0  0  0  0  0  2  0  0  0  0  0  0
  192.1840  175.5050  146.2570 C   0  0  0  0  0  1  0  0  0  0  0  0
  186.0600  175.6760  135.7320 C   0  0  0  0  0  2  0  0  0  0  0  0
  184.6150  175.1970  135.6350 C   0  0  0  0  0  2  0  0  0  0  0  0
  184.5930  173.7050  135.3590 C   0  0  0  0  0  2  0  0  0  0  0  0
  182.4350  169.6300  134.7080 C   0  0  0  0  0  3  0  0  0  0  0  0
  183.2060  173.1430  135.3820 C   0  0  0  0  0  0  0  0  0  0  0  0
  181.0690  169.6280  135.1740 N   0  0  0  0  0  0  0  0  0  0  0  0
  179.0940  170.6470  136.1250 C   0  0  0  0  0  1  0  0  0  0  0  0
  181.0160  173.1290  135.4710 C   0  0  1  0  0  3  0  0  0  0  0  0
  180.5220  170.6830  135.7040 C   0  0  0  0  0  0  0  0  0  0  0  0
  182.8300  171.7790  135.8820 C   0  0  1  0  0  3  0  0  0  0  0  0
  181.3450  171.8970  135.8430 C   0  0  1  0  0  3  0  0  0  0  0  0
  183.2640  170.6520  134.9800 C   0  0  0  0  0  3  0  0  0  0  0  0
  182.1750  173.9050  135.2080 N   0  0  0  0  0  0  0  0  0  0  0  0
  179.6490  173.5790  135.0780 C   0  0  0  0  0  2  0  0  0  0  0  0
  178.9640  174.2460  136.2580 C   0  0  0  0  0  2  0  0  0  0  0  0
  180.0650  175.0610  138.2110 O   0  0  0  0  0  1  0  0  0  0  0  0
  179.8600  175.3190  136.8530 C   0  0  2  0  0  3  0  0  0  0  0  0
  179.4320  177.4770  137.8290 O   0  0  0  0  0  1  0  0  0  0  0  0
  179.2650  176.7120  136.6720 C   0  0  0  0  0  2  0  0  0  0  0  0
  1 46  1  6  0  0  0
  1  8  1  0  0  0  0
  3  5  2  0  0  0  0
  4  2  1  0  0  0  0
  5  2  1  0  0  0  0
  6  9  1  6  0  0  0
  6  4  1  0  0  0  0
  7  6  1  0  0  0  0
  7  3  1  0  0  0  0
  8  7  2  0  0  0  0
  9 10  1  0  0  0  0
 11 14  1  0  0  0  0
 11 10  1  0  0  0  0
 12 14  1  0  0  0  0
 14 13  1  0  0  0  0
 15 16  1  0  0  0  0
 16 14  1  0  0  0  0
 17 19  1  0  0  0  0
 17  1  1  0  0  0  0
 18 17  2  0  0  0  0
 19 20  1  0  0  0  0
 20 22  2  0  0  0  0
 21 20  2  0  0  0  0
 23 24  1  0  0  0  0
 24 28  1  1  0  0  0
 25 20  1  6  0  0  0
 25 23  1  0  0  0  0
 25 24  1  0  0  0  0
 28 26  2  0  0  0  0
 28 27  1  0  0  0  0
 29 35  1  0  0  0  0
 30 34  1  0  0  0  0
 31 32  1  0  0  0  0
 32 44  1  1  0  0  0
 32 35  1  0  0  0  0
 33 30  1  0  0  0  0
 34 29  1  6  0  0  0
 35 36  1  1  0  0  0
 37 27  1  6  0  0  0
 37 33  1  0  0  0  0
 37 31  1  0  0  0  0
 38 40  1  0  0  0  0
 39 43  1  6  0  0  0
 39 34  1  0  0  0  0
 39 40  1  0  0  0  0
 41 43  1  0  0  0  0
 41 42  2  0  0  0  0
 42 38  1  0  0  0  0
 44 45  1  0  0  0  0
 47 46  1  0  0  0  0
 48 50  1  0  0  0  0
 48 47  1  0  0  0  0
 49 57  2  0  0  0  0
 49 51  1  0  0  0  0
 50 55  1  0  0  0  0
 51 54  2  0  0  0  0
 53 59  1  6  0  0  0
 53 56  1  0  0  0  0
 54 52  1  0  0  0  0
 55 57  1  6  0  0  0
 56 54  1  6  0  0  0
 56 55  1  0  0  0  0
 58 50  2  0  0  0  0
 58 53  1  0  0  0  0
 59 60  1  0  0  0  0
 60 62  1  0  0  0  0
 62 61  1  1  0  0  0
 64 62  1  0  0  0  0
 64 63  1  0  0  0  0
M  END
>  <MODEL>
5

>  <REMARK>
 VINA RESULT:      -4.3      2.602      5.870
  Name = 
  22 active torsions:
  status: ('A' for Active; 'I' for Inactive)
    1  A    between atoms: C_5  and  C_40
    2  A    between atoms: C_7  and  C_8
    3  A    between atoms: C_7  and  C_43
    4  A    between atoms: C_8  and  C_33
    5  A    between atoms: C_9  and  C_43
    6  A    between atoms: C_9  and  C_53
    7  A    between atoms: S_13  and  C_53
    8  A    between atoms: S_13  and  C_63
    9  A    between atoms: C_14  and  C_38
   10  A    between atoms: C_16  and  C_34
   11  A    between atoms: C_16  and  O_56
   12  A    between atoms: C_20  and  C_33
   13  A    between atoms: N_21  and  C_59
   14  A    between atoms: C_25  and  C_27
   15  A    between atoms: C_30  and  C_35
   16  A    between atoms: C_34  and  C_45
   17  A    between atoms: C_35  and  C_47
   18  A    between atoms: C_43  and  N_60
   19  A    between atoms: C_44  and  C_45
   20  A    between atoms: C_47  and  C_57
   21  A    between atoms: C_50  and  O_56
   22  A    between atoms: C_54  and  C_57
                            x       y       z     vdW  Elec       q    Type
                         _______ _______ _______ _____ _____    ______ ____

>  <TORSDO>
F 22

$$$$
=
 OpenBabel11032421243D

 64 69  0  0  1  0  0  0  0  0999 V2000
  191.3680  176.5440  139.7230 C   0  0  2  0  0  3  0  0  0  0  0  0
  194.8590  174.8540  136.3620 C   0  0  0  0  0  2  0  0  0  0  0  0
  193.4570  175.0680  138.3850 C   0  0  0  0  0  3  0  0  0  0  0  0
  193.6040  175.1530  135.5490 C   0  0  0  0  0  2  0  0  0  0  0  0
  194.4960  174.4960  137.7740 C   0  0  0  0  0  3  0  0  0  0  0  0
  192.8060  176.2890  136.1990 C   0  0  2  0  0  3  0  0  0  0  0  0
  192.5820  176.0270  137.6700 C   0  0  0  0  0  0  0  0  0  0  0  0
  191.6740  176.7090  138.3040 N   0  0  0  0  0  0  0  0  0  0  0  0
  191.5800  176.4120  135.5390 O   0  0  0  0  0  0  0  0  0  0  0  0
  191.5570  175.3770  134.5990 C   0  0  0  0  0  2  0  0  0  0  0  0
  190.2320  174.6190  134.6580 C   0  0  0  0  0  2  0  0  0  0  0  0
  189.2940  172.3570  134.7920 C   0  0  0  0  0  1  0  0  0  0  0  0
  191.6360  172.6620  135.4120 C   0  0  0  0  0  1  0  0  0  0  0  0
  190.2600  173.3090  135.4600 C   0  0  0  0  0  0  0  0  0  0  0  0
  188.4030  173.0680  137.0880 N   0  0  0  0  0  1  0  0  0  0  0  0
  189.7830  173.4970  136.9050 C   0  0  0  0  0  2  0  0  0  0  0  0
  189.8910  176.3740  139.9290 C   0  0  0  0  0  0  0  0  0  0  0  0
  189.4380  176.1640  141.0450 O   0  0  0  0  0  0  0  0  0  0  0  0
  188.9670  176.5380  138.7630 C   0  0  0  0  0  2  0  0  0  0  0  0
  188.0790  178.0800  138.8570 S   0  0  0  0  0  0  0  0  0  0  0  0
  188.9100  179.1750  138.2470 O   0  0  0  0  0  0  0  0  0  0  0  0
  187.7960  178.4100  140.2980 O   0  0  0  0  0  0  0  0  0  0  0  0
  185.8090  179.2140  137.9070 C   0  0  0  0  0  2  0  0  0  0  0  0
  185.3580  178.0920  138.8240 C   0  0  2  0  0  3  0  0  0  0  0  0
  186.5660  177.9050  137.9240 C   0  0  2  0  0  3  0  0  0  0  0  0
  183.1660  177.1680  138.9470 O   0  0  0  0  0  0  0  0  0  0  0  0
  184.2210  176.9390  136.8760 N   0  0  0  0  0  2  0  0  0  0  0  0
  184.1890  177.3690  138.2400 C   0  0  0  0  0  0  0  0  0  0  0  0
  181.0370  173.5590  136.4490 C   0  0  0  0  0  2  0  0  0  0  0  0
  182.8460  174.4660  135.0560 O   0  0  0  0  0  0  0  0  0  0  0  0
  181.5930  176.5320  137.2200 S   0  0  0  0  0  0  0  0  0  0  0  0
  180.5200  175.9970  135.8400 C   0  0  1  0  0  3  0  0  0  0  0  0
  183.3860  174.8700  136.1940 O   0  0  0  0  0  0  0  0  0  0  0  0
  182.0750  173.3170  135.3400 C   0  0  1  0  0  3  0  0  0  0  0  0
  179.9660  174.5880  136.0710 C   0  0  1  0  0  3  0  0  0  0  0  0
  179.2630  174.1520  134.9460 O   0  0  0  0  0  1  0  0  0  0  0  0
  183.1080  176.2400  136.2530 C   0  0  2  0  0  3  0  0  0  0  0  0
  183.2230  169.6350  135.5020 C   0  0  0  0  0  2  0  0  0  0  0  0
  182.9660  172.1100  135.6550 C   0  0  1  0  0  3  0  0  0  0  0  0
  182.3990  170.8340  135.0350 C   0  0  0  0  0  2  0  0  0  0  0  0
  185.2330  171.0930  135.2100 C   0  0  0  0  0  3  0  0  0  0  0  0
  184.7050  169.8650  135.3400 C   0  0  0  0  0  3  0  0  0  0  0  0
  184.3790  172.3320  135.1050 C   0  0  0  0  0  2  0  0  0  0  0  0
  179.3750  176.9830  135.6700 C   0  0  0  0  0  2  0  0  0  0  0  0
  178.9510  177.5370  137.0180 C   0  0  0  0  0  1  0  0  0  0  0  0
  191.9490  177.6890  140.5500 C   0  0  0  0  0  2  0  0  0  0  0  0
  190.9710  178.2120  141.5970 C   0  0  0  0  0  2  0  0  0  0  0  0
  191.6450  178.2320  142.9570 C   0  0  0  0  0  2  0  0  0  0  0  0
  191.4470  175.6950  146.8560 C   0  0  0  0  0  3  0  0  0  0  0  0
  190.6890  177.9430  144.0710 C   0  0  0  0  0  0  0  0  0  0  0  0
  190.3470  176.0580  147.7170 N   0  0  0  0  0  0  0  0  0  0  0  0
  188.3550  177.3010  148.2930 C   0  0  0  0  0  1  0  0  0  0  0  0
  188.8000  177.9370  145.1810 C   0  0  1  0  0  3  0  0  0  0  0  0
  189.5030  176.9960  147.3950 C   0  0  0  0  0  0  0  0  0  0  0  0
  191.0660  177.7420  145.5090 C   0  0  1  0  0  3  0  0  0  0  0  0
  189.7080  177.7090  146.1230 C   0  0  1  0  0  3  0  0  0  0  0  0
  191.7700  176.4380  145.7840 C   0  0  0  0  0  3  0  0  0  0  0  0
  189.4150  178.1040  143.9130 N   0  0  0  0  0  0  0  0  0  0  0  0
  187.3280  177.7480  145.3360 C   0  0  0  0  0  2  0  0  0  0  0  0
  186.5840  178.6730  144.3880 C   0  0  0  0  0  2  0  0  0  0  0  0
  184.9060  177.5180  143.1470 O   0  0  0  0  0  1  0  0  0  0  0  0
  185.1200  178.2770  144.3000 C   0  0  2  0  0  3  0  0  0  0  0  0
  182.8960  179.1380  144.6140 O   0  0  0  0  0  1  0  0  0  0  0  0
  184.2070  179.4990  144.2970 C   0  0  0  0  0  2  0  0  0  0  0  0
  1 17  1  0  0  0  0
  1 46  1  1  0  0  0
  2  5  1  0  0  0  0
  4  6  1  0  0  0  0
  4  2  1  0  0  0  0
  5  3  2  0  0  0  0
  6  9  1  6  0  0  0
  6  7  1  0  0  0  0
  7  8  2  0  0  0  0
  7  3  1  0  0  0  0
  8  1  1  0  0  0  0
 10 11  1  0  0  0  0
 10  9  1  0  0  0  0
 11 14  1  0  0  0  0
 12 14  1  0  0  0  0
 13 14  1  0  0  0  0
 14 16  1  0  0  0  0
 16 15  1  0  0  0  0
 17 18  2  0  0  0  0
 19 20  1  0  0  0  0
 19 17  1  0  0  0  0
 20 22  2  0  0  0  0
 21 20  2  0  0  0  0
 23 25  1  0  0  0  0
 23 24  1  0  0  0  0
 24 28  1  6  0  0  0
 25 24  1  0  0  0  0
 25 20  1  1  0  0  0
 27 28  1  0  0  0  0
 28 26  2  0  0  0  0
 30 34  1  0  0  0  0
 30 33  1  0  0  0  0
 32 44  1  1  0  0  0
 32 35  1  0  0  0  0
 32 31  1  0  0  0  0
 33 37  1  0  0  0  0
 34 39  1  0  0  0  0
 34 29  1  1  0  0  0
 35 36  1  6  0  0  0
 35 29  1  0  0  0  0
 37 27  1  1  0  0  0
 37 31  1  0  0  0  0
 39 40  1  6  0  0  0
 40 38  1  0  0  0  0
 41 42  2  0  0  0  0
 42 38  1  0  0  0  0
 43 41  1  0  0  0  0
 43 39  1  0  0  0  0
 44 45  1  0  0  0  0
 46 47  1  0  0  0  0
 47 48  1  0  0  0  0
 48 50  1  0  0  0  0
 49 51  1  0  0  0  0
 50 55  1  0  0  0  0
 53 59  1  6  0  0  0
 53 56  1  0  0  0  0
 54 51  2  0  0  0  0
 54 52  1  0  0  0  0
 55 57  1  6  0  0  0
 55 56  1  0  0  0  0
 56 54  1  6  0  0  0
 57 49  2  0  0  0  0
 58 50  2  0  0  0  0
 58 53  1  0  0  0  0
 60 59  1  0  0  0  0
 62 61  1  6  0  0  0
 62 60  1  0  0  0  0
 64 62  1  0  0  0  0
 64 63  1  0  0  0  0
M  END
>  <MODEL>
6

>  <REMARK>
 VINA RESULT:      -4.2      2.802      9.568
  Name = 
  22 active torsions:
  status: ('A' for Active; 'I' for Inactive)
    1  A    between atoms: C_5  and  C_40
    2  A    between atoms: C_7  and  C_8
    3  A    between atoms: C_7  and  C_43
    4  A    between atoms: C_8  and  C_33
    5  A    between atoms: C_9  and  C_43
    6  A    between atoms: C_9  and  C_53
    7  A    between atoms: S_13  and  C_53
    8  A    between atoms: S_13  and  C_63
    9  A    between atoms: C_14  and  C_38
   10  A    between atoms: C_16  and  C_34
   11  A    between atoms: C_16  and  O_56
   12  A    between atoms: C_20  and  C_33
   13  A    between atoms: N_21  and  C_59
   14  A    between atoms: C_25  and  C_27
   15  A    between atoms: C_30  and  C_35
   16  A    between atoms: C_34  and  C_45
   17  A    between atoms: C_35  and  C_47
   18  A    between atoms: C_43  and  N_60
   19  A    between atoms: C_44  and  C_45
   20  A    between atoms: C_47  and  C_57
   21  A    between atoms: C_50  and  O_56
   22  A    between atoms: C_54  and  C_57
                            x       y       z     vdW  Elec       q    Type
                         _______ _______ _______ _____ _____    ______ ____

>  <TORSDO>
F 22

$$$$
=
 OpenBabel11032421243D

 64 69  0  0  1  0  0  0  0  0999 V2000
  189.3330  177.6680  139.0390 C   0  0  2  0  0  3  0  0  0  0  0  0
  191.7410  176.2540  143.3450 C   0  0  0  0  0  2  0  0  0  0  0  0
  190.1050  176.3670  141.4970 C   0  0  0  0  0  3  0  0  0  0  0  0
  192.8310  176.4350  142.2940 C   0  0  0  0  0  2  0  0  0  0  0  0
  190.4410  175.8810  142.6930 C   0  0  0  0  0  3  0  0  0  0  0  0
  192.4190  177.5030  141.2750 C   0  0  2  0  0  3  0  0  0  0  0  0
  191.0320  177.2380  140.7370 C   0  0  0  0  0  0  0  0  0  0  0  0
  190.6470  177.8440  139.6520 N   0  0  0  0  0  0  0  0  0  0  0  0
  193.3480  177.5110  140.2310 O   0  0  0  0  0  0  0  0  0  0  0  0
  193.1790  176.2890  139.5720 C   0  0  0  0  0  2  0  0  0  0  0  0
  194.1880  176.1410  138.4360 C   0  0  0  0  0  2  0  0  0  0  0  0
  192.6220  174.5090  137.4890 C   0  0  0  0  0  1  0  0  0  0  0  0
  194.6610  174.9960  136.2370 C   0  0  0  0  0  1  0  0  0  0  0  0
  194.0910  174.8310  137.6380 C   0  0  0  0  0  0  0  0  0  0  0  0
  196.0370  173.3010  137.8030 N   0  0  0  0  0  1  0  0  0  0  0  0
  194.7410  173.6500  138.3690 C   0  0  0  0  0  2  0  0  0  0  0  0
  189.4530  177.5900  137.5450 C   0  0  0  0  0  0  0  0  0  0  0  0
  190.2910  176.8680  137.0230 O   0  0  0  0  0  0  0  0  0  0  0  0
  188.4850  178.3500  136.6930 C   0  0  0  0  0  2  0  0  0  0  0  0
  187.7200  177.2900  135.4820 S   0  0  0  0  0  0  0  0  0  0  0  0
  188.7850  176.6350  134.6460 O   0  0  0  0  0  0  0  0  0  0  0  0
  186.8200  178.1080  134.5950 O   0  0  0  0  0  0  0  0  0  0  0  0
  187.0540  174.6750  135.7280 C   0  0  0  0  0  2  0  0  0  0  0  0
  185.7560  175.4070  135.4420 C   0  0  2  0  0  3  0  0  0  0  0  0
  186.8010  176.0300  136.3510 C   0  0  2  0  0  3  0  0  0  0  0  0
  184.3770  173.6250  136.2150 O   0  0  0  0  0  0  0  0  0  0  0  0
  183.9120  175.7130  137.1510 N   0  0  0  0  0  2  0  0  0  0  0  0
  184.6440  174.8550  136.2720 C   0  0  0  0  0  0  0  0  0  0  0  0
  179.6770  175.8290  139.0990 C   0  0  0  0  0  2  0  0  0  0  0  0
  181.9930  175.7260  139.9140 O   0  0  0  0  0  0  0  0  0  0  0  0
  181.5150  174.5310  136.9370 S   0  0  0  0  0  0  0  0  0  0  0  0
  180.7640  173.6330  138.3400 C   0  0  1  0  0  3  0  0  0  0  0  0
  182.3190  176.2810  138.7590 O   0  0  0  0  0  0  0  0  0  0  0  0
  180.6780  176.1420  140.2240 C   0  0  1  0  0  3  0  0  0  0  0  0
  179.4950  174.3300  138.8410 C   0  0  1  0  0  3  0  0  0  0  0  0
  179.0180  173.7020  139.9940 O   0  0  0  0  0  1  0  0  0  0  0  0
  182.8270  175.2280  137.9890 C   0  0  2  0  0  3  0  0  0  0  0  0
  179.6580  179.8640  140.1400 C   0  0  0  0  0  2  0  0  0  0  0  0
  180.6390  177.6220  140.6190 C   0  0  1  0  0  3  0  0  0  0  0  0
  179.5590  178.3690  139.8370 C   0  0  0  0  0  2  0  0  0  0  0  0
  180.0940  179.2010  142.5120 C   0  0  0  0  0  3  0  0  0  0  0  0
  179.7350  180.1410  141.6210 C   0  0  0  0  0  3  0  0  0  0  0  0
  180.3430  177.7680  142.1160 C   0  0  0  0  0  2  0  0  0  0  0  0
  180.4410  172.2070  137.9220 C   0  0  0  0  0  2  0  0  0  0  0  0
  179.3040  172.1960  136.9170 C   0  0  0  0  0  1  0  0  0  0  0  0
  188.3600  178.7540  139.4930 C   0  0  0  0  0  2  0  0  0  0  0  0
  188.2520  178.8480  141.0110 C   0  0  0  0  0  2  0  0  0  0  0  0
  187.4740  177.6560  141.5400 C   0  0  0  0  0  2  0  0  0  0  0  0
  183.7690  179.7180  143.4630 C   0  0  0  0  0  3  0  0  0  0  0  0
  186.8990  177.9090  142.8970 C   0  0  0  0  0  0  0  0  0  0  0  0
  183.5810  179.3730  144.8510 N   0  0  0  0  0  0  0  0  0  0  0  0
  184.1890  178.2850  146.9230 C   0  0  0  0  0  1  0  0  0  0  0  0
  186.8000  177.9810  145.0850 C   0  0  1  0  0  3  0  0  0  0  0  0
  184.3960  178.5730  145.4760 C   0  0  0  0  0  0  0  0  0  0  0  0
  185.4370  177.8970  143.2370 C   0  0  1  0  0  3  0  0  0  0  0  0
  185.5220  177.9990  144.7210 C   0  0  1  0  0  3  0  0  0  0  0  0
  184.6700  179.0790  142.6990 C   0  0  0  0  0  3  0  0  0  0  0  0
  187.6490  177.9020  143.9510 N   0  0  0  0  0  0  0  0  0  0  0  0
  187.3150  178.3030  146.4480 C   0  0  0  0  0  2  0  0  0  0  0  0
  188.8340  178.3480  146.4300 C   0  0  0  0  0  2  0  0  0  0  0  0
  190.3860  178.1400  148.2280 O   0  0  0  0  0  1  0  0  0  0  0  0
  189.4030  177.4500  147.5150 C   0  0  2  0  0  3  0  0  0  0  0  0
  190.8280  176.4500  145.8550 O   0  0  0  0  0  1  0  0  0  0  0  0
  189.9870  176.1670  146.9330 C   0  0  0  0  0  2  0  0  0  0  0  0
  1 46  1  6  0  0  0
  1  8  1  0  0  0  0
  3  5  2  0  0  0  0
  4  2  1  0  0  0  0
  5  2  1  0  0  0  0
  6  9  1  6  0  0  0
  6  4  1  0  0  0  0
  7  6  1  0  0  0  0
  7  3  1  0  0  0  0
  8  7  2  0  0  0  0
 10  9  1  0  0  0  0
 11 10  1  0  0  0  0
 12 14  1  0  0  0  0
 13 14  1  0  0  0  0
 14 16  1  0  0  0  0
 14 11  1  0  0  0  0
 15 16  1  0  0  0  0
 17  1  1  0  0  0  0
 18 17  2  0  0  0  0
 19 17  1  0  0  0  0
 20 19  1  0  0  0  0
 21 20  2  0  0  0  0
 22 20  2  0  0  0  0
 23 25  1  0  0  0  0
 24 23  1  0  0  0  0
 24 28  1  1  0  0  0
 24 25  1  0  0  0  0
 25 20  1  6  0  0  0
 26 28  2  0  0  0  0
 28 27  1  0  0  0  0
 30 34  1  0  0  0  0
 31 37  1  0  0  0  0
 31 32  1  0  0  0  0
 32 44  1  6  0  0  0
 32 35  1  0  0  0  0
 33 30  1  0  0  0  0
 34 29  1  6  0  0  0
 34 39  1  0  0  0  0
 35 29  1  0  0  0  0
 35 36  1  1  0  0  0
 37 27  1  6  0  0  0
 37 33  1  0  0  0  0
 38 42  1  0  0  0  0
 39 40  1  6  0  0  0
 39 43  1  0  0  0  0
 40 38  1  0  0  0  0
 42 41  2  0  0  0  0
 43 41  1  0  0  0  0
 45 44  1  0  0  0  0
 46 47  1  0  0  0  0
 47 48  1  0  0  0  0
 48 50  1  0  0  0  0
 49 51  1  0  0  0  0
 50 55  1  0  0  0  0
 50 58  2  0  0  0  0
 51 54  2  0  0  0  0
 53 59  1  6  0  0  0
 54 52  1  0  0  0  0
 55 57  1  6  0  0  0
 55 56  1  0  0  0  0
 56 53  1  0  0  0  0
 56 54  1  6  0  0  0
 57 49  2  0  0  0  0
 58 53  1  0  0  0  0
 60 59  1  0  0  0  0
 60 62  1  0  0  0  0
 62 61  1  6  0  0  0
 63 64  1  0  0  0  0
 64 62  1  0  0  0  0
M  END
>  <MODEL>
7

>  <REMARK>
 VINA RESULT:      -3.8      2.587      8.313
  Name = 
  22 active torsions:
  status: ('A' for Active; 'I' for Inactive)
    1  A    between atoms: C_5  and  C_40
    2  A    between atoms: C_7  and  C_8
    3  A    between atoms: C_7  and  C_43
    4  A    between atoms: C_8  and  C_33
    5  A    between atoms: C_9  and  C_43
    6  A    between atoms: C_9  and  C_53
    7  A    between atoms: S_13  and  C_53
    8  A    between atoms: S_13  and  C_63
    9  A    between atoms: C_14  and  C_38
   10  A    between atoms: C_16  and  C_34
   11  A    between atoms: C_16  and  O_56
   12  A    between atoms: C_20  and  C_33
   13  A    between atoms: N_21  and  C_59
   14  A    between atoms: C_25  and  C_27
   15  A    between atoms: C_30  and  C_35
   16  A    between atoms: C_34  and  C_45
   17  A    between atoms: C_35  and  C_47
   18  A    between atoms: C_43  and  N_60
   19  A    between atoms: C_44  and  C_45
   20  A    between atoms: C_47  and  C_57
   21  A    between atoms: C_50  and  O_56
   22  A    between atoms: C_54  and  C_57
                            x       y       z     vdW  Elec       q    Type
                         _______ _______ _______ _____ _____    ______ ____

>  <TORSDO>
F 22

$$$$
=
 OpenBabel11032421243D

 64 69  0  0  1  0  0  0  0  0999 V2000
  182.2240  177.1440  140.5620 C   0  0  2  0  0  3  0  0  0  0  0  0
  179.4460  173.2100  138.7860 C   0  0  0  0  0  2  0  0  0  0  0  0
  180.2970  175.0200  140.2380 C   0  0  0  0  0  3  0  0  0  0  0  0
  179.6070  174.1740  137.6150 C   0  0  0  0  0  2  0  0  0  0  0  0
  179.5080  173.9550  140.0890 C   0  0  0  0  0  3  0  0  0  0  0  0
  180.9300  174.9390  137.7310 C   0  0  2  0  0  3  0  0  0  0  0  0
  181.0890  175.5500  139.1040 C   0  0  0  0  0  0  0  0  0  0  0  0
  181.9800  176.4810  139.2830 N   0  0  0  0  0  0  0  0  0  0  0  0
  180.9600  175.9370  136.7530 O   0  0  0  0  0  0  0  0  0  0  0  0
  179.6570  176.4410  136.6950 C   0  0  0  0  0  2  0  0  0  0  0  0
  179.6140  177.8930  137.1660 C   0  0  0  0  0  2  0  0  0  0  0  0
  181.2070  179.2840  135.9240 C   0  0  0  0  0  1  0  0  0  0  0  0
  179.2810  178.3940  134.7150 C   0  0  0  0  0  1  0  0  0  0  0  0
  179.7390  178.9480  136.0560 C   0  0  0  0  0  0  0  0  0  0  0  0
  179.7240  181.4260  135.9320 N   0  0  0  0  0  1  0  0  0  0  0  0
  179.0050  180.2500  136.4010 C   0  0  0  0  0  2  0  0  0  0  0  0
  182.1100  178.6340  140.4150 C   0  0  0  0  0  0  0  0  0  0  0  0
  181.7360  179.3260  141.3510 O   0  0  0  0  0  0  0  0  0  0  0  0
  182.5310  179.2750  139.1300 C   0  0  0  0  0  2  0  0  0  0  0  0
  184.2760  179.6360  139.1310 S   0  0  0  0  0  0  0  0  0  0  0  0
  184.7620  179.7560  140.5490 O   0  0  0  0  0  0  0  0  0  0  0  0
  184.5220  180.9320  138.4070 O   0  0  0  0  0  0  0  0  0  0  0  0
  186.2740  178.7970  137.5050 C   0  0  0  0  0  2  0  0  0  0  0  0
  184.9840  178.3740  136.8270 C   0  0  2  0  0  3  0  0  0  0  0  0
  185.1220  178.2790  138.3360 C   0  0  2  0  0  3  0  0  0  0  0  0
  184.2530  176.5970  135.4190 O   0  0  0  0  0  0  0  0  0  0  0  0
  186.2530  176.1980  136.5560 N   0  0  0  0  0  2  0  0  0  0  0  0
  185.1230  177.0110  136.2320 C   0  0  0  0  0  0  0  0  0  0  0  0
  188.1300  171.9380  136.2860 C   0  0  0  0  0  2  0  0  0  0  0  0
  187.9280  173.8760  134.7890 O   0  0  0  0  0  0  0  0  0  0  0  0
  185.6350  173.6410  137.0720 S   0  0  0  0  0  0  0  0  0  0  0  0
  185.6570  172.3690  135.7590 C   0  0  1  0  0  3  0  0  0  0  0  0
  187.8120  174.5930  135.8950 O   0  0  0  0  0  0  0  0  0  0  0  0
  188.7040  172.7380  135.1050 C   0  0  1  0  0  3  0  0  0  0  0  0
  186.7540  171.3280  136.0020 C   0  0  1  0  0  3  0  0  0  0  0  0
  186.8380  170.4490  134.9190 O   0  0  0  0  0  1  0  0  0  0  0  0
  186.4440  174.8690  135.9980 C   0  0  2  0  0  3  0  0  0  0  0  0
  191.8580  173.9570  136.9670 C   0  0  0  0  0  2  0  0  0  0  0  0
  190.1730  173.1110  135.3350 C   0  0  1  0  0  3  0  0  0  0  0  0
  190.4290  173.4400  136.8060 C   0  0  0  0  0  2  0  0  0  0  0  0
  192.5230  172.1910  135.3260 C   0  0  0  0  0  3  0  0  0  0  0  0
  192.8670  173.0660  136.2860 C   0  0  0  0  0  3  0  0  0  0  0  0
  191.0890  171.9510  134.9300 C   0  0  0  0  0  2  0  0  0  0  0  0
  184.3000  171.6850  135.6870 C   0  0  0  0  0  2  0  0  0  0  0  0
  183.5720  171.8150  137.0110 C   0  0  0  0  0  1  0  0  0  0  0  0
  183.5610  176.7140  141.1620 C   0  0  0  0  0  2  0  0  0  0  0  0
  184.3860  177.8930  141.6660 C   0  0  0  0  0  2  0  0  0  0  0  0
  184.1660  178.0660  143.1570 C   0  0  0  0  0  2  0  0  0  0  0  0
  185.6900  178.8430  147.4880 C   0  0  0  0  0  3  0  0  0  0  0  0
  185.4480  178.0290  143.9290 C   0  0  0  0  0  0  0  0  0  0  0  0
  187.0210  178.3370  147.7230 N   0  0  0  0  0  0  0  0  0  0  0  0
  189.0940  177.2810  147.0650 C   0  0  0  0  0  1  0  0  0  0  0  0
  187.6040  177.8760  144.2880 C   0  0  1  0  0  3  0  0  0  0  0  0
  187.7050  177.7430  146.7890 C   0  0  0  0  0  0  0  0  0  0  0  0
  185.5900  177.5820  145.3550 C   0  0  1  0  0  3  0  0  0  0  0  0
  187.0760  177.5720  145.4680 C   0  0  1  0  0  3  0  0  0  0  0  0
  185.0190  178.5480  146.3620 C   0  0  0  0  0  3  0  0  0  0  0  0
  186.5890  178.1370  143.3300 N   0  0  0  0  0  0  0  0  0  0  0  0
  189.0380  178.2070  144.0420 C   0  0  0  0  0  2  0  0  0  0  0  0
  189.8360  176.9310  143.8360 C   0  0  0  0  0  2  0  0  0  0  0  0
  191.4930  178.6320  143.6170 O   0  0  0  0  0  1  0  0  0  0  0  0
  191.2780  177.2580  143.4860 C   0  0  2  0  0  3  0  0  0  0  0  0
  190.7270  177.3440  141.1450 O   0  0  0  0  0  1  0  0  0  0  0  0
  191.6270  176.8100  142.0700 C   0  0  0  0  0  2  0  0  0  0  0  0
  1 46  1  6  0  0  0
  2  5  1  0  0  0  0
  4  6  1  0  0  0  0
  4  2  1  0  0  0  0
  5  3  2  0  0  0  0
  6  9  1  6  0  0  0
  6  7  1  0  0  0  0
  7  8  2  0  0  0  0
  7  3  1  0  0  0  0
  8  1  1  0  0  0  0
 10  9  1  0  0  0  0
 10 11  1  0  0  0  0
 12 14  1  0  0  0  0
 13 14  1  0  0  0  0
 14 16  1  0  0  0  0
 14 11  1  0  0  0  0
 15 16  1  0  0  0  0
 17  1  1  0  0  0  0
 17 18  2  0  0  0  0
 19 20  1  0  0  0  0
 19 17  1  0  0  0  0
 20 21  2  0  0  0  0
 22 20  2  0  0  0  0
 23 25  1  0  0  0  0
 24 28  1  6  0  0  0
 24 23  1  0  0  0  0
 24 25  1  0  0  0  0
 25 20  1  1  0  0  0
 26 28  2  0  0  0  0
 28 27  1  0  0  0  0
 30 34  1  0  0  0  0
 30 33  1  0  0  0  0
 32 44  1  1  0  0  0
 32 35  1  0  0  0  0
 32 31  1  0  0  0  0
 33 37  1  0  0  0  0
 34 39  1  0  0  0  0
 34 29  1  1  0  0  0
 35 36  1  6  0  0  0
 35 29  1  0  0  0  0
 37 27  1  1  0  0  0
 37 31  1  0  0  0  0
 39 43  1  1  0  0  0
 39 40  1  0  0  0  0
 40 38  1  0  0  0  0
 41 42  2  0  0  0  0
 42 38  1  0  0  0  0
 43 41  1  0  0  0  0
 44 45  1  0  0  0  0
 46 47  1  0  0  0  0
 47 48  1  0  0  0  0
 48 50  1  0  0  0  0
 49 51  1  0  0  0  0
 50 55  1  0  0  0  0
 53 59  1  1  0  0  0
 53 56  1  0  0  0  0
 54 52  1  0  0  0  0
 54 51  2  0  0  0  0
 55 56  1  0  0  0  0
 55 57  1  1  0  0  0
 56 54  1  1  0  0  0
 57 49  2  0  0  0  0
 58 50  2  0  0  0  0
 58 53  1  0  0  0  0
 60 59  1  0  0  0  0
 62 61  1  6  0  0  0
 62 60  1  0  0  0  0
 63 64  1  0  0  0  0
 64 62  1  0  0  0  0
M  END
>  <MODEL>
8

>  <REMARK>
 VINA RESULT:      -3.4      2.525      9.838
  Name = 
  22 active torsions:
  status: ('A' for Active; 'I' for Inactive)
    1  A    between atoms: C_5  and  C_40
    2  A    between atoms: C_7  and  C_8
    3  A    between atoms: C_7  and  C_43
    4  A    between atoms: C_8  and  C_33
    5  A    between atoms: C_9  and  C_43
    6  A    between atoms: C_9  and  C_53
    7  A    between atoms: S_13  and  C_53
    8  A    between atoms: S_13  and  C_63
    9  A    between atoms: C_14  and  C_38
   10  A    between atoms: C_16  and  C_34
   11  A    between atoms: C_16  and  O_56
   12  A    between atoms: C_20  and  C_33
   13  A    between atoms: N_21  and  C_59
   14  A    between atoms: C_25  and  C_27
   15  A    between atoms: C_30  and  C_35
   16  A    between atoms: C_34  and  C_45
   17  A    between atoms: C_35  and  C_47
   18  A    between atoms: C_43  and  N_60
   19  A    between atoms: C_44  and  C_45
   20  A    between atoms: C_47  and  C_57
   21  A    between atoms: C_50  and  O_56
   22  A    between atoms: C_54  and  C_57
                            x       y       z     vdW  Elec       q    Type
                         _______ _______ _______ _____ _____    ______ ____

>  <TORSDO>
F 22

$$$$
