=
 OpenBabel11042410453D

 38 40  0  0  1  0  0  0  0  0999 V2000
  187.0570  177.2660  144.3260 C   0  0  0  0  0  0  0  0  0  0  0  0
  185.2840  179.0260  144.8650 C   0  0  2  0  0  3  0  0  0  0  0  0
  186.0970  178.1360  143.9520 C   0  0  0  0  0  3  0  0  0  0  0  0
  187.3490  178.1220  146.6760 C   0  0  2  0  0  3  0  0  0  0  0  0
  184.8550  178.3070  146.1360 C   0  0  0  0  0  2  0  0  0  0  0  0
  185.9400  178.3960  147.2120 C   0  0  0  0  0  2  0  0  0  0  0  0
  187.3680  176.9070  145.7570 C   0  0  0  0  0  2  0  0  0  0  0  0
  187.9320  178.0100  148.9900 O   0  0  0  0  0  0  0  0  0  0  0  0
  188.3260  177.9470  147.7950 C   0  0  0  0  0  0  0  0  0  0  0  0
  189.7060  177.6790  147.5290 N   0  0  0  0  0  2  0  0  0  0  0  0
  190.2590  177.5660  146.1830 C   0  0  0  0  0  2  0  0  0  0  0  0
  191.4710  176.6430  146.1690 C   0  0  0  0  0  2  0  0  0  0  0  0
  192.8290  176.1020  148.1190 N   0  0  0  0  0  1  0  0  0  0  0  0
  191.5660  175.8370  147.4550 C   0  0  0  0  0  2  0  0  0  0  0  0
  184.0570  179.5380  144.1310 C   0  0  0  0  0  2  0  0  0  0  0  0
  183.7700  178.6750  142.9140 C   0  0  0  0  0  2  0  0  0  0  0  0
  182.5040  179.0670  142.3170 N   0  0  0  0  0  2  0  0  0  0  0  0
  182.2200  178.1320  141.2380 C   0  0  1  0  0  3  0  0  0  0  0  0
  181.5950  178.8130  140.1660 O   0  0  0  0  0  0  0  0  0  0  0  0
  183.5560  177.8590  139.3930 C   0  0  1  0  0  3  0  0  0  0  0  0
  183.4380  177.5610  140.7730 O   0  0  0  0  0  0  0  0  0  0  0  0
  182.0850  179.1150  137.9280 O   0  0  0  0  0  0  0  0  0  0  0  0
  182.3710  178.6510  139.0640 C   0  0  0  0  0  0  0  0  0  0  0  0
  184.8140  178.6790  139.1530 C   0  0  0  0  0  2  0  0  0  0  0  0
  184.6630  179.9480  139.7120 O   0  0  0  0  0  1  0  0  0  0  0  0
  187.7900  176.5190  143.2630 C   0  0  0  0  0  2  0  0  0  0  0  0
  188.7780  177.3860  142.6420 N   0  0  0  0  0  2  0  0  0  0  0  0
  189.9400  176.6220  142.4860 N   0  0  0  0  0  2  0  0  0  0  0  0
  190.6130  177.1260  141.3010 C   0  0  0  0  0  2  0  0  0  0  0  0
  190.1840  176.3680  140.1340 N   0  0  0  0  0  2  0  0  0  0  0  0
  190.2080  177.2460  139.0410 N   0  0  0  0  0  0  0  0  0  0  0  0
  189.0820  178.1610  139.2080 C   0  0  0  0  0  2  0  0  0  0  0  0
  189.0910  179.1370  138.1900 O   0  0  0  0  0  0  0  0  0  0  0  0
  189.9330  176.4460  137.8530 C   0  0  0  0  0  2  0  0  0  0  0  0
  188.8610  178.5170  136.9370 C   0  0  1  0  0  3  0  0  0  0  0  0
  189.8190  177.3540  136.6360 C   0  0  0  0  0  2  0  0  0  0  0  0
  187.3840  178.2210  136.6560 C   0  0  0  0  0  2  0  0  0  0  0  0
  187.0810  178.2850  135.2340 N   0  0  0  0  0  1  0  0  0  0  0  0
  1  7  1  0  0  0  0
  2 15  1  6  0  0  0
  2  5  1  0  0  0  0
  3  1  2  0  0  0  0
  3  2  1  0  0  0  0
  4  6  1  0  0  0  0
  4  9  1  1  0  0  0
  5  6  1  0  0  0  0
  7  4  1  0  0  0  0
  9  8  2  0  0  0  0
 10  9  1  0  0  0  0
 11 10  1  0  0  0  0
 12 11  1  0  0  0  0
 12 14  1  0  0  0  0
 14 13  1  0  0  0  0
 16 15  1  0  0  0  0
 17 16  1  0  0  0  0
 18 17  1  1  0  0  0
 19 18  1  0  0  0  0
 20 24  1  1  0  0  0
 20 21  1  0  0  0  0
 21 18  1  0  0  0  0
 22 23  2  0  0  0  0
 23 20  1  0  0  0  0
 23 19  1  0  0  0  0
 24 25  1  0  0  0  0
 26  1  1  0  0  0  0
 27 26  1  0  0  0  0
 28 27  1  0  0  0  0
 29 28  1  0  0  0  0
 30 29  1  0  0  0  0
 31 32  1  0  0  0  0
 31 30  1  0  0  0  0
 33 32  1  0  0  0  0
 34 31  1  0  0  0  0
 35 37  1  1  0  0  0
 35 33  1  0  0  0  0
 36 35  1  0  0  0  0
 36 34  1  0  0  0  0
 38 37  1  0  0  0  0
M  END
>  <MODEL>
1

>  <REMARK>
 VINA RESULT:      -7.9      0.000      0.000
  Name = 
  16 active torsions:
  status: ('A' for Active; 'I' for Inactive)
    1  A    between atoms: C_1  and  C_8
    2  A    between atoms: C_1  and  C_34
    3  A    between atoms: C_2  and  C_21
    4  A    between atoms: N_3  and  N_4
    5  A    between atoms: N_4  and  C_14
    6  A    between atoms: C_6  and  N_7
    7  A    between atoms: N_7  and  C_34
    8  A    between atoms: N_11  and  C_14
    9  A    between atoms: N_11  and  N_28
   10  A    between atoms: C_12  and  C_25
   11  A    between atoms: C_16  and  C_27
   12  A    between atoms: C_18  and  C_26
   13  A    between atoms: C_19  and  C_20
   14  A    between atoms: C_19  and  C_22
   15  A    between atoms: C_21  and  N_28
   16  A    between atoms: C_22  and  N_38
                            x       y       z     vdW  Elec       q    Type
                         _______ _______ _______ _____ _____    ______ ____

>  <TORSDO>
F 16

$$$$
=
 OpenBabel11042410453D

 38 40  0  0  1  0  0  0  0  0999 V2000
  186.1180  178.4640  142.8670 C   0  0  0  0  0  0  0  0  0  0  0  0
  185.5860  177.8500  145.2900 C   0  0  2  0  0  3  0  0  0  0  0  0
  186.4520  177.9160  144.0530 C   0  0  0  0  0  3  0  0  0  0  0  0
  183.6460  178.6530  143.3030 C   0  0  2  0  0  3  0  0  0  0  0  0
  184.8180  179.1430  145.5230 C   0  0  0  0  0  2  0  0  0  0  0  0
  183.5000  179.1490  144.7460 C   0  0  0  0  0  2  0  0  0  0  0  0
  184.8650  179.2660  142.6250 C   0  0  0  0  0  2  0  0  0  0  0  0
  181.5310  179.7140  142.9690 O   0  0  0  0  0  0  0  0  0  0  0  0
  182.4090  178.9350  142.5090 C   0  0  0  0  0  0  0  0  0  0  0  0
  182.2190  178.3530  141.2170 N   0  0  0  0  0  2  0  0  0  0  0  0
  183.1830  177.4570  140.5870 C   0  0  0  0  0  2  0  0  0  0  0  0
  183.4950  177.9060  139.1650 C   0  0  0  0  0  2  0  0  0  0  0  0
  184.5470  180.1030  139.1080 N   0  0  0  0  0  1  0  0  0  0  0  0
  183.2800  179.4010  138.9980 C   0  0  0  0  0  2  0  0  0  0  0  0
  186.4410  177.5400  146.5060 C   0  0  0  0  0  2  0  0  0  0  0  0
  187.9150  177.5480  146.1330 C   0  0  0  0  0  2  0  0  0  0  0  0
  188.6740  176.7730  147.1010 N   0  0  0  0  0  2  0  0  0  0  0  0
  190.0220  177.3210  147.1390 C   0  0  1  0  0  3  0  0  0  0  0  0
  190.9210  176.3460  147.6310 O   0  0  0  0  0  0  0  0  0  0  0  0
  191.5960  176.9680  145.5070 C   0  0  1  0  0  3  0  0  0  0  0  0
  190.4200  177.6920  145.8240 O   0  0  0  0  0  0  0  0  0  0  0  0
  192.8320  175.3370  146.8110 O   0  0  0  0  0  0  0  0  0  0  0  0
  191.8650  176.1340  146.6790 C   0  0  0  0  0  0  0  0  0  0  0  0
  191.3440  176.0920  144.2910 C   0  0  0  0  0  2  0  0  0  0  0  0
  191.8200  176.7290  143.1450 O   0  0  0  0  0  1  0  0  0  0  0  0
  187.0960  178.3740  141.7440 C   0  0  0  0  0  2  0  0  0  0  0  0
  188.3850  177.9250  142.2460 N   0  0  0  0  0  2  0  0  0  0  0  0
  189.2170  177.7710  141.1320 N   0  0  0  0  0  2  0  0  0  0  0  0
  188.4160  178.1030  139.9660 C   0  0  0  0  0  2  0  0  0  0  0  0
  189.2780  178.6090  138.9080 N   0  0  0  0  0  2  0  0  0  0  0  0
  189.1460  177.7370  137.8160 N   0  0  0  0  0  0  0  0  0  0  0  0
  189.0540  178.5700  136.6200 C   0  0  0  0  0  2  0  0  0  0  0  0
  189.0090  177.7610  135.4650 O   0  0  0  0  0  0  0  0  0  0  0  0
  187.8600  177.0660  137.9670 C   0  0  0  0  0  2  0  0  0  0  0  0
  187.8120  177.0030  135.4630 C   0  0  1  0  0  3  0  0  0  0  0  0
  187.5900  176.1930  136.7490 C   0  0  0  0  0  2  0  0  0  0  0  0
  186.5870  177.7850  134.9760 C   0  0  0  0  0  2  0  0  0  0  0  0
  185.3460  177.2080  135.4730 N   0  0  0  0  0  1  0  0  0  0  0  0
  1  3  2  0  0  0  0
  2  5  1  0  0  0  0
  2 15  1  1  0  0  0
  3  2  1  0  0  0  0
  4  9  1  6  0  0  0
  4  6  1  0  0  0  0
  6  5  1  0  0  0  0
  7  1  1  0  0  0  0
  7  4  1  0  0  0  0
  9  8  2  0  0  0  0
 10  9  1  0  0  0  0
 11 10  1  0  0  0  0
 12 11  1  0  0  0  0
 14 13  1  0  0  0  0
 14 12  1  0  0  0  0
 16 15  1  0  0  0  0
 16 17  1  0  0  0  0
 18 17  1  6  0  0  0
 18 19  1  0  0  0  0
 20 24  1  6  0  0  0
 20 21  1  0  0  0  0
 20 23  1  0  0  0  0
 21 18  1  0  0  0  0
 23 22  2  0  0  0  0
 23 19  1  0  0  0  0
 25 24  1  0  0  0  0
 26 27  1  0  0  0  0
 26  1  1  0  0  0  0
 28 27  1  0  0  0  0
 29 28  1  0  0  0  0
 30 29  1  0  0  0  0
 31 34  1  0  0  0  0
 31 30  1  0  0  0  0
 32 31  1  0  0  0  0
 33 32  1  0  0  0  0
 35 37  1  1  0  0  0
 35 33  1  0  0  0  0
 35 36  1  0  0  0  0
 36 34  1  0  0  0  0
 37 38  1  0  0  0  0
M  END
>  <MODEL>
2

>  <REMARK>
 VINA RESULT:      -7.8      2.265      7.137
  Name = 
  16 active torsions:
  status: ('A' for Active; 'I' for Inactive)
    1  A    between atoms: C_1  and  C_8
    2  A    between atoms: C_1  and  C_34
    3  A    between atoms: C_2  and  C_21
    4  A    between atoms: N_3  and  N_4
    5  A    between atoms: N_4  and  C_14
    6  A    between atoms: C_6  and  N_7
    7  A    between atoms: N_7  and  C_34
    8  A    between atoms: N_11  and  C_14
    9  A    between atoms: N_11  and  N_28
   10  A    between atoms: C_12  and  C_25
   11  A    between atoms: C_16  and  C_27
   12  A    between atoms: C_18  and  C_26
   13  A    between atoms: C_19  and  C_20
   14  A    between atoms: C_19  and  C_22
   15  A    between atoms: C_21  and  N_28
   16  A    between atoms: C_22  and  N_38
                            x       y       z     vdW  Elec       q    Type
                         _______ _______ _______ _____ _____    ______ ____

>  <TORSDO>
F 16

$$$$
=
 OpenBabel11042410453D

 38 40  0  0  1  0  0  0  0  0999 V2000
  185.9790  178.5840  142.4870 C   0  0  0  0  0  0  0  0  0  0  0  0
  185.6640  177.8450  144.9140 C   0  0  2  0  0  3  0  0  0  0  0  0
  186.4350  178.0210  143.6250 C   0  0  0  0  0  3  0  0  0  0  0  0
  183.5360  178.5670  143.0940 C   0  0  2  0  0  3  0  0  0  0  0  0
  184.8200  179.0670  145.2500 C   0  0  0  0  0  2  0  0  0  0  0  0
  183.4540  178.9980  144.5630 C   0  0  0  0  0  2  0  0  0  0  0  0
  184.6560  179.2950  142.3620 C   0  0  0  0  0  2  0  0  0  0  0  0
  181.3380  179.4910  142.9350 O   0  0  0  0  0  0  0  0  0  0  0  0
  182.2290  178.7800  142.3970 C   0  0  0  0  0  0  0  0  0  0  0  0
  181.9840  178.2100  141.1090 N   0  0  0  0  0  2  0  0  0  0  0  0
  182.9570  177.3910  140.3920 C   0  0  0  0  0  2  0  0  0  0  0  0
  182.2730  176.2250  139.6890 C   0  0  0  0  0  2  0  0  0  0  0  0
  181.0000  175.5400  137.7270 N   0  0  0  0  0  1  0  0  0  0  0  0
  181.7180  176.6450  138.3370 C   0  0  0  0  0  2  0  0  0  0  0  0
  186.6230  177.5600  146.0570 C   0  0  0  0  0  2  0  0  0  0  0  0
  188.0340  177.9810  145.6820 C   0  0  0  0  0  2  0  0  0  0  0  0
  189.0000  177.1860  146.4210 N   0  0  0  0  0  2  0  0  0  0  0  0
  190.3200  177.5000  145.8940 C   0  0  1  0  0  3  0  0  0  0  0  0
  191.0780  176.3120  145.7620 O   0  0  0  0  0  0  0  0  0  0  0  0
  190.8960  177.3060  143.6810 C   0  0  1  0  0  3  0  0  0  0  0  0
  190.1880  178.1050  144.6120 O   0  0  0  0  0  0  0  0  0  0  0  0
  192.1390  175.2480  144.0070 O   0  0  0  0  0  0  0  0  0  0  0  0
  191.4350  176.1900  144.4580 C   0  0  0  0  0  0  0  0  0  0  0  0
  189.9390  176.7890  142.6200 C   0  0  0  0  0  2  0  0  0  0  0  0
  189.1360  175.7830  143.1580 O   0  0  0  0  0  1  0  0  0  0  0  0
  186.8810  178.6090  141.2990 C   0  0  0  0  0  2  0  0  0  0  0  0
  186.1040  178.8530  140.0950 N   0  0  0  0  0  2  0  0  0  0  0  0
  186.9110  178.4760  139.0150 N   0  0  0  0  0  2  0  0  0  0  0  0
  188.1950  178.0880  139.5710 C   0  0  0  0  0  2  0  0  0  0  0  0
  189.2460  178.3250  138.5920 N   0  0  0  0  0  2  0  0  0  0  0  0
  189.7260  177.0700  138.1900 N   0  0  0  0  0  0  0  0  0  0  0  0
  190.9170  176.7990  138.9920 C   0  0  0  0  0  2  0  0  0  0  0  0
  191.4110  175.5070  138.7090 O   0  0  0  0  0  0  0  0  0  0  0  0
  190.1680  177.2120  136.8080 C   0  0  0  0  0  2  0  0  0  0  0  0
  191.8660  175.4560  137.3680 C   0  0  1  0  0  3  0  0  0  0  0  0
  190.8210  175.9170  136.3410 C   0  0  0  0  0  2  0  0  0  0  0  0
  193.2660  176.0480  137.1690 C   0  0  0  0  0  2  0  0  0  0  0  0
  194.2120  175.5370  138.1510 N   0  0  0  0  0  1  0  0  0  0  0  0
  1  3  2  0  0  0  0
  2  5  1  0  0  0  0
  2 15  1  1  0  0  0
  3  2  1  0  0  0  0
  4  9  1  6  0  0  0
  4  6  1  0  0  0  0
  6  5  1  0  0  0  0
  7  1  1  0  0  0  0
  7  4  1  0  0  0  0
  9  8  2  0  0  0  0
 10  9  1  0  0  0  0
 11 10  1  0  0  0  0
 12 11  1  0  0  0  0
 13 14  1  0  0  0  0
 14 12  1  0  0  0  0
 16 15  1  0  0  0  0
 16 17  1  0  0  0  0
 18 17  1  6  0  0  0
 19 18  1  0  0  0  0
 20 24  1  6  0  0  0
 20 23  1  0  0  0  0
 20 21  1  0  0  0  0
 21 18  1  0  0  0  0
 22 23  2  0  0  0  0
 23 19  1  0  0  0  0
 24 25  1  0  0  0  0
 26  1  1  0  0  0  0
 27 26  1  0  0  0  0
 28 29  1  0  0  0  0
 28 27  1  0  0  0  0
 30 29  1  0  0  0  0
 31 30  1  0  0  0  0
 31 32  1  0  0  0  0
 33 32  1  0  0  0  0
 34 31  1  0  0  0  0
 35 37  1  1  0  0  0
 35 33  1  0  0  0  0
 36 34  1  0  0  0  0
 36 35  1  0  0  0  0
 37 38  1  0  0  0  0
M  END
>  <MODEL>
3

>  <REMARK>
 VINA RESULT:      -7.6      2.885      7.259
  Name = 
  16 active torsions:
  status: ('A' for Active; 'I' for Inactive)
    1  A    between atoms: C_1  and  C_8
    2  A    between atoms: C_1  and  C_34
    3  A    between atoms: C_2  and  C_21
    4  A    between atoms: N_3  and  N_4
    5  A    between atoms: N_4  and  C_14
    6  A    between atoms: C_6  and  N_7
    7  A    between atoms: N_7  and  C_34
    8  A    between atoms: N_11  and  C_14
    9  A    between atoms: N_11  and  N_28
   10  A    between atoms: C_12  and  C_25
   11  A    between atoms: C_16  and  C_27
   12  A    between atoms: C_18  and  C_26
   13  A    between atoms: C_19  and  C_20
   14  A    between atoms: C_19  and  C_22
   15  A    between atoms: C_21  and  N_28
   16  A    between atoms: C_22  and  N_38
                            x       y       z     vdW  Elec       q    Type
                         _______ _______ _______ _____ _____    ______ ____

>  <TORSDO>
F 16

$$$$
=
 OpenBabel11042410453D

 38 40  0  0  1  0  0  0  0  0999 V2000
  186.6940  177.8920  143.2440 C   0  0  0  0  0  0  0  0  0  0  0  0
  185.0370  178.9930  144.8480 C   0  0  2  0  0  3  0  0  0  0  0  0
  185.6060  178.6510  143.4910 C   0  0  0  0  0  3  0  0  0  0  0  0
  187.6040  177.8890  145.5920 C   0  0  2  0  0  3  0  0  0  0  0  0
  185.0550  177.8020  145.7960 C   0  0  0  0  0  2  0  0  0  0  0  0
  186.3990  177.6940  146.5200 C   0  0  0  0  0  2  0  0  0  0  0  0
  187.4380  177.1070  144.2950 C   0  0  0  0  0  2  0  0  0  0  0  0
  188.8410  176.8550  147.3560 O   0  0  0  0  0  0  0  0  0  0  0  0
  188.8780  177.5040  146.2760 C   0  0  0  0  0  0  0  0  0  0  0  0
  190.1460  177.8390  145.7060 N   0  0  0  0  0  2  0  0  0  0  0  0
  190.2970  178.5680  144.4510 C   0  0  0  0  0  2  0  0  0  0  0  0
  191.6890  178.3610  143.8650 C   0  0  0  0  0  2  0  0  0  0  0  0
  190.5360  176.8890  142.3020 N   0  0  0  0  0  1  0  0  0  0  0  0
  191.7620  177.0740  143.0580 C   0  0  0  0  0  2  0  0  0  0  0  0
  183.6140  179.5030  144.7000 C   0  0  0  0  0  2  0  0  0  0  0  0
  182.9140  178.7920  143.5540 C   0  0  0  0  0  2  0  0  0  0  0  0
  181.6740  179.4790  143.2300 N   0  0  0  0  0  2  0  0  0  0  0  0
  181.0780  178.7930  142.0940 C   0  0  1  0  0  3  0  0  0  0  0  0
  180.4090  179.7270  141.2680 O   0  0  0  0  0  0  0  0  0  0  0  0
  182.0450  178.6740  140.0160 C   0  0  1  0  0  3  0  0  0  0  0  0
  182.1000  178.1560  141.3340 O   0  0  0  0  0  0  0  0  0  0  0  0
  180.5810  180.3500  139.0490 O   0  0  0  0  0  0  0  0  0  0  0  0
  180.9650  179.6600  140.0310 C   0  0  0  0  0  0  0  0  0  0  0  0
  183.3640  179.3500  139.6780 C   0  0  0  0  0  2  0  0  0  0  0  0
  183.8070  178.9200  138.4270 O   0  0  0  0  0  1  0  0  0  0  0  0
  187.1320  177.7200  141.8290 C   0  0  0  0  0  2  0  0  0  0  0  0
  186.7040  178.8610  141.0370 N   0  0  0  0  0  2  0  0  0  0  0  0
  186.9490  178.5350  139.6980 N   0  0  0  0  0  2  0  0  0  0  0  0
  188.3800  178.3140  139.5800 C   0  0  0  0  0  2  0  0  0  0  0  0
  188.9090  179.1040  138.4780 N   0  0  0  0  0  2  0  0  0  0  0  0
  189.7890  178.2780  137.7630 N   0  0  0  0  0  0  0  0  0  0  0  0
  189.0160  177.6800  136.6770 C   0  0  0  0  0  2  0  0  0  0  0  0
  189.8570  176.9010  135.8530 O   0  0  0  0  0  0  0  0  0  0  0  0
  190.1710  177.1950  138.6610 C   0  0  0  0  0  2  0  0  0  0  0  0
  190.3500  175.7960  136.5900 C   0  0  1  0  0  3  0  0  0  0  0  0
  191.0300  176.1850  137.9110 C   0  0  0  0  0  2  0  0  0  0  0  0
  189.3580  174.6330  136.6960 C   0  0  0  0  0  2  0  0  0  0  0  0
  189.9670  173.4570  137.3020 N   0  0  0  0  0  1  0  0  0  0  0  0
  1  3  2  0  0  0  0
  1  7  1  0  0  0  0
  2 15  1  6  0  0  0
  2  5  1  0  0  0  0
  3  2  1  0  0  0  0
  4  9  1  1  0  0  0
  4  6  1  0  0  0  0
  5  6  1  0  0  0  0
  7  4  1  0  0  0  0
  9  8  2  0  0  0  0
 10  9  1  0  0  0  0
 11 10  1  0  0  0  0
 12 11  1  0  0  0  0
 13 14  1  0  0  0  0
 14 12  1  0  0  0  0
 16 15  1  0  0  0  0
 17 16  1  0  0  0  0
 18 17  1  1  0  0  0
 19 18  1  0  0  0  0
 20 24  1  1  0  0  0
 20 23  1  0  0  0  0
 20 21  1  0  0  0  0
 21 18  1  0  0  0  0
 22 23  2  0  0  0  0
 23 19  1  0  0  0  0
 25 24  1  0  0  0  0
 26  1  1  0  0  0  0
 27 26  1  0  0  0  0
 28 27  1  0  0  0  0
 29 28  1  0  0  0  0
 30 29  1  0  0  0  0
 31 30  1  0  0  0  0
 31 34  1  0  0  0  0
 32 31  1  0  0  0  0
 33 35  1  0  0  0  0
 33 32  1  0  0  0  0
 35 37  1  1  0  0  0
 35 36  1  0  0  0  0
 36 34  1  0  0  0  0
 37 38  1  0  0  0  0
M  END
>  <MODEL>
4

>  <REMARK>
 VINA RESULT:      -7.3      1.853      2.642
  Name = 
  16 active torsions:
  status: ('A' for Active; 'I' for Inactive)
    1  A    between atoms: C_1  and  C_8
    2  A    between atoms: C_1  and  C_34
    3  A    between atoms: C_2  and  C_21
    4  A    between atoms: N_3  and  N_4
    5  A    between atoms: N_4  and  C_14
    6  A    between atoms: C_6  and  N_7
    7  A    between atoms: N_7  and  C_34
    8  A    between atoms: N_11  and  C_14
    9  A    between atoms: N_11  and  N_28
   10  A    between atoms: C_12  and  C_25
   11  A    between atoms: C_16  and  C_27
   12  A    between atoms: C_18  and  C_26
   13  A    between atoms: C_19  and  C_20
   14  A    between atoms: C_19  and  C_22
   15  A    between atoms: C_21  and  N_28
   16  A    between atoms: C_22  and  N_38
                            x       y       z     vdW  Elec       q    Type
                         _______ _______ _______ _____ _____    ______ ____

>  <TORSDO>
F 16

$$$$
=
 OpenBabel11042410453D

 38 40  0  0  1  0  0  0  0  0999 V2000
  187.3200  177.1710  143.3840 C   0  0  0  0  0  0  0  0  0  0  0  0
  185.6340  178.8300  142.4180 C   0  0  2  0  0  3  0  0  0  0  0  0
  186.8050  177.8770  142.3570 C   0  0  0  0  0  3  0  0  0  0  0  0
  186.1670  178.4330  145.2330 C   0  0  2  0  0  3  0  0  0  0  0  0
  184.5050  178.3000  143.2910 C   0  0  0  0  0  2  0  0  0  0  0  0
  184.7270  178.6650  144.7610 C   0  0  0  0  0  2  0  0  0  0  0  0
  186.6980  177.0870  144.7540 C   0  0  0  0  0  2  0  0  0  0  0  0
  185.2580  178.8640  147.4000 O   0  0  0  0  0  0  0  0  0  0  0  0
  186.2680  178.5370  146.7220 C   0  0  0  0  0  0  0  0  0  0  0  0
  187.4950  178.2410  147.3950 N   0  0  0  0  0  2  0  0  0  0  0  0
  188.7140  177.8320  146.7040 C   0  0  0  0  0  2  0  0  0  0  0  0
  189.7120  177.2190  147.6790 C   0  0  0  0  0  2  0  0  0  0  0  0
  191.0130  177.3190  145.6210 N   0  0  0  0  0  1  0  0  0  0  0  0
  190.9780  176.7720  146.9660 C   0  0  0  0  0  2  0  0  0  0  0  0
  185.1100  179.1000  141.0190 C   0  0  0  0  0  2  0  0  0  0  0  0
  183.5930  179.0090  140.9950 C   0  0  0  0  0  2  0  0  0  0  0  0
  183.1810  177.8010  140.2980 N   0  0  0  0  0  2  0  0  0  0  0  0
  181.8150  178.0060  139.8380 C   0  0  1  0  0  3  0  0  0  0  0  0
  181.0170  176.8940  140.1970 O   0  0  0  0  0  0  0  0  0  0  0  0
  180.1190  178.7930  141.1670 C   0  0  1  0  0  3  0  0  0  0  0  0
  181.2790  179.1740  140.4490 O   0  0  0  0  0  0  0  0  0  0  0  0
  179.0940  176.6120  141.4480 O   0  0  0  0  0  0  0  0  0  0  0  0
  180.0020  177.3470  140.9770 C   0  0  0  0  0  0  0  0  0  0  0  0
  180.3030  179.1120  142.6410 C   0  0  0  0  0  2  0  0  0  0  0  0
  180.2560  180.4930  142.8350 O   0  0  0  0  0  1  0  0  0  0  0  0
  188.5230  176.3260  143.1300 C   0  0  0  0  0  2  0  0  0  0  0  0
  189.5100  177.0840  142.3790 N   0  0  0  0  0  2  0  0  0  0  0  0
  190.2490  176.1550  141.6370 N   0  0  0  0  0  2  0  0  0  0  0  0
  190.4920  176.7600  140.3390 C   0  0  0  0  0  2  0  0  0  0  0  0
  189.7950  178.0350  140.2530 N   0  0  0  0  0  2  0  0  0  0  0  0
  189.4190  178.2110  138.9130 N   0  0  0  0  0  0  0  0  0  0  0  0
  187.9850  177.9400  138.8380 C   0  0  0  0  0  2  0  0  0  0  0  0
  187.5110  178.1840  137.5320 O   0  0  0  0  0  0  0  0  0  0  0  0
  190.0900  177.1670  138.1480 C   0  0  0  0  0  2  0  0  0  0  0  0
  188.0950  177.2570  136.6340 C   0  0  1  0  0  3  0  0  0  0  0  0
  189.6300  177.2170  136.6970 C   0  0  0  0  0  2  0  0  0  0  0  0
  187.4160  175.8840  136.6360 C   0  0  0  0  0  2  0  0  0  0  0  0
  188.3740  174.8070  136.4300 N   0  0  0  0  0  1  0  0  0  0  0  0
  1  7  1  0  0  0  0
  2 15  1  6  0  0  0
  2  5  1  0  0  0  0
  3  2  1  0  0  0  0
  3  1  2  0  0  0  0
  4  9  1  1  0  0  0
  5  6  1  0  0  0  0
  6  4  1  0  0  0  0
  7  4  1  0  0  0  0
  9 10  1  0  0  0  0
  9  8  2  0  0  0  0
 11 10  1  0  0  0  0
 11 12  1  0  0  0  0
 13 14  1  0  0  0  0
 14 12  1  0  0  0  0
 16 15  1  0  0  0  0
 17 16  1  0  0  0  0
 18 19  1  0  0  0  0
 18 17  1  1  0  0  0
 18 21  1  0  0  0  0
 19 23  1  0  0  0  0
 20 24  1  1  0  0  0
 21 20  1  0  0  0  0
 23 20  1  0  0  0  0
 23 22  2  0  0  0  0
 24 25  1  0  0  0  0
 26  1  1  0  0  0  0
 27 26  1  0  0  0  0
 28 27  1  0  0  0  0
 29 28  1  0  0  0  0
 30 29  1  0  0  0  0
 31 30  1  0  0  0  0
 32 31  1  0  0  0  0
 33 32  1  0  0  0  0
 34 31  1  0  0  0  0
 35 37  1  1  0  0  0
 35 36  1  0  0  0  0
 35 33  1  0  0  0  0
 36 34  1  0  0  0  0
 38 37  1  0  0  0  0
M  END
>  <MODEL>
5

>  <REMARK>
 VINA RESULT:      -7.2      1.854      2.621
  Name = 
  16 active torsions:
  status: ('A' for Active; 'I' for Inactive)
    1  A    between atoms: C_1  and  C_8
    2  A    between atoms: C_1  and  C_34
    3  A    between atoms: C_2  and  C_21
    4  A    between atoms: N_3  and  N_4
    5  A    between atoms: N_4  and  C_14
    6  A    between atoms: C_6  and  N_7
    7  A    between atoms: N_7  and  C_34
    8  A    between atoms: N_11  and  C_14
    9  A    between atoms: N_11  and  N_28
   10  A    between atoms: C_12  and  C_25
   11  A    between atoms: C_16  and  C_27
   12  A    between atoms: C_18  and  C_26
   13  A    between atoms: C_19  and  C_20
   14  A    between atoms: C_19  and  C_22
   15  A    between atoms: C_21  and  N_28
   16  A    between atoms: C_22  and  N_38
                            x       y       z     vdW  Elec       q    Type
                         _______ _______ _______ _____ _____    ______ ____

>  <TORSDO>
F 16

$$$$
=
 OpenBabel11042410453D

 38 40  0  0  1  0  0  0  0  0999 V2000
  183.1020  178.9830  142.7610 C   0  0  0  0  0  0  0  0  0  0  0  0
  184.5690  178.9070  140.6700 C   0  0  2  0  0  3  0  0  0  0  0  0
  184.3040  179.0420  142.1520 C   0  0  0  0  0  3  0  0  0  0  0  0
  181.6950  179.2250  140.6870 C   0  0  2  0  0  3  0  0  0  0  0  0
  183.7250  177.8120  140.0320 C   0  0  0  0  0  2  0  0  0  0  0  0
  182.3520  178.3470  139.6170 C   0  0  0  0  0  2  0  0  0  0  0  0
  181.8180  178.6000  142.0710 C   0  0  0  0  0  2  0  0  0  0  0  0
  179.3560  178.7630  140.8500 O   0  0  0  0  0  0  0  0  0  0  0  0
  180.2600  179.4910  140.3580 C   0  0  0  0  0  0  0  0  0  0  0  0
  179.8930  180.5830  139.5110 N   0  0  0  0  0  2  0  0  0  0  0  0
  180.8600  181.4960  138.9090 C   0  0  0  0  0  2  0  0  0  0  0  0
  180.1660  182.7350  138.3570 C   0  0  0  0  0  2  0  0  0  0  0  0
  180.1650  184.3450  136.5270 N   0  0  0  0  0  1  0  0  0  0  0  0
  180.9690  183.3580  137.2250 C   0  0  0  0  0  2  0  0  0  0  0  0
  186.0410  178.6180  140.4300 C   0  0  0  0  0  2  0  0  0  0  0  0
  186.7810  178.5120  141.7530 C   0  0  0  0  0  2  0  0  0  0  0  0
  188.1980  178.7630  141.5490 N   0  0  0  0  0  2  0  0  0  0  0  0
  188.7820  177.5520  140.9930 C   0  0  1  0  0  3  0  0  0  0  0  0
  189.8970  177.8830  140.1880 O   0  0  0  0  0  0  0  0  0  0  0  0
  190.6040  176.4810  141.8860 C   0  0  1  0  0  3  0  0  0  0  0  0
  189.2150  176.7050  142.0530 O   0  0  0  0  0  0  0  0  0  0  0  0
  192.1370  177.3130  140.2000 O   0  0  0  0  0  0  0  0  0  0  0  0
  190.9820  177.2480  140.6990 C   0  0  0  0  0  0  0  0  0  0  0  0
  191.3540  176.9990  143.1020 C   0  0  0  0  0  2  0  0  0  0  0  0
  191.6470  175.9410  143.9620 O   0  0  0  0  0  1  0  0  0  0  0  0
  183.0440  179.2010  144.2360 C   0  0  0  0  0  2  0  0  0  0  0  0
  184.3580  178.9870  144.8190 N   0  0  0  0  0  2  0  0  0  0  0  0
  184.1580  178.7600  146.1850 N   0  0  0  0  0  2  0  0  0  0  0  0
  185.2900  177.9740  146.6450 C   0  0  0  0  0  2  0  0  0  0  0  0
  186.2810  177.8740  145.5840 N   0  0  0  0  0  2  0  0  0  0  0  0
  187.4960  178.3390  146.1100 N   0  0  0  0  0  0  0  0  0  0  0  0
  188.5610  177.6590  145.3770 C   0  0  0  0  0  2  0  0  0  0  0  0
  189.8210  178.1430  145.7870 O   0  0  0  0  0  0  0  0  0  0  0  0
  187.5640  177.8720  147.4890 C   0  0  0  0  0  2  0  0  0  0  0  0
  190.0450  177.7950  147.1420 C   0  0  1  0  0  3  0  0  0  0  0  0
  188.9170  178.2340  148.0880 C   0  0  0  0  0  2  0  0  0  0  0  0
  190.5220  176.3520  147.3380 C   0  0  0  0  0  2  0  0  0  0  0  0
  191.9740  176.2580  147.3340 N   0  0  0  0  0  1  0  0  0  0  0  0
  1 26  1  0  0  0  0
  2 15  1  1  0  0  0
  2  3  1  0  0  0  0
  3  1  2  0  0  0  0
  4  9  1  6  0  0  0
  4  7  1  0  0  0  0
  5  2  1  0  0  0  0
  6  5  1  0  0  0  0
  6  4  1  0  0  0  0
  7  1  1  0  0  0  0
  9  8  2  0  0  0  0
 10  9  1  0  0  0  0
 11 10  1  0  0  0  0
 12 11  1  0  0  0  0
 13 14  1  0  0  0  0
 14 12  1  0  0  0  0
 15 16  1  0  0  0  0
 17 16  1  0  0  0  0
 18 17  1  1  0  0  0
 18 21  1  0  0  0  0
 19 23  1  0  0  0  0
 19 18  1  0  0  0  0
 20 21  1  0  0  0  0
 20 24  1  1  0  0  0
 22 23  2  0  0  0  0
 23 20  1  0  0  0  0
 24 25  1  0  0  0  0
 26 27  1  0  0  0  0
 27 28  1  0  0  0  0
 28 29  1  0  0  0  0
 30 31  1  0  0  0  0
 30 29  1  0  0  0  0
 31 34  1  0  0  0  0
 32 33  1  0  0  0  0
 32 31  1  0  0  0  0
 33 35  1  0  0  0  0
 34 36  1  0  0  0  0
 35 37  1  6  0  0  0
 35 36  1  0  0  0  0
 38 37  1  0  0  0  0
M  END
>  <MODEL>
6

>  <REMARK>
 VINA RESULT:      -7.0      3.008      9.369
  Name = 
  16 active torsions:
  status: ('A' for Active; 'I' for Inactive)
    1  A    between atoms: C_1  and  C_8
    2  A    between atoms: C_1  and  C_34
    3  A    between atoms: C_2  and  C_21
    4  A    between atoms: N_3  and  N_4
    5  A    between atoms: N_4  and  C_14
    6  A    between atoms: C_6  and  N_7
    7  A    between atoms: N_7  and  C_34
    8  A    between atoms: N_11  and  C_14
    9  A    between atoms: N_11  and  N_28
   10  A    between atoms: C_12  and  C_25
   11  A    between atoms: C_16  and  C_27
   12  A    between atoms: C_18  and  C_26
   13  A    between atoms: C_19  and  C_20
   14  A    between atoms: C_19  and  C_22
   15  A    between atoms: C_21  and  N_28
   16  A    between atoms: C_22  and  N_38
                            x       y       z     vdW  Elec       q    Type
                         _______ _______ _______ _____ _____    ______ ____

>  <TORSDO>
F 16

$$$$
=
 OpenBabel11042410453D

 38 40  0  0  1  0  0  0  0  0999 V2000
  186.6610  177.9180  143.3040 C   0  0  0  0  0  0  0  0  0  0  0  0
  185.0380  179.1330  144.8600 C   0  0  2  0  0  3  0  0  0  0  0  0
  185.6090  178.7340  143.5190 C   0  0  0  0  0  3  0  0  0  0  0  0
  187.5360  177.9190  145.6650 C   0  0  2  0  0  3  0  0  0  0  0  0
  184.9840  177.9630  145.8320 C   0  0  0  0  0  2  0  0  0  0  0  0
  186.3110  177.8040  146.5780 C   0  0  0  0  0  2  0  0  0  0  0  0
  187.3500  177.1200  144.3810 C   0  0  0  0  0  2  0  0  0  0  0  0
  188.6950  176.8030  147.4320 O   0  0  0  0  0  0  0  0  0  0  0  0
  188.7790  177.4860  146.3760 C   0  0  0  0  0  0  0  0  0  0  0  0
  190.0720  177.8120  145.8570 N   0  0  0  0  0  2  0  0  0  0  0  0
  190.2780  178.5790  144.6320 C   0  0  0  0  0  2  0  0  0  0  0  0
  191.2390  177.8580  143.6950 C   0  0  0  0  0  2  0  0  0  0  0  0
  191.8450  175.5130  143.9620 N   0  0  0  0  0  1  0  0  0  0  0  0
  190.8170  176.4150  143.4740 C   0  0  0  0  0  2  0  0  0  0  0  0
  183.6450  179.7100  144.6810 C   0  0  0  0  0  2  0  0  0  0  0  0
  182.9440  179.0450  143.5070 C   0  0  0  0  0  2  0  0  0  0  0  0
  181.8170  178.2600  143.9840 N   0  0  0  0  0  2  0  0  0  0  0  0
  180.6130  179.0470  143.7690 C   0  0  1  0  0  3  0  0  0  0  0  0
  180.8840  180.1020  142.8660 O   0  0  0  0  0  0  0  0  0  0  0  0
  179.2090  178.7790  141.9730 C   0  0  1  0  0  3  0  0  0  0  0  0
  179.5960  178.2180  143.2150 O   0  0  0  0  0  0  0  0  0  0  0  0
  180.0220  180.7550  140.8230 O   0  0  0  0  0  0  0  0  0  0  0  0
  180.0530  179.9610  141.8020 C   0  0  0  0  0  0  0  0  0  0  0  0
  179.4750  177.7820  140.8580 C   0  0  0  0  0  2  0  0  0  0  0  0
  180.8490  177.5870  140.7170 O   0  0  0  0  0  1  0  0  0  0  0  0
  187.1090  177.6950  141.8990 C   0  0  0  0  0  2  0  0  0  0  0  0
  188.0480  178.7350  141.5100 N   0  0  0  0  0  2  0  0  0  0  0  0
  189.1480  178.0870  140.9360 N   0  0  0  0  0  2  0  0  0  0  0  0
  188.7770  177.7740  139.5660 C   0  0  0  0  0  2  0  0  0  0  0  0
  188.7180  178.9980  138.7820 N   0  0  0  0  0  2  0  0  0  0  0  0
  188.2560  178.6480  137.5040 N   0  0  0  0  0  0  0  0  0  0  0  0
  186.8920  178.1520  137.6710 C   0  0  0  0  0  2  0  0  0  0  0  0
  186.3210  177.8620  136.4130 O   0  0  0  0  0  0  0  0  0  0  0  0
  189.0660  177.5210  137.0580 C   0  0  0  0  0  2  0  0  0  0  0  0
  187.0200  176.7860  135.8130 C   0  0  1  0  0  3  0  0  0  0  0  0
  188.5380  177.0030  135.7270 C   0  0  0  0  0  2  0  0  0  0  0  0
  186.5970  175.4080  136.3350 C   0  0  0  0  0  2  0  0  0  0  0  0
  186.7220  174.3810  135.3110 N   0  0  0  0  0  1  0  0  0  0  0  0
  1  3  2  0  0  0  0
  1  7  1  0  0  0  0
  2 15  1  6  0  0  0
  2  5  1  0  0  0  0
  3  2  1  0  0  0  0
  4  9  1  1  0  0  0
  4  6  1  0  0  0  0
  5  6  1  0  0  0  0
  7  4  1  0  0  0  0
  9  8  2  0  0  0  0
 10  9  1  0  0  0  0
 11 10  1  0  0  0  0
 12 11  1  0  0  0  0
 14 12  1  0  0  0  0
 14 13  1  0  0  0  0
 16 17  1  0  0  0  0
 16 15  1  0  0  0  0
 18 17  1  6  0  0  0
 19 18  1  0  0  0  0
 20 24  1  6  0  0  0
 20 21  1  0  0  0  0
 21 18  1  0  0  0  0
 22 23  2  0  0  0  0
 23 20  1  0  0  0  0
 23 19  1  0  0  0  0
 25 24  1  0  0  0  0
 26  1  1  0  0  0  0
 27 26  1  0  0  0  0
 28 27  1  0  0  0  0
 29 28  1  0  0  0  0
 30 29  1  0  0  0  0
 31 32  1  0  0  0  0
 31 30  1  0  0  0  0
 33 32  1  0  0  0  0
 34 31  1  0  0  0  0
 35 37  1  1  0  0  0
 35 33  1  0  0  0  0
 36 35  1  0  0  0  0
 36 34  1  0  0  0  0
 38 37  1  0  0  0  0
M  END
>  <MODEL>
7

>  <REMARK>
 VINA RESULT:      -6.9      2.214      2.872
  Name = 
  16 active torsions:
  status: ('A' for Active; 'I' for Inactive)
    1  A    between atoms: C_1  and  C_8
    2  A    between atoms: C_1  and  C_34
    3  A    between atoms: C_2  and  C_21
    4  A    between atoms: N_3  and  N_4
    5  A    between atoms: N_4  and  C_14
    6  A    between atoms: C_6  and  N_7
    7  A    between atoms: N_7  and  C_34
    8  A    between atoms: N_11  and  C_14
    9  A    between atoms: N_11  and  N_28
   10  A    between atoms: C_12  and  C_25
   11  A    between atoms: C_16  and  C_27
   12  A    between atoms: C_18  and  C_26
   13  A    between atoms: C_19  and  C_20
   14  A    between atoms: C_19  and  C_22
   15  A    between atoms: C_21  and  N_28
   16  A    between atoms: C_22  and  N_38
                            x       y       z     vdW  Elec       q    Type
                         _______ _______ _______ _____ _____    ______ ____

>  <TORSDO>
F 16

$$$$
=
 OpenBabel11042410453D

 38 40  0  0  1  0  0  0  0  0999 V2000
  184.3860  178.6460  140.5100 C   0  0  0  0  0  0  0  0  0  0  0  0
  184.1270  178.2560  143.0220 C   0  0  2  0  0  3  0  0  0  0  0  0
  184.8960  178.3530  141.7240 C   0  0  0  0  0  3  0  0  0  0  0  0
  181.9630  178.3170  141.1060 C   0  0  2  0  0  3  0  0  0  0  0  0
  183.0850  179.3560  143.1570 C   0  0  0  0  0  2  0  0  0  0  0  0
  181.7690  178.9540  142.4870 C   0  0  0  0  0  2  0  0  0  0  0  0
  182.9690  179.0970  140.2700 C   0  0  0  0  0  2  0  0  0  0  0  0
  179.8390  179.1540  140.4010 O   0  0  0  0  0  0  0  0  0  0  0  0
  180.6590  178.1980  140.3810 C   0  0  0  0  0  0  0  0  0  0  0  0
  180.3400  177.0190  139.6370 N   0  0  0  0  0  2  0  0  0  0  0  0
  181.2290  175.8660  139.5340 C   0  0  0  0  0  2  0  0  0  0  0  0
  181.9490  175.8530  138.1910 C   0  0  0  0  0  2  0  0  0  0  0  0
  183.9530  175.0800  137.0400 N   0  0  0  0  0  1  0  0  0  0  0  0
  183.3890  175.3900  138.3420 C   0  0  0  0  0  2  0  0  0  0  0  0
  185.0860  178.3170  144.1980 C   0  0  0  0  0  2  0  0  0  0  0  0
  186.4610  177.8170  143.7870 C   0  0  0  0  0  2  0  0  0  0  0  0
  187.0920  177.1310  144.9030 N   0  0  0  0  0  2  0  0  0  0  0  0
  187.5420  178.1470  145.8430 C   0  0  1  0  0  3  0  0  0  0  0  0
  187.0140  177.8790  147.1280 O   0  0  0  0  0  0  0  0  0  0  0  0
  189.3230  177.8780  147.2640 C   0  0  1  0  0  3  0  0  0  0  0  0
  188.9640  178.1270  145.9170 O   0  0  0  0  0  0  0  0  0  0  0  0
  187.9310  177.5010  149.2150 O   0  0  0  0  0  0  0  0  0  0  0  0
  188.0570  177.7270  147.9820 C   0  0  0  0  0  0  0  0  0  0  0  0
  190.1280  176.5920  147.3490 C   0  0  0  0  0  2  0  0  0  0  0  0
  191.4910  176.8840  147.3010 O   0  0  0  0  0  1  0  0  0  0  0  0
  185.3060  178.6340  139.3350 C   0  0  0  0  0  2  0  0  0  0  0  0
  186.6870  178.6310  139.7880 N   0  0  0  0  0  2  0  0  0  0  0  0
  187.4860  178.6240  138.6390 N   0  0  0  0  0  2  0  0  0  0  0  0
  188.8250  178.2570  139.0660 C   0  0  0  0  0  2  0  0  0  0  0  0
  188.9230  176.8100  139.1830 N   0  0  0  0  0  2  0  0  0  0  0  0
  189.8270  176.5400  140.2210 N   0  0  0  0  0  0  0  0  0  0  0  0
  189.1050  176.7440  141.4740 C   0  0  0  0  0  2  0  0  0  0  0  0
  189.9250  176.4030  142.5710 O   0  0  0  0  0  0  0  0  0  0  0  0
  190.8610  177.5650  140.1550 C   0  0  0  0  0  2  0  0  0  0  0  0
  191.0190  177.3000  142.6410 C   0  0  1  0  0  3  0  0  0  0  0  0
  191.8150  177.4110  141.3320 C   0  0  0  0  0  2  0  0  0  0  0  0
  190.6760  178.6410  143.3000 C   0  0  0  0  0  2  0  0  0  0  0  0
  191.7980  179.1720  144.0600 N   0  0  0  0  0  1  0  0  0  0  0  0
  1  3  2  0  0  0  0
  2  5  1  0  0  0  0
  2 15  1  1  0  0  0
  3  2  1  0  0  0  0
  4  9  1  6  0  0  0
  4  6  1  0  0  0  0
  6  5  1  0  0  0  0
  7  1  1  0  0  0  0
  7  4  1  0  0  0  0
  9  8  2  0  0  0  0
 10  9  1  0  0  0  0
 11 10  1  0  0  0  0
 12 14  1  0  0  0  0
 12 11  1  0  0  0  0
 13 14  1  0  0  0  0
 16 15  1  0  0  0  0
 16 17  1  0  0  0  0
 18 17  1  6  0  0  0
 18 21  1  0  0  0  0
 18 19  1  0  0  0  0
 19 23  1  0  0  0  0
 20 24  1  6  0  0  0
 20 23  1  0  0  0  0
 21 20  1  0  0  0  0
 23 22  2  0  0  0  0
 25 24  1  0  0  0  0
 26 27  1  0  0  0  0
 26  1  1  0  0  0  0
 28 29  1  0  0  0  0
 28 27  1  0  0  0  0
 29 30  1  0  0  0  0
 30 31  1  0  0  0  0
 31 32  1  0  0  0  0
 32 33  1  0  0  0  0
 33 35  1  0  0  0  0
 34 31  1  0  0  0  0
 34 36  1  0  0  0  0
 35 37  1  6  0  0  0
 36 35  1  0  0  0  0
 37 38  1  0  0  0  0
M  END
>  <MODEL>
8

>  <REMARK>
 VINA RESULT:      -6.9      2.436      7.947
  Name = 
  16 active torsions:
  status: ('A' for Active; 'I' for Inactive)
    1  A    between atoms: C_1  and  C_8
    2  A    between atoms: C_1  and  C_34
    3  A    between atoms: C_2  and  C_21
    4  A    between atoms: N_3  and  N_4
    5  A    between atoms: N_4  and  C_14
    6  A    between atoms: C_6  and  N_7
    7  A    between atoms: N_7  and  C_34
    8  A    between atoms: N_11  and  C_14
    9  A    between atoms: N_11  and  N_28
   10  A    between atoms: C_12  and  C_25
   11  A    between atoms: C_16  and  C_27
   12  A    between atoms: C_18  and  C_26
   13  A    between atoms: C_19  and  C_20
   14  A    between atoms: C_19  and  C_22
   15  A    between atoms: C_21  and  N_28
   16  A    between atoms: C_22  and  N_38
                            x       y       z     vdW  Elec       q    Type
                         _______ _______ _______ _____ _____    ______ ____

>  <TORSDO>
F 16

$$$$
=
 OpenBabel11042410453D

 38 40  0  0  1  0  0  0  0  0999 V2000
  183.7910  178.9460  142.8670 C   0  0  0  0  0  0  0  0  0  0  0  0
  183.8760  178.7900  140.3180 C   0  0  2  0  0  3  0  0  0  0  0  0
  184.4460  179.0520  141.6930 C   0  0  0  0  0  3  0  0  0  0  0  0
  181.4640  178.8420  141.9110 C   0  0  2  0  0  3  0  0  0  0  0  0
  182.9770  177.5620  140.2930 C   0  0  0  0  0  2  0  0  0  0  0  0
  181.5420  177.9220  140.6880 C   0  0  0  0  0  2  0  0  0  0  0  0
  182.4030  178.3770  143.0170 C   0  0  0  0  0  2  0  0  0  0  0  0
  179.8050  178.6410  143.6200 O   0  0  0  0  0  0  0  0  0  0  0  0
  180.0610  178.9390  142.4220 C   0  0  0  0  0  0  0  0  0  0  0  0
  179.0030  179.3950  141.5750 N   0  0  0  0  0  2  0  0  0  0  0  0
  179.1970  179.7840  140.1820 C   0  0  0  0  0  2  0  0  0  0  0  0
  179.4150  181.2880  140.0620 C   0  0  0  0  0  2  0  0  0  0  0  0
  180.6760  180.5500  138.1120 N   0  0  0  0  0  1  0  0  0  0  0  0
  180.5470  181.6070  139.0990 C   0  0  0  0  0  2  0  0  0  0  0  0
  185.0030  178.6150  139.3150 C   0  0  0  0  0  2  0  0  0  0  0  0
  186.3420  178.5410  140.0300 C   0  0  0  0  0  2  0  0  0  0  0  0
  187.4060  178.3170  139.0650 N   0  0  0  0  0  2  0  0  0  0  0  0
  188.6710  178.5350  139.7500 C   0  0  1  0  0  3  0  0  0  0  0  0
  188.8130  177.6020  140.8040 O   0  0  0  0  0  0  0  0  0  0  0  0
  190.5790  177.3290  139.3340 C   0  0  1  0  0  3  0  0  0  0  0  0
  189.7440  178.3580  138.8310 O   0  0  0  0  0  0  0  0  0  0  0  0
  190.3740  175.9850  141.3430 O   0  0  0  0  0  0  0  0  0  0  0  0
  189.9440  176.8870  140.5760 C   0  0  0  0  0  0  0  0  0  0  0  0
  190.6310  176.1820  138.3380 C   0  0  0  0  0  2  0  0  0  0  0  0
  190.1810  176.6190  137.0920 O   0  0  0  0  0  1  0  0  0  0  0  0
  184.5170  179.3080  144.1190 C   0  0  0  0  0  2  0  0  0  0  0  0
  183.6820  179.0250  145.2740 N   0  0  0  0  0  2  0  0  0  0  0  0
  184.5460  178.8570  146.3620 N   0  0  0  0  0  2  0  0  0  0  0  0
  185.8620  178.5860  145.8090 C   0  0  0  0  0  2  0  0  0  0  0  0
  186.7730  178.2010  146.8760 N   0  0  0  0  0  2  0  0  0  0  0  0
  187.7670  177.3960  146.3000 N   0  0  0  0  0  0  0  0  0  0  0  0
  189.0450  178.0530  146.5600 C   0  0  0  0  0  2  0  0  0  0  0  0
  190.1080  177.2550  146.0870 O   0  0  0  0  0  0  0  0  0  0  0  0
  187.5540  177.4330  144.8580 C   0  0  0  0  0  2  0  0  0  0  0  0
  190.0380  177.1590  144.6750 C   0  0  1  0  0  3  0  0  0  0  0  0
  188.6750  176.6800  144.1540 C   0  0  0  0  0  2  0  0  0  0  0  0
  190.6130  178.3780  143.9450 C   0  0  0  0  0  2  0  0  0  0  0  0
  191.9350  178.7300  144.4410 N   0  0  0  0  0  1  0  0  0  0  0  0
  1  7  1  0  0  0  0
  1 26  1  0  0  0  0
  2 15  1  6  0  0  0
  2  3  1  0  0  0  0
  3  1  2  0  0  0  0
  4  9  1  1  0  0  0
  4  7  1  0  0  0  0
  5  2  1  0  0  0  0
  5  6  1  0  0  0  0
  6  4  1  0  0  0  0
  9  8  2  0  0  0  0
 10  9  1  0  0  0  0
 11 10  1  0  0  0  0
 12 11  1  0  0  0  0
 13 14  1  0  0  0  0
 14 12  1  0  0  0  0
 15 16  1  0  0  0  0
 17 16  1  0  0  0  0
 18 17  1  6  0  0  0
 18 19  1  0  0  0  0
 20 24  1  6  0  0  0
 20 23  1  0  0  0  0
 21 20  1  0  0  0  0
 21 18  1  0  0  0  0
 23 19  1  0  0  0  0
 23 22  2  0  0  0  0
 25 24  1  0  0  0  0
 26 27  1  0  0  0  0
 27 28  1  0  0  0  0
 29 28  1  0  0  0  0
 29 30  1  0  0  0  0
 31 32  1  0  0  0  0
 31 30  1  0  0  0  0
 33 32  1  0  0  0  0
 34 31  1  0  0  0  0
 35 37  1  6  0  0  0
 35 33  1  0  0  0  0
 36 35  1  0  0  0  0
 36 34  1  0  0  0  0
 37 38  1  0  0  0  0
M  END
>  <MODEL>
9

>  <REMARK>
 VINA RESULT:      -6.9      2.719      8.418
  Name = 
  16 active torsions:
  status: ('A' for Active; 'I' for Inactive)
    1  A    between atoms: C_1  and  C_8
    2  A    between atoms: C_1  and  C_34
    3  A    between atoms: C_2  and  C_21
    4  A    between atoms: N_3  and  N_4
    5  A    between atoms: N_4  and  C_14
    6  A    between atoms: C_6  and  N_7
    7  A    between atoms: N_7  and  C_34
    8  A    between atoms: N_11  and  C_14
    9  A    between atoms: N_11  and  N_28
   10  A    between atoms: C_12  and  C_25
   11  A    between atoms: C_16  and  C_27
   12  A    between atoms: C_18  and  C_26
   13  A    between atoms: C_19  and  C_20
   14  A    between atoms: C_19  and  C_22
   15  A    between atoms: C_21  and  N_28
   16  A    between atoms: C_22  and  N_38
                            x       y       z     vdW  Elec       q    Type
                         _______ _______ _______ _____ _____    ______ ____

>  <TORSDO>
F 16

$$$$
