=
 OpenBabel11042412313D

 31 34  0  0  1  0  0  0  0  0999 V2000
  190.0790  177.6640  142.3410 C   0  0  1  0  0  3  0  0  0  0  0  0
  191.7820  177.8130  141.8230 Cl  0  0  0  0  0  0  0  0  0  0  0  0
  188.1140  177.4170  139.1240 C   0  0  0  0  0  0  0  0  0  0  0  0
  187.8750  177.1570  137.8430 C   0  0  0  0  0  3  0  0  0  0  0  0
  185.5940  178.0250  137.6210 N   0  0  0  0  0  0  0  0  0  0  0  0
  186.2360  178.8370  139.8160 N   0  0  0  0  0  0  0  0  0  0  0  0
  189.2450  176.8660  139.9330 C   0  0  2  0  0  3  0  0  0  0  0  0
  189.1690  177.7610  141.1510 C   0  0  0  0  0  0  0  0  0  0  0  0
  187.4660  178.4320  139.9330 C   0  0  0  0  0  0  0  0  0  0  0  0
  188.1920  178.6130  141.1340 N   0  0  0  0  0  0  0  0  0  0  0  0
  185.2820  178.4490  138.8100 C   0  0  0  0  0  3  0  0  0  0  0  0
  186.9300  177.9910  137.0450 C   0  0  2  0  0  3  0  0  0  0  0  0
  186.8040  177.0700  134.5940 N   0  0  0  0  0  0  0  0  0  0  0  0
  186.8600  177.4760  135.6760 C   0  0  0  0  0  0  0  0  0  0  0  0
  191.1500  175.8190  138.9370 O   0  0  0  0  0  1  0  0  0  0  0  0
  190.5790  177.0590  139.2220 C   0  0  0  0  0  2  0  0  0  0  0  0
  190.0390  178.2840  145.5100 C   0  0  0  0  0  2  0  0  0  0  0  0
  188.0040  177.1090  144.8310 N   0  0  0  0  0  0  0  0  0  0  0  0
  192.0070  177.0580  146.2700 N   0  0  0  0  0  1  0  0  0  0  0  0
  188.4540  176.2910  143.7370 C   0  0  0  0  0  0  0  0  0  0  0  0
  188.8660  177.4290  145.9620 C   0  0  0  0  0  2  0  0  0  0  0  0
  191.2450  177.4390  145.0950 C   0  0  1  0  0  3  0  0  0  0  0  0
  190.9050  176.1850  144.2760 C   0  0  0  0  0  2  0  0  0  0  0  0
  189.8510  176.3940  143.1820 C   0  0  2  0  0  3  0  0  0  0  0  0
  187.6450  175.5070  143.1710 O   0  0  0  0  0  0  0  0  0  0  0  0
  186.5990  177.4780  144.9330 C   0  0  0  0  0  2  0  0  0  0  0  0
  186.1390  178.1310  143.6430 C   0  0  0  0  0  2  0  0  0  0  0  0
  184.3300  178.7500  145.2020 C   0  0  0  0  0  2  0  0  0  0  0  0
  182.7060  179.5060  143.5770 N   0  0  0  0  0  1  0  0  0  0  0  0
  185.0680  179.1560  143.9460 C   0  0  2  0  0  3  0  0  0  0  0  0
  183.7090  178.4930  143.8460 C   0  0  1  0  0  3  0  0  0  0  0  0
  1  2  1  6  0  0  0
  3  7  1  0  0  0  0
  3  9  1  0  0  0  0
  4  3  2  0  0  0  0
  5 11  2  0  0  0  0
  6  9  2  0  0  0  0
  7 16  1  6  0  0  0
  7  8  1  0  0  0  0
  8  1  1  0  0  0  0
  9 10  1  0  0  0  0
 10  8  2  0  0  0  0
 11  6  1  0  0  0  0
 12 14  1  6  0  0  0
 12  5  1  0  0  0  0
 12  4  1  0  0  0  0
 13 14  3  0  0  0  0
 15 16  1  0  0  0  0
 17 21  1  0  0  0  0
 18 26  1  0  0  0  0
 18 21  1  0  0  0  0
 20 18  1  0  0  0  0
 22 17  1  0  0  0  0
 22 19  1  1  0  0  0
 23 22  1  0  0  0  0
 24  1  1  1  0  0  0
 24 20  1  0  0  0  0
 24 23  1  0  0  0  0
 25 20  2  0  0  0  0
 27 26  1  0  0  0  0
 30 27  1  6  0  0  0
 30 28  1  0  0  0  0
 31 29  1  1  0  0  0
 31 30  1  0  0  0  0
 31 28  1  0  0  0  0
M  END
>  <MODEL>
1

>  <REMARK>
 VINA RESULT:      -7.7      0.000      0.000
  Name = 
  7 active torsions:
  status: ('A' for Active; 'I' for Inactive)
    1  A    between atoms: C_3  and  C_18
    2  A    between atoms: C_3  and  C_24
    3  A    between atoms: N_4  and  C_30
    4  A    between atoms: C_5  and  C_29
    5  A    between atoms: C_13  and  C_19
    6  A    between atoms: C_26  and  C_27
    7  A    between atoms: C_27  and  C_30
                            x       y       z     vdW  Elec       q    Type
                         _______ _______ _______ _____ _____    ______ ____

>  <TORSDO>
F 7

$$$$
=
 OpenBabel11042412313D

 31 34  0  0  1  0  0  0  0  0999 V2000
  190.6780  177.3920  142.1880 C   0  0  1  0  0  3  0  0  0  0  0  0
  192.4250  177.7550  142.2690 Cl  0  0  0  0  0  0  0  0  0  0  0  0
  189.2890  177.4870  138.6760 C   0  0  0  0  0  0  0  0  0  0  0  0
  188.4300  177.7530  137.6980 C   0  0  0  0  0  3  0  0  0  0  0  0
  189.5140  176.6100  135.8190 N   0  0  0  0  0  0  0  0  0  0  0  0
  190.8100  175.8200  137.7130 N   0  0  0  0  0  0  0  0  0  0  0  0
  189.3230  178.1510  140.0160 C   0  0  2  0  0  3  0  0  0  0  0  0
  190.2540  177.2170  140.7590 C   0  0  0  0  0  0  0  0  0  0  0  0
  190.2180  176.3730  138.7290 C   0  0  0  0  0  0  0  0  0  0  0  0
  190.7330  176.2490  140.0420 N   0  0  0  0  0  0  0  0  0  0  0  0
  190.6080  176.1140  136.3180 C   0  0  0  0  0  3  0  0  0  0  0  0
  188.2660  176.8300  136.5370 C   0  0  2  0  0  3  0  0  0  0  0  0
  186.4710  177.8020  134.8930 N   0  0  0  0  0  0  0  0  0  0  0  0
  187.2630  177.3730  135.6190 C   0  0  0  0  0  0  0  0  0  0  0  0
  187.7940  179.2890  141.4610 O   0  0  0  0  0  1  0  0  0  0  0  0
  187.9470  178.1500  140.6690 C   0  0  0  0  0  2  0  0  0  0  0  0
  190.2010  178.2680  145.2600 C   0  0  0  0  0  2  0  0  0  0  0  0
  188.2590  177.0620  144.3910 N   0  0  0  0  0  0  0  0  0  0  0  0
  192.0150  177.0880  146.3890 N   0  0  0  0  0  1  0  0  0  0  0  0
  188.8420  176.1530  143.4410 C   0  0  0  0  0  0  0  0  0  0  0  0
  188.9580  177.4640  145.6050 C   0  0  0  0  0  2  0  0  0  0  0  0
  191.4360  177.3800  145.0910 C   0  0  1  0  0  3  0  0  0  0  0  0
  191.1890  176.0670  144.3330 C   0  0  0  0  0  2  0  0  0  0  0  0
  190.3060  176.1970  143.0850 C   0  0  2  0  0  3  0  0  0  0  0  0
  188.1050  175.3340  142.8280 O   0  0  0  0  0  0  0  0  0  0  0  0
  186.8620  177.4510  144.2610 C   0  0  0  0  0  2  0  0  0  0  0  0
  186.3040  177.8400  145.6180 C   0  0  0  0  0  2  0  0  0  0  0  0
  184.0720  178.7500  146.1480 C   0  0  0  0  0  2  0  0  0  0  0  0
  183.6160  179.8240  144.0300 N   0  0  0  0  0  1  0  0  0  0  0  0
  185.3920  179.0390  145.4680 C   0  0  2  0  0  3  0  0  0  0  0  0
  184.1860  178.6380  144.6430 C   0  0  1  0  0  3  0  0  0  0  0  0
  1  2  1  6  0  0  0
  3  9  1  0  0  0  0
  3  7  1  0  0  0  0
  4  3  2  0  0  0  0
  5 11  2  0  0  0  0
  5 12  1  0  0  0  0
  6  9  2  0  0  0  0
  7 16  1  1  0  0  0
  7  8  1  0  0  0  0
  8  1  1  0  0  0  0
  9 10  1  0  0  0  0
 10  8  2  0  0  0  0
 11  6  1  0  0  0  0
 12 14  1  6  0  0  0
 12  4  1  0  0  0  0
 13 14  3  0  0  0  0
 16 15  1  0  0  0  0
 17 21  1  0  0  0  0
 18 21  1  0  0  0  0
 20 18  1  0  0  0  0
 22 17  1  0  0  0  0
 22 19  1  1  0  0  0
 23 22  1  0  0  0  0
 24  1  1  1  0  0  0
 24 20  1  0  0  0  0
 24 23  1  0  0  0  0
 25 20  2  0  0  0  0
 26 18  1  0  0  0  0
 26 27  1  0  0  0  0
 30 27  1  1  0  0  0
 30 28  1  0  0  0  0
 31 29  1  6  0  0  0
 31 30  1  0  0  0  0
 31 28  1  0  0  0  0
M  END
>  <MODEL>
2

>  <REMARK>
 VINA RESULT:      -7.2      1.804      2.435
  Name = 
  7 active torsions:
  status: ('A' for Active; 'I' for Inactive)
    1  A    between atoms: C_3  and  C_18
    2  A    between atoms: C_3  and  C_24
    3  A    between atoms: N_4  and  C_30
    4  A    between atoms: C_5  and  C_29
    5  A    between atoms: C_13  and  C_19
    6  A    between atoms: C_26  and  C_27
    7  A    between atoms: C_27  and  C_30
                            x       y       z     vdW  Elec       q    Type
                         _______ _______ _______ _____ _____    ______ ____

>  <TORSDO>
F 7

$$$$
=
 OpenBabel11042412313D

 31 34  0  0  1  0  0  0  0  0999 V2000
  187.6460  177.5890  144.3880 C   0  0  1  0  0  3  0  0  0  0  0  0
  187.6420  177.6160  146.1740 Cl  0  0  0  0  0  0  0  0  0  0  0  0
  184.1340  178.7260  143.5890 C   0  0  0  0  0  0  0  0  0  0  0  0
  182.8900  179.1350  143.8150 C   0  0  0  0  0  3  0  0  0  0  0  0
  181.9960  179.1540  141.5330 N   0  0  0  0  0  0  0  0  0  0  0  0
  184.1250  178.0280  141.2370 N   0  0  0  0  0  0  0  0  0  0  0  0
  185.2650  178.7840  144.5650 C   0  0  2  0  0  3  0  0  0  0  0  0
  186.2740  177.9000  143.8650 C   0  0  0  0  0  0  0  0  0  0  0  0
  184.5950  177.9580  142.4470 C   0  0  0  0  0  0  0  0  0  0  0  0
  185.8910  177.4540  142.7100 N   0  0  0  0  0  0  0  0  0  0  0  0
  182.9950  178.7930  140.7820 C   0  0  0  0  0  3  0  0  0  0  0  0
  181.7680  178.7450  142.9110 C   0  0  2  0  0  3  0  0  0  0  0  0
  179.5340  179.8040  143.7810 N   0  0  0  0  0  0  0  0  0  0  0  0
  180.5210  179.3370  143.3970 C   0  0  0  0  0  0  0  0  0  0  0  0
  184.9560  179.1380  146.9110 O   0  0  0  0  0  1  0  0  0  0  0  0
  184.8720  178.1740  145.9050 C   0  0  0  0  0  2  0  0  0  0  0  0
  190.4340  176.0260  143.9220 C   0  0  0  0  0  2  0  0  0  0  0  0
  189.6970  177.1160  141.8610 N   0  0  0  0  0  0  0  0  0  0  0  0
  191.9030  177.1720  145.4980 N   0  0  0  0  0  1  0  0  0  0  0  0
  188.9950  178.2760  142.3430 C   0  0  0  0  0  0  0  0  0  0  0  0
  190.8490  176.5630  142.5630 C   0  0  0  0  0  2  0  0  0  0  0  0
  190.5350  177.0870  145.0200 C   0  0  1  0  0  3  0  0  0  0  0  0
  190.0470  178.4860  144.6140 C   0  0  0  0  0  2  0  0  0  0  0  0
  188.7410  178.5060  143.8100 C   0  0  2  0  0  3  0  0  0  0  0  0
  188.5140  179.0990  141.5190 O   0  0  0  0  0  0  0  0  0  0  0  0
  189.3940  176.5790  140.5420 C   0  0  0  0  0  2  0  0  0  0  0  0
  189.9260  177.5100  139.4680 C   0  0  0  0  0  2  0  0  0  0  0  0
  189.6500  177.6920  137.0220 C   0  0  0  0  0  2  0  0  0  0  0  0
  187.8540  179.3110  136.9890 N   0  0  0  0  0  1  0  0  0  0  0  0
  188.9180  177.6170  138.3440 C   0  0  2  0  0  3  0  0  0  0  0  0
  189.0950  178.9520  137.6500 C   0  0  1  0  0  3  0  0  0  0  0  0
  1  2  1  1  0  0  0
  3  4  2  0  0  0  0
  3  7  1  0  0  0  0
  5 12  1  0  0  0  0
  6  9  2  0  0  0  0
  7 16  1  1  0  0  0
  8  1  1  0  0  0  0
  8  7  1  0  0  0  0
  9 10  1  0  0  0  0
  9  3  1  0  0  0  0
 10  8  2  0  0  0  0
 11  6  1  0  0  0  0
 11  5  2  0  0  0  0
 12 14  1  1  0  0  0
 12  4  1  0  0  0  0
 14 13  3  0  0  0  0
 16 15  1  0  0  0  0
 17 22  1  0  0  0  0
 18 20  1  0  0  0  0
 18 21  1  0  0  0  0
 20 24  1  0  0  0  0
 21 17  1  0  0  0  0
 22 19  1  6  0  0  0
 23 22  1  0  0  0  0
 24  1  1  1  0  0  0
 24 23  1  0  0  0  0
 25 20  2  0  0  0  0
 26 18  1  0  0  0  0
 27 26  1  0  0  0  0
 28 31  1  0  0  0  0
 28 30  1  0  0  0  0
 30 27  1  1  0  0  0
 31 29  1  6  0  0  0
 31 30  1  0  0  0  0
M  END
>  <MODEL>
3

>  <REMARK>
 VINA RESULT:      -7.0      2.438      6.196
  Name = 
  7 active torsions:
  status: ('A' for Active; 'I' for Inactive)
    1  A    between atoms: C_3  and  C_18
    2  A    between atoms: C_3  and  C_24
    3  A    between atoms: N_4  and  C_30
    4  A    between atoms: C_5  and  C_29
    5  A    between atoms: C_13  and  C_19
    6  A    between atoms: C_26  and  C_27
    7  A    between atoms: C_27  and  C_30
                            x       y       z     vdW  Elec       q    Type
                         _______ _______ _______ _____ _____    ______ ____

>  <TORSDO>
F 7

$$$$
=
 OpenBabel11042412313D

 31 34  0  0  1  0  0  0  0  0999 V2000
  189.3630  177.9690  144.7390 C   0  0  1  0  0  3  0  0  0  0  0  0
  190.9780  178.0230  145.4990 Cl  0  0  0  0  0  0  0  0  0  0  0  0
  189.9930  177.1080  141.1150 C   0  0  0  0  0  0  0  0  0  0  0  0
  190.6100  176.5780  140.0640 C   0  0  0  0  0  3  0  0  0  0  0  0
  189.2610  177.4970  138.2350 N   0  0  0  0  0  0  0  0  0  0  0  0
  188.4470  178.7490  140.1480 N   0  0  0  0  0  0  0  0  0  0  0  0
  190.1800  176.6930  142.5400 C   0  0  2  0  0  3  0  0  0  0  0  0
  189.4990  177.8440  143.2490 C   0  0  0  0  0  0  0  0  0  0  0  0
  189.1870  178.3140  141.1240 C   0  0  0  0  0  0  0  0  0  0  0  0
  188.9630  178.7230  142.4610 N   0  0  0  0  0  0  0  0  0  0  0  0
  188.3360  178.1970  138.8240 C   0  0  0  0  0  3  0  0  0  0  0  0
  190.6080  177.2600  138.7370 C   0  0  2  0  0  3  0  0  0  0  0  0
  191.9470  175.8160  137.0080 N   0  0  0  0  0  0  0  0  0  0  0  0
  191.3550  176.4530  137.7710 C   0  0  0  0  0  0  0  0  0  0  0  0
  191.9090  175.5360  143.7200 O   0  0  0  0  0  1  0  0  0  0  0  0
  191.6570  176.6470  142.9140 C   0  0  0  0  0  2  0  0  0  0  0  0
  187.2810  179.1630  146.8990 C   0  0  0  0  0  2  0  0  0  0  0  0
  186.1070  177.8690  145.1890 N   0  0  0  0  0  0  0  0  0  0  0  0
  188.0620  178.1130  148.9590 N   0  0  0  0  0  1  0  0  0  0  0  0
  187.0720  176.8660  144.8250 C   0  0  0  0  0  0  0  0  0  0  0  0
  186.0170  178.3980  146.5440 C   0  0  0  0  0  2  0  0  0  0  0  0
  188.3390  178.2660  147.5430 C   0  0  1  0  0  3  0  0  0  0  0  0
  188.4890  176.8790  146.8980 C   0  0  0  0  0  2  0  0  0  0  0  0
  188.4780  176.8740  145.3650 C   0  0  2  0  0  3  0  0  0  0  0  0
  186.7650  175.9850  143.9760 O   0  0  0  0  0  0  0  0  0  0  0  0
  185.0550  178.2400  144.2520 C   0  0  0  0  0  2  0  0  0  0  0  0
  185.6120  178.2910  142.8410 C   0  0  0  0  0  2  0  0  0  0  0  0
  183.7000  178.2200  141.2820 C   0  0  0  0  0  2  0  0  0  0  0  0
  184.5070  179.8230  139.6610 N   0  0  0  0  0  1  0  0  0  0  0  0
  184.7010  179.1250  141.9660 C   0  0  2  0  0  3  0  0  0  0  0  0
  184.9060  178.7230  140.5190 C   0  0  1  0  0  3  0  0  0  0  0  0
  1  2  1  1  0  0  0
  3  9  1  0  0  0  0
  3  7  1  0  0  0  0
  4  3  2  0  0  0  0
  5 12  1  0  0  0  0
  5 11  2  0  0  0  0
  6  9  2  0  0  0  0
  7 16  1  1  0  0  0
  7  8  1  0  0  0  0
  8  1  1  0  0  0  0
  9 10  1  0  0  0  0
 10  8  2  0  0  0  0
 11  6  1  0  0  0  0
 12 14  1  6  0  0  0
 12  4  1  0  0  0  0
 13 14  3  0  0  0  0
 16 15  1  0  0  0  0
 17 22  1  0  0  0  0
 18 21  1  0  0  0  0
 20 18  1  0  0  0  0
 20 24  1  0  0  0  0
 21 17  1  0  0  0  0
 22 19  1  1  0  0  0
 23 22  1  0  0  0  0
 24  1  1  6  0  0  0
 24 23  1  0  0  0  0
 25 20  2  0  0  0  0
 26 18  1  0  0  0  0
 27 26  1  0  0  0  0
 28 30  1  0  0  0  0
 30 27  1  1  0  0  0
 31 29  1  6  0  0  0
 31 28  1  0  0  0  0
 31 30  1  0  0  0  0
M  END
>  <MODEL>
4

>  <REMARK>
 VINA RESULT:      -7.0      2.310      3.347
  Name = 
  7 active torsions:
  status: ('A' for Active; 'I' for Inactive)
    1  A    between atoms: C_3  and  C_18
    2  A    between atoms: C_3  and  C_24
    3  A    between atoms: N_4  and  C_30
    4  A    between atoms: C_5  and  C_29
    5  A    between atoms: C_13  and  C_19
    6  A    between atoms: C_26  and  C_27
    7  A    between atoms: C_27  and  C_30
                            x       y       z     vdW  Elec       q    Type
                         _______ _______ _______ _____ _____    ______ ____

>  <TORSDO>
F 7

$$$$
=
 OpenBabel11042412313D

 31 34  0  0  1  0  0  0  0  0999 V2000
  187.1550  178.5210  142.5500 C   0  0  1  0  0  3  0  0  0  0  0  0
  187.8410  179.1570  141.0280 Cl  0  0  0  0  0  0  0  0  0  0  0  0
  183.4320  178.9990  142.9690 C   0  0  0  0  0  0  0  0  0  0  0  0
  182.2740  179.1650  143.6000 C   0  0  0  0  0  3  0  0  0  0  0  0
  180.7100  179.0600  141.7160 N   0  0  0  0  0  0  0  0  0  0  0  0
  182.7930  178.3560  140.6890 N   0  0  0  0  0  0  0  0  0  0  0  0
  184.7880  179.2480  143.5480 C   0  0  2  0  0  3  0  0  0  0  0  0
  185.6560  178.5800  142.5040 C   0  0  0  0  0  0  0  0  0  0  0  0
  183.6290  178.3520  141.6850 C   0  0  0  0  0  0  0  0  0  0  0  0
  185.0070  178.0930  141.4930 N   0  0  0  0  0  0  0  0  0  0  0  0
  181.4630  178.9060  140.6670 C   0  0  0  0  0  3  0  0  0  0  0  0
  181.0070  178.5900  143.0610 C   0  0  2  0  0  3  0  0  0  0  0  0
  179.0210  179.2000  144.6590 N   0  0  0  0  0  0  0  0  0  0  0  0
  179.8980  178.9300  143.9540 C   0  0  0  0  0  0  0  0  0  0  0  0
  185.6250  179.3860  145.7840 O   0  0  0  0  0  1  0  0  0  0  0  0
  184.9520  178.5500  144.8920 C   0  0  0  0  0  2  0  0  0  0  0  0
  190.3510  178.5250  143.0170 C   0  0  0  0  0  2  0  0  0  0  0  0
  189.1970  177.5320  144.9300 N   0  0  0  0  0  0  0  0  0  0  0  0
  191.1160  177.1470  141.1530 N   0  0  0  0  0  1  0  0  0  0  0  0
  188.0360  176.9310  144.3300 C   0  0  0  0  0  0  0  0  0  0  0  0
  190.4720  177.6170  144.2300 C   0  0  0  0  0  2  0  0  0  0  0  0
  189.9460  177.7570  141.7570 C   0  0  1  0  0  3  0  0  0  0  0  0
  188.8640  176.6870  141.9720 C   0  0  0  0  0  2  0  0  0  0  0  0
  187.7010  177.1170  142.8730 C   0  0  2  0  0  3  0  0  0  0  0  0
  187.2290  176.2810  145.0490 O   0  0  0  0  0  0  0  0  0  0  0  0
  189.1810  177.8950  146.3410 C   0  0  0  0  0  2  0  0  0  0  0  0
  189.7630  176.7670  147.1730 C   0  0  0  0  0  2  0  0  0  0  0  0
  191.9580  175.9270  146.4230 C   0  0  0  0  0  2  0  0  0  0  0  0
  193.1210  176.0370  148.5400 N   0  0  0  0  0  1  0  0  0  0  0  0
  191.2610  176.9460  147.2960 C   0  0  2  0  0  3  0  0  0  0  0  0
  191.8560  175.6980  147.9150 C   0  0  1  0  0  3  0  0  0  0  0  0
  1  2  1  6  0  0  0
  3  7  1  0  0  0  0
  3  4  2  0  0  0  0
  5 12  1  0  0  0  0
  6  9  2  0  0  0  0
  7 16  1  1  0  0  0
  8  1  1  0  0  0  0
  8  7  1  0  0  0  0
  9  3  1  0  0  0  0
 10  9  1  0  0  0  0
 10  8  2  0  0  0  0
 11  6  1  0  0  0  0
 11  5  2  0  0  0  0
 12  4  1  0  0  0  0
 12 14  1  1  0  0  0
 14 13  3  0  0  0  0
 16 15  1  0  0  0  0
 17 21  1  0  0  0  0
 18 26  1  0  0  0  0
 20 18  1  0  0  0  0
 20 25  2  0  0  0  0
 21 18  1  0  0  0  0
 22 19  1  1  0  0  0
 22 23  1  0  0  0  0
 22 17  1  0  0  0  0
 23 24  1  0  0  0  0
 24  1  1  1  0  0  0
 24 20  1  0  0  0  0
 26 27  1  0  0  0  0
 28 30  1  0  0  0  0
 28 31  1  0  0  0  0
 30 27  1  6  0  0  0
 30 31  1  0  0  0  0
 31 29  1  1  0  0  0
M  END
>  <MODEL>
5

>  <REMARK>
 VINA RESULT:      -6.8      3.225      6.403
  Name = 
  7 active torsions:
  status: ('A' for Active; 'I' for Inactive)
    1  A    between atoms: C_3  and  C_18
    2  A    between atoms: C_3  and  C_24
    3  A    between atoms: N_4  and  C_30
    4  A    between atoms: C_5  and  C_29
    5  A    between atoms: C_13  and  C_19
    6  A    between atoms: C_26  and  C_27
    7  A    between atoms: C_27  and  C_30
                            x       y       z     vdW  Elec       q    Type
                         _______ _______ _______ _____ _____    ______ ____

>  <TORSDO>
F 7

$$$$
=
 OpenBabel11042412313D

 31 34  0  0  1  0  0  0  0  0999 V2000
  187.8020  177.5250  144.5090 C   0  0  1  0  0  3  0  0  0  0  0  0
  187.7700  177.4830  146.2940 Cl  0  0  0  0  0  0  0  0  0  0  0  0
  184.2830  178.6280  143.6930 C   0  0  0  0  0  0  0  0  0  0  0  0
  183.0300  179.0130  143.9130 C   0  0  0  0  0  3  0  0  0  0  0  0
  182.1640  179.0710  141.6200 N   0  0  0  0  0  0  0  0  0  0  0  0
  184.3130  177.9830  141.3250 N   0  0  0  0  0  0  0  0  0  0  0  0
  185.4010  178.6810  144.6840 C   0  0  2  0  0  3  0  0  0  0  0  0
  186.4320  177.8270  143.9770 C   0  0  0  0  0  0  0  0  0  0  0  0
  184.7690  177.8940  142.5390 C   0  0  0  0  0  0  0  0  0  0  0  0
  186.0690  177.4030  142.8060 N   0  0  0  0  0  0  0  0  0  0  0  0
  183.1770  178.7420  140.8740 C   0  0  0  0  0  3  0  0  0  0  0  0
  181.9250  178.6280  142.9870 C   0  0  2  0  0  3  0  0  0  0  0  0
  179.6650  179.6350  143.8510 N   0  0  0  0  0  0  0  0  0  0  0  0
  180.6630  179.1910  143.4700 C   0  0  0  0  0  0  0  0  0  0  0  0
  184.9310  179.0030  147.0070 O   0  0  0  0  0  1  0  0  0  0  0  0
  185.0010  178.0340  146.0050 C   0  0  0  0  0  2  0  0  0  0  0  0
  190.6200  176.0310  144.0000 C   0  0  0  0  0  2  0  0  0  0  0  0
  189.8830  177.2020  141.9830 N   0  0  0  0  0  0  0  0  0  0  0  0
  192.0550  177.1290  145.6400 N   0  0  0  0  0  1  0  0  0  0  0  0
  189.1570  178.3270  142.5100 C   0  0  0  0  0  0  0  0  0  0  0  0
  191.0380  176.6370  142.6700 C   0  0  0  0  0  2  0  0  0  0  0  0
  190.6940  177.0430  145.1460 C   0  0  1  0  0  3  0  0  0  0  0  0
  190.1850  178.4500  144.7990 C   0  0  0  0  0  2  0  0  0  0  0  0
  188.8860  178.4850  143.9840 C   0  0  2  0  0  3  0  0  0  0  0  0
  188.6690  179.1790  141.7200 O   0  0  0  0  0  0  0  0  0  0  0  0
  189.6010  176.7210  140.6380 C   0  0  0  0  0  2  0  0  0  0  0  0
  190.7020  177.1590  139.6890 C   0  0  0  0  0  2  0  0  0  0  0  0
  192.2740  176.3070  137.9880 C   0  0  0  0  0  2  0  0  0  0  0  0
  190.6660  175.7530  136.2680 N   0  0  0  0  0  1  0  0  0  0  0  0
  190.9300  176.0850  138.6460 C   0  0  2  0  0  3  0  0  0  0  0  0
  191.0070  176.7360  137.2800 C   0  0  1  0  0  3  0  0  0  0  0  0
  1  2  1  1  0  0  0
  3  4  2  0  0  0  0
  3  7  1  0  0  0  0
  5 12  1  0  0  0  0
  6  9  2  0  0  0  0
  7 16  1  1  0  0  0
  8  1  1  0  0  0  0
  8  7  1  0  0  0  0
  9 10  1  0  0  0  0
  9  3  1  0  0  0  0
 10  8  2  0  0  0  0
 11  6  1  0  0  0  0
 11  5  2  0  0  0  0
 12 14  1  1  0  0  0
 12  4  1  0  0  0  0
 14 13  3  0  0  0  0
 16 15  1  0  0  0  0
 17 22  1  0  0  0  0
 18 20  1  0  0  0  0
 18 21  1  0  0  0  0
 20 24  1  0  0  0  0
 21 17  1  0  0  0  0
 22 19  1  6  0  0  0
 23 22  1  0  0  0  0
 24  1  1  1  0  0  0
 24 23  1  0  0  0  0
 25 20  2  0  0  0  0
 26 18  1  0  0  0  0
 27 26  1  0  0  0  0
 28 30  1  0  0  0  0
 30 27  1  1  0  0  0
 31 29  1  6  0  0  0
 31 28  1  0  0  0  0
 31 30  1  0  0  0  0
M  END
>  <MODEL>
6

>  <REMARK>
 VINA RESULT:      -6.8      2.691      6.546
  Name = 
  7 active torsions:
  status: ('A' for Active; 'I' for Inactive)
    1  A    between atoms: C_3  and  C_18
    2  A    between atoms: C_3  and  C_24
    3  A    between atoms: N_4  and  C_30
    4  A    between atoms: C_5  and  C_29
    5  A    between atoms: C_13  and  C_19
    6  A    between atoms: C_26  and  C_27
    7  A    between atoms: C_27  and  C_30
                            x       y       z     vdW  Elec       q    Type
                         _______ _______ _______ _____ _____    ______ ____

>  <TORSDO>
F 7

$$$$
=
 OpenBabel11042412313D

 31 34  0  0  1  0  0  0  0  0999 V2000
  182.8050  178.9010  138.6740 C   0  0  1  0  0  3  0  0  0  0  0  0
  181.9270  180.4520  138.5540 Cl  0  0  0  0  0  0  0  0  0  0  0  0
  184.1290  178.4650  142.1850 C   0  0  0  0  0  0  0  0  0  0  0  0
  184.1000  178.3850  143.5120 C   0  0  0  0  0  3  0  0  0  0  0  0
  186.4950  178.2080  144.0070 N   0  0  0  0  0  0  0  0  0  0  0  0
  186.5030  178.7700  141.6460 N   0  0  0  0  0  0  0  0  0  0  0  0
  182.9530  178.3100  141.2740 C   0  0  2  0  0  3  0  0  0  0  0  0
  183.5430  178.8260  139.9790 C   0  0  0  0  0  0  0  0  0  0  0  0
  185.2410  178.9220  141.3730 C   0  0  0  0  0  0  0  0  0  0  0  0
  184.7940  179.1590  140.0510 N   0  0  0  0  0  0  0  0  0  0  0  0
  187.0760  178.2150  142.8430 C   0  0  0  0  0  3  0  0  0  0  0  0
  185.2410  178.8690  144.3430 C   0  0  2  0  0  3  0  0  0  0  0  0
  184.7010  178.4850  146.8790 N   0  0  0  0  0  0  0  0  0  0  0  0
  184.9390  178.6530  145.7590 C   0  0  0  0  0  0  0  0  0  0  0  0
  180.6020  178.4670  141.6860 O   0  0  0  0  0  1  0  0  0  0  0  0
  181.7930  179.1950  141.7120 C   0  0  0  0  0  2  0  0  0  0  0  0
  182.8810  177.8870  135.6090 C   0  0  0  0  0  2  0  0  0  0  0  0
  183.3670  176.0460  137.1420 N   0  0  0  0  0  0  0  0  0  0  0  0
  180.5970  178.3550  134.8860 N   0  0  0  0  0  1  0  0  0  0  0  0
  182.6050  176.3900  138.3120 C   0  0  0  0  0  0  0  0  0  0  0  0
  182.9140  176.3800  135.7980 C   0  0  0  0  0  2  0  0  0  0  0  0
  181.5280  178.4900  135.9920 C   0  0  1  0  0  3  0  0  0  0  0  0
  180.8970  177.9060  137.2650 C   0  0  0  0  0  2  0  0  0  0  0  0
  181.8700  177.7010  138.4320 C   0  0  2  0  0  3  0  0  0  0  0  0
  182.5970  175.6100  139.3030 O   0  0  0  0  0  0  0  0  0  0  0  0
  184.5260  175.1720  137.2610 C   0  0  0  0  0  2  0  0  0  0  0  0
  185.7480  175.8450  136.6640 C   0  0  0  0  0  2  0  0  0  0  0  0
  186.5930  178.1490  136.4060 C   0  0  0  0  0  2  0  0  0  0  0  0
  187.8220  178.3090  138.4830 N   0  0  0  0  0  1  0  0  0  0  0  0
  186.0090  177.1520  137.3820 C   0  0  2  0  0  3  0  0  0  0  0  0
  187.5000  177.4250  137.3780 C   0  0  1  0  0  3  0  0  0  0  0  0
  1  2  1  1  0  0  0
  1  8  1  0  0  0  0
  3  4  2  0  0  0  0
  4 12  1  0  0  0  0
  5 12  1  0  0  0  0
  6 11  1  0  0  0  0
  7 16  1  1  0  0  0
  7  3  1  0  0  0  0
  8 10  2  0  0  0  0
  8  7  1  0  0  0  0
  9  6  2  0  0  0  0
  9  3  1  0  0  0  0
 10  9  1  0  0  0  0
 11  5  2  0  0  0  0
 12 14  1  1  0  0  0
 14 13  3  0  0  0  0
 15 16  1  0  0  0  0
 17 21  1  0  0  0  0
 17 22  1  0  0  0  0
 18 26  1  0  0  0  0
 18 20  1  0  0  0  0
 20 24  1  0  0  0  0
 20 25  2  0  0  0  0
 21 18  1  0  0  0  0
 22 19  1  6  0  0  0
 22 23  1  0  0  0  0
 23 24  1  0  0  0  0
 24  1  1  6  0  0  0
 27 26  1  0  0  0  0
 28 31  1  0  0  0  0
 28 30  1  0  0  0  0
 30 27  1  6  0  0  0
 31 30  1  0  0  0  0
 31 29  1  1  0  0  0
M  END
>  <MODEL>
7

>  <REMARK>
 VINA RESULT:      -6.7      3.890      8.933
  Name = 
  7 active torsions:
  status: ('A' for Active; 'I' for Inactive)
    1  A    between atoms: C_3  and  C_18
    2  A    between atoms: C_3  and  C_24
    3  A    between atoms: N_4  and  C_30
    4  A    between atoms: C_5  and  C_29
    5  A    between atoms: C_13  and  C_19
    6  A    between atoms: C_26  and  C_27
    7  A    between atoms: C_27  and  C_30
                            x       y       z     vdW  Elec       q    Type
                         _______ _______ _______ _____ _____    ______ ____

>  <TORSDO>
F 7

$$$$
=
 OpenBabel11042412313D

 31 34  0  0  1  0  0  0  0  0999 V2000
  188.2800  178.3350  141.3790 C   0  0  1  0  0  3  0  0  0  0  0  0
  188.4250  178.9450  139.7070 Cl  0  0  0  0  0  0  0  0  0  0  0  0
  184.5750  178.3760  142.1140 C   0  0  0  0  0  0  0  0  0  0  0  0
  183.2700  178.3420  141.8670 C   0  0  0  0  0  3  0  0  0  0  0  0
  182.3740  178.7820  144.1060 N   0  0  0  0  0  0  0  0  0  0  0  0
  184.7380  179.2380  144.4060 N   0  0  0  0  0  0  0  0  0  0  0  0
  185.6530  177.8990  141.1930 C   0  0  2  0  0  3  0  0  0  0  0  0
  186.8700  178.4950  141.8660 C   0  0  0  0  0  0  0  0  0  0  0  0
  185.2280  179.0610  143.2140 C   0  0  0  0  0  0  0  0  0  0  0  0
  186.6200  179.1300  142.9690 N   0  0  0  0  0  0  0  0  0  0  0  0
  183.4220  178.8880  144.8690 C   0  0  0  0  0  3  0  0  0  0  0  0
  182.3040  179.1240  142.6920 C   0  0  2  0  0  3  0  0  0  0  0  0
  179.8700  178.7140  141.8110 N   0  0  0  0  0  0  0  0  0  0  0  0
  180.9440  178.8960  142.2000 C   0  0  0  0  0  0  0  0  0  0  0  0
  185.0130  179.7960  139.8830 O   0  0  0  0  0  1  0  0  0  0  0  0
  185.4860  178.4860  139.7960 C   0  0  0  0  0  2  0  0  0  0  0  0
  191.3340  178.2340  142.4270 C   0  0  0  0  0  2  0  0  0  0  0  0
  189.8860  176.8660  143.8450 N   0  0  0  0  0  0  0  0  0  0  0  0
  192.4780  177.2740  140.4970 N   0  0  0  0  0  1  0  0  0  0  0  0
  188.8770  176.4060  142.9280 C   0  0  0  0  0  0  0  0  0  0  0  0
  191.2640  177.0920  143.4280 C   0  0  0  0  0  2  0  0  0  0  0  0
  191.1950  177.7470  140.9830 C   0  0  1  0  0  3  0  0  0  0  0  0
  190.1330  176.6580  140.7670 C   0  0  0  0  0  2  0  0  0  0  0  0
  188.8080  176.8930  141.5030 C   0  0  2  0  0  3  0  0  0  0  0  0
  187.9770  175.6230  143.3340 O   0  0  0  0  0  0  0  0  0  0  0  0
  189.5980  176.9260  145.2710 C   0  0  0  0  0  2  0  0  0  0  0  0
  188.4070  177.8340  145.5220 C   0  0  0  0  0  2  0  0  0  0  0  0
  186.7190  178.4790  147.2020 C   0  0  0  0  0  2  0  0  0  0  0  0
  187.8740  177.7010  149.1800 N   0  0  0  0  0  1  0  0  0  0  0  0
  187.6990  177.4030  146.7890 C   0  0  2  0  0  3  0  0  0  0  0  0
  188.0560  178.3660  147.9030 C   0  0  1  0  0  3  0  0  0  0  0  0
  1  2  1  6  0  0  0
  1  8  1  0  0  0  0
  3  9  1  0  0  0  0
  4  3  2  0  0  0  0
  4 12  1  0  0  0  0
  5 11  2  0  0  0  0
  6 11  1  0  0  0  0
  7 16  1  6  0  0  0
  7  8  1  0  0  0  0
  7  3  1  0  0  0  0
  8 10  2  0  0  0  0
  9  6  2  0  0  0  0
 10  9  1  0  0  0  0
 12 14  1  6  0  0  0
 12  5  1  0  0  0  0
 13 14  3  0  0  0  0
 16 15  1  0  0  0  0
 17 21  1  0  0  0  0
 18 26  1  0  0  0  0
 20 25  2  0  0  0  0
 20 18  1  0  0  0  0
 21 18  1  0  0  0  0
 22 19  1  1  0  0  0
 22 17  1  0  0  0  0
 23 22  1  0  0  0  0
 23 24  1  0  0  0  0
 24  1  1  1  0  0  0
 24 20  1  0  0  0  0
 26 27  1  0  0  0  0
 28 31  1  0  0  0  0
 30 27  1  6  0  0  0
 30 28  1  0  0  0  0
 30 31  1  0  0  0  0
 31 29  1  1  0  0  0
M  END
>  <MODEL>
8

>  <REMARK>
 VINA RESULT:      -6.7      2.853      5.090
  Name = 
  7 active torsions:
  status: ('A' for Active; 'I' for Inactive)
    1  A    between atoms: C_3  and  C_18
    2  A    between atoms: C_3  and  C_24
    3  A    between atoms: N_4  and  C_30
    4  A    between atoms: C_5  and  C_29
    5  A    between atoms: C_13  and  C_19
    6  A    between atoms: C_26  and  C_27
    7  A    between atoms: C_27  and  C_30
                            x       y       z     vdW  Elec       q    Type
                         _______ _______ _______ _____ _____    ______ ____

>  <TORSDO>
F 7

$$$$
=
 OpenBabel11042412313D

 31 34  0  0  1  0  0  0  0  0999 V2000
  183.2830  178.9930  141.7870 C   0  0  1  0  0  3  0  0  0  0  0  0
  182.5680  178.6280  143.3820 Cl  0  0  0  0  0  0  0  0  0  0  0  0
  186.8800  178.0040  142.3830 C   0  0  0  0  0  0  0  0  0  0  0  0
  187.9750  177.6950  143.0690 C   0  0  0  0  0  3  0  0  0  0  0  0
  189.6140  177.5210  141.2550 N   0  0  0  0  0  0  0  0  0  0  0  0
  187.6970  178.4820  140.1190 N   0  0  0  0  0  0  0  0  0  0  0  0
  185.4800  177.9670  142.9060 C   0  0  2  0  0  3  0  0  0  0  0  0
  184.7590  178.7200  141.8090 C   0  0  0  0  0  0  0  0  0  0  0  0
  186.8300  178.6340  141.0760 C   0  0  0  0  0  0  0  0  0  0  0  0
  185.5120  179.0800  140.8170 N   0  0  0  0  0  0  0  0  0  0  0  0
  188.9340  177.7490  140.1700 C   0  0  0  0  0  3  0  0  0  0  0  0
  189.3320  178.0680  142.5740 C   0  0  2  0  0  3  0  0  0  0  0  0
  191.1440  177.2320  144.2740 N   0  0  0  0  0  0  0  0  0  0  0  0
  190.3440  177.6000  143.5240 C   0  0  0  0  0  0  0  0  0  0  0  0
  185.6000  177.8540  145.2920 O   0  0  0  0  0  1  0  0  0  0  0  0
  185.3620  178.7210  144.2250 C   0  0  0  0  0  2  0  0  0  0  0  0
  180.2980  180.1370  141.3260 C   0  0  0  0  0  2  0  0  0  0  0  0
  181.5760  180.1840  139.2410 N   0  0  0  0  0  0  0  0  0  0  0  0
  178.9380  178.2010  141.9260 N   0  0  0  0  0  1  0  0  0  0  0  0
  182.4610  179.0590  139.3790 C   0  0  0  0  0  0  0  0  0  0  0  0
  180.2330  180.1860  139.8080 C   0  0  0  0  0  2  0  0  0  0  0  0
  180.2980  178.7030  141.8590 C   0  0  1  0  0  3  0  0  0  0  0  0
  181.1690  177.7180  141.0650 C   0  0  0  0  0  2  0  0  0  0  0  0
  182.5440  178.2570  140.6530 C   0  0  2  0  0  3  0  0  0  0  0  0
  183.2460  178.7640  138.4380 O   0  0  0  0  0  0  0  0  0  0  0  0
  181.9300  181.2830  138.3530 C   0  0  0  0  0  2  0  0  0  0  0  0
  180.7540  182.2310  138.2070 C   0  0  0  0  0  2  0  0  0  0  0  0
  181.4220  184.3790  137.1920 C   0  0  0  0  0  2  0  0  0  0  0  0
  179.6230  184.5870  135.5900 N   0  0  0  0  0  1  0  0  0  0  0  0
  180.8770  182.9970  136.9070 C   0  0  2  0  0  3  0  0  0  0  0  0
  179.9410  184.1880  136.9480 C   0  0  1  0  0  3  0  0  0  0  0  0
  1  8  1  0  0  0  0
  1  2  1  1  0  0  0
  3  7  1  0  0  0  0
  3  4  2  0  0  0  0
  5 12  1  0  0  0  0
  6 11  1  0  0  0  0
  6  9  2  0  0  0  0
  7 16  1  1  0  0  0
  8  7  1  0  0  0  0
  9  3  1  0  0  0  0
 10  9  1  0  0  0  0
 10  8  2  0  0  0  0
 11  5  2  0  0  0  0
 12  4  1  0  0  0  0
 12 14  1  1  0  0  0
 14 13  3  0  0  0  0
 16 15  1  0  0  0  0
 17 22  1  0  0  0  0
 18 20  1  0  0  0  0
 18 21  1  0  0  0  0
 20 24  1  0  0  0  0
 21 17  1  0  0  0  0
 22 19  1  6  0  0  0
 23 22  1  0  0  0  0
 24 23  1  0  0  0  0
 24  1  1  1  0  0  0
 25 20  2  0  0  0  0
 26 18  1  0  0  0  0
 27 26  1  0  0  0  0
 30 31  1  0  0  0  0
 30 28  1  0  0  0  0
 30 27  1  1  0  0  0
 31 29  1  6  0  0  0
 31 28  1  0  0  0  0
M  END
>  <MODEL>
9

>  <REMARK>
 VINA RESULT:      -6.5      4.487      8.215
  Name = 
  7 active torsions:
  status: ('A' for Active; 'I' for Inactive)
    1  A    between atoms: C_3  and  C_18
    2  A    between atoms: C_3  and  C_24
    3  A    between atoms: N_4  and  C_30
    4  A    between atoms: C_5  and  C_29
    5  A    between atoms: C_13  and  C_19
    6  A    between atoms: C_26  and  C_27
    7  A    between atoms: C_27  and  C_30
                            x       y       z     vdW  Elec       q    Type
                         _______ _______ _______ _____ _____    ______ ____

>  <TORSDO>
F 7

$$$$
