=
 OpenBabel11032420443D

 47 53  0  0  1  0  0  0  0  0999 V2000
  189.1620  177.2760  138.9500 F   0  0  0  0  0  0  0  0  0  0  0  0
  186.5790  178.0400  142.4250 C   0  0  1  0  0  3  0  0  0  0  0  0
  187.1630  178.2210  139.8650 C   0  0  0  0  0  0  0  0  0  0  0  0
  184.9110  179.0590  140.8240 C   0  0  1  0  0  3  0  0  0  0  0  0
  185.2620  178.5930  138.3960 C   0  0  0  0  0  3  0  0  0  0  0  0
  185.5690  179.1580  142.2020 C   0  0  0  0  0  2  0  0  0  0  0  0
  188.0320  178.4430  141.4260 S   0  0  0  0  0  0  0  0  0  0  0  0
  187.8770  177.6850  138.7800 C   0  0  0  0  0  0  0  0  0  0  0  0
  185.8220  178.6460  139.6820 C   0  0  0  0  0  0  0  0  0  0  0  0
  187.2870  177.6160  137.5100 C   0  0  0  0  0  0  0  0  0  0  0  0
  185.9910  178.0910  137.3190 C   0  0  0  0  0  3  0  0  0  0  0  0
  186.2800  177.8620  146.1770 N   0  0  0  0  0  0  0  0  0  0  0  0
  189.8200  177.1790  146.3260 C   0  0  0  0  0  2  0  0  0  0  0  0
  189.3110  177.1860  147.7520 C   0  0  0  0  0  3  0  0  0  0  0  0
  186.9720  177.9080  143.8650 C   0  0  0  0  0  0  0  0  0  0  0  0
  188.2950  177.6090  144.2520 C   0  0  0  0  0  3  0  0  0  0  0  0
  188.0350  177.4150  147.8500 N   0  0  0  0  0  0  0  0  0  0  0  0
  185.9710  178.0200  144.8560 C   0  0  0  0  0  3  0  0  0  0  0  0
  187.5600  177.5880  146.5310 C   0  0  0  0  0  0  0  0  0  0  0  0
  188.5540  177.4620  145.6100 C   0  0  0  0  0  0  0  0  0  0  0  0
  182.4880  178.6730  140.9250 C   0  0  0  0  0  3  0  0  0  0  0  0
  183.7150  178.1590  140.8980 C   0  0  0  0  0  3  0  0  0  0  0  0
  181.0610  177.5960  140.9970 S   0  0  0  0  0  0  0  0  0  0  0  0
  181.4620  176.3740  137.1690 N   0  0  0  0  0  0  0  0  0  0  0  0
  180.7350  175.2570  137.7710 C   0  0  0  0  0  2  0  0  0  0  0  0
  181.5130  177.4310  138.1950 C   0  0  2  0  0  3  0  0  0  0  0  0
  180.7640  175.4330  139.2830 C   0  0  0  0  0  2  0  0  0  0  0  0
  181.5920  176.6740  139.5120 C   0  0  2  0  0  3  0  0  0  0  0  0
  179.6270  181.6770  139.3950 C   0  0  0  0  0  1  0  0  0  0  0  0
  180.1900  181.2240  138.0630 C   0  0  0  0  0  0  0  0  0  0  0  0
  179.4920  181.5990  136.7740 C   0  0  0  0  0  1  0  0  0  0  0  0
  180.3510  178.4030  138.1430 C   0  0  0  0  0  0  0  0  0  0  0  0
  180.6140  179.8000  138.0840 N   0  0  0  0  0  0  0  0  0  0  0  0
  181.5430  180.9730  138.0020 C   0  0  0  0  0  2  0  0  0  0  0  0
  179.1590  177.9930  138.1760 O   0  0  0  0  0  0  0  0  0  0  0  0
  180.7860  176.7670  135.9340 C   0  0  0  0  0  2  0  0  0  0  0  0
  179.8080  175.7590  135.5690 N   0  0  0  0  0  1  0  0  0  0  0  0
  188.0560  177.1070  136.3330 C   0  0  0  0  0  2  0  0  0  0  0  0
  187.1710  176.3910  135.4230 N   0  0  0  0  0  2  0  0  0  0  0  0
  189.0340  173.5470  136.7660 C   0  0  0  0  0  0  0  0  0  0  0  0
  187.9750  172.4850  136.7950 C   0  0  0  0  0  2  0  0  0  0  0  0
  186.6540  173.1000  137.2660 C   0  0  0  0  0  2  0  0  0  0  0  0
  190.2380  173.3320  137.3540 F   0  0  0  0  0  0  0  0  0  0  0  0
  187.3930  174.9670  135.6210 C   0  0  2  0  0  3  0  0  0  0  0  0
  186.2630  174.3690  136.4820 C   0  0  1  0  0  3  0  0  0  0  0  0
  185.1550  174.1010  135.6780 O   0  0  0  0  0  1  0  0  0  0  0  0
  188.7490  174.7390  136.2350 C   0  0  0  0  0  3  0  0  0  0  0  0
  2 15  1  1  0  0  0
  3  7  1  0  0  0  0
  4 22  1  1  0  0  0
  4  6  1  0  0  0  0
  5  9  2  0  0  0  0
  6  2  1  0  0  0  0
  7  2  1  0  0  0  0
  8  1  1  0  0  0  0
  8  3  2  0  0  0  0
  9  3  1  0  0  0  0
  9  4  1  0  0  0  0
 10  8  1  0  0  0  0
 11 10  2  0  0  0  0
 11  5  1  0  0  0  0
 12 19  2  0  0  0  0
 13 14  1  0  0  0  0
 14 17  2  0  0  0  0
 15 16  1  0  0  0  0
 15 18  2  0  0  0  0
 16 20  2  0  0  0  0
 18 12  1  0  0  0  0
 19 17  1  0  0  0  0
 20 13  1  0  0  0  0
 20 19  1  0  0  0  0
 21 23  1  0  0  0  0
 22 21  2  0  0  0  0
 24 25  1  0  0  0  0
 24 26  1  0  0  0  0
 25 27  1  0  0  0  0
 26 32  1  1  0  0  0
 26 28  1  0  0  0  0
 27 28  1  0  0  0  0
 28 23  1  1  0  0  0
 30 33  1  0  0  0  0
 30 29  1  0  0  0  0
 31 30  1  0  0  0  0
 32 35  2  0  0  0  0
 33 32  1  0  0  0  0
 34 30  1  0  0  0  0
 34 33  1  0  0  0  0
 36 24  1  0  0  0  0
 37 36  1  0  0  0  0
 38 10  1  0  0  0  0
 39 38  1  0  0  0  0
 40 41  1  0  0  0  0
 40 43  1  0  0  0  0
 41 42  1  0  0  0  0
 44 39  1  1  0  0  0
 44 47  1  0  0  0  0
 44 45  1  0  0  0  0
 45 46  1  6  0  0  0
 45 42  1  0  0  0  0
 47 40  2  0  0  0  0
M  END
>  <MODEL>
1

>  <REMARK>
 VINA RESULT:      -8.2      0.000      0.000
  Name = 
  9 active torsions:
  status: ('A' for Active; 'I' for Inactive)
    1  A    between atoms: C_2  and  S_16
    2  A    between atoms: C_7  and  C_17
    3  A    between atoms: C_10  and  C_21
    4  A    between atoms: S_16  and  C_46
    5  A    between atoms: C_19  and  N_29
    6  A    between atoms: C_19  and  C_37
    7  A    between atoms: N_20  and  C_30
    8  A    between atoms: C_22  and  C_31
    9  A    between atoms: C_26  and  N_29
                            x       y       z     vdW  Elec       q    Type
                         _______ _______ _______ _____ _____    ______ ____

>  <TORSDO>
F 9

$$$$
=
 OpenBabel11032420443D

 47 53  0  0  1  0  0  0  0  0999 V2000
  189.0800  177.2310  139.0000 F   0  0  0  0  0  0  0  0  0  0  0  0
  186.4310  178.0790  142.4040 C   0  0  1  0  0  3  0  0  0  0  0  0
  187.0720  178.2110  139.8550 C   0  0  0  0  0  0  0  0  0  0  0  0
  184.8080  179.0870  140.7510 C   0  0  1  0  0  3  0  0  0  0  0  0
  185.2070  178.5770  138.3400 C   0  0  0  0  0  3  0  0  0  0  0  0
  185.4370  179.2020  142.1420 C   0  0  0  0  0  2  0  0  0  0  0  0
  187.9090  178.4500  141.4310 S   0  0  0  0  0  0  0  0  0  0  0  0
  187.8040  177.6500  138.7950 C   0  0  0  0  0  0  0  0  0  0  0  0
  185.7400  178.6460  139.6360 C   0  0  0  0  0  0  0  0  0  0  0  0
  187.2400  177.5660  137.5140 C   0  0  0  0  0  0  0  0  0  0  0  0
  185.9530  178.0500  137.2870 C   0  0  0  0  0  3  0  0  0  0  0  0
  186.0620  178.0390  146.1550 N   0  0  0  0  0  0  0  0  0  0  0  0
  189.5450  177.1290  146.3870 C   0  0  0  0  0  2  0  0  0  0  0  0
  189.0170  177.2140  147.8030 C   0  0  0  0  0  3  0  0  0  0  0  0
  186.7920  177.9660  143.8550 C   0  0  0  0  0  0  0  0  0  0  0  0
  188.0860  177.5920  144.2750 C   0  0  0  0  0  3  0  0  0  0  0  0
  187.7570  177.5310  147.8720 N   0  0  0  0  0  0  0  0  0  0  0  0
  185.7850  178.1750  144.8240 C   0  0  0  0  0  3  0  0  0  0  0  0
  187.3150  177.6920  146.5390 C   0  0  0  0  0  0  0  0  0  0  0  0
  188.3130  177.4720  145.6410 C   0  0  0  0  0  0  0  0  0  0  0  0
  182.3790  178.7260  140.7800 C   0  0  0  0  0  3  0  0  0  0  0  0
  183.6020  178.2000  140.8140 C   0  0  0  0  0  3  0  0  0  0  0  0
  180.9410  177.6640  140.8400 S   0  0  0  0  0  0  0  0  0  0  0  0
  179.3510  180.0670  138.0100 N   0  0  0  0  0  0  0  0  0  0  0  0
  180.0390  181.0270  138.8730 C   0  0  0  0  0  2  0  0  0  0  0  0
  179.7350  178.7300  138.4960 C   0  0  2  0  0  3  0  0  0  0  0  0
  180.4420  180.3080  140.1530 C   0  0  0  0  0  2  0  0  0  0  0  0
  179.9000  178.9070  139.9970 C   0  0  2  0  0  3  0  0  0  0  0  0
  182.9910  175.2220  138.1550 C   0  0  0  0  0  1  0  0  0  0  0  0
  181.8140  175.5230  137.2500 C   0  0  0  0  0  0  0  0  0  0  0  0
  181.9620  175.4180  135.7480 C   0  0  0  0  0  1  0  0  0  0  0  0
  180.9710  178.1580  137.8310 C   0  0  0  0  0  0  0  0  0  0  0  0
  181.0840  176.7500  137.6620 N   0  0  0  0  0  0  0  0  0  0  0  0
  180.5530  175.3540  137.7760 C   0  0  0  0  0  2  0  0  0  0  0  0
  181.9080  178.9100  137.4470 O   0  0  0  0  0  0  0  0  0  0  0  0
  179.7210  180.3310  136.6210 C   0  0  0  0  0  2  0  0  0  0  0  0
  180.1810  181.7010  136.4890 N   0  0  0  0  0  1  0  0  0  0  0  0
  188.0290  177.0290  136.3620 C   0  0  0  0  0  2  0  0  0  0  0  0
  187.1570  176.3020  135.4480 N   0  0  0  0  0  2  0  0  0  0  0  0
  189.0570  173.4860  136.7970 C   0  0  0  0  0  0  0  0  0  0  0  0
  188.0190  172.4030  136.8030 C   0  0  0  0  0  2  0  0  0  0  0  0
  186.6790  172.9880  137.2590 C   0  0  0  0  0  2  0  0  0  0  0  0
  190.2570  173.2910  137.4020 F   0  0  0  0  0  0  0  0  0  0  0  0
  187.4050  174.8820  135.6390 C   0  0  2  0  0  3  0  0  0  0  0  0
  186.2750  174.2550  136.4780 C   0  0  1  0  0  3  0  0  0  0  0  0
  185.1840  173.9710  135.6560 O   0  0  0  0  0  1  0  0  0  0  0  0
  188.7560  174.6760  136.2710 C   0  0  0  0  0  3  0  0  0  0  0  0
  2 15  1  1  0  0  0
  3  7  1  0  0  0  0
  4 22  1  1  0  0  0
  4  6  1  0  0  0  0
  5  9  2  0  0  0  0
  6  2  1  0  0  0  0
  7  2  1  0  0  0  0
  8  1  1  0  0  0  0
  8  3  2  0  0  0  0
  9  3  1  0  0  0  0
  9  4  1  0  0  0  0
 10  8  1  0  0  0  0
 11 10  2  0  0  0  0
 11  5  1  0  0  0  0
 12 19  2  0  0  0  0
 13 14  1  0  0  0  0
 14 17  2  0  0  0  0
 15 16  1  0  0  0  0
 15 18  2  0  0  0  0
 16 20  2  0  0  0  0
 18 12  1  0  0  0  0
 19 17  1  0  0  0  0
 20 13  1  0  0  0  0
 20 19  1  0  0  0  0
 21 22  2  0  0  0  0
 21 23  1  0  0  0  0
 24 26  1  0  0  0  0
 24 25  1  0  0  0  0
 25 27  1  0  0  0  0
 26 32  1  6  0  0  0
 26 28  1  0  0  0  0
 28 27  1  0  0  0  0
 28 23  1  6  0  0  0
 30 33  1  0  0  0  0
 30 34  1  0  0  0  0
 30 29  1  0  0  0  0
 31 30  1  0  0  0  0
 33 34  1  0  0  0  0
 33 32  1  0  0  0  0
 35 32  2  0  0  0  0
 36 24  1  0  0  0  0
 37 36  1  0  0  0  0
 38 10  1  0  0  0  0
 39 38  1  0  0  0  0
 40 41  1  0  0  0  0
 40 43  1  0  0  0  0
 41 42  1  0  0  0  0
 44 39  1  1  0  0  0
 44 47  1  0  0  0  0
 44 45  1  0  0  0  0
 45 46  1  6  0  0  0
 45 42  1  0  0  0  0
 47 40  2  0  0  0  0
M  END
>  <MODEL>
2

>  <REMARK>
 VINA RESULT:      -8.2      0.911      2.651
  Name = 
  9 active torsions:
  status: ('A' for Active; 'I' for Inactive)
    1  A    between atoms: C_2  and  S_16
    2  A    between atoms: C_7  and  C_17
    3  A    between atoms: C_10  and  C_21
    4  A    between atoms: S_16  and  C_46
    5  A    between atoms: C_19  and  N_29
    6  A    between atoms: C_19  and  C_37
    7  A    between atoms: N_20  and  C_30
    8  A    between atoms: C_22  and  C_31
    9  A    between atoms: C_26  and  N_29
                            x       y       z     vdW  Elec       q    Type
                         _______ _______ _______ _____ _____    ______ ____

>  <TORSDO>
F 9

$$$$
=
 OpenBabel11032420443D

 47 53  0  0  1  0  0  0  0  0999 V2000
  188.1400  177.9690  142.2540 F   0  0  0  0  0  0  0  0  0  0  0  0
  188.2830  176.7320  138.0370 C   0  0  1  0  0  3  0  0  0  0  0  0
  189.3930  177.6530  140.2390 C   0  0  0  0  0  0  0  0  0  0  0  0
  190.7790  177.1160  138.1230 C   0  0  1  0  0  3  0  0  0  0  0  0
  191.7990  177.3460  140.3900 C   0  0  0  0  0  3  0  0  0  0  0  0
  189.5030  177.2530  137.2880 C   0  0  0  0  0  2  0  0  0  0  0  0
  187.8850  177.9600  139.3030 S   0  0  0  0  0  0  0  0  0  0  0  0
  189.3310  177.7390  141.6410 C   0  0  0  0  0  0  0  0  0  0  0  0
  190.6380  177.4130  139.6050 C   0  0  0  0  0  0  0  0  0  0  0  0
  190.5010  177.6410  142.4070 C   0  0  0  0  0  0  0  0  0  0  0  0
  191.7320  177.4670  141.7770 C   0  0  0  0  0  3  0  0  0  0  0  0
  186.1760  175.4270  135.1990 N   0  0  0  0  0  0  0  0  0  0  0  0
  183.4030  177.3210  136.5200 C   0  0  0  0  0  2  0  0  0  0  0  0
  182.9000  176.6080  135.2830 C   0  0  0  0  0  3  0  0  0  0  0  0
  187.1040  176.5320  137.1340 C   0  0  0  0  0  0  0  0  0  0  0  0
  185.8510  177.1230  137.4010 C   0  0  0  0  0  3  0  0  0  0  0  0
  183.8020  175.8740  134.7010 N   0  0  0  0  0  0  0  0  0  0  0  0
  187.2380  175.6700  136.0220 C   0  0  0  0  0  3  0  0  0  0  0  0
  184.9830  176.0150  135.4650 C   0  0  0  0  0  0  0  0  0  0  0  0
  184.8050  176.8430  136.5290 C   0  0  0  0  0  0  0  0  0  0  0  0
  192.0900  175.5040  136.8130 C   0  0  0  0  0  3  0  0  0  0  0  0
  191.3800  175.7600  137.9090 C   0  0  0  0  0  3  0  0  0  0  0  0
  192.8190  173.8890  136.5700 S   0  0  0  0  0  0  0  0  0  0  0  0
  196.3170  174.6500  134.7000 N   0  0  0  0  0  0  0  0  0  0  0  0
  196.0160  175.9400  135.3200 C   0  0  0  0  0  2  0  0  0  0  0  0
  195.3120  173.7030  135.2140 C   0  0  2  0  0  3  0  0  0  0  0  0
  194.5790  175.9010  135.8190 C   0  0  0  0  0  2  0  0  0  0  0  0
  194.0600  174.5460  135.4000 C   0  0  2  0  0  3  0  0  0  0  0  0
  195.0780  169.8140  138.0160 C   0  0  0  0  0  1  0  0  0  0  0  0
  196.1930  170.2600  137.0920 C   0  0  0  0  0  0  0  0  0  0  0  0
  197.6370  170.1360  137.5270 C   0  0  0  0  0  1  0  0  0  0  0  0
  195.7290  172.9800  136.4790 C   0  0  0  0  0  0  0  0  0  0  0  0
  195.9060  171.5690  136.4500 N   0  0  0  0  0  0  0  0  0  0  0  0
  195.9350  170.2500  135.7400 C   0  0  0  0  0  2  0  0  0  0  0  0
  195.8980  173.6090  137.5600 O   0  0  0  0  0  0  0  0  0  0  0  0
  197.6980  174.2870  135.0090 C   0  0  0  0  0  2  0  0  0  0  0  0
  198.3430  175.3770  135.7180 N   0  0  0  0  0  1  0  0  0  0  0  0
  190.4600  177.7940  143.8940 C   0  0  0  0  0  2  0  0  0  0  0  0
  189.4590  176.9020  144.4660 N   0  0  0  0  0  2  0  0  0  0  0  0
  186.5650  178.0060  146.4070 C   0  0  0  0  0  0  0  0  0  0  0  0
  187.1780  178.2240  147.7580 C   0  0  0  0  0  2  0  0  0  0  0  0
  188.1810  177.1020  148.0460 C   0  0  0  0  0  2  0  0  0  0  0  0
  185.2170  178.0510  146.2490 F   0  0  0  0  0  0  0  0  0  0  0  0
  188.8400  177.5950  145.5850 C   0  0  2  0  0  3  0  0  0  0  0  0
  189.2000  176.8940  146.9080 C   0  0  1  0  0  3  0  0  0  0  0  0
  190.4640  177.3100  147.3290 O   0  0  0  0  0  1  0  0  0  0  0  0
  187.3510  177.6760  145.3780 C   0  0  0  0  0  3  0  0  0  0  0  0
  2 15  1  6  0  0  0
  2  7  1  0  0  0  0
  3  8  1  0  0  0  0
  4 22  1  1  0  0  0
  4  9  1  0  0  0  0
  5 11  2  0  0  0  0
  6  2  1  0  0  0  0
  6  4  1  0  0  0  0
  7  3  1  0  0  0  0
  8  1  1  0  0  0  0
  8 10  2  0  0  0  0
  9  3  2  0  0  0  0
  9  5  1  0  0  0  0
 10 38  1  0  0  0  0
 11 10  1  0  0  0  0
 12 19  2  0  0  0  0
 12 18  1  0  0  0  0
 13 20  1  0  0  0  0
 14 13  1  0  0  0  0
 15 16  1  0  0  0  0
 17 14  2  0  0  0  0
 17 19  1  0  0  0  0
 18 15  2  0  0  0  0
 19 20  1  0  0  0  0
 20 16  2  0  0  0  0
 21 22  2  0  0  0  0
 23 21  1  0  0  0  0
 24 36  1  0  0  0  0
 24 26  1  0  0  0  0
 24 25  1  0  0  0  0
 25 27  1  0  0  0  0
 26 28  1  0  0  0  0
 26 32  1  1  0  0  0
 28 27  1  0  0  0  0
 28 23  1  1  0  0  0
 30 31  1  0  0  0  0
 30 29  1  0  0  0  0
 32 35  2  0  0  0  0
 33 32  1  0  0  0  0
 33 30  1  0  0  0  0
 34 33  1  0  0  0  0
 34 30  1  0  0  0  0
 36 37  1  0  0  0  0
 38 39  1  0  0  0  0
 40 41  1  0  0  0  0
 41 42  1  0  0  0  0
 43 40  1  0  0  0  0
 44 39  1  6  0  0  0
 44 45  1  0  0  0  0
 45 46  1  1  0  0  0
 45 42  1  0  0  0  0
 47 44  1  0  0  0  0
 47 40  2  0  0  0  0
M  END
>  <MODEL>
3

>  <REMARK>
 VINA RESULT:      -8.1      5.592     12.241
  Name = 
  9 active torsions:
  status: ('A' for Active; 'I' for Inactive)
    1  A    between atoms: C_2  and  S_16
    2  A    between atoms: C_7  and  C_17
    3  A    between atoms: C_10  and  C_21
    4  A    between atoms: S_16  and  C_46
    5  A    between atoms: C_19  and  N_29
    6  A    between atoms: C_19  and  C_37
    7  A    between atoms: N_20  and  C_30
    8  A    between atoms: C_22  and  C_31
    9  A    between atoms: C_26  and  N_29
                            x       y       z     vdW  Elec       q    Type
                         _______ _______ _______ _____ _____    ______ ____

>  <TORSDO>
F 9

$$$$
=
 OpenBabel11032420443D

 47 53  0  0  1  0  0  0  0  0999 V2000
  186.9510  173.3380  136.4410 F   0  0  0  0  0  0  0  0  0  0  0  0
  190.1370  176.0500  137.7900 C   0  0  1  0  0  3  0  0  0  0  0  0
  187.6930  175.5560  136.9480 C   0  0  0  0  0  0  0  0  0  0  0  0
  188.4390  177.9180  137.6920 C   0  0  1  0  0  3  0  0  0  0  0  0
  186.0410  177.2430  137.5240 C   0  0  0  0  0  3  0  0  0  0  0  0
  189.8910  177.5100  137.4320 C   0  0  0  0  0  2  0  0  0  0  0  0
  189.3630  175.0560  136.4940 S   0  0  0  0  0  0  0  0  0  0  0  0
  186.6620  174.6100  136.8200 C   0  0  0  0  0  0  0  0  0  0  0  0
  187.3850  176.8820  137.3440 C   0  0  0  0  0  0  0  0  0  0  0  0
  185.3280  174.9870  137.0320 C   0  0  0  0  0  0  0  0  0  0  0  0
  185.0210  176.3070  137.3610 C   0  0  0  0  0  3  0  0  0  0  0  0
  193.7970  176.3790  138.6280 N   0  0  0  0  0  0  0  0  0  0  0  0
  194.3120  173.1020  137.2090 C   0  0  0  0  0  2  0  0  0  0  0  0
  195.6620  173.5920  137.6890 C   0  0  0  0  0  3  0  0  0  0  0  0
  191.5970  175.7240  137.8770 C   0  0  0  0  0  0  0  0  0  0  0  0
  192.1140  174.4910  137.4290 C   0  0  0  0  0  3  0  0  0  0  0  0
  195.6250  174.7710  138.2350 N   0  0  0  0  0  0  0  0  0  0  0  0
  192.4670  176.6560  138.4890 C   0  0  0  0  0  3  0  0  0  0  0  0
  194.2770  175.1930  138.1780 C   0  0  0  0  0  0  0  0  0  0  0  0
  193.4760  174.2630  137.5920 C   0  0  0  0  0  0  0  0  0  0  0  0
  188.4570  177.5090  140.1130 C   0  0  0  0  0  3  0  0  0  0  0  0
  188.2880  178.3700  139.1130 C   0  0  0  0  0  3  0  0  0  0  0  0
  188.2920  178.0550  141.8090 S   0  0  0  0  0  0  0  0  0  0  0  0
  191.1540  176.3510  144.0930 N   0  0  0  0  0  0  0  0  0  0  0  0
  191.9420  177.1970  143.1990 C   0  0  0  0  0  2  0  0  0  0  0  0
  189.7420  176.6840  143.8350 C   0  0  2  0  0  3  0  0  0  0  0  0
  191.0310  177.6830  142.0810 C   0  0  0  0  0  2  0  0  0  0  0  0
  189.6990  177.0240  142.3530 C   0  0  2  0  0  3  0  0  0  0  0  0
  185.9740  179.0700  145.6080 C   0  0  0  0  0  1  0  0  0  0  0  0
  186.8650  178.0490  146.2880 C   0  0  0  0  0  0  0  0  0  0  0  0
  187.3090  178.2590  147.7190 C   0  0  0  0  0  1  0  0  0  0  0  0
  189.1960  177.7950  144.7100 C   0  0  0  0  0  0  0  0  0  0  0  0
  187.9750  177.5940  145.4110 N   0  0  0  0  0  0  0  0  0  0  0  0
  186.8060  176.7530  145.8260 C   0  0  0  0  0  2  0  0  0  0  0  0
  189.7960  178.9000  144.8060 O   0  0  0  0  0  0  0  0  0  0  0  0
  191.5860  176.5870  145.4690 C   0  0  0  0  0  2  0  0  0  0  0  0
  192.0560  175.3440  146.0540 N   0  0  0  0  0  1  0  0  0  0  0  0
  184.2140  174.0090  136.8380 C   0  0  0  0  0  2  0  0  0  0  0  0
  182.9620  174.7120  136.5840 N   0  0  0  0  0  2  0  0  0  0  0  0
  180.5870  175.1830  139.3220 C   0  0  0  0  0  0  0  0  0  0  0  0
  179.6870  173.9970  139.1430 C   0  0  0  0  0  2  0  0  0  0  0  0
  179.4290  173.7780  137.6490 C   0  0  0  0  0  2  0  0  0  0  0  0
  180.2630  176.1640  140.2040 F   0  0  0  0  0  0  0  0  0  0  0  0
  181.9830  174.2290  137.5450 C   0  0  2  0  0  3  0  0  0  0  0  0
  180.7220  173.7310  136.8120 C   0  0  1  0  0  3  0  0  0  0  0  0
  180.9340  172.4320  136.3490 O   0  0  0  0  0  1  0  0  0  0  0  0
  181.6630  175.3110  138.5420 C   0  0  0  0  0  3  0  0  0  0  0  0
  1  8  1  0  0  0  0
  2 15  1  6  0  0  0
  3  9  1  0  0  0  0
  4 22  1  1  0  0  0
  6  4  1  0  0  0  0
  6  2  1  0  0  0  0
  7  3  1  0  0  0  0
  7  2  1  0  0  0  0
  8  3  2  0  0  0  0
  8 10  1  0  0  0  0
  9  5  2  0  0  0  0
  9  4  1  0  0  0  0
 10 11  2  0  0  0  0
 11  5  1  0  0  0  0
 13 20  1  0  0  0  0
 13 14  1  0  0  0  0
 14 17  2  0  0  0  0
 15 18  2  0  0  0  0
 16 20  2  0  0  0  0
 16 15  1  0  0  0  0
 18 12  1  0  0  0  0
 19 17  1  0  0  0  0
 19 12  2  0  0  0  0
 20 19  1  0  0  0  0
 21 23  1  0  0  0  0
 22 21  2  0  0  0  0
 24 36  1  0  0  0  0
 25 24  1  0  0  0  0
 26 24  1  0  0  0  0
 26 32  1  1  0  0  0
 27 28  1  0  0  0  0
 27 25  1  0  0  0  0
 28 23  1  1  0  0  0
 28 26  1  0  0  0  0
 29 30  1  0  0  0  0
 30 31  1  0  0  0  0
 32 35  2  0  0  0  0
 32 33  1  0  0  0  0
 33 34  1  0  0  0  0
 33 30  1  0  0  0  0
 34 30  1  0  0  0  0
 36 37  1  0  0  0  0
 38 10  1  0  0  0  0
 39 38  1  0  0  0  0
 40 43  1  0  0  0  0
 41 40  1  0  0  0  0
 42 41  1  0  0  0  0
 44 39  1  6  0  0  0
 44 47  1  0  0  0  0
 45 46  1  1  0  0  0
 45 44  1  0  0  0  0
 45 42  1  0  0  0  0
 47 40  2  0  0  0  0
M  END
>  <MODEL>
4

>  <REMARK>
 VINA RESULT:      -7.9      3.957      8.995
  Name = 
  9 active torsions:
  status: ('A' for Active; 'I' for Inactive)
    1  A    between atoms: C_2  and  S_16
    2  A    between atoms: C_7  and  C_17
    3  A    between atoms: C_10  and  C_21
    4  A    between atoms: S_16  and  C_46
    5  A    between atoms: C_19  and  N_29
    6  A    between atoms: C_19  and  C_37
    7  A    between atoms: N_20  and  C_30
    8  A    between atoms: C_22  and  C_31
    9  A    between atoms: C_26  and  N_29
                            x       y       z     vdW  Elec       q    Type
                         _______ _______ _______ _____ _____    ______ ____

>  <TORSDO>
F 9

$$$$
=
 OpenBabel11032420443D

 47 53  0  0  1  0  0  0  0  0999 V2000
  192.5890  175.4580  138.4760 F   0  0  0  0  0  0  0  0  0  0  0  0
  189.2640  177.1590  140.7940 C   0  0  1  0  0  3  0  0  0  0  0  0
  190.6600  176.8700  138.5820 C   0  0  0  0  0  0  0  0  0  0  0  0
  188.4600  178.2280  138.6510 C   0  0  1  0  0  3  0  0  0  0  0  0
  189.4580  177.3700  136.5300 C   0  0  0  0  0  3  0  0  0  0  0  0
  188.6470  178.3990  140.1610 C   0  0  0  0  0  2  0  0  0  0  0  0
  191.0100  177.1470  140.3270 S   0  0  0  0  0  0  0  0  0  0  0  0
  191.5480  176.0650  137.8480 C   0  0  0  0  0  0  0  0  0  0  0  0
  189.5750  177.5010  137.9220 C   0  0  0  0  0  0  0  0  0  0  0  0
  191.3950  175.9270  136.4610 C   0  0  0  0  0  0  0  0  0  0  0  0
  190.3640  176.5970  135.8050 C   0  0  0  0  0  3  0  0  0  0  0  0
  190.2380  177.0390  144.4330 N   0  0  0  0  0  0  0  0  0  0  0  0
  186.7740  177.5990  145.2750 C   0  0  0  0  0  2  0  0  0  0  0  0
  187.5340  177.4910  146.5800 C   0  0  0  0  0  3  0  0  0  0  0  0
  189.1370  177.1610  142.2880 C   0  0  0  0  0  0  0  0  0  0  0  0
  187.9020  177.3870  142.9310 C   0  0  0  0  0  3  0  0  0  0  0  0
  188.8090  177.2930  146.4270 N   0  0  0  0  0  0  0  0  0  0  0  0
  190.3040  176.9990  143.0700 C   0  0  0  0  0  3  0  0  0  0  0  0
  189.0390  177.2440  145.0330 C   0  0  0  0  0  0  0  0  0  0  0  0
  187.8930  177.4140  144.3210 C   0  0  0  0  0  0  0  0  0  0  0  0
  186.2320  178.1950  137.6180 C   0  0  0  0  0  3  0  0  0  0  0  0
  187.1370  177.5810  138.3770 C   0  0  0  0  0  3  0  0  0  0  0  0
  184.6600  177.4120  137.2780 S   0  0  0  0  0  0  0  0  0  0  0  0
  182.3080  177.7690  140.5410 N   0  0  0  0  0  0  0  0  0  0  0  0
  182.8450  179.1220  140.4040 C   0  0  0  0  0  2  0  0  0  0  0  0
  182.7410  177.0320  139.3410 C   0  0  2  0  0  3  0  0  0  0  0  0
  183.9820  179.0790  139.3920 C   0  0  0  0  0  2  0  0  0  0  0  0
  184.1000  177.6250  139.0040 C   0  0  2  0  0  3  0  0  0  0  0  0
  181.1740  175.2900  135.1530 C   0  0  0  0  0  1  0  0  0  0  0  0
  180.5740  175.1370  136.5360 C   0  0  0  0  0  0  0  0  0  0  0  0
  179.0760  175.2320  136.7310 C   0  0  0  0  0  1  0  0  0  0  0  0
  181.7650  177.1000  138.1840 C   0  0  0  0  0  0  0  0  0  0  0  0
  181.3280  175.8950  137.5670 N   0  0  0  0  0  0  0  0  0  0  0  0
  181.2870  174.4010  137.4560 C   0  0  0  0  0  2  0  0  0  0  0  0
  181.3540  178.2100  137.7460 O   0  0  0  0  0  0  0  0  0  0  0  0
  180.8580  177.8510  140.7060 C   0  0  0  0  0  2  0  0  0  0  0  0
  180.4790  179.2120  141.0370 N   0  0  0  0  0  1  0  0  0  0  0  0
  192.3690  175.1260  135.6580 C   0  0  0  0  0  2  0  0  0  0  0  0
  193.2950  176.0090  134.9590 N   0  0  0  0  0  2  0  0  0  0  0  0
  196.3650  174.1160  135.5530 C   0  0  0  0  0  0  0  0  0  0  0  0
  197.3220  175.2100  135.9220 C   0  0  0  0  0  2  0  0  0  0  0  0
  197.0790  176.4220  135.0190 C   0  0  0  0  0  2  0  0  0  0  0  0
  196.8140  172.8530  135.3380 F   0  0  0  0  0  0  0  0  0  0  0  0
  194.6090  175.8300  135.5550 C   0  0  2  0  0  3  0  0  0  0  0  0
  195.6000  176.8570  134.9730 C   0  0  1  0  0  3  0  0  0  0  0  0
  195.4490  178.0770  135.6330 O   0  0  0  0  0  1  0  0  0  0  0  0
  195.0790  174.4140  135.3480 C   0  0  0  0  0  3  0  0  0  0  0  0
  2 15  1  1  0  0  0
  3  7  1  0  0  0  0
  4 22  1  1  0  0  0
  4  6  1  0  0  0  0
  5  9  2  0  0  0  0
  6  2  1  0  0  0  0
  7  2  1  0  0  0  0
  8  1  1  0  0  0  0
  8  3  2  0  0  0  0
  9  3  1  0  0  0  0
  9  4  1  0  0  0  0
 10  8  1  0  0  0  0
 11 10  2  0  0  0  0
 11  5  1  0  0  0  0
 12 19  2  0  0  0  0
 13 14  1  0  0  0  0
 15 16  1  0  0  0  0
 15 18  2  0  0  0  0
 16 20  2  0  0  0  0
 17 14  2  0  0  0  0
 18 12  1  0  0  0  0
 19 17  1  0  0  0  0
 20 19  1  0  0  0  0
 20 13  1  0  0  0  0
 21 22  2  0  0  0  0
 23 21  1  0  0  0  0
 24 36  1  0  0  0  0
 25 24  1  0  0  0  0
 26 32  1  6  0  0  0
 26 24  1  0  0  0  0
 27 25  1  0  0  0  0
 28 23  1  6  0  0  0
 28 26  1  0  0  0  0
 28 27  1  0  0  0  0
 29 30  1  0  0  0  0
 30 31  1  0  0  0  0
 30 34  1  0  0  0  0
 30 33  1  0  0  0  0
 33 32  1  0  0  0  0
 34 33  1  0  0  0  0
 35 32  2  0  0  0  0
 36 37  1  0  0  0  0
 38 10  1  0  0  0  0
 39 38  1  0  0  0  0
 40 41  1  0  0  0  0
 42 41  1  0  0  0  0
 43 40  1  0  0  0  0
 44 39  1  6  0  0  0
 45 42  1  0  0  0  0
 45 44  1  0  0  0  0
 45 46  1  1  0  0  0
 47 40  2  0  0  0  0
 47 44  1  0  0  0  0
M  END
>  <MODEL>
5

>  <REMARK>
 VINA RESULT:      -7.8      3.949      5.420
  Name = 
  9 active torsions:
  status: ('A' for Active; 'I' for Inactive)
    1  A    between atoms: C_2  and  S_16
    2  A    between atoms: C_7  and  C_17
    3  A    between atoms: C_10  and  C_21
    4  A    between atoms: S_16  and  C_46
    5  A    between atoms: C_19  and  N_29
    6  A    between atoms: C_19  and  C_37
    7  A    between atoms: N_20  and  C_30
    8  A    between atoms: C_22  and  C_31
    9  A    between atoms: C_26  and  N_29
                            x       y       z     vdW  Elec       q    Type
                         _______ _______ _______ _____ _____    ______ ____

>  <TORSDO>
F 9

$$$$
=
 OpenBabel11032420443D

 47 53  0  0  1  0  0  0  0  0999 V2000
  183.8200  178.8090  145.7170 F   0  0  0  0  0  0  0  0  0  0  0  0
  187.9590  177.6550  144.7840 C   0  0  1  0  0  3  0  0  0  0  0  0
  185.4140  177.9200  144.1680 C   0  0  0  0  0  0  0  0  0  0  0  0
  187.1750  177.1540  142.4360 C   0  0  1  0  0  3  0  0  0  0  0  0
  184.9360  178.0480  141.7890 C   0  0  0  0  0  3  0  0  0  0  0  0
  188.0790  176.7160  143.5910 C   0  0  0  0  0  2  0  0  0  0  0  0
  186.3670  177.3050  145.5670 S   0  0  0  0  0  0  0  0  0  0  0  0
  184.2020  178.5800  144.4330 C   0  0  0  0  0  0  0  0  0  0  0  0
  185.8080  177.6840  142.8260 C   0  0  0  0  0  0  0  0  0  0  0  0
  183.3600  178.9590  143.3780 C   0  0  0  0  0  0  0  0  0  0  0  0
  183.7190  178.6720  142.0620 C   0  0  0  0  0  3  0  0  0  0  0  0
  189.9590  177.9410  147.9660 N   0  0  0  0  0  0  0  0  0  0  0  0
  192.3360  175.6180  146.5620 C   0  0  0  0  0  2  0  0  0  0  0  0
  192.8400  175.9860  147.9410 C   0  0  0  0  0  3  0  0  0  0  0  0
  189.0670  177.4590  145.7750 C   0  0  0  0  0  0  0  0  0  0  0  0
  190.1410  176.5790  145.5280 C   0  0  0  0  0  3  0  0  0  0  0  0
  192.0700  176.8200  148.5740 N   0  0  0  0  0  0  0  0  0  0  0  0
  188.9920  178.1260  147.0190 C   0  0  0  0  0  3  0  0  0  0  0  0
  190.9910  177.1010  147.7050 C   0  0  0  0  0  0  0  0  0  0  0  0
  191.0980  176.4310  146.5260 C   0  0  0  0  0  0  0  0  0  0  0  0
  188.2650  177.8160  140.3370 C   0  0  0  0  0  3  0  0  0  0  0  0
  187.9000  178.1430  141.5740 C   0  0  0  0  0  3  0  0  0  0  0  0
  189.1160  179.0040  139.3050 S   0  0  0  0  0  0  0  0  0  0  0  0
  189.1940  176.4980  136.1390 N   0  0  0  0  0  0  0  0  0  0  0  0
  188.9570  175.5770  137.2510 C   0  0  0  0  0  2  0  0  0  0  0  0
  189.1000  177.8560  136.7040 C   0  0  2  0  0  3  0  0  0  0  0  0
  189.1940  176.3330  138.5500 C   0  0  0  0  0  2  0  0  0  0  0  0
  189.6340  177.7130  138.1210 C   0  0  2  0  0  3  0  0  0  0  0  0
  184.3940  177.3030  135.9520 C   0  0  0  0  0  1  0  0  0  0  0  0
  185.1420  177.4350  137.2620 C   0  0  0  0  0  0  0  0  0  0  0  0
  184.5750  178.2810  138.3810 C   0  0  0  0  0  1  0  0  0  0  0  0
  187.7080  178.4540  136.6560 C   0  0  0  0  0  0  0  0  0  0  0  0
  186.5970  177.6650  137.0610 N   0  0  0  0  0  0  0  0  0  0  0  0
  185.9910  176.4090  137.6110 C   0  0  0  0  0  2  0  0  0  0  0  0
  187.5210  179.6300  136.2410 O   0  0  0  0  0  0  0  0  0  0  0  0
  188.2270  176.2190  135.0800 C   0  0  0  0  0  2  0  0  0  0  0  0
  187.8360  174.8220  135.1290 N   0  0  0  0  0  1  0  0  0  0  0  0
  182.0380  179.6060  143.6450 C   0  0  0  0  0  2  0  0  0  0  0  0
  180.9940  178.5940  143.7540 N   0  0  0  0  0  2  0  0  0  0  0  0
  179.7280  180.4610  140.8780 C   0  0  0  0  0  0  0  0  0  0  0  0
  178.9310  179.4080  140.1670 C   0  0  0  0  0  2  0  0  0  0  0  0
  179.6910  178.0790  140.2150 C   0  0  0  0  0  2  0  0  0  0  0  0
  179.9600  181.6620  140.2880 F   0  0  0  0  0  0  0  0  0  0  0  0
  180.0450  178.8230  142.6760 C   0  0  2  0  0  3  0  0  0  0  0  0
  180.1400  177.6890  141.6380 C   0  0  1  0  0  3  0  0  0  0  0  0
  179.4020  176.5890  142.0770 O   0  0  0  0  0  1  0  0  0  0  0  0
  180.2850  180.1740  142.0580 C   0  0  0  0  0  3  0  0  0  0  0  0
  2  7  1  0  0  0  0
  2 15  1  1  0  0  0
  3  8  1  0  0  0  0
  3  7  1  0  0  0  0
  4 22  1  1  0  0  0
  4  9  1  0  0  0  0
  4  6  1  0  0  0  0
  5 11  2  0  0  0  0
  5  9  1  0  0  0  0
  6  2  1  0  0  0  0
  8  1  1  0  0  0  0
  9  3  2  0  0  0  0
 10 38  1  0  0  0  0
 10  8  2  0  0  0  0
 11 10  1  0  0  0  0
 13 14  1  0  0  0  0
 14 17  2  0  0  0  0
 15 18  2  0  0  0  0
 16 15  1  0  0  0  0
 16 20  2  0  0  0  0
 18 12  1  0  0  0  0
 19 12  2  0  0  0  0
 19 17  1  0  0  0  0
 20 13  1  0  0  0  0
 20 19  1  0  0  0  0
 21 22  2  0  0  0  0
 23 21  1  0  0  0  0
 24 26  1  0  0  0  0
 24 25  1  0  0  0  0
 25 27  1  0  0  0  0
 26 32  1  1  0  0  0
 26 28  1  0  0  0  0
 28 27  1  0  0  0  0
 28 23  1  1  0  0  0
 29 30  1  0  0  0  0
 30 34  1  0  0  0  0
 30 31  1  0  0  0  0
 32 33  1  0  0  0  0
 33 30  1  0  0  0  0
 33 34  1  0  0  0  0
 35 32  2  0  0  0  0
 36 37  1  0  0  0  0
 36 24  1  0  0  0  0
 38 39  1  0  0  0  0
 40 47  2  0  0  0  0
 41 42  1  0  0  0  0
 41 40  1  0  0  0  0
 42 45  1  0  0  0  0
 43 40  1  0  0  0  0
 44 39  1  1  0  0  0
 45 46  1  1  0  0  0
 45 44  1  0  0  0  0
 47 44  1  0  0  0  0
M  END
>  <MODEL>
6

>  <REMARK>
 VINA RESULT:      -7.5      3.654      7.299
  Name = 
  9 active torsions:
  status: ('A' for Active; 'I' for Inactive)
    1  A    between atoms: C_2  and  S_16
    2  A    between atoms: C_7  and  C_17
    3  A    between atoms: C_10  and  C_21
    4  A    between atoms: S_16  and  C_46
    5  A    between atoms: C_19  and  N_29
    6  A    between atoms: C_19  and  C_37
    7  A    between atoms: N_20  and  C_30
    8  A    between atoms: C_22  and  C_31
    9  A    between atoms: C_26  and  N_29
                            x       y       z     vdW  Elec       q    Type
                         _______ _______ _______ _____ _____    ______ ____

>  <TORSDO>
F 9

$$$$
=
 OpenBabel11032420443D

 47 53  0  0  1  0  0  0  0  0999 V2000
  182.5900  176.3900  140.9050 F   0  0  0  0  0  0  0  0  0  0  0  0
  183.9340  174.9440  136.9770 C   0  0  1  0  0  3  0  0  0  0  0  0
  183.5150  176.8470  138.7450 C   0  0  0  0  0  0  0  0  0  0  0  0
  184.7030  177.3010  136.4930 C   0  0  1  0  0  3  0  0  0  0  0  0
  184.8590  178.8500  138.4450 C   0  0  0  0  0  3  0  0  0  0  0  0
  184.0450  176.0400  135.9260 C   0  0  0  0  0  2  0  0  0  0  0  0
  182.6060  175.4320  138.1030 S   0  0  0  0  0  0  0  0  0  0  0  0
  183.3520  177.1780  140.1020 C   0  0  0  0  0  0  0  0  0  0  0  0
  184.3120  177.6720  137.9120 C   0  0  0  0  0  0  0  0  0  0  0  0
  183.9310  178.3460  140.6180 C   0  0  0  0  0  0  0  0  0  0  0  0
  184.6630  179.1880  139.7830 C   0  0  0  0  0  3  0  0  0  0  0  0
  184.4550  171.5750  135.3690 N   0  0  0  0  0  0  0  0  0  0  0  0
  180.8960  171.0270  135.6010 C   0  0  0  0  0  2  0  0  0  0  0  0
  181.4920  169.7930  134.9570 C   0  0  0  0  0  3  0  0  0  0  0  0
  183.6240  173.6070  136.3740 C   0  0  0  0  0  0  0  0  0  0  0  0
  182.3120  173.0900  136.3410 C   0  0  0  0  0  3  0  0  0  0  0  0
  182.7830  169.8490  134.8160 N   0  0  0  0  0  0  0  0  0  0  0  0
  184.6900  172.8170  135.8870 C   0  0  0  0  0  3  0  0  0  0  0  0
  183.1850  171.1010  135.3340 C   0  0  0  0  0  0  0  0  0  0  0  0
  182.1300  171.8220  135.8000 C   0  0  0  0  0  0  0  0  0  0  0  0
  186.7790  176.0040  136.3040 C   0  0  0  0  0  3  0  0  0  0  0  0
  186.1920  177.1960  136.3640 C   0  0  0  0  0  3  0  0  0  0  0  0
  188.5560  175.8820  136.1330 S   0  0  0  0  0  0  0  0  0  0  0  0
  190.1600  177.8170  139.2940 N   0  0  0  0  0  0  0  0  0  0  0  0
  188.9300  177.2710  139.8640 C   0  0  0  0  0  2  0  0  0  0  0  0
  190.2770  177.2420  137.9420 C   0  0  2  0  0  3  0  0  0  0  0  0
  188.0640  176.7610  138.7210 C   0  0  0  0  0  2  0  0  0  0  0  0
  188.8390  177.0960  137.4690 C   0  0  2  0  0  3  0  0  0  0  0  0
  193.3120  174.3400  135.6190 C   0  0  0  0  0  1  0  0  0  0  0  0
  193.5700  175.2290  136.8180 C   0  0  0  0  0  0  0  0  0  0  0  0
  194.4210  174.7310  137.9660 C   0  0  0  0  0  1  0  0  0  0  0  0
  191.0510  175.9400  137.8860 C   0  0  0  0  0  0  0  0  0  0  0  0
  192.3400  175.9200  137.2850 N   0  0  0  0  0  0  0  0  0  0  0  0
  193.5040  176.5900  136.6210 C   0  0  0  0  0  2  0  0  0  0  0  0
  190.5590  174.8720  138.3420 O   0  0  0  0  0  0  0  0  0  0  0  0
  191.2760  177.4970  140.1820 C   0  0  0  0  0  2  0  0  0  0  0  0
  190.7680  176.9650  141.4330 N   0  0  0  0  0  1  0  0  0  0  0  0
  183.7140  178.7450  142.0430 C   0  0  0  0  0  2  0  0  0  0  0  0
  184.9520  179.2530  142.6200 N   0  0  0  0  0  2  0  0  0  0  0  0
  187.3760  177.2880  144.5250 C   0  0  0  0  0  0  0  0  0  0  0  0
  186.7000  177.1980  145.8620 C   0  0  0  0  0  2  0  0  0  0  0  0
  186.0550  178.5460  146.1940 C   0  0  0  0  0  2  0  0  0  0  0  0
  188.6570  176.8660  144.3730 F   0  0  0  0  0  0  0  0  0  0  0  0
  185.3280  178.3660  143.7100 C   0  0  2  0  0  3  0  0  0  0  0  0
  185.1580  179.0850  145.0620 C   0  0  1  0  0  3  0  0  0  0  0  0
  183.8210  179.0300  145.4560 O   0  0  0  0  0  1  0  0  0  0  0  0
  186.7350  177.8710  143.5080 C   0  0  0  0  0  3  0  0  0  0  0  0
  2 15  1  6  0  0  0
  2  7  1  0  0  0  0
  3  8  1  0  0  0  0
  4 22  1  1  0  0  0
  4  9  1  0  0  0  0
  5 11  2  0  0  0  0
  6  4  1  0  0  0  0
  6  2  1  0  0  0  0
  7  3  1  0  0  0  0
  8 10  2  0  0  0  0
  8  1  1  0  0  0  0
  9  5  1  0  0  0  0
  9  3  2  0  0  0  0
 10 38  1  0  0  0  0
 11 10  1  0  0  0  0
 12 18  1  0  0  0  0
 13 20  1  0  0  0  0
 14 13  1  0  0  0  0
 16 15  1  0  0  0  0
 17 14  2  0  0  0  0
 17 19  1  0  0  0  0
 18 15  2  0  0  0  0
 19 12  2  0  0  0  0
 19 20  1  0  0  0  0
 20 16  2  0  0  0  0
 21 22  2  0  0  0  0
 23 21  1  0  0  0  0
 24 25  1  0  0  0  0
 24 36  1  0  0  0  0
 26 32  1  1  0  0  0
 26 24  1  0  0  0  0
 27 25  1  0  0  0  0
 28 23  1  6  0  0  0
 28 26  1  0  0  0  0
 28 27  1  0  0  0  0
 29 30  1  0  0  0  0
 30 33  1  0  0  0  0
 30 31  1  0  0  0  0
 32 35  2  0  0  0  0
 33 32  1  0  0  0  0
 34 30  1  0  0  0  0
 34 33  1  0  0  0  0
 36 37  1  0  0  0  0
 38 39  1  0  0  0  0
 40 41  1  0  0  0  0
 41 42  1  0  0  0  0
 43 40  1  0  0  0  0
 44 39  1  6  0  0  0
 44 45  1  0  0  0  0
 45 46  1  1  0  0  0
 45 42  1  0  0  0  0
 47 44  1  0  0  0  0
 47 40  2  0  0  0  0
M  END
>  <MODEL>
7

>  <REMARK>
 VINA RESULT:      -7.4      3.938     10.150
  Name = 
  9 active torsions:
  status: ('A' for Active; 'I' for Inactive)
    1  A    between atoms: C_2  and  S_16
    2  A    between atoms: C_7  and  C_17
    3  A    between atoms: C_10  and  C_21
    4  A    between atoms: S_16  and  C_46
    5  A    between atoms: C_19  and  N_29
    6  A    between atoms: C_19  and  C_37
    7  A    between atoms: N_20  and  C_30
    8  A    between atoms: C_22  and  C_31
    9  A    between atoms: C_26  and  N_29
                            x       y       z     vdW  Elec       q    Type
                         _______ _______ _______ _____ _____    ______ ____

>  <TORSDO>
F 9

$$$$
=
 OpenBabel11032420443D

 47 53  0  0  1  0  0  0  0  0999 V2000
  192.2540  175.9060  139.4970 F   0  0  0  0  0  0  0  0  0  0  0  0
  188.5240  177.5010  141.1920 C   0  0  1  0  0  3  0  0  0  0  0  0
  190.2730  177.2250  139.2450 C   0  0  0  0  0  0  0  0  0  0  0  0
  188.0340  178.4770  138.9150 C   0  0  1  0  0  3  0  0  0  0  0  0
  189.4010  177.6170  137.0110 C   0  0  0  0  0  3  0  0  0  0  0  0
  187.9660  178.6940  140.4280 C   0  0  0  0  0  2  0  0  0  0  0  0
  190.3230  177.5620  141.0140 S   0  0  0  0  0  0  0  0  0  0  0  0
  191.3040  176.4470  138.6910 C   0  0  0  0  0  0  0  0  0  0  0  0
  189.2840  177.7870  138.3990 C   0  0  0  0  0  0  0  0  0  0  0  0
  191.3840  176.2680  137.3020 C   0  0  0  0  0  0  0  0  0  0  0  0
  190.4460  176.8720  136.4670 C   0  0  0  0  0  3  0  0  0  0  0  0
  186.4170  177.7100  144.3100 N   0  0  0  0  0  0  0  0  0  0  0  0
  189.4090  177.1540  146.2480 C   0  0  0  0  0  2  0  0  0  0  0  0
  188.2660  177.2960  147.2320 C   0  0  0  0  0  3  0  0  0  0  0  0
  188.1560  177.5330  142.6450 C   0  0  0  0  0  0  0  0  0  0  0  0
  189.1110  177.3160  143.6610 C   0  0  0  0  0  3  0  0  0  0  0  0
  187.1130  177.4960  146.6660 N   0  0  0  0  0  0  0  0  0  0  0  0
  186.8000  177.7180  142.9990 C   0  0  0  0  0  3  0  0  0  0  0  0
  187.3510  177.5140  145.2730 C   0  0  0  0  0  0  0  0  0  0  0  0
  188.6650  177.3220  144.9780 C   0  0  0  0  0  0  0  0  0  0  0  0
  185.6030  178.3160  138.6040 C   0  0  0  0  0  3  0  0  0  0  0  0
  186.8030  177.7600  138.4510 C   0  0  0  0  0  3  0  0  0  0  0  0
  184.1370  177.4640  138.0340 S   0  0  0  0  0  0  0  0  0  0  0  0
  181.8770  178.2580  141.2850 N   0  0  0  0  0  0  0  0  0  0  0  0
  183.1940  178.7330  141.7060 C   0  0  0  0  0  2  0  0  0  0  0  0
  182.0030  177.9110  139.8580 C   0  0  2  0  0  3  0  0  0  0  0  0
  184.2210  178.2350  140.7000 C   0  0  0  0  0  2  0  0  0  0  0  0
  183.4300  177.4050  139.7170 C   0  0  2  0  0  3  0  0  0  0  0  0
  180.7310  179.4120  135.4810 C   0  0  0  0  0  1  0  0  0  0  0  0
  179.8950  179.3280  136.7420 C   0  0  0  0  0  0  0  0  0  0  0  0
  178.9310  180.4400  137.0930 C   0  0  0  0  0  1  0  0  0  0  0  0
  181.6860  179.0520  138.9120 C   0  0  0  0  0  0  0  0  0  0  0  0
  180.6870  178.8740  137.9160 N   0  0  0  0  0  0  0  0  0  0  0  0
  179.6200  178.0720  137.2350 C   0  0  0  0  0  2  0  0  0  0  0  0
  182.3120  180.1450  138.9800 O   0  0  0  0  0  0  0  0  0  0  0  0
  180.8870  179.2950  141.5670 C   0  0  0  0  0  2  0  0  0  0  0  0
  181.1450  179.8760  142.8710 N   0  0  0  0  0  1  0  0  0  0  0  0
  192.5110  175.4960  136.6920 C   0  0  0  0  0  2  0  0  0  0  0  0
  193.7310  175.6840  137.4670 N   0  0  0  0  0  2  0  0  0  0  0  0
  194.4950  172.1740  136.7930 C   0  0  0  0  0  0  0  0  0  0  0  0
  195.5270  171.8870  137.8440 C   0  0  0  0  0  2  0  0  0  0  0  0
  196.4690  173.0880  137.9680 C   0  0  0  0  0  2  0  0  0  0  0  0
  194.2430  171.2690  135.8140 F   0  0  0  0  0  0  0  0  0  0  0  0
  194.2150  174.3680  137.8540 C   0  0  2  0  0  3  0  0  0  0  0  0
  195.7250  174.4260  138.1530 C   0  0  1  0  0  3  0  0  0  0  0  0
  195.9270  174.8990  139.4500 O   0  0  0  0  0  1  0  0  0  0  0  0
  193.8920  173.3650  136.7780 C   0  0  0  0  0  3  0  0  0  0  0  0
  2 15  1  1  0  0  0
  3  7  1  0  0  0  0
  4 22  1  1  0  0  0
  4  6  1  0  0  0  0
  5  9  1  0  0  0  0
  6  2  1  0  0  0  0
  7  2  1  0  0  0  0
  8  3  1  0  0  0  0
  8  1  1  0  0  0  0
  9  4  1  0  0  0  0
  9  3  2  0  0  0  0
 10  8  2  0  0  0  0
 11  5  2  0  0  0  0
 11 10  1  0  0  0  0
 12 19  2  0  0  0  0
 13 14  1  0  0  0  0
 15 18  2  0  0  0  0
 15 16  1  0  0  0  0
 16 20  2  0  0  0  0
 17 14  2  0  0  0  0
 18 12  1  0  0  0  0
 19 17  1  0  0  0  0
 20 19  1  0  0  0  0
 20 13  1  0  0  0  0
 22 21  2  0  0  0  0
 23 21  1  0  0  0  0
 24 36  1  0  0  0  0
 24 25  1  0  0  0  0
 26 32  1  6  0  0  0
 26 24  1  0  0  0  0
 27 25  1  0  0  0  0
 28 23  1  6  0  0  0
 28 26  1  0  0  0  0
 28 27  1  0  0  0  0
 29 30  1  0  0  0  0
 30 31  1  0  0  0  0
 30 34  1  0  0  0  0
 30 33  1  0  0  0  0
 32 35  2  0  0  0  0
 33 32  1  0  0  0  0
 34 33  1  0  0  0  0
 36 37  1  0  0  0  0
 38 10  1  0  0  0  0
 38 39  1  0  0  0  0
 40 41  1  0  0  0  0
 41 42  1  0  0  0  0
 42 45  1  0  0  0  0
 43 40  1  0  0  0  0
 44 39  1  6  0  0  0
 44 45  1  0  0  0  0
 45 46  1  1  0  0  0
 47 40  2  0  0  0  0
 47 44  1  0  0  0  0
M  END
>  <MODEL>
8

>  <REMARK>
 VINA RESULT:      -7.4      3.647      4.727
  Name = 
  9 active torsions:
  status: ('A' for Active; 'I' for Inactive)
    1  A    between atoms: C_2  and  S_16
    2  A    between atoms: C_7  and  C_17
    3  A    between atoms: C_10  and  C_21
    4  A    between atoms: S_16  and  C_46
    5  A    between atoms: C_19  and  N_29
    6  A    between atoms: C_19  and  C_37
    7  A    between atoms: N_20  and  C_30
    8  A    between atoms: C_22  and  C_31
    9  A    between atoms: C_26  and  N_29
                            x       y       z     vdW  Elec       q    Type
                         _______ _______ _______ _____ _____    ______ ____

>  <TORSDO>
F 9

$$$$
=
 OpenBabel11032420443D

 47 53  0  0  1  0  0  0  0  0999 V2000
  192.7160  175.9660  139.2270 F   0  0  0  0  0  0  0  0  0  0  0  0
  188.7760  177.4300  140.5160 C   0  0  1  0  0  3  0  0  0  0  0  0
  190.6730  177.1050  138.7210 C   0  0  0  0  0  0  0  0  0  0  0  0
  188.3830  178.1510  138.1260 C   0  0  1  0  0  3  0  0  0  0  0  0
  189.9370  177.2210  136.4070 C   0  0  0  0  0  3  0  0  0  0  0  0
  188.1940  178.5020  139.6040 C   0  0  0  0  0  2  0  0  0  0  0  0
  190.5740  177.6070  140.4470 S   0  0  0  0  0  0  0  0  0  0  0  0
  191.7900  176.3570  138.3120 C   0  0  0  0  0  0  0  0  0  0  0  0
  189.7100  177.5100  137.7620 C   0  0  0  0  0  0  0  0  0  0  0  0
  191.9810  176.0550  136.9560 C   0  0  0  0  0  0  0  0  0  0  0  0
  191.0660  176.5070  136.0070 C   0  0  0  0  0  3  0  0  0  0  0  0
  186.4750  178.0150  143.4430 N   0  0  0  0  0  0  0  0  0  0  0  0
  189.2300  177.2250  145.6360 C   0  0  0  0  0  2  0  0  0  0  0  0
  188.0390  177.5370  146.5180 C   0  0  0  0  0  3  0  0  0  0  0  0
  188.3050  177.5700  141.9310 C   0  0  0  0  0  0  0  0  0  0  0  0
  189.1490  177.2980  143.0290 C   0  0  0  0  0  3  0  0  0  0  0  0
  186.9620  177.8350  145.8540 N   0  0  0  0  0  0  0  0  0  0  0  0
  186.9560  177.9190  142.1680 C   0  0  0  0  0  3  0  0  0  0  0  0
  187.3060  177.7620  144.4850 C   0  0  0  0  0  0  0  0  0  0  0  0
  188.6080  177.4140  144.3040 C   0  0  0  0  0  0  0  0  0  0  0  0
  186.1000  177.8700  137.2680 C   0  0  0  0  0  3  0  0  0  0  0  0
  187.2390  177.3040  137.6570 C   0  0  0  0  0  3  0  0  0  0  0  0
  184.7420  176.8570  136.6930 S   0  0  0  0  0  0  0  0  0  0  0  0
  182.0240  176.4630  139.6540 N   0  0  0  0  0  0  0  0  0  0  0  0
  181.5990  177.7070  139.0130 C   0  0  0  0  0  2  0  0  0  0  0  0
  183.0870  175.9040  138.7990 C   0  0  2  0  0  3  0  0  0  0  0  0
  182.6990  178.1490  138.0600 C   0  0  0  0  0  2  0  0  0  0  0  0
  183.7960  177.1250  138.2320 C   0  0  2  0  0  3  0  0  0  0  0  0
  184.0340  172.9030  135.1770 C   0  0  0  0  0  1  0  0  0  0  0  0
  183.6260  172.5830  136.6010 C   0  0  0  0  0  0  0  0  0  0  0  0
  182.6270  171.4810  136.8770 C   0  0  0  0  0  1  0  0  0  0  0  0
  182.5880  174.9600  137.7240 C   0  0  0  0  0  0  0  0  0  0  0  0
  183.3540  173.8070  137.3990 N   0  0  0  0  0  0  0  0  0  0  0  0
  184.5230  172.8910  137.5990 C   0  0  0  0  0  2  0  0  0  0  0  0
  181.5180  175.1960  137.0990 O   0  0  0  0  0  0  0  0  0  0  0  0
  180.8620  175.5920  139.8140 C   0  0  0  0  0  2  0  0  0  0  0  0
  179.7110  176.3800  140.2160 N   0  0  0  0  0  1  0  0  0  0  0  0
  193.1970  175.3160  136.4970 C   0  0  0  0  0  2  0  0  0  0  0  0
  194.4040  176.0260  136.9040 N   0  0  0  0  0  2  0  0  0  0  0  0
  195.5590  172.6580  137.7330 C   0  0  0  0  0  0  0  0  0  0  0  0
  196.9210  172.6480  137.1040 C   0  0  0  0  0  2  0  0  0  0  0  0
  196.8570  173.3550  135.7470 C   0  0  0  0  0  2  0  0  0  0  0  0
  195.0230  171.5140  138.2280 F   0  0  0  0  0  0  0  0  0  0  0  0
  195.4430  175.0340  137.1310 C   0  0  2  0  0  3  0  0  0  0  0  0
  196.1980  174.7470  135.8200 C   0  0  1  0  0  3  0  0  0  0  0  0
  197.1630  175.7340  135.6100 O   0  0  0  0  0  1  0  0  0  0  0  0
  194.8420  173.7850  137.7200 C   0  0  0  0  0  3  0  0  0  0  0  0
  2 15  1  1  0  0  0
  3  7  1  0  0  0  0
  4 22  1  1  0  0  0
  4  6  1  0  0  0  0
  5  9  1  0  0  0  0
  6  2  1  0  0  0  0
  7  2  1  0  0  0  0
  8  3  1  0  0  0  0
  8  1  1  0  0  0  0
  9  4  1  0  0  0  0
  9  3  2  0  0  0  0
 10  8  2  0  0  0  0
 11  5  2  0  0  0  0
 11 10  1  0  0  0  0
 12 19  2  0  0  0  0
 13 14  1  0  0  0  0
 15 18  2  0  0  0  0
 15 16  1  0  0  0  0
 16 20  2  0  0  0  0
 17 14  2  0  0  0  0
 18 12  1  0  0  0  0
 19 17  1  0  0  0  0
 20 19  1  0  0  0  0
 20 13  1  0  0  0  0
 21 22  2  0  0  0  0
 23 21  1  0  0  0  0
 24 36  1  0  0  0  0
 25 24  1  0  0  0  0
 26 32  1  6  0  0  0
 26 24  1  0  0  0  0
 27 28  1  0  0  0  0
 27 25  1  0  0  0  0
 28 23  1  6  0  0  0
 28 26  1  0  0  0  0
 29 30  1  0  0  0  0
 30 31  1  0  0  0  0
 30 33  1  0  0  0  0
 30 34  1  0  0  0  0
 33 34  1  0  0  0  0
 33 32  1  0  0  0  0
 35 32  2  0  0  0  0
 36 37  1  0  0  0  0
 38 39  1  0  0  0  0
 38 10  1  0  0  0  0
 40 43  1  0  0  0  0
 41 40  1  0  0  0  0
 42 45  1  0  0  0  0
 42 41  1  0  0  0  0
 44 39  1  6  0  0  0
 44 47  1  0  0  0  0
 45 46  1  1  0  0  0
 45 44  1  0  0  0  0
 47 40  2  0  0  0  0
M  END
>  <MODEL>
9

>  <REMARK>
 VINA RESULT:      -7.4      4.074      5.763
  Name = 
  9 active torsions:
  status: ('A' for Active; 'I' for Inactive)
    1  A    between atoms: C_2  and  S_16
    2  A    between atoms: C_7  and  C_17
    3  A    between atoms: C_10  and  C_21
    4  A    between atoms: S_16  and  C_46
    5  A    between atoms: C_19  and  N_29
    6  A    between atoms: C_19  and  C_37
    7  A    between atoms: N_20  and  C_30
    8  A    between atoms: C_22  and  C_31
    9  A    between atoms: C_26  and  N_29
                            x       y       z     vdW  Elec       q    Type
                         _______ _______ _______ _____ _____    ______ ____

>  <TORSDO>
F 9

$$$$
