=
 OpenBabel11042412373D

 41 46  0  0  1  0  0  0  0  0999 V2000
  184.9880  177.6360  137.1570 O   0  0  0  0  0  0  0  0  0  0  0  0
  182.6980  179.2820  139.5020 N   0  0  0  0  0  0  0  0  0  0  0  0
  187.5340  178.5390  142.1220 C   0  0  0  0  0  3  0  0  0  0  0  0
  186.5200  175.7000  136.6730 C   0  0  1  0  0  3  0  0  0  0  0  0
  187.6720  178.6730  137.0160 C   0  0  0  0  0  2  0  0  0  0  0  0
  187.6300  176.1720  137.6240 C   0  0  1  0  0  3  0  0  0  0  0  0
  186.2700  174.2790  136.8690 N   0  0  0  0  0  0  0  0  0  0  0  0
  183.0130  178.7220  138.2430 C   0  0  0  0  0  0  0  0  0  0  0  0
  184.3990  175.3760  137.5380 N   0  0  0  0  0  0  0  0  0  0  0  0
  189.0500  175.8240  137.1640 C   0  0  2  0  0  3  0  0  0  0  0  0
  188.7000  178.1430  141.4750 C   0  0  0  0  0  0  0  0  0  0  0  0
  186.3410  178.6290  141.4130 C   0  0  0  0  0  3  0  0  0  0  0  0
  185.2330  176.2700  137.1270 C   0  0  0  0  0  0  0  0  0  0  0  0
  185.0770  174.1390  137.3540 C   0  0  0  0  0  3  0  0  0  0  0  0
  187.5140  177.5930  137.9910 N   0  0  0  0  0  0  0  0  0  0  0  0
  186.2570  178.3320  140.0410 C   0  0  0  0  0  0  0  0  0  0  0  0
  182.2090  178.6620  137.2780 O   0  0  0  0  0  0  0  0  0  0  0  0
  188.9490  177.5380  135.2170 C   0  0  0  0  0  2  0  0  0  0  0  0
  187.4600  177.9240  139.3790 C   0  0  0  0  0  0  0  0  0  0  0  0
  188.6630  177.8380  140.1110 C   0  0  0  0  0  0  0  0  0  0  0  0
  189.8130  177.4850  139.4850 F   0  0  0  0  0  0  0  0  0  0  0  0
  184.8900  178.5320  139.4430 C   0  0  0  0  0  0  0  0  0  0  0  0
  183.7850  179.1720  140.2020 C   0  0  0  0  0  3  0  0  0  0  0  0
  184.3760  178.2480  138.2390 C   0  0  0  0  0  0  0  0  0  0  0  0
  189.0170  178.5970  136.3050 C   0  0  0  0  0  2  0  0  0  0  0  0
  189.3490  176.1360  135.6890 C   0  0  0  0  0  2  0  0  0  0  0  0
  189.9370  178.0650  142.1890 N   0  0  0  0  0  2  0  0  0  0  0  0
  190.1590  178.7830  143.3160 O   0  0  0  0  0  0  0  0  0  0  0  0
  190.8480  177.9200  144.1730 C   0  0  0  0  0  2  0  0  0  0  0  0
  189.9210  176.8170  144.6730 C   0  0  0  0  0  2  0  0  0  0  0  0
  187.6390  178.1440  148.0600 C   0  0  0  0  0  3  0  0  0  0  0  0
  187.7760  177.5730  145.7090 C   0  0  0  0  0  3  0  0  0  0  0  0
  189.7400  177.3930  147.1160 C   0  0  0  0  0  3  0  0  0  0  0  0
  189.1320  177.2640  145.8600 C   0  0  0  0  0  0  0  0  0  0  0  0
  187.0290  178.0100  146.8090 C   0  0  0  0  0  3  0  0  0  0  0  0
  188.9940  177.8340  148.2150 C   0  0  0  0  0  3  0  0  0  0  0  0
  189.3440  174.4300  137.4470 N   0  0  0  0  0  2  0  0  0  0  0  0
  190.2290  173.9610  136.3940 C   0  0  0  0  0  2  0  0  0  0  0  0
  192.4840  172.8960  136.3260 O   0  0  0  0  0  0  0  0  0  0  0  0
  191.9660  174.4280  137.9520 O   0  0  0  0  0  1  0  0  0  0  0  0
  191.6020  173.7780  136.9380 C   0  0  0  0  0  0  0  0  0  0  0  0
  1 24  1  0  0  0  0
  2 23  2  0  0  0  0
  4  7  1  1  0  0  0
  4 13  1  0  0  0  0
  4  6  1  0  0  0  0
  5 15  1  0  0  0  0
  6 15  1  6  0  0  0
  7 14  2  0  0  0  0
  8  2  1  0  0  0  0
 10 37  1  6  0  0  0
 10  6  1  0  0  0  0
 11  3  1  0  0  0  0
 11 27  1  0  0  0  0
 12  3  2  0  0  0  0
 13  1  1  0  0  0  0
 13  9  2  0  0  0  0
 14  9  1  0  0  0  0
 15 19  1  0  0  0  0
 16 12  1  0  0  0  0
 17  8  2  0  0  0  0
 18 26  1  0  0  0  0
 18 25  1  0  0  0  0
 19 16  2  0  0  0  0
 19 20  1  0  0  0  0
 20 11  2  0  0  0  0
 21 20  1  0  0  0  0
 22 16  1  0  0  0  0
 22 23  1  0  0  0  0
 24  8  1  0  0  0  0
 24 22  2  0  0  0  0
 25  5  1  0  0  0  0
 26 10  1  0  0  0  0
 27 28  1  0  0  0  0
 28 29  1  0  0  0  0
 29 30  1  0  0  0  0
 30 34  1  0  0  0  0
 31 36  1  0  0  0  0
 32 34  2  0  0  0  0
 32 35  1  0  0  0  0
 33 36  2  0  0  0  0
 34 33  1  0  0  0  0
 35 31  2  0  0  0  0
 38 41  1  0  0  0  0
 38 37  1  0  0  0  0
 39 41  2  0  0  0  0
 41 40  1  0  0  0  0
M  END
>  <MODEL>
1

>  <REMARK>
 VINA RESULT:      -8.6      0.000      0.000
  Name = 
  8 active torsions:
  status: ('A' for Active; 'I' for Inactive)
    1  A    between atoms: N_3  and  O_14
    2  A    between atoms: N_3  and  C_21
    3  A    between atoms: N_9  and  C_20
    4  A    between atoms: N_9  and  C_29
    5  A    between atoms: O_14  and  C_41
    6  A    between atoms: C_17  and  C_27
    7  A    between atoms: C_24  and  C_29
    8  A    between atoms: C_27  and  C_41
                            x       y       z     vdW  Elec       q    Type
                         _______ _______ _______ _____ _____    ______ ____

>  <TORSDO>
F 8

$$$$
=
 OpenBabel11042412373D

 41 46  0  0  1  0  0  0  0  0999 V2000
  180.2280  178.5540  141.0960 O   0  0  0  0  0  0  0  0  0  0  0  0
  181.1160  178.7660  144.6480 N   0  0  0  0  0  0  0  0  0  0  0  0
  185.8430  178.5880  141.7440 C   0  0  0  0  0  3  0  0  0  0  0  0
  180.4420  177.3240  138.9120 C   0  0  1  0  0  3  0  0  0  0  0  0
  181.6860  180.2570  139.2860 C   0  0  0  0  0  2  0  0  0  0  0  0
  181.8900  177.7700  138.6530 C   0  0  1  0  0  3  0  0  0  0  0  0
  180.3120  175.8960  138.6620 N   0  0  0  0  0  0  0  0  0  0  0  0
  180.1770  178.7080  143.5930 C   0  0  0  0  0  0  0  0  0  0  0  0
  179.9730  176.2100  140.8840 N   0  0  0  0  0  0  0  0  0  0  0  0
  182.2410  177.9610  137.1740 C   0  0  2  0  0  3  0  0  0  0  0  0
  185.8940  178.7240  140.3610 C   0  0  0  0  0  0  0  0  0  0  0  0
  184.6140  178.5650  142.3960 C   0  0  0  0  0  3  0  0  0  0  0  0
  180.1830  177.3730  140.3670 C   0  0  0  0  0  0  0  0  0  0  0  0
  180.0500  175.3080  139.7870 C   0  0  0  0  0  3  0  0  0  0  0  0
  182.2900  178.9350  139.4590 N   0  0  0  0  0  0  0  0  0  0  0  0
  183.3940  178.6750  141.7050 C   0  0  0  0  0  0  0  0  0  0  0  0
  178.9310  178.7260  143.7570 O   0  0  0  0  0  0  0  0  0  0  0  0
  180.7570  180.0840  136.9920 C   0  0  0  0  0  2  0  0  0  0  0  0
  183.4520  178.8150  140.2800 C   0  0  0  0  0  0  0  0  0  0  0  0
  184.7060  178.8370  139.6340 C   0  0  0  0  0  0  0  0  0  0  0  0
  184.7720  179.0020  138.2890 F   0  0  0  0  0  0  0  0  0  0  0  0
  182.1750  178.6750  142.5890 C   0  0  0  0  0  0  0  0  0  0  0  0
  182.2780  178.7470  144.0690 C   0  0  0  0  0  3  0  0  0  0  0  0
  180.8630  178.6340  142.3250 C   0  0  0  0  0  0  0  0  0  0  0  0
  181.8170  180.7520  137.8520 C   0  0  0  0  0  2  0  0  0  0  0  0
  181.2110  178.7630  136.3620 C   0  0  0  0  0  2  0  0  0  0  0  0
  187.1520  178.7670  139.6820 N   0  0  0  0  0  2  0  0  0  0  0  0
  187.9310  177.6670  139.5450 O   0  0  0  0  0  0  0  0  0  0  0  0
  189.1790  178.0330  140.0570 C   0  0  0  0  0  2  0  0  0  0  0  0
  189.7310  176.9280  140.9510 C   0  0  0  0  0  2  0  0  0  0  0  0
  188.9370  177.6780  145.1030 C   0  0  0  0  0  3  0  0  0  0  0  0
  190.2820  178.0400  143.1200 C   0  0  0  0  0  3  0  0  0  0  0  0
  188.3410  176.5930  143.0210 C   0  0  0  0  0  3  0  0  0  0  0  0
  189.4390  177.1940  142.3910 C   0  0  0  0  0  0  0  0  0  0  0  0
  190.0300  178.2830  144.4750 C   0  0  0  0  0  3  0  0  0  0  0  0
  188.0910  176.8340  144.3760 C   0  0  0  0  0  3  0  0  0  0  0  0
  182.4810  176.6750  136.5430 N   0  0  0  0  0  2  0  0  0  0  0  0
  183.5340  176.0210  137.3020 C   0  0  0  0  0  2  0  0  0  0  0  0
  185.9560  176.5300  136.9840 O   0  0  0  0  0  1  0  0  0  0  0  0
  184.7730  175.4270  135.3590 O   0  0  0  0  0  0  0  0  0  0  0  0
  184.7820  175.9750  136.4910 C   0  0  0  0  0  0  0  0  0  0  0  0
  1 24  1  0  0  0  0
  3 12  1  0  0  0  0
  4  7  1  1  0  0  0
  4 13  1  0  0  0  0
  5 15  1  0  0  0  0
  6  4  1  0  0  0  0
  6 15  1  1  0  0  0
  7 14  2  0  0  0  0
  8 17  2  0  0  0  0
  8  2  1  0  0  0  0
 10 37  1  6  0  0  0
 10  6  1  0  0  0  0
 11  3  2  0  0  0  0
 13  9  2  0  0  0  0
 13  1  1  0  0  0  0
 14  9  1  0  0  0  0
 15 19  1  0  0  0  0
 16 12  2  0  0  0  0
 16 22  1  0  0  0  0
 18 25  1  0  0  0  0
 19 16  1  0  0  0  0
 20 19  2  0  0  0  0
 20 11  1  0  0  0  0
 21 20  1  0  0  0  0
 22 23  1  0  0  0  0
 23  2  2  0  0  0  0
 24 22  2  0  0  0  0
 24  8  1  0  0  0  0
 25  5  1  0  0  0  0
 26 18  1  0  0  0  0
 26 10  1  0  0  0  0
 27 11  1  0  0  0  0
 28 27  1  0  0  0  0
 28 29  1  0  0  0  0
 29 30  1  0  0  0  0
 30 34  1  0  0  0  0
 32 35  2  0  0  0  0
 33 36  1  0  0  0  0
 34 33  2  0  0  0  0
 34 32  1  0  0  0  0
 35 31  1  0  0  0  0
 36 31  2  0  0  0  0
 37 38  1  0  0  0  0
 40 41  2  0  0  0  0
 41 39  1  0  0  0  0
 41 38  1  0  0  0  0
M  END
>  <MODEL>
2

>  <REMARK>
 VINA RESULT:      -8.0      3.273      5.623
  Name = 
  8 active torsions:
  status: ('A' for Active; 'I' for Inactive)
    1  A    between atoms: N_3  and  O_14
    2  A    between atoms: N_3  and  C_21
    3  A    between atoms: N_9  and  C_20
    4  A    between atoms: N_9  and  C_29
    5  A    between atoms: O_14  and  C_41
    6  A    between atoms: C_17  and  C_27
    7  A    between atoms: C_24  and  C_29
    8  A    between atoms: C_27  and  C_41
                            x       y       z     vdW  Elec       q    Type
                         _______ _______ _______ _____ _____    ______ ____

>  <TORSDO>
F 8

$$$$
=
 OpenBabel11042412373D

 41 46  0  0  1  0  0  0  0  0999 V2000
  182.8100  176.9630  136.7770 O   0  0  0  0  0  0  0  0  0  0  0  0
  186.3750  177.5460  136.1400 N   0  0  0  0  0  0  0  0  0  0  0  0
  185.3320  179.0880  141.3680 C   0  0  0  0  0  3  0  0  0  0  0  0
  180.5920  177.8960  137.5080 C   0  0  1  0  0  3  0  0  0  0  0  0
  182.1260  175.7040  139.2770 C   0  0  0  0  0  2  0  0  0  0  0  0
  180.9730  177.9880  138.9930 C   0  0  1  0  0  3  0  0  0  0  0  0
  179.9480  179.1310  137.0850 N   0  0  0  0  0  0  0  0  0  0  0  0
  185.0860  177.1190  135.7480 C   0  0  0  0  0  0  0  0  0  0  0  0
  181.9180  178.9990  135.9660 N   0  0  0  0  0  0  0  0  0  0  0  0
  179.8090  177.7540  139.9630 C   0  0  2  0  0  3  0  0  0  0  0  0
  184.1380  178.8060  142.0220 C   0  0  0  0  0  0  0  0  0  0  0  0
  185.4920  178.7380  140.0310 C   0  0  0  0  0  3  0  0  0  0  0  0
  181.8280  177.9410  136.6980 C   0  0  0  0  0  0  0  0  0  0  0  0
  180.7180  179.7180  136.2240 C   0  0  0  0  0  3  0  0  0  0  0  0
  182.1420  177.1660  139.3440 N   0  0  0  0  0  0  0  0  0  0  0  0
  184.4780  178.0980  139.2950 C   0  0  0  0  0  0  0  0  0  0  0  0
  184.8100  176.6630  134.6090 O   0  0  0  0  0  0  0  0  0  0  0  0
  179.6920  175.2280  139.3720 C   0  0  0  0  0  2  0  0  0  0  0  0
  183.2500  177.8100  139.9740 C   0  0  0  0  0  0  0  0  0  0  0  0
  183.1040  178.1710  141.3290 C   0  0  0  0  0  0  0  0  0  0  0  0
  181.9560  177.8730  141.9890 F   0  0  0  0  0  0  0  0  0  0  0  0
  184.8570  177.7600  137.8770 C   0  0  0  0  0  0  0  0  0  0  0  0
  186.2460  177.9200  137.3750 C   0  0  0  0  0  3  0  0  0  0  0  0
  184.1580  177.2800  136.8420 C   0  0  0  0  0  0  0  0  0  0  0  0
  181.0070  175.1140  140.1260 C   0  0  0  0  0  2  0  0  0  0  0  0
  178.9340  176.5320  139.6420 C   0  0  0  0  0  2  0  0  0  0  0  0
  183.9680  179.1450  143.4020 N   0  0  0  0  0  2  0  0  0  0  0  0
  185.0230  179.2730  144.2420 O   0  0  0  0  0  0  0  0  0  0  0  0
  184.7500  178.4140  145.3110 C   0  0  0  0  0  2  0  0  0  0  0  0
  185.5590  178.8200  146.5380 C   0  0  0  0  0  2  0  0  0  0  0  0
  189.4690  177.0470  146.5430 C   0  0  0  0  0  3  0  0  0  0  0  0
  187.6470  178.1240  147.7220 C   0  0  0  0  0  3  0  0  0  0  0  0
  187.4590  177.6780  145.3480 C   0  0  0  0  0  3  0  0  0  0  0  0
  186.9120  178.1890  146.5330 C   0  0  0  0  0  0  0  0  0  0  0  0
  188.9240  177.5510  147.7280 C   0  0  0  0  0  3  0  0  0  0  0  0
  188.7370  177.1090  145.3530 C   0  0  0  0  0  3  0  0  0  0  0  0
  178.9850  178.9460  140.0590 N   0  0  0  0  0  2  0  0  0  0  0  0
  178.9310  179.3120  141.4640 C   0  0  0  0  0  2  0  0  0  0  0  0
  179.4830  181.6680  140.8610 O   0  0  0  0  0  0  0  0  0  0  0  0
  180.5270  180.6410  142.6240 O   0  0  0  0  0  1  0  0  0  0  0  0
  179.6940  180.5710  141.6850 C   0  0  0  0  0  0  0  0  0  0  0  0
  1 24  1  0  0  0  0
  2 23  2  0  0  0  0
  3 11  1  0  0  0  0
  4 13  1  6  0  0  0
  4  6  1  0  0  0  0
  5 15  1  0  0  0  0
  5 25  1  0  0  0  0
  6 15  1  1  0  0  0
  6 10  1  0  0  0  0
  7  4  1  0  0  0  0
  8  2  1  0  0  0  0
  8 24  1  0  0  0  0
  9 14  1  0  0  0  0
  9 13  2  0  0  0  0
 10 37  1  6  0  0  0
 11 27  1  0  0  0  0
 12  3  2  0  0  0  0
 13  1  1  0  0  0  0
 14  7  2  0  0  0  0
 15 19  1  0  0  0  0
 16 19  2  0  0  0  0
 16 12  1  0  0  0  0
 17  8  2  0  0  0  0
 18 26  1  0  0  0  0
 18 25  1  0  0  0  0
 19 20  1  0  0  0  0
 20 21  1  0  0  0  0
 20 11  2  0  0  0  0
 22 16  1  0  0  0  0
 23 22  1  0  0  0  0
 24 22  2  0  0  0  0
 26 10  1  0  0  0  0
 27 28  1  0  0  0  0
 28 29  1  0  0  0  0
 29 30  1  0  0  0  0
 31 35  1  0  0  0  0
 32 35  2  0  0  0  0
 33 36  1  0  0  0  0
 33 34  2  0  0  0  0
 34 30  1  0  0  0  0
 34 32  1  0  0  0  0
 36 31  2  0  0  0  0
 37 38  1  0  0  0  0
 38 41  1  0  0  0  0
 39 41  2  0  0  0  0
 41 40  1  0  0  0  0
M  END
>  <MODEL>
3

>  <REMARK>
 VINA RESULT:      -7.6      3.644      7.209
  Name = 
  8 active torsions:
  status: ('A' for Active; 'I' for Inactive)
    1  A    between atoms: N_3  and  O_14
    2  A    between atoms: N_3  and  C_21
    3  A    between atoms: N_9  and  C_20
    4  A    between atoms: N_9  and  C_29
    5  A    between atoms: O_14  and  C_41
    6  A    between atoms: C_17  and  C_27
    7  A    between atoms: C_24  and  C_29
    8  A    between atoms: C_27  and  C_41
                            x       y       z     vdW  Elec       q    Type
                         _______ _______ _______ _____ _____    ______ ____

>  <TORSDO>
F 8

$$$$
=
 OpenBabel11042412373D

 41 46  0  0  1  0  0  0  0  0999 V2000
  181.3020  176.2410  136.8080 O   0  0  0  0  0  0  0  0  0  0  0  0
  183.1580  173.5530  135.1390 N   0  0  0  0  0  0  0  0  0  0  0  0
  186.8670  176.9240  137.5230 C   0  0  0  0  0  3  0  0  0  0  0  0
  180.9170  178.7100  137.0940 C   0  0  1  0  0  3  0  0  0  0  0  0
  182.1440  176.9430  139.4720 C   0  0  0  0  0  2  0  0  0  0  0  0
  182.2190  178.9560  137.8690 C   0  0  1  0  0  3  0  0  0  0  0  0
  180.7550  179.7250  136.0630 N   0  0  0  0  0  0  0  0  0  0  0  0
  181.9590  174.2030  135.5130 C   0  0  0  0  0  0  0  0  0  0  0  0
  181.0540  177.7440  134.9970 N   0  0  0  0  0  0  0  0  0  0  0  0
  182.1310  180.0640  138.9240 C   0  0  2  0  0  3  0  0  0  0  0  0
  186.5200  177.9250  138.4230 C   0  0  0  0  0  0  0  0  0  0  0  0
  185.8750  176.1680  136.9060 C   0  0  0  0  0  3  0  0  0  0  0  0
  181.0810  177.4980  136.2630 C   0  0  0  0  0  0  0  0  0  0  0  0
  180.8380  179.1470  134.9060 C   0  0  0  0  0  3  0  0  0  0  0  0
  182.8040  177.7250  138.4260 N   0  0  0  0  0  0  0  0  0  0  0  0
  184.5070  176.3770  137.1560 C   0  0  0  0  0  0  0  0  0  0  0  0
  180.8110  173.7980  135.2000 O   0  0  0  0  0  0  0  0  0  0  0  0
  180.6060  178.6240  140.4550 C   0  0  0  0  0  2  0  0  0  0  0  0
  184.1540  177.4100  138.0830 C   0  0  0  0  0  0  0  0  0  0  0  0
  185.1710  178.1660  138.7020 C   0  0  0  0  0  0  0  0  0  0  0  0
  184.8480  179.1250  139.6060 F   0  0  0  0  0  0  0  0  0  0  0  0
  183.5900  175.4300  136.4270 C   0  0  0  0  0  0  0  0  0  0  0  0
  184.1070  174.2630  135.6680 C   0  0  0  0  0  3  0  0  0  0  0  0
  182.2580  175.3770  136.2970 C   0  0  0  0  0  0  0  0  0  0  0  0
  181.8500  177.7880  140.7050 C   0  0  0  0  0  2  0  0  0  0  0  0
  180.8940  179.9950  139.8340 C   0  0  0  0  0  2  0  0  0  0  0  0
  187.5310  178.6960  139.0780 N   0  0  0  0  0  2  0  0  0  0  0  0
  188.3850  178.1430  139.9730 O   0  0  0  0  0  0  0  0  0  0  0  0
  187.9850  178.6370  141.2180 C   0  0  0  0  0  2  0  0  0  0  0  0
  187.7100  177.4870  142.1810 C   0  0  0  0  0  2  0  0  0  0  0  0
  184.7080  178.4950  145.0820 C   0  0  0  0  0  3  0  0  0  0  0  0
  186.9550  177.7610  144.5480 C   0  0  0  0  0  3  0  0  0  0  0  0
  185.3920  178.2710  142.7690 C   0  0  0  0  0  3  0  0  0  0  0  0
  186.6640  177.8530  143.1830 C   0  0  0  0  0  0  0  0  0  0  0  0
  185.9790  178.0840  145.4980 C   0  0  0  0  0  3  0  0  0  0  0  0
  184.4150  178.5900  143.7180 C   0  0  0  0  0  3  0  0  0  0  0  0
  182.2130  181.3690  138.2930 N   0  0  0  0  0  2  0  0  0  0  0  0
  180.9290  182.0200  138.4970 C   0  0  0  0  0  2  0  0  0  0  0  0
  179.6510  183.6220  137.0760 O   0  0  0  0  0  0  0  0  0  0  0  0
  181.8790  183.9580  137.4960 O   0  0  0  0  0  1  0  0  0  0  0  0
  180.8530  183.2500  137.6630 C   0  0  0  0  0  0  0  0  0  0  0  0
  2  8  1  0  0  0  0
  2 23  2  0  0  0  0
  3 11  1  0  0  0  0
  4  7  1  6  0  0  0
  4  6  1  0  0  0  0
  5 25  1  0  0  0  0
  6 15  1  1  0  0  0
  6 10  1  0  0  0  0
  8 24  1  0  0  0  0
  9 13  2  0  0  0  0
 10 37  1  6  0  0  0
 10 26  1  0  0  0  0
 11 20  2  0  0  0  0
 11 27  1  0  0  0  0
 12 16  1  0  0  0  0
 12  3  2  0  0  0  0
 13  1  1  0  0  0  0
 13  4  1  0  0  0  0
 14  9  1  0  0  0  0
 14  7  2  0  0  0  0
 15  5  1  0  0  0  0
 16 19  2  0  0  0  0
 17  8  2  0  0  0  0
 18 25  1  0  0  0  0
 19 15  1  0  0  0  0
 19 20  1  0  0  0  0
 20 21  1  0  0  0  0
 22 16  1  0  0  0  0
 23 22  1  0  0  0  0
 24 22  2  0  0  0  0
 24  1  1  0  0  0  0
 26 18  1  0  0  0  0
 27 28  1  0  0  0  0
 28 29  1  0  0  0  0
 29 30  1  0  0  0  0
 30 34  1  0  0  0  0
 31 35  1  0  0  0  0
 32 35  2  0  0  0  0
 33 34  2  0  0  0  0
 33 36  1  0  0  0  0
 34 32  1  0  0  0  0
 36 31  2  0  0  0  0
 37 38  1  0  0  0  0
 39 41  2  0  0  0  0
 40 41  1  0  0  0  0
 41 38  1  0  0  0  0
M  END
>  <MODEL>
4

>  <REMARK>
 VINA RESULT:      -7.4      3.181      7.136
  Name = 
  8 active torsions:
  status: ('A' for Active; 'I' for Inactive)
    1  A    between atoms: N_3  and  O_14
    2  A    between atoms: N_3  and  C_21
    3  A    between atoms: N_9  and  C_20
    4  A    between atoms: N_9  and  C_29
    5  A    between atoms: O_14  and  C_41
    6  A    between atoms: C_17  and  C_27
    7  A    between atoms: C_24  and  C_29
    8  A    between atoms: C_27  and  C_41
                            x       y       z     vdW  Elec       q    Type
                         _______ _______ _______ _____ _____    ______ ____

>  <TORSDO>
F 8

$$$$
=
 OpenBabel11042412373D

 41 46  0  0  1  0  0  0  0  0999 V2000
  185.9930  178.6080  137.6160 O   0  0  0  0  0  0  0  0  0  0  0  0
  189.3960  177.4090  136.9610 N   0  0  0  0  0  0  0  0  0  0  0  0
  186.0720  172.9710  137.2030 C   0  0  0  0  0  3  0  0  0  0  0  0
  183.9400  178.5180  139.0670 C   0  0  1  0  0  3  0  0  0  0  0  0
  183.8780  177.4380  136.0470 C   0  0  0  0  0  2  0  0  0  0  0  0
  183.4940  177.1330  138.5750 C   0  0  1  0  0  3  0  0  0  0  0  0
  183.8570  178.5780  140.5190 N   0  0  0  0  0  0  0  0  0  0  0  0
  188.4520  178.4360  137.1870 C   0  0  0  0  0  0  0  0  0  0  0  0
  186.0560  178.7290  139.9780 N   0  0  0  0  0  0  0  0  0  0  0  0
  181.9750  176.9340  138.5310 C   0  0  2  0  0  3  0  0  0  0  0  0
  184.6850  173.0580  137.2200 C   0  0  0  0  0  0  0  0  0  0  0  0
  186.8420  174.1300  137.2200 C   0  0  0  0  0  3  0  0  0  0  0  0
  185.4000  178.6430  138.8710 C   0  0  0  0  0  0  0  0  0  0  0  0
  185.0580  178.6950  140.9910 C   0  0  0  0  0  3  0  0  0  0  0  0
  184.1280  176.7360  137.3070 N   0  0  0  0  0  0  0  0  0  0  0  0
  186.2670  175.4140  137.2540 C   0  0  0  0  0  0  0  0  0  0  0  0
  188.7360  179.6610  137.2190 O   0  0  0  0  0  0  0  0  0  0  0  0
  181.7180  178.5630  136.5250 C   0  0  0  0  0  2  0  0  0  0  0  0
  184.8380  175.4970  137.2720 C   0  0  0  0  0  0  0  0  0  0  0  0
  184.0710  174.3130  137.2530 C   0  0  0  0  0  0  0  0  0  0  0  0
  182.7170  174.3830  137.2360 F   0  0  0  0  0  0  0  0  0  0  0  0
  187.2640  176.5420  137.2230 C   0  0  0  0  0  0  0  0  0  0  0  0
  188.7110  176.3080  136.9810 C   0  0  0  0  0  3  0  0  0  0  0  0
  187.1370  177.8680  137.3650 C   0  0  0  0  0  0  0  0  0  0  0  0
  182.3930  177.4730  135.7080 C   0  0  0  0  0  2  0  0  0  0  0  0
  181.1890  178.0840  137.8810 C   0  0  0  0  0  2  0  0  0  0  0  0
  183.8830  171.8740  137.1830 N   0  0  0  0  0  2  0  0  0  0  0  0
  183.7870  171.1080  136.0700 O   0  0  0  0  0  0  0  0  0  0  0  0
  182.6700  171.5920  135.3830 C   0  0  0  0  0  2  0  0  0  0  0  0
  181.3870  171.1270  136.0620 C   0  0  0  0  0  2  0  0  0  0  0  0
  179.1740  174.4750  137.5890 C   0  0  0  0  0  3  0  0  0  0  0  0
  180.1690  173.2830  135.7280 C   0  0  0  0  0  3  0  0  0  0  0  0
  180.3220  172.3760  137.9690 C   0  0  0  0  0  3  0  0  0  0  0  0
  180.6060  172.2800  136.6000 C   0  0  0  0  0  0  0  0  0  0  0  0
  179.4510  174.3790  136.2220 C   0  0  0  0  0  3  0  0  0  0  0  0
  179.6080  173.4730  138.4630 C   0  0  0  0  0  3  0  0  0  0  0  0
  181.4620  176.6700  139.8640 N   0  0  0  0  0  2  0  0  0  0  0  0
  180.2700  177.4860  140.0280 C   0  0  0  0  0  2  0  0  0  0  0  0
  179.0680  175.7370  141.3390 O   0  0  0  0  0  0  0  0  0  0  0  0
  179.3120  177.8590  142.1740 O   0  0  0  0  0  1  0  0  0  0  0  0
  179.5240  177.0450  141.2380 C   0  0  0  0  0  0  0  0  0  0  0  0
  1 13  1  0  0  0  0
  2 23  2  0  0  0  0
  2  8  1  0  0  0  0
  3 11  2  0  0  0  0
  3 12  1  0  0  0  0
  4 13  1  1  0  0  0
  4  7  1  0  0  0  0
  5 15  1  0  0  0  0
  6 15  1  6  0  0  0
  6  4  1  0  0  0  0
  7 14  2  0  0  0  0
  8 17  2  0  0  0  0
  8 24  1  0  0  0  0
  9 14  1  0  0  0  0
 10  6  1  0  0  0  0
 10 37  1  1  0  0  0
 11 20  1  0  0  0  0
 12 16  2  0  0  0  0
 13  9  2  0  0  0  0
 16 19  1  0  0  0  0
 18 26  1  0  0  0  0
 19 15  1  0  0  0  0
 20 19  2  0  0  0  0
 21 20  1  0  0  0  0
 22 16  1  0  0  0  0
 22 24  2  0  0  0  0
 23 22  1  0  0  0  0
 24  1  1  0  0  0  0
 25  5  1  0  0  0  0
 25 18  1  0  0  0  0
 26 10  1  0  0  0  0
 27 11  1  0  0  0  0
 28 27  1  0  0  0  0
 29 30  1  0  0  0  0
 29 28  1  0  0  0  0
 30 34  1  0  0  0  0
 31 36  1  0  0  0  0
 32 35  1  0  0  0  0
 32 34  2  0  0  0  0
 33 36  2  0  0  0  0
 34 33  1  0  0  0  0
 35 31  2  0  0  0  0
 37 38  1  0  0  0  0
 38 41  1  0  0  0  0
 41 39  2  0  0  0  0
 41 40  1  0  0  0  0
M  END
>  <MODEL>
5

>  <REMARK>
 VINA RESULT:      -6.9      4.223      9.131
  Name = 
  8 active torsions:
  status: ('A' for Active; 'I' for Inactive)
    1  A    between atoms: N_3  and  O_14
    2  A    between atoms: N_3  and  C_21
    3  A    between atoms: N_9  and  C_20
    4  A    between atoms: N_9  and  C_29
    5  A    between atoms: O_14  and  C_41
    6  A    between atoms: C_17  and  C_27
    7  A    between atoms: C_24  and  C_29
    8  A    between atoms: C_27  and  C_41
                            x       y       z     vdW  Elec       q    Type
                         _______ _______ _______ _____ _____    ______ ____

>  <TORSDO>
F 8

$$$$
=
 OpenBabel11042412373D

 41 46  0  0  1  0  0  0  0  0999 V2000
  180.3430  175.9720  138.1040 O   0  0  0  0  0  0  0  0  0  0  0  0
  181.6600  172.7750  136.8810 N   0  0  0  0  0  0  0  0  0  0  0  0
  185.8670  176.3930  136.9830 C   0  0  0  0  0  3  0  0  0  0  0  0
  180.0320  178.4380  137.7210 C   0  0  1  0  0  3  0  0  0  0  0  0
  181.9180  177.3570  140.0790 C   0  0  0  0  0  2  0  0  0  0  0  0
  181.5020  178.7980  137.9860 C   0  0  1  0  0  3  0  0  0  0  0  0
  179.5650  179.1150  136.5200 N   0  0  0  0  0  0  0  0  0  0  0  0
  180.6160  173.5990  137.3600 C   0  0  0  0  0  0  0  0  0  0  0  0
  179.5620  176.8910  136.0680 N   0  0  0  0  0  0  0  0  0  0  0  0
  181.7130  180.1700  138.6350 C   0  0  2  0  0  3  0  0  0  0  0  0
  185.7870  177.6390  137.5950 C   0  0  0  0  0  0  0  0  0  0  0  0
  184.7470  175.5700  136.9300 C   0  0  0  0  0  3  0  0  0  0  0  0
  179.9590  177.0270  137.2870 C   0  0  0  0  0  0  0  0  0  0  0  0
  179.3140  178.2180  135.6190 C   0  0  0  0  0  3  0  0  0  0  0  0
  182.2360  177.7420  138.7030 N   0  0  0  0  0  0  0  0  0  0  0  0
  183.5090  175.9500  137.4790 C   0  0  0  0  0  0  0  0  0  0  0  0
  179.4300  173.2120  137.5210 O   0  0  0  0  0  0  0  0  0  0  0  0
  180.7160  179.3680  140.8940 C   0  0  0  0  0  2  0  0  0  0  0  0
  183.4310  177.2350  138.1080 C   0  0  0  0  0  0  0  0  0  0  0  0
  184.5760  178.0570  138.1550 C   0  0  0  0  0  0  0  0  0  0  0  0
  184.5210  179.2610  138.7770 F   0  0  0  0  0  0  0  0  0  0  0  0
  182.4290  174.9070  137.3610 C   0  0  0  0  0  0  0  0  0  0  0  0
  182.7140  173.5310  136.8800 C   0  0  0  0  0  3  0  0  0  0  0  0
  181.1180  174.9240  137.6330 C   0  0  0  0  0  0  0  0  0  0  0  0
  181.9880  178.5470  141.0270 C   0  0  0  0  0  2  0  0  0  0  0  0
  180.7960  180.4700  139.8320 C   0  0  0  0  0  2  0  0  0  0  0  0
  186.9370  178.4850  137.6730 N   0  0  0  0  0  2  0  0  0  0  0  0
  187.5800  178.7150  138.8430 O   0  0  0  0  0  0  0  0  0  0  0  0
  188.3080  177.5500  139.1000 C   0  0  0  0  0  2  0  0  0  0  0  0
  189.5460  177.8690  139.9300 C   0  0  0  0  0  2  0  0  0  0  0  0
  189.0250  176.7380  144.0400 C   0  0  0  0  0  3  0  0  0  0  0  0
  188.1690  177.7530  142.0120 C   0  0  0  0  0  3  0  0  0  0  0  0
  190.3960  176.8010  142.0440 C   0  0  0  0  0  3  0  0  0  0  0  0
  189.3690  177.4590  141.3550 C   0  0  0  0  0  0  0  0  0  0  0  0
  187.9960  177.3900  143.3530 C   0  0  0  0  0  3  0  0  0  0  0  0
  190.2250  176.4420  143.3850 C   0  0  0  0  0  3  0  0  0  0  0  0
  181.5930  181.2210  137.6400 N   0  0  0  0  0  2  0  0  0  0  0  0
  180.8180  182.2910  138.2450 C   0  0  0  0  0  2  0  0  0  0  0  0
  180.6250  183.0880  135.8890 O   0  0  0  0  0  0  0  0  0  0  0  0
  180.3660  184.5470  137.6390 O   0  0  0  0  0  1  0  0  0  0  0  0
  180.5930  183.3730  137.2480 C   0  0  0  0  0  0  0  0  0  0  0  0
  2  8  1  0  0  0  0
  3 11  1  0  0  0  0
  4  7  1  6  0  0  0
  4  6  1  0  0  0  0
  5 25  1  0  0  0  0
  6 10  1  0  0  0  0
  6 15  1  1  0  0  0
  8 17  2  0  0  0  0
  8 24  1  0  0  0  0
  9 13  2  0  0  0  0
 10 37  1  6  0  0  0
 10 26  1  0  0  0  0
 11 27  1  0  0  0  0
 11 20  2  0  0  0  0
 12  3  2  0  0  0  0
 12 16  1  0  0  0  0
 13  4  1  0  0  0  0
 13  1  1  0  0  0  0
 14  9  1  0  0  0  0
 14  7  2  0  0  0  0
 15  5  1  0  0  0  0
 16 19  2  0  0  0  0
 18 25  1  0  0  0  0
 19 20  1  0  0  0  0
 19 15  1  0  0  0  0
 20 21  1  0  0  0  0
 22 16  1  0  0  0  0
 22 24  2  0  0  0  0
 23  2  2  0  0  0  0
 23 22  1  0  0  0  0
 24  1  1  0  0  0  0
 26 18  1  0  0  0  0
 27 28  1  0  0  0  0
 28 29  1  0  0  0  0
 29 30  1  0  0  0  0
 30 34  1  0  0  0  0
 32 35  1  0  0  0  0
 33 36  2  0  0  0  0
 34 32  2  0  0  0  0
 34 33  1  0  0  0  0
 35 31  2  0  0  0  0
 36 31  1  0  0  0  0
 37 38  1  0  0  0  0
 39 41  2  0  0  0  0
 41 40  1  0  0  0  0
 41 38  1  0  0  0  0
M  END
>  <MODEL>
6

>  <REMARK>
 VINA RESULT:      -6.5      3.415      7.515
  Name = 
  8 active torsions:
  status: ('A' for Active; 'I' for Inactive)
    1  A    between atoms: N_3  and  O_14
    2  A    between atoms: N_3  and  C_21
    3  A    between atoms: N_9  and  C_20
    4  A    between atoms: N_9  and  C_29
    5  A    between atoms: O_14  and  C_41
    6  A    between atoms: C_17  and  C_27
    7  A    between atoms: C_24  and  C_29
    8  A    between atoms: C_27  and  C_41
                            x       y       z     vdW  Elec       q    Type
                         _______ _______ _______ _____ _____    ______ ____

>  <TORSDO>
F 8

$$$$
=
 OpenBabel11042412373D

 41 46  0  0  1  0  0  0  0  0999 V2000
  188.6730  175.7140  135.3740 O   0  0  0  0  0  0  0  0  0  0  0  0
  185.7770  177.4940  136.7510 N   0  0  0  0  0  0  0  0  0  0  0  0
  189.7340  177.4670  140.6430 C   0  0  0  0  0  3  0  0  0  0  0  0
  190.3410  173.8470  135.6120 C   0  0  1  0  0  3  0  0  0  0  0  0
  191.2580  176.9140  135.7970 C   0  0  0  0  0  2  0  0  0  0  0  0
  191.1340  174.5220  136.7410 C   0  0  1  0  0  3  0  0  0  0  0  0
  190.0940  172.4510  135.9460 N   0  0  0  0  0  0  0  0  0  0  0  0
  186.4420  176.7930  135.7200 C   0  0  0  0  0  0  0  0  0  0  0  0
  188.0770  173.4900  135.9220 N   0  0  0  0  0  0  0  0  0  0  0  0
  192.6360  174.2180  136.7340 C   0  0  2  0  0  3  0  0  0  0  0  0
  191.0440  177.0720  140.3950 C   0  0  0  0  0  0  0  0  0  0  0  0
  188.7770  177.3730  139.6370 C   0  0  0  0  0  3  0  0  0  0  0  0
  188.9620  174.3780  135.6160 C   0  0  0  0  0  0  0  0  0  0  0  0
  188.8190  172.2920  136.1120 C   0  0  0  0  0  3  0  0  0  0  0  0
  190.8750  175.9680  136.8460 N   0  0  0  0  0  0  0  0  0  0  0  0
  189.0820  176.8860  138.3530 C   0  0  0  0  0  0  0  0  0  0  0  0
  185.9350  176.5440  134.5960 O   0  0  0  0  0  0  0  0  0  0  0  0
  193.0150  175.6400  134.5940 C   0  0  0  0  0  2  0  0  0  0  0  0
  190.4330  176.4800  138.1040 C   0  0  0  0  0  0  0  0  0  0  0  0
  191.3910  176.5820  139.1330 C   0  0  0  0  0  0  0  0  0  0  0  0
  192.6800  176.2310  138.8960 F   0  0  0  0  0  0  0  0  0  0  0  0
  187.9250  176.9030  137.3900 C   0  0  0  0  0  0  0  0  0  0  0  0
  186.6340  177.5600  137.7230 C   0  0  0  0  0  3  0  0  0  0  0  0
  187.7690  176.4220  136.1500 C   0  0  0  0  0  0  0  0  0  0  0  0
  192.7480  176.8390  135.4890 C   0  0  0  0  0  2  0  0  0  0  0  0
  193.3160  174.3480  135.3610 C   0  0  0  0  0  2  0  0  0  0  0  0
  192.0410  177.1810  141.4160 N   0  0  0  0  0  2  0  0  0  0  0  0
  191.8450  176.6900  142.6630 O   0  0  0  0  0  0  0  0  0  0  0  0
  191.6450  177.8110  143.4740 C   0  0  0  0  0  2  0  0  0  0  0  0
  191.5980  177.4030  144.9420 C   0  0  0  0  0  2  0  0  0  0  0  0
  187.5870  177.4240  146.4760 C   0  0  0  0  0  3  0  0  0  0  0  0
  189.9690  177.1340  146.8180 C   0  0  0  0  0  3  0  0  0  0  0  0
  189.1220  177.7220  144.6260 C   0  0  0  0  0  3  0  0  0  0  0  0
  190.2010  177.4270  145.4700 C   0  0  0  0  0  0  0  0  0  0  0  0
  188.6630  177.1350  147.3220 C   0  0  0  0  0  3  0  0  0  0  0  0
  187.8160  177.7190  145.1280 C   0  0  0  0  0  3  0  0  0  0  0  0
  192.8860  172.9010  137.2910 N   0  0  0  0  0  2  0  0  0  0  0  0
  194.1200  172.4160  136.6960 C   0  0  0  0  0  2  0  0  0  0  0  0
  196.0990  173.3140  137.9210 O   0  0  0  0  0  0  0  0  0  0  0  0
  195.2100  171.2740  138.4760 O   0  0  0  0  0  1  0  0  0  0  0  0
  195.1700  172.2970  137.7450 C   0  0  0  0  0  0  0  0  0  0  0  0
  1 13  1  0  0  0  0
  1 24  1  0  0  0  0
  2 23  2  0  0  0  0
  4 13  1  1  0  0  0
  4  7  1  0  0  0  0
  4  6  1  0  0  0  0
  5 15  1  0  0  0  0
  6 15  1  6  0  0  0
  7 14  2  0  0  0  0
  8 24  1  0  0  0  0
  8  2  1  0  0  0  0
  9 14  1  0  0  0  0
 10  6  1  0  0  0  0
 10 37  1  6  0  0  0
 11  3  1  0  0  0  0
 11 27  1  0  0  0  0
 12  3  2  0  0  0  0
 13  9  2  0  0  0  0
 15 19  1  0  0  0  0
 16 12  1  0  0  0  0
 17  8  2  0  0  0  0
 18 26  1  0  0  0  0
 18 25  1  0  0  0  0
 19 16  2  0  0  0  0
 19 20  1  0  0  0  0
 20 11  2  0  0  0  0
 21 20  1  0  0  0  0
 22 23  1  0  0  0  0
 22 16  1  0  0  0  0
 24 22  2  0  0  0  0
 25  5  1  0  0  0  0
 26 10  1  0  0  0  0
 27 28  1  0  0  0  0
 28 29  1  0  0  0  0
 29 30  1  0  0  0  0
 30 34  1  0  0  0  0
 31 35  1  0  0  0  0
 32 35  2  0  0  0  0
 33 36  1  0  0  0  0
 33 34  2  0  0  0  0
 34 32  1  0  0  0  0
 36 31  2  0  0  0  0
 38 37  1  0  0  0  0
 38 41  1  0  0  0  0
 41 39  2  0  0  0  0
 41 40  1  0  0  0  0
M  END
>  <MODEL>
7

>  <REMARK>
 VINA RESULT:      -6.2      2.477      3.711
  Name = 
  8 active torsions:
  status: ('A' for Active; 'I' for Inactive)
    1  A    between atoms: N_3  and  O_14
    2  A    between atoms: N_3  and  C_21
    3  A    between atoms: N_9  and  C_20
    4  A    between atoms: N_9  and  C_29
    5  A    between atoms: O_14  and  C_41
    6  A    between atoms: C_17  and  C_27
    7  A    between atoms: C_24  and  C_29
    8  A    between atoms: C_27  and  C_41
                            x       y       z     vdW  Elec       q    Type
                         _______ _______ _______ _____ _____    ______ ____

>  <TORSDO>
F 8

$$$$
=
 OpenBabel11042412373D

 41 46  0  0  1  0  0  0  0  0999 V2000
  190.7230  177.1100  137.6240 O   0  0  0  0  0  0  0  0  0  0  0  0
  193.1370  174.3860  137.1730 N   0  0  0  0  0  0  0  0  0  0  0  0
  188.0530  172.2270  136.6320 C   0  0  0  0  0  3  0  0  0  0  0  0
  188.7220  178.0050  138.8560 C   0  0  1  0  0  3  0  0  0  0  0  0
  188.5400  177.2370  135.7480 C   0  0  0  0  0  2  0  0  0  0  0  0
  187.7190  177.0580  138.1820 C   0  0  1  0  0  3  0  0  0  0  0  0
  188.4840  178.0370  140.2920 N   0  0  0  0  0  0  0  0  0  0  0  0
  192.8060  175.7390  137.4150 C   0  0  0  0  0  0  0  0  0  0  0  0
  190.5180  177.0800  139.9820 N   0  0  0  0  0  0  0  0  0  0  0  0
  186.3230  177.6550  137.9730 C   0  0  2  0  0  3  0  0  0  0  0  0
  186.9030  173.0020  136.5250 C   0  0  0  0  0  0  0  0  0  0  0  0
  189.2860  172.8370  136.8430 C   0  0  0  0  0  3  0  0  0  0  0  0
  190.0630  177.3850  138.8140 C   0  0  0  0  0  0  0  0  0  0  0  0
  189.5090  177.5110  140.8860 C   0  0  0  0  0  3  0  0  0  0  0  0
  188.2370  176.4510  136.9450 N   0  0  0  0  0  0  0  0  0  0  0  0
  189.4240  174.2320  136.9570 C   0  0  0  0  0  0  0  0  0  0  0  0
  193.6520  176.6490  137.6030 O   0  0  0  0  0  0  0  0  0  0  0  0
  187.1800  179.2760  136.1340 C   0  0  0  0  0  2  0  0  0  0  0  0
  188.2370  175.0250  136.8470 C   0  0  0  0  0  0  0  0  0  0  0  0
  186.9950  174.3930  136.6320 C   0  0  0  0  0  0  0  0  0  0  0  0
  185.8700  175.1380  136.4940 F   0  0  0  0  0  0  0  0  0  0  0  0
  190.8430  174.7040  137.1390 C   0  0  0  0  0  0  0  0  0  0  0  0
  192.0000  173.7820  137.0130 C   0  0  0  0  0  3  0  0  0  0  0  0
  191.3720  175.9050  137.4070 C   0  0  0  0  0  0  0  0  0  0  0  0
  187.3290  178.0300  135.2750 C   0  0  0  0  0  2  0  0  0  0  0  0
  186.3060  179.0720  137.3760 C   0  0  0  0  0  2  0  0  0  0  0  0
  185.6330  172.3880  136.2890 N   0  0  0  0  0  2  0  0  0  0  0  0
  184.7060  172.2610  137.2680 O   0  0  0  0  0  0  0  0  0  0  0  0
  183.4720  172.2560  136.6100 C   0  0  0  0  0  2  0  0  0  0  0  0
  183.0560  173.6770  136.2490 C   0  0  0  0  0  2  0  0  0  0  0  0
  181.0390  175.6290  139.4990 C   0  0  0  0  0  3  0  0  0  0  0  0
  181.0140  174.0870  137.6300 C   0  0  0  0  0  3  0  0  0  0  0  0
  183.0560  175.2530  138.2110 C   0  0  0  0  0  3  0  0  0  0  0  0
  182.3670  174.3500  137.3900 C   0  0  0  0  0  0  0  0  0  0  0  0
  180.3510  174.7240  138.6850 C   0  0  0  0  0  3  0  0  0  0  0  0
  182.3930  175.8920  139.2630 C   0  0  0  0  0  3  0  0  0  0  0  0
  185.5720  177.6290  139.2160 N   0  0  0  0  0  2  0  0  0  0  0  0
  185.1500  178.9940  139.4840 C   0  0  0  0  0  2  0  0  0  0  0  0
  183.6590  178.6130  141.4480 O   0  0  0  0  0  0  0  0  0  0  0  0
  185.6330  179.7530  141.6870 O   0  0  0  0  0  1  0  0  0  0  0  0
  184.8330  179.1450  140.9310 C   0  0  0  0  0  0  0  0  0  0  0  0
  1 13  1  0  0  0  0
  2  8  1  0  0  0  0
  3 12  1  0  0  0  0
  4 13  1  1  0  0  0
  4  7  1  0  0  0  0
  5 15  1  0  0  0  0
  6 15  1  6  0  0  0
  6  4  1  0  0  0  0
  7 14  2  0  0  0  0
  8 17  2  0  0  0  0
  9 14  1  0  0  0  0
 10  6  1  0  0  0  0
 10 37  1  1  0  0  0
 11  3  2  0  0  0  0
 11 20  1  0  0  0  0
 12 16  2  0  0  0  0
 13  9  2  0  0  0  0
 16 22  1  0  0  0  0
 18 26  1  0  0  0  0
 19 15  1  0  0  0  0
 19 16  1  0  0  0  0
 20 19  2  0  0  0  0
 21 20  1  0  0  0  0
 22 24  2  0  0  0  0
 23 22  1  0  0  0  0
 23  2  2  0  0  0  0
 24  8  1  0  0  0  0
 24  1  1  0  0  0  0
 25  5  1  0  0  0  0
 25 18  1  0  0  0  0
 26 10  1  0  0  0  0
 27 11  1  0  0  0  0
 27 28  1  0  0  0  0
 29 28  1  0  0  0  0
 30 29  1  0  0  0  0
 30 34  1  0  0  0  0
 32 35  1  0  0  0  0
 33 36  2  0  0  0  0
 34 32  2  0  0  0  0
 34 33  1  0  0  0  0
 35 31  2  0  0  0  0
 36 31  1  0  0  0  0
 37 38  1  0  0  0  0
 38 41  1  0  0  0  0
 41 39  2  0  0  0  0
 41 40  1  0  0  0  0
M  END
>  <MODEL>
8

>  <REMARK>
 VINA RESULT:      -6.1      3.397      8.196
  Name = 
  8 active torsions:
  status: ('A' for Active; 'I' for Inactive)
    1  A    between atoms: N_3  and  O_14
    2  A    between atoms: N_3  and  C_21
    3  A    between atoms: N_9  and  C_20
    4  A    between atoms: N_9  and  C_29
    5  A    between atoms: O_14  and  C_41
    6  A    between atoms: C_17  and  C_27
    7  A    between atoms: C_24  and  C_29
    8  A    between atoms: C_27  and  C_41
                            x       y       z     vdW  Elec       q    Type
                         _______ _______ _______ _____ _____    ______ ____

>  <TORSDO>
F 8

$$$$
=
 OpenBabel11042412373D

 41 46  0  0  1  0  0  0  0  0999 V2000
  180.3920  178.5330  141.2250 O   0  0  0  0  0  0  0  0  0  0  0  0
  181.8510  178.9640  144.5620 N   0  0  0  0  0  0  0  0  0  0  0  0
  186.0370  178.6010  140.9360 C   0  0  0  0  0  3  0  0  0  0  0  0
  180.2560  177.1700  139.1150 C   0  0  1  0  0  3  0  0  0  0  0  0
  181.5170  180.1190  139.0980 C   0  0  0  0  0  2  0  0  0  0  0  0
  181.6370  177.5970  138.5950 C   0  0  1  0  0  3  0  0  0  0  0  0
  180.0990  175.7290  138.9780 N   0  0  0  0  0  0  0  0  0  0  0  0
  180.7520  178.8420  143.6810 C   0  0  0  0  0  0  0  0  0  0  0  0
  180.1270  176.1810  141.2020 N   0  0  0  0  0  0  0  0  0  0  0  0
  181.7380  177.6960  137.0690 C   0  0  2  0  0  3  0  0  0  0  0  0
  185.8580  178.6500  139.5570 C   0  0  0  0  0  0  0  0  0  0  0  0
  184.9320  178.6200  141.7810 C   0  0  0  0  0  3  0  0  0  0  0  0
  180.2390  177.3090  140.5860 C   0  0  0  0  0  0  0  0  0  0  0  0
  180.0310  175.2130  140.1640 C   0  0  0  0  0  3  0  0  0  0  0  0
  182.1530  178.8100  139.2500 N   0  0  0  0  0  0  0  0  0  0  0  0
  183.6140  178.6890  141.2950 C   0  0  0  0  0  0  0  0  0  0  0  0
  179.5490  178.8710  144.0470 O   0  0  0  0  0  0  0  0  0  0  0  0
  180.2250  179.8050  137.0040 C   0  0  0  0  0  2  0  0  0  0  0  0
  183.4360  178.7390  139.8740 C   0  0  0  0  0  0  0  0  0  0  0  0
  184.5660  178.7200  139.0300 C   0  0  0  0  0  0  0  0  0  0  0  0
  184.4080  178.8000  137.6850 F   0  0  0  0  0  0  0  0  0  0  0  0
  182.5580  178.7440  142.3660 C   0  0  0  0  0  0  0  0  0  0  0  0
  182.9010  178.9070  143.8020 C   0  0  0  0  0  3  0  0  0  0  0  0
  181.2200  178.6880  142.3250 C   0  0  0  0  0  0  0  0  0  0  0  0
  181.4060  180.5240  137.6350 C   0  0  0  0  0  2  0  0  0  0  0  0
  180.5820  178.4470  136.3890 C   0  0  0  0  0  2  0  0  0  0  0  0
  186.9870  178.6500  138.6780 N   0  0  0  0  0  2  0  0  0  0  0  0
  187.9250  177.6740  138.7170 O   0  0  0  0  0  0  0  0  0  0  0  0
  189.0310  178.2480  139.3500 C   0  0  0  0  0  2  0  0  0  0  0  0
  189.9340  177.1650  139.9280 C   0  0  0  0  0  2  0  0  0  0  0  0
  192.8910  175.9280  137.0700 C   0  0  0  0  0  3  0  0  0  0  0  0
  192.3150  176.8630  139.2300 C   0  0  0  0  0  3  0  0  0  0  0  0
  190.5660  176.1740  137.7030 C   0  0  0  0  0  3  0  0  0  0  0  0
  190.9560  176.7190  138.9340 C   0  0  0  0  0  0  0  0  0  0  0  0
  193.2830  176.4660  138.3000 C   0  0  0  0  0  3  0  0  0  0  0  0
  191.5330  175.7800  136.7720 C   0  0  0  0  0  3  0  0  0  0  0  0
  181.8830  176.3730  136.4860 N   0  0  0  0  0  2  0  0  0  0  0  0
  183.1090  175.8060  137.0220 C   0  0  0  0  0  2  0  0  0  0  0  0
  184.3330  174.3800  135.3810 O   0  0  0  0  0  0  0  0  0  0  0  0
  182.7340  173.4720  136.7510 O   0  0  0  0  0  1  0  0  0  0  0  0
  183.3750  174.4900  136.3810 C   0  0  0  0  0  0  0  0  0  0  0  0
  1 24  1  0  0  0  0
  3 12  1  0  0  0  0
  4  7  1  1  0  0  0
  4 13  1  0  0  0  0
  5 15  1  0  0  0  0
  6  4  1  0  0  0  0
  6 15  1  1  0  0  0
  7 14  2  0  0  0  0
  8 17  2  0  0  0  0
  8  2  1  0  0  0  0
 10 37  1  6  0  0  0
 10  6  1  0  0  0  0
 11  3  2  0  0  0  0
 13  9  2  0  0  0  0
 13  1  1  0  0  0  0
 14  9  1  0  0  0  0
 15 19  1  0  0  0  0
 16 12  2  0  0  0  0
 16 22  1  0  0  0  0
 18 25  1  0  0  0  0
 19 16  1  0  0  0  0
 20 11  1  0  0  0  0
 20 19  2  0  0  0  0
 21 20  1  0  0  0  0
 22 23  1  0  0  0  0
 23  2  2  0  0  0  0
 24 22  2  0  0  0  0
 24  8  1  0  0  0  0
 25  5  1  0  0  0  0
 26 18  1  0  0  0  0
 26 10  1  0  0  0  0
 27 28  1  0  0  0  0
 27 11  1  0  0  0  0
 28 29  1  0  0  0  0
 29 30  1  0  0  0  0
 31 35  1  0  0  0  0
 33 34  2  0  0  0  0
 34 32  1  0  0  0  0
 34 30  1  0  0  0  0
 35 32  2  0  0  0  0
 36 31  2  0  0  0  0
 36 33  1  0  0  0  0
 37 38  1  0  0  0  0
 39 41  2  0  0  0  0
 41 40  1  0  0  0  0
 41 38  1  0  0  0  0
M  END
>  <MODEL>
9

>  <REMARK>
 VINA RESULT:      -5.9      3.885      6.907
  Name = 
  8 active torsions:
  status: ('A' for Active; 'I' for Inactive)
    1  A    between atoms: N_3  and  O_14
    2  A    between atoms: N_3  and  C_21
    3  A    between atoms: N_9  and  C_20
    4  A    between atoms: N_9  and  C_29
    5  A    between atoms: O_14  and  C_41
    6  A    between atoms: C_17  and  C_27
    7  A    between atoms: C_24  and  C_29
    8  A    between atoms: C_27  and  C_41
                            x       y       z     vdW  Elec       q    Type
                         _______ _______ _______ _____ _____    ______ ____

>  <TORSDO>
F 8

$$$$
