=
 OpenBabel11042411483D

 53 55  0  0  1  0  0  0  0  0999 V2000
  187.2140  176.8080  137.2410 C   0  0  2  0  0  3  0  0  0  0  0  0
  187.8610  174.4610  136.5820 C   0  0  0  0  0  0  0  0  0  0  0  0
  188.6390  174.8930  135.6920 O   0  0  0  0  0  0  0  0  0  0  0  0
  187.1830  175.3670  137.4520 N   0  0  0  0  0  2  0  0  0  0  0  0
  187.6400  172.9940  136.7340 C   0  0  0  0  0  2  0  0  0  0  0  0
  186.4230  172.5920  136.0380 N   0  0  0  0  0  0  0  0  0  0  0  0
  185.2010  172.3970  136.7620 C   0  0  0  0  0  0  0  0  0  0  0  0
  184.0590  171.8330  136.1030 N   0  0  0  0  0  2  0  0  0  0  0  0
  186.4820  172.3440  134.6050 C   0  0  0  0  0  1  0  0  0  0  0  0
  185.1310  172.7200  137.9780 O   0  0  0  0  0  0  0  0  0  0  0  0
  182.7870  171.6300  136.7800 C   0  0  0  0  0  2  0  0  0  0  0  0
  181.7510  171.0590  135.8180 C   0  0  0  0  0  2  0  0  0  0  0  0
  180.3550  171.5610  136.1620 C   0  0  0  0  0  2  0  0  0  0  0  0
  179.4350  170.4460  136.2990 N   0  0  0  0  0  1  0  0  0  0  0  0
  187.4130  177.5210  138.5710 C   0  0  0  0  0  2  0  0  0  0  0  0
  189.7140  177.5490  137.6520 N   0  0  0  0  0  2  0  0  0  0  0  0
  188.8870  177.8230  138.8210 C   0  0  2  0  0  0  0  0  0  0  0  0
  189.5590  176.7480  139.6650 C   0  0  1  0  0  3  0  0  0  0  0  0
  190.3920  176.5000  138.4090 C   0  0  2  0  0  3  0  0  0  0  0  0
  189.0900  179.1260  139.2890 O   0  0  0  0  0  1  0  0  0  0  0  0
  191.7360  176.8410  138.5810 O   0  0  0  0  0  1  0  0  0  0  0  0
  191.3820  177.2240  142.9920 N   0  0  0  0  0  2  0  0  0  0  0  0
  190.5950  176.6090  141.9710 C   0  0  0  0  0  0  0  0  0  0  0  0
  190.1210  175.4520  142.1410 O   0  0  0  0  0  0  0  0  0  0  0  0
  190.3520  177.3170  140.7550 N   0  0  0  0  0  2  0  0  0  0  0  0
  191.7130  176.5320  144.2250 C   0  0  0  0  0  2  0  0  0  0  0  0
  191.1910  177.3190  145.4130 C   0  0  0  0  0  2  0  0  0  0  0  0
  190.0750  176.6660  145.9760 O   0  0  0  0  0  0  0  0  0  0  0  0
  188.9540  177.5380  146.0290 C   0  0  2  0  0  0  0  0  0  0  0  0
  189.3910  178.7850  145.5760 O   0  0  0  0  0  1  0  0  0  0  0  0
  189.5000  178.0460  148.3410 O   0  0  0  0  0  1  0  0  0  0  0  0
  188.4520  177.7170  147.4790 C   0  0  0  0  0  2  0  0  0  0  0  0
  187.8290  177.0570  145.0780 C   0  0  2  0  0  3  0  0  0  0  0  0
  187.9620  177.6340  143.8100 O   0  0  0  0  0  1  0  0  0  0  0  0
  186.5590  177.3520  145.5900 O   0  0  0  0  0  0  0  0  0  0  0  0
  184.2430  178.8240  146.2630 O   0  0  0  0  0  1  0  0  0  0  0  0
  186.0050  178.2040  144.6920 N   0  0  0  0  0  2  0  0  0  0  0  0
  184.8490  178.9710  145.0230 C   0  0  0  0  0  0  0  0  0  0  0  0
  184.3750  179.7800  144.1890 O   0  0  0  0  0  0  0  0  0  0  0  0
  185.9260  177.2740  136.5680 C   0  0  0  0  0  2  0  0  0  0  0  0
  184.8380  177.1440  137.4340 O   0  0  0  0  0  0  0  0  0  0  0  0
  183.9990  178.2130  137.1190 C   0  0  0  0  0  2  0  0  0  0  0  0
  183.5690  179.0640  139.5880 C   0  0  0  0  0  0  0  0  0  0  0  0
  180.1070  178.1610  140.7230 S   0  0  0  0  0  0  0  0  0  0  0  0
  181.8050  178.2540  138.3610 C   0  0  0  0  0  0  0  0  0  0  0  0
  183.1190  178.5470  138.2800 C   0  0  0  0  0  0  0  0  0  0  0  0
  182.2510  179.1110  141.7720 N   0  0  0  0  0  0  0  0  0  0  0  0
  180.5010  178.5790  143.4810 C   0  0  0  0  0  1  0  0  0  0  0  0
  180.9940  178.6860  142.0830 C   0  0  0  0  0  0  0  0  0  0  0  0
  182.3920  179.0870  140.4270 C   0  0  0  0  0  0  0  0  0  0  0  0
  184.7440  179.3660  139.9260 O   0  0  0  0  0  0  0  0  0  0  0  0
  180.9920  177.5750  137.3190 C   0  0  0  0  0  1  0  0  0  0  0  0
  181.3600  178.6120  139.7040 C   0  0  0  0  0  0  0  0  0  0  0  0
  1 40  1  1  0  0  0
  1  4  1  0  0  0  0
  1 15  1  0  0  0  0
  2  5  1  0  0  0  0
  2  4  1  0  0  0  0
  3  2  2  0  0  0  0
  6  5  1  0  0  0  0
  6  7  1  0  0  0  0
  7 10  2  0  0  0  0
  8  7  1  0  0  0  0
  8 11  1  0  0  0  0
  9  6  1  0  0  0  0
 12 13  1  0  0  0  0
 12 11  1  0  0  0  0
 13 14  1  0  0  0  0
 15 17  1  0  0  0  0
 16 19  1  0  0  0  0
 16 17  1  0  0  0  0
 17 20  1  1  0  0  0
 17 18  1  0  0  0  0
 18 25  1  1  0  0  0
 19 21  1  1  0  0  0
 19 18  1  0  0  0  0
 22 26  1  0  0  0  0
 23 24  2  0  0  0  0
 23 22  1  0  0  0  0
 25 23  1  0  0  0  0
 26 27  1  0  0  0  0
 27 28  1  0  0  0  0
 28 29  1  0  0  0  0
 29 30  1  6  0  0  0
 29 32  1  0  0  0  0
 32 31  1  0  0  0  0
 33 34  1  6  0  0  0
 33 35  1  0  0  0  0
 33 29  1  0  0  0  0
 37 38  1  0  0  0  0
 37 35  1  0  0  0  0
 38 36  1  0  0  0  0
 39 38  2  0  0  0  0
 40 41  1  0  0  0  0
 42 41  1  0  0  0  0
 42 46  1  0  0  0  0
 43 51  2  0  0  0  0
 43 50  1  0  0  0  0
 44 49  1  0  0  0  0
 45 53  1  0  0  0  0
 46 45  2  0  0  0  0
 46 43  1  0  0  0  0
 47 49  2  0  0  0  0
 49 48  1  0  0  0  0
 50 47  1  0  0  0  0
 52 45  1  0  0  0  0
 53 50  2  0  0  0  0
 53 44  1  0  0  0  0
M  END
>  <MODEL>
1

>  <REMARK>
 VINA RESULT:      -6.4      0.000      0.000
  Name = 
  21 active torsions:
  status: ('A' for Active; 'I' for Inactive)
    1  A    between atoms: C_3  and  C_21
    2  A    between atoms: C_3  and  C_41
    3  A    between atoms: C_3  and  O_51
    4  A    between atoms: N_4  and  C_32
    5  A    between atoms: C_5  and  N_28
    6  A    between atoms: C_5  and  C_33
    7  A    between atoms: O_7  and  N_11
    8  A    between atoms: O_7  and  C_41
    9  A    between atoms: C_8  and  C_44
   10  A    between atoms: N_10  and  C_44
   11  A    between atoms: C_12  and  C_15
   12  A    between atoms: C_14  and  C_33
   13  A    between atoms: C_15  and  C_39
   14  A    between atoms: C_20  and  C_45
   15  A    between atoms: C_22  and  N_46
   16  A    between atoms: C_25  and  C_32
   17  A    between atoms: C_25  and  O_51
   18  A    between atoms: C_37  and  C_39
   19  A    between atoms: C_37  and  O_53
   20  A    between atoms: C_39  and  N_42
   21  A    between atoms: C_45  and  O_53
                            x       y       z     vdW  Elec       q    Type
                         _______ _______ _______ _____ _____    ______ ____

>  <TORSDO>
F 21

$$$$
=
 OpenBabel11042411483D

 53 55  0  0  1  0  0  0  0  0999 V2000
  183.9300  178.9890  140.1020 C   0  0  2  0  0  3  0  0  0  0  0  0
  185.4360  178.2680  138.2130 C   0  0  0  0  0  0  0  0  0  0  0  0
  184.7310  177.2460  138.0000 O   0  0  0  0  0  0  0  0  0  0  0  0
  185.0420  179.2270  139.1930 N   0  0  0  0  0  2  0  0  0  0  0  0
  186.6940  178.4820  137.4400 C   0  0  0  0  0  2  0  0  0  0  0  0
  187.8450  178.0300  138.2140 N   0  0  0  0  0  0  0  0  0  0  0  0
  188.9020  177.2960  137.5830 C   0  0  0  0  0  0  0  0  0  0  0  0
  189.9380  176.7050  138.3780 N   0  0  0  0  0  2  0  0  0  0  0  0
  187.8770  178.2930  139.6450 C   0  0  0  0  0  1  0  0  0  0  0  0
  188.9200  177.1700  136.3290 O   0  0  0  0  0  0  0  0  0  0  0  0
  191.0470  175.9660  137.7940 C   0  0  0  0  0  2  0  0  0  0  0  0
  192.3760  176.4460  138.3680 C   0  0  0  0  0  2  0  0  0  0  0  0
  193.5420  175.6890  137.7440 C   0  0  0  0  0  2  0  0  0  0  0  0
  194.2100  176.5160  136.7540 N   0  0  0  0  0  1  0  0  0  0  0  0
  182.8010  179.9670  139.8070 C   0  0  0  0  0  2  0  0  0  0  0  0
  180.3740  179.8130  139.3310 N   0  0  0  0  0  2  0  0  0  0  0  0
  181.6970  179.3050  138.9880 C   0  0  2  0  0  0  0  0  0  0  0  0
  181.3870  177.8960  139.4730 C   0  0  1  0  0  3  0  0  0  0  0  0
  180.0190  178.4820  139.8180 C   0  0  2  0  0  3  0  0  0  0  0  0
  181.9310  179.3960  137.6120 O   0  0  0  0  0  1  0  0  0  0  0  0
  178.9940  177.9520  139.0300 O   0  0  0  0  0  1  0  0  0  0  0  0
  181.0040  174.6650  137.4640 N   0  0  0  0  0  2  0  0  0  0  0  0
  181.0610  175.5470  138.5860 C   0  0  0  0  0  0  0  0  0  0  0  0
  180.8850  175.1040  139.7560 O   0  0  0  0  0  0  0  0  0  0  0  0
  181.3170  176.9350  138.3720 N   0  0  0  0  0  2  0  0  0  0  0  0
  180.6880  173.2550  137.6130 C   0  0  0  0  0  2  0  0  0  0  0  0
  181.5160  172.4370  136.6390 C   0  0  0  0  0  2  0  0  0  0  0  0
  182.7390  172.0630  137.2350 O   0  0  0  0  0  0  0  0  0  0  0  0
  183.8120  172.2050  136.3150 C   0  0  2  0  0  0  0  0  0  0  0  0
  183.4700  173.2490  135.4520 O   0  0  0  0  0  1  0  0  0  0  0  0
  183.7760  169.7770  136.2160 O   0  0  0  0  0  1  0  0  0  0  0  0
  183.9860  170.9300  135.4580 C   0  0  0  0  0  2  0  0  0  0  0  0
  185.1210  172.6020  137.0420 C   0  0  2  0  0  3  0  0  0  0  0  0
  185.2460  173.9930  137.1270 O   0  0  0  0  0  1  0  0  0  0  0  0
  186.2490  172.0740  136.4000 O   0  0  0  0  0  0  0  0  0  0  0  0
  188.6890  172.8580  135.2110 O   0  0  0  0  0  0  0  0  0  0  0  0
  187.3000  172.4420  137.1730 N   0  0  0  0  0  2  0  0  0  0  0  0
  188.5320  172.8610  136.5900 C   0  0  0  0  0  0  0  0  0  0  0  0
  189.4790  173.2300  137.3250 O   0  0  0  0  0  1  0  0  0  0  0  0
  184.3900  179.1210  141.5510 C   0  0  0  0  0  2  0  0  0  0  0  0
  185.6110  178.4720  141.7460 O   0  0  0  0  0  0  0  0  0  0  0  0
  185.4180  177.6750  142.8740 C   0  0  0  0  0  2  0  0  0  0  0  0
  187.9470  177.2250  143.5090 C   0  0  0  0  0  0  0  0  0  0  0  0
  188.5180  177.7810  147.1770 S   0  0  0  0  0  0  0  0  0  0  0  0
  186.5580  178.1860  145.0640 C   0  0  0  0  0  0  0  0  0  0  0  0
  186.6000  177.7620  143.7840 C   0  0  0  0  0  0  0  0  0  0  0  0
  189.8240  176.8140  145.1890 N   0  0  0  0  0  0  0  0  0  0  0  0
  191.0010  176.4640  147.3700 C   0  0  0  0  0  1  0  0  0  0  0  0
  189.8930  177.0000  146.5370 C   0  0  0  0  0  0  0  0  0  0  0  0
  188.7010  177.4120  144.7290 C   0  0  0  0  0  0  0  0  0  0  0  0
  188.3450  176.6640  142.4540 O   0  0  0  0  0  0  0  0  0  0  0  0
  185.3520  178.6600  145.7920 C   0  0  0  0  0  1  0  0  0  0  0  0
  187.8840  177.9760  145.6380 C   0  0  0  0  0  0  0  0  0  0  0  0
  1 15  1  6  0  0  0
  1 40  1  0  0  0  0
  2  4  1  0  0  0  0
  3  2  2  0  0  0  0
  4  1  1  0  0  0  0
  5  2  1  0  0  0  0
  5  6  1  0  0  0  0
  6  9  1  0  0  0  0
  7  6  1  0  0  0  0
  7  8  1  0  0  0  0
 10  7  2  0  0  0  0
 11 12  1  0  0  0  0
 11  8  1  0  0  0  0
 13 12  1  0  0  0  0
 14 13  1  0  0  0  0
 16 19  1  0  0  0  0
 17 20  1  6  0  0  0
 17 16  1  0  0  0  0
 17 18  1  0  0  0  0
 17 15  1  0  0  0  0
 18 25  1  6  0  0  0
 18 19  1  0  0  0  0
 19 21  1  6  0  0  0
 22 26  1  0  0  0  0
 22 23  1  0  0  0  0
 23 24  2  0  0  0  0
 25 23  1  0  0  0  0
 27 28  1  0  0  0  0
 27 26  1  0  0  0  0
 29 30  1  6  0  0  0
 29 33  1  0  0  0  0
 29 28  1  0  0  0  0
 32 31  1  0  0  0  0
 32 29  1  0  0  0  0
 33 34  1  6  0  0  0
 35 33  1  0  0  0  0
 35 37  1  0  0  0  0
 36 38  2  0  0  0  0
 38 37  1  0  0  0  0
 38 39  1  0  0  0  0
 40 41  1  0  0  0  0
 41 42  1  0  0  0  0
 42 46  1  0  0  0  0
 43 46  1  0  0  0  0
 43 50  1  0  0  0  0
 45 53  1  0  0  0  0
 45 52  1  0  0  0  0
 46 45  2  0  0  0  0
 47 49  2  0  0  0  0
 49 44  1  0  0  0  0
 49 48  1  0  0  0  0
 50 47  1  0  0  0  0
 50 53  2  0  0  0  0
 51 43  2  0  0  0  0
 53 44  1  0  0  0  0
M  END
>  <MODEL>
2

>  <REMARK>
 VINA RESULT:      -6.0      2.929      9.752
  Name = 
  21 active torsions:
  status: ('A' for Active; 'I' for Inactive)
    1  A    between atoms: C_3  and  C_21
    2  A    between atoms: C_3  and  C_41
    3  A    between atoms: C_3  and  O_51
    4  A    between atoms: N_4  and  C_32
    5  A    between atoms: C_5  and  N_28
    6  A    between atoms: C_5  and  C_33
    7  A    between atoms: O_7  and  N_11
    8  A    between atoms: O_7  and  C_41
    9  A    between atoms: C_8  and  C_44
   10  A    between atoms: N_10  and  C_44
   11  A    between atoms: C_12  and  C_15
   12  A    between atoms: C_14  and  C_33
   13  A    between atoms: C_15  and  C_39
   14  A    between atoms: C_20  and  C_45
   15  A    between atoms: C_22  and  N_46
   16  A    between atoms: C_25  and  C_32
   17  A    between atoms: C_25  and  O_51
   18  A    between atoms: C_37  and  C_39
   19  A    between atoms: C_37  and  O_53
   20  A    between atoms: C_39  and  N_42
   21  A    between atoms: C_45  and  O_53
                            x       y       z     vdW  Elec       q    Type
                         _______ _______ _______ _____ _____    ______ ____

>  <TORSDO>
F 21

$$$$
=
 OpenBabel11042411483D

 53 55  0  0  1  0  0  0  0  0999 V2000
  186.1520  176.1080  136.6650 C   0  0  2  0  0  3  0  0  0  0  0  0
  185.6080  178.0870  138.1310 C   0  0  0  0  0  0  0  0  0  0  0  0
  186.8170  178.2180  138.4550 O   0  0  0  0  0  0  0  0  0  0  0  0
  185.2190  177.1050  137.1710 N   0  0  0  0  0  2  0  0  0  0  0  0
  184.5690  178.9580  138.7520 C   0  0  0  0  0  2  0  0  0  0  0  0
  184.1450  178.4040  140.0320 N   0  0  0  0  0  0  0  0  0  0  0  0
  184.8070  178.7870  141.2460 C   0  0  0  0  0  0  0  0  0  0  0  0
  184.5040  178.1100  142.4720 N   0  0  0  0  0  2  0  0  0  0  0  0
  183.0740  177.4190  140.0530 C   0  0  0  0  0  1  0  0  0  0  0  0
  185.6550  179.7200  141.2330 O   0  0  0  0  0  0  0  0  0  0  0  0
  185.1280  178.4670  143.7370 C   0  0  0  0  0  2  0  0  0  0  0  0
  184.0760  178.9030  144.7520 C   0  0  0  0  0  2  0  0  0  0  0  0
  182.6710  178.6580  144.2170 C   0  0  0  0  0  2  0  0  0  0  0  0
  182.1470  179.8670  143.6050 N   0  0  0  0  0  1  0  0  0  0  0  0
  187.0640  176.7350  135.6200 C   0  0  0  0  0  2  0  0  0  0  0  0
  188.4810  174.8530  134.8510 N   0  0  0  0  0  2  0  0  0  0  0  0
  188.4440  176.0850  135.6300 C   0  0  2  0  0  0  0  0  0  0  0  0
  188.7370  175.3750  136.9450 C   0  0  1  0  0  3  0  0  0  0  0  0
  188.7580  174.1150  136.0810 C   0  0  2  0  0  3  0  0  0  0  0  0
  189.4490  176.9700  135.2240 O   0  0  0  0  0  1  0  0  0  0  0  0
  190.0290  173.5380  136.0060 O   0  0  0  0  0  1  0  0  0  0  0  0
  191.5570  176.8080  139.0920 N   0  0  0  0  0  2  0  0  0  0  0  0
  190.2350  176.5240  138.6310 C   0  0  0  0  0  0  0  0  0  0  0  0
  189.2320  176.9870  139.2430 O   0  0  0  0  0  0  0  0  0  0  0  0
  190.0600  175.7100  137.4720 N   0  0  0  0  0  2  0  0  0  0  0  0
  191.7970  177.5810  140.2980 C   0  0  0  0  0  2  0  0  0  0  0  0
  191.5750  176.7100  141.5210 C   0  0  0  0  0  2  0  0  0  0  0  0
  191.4460  177.5140  142.6730 O   0  0  0  0  0  0  0  0  0  0  0  0
  190.3480  177.0840  143.4660 C   0  0  2  0  0  0  0  0  0  0  0  0
  190.8340  176.1000  144.3310 O   0  0  0  0  0  1  0  0  0  0  0  0
  188.1660  176.0200  143.3730 O   0  0  0  0  0  1  0  0  0  0  0  0
  189.2480  176.4380  142.5960 C   0  0  0  0  0  2  0  0  0  0  0  0
  189.7990  178.2450  144.3330 C   0  0  2  0  0  3  0  0  0  0  0  0
  190.6810  179.3310  144.3350 O   0  0  0  0  0  1  0  0  0  0  0  0
  189.5620  177.8380  145.6530 O   0  0  0  0  0  0  0  0  0  0  0  0
  188.3980  177.2700  148.1640 O   0  0  0  0  0  1  0  0  0  0  0  0
  188.2490  178.0940  145.8720 N   0  0  0  0  0  2  0  0  0  0  0  0
  187.6500  177.8340  147.1400 C   0  0  0  0  0  0  0  0  0  0  0  0
  186.4420  178.1120  147.3300 O   0  0  0  0  0  0  0  0  0  0  0  0
  185.3950  174.9220  136.0760 C   0  0  0  0  0  2  0  0  0  0  0  0
  184.5860  175.3270  135.0120 O   0  0  0  0  0  0  0  0  0  0  0  0
  183.5950  174.3500  134.9200 C   0  0  0  0  0  2  0  0  0  0  0  0
  181.8300  176.0370  135.9410 C   0  0  0  0  0  0  0  0  0  0  0  0
  180.1570  174.5520  138.9550 S   0  0  0  0  0  0  0  0  0  0  0  0
  181.8890  173.8760  136.7150 C   0  0  0  0  0  0  0  0  0  0  0  0
  182.4350  174.6980  135.7960 C   0  0  0  0  0  0  0  0  0  0  0  0
  180.2700  176.8400  137.7930 N   0  0  0  0  0  0  0  0  0  0  0  0
  179.0720  176.9380  139.9880 C   0  0  0  0  0  1  0  0  0  0  0  0
  179.7720  176.2130  138.8960 C   0  0  0  0  0  0  0  0  0  0  0  0
  180.8510  175.9130  136.9980 C   0  0  0  0  0  0  0  0  0  0  0  0
  182.1410  177.0860  135.3170 O   0  0  0  0  0  0  0  0  0  0  0  0
  182.3160  172.4840  137.0120 C   0  0  0  0  0  1  0  0  0  0  0  0
  180.8890  174.6460  137.4490 C   0  0  0  0  0  0  0  0  0  0  0  0
  1 15  1  6  0  0  0
  1  4  1  0  0  0  0
  2  3  2  0  0  0  0
  2  5  1  0  0  0  0
  4  2  1  0  0  0  0
  5  6  1  0  0  0  0
  6  9  1  0  0  0  0
  6  7  1  0  0  0  0
  7  8  1  0  0  0  0
  8 11  1  0  0  0  0
 10  7  2  0  0  0  0
 11 12  1  0  0  0  0
 13 12  1  0  0  0  0
 14 13  1  0  0  0  0
 15 17  1  0  0  0  0
 16 17  1  0  0  0  0
 16 19  1  0  0  0  0
 17 20  1  6  0  0  0
 17 18  1  0  0  0  0
 18 25  1  6  0  0  0
 19 21  1  6  0  0  0
 19 18  1  0  0  0  0
 22 26  1  0  0  0  0
 23 22  1  0  0  0  0
 23 24  2  0  0  0  0
 25 23  1  0  0  0  0
 26 27  1  0  0  0  0
 27 28  1  0  0  0  0
 28 29  1  0  0  0  0
 29 30  1  1  0  0  0
 29 33  1  0  0  0  0
 32 31  1  0  0  0  0
 32 29  1  0  0  0  0
 33 34  1  1  0  0  0
 33 35  1  0  0  0  0
 35 37  1  0  0  0  0
 37 38  1  0  0  0  0
 38 39  2  0  0  0  0
 38 36  1  0  0  0  0
 40  1  1  0  0  0  0
 41 40  1  0  0  0  0
 42 41  1  0  0  0  0
 42 46  1  0  0  0  0
 43 50  1  0  0  0  0
 45 52  1  0  0  0  0
 45 53  1  0  0  0  0
 46 43  1  0  0  0  0
 46 45  2  0  0  0  0
 47 49  2  0  0  0  0
 49 44  1  0  0  0  0
 49 48  1  0  0  0  0
 50 53  2  0  0  0  0
 50 47  1  0  0  0  0
 51 43  2  0  0  0  0
 53 44  1  0  0  0  0
M  END
>  <MODEL>
3

>  <REMARK>
 VINA RESULT:      -5.8      2.427      5.480
  Name = 
  21 active torsions:
  status: ('A' for Active; 'I' for Inactive)
    1  A    between atoms: C_3  and  C_21
    2  A    between atoms: C_3  and  C_41
    3  A    between atoms: C_3  and  O_51
    4  A    between atoms: N_4  and  C_32
    5  A    between atoms: C_5  and  N_28
    6  A    between atoms: C_5  and  C_33
    7  A    between atoms: O_7  and  N_11
    8  A    between atoms: O_7  and  C_41
    9  A    between atoms: C_8  and  C_44
   10  A    between atoms: N_10  and  C_44
   11  A    between atoms: C_12  and  C_15
   12  A    between atoms: C_14  and  C_33
   13  A    between atoms: C_15  and  C_39
   14  A    between atoms: C_20  and  C_45
   15  A    between atoms: C_22  and  N_46
   16  A    between atoms: C_25  and  C_32
   17  A    between atoms: C_25  and  O_51
   18  A    between atoms: C_37  and  C_39
   19  A    between atoms: C_37  and  O_53
   20  A    between atoms: C_39  and  N_42
   21  A    between atoms: C_45  and  O_53
                            x       y       z     vdW  Elec       q    Type
                         _______ _______ _______ _____ _____    ______ ____

>  <TORSDO>
F 21

$$$$
=
 OpenBabel11042411483D

 53 55  0  0  1  0  0  0  0  0999 V2000
  186.9970  178.3030  141.2360 C   0  0  2  0  0  3  0  0  0  0  0  0
  185.0210  178.8480  142.7050 C   0  0  0  0  0  0  0  0  0  0  0  0
  185.2620  177.8600  143.4480 O   0  0  0  0  0  0  0  0  0  0  0  0
  185.9020  179.1770  141.6310 N   0  0  0  0  0  2  0  0  0  0  0  0
  183.8080  179.6830  142.9420 C   0  0  0  0  0  2  0  0  0  0  0  0
  182.6020  178.8810  142.7700 N   0  0  0  0  0  0  0  0  0  0  0  0
  182.0680  178.6420  141.4610 C   0  0  0  0  0  0  0  0  0  0  0  0
  180.7910  178.0060  141.3130 N   0  0  0  0  0  2  0  0  0  0  0  0
  181.9220  178.3710  143.9510 C   0  0  0  0  0  1  0  0  0  0  0  0
  182.7200  178.9910  140.4410 O   0  0  0  0  0  0  0  0  0  0  0  0
  180.2070  177.7200  140.0110 C   0  0  0  0  0  2  0  0  0  0  0  0
  180.6570  176.3520  139.5080 C   0  0  0  0  0  2  0  0  0  0  0  0
  180.0100  175.2360  140.3180 C   0  0  0  0  0  2  0  0  0  0  0  0
  178.9310  174.6240  139.5630 N   0  0  0  0  0  1  0  0  0  0  0  0
  188.2750  178.7190  141.9510 C   0  0  0  0  0  2  0  0  0  0  0  0
  189.9680  177.6170  143.3860 N   0  0  0  0  0  2  0  0  0  0  0  0
  189.2130  177.5310  142.1430 C   0  0  2  0  0  0  0  0  0  0  0  0
  190.4560  177.6330  141.2700 C   0  0  1  0  0  3  0  0  0  0  0  0
  191.1960  177.7250  142.6030 C   0  0  2  0  0  3  0  0  0  0  0  0
  188.5430  176.3060  142.0420 O   0  0  0  0  0  1  0  0  0  0  0  0
  192.0050  176.6120  142.8450 O   0  0  0  0  0  1  0  0  0  0  0  0
  191.1470  175.0690  138.5180 N   0  0  0  0  0  2  0  0  0  0  0  0
  190.8670  176.3230  139.1420 C   0  0  0  0  0  0  0  0  0  0  0  0
  190.7350  177.3680  138.4450 O   0  0  0  0  0  0  0  0  0  0  0  0
  190.7390  176.3830  140.5630 N   0  0  0  0  0  2  0  0  0  0  0  0
  191.3470  174.9550  137.0840 C   0  0  0  0  0  2  0  0  0  0  0  0
  192.8260  174.7950  136.7810 C   0  0  0  0  0  2  0  0  0  0  0  0
  193.3250  173.6300  137.4020 O   0  0  0  0  0  0  0  0  0  0  0  0
  194.3950  173.0780  136.6490 C   0  0  2  0  0  0  0  0  0  0  0  0
  194.9330  174.1180  135.8860 O   0  0  0  0  0  1  0  0  0  0  0  0
  193.5390  170.8240  136.3440 O   0  0  0  0  0  1  0  0  0  0  0  0
  193.8900  171.9950  135.6690 C   0  0  0  0  0  2  0  0  0  0  0  0
  195.5150  172.5460  137.5790 C   0  0  2  0  0  3  0  0  0  0  0  0
  195.3130  172.9640  138.8980 O   0  0  0  0  0  1  0  0  0  0  0  0
  196.7830  172.9600  137.1500 O   0  0  0  0  0  0  0  0  0  0  0  0
  197.9060  175.5250  136.7710 O   0  0  0  0  0  0  0  0  0  0  0  0
  197.3060  173.6400  138.2000 N   0  0  0  0  0  2  0  0  0  0  0  0
  197.8570  174.9440  138.0300 C   0  0  0  0  0  0  0  0  0  0  0  0
  198.3040  175.5680  139.0230 O   0  0  0  0  0  1  0  0  0  0  0  0
  187.1900  178.3430  139.7230 C   0  0  0  0  0  2  0  0  0  0  0  0
  185.9670  178.5130  139.0700 O   0  0  0  0  0  0  0  0  0  0  0  0
  186.2430  178.2810  137.7230 C   0  0  0  0  0  2  0  0  0  0  0  0
  184.2100  176.6500  137.2640 C   0  0  0  0  0  0  0  0  0  0  0  0
  185.4060  173.1170  136.8430 S   0  0  0  0  0  0  0  0  0  0  0  0
  186.3530  175.8640  137.0120 C   0  0  0  0  0  0  0  0  0  0  0  0
  185.6490  176.9820  137.2840 C   0  0  0  0  0  0  0  0  0  0  0  0
  183.1580  174.3320  137.0930 N   0  0  0  0  0  0  0  0  0  0  0  0
  182.9150  171.8420  137.1660 C   0  0  0  0  0  1  0  0  0  0  0  0
  183.7080  173.0890  137.0080 C   0  0  0  0  0  0  0  0  0  0  0  0
  184.1350  175.2490  136.9140 C   0  0  0  0  0  0  0  0  0  0  0  0
  183.2480  177.4100  137.5500 O   0  0  0  0  0  0  0  0  0  0  0  0
  187.8310  175.7210  137.0770 C   0  0  0  0  0  1  0  0  0  0  0  0
  185.3930  174.7920  136.7680 C   0  0  0  0  0  0  0  0  0  0  0  0
  1 40  1  6  0  0  0
  1  4  1  0  0  0  0
  1 15  1  0  0  0  0
  2  5  1  0  0  0  0
  2  3  2  0  0  0  0
  4  2  1  0  0  0  0
  6  5  1  0  0  0  0
  6  9  1  0  0  0  0
  7  6  1  0  0  0  0
  8  7  1  0  0  0  0
 10  7  2  0  0  0  0
 11  8  1  0  0  0  0
 12 11  1  0  0  0  0
 12 13  1  0  0  0  0
 14 13  1  0  0  0  0
 15 17  1  0  0  0  0
 17 20  1  6  0  0  0
 17 16  1  0  0  0  0
 18 25  1  1  0  0  0
 18 17  1  0  0  0  0
 18 19  1  0  0  0  0
 19 21  1  1  0  0  0
 19 16  1  0  0  0  0
 22 23  1  0  0  0  0
 23 25  1  0  0  0  0
 24 23  2  0  0  0  0
 26 22  1  0  0  0  0
 27 26  1  0  0  0  0
 27 28  1  0  0  0  0
 29 30  1  6  0  0  0
 29 28  1  0  0  0  0
 29 33  1  0  0  0  0
 32 31  1  0  0  0  0
 32 29  1  0  0  0  0
 33 34  1  1  0  0  0
 35 33  1  0  0  0  0
 35 37  1  0  0  0  0
 36 38  2  0  0  0  0
 38 37  1  0  0  0  0
 38 39  1  0  0  0  0
 41 40  1  0  0  0  0
 42 41  1  0  0  0  0
 43 46  1  0  0  0  0
 43 51  2  0  0  0  0
 44 49  1  0  0  0  0
 45 52  1  0  0  0  0
 45 46  2  0  0  0  0
 46 42  1  0  0  0  0
 49 47  2  0  0  0  0
 49 48  1  0  0  0  0
 50 47  1  0  0  0  0
 50 43  1  0  0  0  0
 53 44  1  0  0  0  0
 53 50  2  0  0  0  0
 53 45  1  0  0  0  0
M  END
>  <MODEL>
4

>  <REMARK>
 VINA RESULT:      -5.7      3.740      8.518
  Name = 
  21 active torsions:
  status: ('A' for Active; 'I' for Inactive)
    1  A    between atoms: C_3  and  C_21
    2  A    between atoms: C_3  and  C_41
    3  A    between atoms: C_3  and  O_51
    4  A    between atoms: N_4  and  C_32
    5  A    between atoms: C_5  and  N_28
    6  A    between atoms: C_5  and  C_33
    7  A    between atoms: O_7  and  N_11
    8  A    between atoms: O_7  and  C_41
    9  A    between atoms: C_8  and  C_44
   10  A    between atoms: N_10  and  C_44
   11  A    between atoms: C_12  and  C_15
   12  A    between atoms: C_14  and  C_33
   13  A    between atoms: C_15  and  C_39
   14  A    between atoms: C_20  and  C_45
   15  A    between atoms: C_22  and  N_46
   16  A    between atoms: C_25  and  C_32
   17  A    between atoms: C_25  and  O_51
   18  A    between atoms: C_37  and  C_39
   19  A    between atoms: C_37  and  O_53
   20  A    between atoms: C_39  and  N_42
   21  A    between atoms: C_45  and  O_53
                            x       y       z     vdW  Elec       q    Type
                         _______ _______ _______ _____ _____    ______ ____

>  <TORSDO>
F 21

$$$$
=
 OpenBabel11042411483D

 53 55  0  0  1  0  0  0  0  0999 V2000
  190.5400  176.3090  138.2180 C   0  0  2  0  0  3  0  0  0  0  0  0
  190.3250  176.8470  140.6730 C   0  0  0  0  0  0  0  0  0  0  0  0
  189.5550  177.8120  140.4250 O   0  0  0  0  0  0  0  0  0  0  0  0
  190.7850  176.0000  139.6200 N   0  0  0  0  0  2  0  0  0  0  0  0
  190.7660  176.5830  142.0730 C   0  0  0  0  0  2  0  0  0  0  0  0
  190.0020  177.4030  143.0050 N   0  0  0  0  0  0  0  0  0  0  0  0
  188.7110  176.9770  143.4600 C   0  0  0  0  0  0  0  0  0  0  0  0
  187.8940  177.8650  144.2330 N   0  0  0  0  0  2  0  0  0  0  0  0
  190.5500  178.6840  143.4280 C   0  0  0  0  0  1  0  0  0  0  0  0
  188.2940  175.8210  143.1790 O   0  0  0  0  0  0  0  0  0  0  0  0
  186.5840  177.4830  144.7380 C   0  0  0  0  0  2  0  0  0  0  0  0
  186.0930  178.4860  145.7780 C   0  0  0  0  0  2  0  0  0  0  0  0
  184.6450  178.2080  146.1590 C   0  0  0  0  0  2  0  0  0  0  0  0
  183.7730  179.2330  145.6110 N   0  0  0  0  0  1  0  0  0  0  0  0
  189.0960  175.9890  137.8620 C   0  0  0  0  0  2  0  0  0  0  0  0
  189.2730  178.2940  136.9690 N   0  0  0  0  0  2  0  0  0  0  0  0
  188.5030  177.0560  136.9470 C   0  0  2  0  0  0  0  0  0  0  0  0
  187.2630  177.7040  137.5460 C   0  0  1  0  0  3  0  0  0  0  0  0
  188.1170  178.9710  137.5520 C   0  0  2  0  0  3  0  0  0  0  0  0
  188.3280  176.5930  135.6370 O   0  0  0  0  0  1  0  0  0  0  0  0
  187.6440  179.9400  136.6630 O   0  0  0  0  0  1  0  0  0  0  0  0
  183.9000  177.1980  135.7990 N   0  0  0  0  0  2  0  0  0  0  0  0
  184.9360  177.0730  136.7750 C   0  0  0  0  0  0  0  0  0  0  0  0
  184.7700  176.3450  137.7930 O   0  0  0  0  0  0  0  0  0  0  0  0
  186.1600  177.7820  136.5870 N   0  0  0  0  0  2  0  0  0  0  0  0
  182.6110  176.5490  135.9640 C   0  0  0  0  0  2  0  0  0  0  0  0
  181.5220  177.5960  136.1100 C   0  0  0  0  0  2  0  0  0  0  0  0
  181.9760  178.6590  136.9180 O   0  0  0  0  0  0  0  0  0  0  0  0
  181.6060  178.4550  138.2740 C   0  0  2  0  0  0  0  0  0  0  0  0
  181.6080  177.0740  138.4910 O   0  0  0  0  0  1  0  0  0  0  0  0
  180.1870  180.2690  139.0470 O   0  0  0  0  0  1  0  0  0  0  0  0
  180.1730  178.9660  138.5460 C   0  0  0  0  0  2  0  0  0  0  0  0
  182.6430  179.0860  139.2360 C   0  0  2  0  0  3  0  0  0  0  0  0
  183.5540  179.8860  138.5380 O   0  0  0  0  0  1  0  0  0  0  0  0
  183.3420  178.1080  139.9570 O   0  0  0  0  0  0  0  0  0  0  0  0
  186.0110  178.8620  140.4980 O   0  0  0  0  0  0  0  0  0  0  0  0
  183.6610  178.6980  141.1360 N   0  0  0  0  0  2  0  0  0  0  0  0
  184.9990  179.1040  141.4160 C   0  0  0  0  0  0  0  0  0  0  0  0
  185.2630  179.6790  142.4990 O   0  0  0  0  0  1  0  0  0  0  0  0
  191.5000  175.5270  137.3260 C   0  0  0  0  0  2  0  0  0  0  0  0
  192.7850  175.5100  137.8720 O   0  0  0  0  0  0  0  0  0  0  0  0
  193.6300  175.2400  136.7960 C   0  0  0  0  0  2  0  0  0  0  0  0
  195.7820  173.9240  137.5960 C   0  0  0  0  0  0  0  0  0  0  0  0
  195.6950  170.3710  136.3860 S   0  0  0  0  0  0  0  0  0  0  0  0
  194.0500  172.7590  136.6380 C   0  0  0  0  0  0  0  0  0  0  0  0
  194.4130  173.9920  137.0470 C   0  0  0  0  0  0  0  0  0  0  0  0
  197.3850  171.9400  137.5170 N   0  0  0  0  0  0  0  0  0  0  0  0
  198.4110  169.7640  136.8260 C   0  0  0  0  0  1  0  0  0  0  0  0
  197.2610  170.6930  136.9810 C   0  0  0  0  0  0  0  0  0  0  0  0
  196.1700  172.5330  137.5120 C   0  0  0  0  0  0  0  0  0  0  0  0
  196.4910  174.8830  137.9990 O   0  0  0  0  0  0  0  0  0  0  0  0
  192.8120  172.4100  135.8940 C   0  0  0  0  0  1  0  0  0  0  0  0
  195.1520  171.8540  136.9500 C   0  0  0  0  0  0  0  0  0  0  0  0
  1 40  1  6  0  0  0
  1  4  1  0  0  0  0
  2  5  1  0  0  0  0
  3  2  2  0  0  0  0
  4  2  1  0  0  0  0
  5  6  1  0  0  0  0
  6  9  1  0  0  0  0
  6  7  1  0  0  0  0
  7  8  1  0  0  0  0
  8 11  1  0  0  0  0
 10  7  2  0  0  0  0
 11 12  1  0  0  0  0
 12 13  1  0  0  0  0
 14 13  1  0  0  0  0
 15  1  1  0  0  0  0
 16 19  1  0  0  0  0
 17 20  1  6  0  0  0
 17 16  1  0  0  0  0
 17 18  1  0  0  0  0
 17 15  1  0  0  0  0
 18 25  1  6  0  0  0
 18 19  1  0  0  0  0
 19 21  1  6  0  0  0
 22 26  1  0  0  0  0
 22 23  1  0  0  0  0
 23 24  2  0  0  0  0
 25 23  1  0  0  0  0
 26 27  1  0  0  0  0
 27 28  1  0  0  0  0
 28 29  1  0  0  0  0
 29 30  1  1  0  0  0
 29 32  1  0  0  0  0
 29 33  1  0  0  0  0
 32 31  1  0  0  0  0
 33 34  1  6  0  0  0
 33 35  1  0  0  0  0
 35 37  1  0  0  0  0
 36 38  2  0  0  0  0
 37 38  1  0  0  0  0
 38 39  1  0  0  0  0
 40 41  1  0  0  0  0
 42 46  1  0  0  0  0
 42 41  1  0  0  0  0
 43 51  2  0  0  0  0
 44 53  1  0  0  0  0
 44 49  1  0  0  0  0
 45 53  1  0  0  0  0
 45 46  2  0  0  0  0
 46 43  1  0  0  0  0
 48 49  1  0  0  0  0
 49 47  2  0  0  0  0
 50 47  1  0  0  0  0
 50 43  1  0  0  0  0
 52 45  1  0  0  0  0
 53 50  2  0  0  0  0
M  END
>  <MODEL>
5

>  <REMARK>
 VINA RESULT:      -5.6      4.421     10.450
  Name = 
  21 active torsions:
  status: ('A' for Active; 'I' for Inactive)
    1  A    between atoms: C_3  and  C_21
    2  A    between atoms: C_3  and  C_41
    3  A    between atoms: C_3  and  O_51
    4  A    between atoms: N_4  and  C_32
    5  A    between atoms: C_5  and  N_28
    6  A    between atoms: C_5  and  C_33
    7  A    between atoms: O_7  and  N_11
    8  A    between atoms: O_7  and  C_41
    9  A    between atoms: C_8  and  C_44
   10  A    between atoms: N_10  and  C_44
   11  A    between atoms: C_12  and  C_15
   12  A    between atoms: C_14  and  C_33
   13  A    between atoms: C_15  and  C_39
   14  A    between atoms: C_20  and  C_45
   15  A    between atoms: C_22  and  N_46
   16  A    between atoms: C_25  and  C_32
   17  A    between atoms: C_25  and  O_51
   18  A    between atoms: C_37  and  C_39
   19  A    between atoms: C_37  and  O_53
   20  A    between atoms: C_39  and  N_42
   21  A    between atoms: C_45  and  O_53
                            x       y       z     vdW  Elec       q    Type
                         _______ _______ _______ _____ _____    ______ ____

>  <TORSDO>
F 21

$$$$
=
 OpenBabel11042411483D

 53 55  0  0  1  0  0  0  0  0999 V2000
  190.9170  177.3230  139.3000 C   0  0  2  0  0  3  0  0  0  0  0  0
  190.7820  176.8270  141.7690 C   0  0  0  0  0  0  0  0  0  0  0  0
  191.3830  177.8980  142.0480 O   0  0  0  0  0  0  0  0  0  0  0  0
  190.4400  176.5210  140.4180 N   0  0  0  0  0  2  0  0  0  0  0  0
  190.4240  175.8670  142.8530 C   0  0  0  0  0  2  0  0  0  0  0  0
  189.3700  176.4230  143.6930 N   0  0  0  0  0  0  0  0  0  0  0  0
  189.6750  176.9480  144.9910 C   0  0  0  0  0  0  0  0  0  0  0  0
  188.6160  177.3300  145.8780 N   0  0  0  0  0  2  0  0  0  0  0  0
  187.9960  176.3910  143.2120 C   0  0  0  0  0  1  0  0  0  0  0  0
  190.8760  177.0750  145.3530 O   0  0  0  0  0  0  0  0  0  0  0  0
  188.8640  177.8870  147.1990 C   0  0  0  0  0  2  0  0  0  0  0  0
  187.5860  177.8910  148.0310 C   0  0  0  0  0  2  0  0  0  0  0  0
  186.3890  178.3030  147.1840 C   0  0  0  0  0  2  0  0  0  0  0  0
  185.9780  179.6570  147.5130 N   0  0  0  0  0  1  0  0  0  0  0  0
  189.7770  178.1610  138.7400 C   0  0  0  0  0  2  0  0  0  0  0  0
  189.6180  177.2170  136.4550 N   0  0  0  0  0  2  0  0  0  0  0  0
  188.9460  177.3650  137.7400 C   0  0  2  0  0  0  0  0  0  0  0  0
  187.8050  178.1870  137.1560 C   0  0  1  0  0  3  0  0  0  0  0  0
  188.5550  178.0060  135.8370 C   0  0  2  0  0  3  0  0  0  0  0  0
  188.5510  176.1230  138.2490 O   0  0  0  0  0  1  0  0  0  0  0  0
  187.8530  177.2140  134.9250 O   0  0  0  0  0  1  0  0  0  0  0  0
  184.2140  177.1350  137.9380 N   0  0  0  0  0  2  0  0  0  0  0  0
  185.4260  177.8880  137.9690 C   0  0  0  0  0  0  0  0  0  0  0  0
  185.5180  178.9210  138.6900 O   0  0  0  0  0  0  0  0  0  0  0  0
  186.5340  177.4630  137.1760 N   0  0  0  0  0  2  0  0  0  0  0  0
  183.0340  177.5500  138.6770 C   0  0  0  0  0  2  0  0  0  0  0  0
  182.2080  178.5040  137.8340 C   0  0  0  0  0  2  0  0  0  0  0  0
  182.0150  179.7190  138.5230 O   0  0  0  0  0  0  0  0  0  0  0  0
  180.6550  180.1240  138.4610 C   0  0  2  0  0  0  0  0  0  0  0  0
  179.9930  179.1960  137.6530 O   0  0  0  0  0  1  0  0  0  0  0  0
  179.1750  181.8980  137.7090 O   0  0  0  0  0  1  0  0  0  0  0  0
  180.5130  181.5090  137.7910 C   0  0  0  0  0  2  0  0  0  0  0  0
  179.9970  180.0840  139.8630 C   0  0  2  0  0  3  0  0  0  0  0  0
  180.4010  181.1770  140.6390 O   0  0  0  0  0  1  0  0  0  0  0  0
  180.2990  178.8970  140.5430 O   0  0  0  0  0  0  0  0  0  0  0  0
  179.6650  177.6440  142.9950 O   0  0  0  0  0  0  0  0  0  0  0  0
  180.9060  179.2900  141.6900 N   0  0  0  0  0  2  0  0  0  0  0  0
  180.6140  178.6540  142.9320 C   0  0  0  0  0  0  0  0  0  0  0  0
  181.2140  179.0120  143.9740 O   0  0  0  0  0  1  0  0  0  0  0  0
  191.5090  176.4260  138.2170 C   0  0  0  0  0  2  0  0  0  0  0  0
  192.8920  176.3110  138.3660 O   0  0  0  0  0  0  0  0  0  0  0  0
  193.3380  175.7460  137.1720 C   0  0  0  0  0  2  0  0  0  0  0  0
  195.1110  174.0580  138.1750 C   0  0  0  0  0  0  0  0  0  0  0  0
  194.7750  170.6740  136.5870 S   0  0  0  0  0  0  0  0  0  0  0  0
  193.4450  173.2530  136.8160 C   0  0  0  0  0  0  0  0  0  0  0  0
  193.8880  174.3780  137.4130 C   0  0  0  0  0  0  0  0  0  0  0  0
  196.4230  171.8690  138.1520 N   0  0  0  0  0  0  0  0  0  0  0  0
  197.2580  169.6300  137.4110 C   0  0  0  0  0  1  0  0  0  0  0  0
  196.2340  170.7050  137.4700 C   0  0  0  0  0  0  0  0  0  0  0  0
  195.3190  172.6370  138.0060 C   0  0  0  0  0  0  0  0  0  0  0  0
  195.8560  174.8620  138.7950 O   0  0  0  0  0  0  0  0  0  0  0  0
  192.3290  173.1580  135.8400 C   0  0  0  0  0  1  0  0  0  0  0  0
  194.3400  172.1690  137.2090 C   0  0  0  0  0  0  0  0  0  0  0  0
  1 40  1  6  0  0  0
  1  4  1  0  0  0  0
  2  3  2  0  0  0  0
  2  5  1  0  0  0  0
  4  2  1  0  0  0  0
  5  6  1  0  0  0  0
  6  7  1  0  0  0  0
  7 10  2  0  0  0  0
  7  8  1  0  0  0  0
  8 11  1  0  0  0  0
  9  6  1  0  0  0  0
 11 12  1  0  0  0  0
 13 14  1  0  0  0  0
 13 12  1  0  0  0  0
 15  1  1  0  0  0  0
 16 17  1  0  0  0  0
 17 20  1  1  0  0  0
 17 15  1  0  0  0  0
 18 25  1  6  0  0  0
 18 17  1  0  0  0  0
 19 21  1  6  0  0  0
 19 16  1  0  0  0  0
 19 18  1  0  0  0  0
 22 23  1  0  0  0  0
 22 26  1  0  0  0  0
 23 24  2  0  0  0  0
 25 23  1  0  0  0  0
 27 28  1  0  0  0  0
 27 26  1  0  0  0  0
 29 30  1  6  0  0  0
 29 28  1  0  0  0  0
 29 33  1  0  0  0  0
 31 32  1  0  0  0  0
 32 29  1  0  0  0  0
 33 35  1  0  0  0  0
 33 34  1  1  0  0  0
 35 37  1  0  0  0  0
 37 38  1  0  0  0  0
 38 36  2  0  0  0  0
 38 39  1  0  0  0  0
 40 41  1  0  0  0  0
 42 46  1  0  0  0  0
 42 41  1  0  0  0  0
 43 51  2  0  0  0  0
 44 53  1  0  0  0  0
 44 49  1  0  0  0  0
 45 53  1  0  0  0  0
 45 46  2  0  0  0  0
 46 43  1  0  0  0  0
 48 49  1  0  0  0  0
 49 47  2  0  0  0  0
 50 47  1  0  0  0  0
 50 43  1  0  0  0  0
 52 45  1  0  0  0  0
 53 50  2  0  0  0  0
M  END
>  <MODEL>
6

>  <REMARK>
 VINA RESULT:      -5.5      4.362     10.572
  Name = 
  21 active torsions:
  status: ('A' for Active; 'I' for Inactive)
    1  A    between atoms: C_3  and  C_21
    2  A    between atoms: C_3  and  C_41
    3  A    between atoms: C_3  and  O_51
    4  A    between atoms: N_4  and  C_32
    5  A    between atoms: C_5  and  N_28
    6  A    between atoms: C_5  and  C_33
    7  A    between atoms: O_7  and  N_11
    8  A    between atoms: O_7  and  C_41
    9  A    between atoms: C_8  and  C_44
   10  A    between atoms: N_10  and  C_44
   11  A    between atoms: C_12  and  C_15
   12  A    between atoms: C_14  and  C_33
   13  A    between atoms: C_15  and  C_39
   14  A    between atoms: C_20  and  C_45
   15  A    between atoms: C_22  and  N_46
   16  A    between atoms: C_25  and  C_32
   17  A    between atoms: C_25  and  O_51
   18  A    between atoms: C_37  and  C_39
   19  A    between atoms: C_37  and  O_53
   20  A    between atoms: C_39  and  N_42
   21  A    between atoms: C_45  and  O_53
                            x       y       z     vdW  Elec       q    Type
                         _______ _______ _______ _____ _____    ______ ____

>  <TORSDO>
F 21

$$$$
=
 OpenBabel11042411483D

 53 55  0  0  1  0  0  0  0  0999 V2000
  190.2400  176.2170  138.7430 C   0  0  2  0  0  3  0  0  0  0  0  0
  191.4480  174.8420  137.0070 C   0  0  0  0  0  0  0  0  0  0  0  0
  190.9910  173.7740  137.4910 O   0  0  0  0  0  0  0  0  0  0  0  0
  191.0420  176.1060  137.5320 N   0  0  0  0  0  2  0  0  0  0  0  0
  192.4220  174.7960  135.8790 C   0  0  0  0  0  2  0  0  0  0  0  0
  193.7420  175.2150  136.3340 N   0  0  0  0  0  0  0  0  0  0  0  0
  194.5420  174.3450  137.1460 C   0  0  0  0  0  0  0  0  0  0  0  0
  195.7570  174.8290  137.7340 N   0  0  0  0  0  2  0  0  0  0  0  0
  194.2130  176.5490  135.9920 C   0  0  0  0  0  1  0  0  0  0  0  0
  194.1770  173.1550  137.3440 O   0  0  0  0  0  0  0  0  0  0  0  0
  196.6200  173.9890  138.5510 C   0  0  0  0  0  2  0  0  0  0  0  0
  198.0860  174.3510  138.3340 C   0  0  0  0  0  2  0  0  0  0  0  0
  198.5860  175.2740  139.4370 C   0  0  0  0  0  2  0  0  0  0  0  0
  197.6480  175.2910  140.5460 N   0  0  0  0  0  1  0  0  0  0  0  0
  188.7680  176.0180  138.4090 C   0  0  0  0  0  2  0  0  0  0  0  0
  189.0580  178.2080  137.2870 N   0  0  0  0  0  2  0  0  0  0  0  0
  188.3270  176.9470  137.2830 C   0  0  2  0  0  0  0  0  0  0  0  0
  186.9890  177.6130  137.5780 C   0  0  1  0  0  3  0  0  0  0  0  0
  187.8070  178.9030  137.5760 C   0  0  2  0  0  3  0  0  0  0  0  0
  188.3920  176.3290  136.0290 O   0  0  0  0  0  1  0  0  0  0  0  0
  187.4800  179.7440  136.5090 O   0  0  0  0  0  1  0  0  0  0  0  0
  184.0750  176.6550  135.2960 N   0  0  0  0  0  2  0  0  0  0  0  0
  184.9310  176.6760  136.4380 C   0  0  0  0  0  0  0  0  0  0  0  0
  184.6820  175.9440  137.4370 O   0  0  0  0  0  0  0  0  0  0  0  0
  186.0710  177.5360  136.4410 N   0  0  0  0  0  2  0  0  0  0  0  0
  182.8690  175.8460  135.2570 C   0  0  0  0  0  2  0  0  0  0  0  0
  181.6790  176.6730  135.7080 C   0  0  0  0  0  2  0  0  0  0  0  0
  181.0100  176.0240  136.7670 O   0  0  0  0  0  0  0  0  0  0  0  0
  180.6750  176.9470  137.7930 C   0  0  2  0  0  0  0  0  0  0  0  0
  179.5610  176.4280  138.4580 O   0  0  0  0  0  1  0  0  0  0  0  0
  178.9600  178.2890  136.7140 O   0  0  0  0  0  1  0  0  0  0  0  0
  180.2680  178.3160  137.2020 C   0  0  0  0  0  2  0  0  0  0  0  0
  181.8240  177.0760  138.8240 C   0  0  2  0  0  3  0  0  0  0  0  0
  181.3240  177.1210  140.1300 O   0  0  0  0  0  1  0  0  0  0  0  0
  182.6060  178.2150  138.5880 O   0  0  0  0  0  0  0  0  0  0  0  0
  184.5100  180.2960  138.7480 O   0  0  0  0  0  0  0  0  0  0  0  0
  183.4560  178.2850  139.6420 N   0  0  0  0  0  2  0  0  0  0  0  0
  184.4080  179.3410  139.7490 C   0  0  0  0  0  0  0  0  0  0  0  0
  185.1610  179.4050  140.7510 O   0  0  0  0  0  1  0  0  0  0  0  0
  190.4630  177.5730  139.4060 C   0  0  0  0  0  2  0  0  0  0  0  0
  191.1780  177.4320  140.5970 O   0  0  0  0  0  0  0  0  0  0  0  0
  190.5190  176.4200  141.2940 C   0  0  0  0  0  2  0  0  0  0  0  0
  190.8260  176.6180  143.9160 C   0  0  0  0  0  0  0  0  0  0  0  0
  187.6740  177.8550  145.5350 S   0  0  0  0  0  0  0  0  0  0  0  0
  188.9440  177.4990  142.9400 C   0  0  0  0  0  0  0  0  0  0  0  0
  190.1150  176.8970  142.6520 C   0  0  0  0  0  0  0  0  0  0  0  0
  189.9280  176.8820  146.2890 N   0  0  0  0  0  0  0  0  0  0  0  0
  188.3120  177.1370  148.1830 C   0  0  0  0  0  1  0  0  0  0  0  0
  188.7160  177.2890  146.7610 C   0  0  0  0  0  0  0  0  0  0  0  0
  189.9850  177.1500  144.9650 C   0  0  0  0  0  0  0  0  0  0  0  0
  191.9100  175.9930  144.0590 O   0  0  0  0  0  0  0  0  0  0  0  0
  187.8600  177.8190  141.9740 C   0  0  0  0  0  1  0  0  0  0  0  0
  188.8830  177.6660  144.3890 C   0  0  0  0  0  0  0  0  0  0  0  0
  1 15  1  6  0  0  0
  1 40  1  0  0  0  0
  2  3  2  0  0  0  0
  2  4  1  0  0  0  0
  4  1  1  0  0  0  0
  5  6  1  0  0  0  0
  5  2  1  0  0  0  0
  6  7  1  0  0  0  0
  7 10  2  0  0  0  0
  7  8  1  0  0  0  0
  8 11  1  0  0  0  0
  9  6  1  0  0  0  0
 12 11  1  0  0  0  0
 12 13  1  0  0  0  0
 13 14  1  0  0  0  0
 16 19  1  0  0  0  0
 17 20  1  6  0  0  0
 17 16  1  0  0  0  0
 17 18  1  0  0  0  0
 17 15  1  0  0  0  0
 18 25  1  6  0  0  0
 19 21  1  6  0  0  0
 19 18  1  0  0  0  0
 22 23  1  0  0  0  0
 23 25  1  0  0  0  0
 23 24  2  0  0  0  0
 26 22  1  0  0  0  0
 26 27  1  0  0  0  0
 27 28  1  0  0  0  0
 28 29  1  0  0  0  0
 29 30  1  1  0  0  0
 29 33  1  0  0  0  0
 31 32  1  0  0  0  0
 32 29  1  0  0  0  0
 33 34  1  1  0  0  0
 35 33  1  0  0  0  0
 35 37  1  0  0  0  0
 36 38  2  0  0  0  0
 37 38  1  0  0  0  0
 38 39  1  0  0  0  0
 40 41  1  0  0  0  0
 41 42  1  0  0  0  0
 42 46  1  0  0  0  0
 43 51  2  0  0  0  0
 43 50  1  0  0  0  0
 44 49  1  0  0  0  0
 45 53  1  0  0  0  0
 46 45  2  0  0  0  0
 46 43  1  0  0  0  0
 47 49  2  0  0  0  0
 49 48  1  0  0  0  0
 50 47  1  0  0  0  0
 52 45  1  0  0  0  0
 53 50  2  0  0  0  0
 53 44  1  0  0  0  0
M  END
>  <MODEL>
7

>  <REMARK>
 VINA RESULT:      -5.4      3.643      9.375
  Name = 
  21 active torsions:
  status: ('A' for Active; 'I' for Inactive)
    1  A    between atoms: C_3  and  C_21
    2  A    between atoms: C_3  and  C_41
    3  A    between atoms: C_3  and  O_51
    4  A    between atoms: N_4  and  C_32
    5  A    between atoms: C_5  and  N_28
    6  A    between atoms: C_5  and  C_33
    7  A    between atoms: O_7  and  N_11
    8  A    between atoms: O_7  and  C_41
    9  A    between atoms: C_8  and  C_44
   10  A    between atoms: N_10  and  C_44
   11  A    between atoms: C_12  and  C_15
   12  A    between atoms: C_14  and  C_33
   13  A    between atoms: C_15  and  C_39
   14  A    between atoms: C_20  and  C_45
   15  A    between atoms: C_22  and  N_46
   16  A    between atoms: C_25  and  C_32
   17  A    between atoms: C_25  and  O_51
   18  A    between atoms: C_37  and  C_39
   19  A    between atoms: C_37  and  O_53
   20  A    between atoms: C_39  and  N_42
   21  A    between atoms: C_45  and  O_53
                            x       y       z     vdW  Elec       q    Type
                         _______ _______ _______ _____ _____    ______ ____

>  <TORSDO>
F 21

$$$$
=
 OpenBabel11042411483D

 53 55  0  0  1  0  0  0  0  0999 V2000
  188.0180  176.2680  137.2290 C   0  0  2  0  0  3  0  0  0  0  0  0
  187.8210  173.7900  136.8010 C   0  0  0  0  0  0  0  0  0  0  0  0
  188.9920  173.7460  136.3400 O   0  0  0  0  0  0  0  0  0  0  0  0
  187.3030  175.0040  137.3440 N   0  0  0  0  0  2  0  0  0  0  0  0
  186.9640  172.5710  136.7810 C   0  0  0  0  0  2  0  0  0  0  0  0
  185.8210  172.7710  135.8970 N   0  0  0  0  0  0  0  0  0  0  0  0
  184.5200  172.3010  136.2730 C   0  0  0  0  0  0  0  0  0  0  0  0
  183.4420  172.3430  135.3290 N   0  0  0  0  0  2  0  0  0  0  0  0
  186.0340  173.4100  134.6070 C   0  0  0  0  0  1  0  0  0  0  0  0
  184.3230  171.8510  137.4340 O   0  0  0  0  0  0  0  0  0  0  0  0
  182.0960  171.9000  135.6580 C   0  0  0  0  0  2  0  0  0  0  0  0
  181.5430  172.6890  136.8400 C   0  0  0  0  0  2  0  0  0  0  0  0
  180.0210  172.6300  136.8690 C   0  0  0  0  0  2  0  0  0  0  0  0
  179.4600  173.5990  135.9440 N   0  0  0  0  0  1  0  0  0  0  0  0
  188.1390  176.9210  138.5990 C   0  0  0  0  0  2  0  0  0  0  0  0
  190.4290  177.2180  137.7030 N   0  0  0  0  0  2  0  0  0  0  0  0
  189.5670  177.3820  138.8670 C   0  0  2  0  0  0  0  0  0  0  0  0
  190.3480  176.3790  139.7050 C   0  0  1  0  0  3  0  0  0  0  0  0
  191.2150  176.2420  138.4540 C   0  0  2  0  0  3  0  0  0  0  0  0
  189.6190  178.6940  139.3520 O   0  0  0  0  0  1  0  0  0  0  0  0
  192.5110  176.7300  138.6430 O   0  0  0  0  0  1  0  0  0  0  0  0
  191.6700  177.2420  143.1870 N   0  0  0  0  0  2  0  0  0  0  0  0
  190.9390  176.5720  142.1590 C   0  0  0  0  0  0  0  0  0  0  0  0
  190.1910  175.5950  142.4410 O   0  0  0  0  0  0  0  0  0  0  0  0
  191.0640  177.0190  140.8090 N   0  0  0  0  0  2  0  0  0  0  0  0
  191.6300  176.7980  144.5690 C   0  0  0  0  0  2  0  0  0  0  0  0
  190.8540  177.7960  145.4090 C   0  0  0  0  0  2  0  0  0  0  0  0
  189.5250  177.8930  144.9440 O   0  0  0  0  0  0  0  0  0  0  0  0
  188.6040  177.7030  146.0090 C   0  0  2  0  0  0  0  0  0  0  0  0
  188.3730  178.9600  146.5740 O   0  0  0  0  0  1  0  0  0  0  0  0
  188.2810  176.5730  148.1360 O   0  0  0  0  0  1  0  0  0  0  0  0
  189.2020  176.8000  147.1110 C   0  0  0  0  0  2  0  0  0  0  0  0
  187.2500  177.1640  145.4850 C   0  0  2  0  0  3  0  0  0  0  0  0
  187.4210  176.4470  144.2950 O   0  0  0  0  0  1  0  0  0  0  0  0
  186.3280  178.1980  145.2740 O   0  0  0  0  0  0  0  0  0  0  0  0
  184.1550  179.7220  144.3060 O   0  0  0  0  0  1  0  0  0  0  0  0
  185.8730  178.0140  144.0100 N   0  0  0  0  0  2  0  0  0  0  0  0
  184.7920  178.7900  143.4980 C   0  0  0  0  0  0  0  0  0  0  0  0
  184.4100  178.6260  142.3140 O   0  0  0  0  0  0  0  0  0  0  0  0
  187.3020  177.1970  136.2520 C   0  0  0  0  0  2  0  0  0  0  0  0
  186.1630  176.5830  135.7260 O   0  0  0  0  0  0  0  0  0  0  0  0
  185.1480  177.5280  135.8650 C   0  0  0  0  0  2  0  0  0  0  0  0
  183.0100  176.2090  136.6970 C   0  0  0  0  0  0  0  0  0  0  0  0
  181.9130  177.4420  140.0680 S   0  0  0  0  0  0  0  0  0  0  0  0
  184.1050  177.6000  138.1590 C   0  0  0  0  0  0  0  0  0  0  0  0
  184.1700  177.0970  136.9100 C   0  0  0  0  0  0  0  0  0  0  0  0
  181.0010  175.8890  138.2370 N   0  0  0  0  0  0  0  0  0  0  0  0
  179.3320  176.3140  140.0520 C   0  0  0  0  0  1  0  0  0  0  0  0
  180.6750  176.4540  139.4330 C   0  0  0  0  0  0  0  0  0  0  0  0
  182.2840  176.2060  137.9470 C   0  0  0  0  0  0  0  0  0  0  0  0
  182.6830  175.6230  135.6310 O   0  0  0  0  0  0  0  0  0  0  0  0
  184.9910  178.6470  138.7310 C   0  0  0  0  0  1  0  0  0  0  0  0
  182.9280  177.0220  138.8010 C   0  0  0  0  0  0  0  0  0  0  0  0
  1 40  1  6  0  0  0
  1  4  1  0  0  0  0
  1 15  1  0  0  0  0
  2  4  1  0  0  0  0
  3  2  2  0  0  0  0
  5  2  1  0  0  0  0
  6  7  1  0  0  0  0
  6  5  1  0  0  0  0
  7 10  2  0  0  0  0
  8 11  1  0  0  0  0
  8  7  1  0  0  0  0
  9  6  1  0  0  0  0
 11 12  1  0  0  0  0
 12 13  1  0  0  0  0
 14 13  1  0  0  0  0
 15 17  1  0  0  0  0
 16 19  1  0  0  0  0
 16 17  1  0  0  0  0
 17 20  1  1  0  0  0
 17 18  1  0  0  0  0
 18 25  1  1  0  0  0
 19 21  1  1  0  0  0
 19 18  1  0  0  0  0
 22 26  1  0  0  0  0
 23 24  2  0  0  0  0
 23 22  1  0  0  0  0
 25 23  1  0  0  0  0
 26 27  1  0  0  0  0
 28 27  1  0  0  0  0
 28 29  1  0  0  0  0
 29 30  1  1  0  0  0
 29 32  1  0  0  0  0
 32 31  1  0  0  0  0
 33 34  1  6  0  0  0
 33 29  1  0  0  0  0
 35 33  1  0  0  0  0
 37 35  1  0  0  0  0
 38 37  1  0  0  0  0
 38 36  1  0  0  0  0
 39 38  2  0  0  0  0
 41 42  1  0  0  0  0
 41 40  1  0  0  0  0
 42 46  1  0  0  0  0
 43 46  1  0  0  0  0
 43 50  1  0  0  0  0
 45 52  1  0  0  0  0
 45 53  1  0  0  0  0
 46 45  2  0  0  0  0
 47 49  2  0  0  0  0
 49 48  1  0  0  0  0
 49 44  1  0  0  0  0
 50 47  1  0  0  0  0
 50 53  2  0  0  0  0
 51 43  2  0  0  0  0
 53 44  1  0  0  0  0
M  END
>  <MODEL>
8

>  <REMARK>
 VINA RESULT:      -5.4      1.640      2.094
  Name = 
  21 active torsions:
  status: ('A' for Active; 'I' for Inactive)
    1  A    between atoms: C_3  and  C_21
    2  A    between atoms: C_3  and  C_41
    3  A    between atoms: C_3  and  O_51
    4  A    between atoms: N_4  and  C_32
    5  A    between atoms: C_5  and  N_28
    6  A    between atoms: C_5  and  C_33
    7  A    between atoms: O_7  and  N_11
    8  A    between atoms: O_7  and  C_41
    9  A    between atoms: C_8  and  C_44
   10  A    between atoms: N_10  and  C_44
   11  A    between atoms: C_12  and  C_15
   12  A    between atoms: C_14  and  C_33
   13  A    between atoms: C_15  and  C_39
   14  A    between atoms: C_20  and  C_45
   15  A    between atoms: C_22  and  N_46
   16  A    between atoms: C_25  and  C_32
   17  A    between atoms: C_25  and  O_51
   18  A    between atoms: C_37  and  C_39
   19  A    between atoms: C_37  and  O_53
   20  A    between atoms: C_39  and  N_42
   21  A    between atoms: C_45  and  O_53
                            x       y       z     vdW  Elec       q    Type
                         _______ _______ _______ _____ _____    ______ ____

>  <TORSDO>
F 21

$$$$
=
 OpenBabel11042411483D

 53 55  0  0  1  0  0  0  0  0999 V2000
  190.1500  176.5390  138.2630 C   0  0  2  0  0  3  0  0  0  0  0  0
  190.4350  177.4880  140.5830 C   0  0  0  0  0  0  0  0  0  0  0  0
  189.5190  178.3290  140.3840 O   0  0  0  0  0  0  0  0  0  0  0  0
  190.7420  176.5060  139.5940 N   0  0  0  0  0  2  0  0  0  0  0  0
  191.2100  177.5150  141.8570 C   0  0  0  0  0  2  0  0  0  0  0  0
  190.4010  176.9890  142.9500 N   0  0  0  0  0  0  0  0  0  0  0  0
  190.1480  177.7850  144.1160 C   0  0  0  0  0  0  0  0  0  0  0  0
  189.5060  177.2020  145.2570 N   0  0  0  0  0  2  0  0  0  0  0  0
  189.8990  175.6260  142.8620 C   0  0  0  0  0  1  0  0  0  0  0  0
  190.4910  178.9980  144.1370 O   0  0  0  0  0  0  0  0  0  0  0  0
  189.2050  177.9640  146.4590 C   0  0  0  0  0  2  0  0  0  0  0  0
  189.5260  177.1490  147.7080 C   0  0  0  0  0  2  0  0  0  0  0  0
  191.0280  177.1110  147.9590 C   0  0  0  0  0  2  0  0  0  0  0  0
  191.5800  175.8380  147.5270 N   0  0  0  0  0  1  0  0  0  0  0  0
  188.6950  176.0980  138.3320 C   0  0  0  0  0  2  0  0  0  0  0  0
  188.5900  177.9220  136.6590 N   0  0  0  0  0  2  0  0  0  0  0  0
  187.8210  176.9310  137.4020 C   0  0  2  0  0  0  0  0  0  0  0  0
  187.0150  177.9810  138.1550 C   0  0  1  0  0  3  0  0  0  0  0  0
  187.8540  178.9760  137.3550 C   0  0  2  0  0  3  0  0  0  0  0  0
  187.0560  176.1360  136.5400 O   0  0  0  0  0  1  0  0  0  0  0  0
  187.0930  179.7020  136.4360 O   0  0  0  0  0  1  0  0  0  0  0  0
  183.2700  178.7340  137.9930 N   0  0  0  0  0  2  0  0  0  0  0  0
  184.6260  178.7680  138.4410 C   0  0  0  0  0  0  0  0  0  0  0  0
  184.9530  179.4780  139.4320 O   0  0  0  0  0  0  0  0  0  0  0  0
  185.6080  177.9920  137.7540 N   0  0  0  0  0  2  0  0  0  0  0  0
  182.2380  179.5460  138.6120 C   0  0  0  0  0  2  0  0  0  0  0  0
  181.3030  178.6640  139.4180 C   0  0  0  0  0  2  0  0  0  0  0  0
  181.6400  178.7200  140.7870 O   0  0  0  0  0  0  0  0  0  0  0  0
  180.4940  178.5040  141.5970 C   0  0  2  0  0  0  0  0  0  0  0  0
  180.1540  177.1550  141.4670 O   0  0  0  0  0  1  0  0  0  0  0  0
  179.5490  180.7060  141.1940 O   0  0  0  0  0  1  0  0  0  0  0  0
  179.2910  179.3370  141.0990 C   0  0  0  0  0  2  0  0  0  0  0  0
  180.8090  178.7700  143.0910 C   0  0  2  0  0  3  0  0  0  0  0  0
  179.9220  179.7070  143.6320 O   0  0  0  0  0  1  0  0  0  0  0  0
  182.1240  179.2190  143.2690 O   0  0  0  0  0  0  0  0  0  0  0  0
  184.7020  179.7720  144.2850 O   0  0  0  0  0  0  0  0  0  0  0  0
  182.5240  178.6850  144.4500 N   0  0  0  0  0  2  0  0  0  0  0  0
  183.8130  178.9710  144.9880 C   0  0  0  0  0  0  0  0  0  0  0  0
  184.1470  178.4930  146.0990 O   0  0  0  0  0  1  0  0  0  0  0  0
  190.9380  175.6470  137.3090 C   0  0  0  0  0  2  0  0  0  0  0  0
  192.1710  176.2230  136.9930 O   0  0  0  0  0  0  0  0  0  0  0  0
  192.5130  175.6810  135.7540 C   0  0  0  0  0  2  0  0  0  0  0  0
  194.3350  173.8910  136.4450 C   0  0  0  0  0  0  0  0  0  0  0  0
  197.7970  175.2660  135.9810 S   0  0  0  0  0  0  0  0  0  0  0  0
  195.0020  175.8090  135.3730 C   0  0  0  0  0  0  0  0  0  0  0  0
  193.9060  175.1400  135.7870 C   0  0  0  0  0  0  0  0  0  0  0  0
  196.7160  173.1940  137.0450 N   0  0  0  0  0  0  0  0  0  0  0  0
  199.1670  173.3500  137.5260 C   0  0  0  0  0  1  0  0  0  0  0  0
  197.9140  173.8210  136.8800 C   0  0  0  0  0  0  0  0  0  0  0  0
  195.7780  173.8670  136.3410 C   0  0  0  0  0  0  0  0  0  0  0  0
  193.6060  173.0470  137.0300 O   0  0  0  0  0  0  0  0  0  0  0  0
  195.0300  177.1780  134.7960 C   0  0  0  0  0  1  0  0  0  0  0  0
  196.1640  174.9930  135.7120 C   0  0  0  0  0  0  0  0  0  0  0  0
  1 40  1  6  0  0  0
  1 15  1  0  0  0  0
  1  4  1  0  0  0  0
  2  5  1  0  0  0  0
  3  2  2  0  0  0  0
  4  2  1  0  0  0  0
  5  6  1  0  0  0  0
  6  7  1  0  0  0  0
  7 10  2  0  0  0  0
  7  8  1  0  0  0  0
  8 11  1  0  0  0  0
  9  6  1  0  0  0  0
 11 12  1  0  0  0  0
 12 13  1  0  0  0  0
 14 13  1  0  0  0  0
 16 19  1  0  0  0  0
 16 17  1  0  0  0  0
 17 20  1  6  0  0  0
 17 18  1  0  0  0  0
 17 15  1  0  0  0  0
 18 25  1  6  0  0  0
 19 21  1  6  0  0  0
 19 18  1  0  0  0  0
 22 23  1  0  0  0  0
 22 26  1  0  0  0  0
 23 24  2  0  0  0  0
 25 23  1  0  0  0  0
 26 27  1  0  0  0  0
 27 28  1  0  0  0  0
 28 29  1  0  0  0  0
 29 30  1  6  0  0  0
 29 33  1  0  0  0  0
 32 31  1  0  0  0  0
 32 29  1  0  0  0  0
 33 35  1  0  0  0  0
 33 34  1  6  0  0  0
 35 37  1  0  0  0  0
 36 38  2  0  0  0  0
 37 38  1  0  0  0  0
 38 39  1  0  0  0  0
 41 40  1  0  0  0  0
 42 46  1  0  0  0  0
 42 41  1  0  0  0  0
 43 51  2  0  0  0  0
 44 49  1  0  0  0  0
 45 53  1  0  0  0  0
 45 46  2  0  0  0  0
 46 43  1  0  0  0  0
 49 47  2  0  0  0  0
 49 48  1  0  0  0  0
 50 43  1  0  0  0  0
 50 47  1  0  0  0  0
 52 45  1  0  0  0  0
 53 44  1  0  0  0  0
 53 50  2  0  0  0  0
M  END
>  <MODEL>
9

>  <REMARK>
 VINA RESULT:      -5.4      4.395     10.487
  Name = 
  21 active torsions:
  status: ('A' for Active; 'I' for Inactive)
    1  A    between atoms: C_3  and  C_21
    2  A    between atoms: C_3  and  C_41
    3  A    between atoms: C_3  and  O_51
    4  A    between atoms: N_4  and  C_32
    5  A    between atoms: C_5  and  N_28
    6  A    between atoms: C_5  and  C_33
    7  A    between atoms: O_7  and  N_11
    8  A    between atoms: O_7  and  C_41
    9  A    between atoms: C_8  and  C_44
   10  A    between atoms: N_10  and  C_44
   11  A    between atoms: C_12  and  C_15
   12  A    between atoms: C_14  and  C_33
   13  A    between atoms: C_15  and  C_39
   14  A    between atoms: C_20  and  C_45
   15  A    between atoms: C_22  and  N_46
   16  A    between atoms: C_25  and  C_32
   17  A    between atoms: C_25  and  O_51
   18  A    between atoms: C_37  and  C_39
   19  A    between atoms: C_37  and  O_53
   20  A    between atoms: C_39  and  N_42
   21  A    between atoms: C_45  and  O_53
                            x       y       z     vdW  Elec       q    Type
                         _______ _______ _______ _____ _____    ______ ____

>  <TORSDO>
F 21

$$$$
