=
 OpenBabel11042411343D

 61 65  0  0  1  0  0  0  0  0999 V2000
  185.5220  178.4660  138.1910 N   0  0  0  0  0  0  0  0  0  0  0  0
  186.5850  178.1030  137.5410 C   0  0  0  0  0  0  0  0  0  0  0  0
  188.0510  177.8260  139.7890 C   0  0  2  0  0  3  0  0  0  0  0  0
  190.0910  177.0790  138.2660 C   0  0  2  0  0  3  0  0  0  0  0  0
  189.7160  177.2410  140.0800 S   0  0  0  0  0  0  0  0  0  0  0  0
  188.9400  177.3530  137.4930 O   0  0  0  0  0  0  0  0  0  0  0  0
  187.9440  178.0280  138.2880 C   0  0  1  0  0  3  0  0  0  0  0  0
  187.9590  179.0690  140.3140 O   0  0  0  0  0  1  0  0  0  0  0  0
  190.9220  175.8340  137.8900 C   0  0  0  0  0  2  0  0  0  0  0  0
  192.2010  176.2780  137.1590 C   0  0  2  0  0  3  0  0  0  0  0  0
  193.7950  174.7420  136.2120 N   0  0  0  0  0  0  0  0  0  0  0  0
  192.0090  176.0540  135.6630 C   0  0  0  0  0  2  0  0  0  0  0  0
  192.7980  175.0780  135.2310 C   0  0  0  0  0  2  0  0  0  0  0  0
  193.4100  175.3940  137.4620 C   0  0  0  0  0  2  0  0  0  0  0  0
  195.1060  174.3060  135.7330 C   0  0  0  0  0  0  0  0  0  0  0  0
  195.4440  174.6720  134.5990 O   0  0  0  0  0  0  0  0  0  0  0  0
  196.1640  172.2270  135.2170 O   0  0  0  0  0  1  0  0  0  0  0  0
  195.6660  173.0330  136.2450 C   0  0  1  0  0  3  0  0  0  0  0  0
  196.7760  173.4400  137.1810 C   0  0  0  0  0  2  0  0  0  0  0  0
  196.5590  173.5450  138.7160 C   0  0  2  0  0  3  0  0  0  0  0  0
  195.2930  172.8610  139.0090 N   0  0  0  0  0  1  0  0  0  0  0  0
  196.5490  174.9960  139.3500 C   0  0  0  0  0  2  0  0  0  0  0  0
  197.0900  174.9830  140.6690 O   0  0  0  0  0  1  0  0  0  0  0  0
  185.9820  176.9370  134.9350 S   0  0  0  0  0  0  0  0  0  0  0  0
  185.8330  174.7280  135.9780 C   0  0  0  0  0  0  0  0  0  0  0  0
  186.0430  175.6270  137.0480 C   0  0  0  0  0  3  0  0  0  0  0  0
  185.7570  175.3190  134.7650 C   0  0  0  0  0  3  0  0  0  0  0  0
  186.1940  176.9720  136.6630 C   0  0  0  0  0  0  0  0  0  0  0  0
  185.6160  173.3000  136.1030 C   0  0  0  0  0  2  0  0  0  0  0  0
  185.0680  172.9000  137.3400 O   0  0  0  0  0  0  0  0  0  0  0  0
  183.8720  172.2370  137.0390 C   0  0  0  0  0  2  0  0  0  0  0  0
  182.5510  173.4180  135.4640 O   0  0  0  0  0  0  0  0  0  0  0  0
  183.2630  172.2700  135.7100 C   0  0  2  0  0  3  0  0  0  0  0  0
  181.7610  172.2910  135.8540 C   0  0  0  0  0  2  0  0  0  0  0  0
  185.3520  179.0310  139.4130 O   0  0  0  0  0  0  0  0  0  0  0  0
  183.9790  179.3830  139.6770 C   0  0  0  0  0  2  0  0  0  0  0  0
  183.5530  177.2260  140.2580 O   0  0  0  0  0  1  0  0  0  0  0  0
  183.2410  178.5150  140.6770 C   0  0  1  0  0  3  0  0  0  0  0  0
  183.6140  178.7910  142.0860 C   0  0  0  0  0  0  0  0  0  0  0  0
  182.6170  178.8460  143.1110 C   0  0  0  0  0  3  0  0  0  0  0  0
  180.9530  178.8350  142.9780 C   0  0  1  0  0  3  0  0  0  0  0  0
  180.2460  178.1890  144.0390 O   0  0  0  0  0  1  0  0  0  0  0  0
  180.3220  180.1850  142.7930 N   0  0  0  0  0  1  0  0  0  0  0  0
  185.1720  178.9560  142.2190 C   0  0  0  0  0  2  0  0  0  0  0  0
  186.6630  177.9460  145.9700 C   0  0  0  0  0  0  0  0  0  0  0  0
  185.0530  179.2190  144.6650 C   0  0  0  0  0  3  0  0  0  0  0  0
  187.0240  177.1710  144.8700 C   0  0  0  0  0  3  0  0  0  0  0  0
  185.6780  178.9010  145.8990 C   0  0  0  0  0  3  0  0  0  0  0  0
  185.5520  178.5240  143.5810 C   0  0  0  0  0  0  0  0  0  0  0  0
  186.3770  177.5250  143.6870 N   0  0  0  0  0  0  0  0  0  0  0  0
  188.6260  177.9720  147.5540 C   0  0  0  0  0  0  0  0  0  0  0  0
  187.2610  177.6090  147.2760 N   0  0  0  0  0  2  0  0  0  0  0  0
  189.0760  177.9380  148.7670 O   0  0  0  0  0  0  0  0  0  0  0  0
  189.5880  178.2440  146.5610 O   0  0  0  0  0  0  0  0  0  0  0  0
  190.3750  176.0990  146.7990 O   0  0  0  0  0  1  0  0  0  0  0  0
  190.6490  177.3640  146.2580 C   0  0  1  0  0  3  0  0  0  0  0  0
  190.7970  177.2780  144.7840 C   0  0  0  0  0  0  0  0  0  0  0  0
  191.0840  176.1630  144.2890 O   0  0  0  0  0  0  0  0  0  0  0  0
  190.6250  178.5200  143.8960 C   0  0  0  0  0  3  0  0  0  0  0  0
  191.5300  179.5960  144.1690 F   0  0  0  0  0  0  0  0  0  0  0  0
  189.4060  178.6740  143.1640 F   0  0  0  0  0  0  0  0  0  0  0  0
  1 35  1  0  0  0  0
  2  1  2  0  0  0  0
  3  5  1  0  0  0  0
  3  8  1  1  0  0  0
  4  9  1  1  0  0  0
  4  5  1  0  0  0  0
  6  4  1  0  0  0  0
  6  7  1  0  0  0  0
  7  2  1  6  0  0  0
  7  3  1  0  0  0  0
 10 14  1  0  0  0  0
 10  9  1  1  0  0  0
 11 14  1  0  0  0  0
 12 10  1  0  0  0  0
 13 12  1  0  0  0  0
 13 11  1  0  0  0  0
 15 11  1  0  0  0  0
 15 18  1  0  0  0  0
 16 15  2  0  0  0  0
 18 17  1  6  0  0  0
 18 19  1  0  0  0  0
 19 20  1  0  0  0  0
 20 21  1  6  0  0  0
 20 22  1  0  0  0  0
 22 23  1  0  0  0  0
 24 28  1  0  0  0  0
 25 29  1  0  0  0  0
 25 26  1  0  0  0  0
 27 24  1  0  0  0  0
 27 25  2  0  0  0  0
 28 26  2  0  0  0  0
 28  2  1  0  0  0  0
 29 30  1  0  0  0  0
 31 30  1  0  0  0  0
 32 33  1  0  0  0  0
 32 34  1  0  0  0  0
 33 34  1  0  0  0  0
 33 31  1  1  0  0  0
 35 36  1  0  0  0  0
 36 38  1  0  0  0  0
 38 37  1  6  0  0  0
 38 39  1  0  0  0  0
 39 44  1  0  0  0  0
 39 40  2  0  0  0  0
 41 43  1  1  0  0  0
 41 40  1  0  0  0  0
 41 42  1  0  0  0  0
 44 49  1  0  0  0  0
 45 52  1  0  0  0  0
 46 48  2  0  0  0  0
 47 45  2  0  0  0  0
 48 45  1  0  0  0  0
 49 50  2  0  0  0  0
 49 46  1  0  0  0  0
 50 47  1  0  0  0  0
 51 53  2  0  0  0  0
 52 51  1  0  0  0  0
 54 51  1  0  0  0  0
 56 54  1  0  0  0  0
 56 55  1  6  0  0  0
 57 56  1  0  0  0  0
 58 57  2  0  0  0  0
 59 60  1  0  0  0  0
 59 57  1  0  0  0  0
 61 59  1  0  0  0  0
M  END
>  <MODEL>
1

>  <REMARK>
 VINA RESULT:      -7.4      0.000      0.000
  Name = 
  24 active torsions:
  status: ('A' for Active; 'I' for Inactive)
    1  A    between atoms: C_2  and  O_55
    2  A    between atoms: C_3  and  C_47
    3  A    between atoms: CA_4  and  C_11
    4  A    between atoms: CA_4  and  C_25
    5  A    between atoms: C_7  and  C_9
    6  A    between atoms: C_7  and  C_24
    7  A    between atoms: C_8  and  C_47
    8  A    between atoms: C_10  and  C_30
    9  A    between atoms: C_10  and  C_50
   10  A    between atoms: C_14  and  N_37
   11  A    between atoms: C_15  and  C_16
   12  A    between atoms: N_22  and  O_60
   13  A    between atoms: C_24  and  O_55
   14  A    between atoms: C_25  and  C_56
   15  A    between atoms: C_30  and  C_58
   16  A    between atoms: C_32  and  O_38
   17  A    between atoms: C_32  and  C_44
   18  A    between atoms: C_33  and  C_34
   19  A    between atoms: C_33  and  O_38
   20  A    between atoms: C_42  and  C_45
   21  A    between atoms: C_45  and  C_61
   22  A    between atoms: C_50  and  C_53
   23  A    between atoms: C_51  and  C_56
   24  A    between atoms: C_58  and  O_60
                            x       y       z     vdW  Elec       q    Type
                         _______ _______ _______ _____ _____    ______ ____

>  <TORSDO>
F 24

$$$$
=
 OpenBabel11042411343D

 61 65  0  0  1  0  0  0  0  0999 V2000
  185.3330  177.7580  137.9740 N   0  0  0  0  0  0  0  0  0  0  0  0
  185.4870  176.5780  137.4550 C   0  0  0  0  0  0  0  0  0  0  0  0
  184.1800  174.3190  136.7730 C   0  0  2  0  0  3  0  0  0  0  0  0
  181.9090  175.6790  136.9490 C   0  0  2  0  0  3  0  0  0  0  0  0
  182.4410  173.9260  136.6330 S   0  0  0  0  0  0  0  0  0  0  0  0
  183.0240  176.4880  137.2640 O   0  0  0  0  0  0  0  0  0  0  0  0
  184.2500  175.8310  136.8860 C   0  0  1  0  0  3  0  0  0  0  0  0
  184.7590  174.0320  135.5860 O   0  0  0  0  0  1  0  0  0  0  0  0
  180.6530  175.8200  137.8370 C   0  0  0  0  0  2  0  0  0  0  0  0
  179.6060  176.6740  137.1030 C   0  0  2  0  0  3  0  0  0  0  0  0
  179.9010  179.0130  136.6150 N   0  0  0  0  0  0  0  0  0  0  0  0
  180.1010  176.9380  135.6840 C   0  0  0  0  0  2  0  0  0  0  0  0
  180.4060  178.2200  135.5270 C   0  0  0  0  0  2  0  0  0  0  0  0
  179.4770  178.0900  137.6640 C   0  0  0  0  0  2  0  0  0  0  0  0
  179.4720  180.3800  136.3230 C   0  0  0  0  0  0  0  0  0  0  0  0
  179.1320  180.6290  135.1570 O   0  0  0  0  0  0  0  0  0  0  0  0
  181.3050  181.2100  137.6120 O   0  0  0  0  0  1  0  0  0  0  0  0
  180.0210  181.4910  137.1350 C   0  0  1  0  0  3  0  0  0  0  0  0
  180.0510  182.6790  136.2070 C   0  0  0  0  0  2  0  0  0  0  0  0
  179.5920  184.0910  136.6640 C   0  0  2  0  0  3  0  0  0  0  0  0
  179.1510  184.8020  135.4570 N   0  0  0  0  0  1  0  0  0  0  0  0
  180.6400  184.9730  137.4590 C   0  0  0  0  0  2  0  0  0  0  0  0
  181.9760  184.6160  137.1150 O   0  0  0  0  0  1  0  0  0  0  0  0
  187.3910  177.9230  135.7000 S   0  0  0  0  0  0  0  0  0  0  0  0
  188.8790  175.9860  135.8620 C   0  0  0  0  0  0  0  0  0  0  0  0
  187.7180  175.6190  136.5790 C   0  0  0  0  0  3  0  0  0  0  0  0
  188.8230  177.2180  135.3090 C   0  0  0  0  0  3  0  0  0  0  0  0
  186.7280  176.6170  136.6430 C   0  0  0  0  0  0  0  0  0  0  0  0
  190.0280  175.1360  135.6190 C   0  0  0  0  0  2  0  0  0  0  0  0
  190.3920  174.3230  136.7130 O   0  0  0  0  0  0  0  0  0  0  0  0
  191.7740  174.4800  136.8720 C   0  0  0  0  0  2  0  0  0  0  0  0
  191.9890  176.6730  137.7480 O   0  0  0  0  0  0  0  0  0  0  0  0
  192.3580  175.3570  137.8850 C   0  0  2  0  0  3  0  0  0  0  0  0
  193.2750  176.3490  137.2130 C   0  0  0  0  0  2  0  0  0  0  0  0
  184.2270  178.4520  138.3430 O   0  0  0  0  0  0  0  0  0  0  0  0
  184.2850  178.9050  139.7110 C   0  0  0  0  0  2  0  0  0  0  0  0
  183.1370  177.0730  140.4150 O   0  0  0  0  0  1  0  0  0  0  0  0
  183.1620  178.4470  140.6210 C   0  0  1  0  0  3  0  0  0  0  0  0
  183.3570  178.8360  142.0390 C   0  0  0  0  0  0  0  0  0  0  0  0
  182.2960  178.6960  142.9900 C   0  0  0  0  0  3  0  0  0  0  0  0
  180.6900  178.3140  142.7430 C   0  0  1  0  0  3  0  0  0  0  0  0
  179.9280  178.0320  143.9180 O   0  0  0  0  0  1  0  0  0  0  0  0
  179.9120  179.3250  141.9510 N   0  0  0  0  0  1  0  0  0  0  0  0
  184.8270  179.3440  142.2720 C   0  0  0  0  0  2  0  0  0  0  0  0
  186.5770  177.9290  145.7720 C   0  0  0  0  0  0  0  0  0  0  0  0
  184.9830  179.4410  144.7280 C   0  0  0  0  0  3  0  0  0  0  0  0
  186.7420  177.2040  144.5940 C   0  0  0  0  0  3  0  0  0  0  0  0
  185.6930  178.9770  145.8660 C   0  0  0  0  0  3  0  0  0  0  0  0
  185.2960  178.7810  143.5560 C   0  0  0  0  0  0  0  0  0  0  0  0
  186.0200  177.7020  143.5110 N   0  0  0  0  0  0  0  0  0  0  0  0
  188.6880  177.2240  146.9580 C   0  0  0  0  0  0  0  0  0  0  0  0
  187.2660  177.4440  146.9820 N   0  0  0  0  0  2  0  0  0  0  0  0
  189.3440  177.0700  148.0630 O   0  0  0  0  0  0  0  0  0  0  0  0
  189.4340  177.0220  145.7800 O   0  0  0  0  0  0  0  0  0  0  0  0
  191.5200  176.4220  146.5350 O   0  0  0  0  0  1  0  0  0  0  0  0
  190.8170  177.2940  145.6910 C   0  0  1  0  0  3  0  0  0  0  0  0
  191.2510  177.1160  144.2830 C   0  0  0  0  0  0  0  0  0  0  0  0
  191.4920  175.9510  143.8870 O   0  0  0  0  0  0  0  0  0  0  0  0
  191.4200  178.3230  143.3470 C   0  0  0  0  0  3  0  0  0  0  0  0
  190.9550  179.5720  143.8710 F   0  0  0  0  0  0  0  0  0  0  0  0
  191.6540  178.0830  141.9570 F   0  0  0  0  0  0  0  0  0  0  0  0
  1 35  1  0  0  0  0
  2  1  2  0  0  0  0
  3  8  1  6  0  0  0
  3  7  1  0  0  0  0
  4  6  1  0  0  0  0
  4  9  1  1  0  0  0
  5  3  1  0  0  0  0
  5  4  1  0  0  0  0
  7  6  1  0  0  0  0
  7  2  1  1  0  0  0
 10 14  1  0  0  0  0
 10  9  1  1  0  0  0
 11 14  1  0  0  0  0
 12 10  1  0  0  0  0
 13 12  1  0  0  0  0
 13 11  1  0  0  0  0
 15 11  1  0  0  0  0
 15 18  1  0  0  0  0
 16 15  2  0  0  0  0
 18 17  1  6  0  0  0
 19 20  1  0  0  0  0
 19 18  1  0  0  0  0
 20 21  1  6  0  0  0
 20 22  1  0  0  0  0
 23 22  1  0  0  0  0
 24 28  1  0  0  0  0
 25 26  1  0  0  0  0
 26 28  2  0  0  0  0
 27 24  1  0  0  0  0
 27 25  2  0  0  0  0
 28  2  1  0  0  0  0
 29 25  1  0  0  0  0
 29 30  1  0  0  0  0
 30 31  1  0  0  0  0
 32 33  1  0  0  0  0
 33 31  1  6  0  0  0
 34 32  1  0  0  0  0
 34 33  1  0  0  0  0
 35 36  1  0  0  0  0
 36 38  1  0  0  0  0
 38 37  1  1  0  0  0
 38 39  1  0  0  0  0
 39 44  1  0  0  0  0
 39 40  2  0  0  0  0
 41 43  1  1  0  0  0
 41 40  1  0  0  0  0
 41 42  1  0  0  0  0
 44 49  1  0  0  0  0
 45 48  1  0  0  0  0
 45 52  1  0  0  0  0
 46 48  2  0  0  0  0
 47 45  2  0  0  0  0
 49 46  1  0  0  0  0
 50 49  2  0  0  0  0
 50 47  1  0  0  0  0
 51 52  1  0  0  0  0
 51 53  2  0  0  0  0
 54 51  1  0  0  0  0
 56 54  1  0  0  0  0
 56 55  1  1  0  0  0
 57 56  1  0  0  0  0
 58 57  2  0  0  0  0
 59 60  1  0  0  0  0
 59 57  1  0  0  0  0
 61 59  1  0  0  0  0
M  END
>  <MODEL>
2

>  <REMARK>
 VINA RESULT:      -6.9      3.378      8.958
  Name = 
  24 active torsions:
  status: ('A' for Active; 'I' for Inactive)
    1  A    between atoms: C_2  and  O_55
    2  A    between atoms: C_3  and  C_47
    3  A    between atoms: CA_4  and  C_11
    4  A    between atoms: CA_4  and  C_25
    5  A    between atoms: C_7  and  C_9
    6  A    between atoms: C_7  and  C_24
    7  A    between atoms: C_8  and  C_47
    8  A    between atoms: C_10  and  C_30
    9  A    between atoms: C_10  and  C_50
   10  A    between atoms: C_14  and  N_37
   11  A    between atoms: C_15  and  C_16
   12  A    between atoms: N_22  and  O_60
   13  A    between atoms: C_24  and  O_55
   14  A    between atoms: C_25  and  C_56
   15  A    between atoms: C_30  and  C_58
   16  A    between atoms: C_32  and  O_38
   17  A    between atoms: C_32  and  C_44
   18  A    between atoms: C_33  and  C_34
   19  A    between atoms: C_33  and  O_38
   20  A    between atoms: C_42  and  C_45
   21  A    between atoms: C_45  and  C_61
   22  A    between atoms: C_50  and  C_53
   23  A    between atoms: C_51  and  C_56
   24  A    between atoms: C_58  and  O_60
                            x       y       z     vdW  Elec       q    Type
                         _______ _______ _______ _____ _____    ______ ____

>  <TORSDO>
F 24

$$$$
=
 OpenBabel11042411343D

 61 65  0  0  1  0  0  0  0  0999 V2000
  187.6410  177.6860  142.9440 N   0  0  0  0  0  0  0  0  0  0  0  0
  186.6550  178.3960  143.4000 C   0  0  0  0  0  0  0  0  0  0  0  0
  184.0440  179.0500  143.2040 C   0  0  2  0  0  3  0  0  0  0  0  0
  184.0390  177.9590  140.7860 C   0  0  2  0  0  3  0  0  0  0  0  0
  182.8570  178.8910  141.8770 S   0  0  0  0  0  0  0  0  0  0  0  0
  185.3170  177.8880  141.3840 O   0  0  0  0  0  0  0  0  0  0  0  0
  185.2400  178.2130  142.7860 C   0  0  1  0  0  3  0  0  0  0  0  0
  183.5360  178.4150  144.2840 O   0  0  0  0  0  1  0  0  0  0  0  0
  183.9710  178.3400  139.2910 C   0  0  0  0  0  2  0  0  0  0  0  0
  182.6010  177.9320  138.7250 C   0  0  2  0  0  3  0  0  0  0  0  0
  182.2260  175.9070  137.4780 N   0  0  0  0  0  0  0  0  0  0  0  0
  182.0430  176.7940  139.5740 C   0  0  0  0  0  2  0  0  0  0  0  0
  182.0170  175.6630  138.8800 C   0  0  0  0  0  2  0  0  0  0  0  0
  182.6840  177.2870  137.3420 C   0  0  0  0  0  2  0  0  0  0  0  0
  181.5440  175.0340  136.5240 C   0  0  0  0  0  0  0  0  0  0  0  0
  180.5130  174.4670  136.9120 O   0  0  0  0  0  0  0  0  0  0  0  0
  183.4150  175.1580  135.0440 O   0  0  0  0  0  1  0  0  0  0  0  0
  182.3410  174.3700  135.4650 C   0  0  1  0  0  3  0  0  0  0  0  0
  182.8370  173.0910  136.0920 C   0  0  0  0  0  2  0  0  0  0  0  0
  184.3500  172.7420  136.1570 C   0  0  2  0  0  3  0  0  0  0  0  0
  184.4440  171.2770  136.1340 N   0  0  0  0  0  1  0  0  0  0  0  0
  185.1750  173.3180  137.3790 C   0  0  0  0  0  2  0  0  0  0  0  0
  185.3300  174.7310  137.2730 O   0  0  0  0  0  1  0  0  0  0  0  0
  185.7740  179.2110  146.0600 S   0  0  0  0  0  0  0  0  0  0  0  0
  187.5100  177.7950  147.0480 C   0  0  0  0  0  0  0  0  0  0  0  0
  187.7140  177.7080  145.6520 C   0  0  0  0  0  3  0  0  0  0  0  0
  186.4900  178.6060  147.4090 C   0  0  0  0  0  3  0  0  0  0  0  0
  186.7880  178.4320  144.8770 C   0  0  0  0  0  0  0  0  0  0  0  0
  188.3370  177.1750  148.0640 C   0  0  0  0  0  2  0  0  0  0  0  0
  189.6990  177.5410  148.0090 O   0  0  0  0  0  0  0  0  0  0  0  0
  190.3630  176.4740  147.3920 C   0  0  0  0  0  2  0  0  0  0  0  0
  191.7650  175.6450  145.6680 O   0  0  0  0  0  0  0  0  0  0  0  0
  191.5620  176.6560  146.5750 C   0  0  2  0  0  3  0  0  0  0  0  0
  192.5360  175.5410  146.8680 C   0  0  0  0  0  2  0  0  0  0  0  0
  187.7690  176.9120  141.8380 O   0  0  0  0  0  0  0  0  0  0  0  0
  188.8740  177.3130  141.0030 C   0  0  0  0  0  2  0  0  0  0  0  0
  188.7320  179.2580  139.8340 O   0  0  0  0  0  1  0  0  0  0  0  0
  188.5190  177.8970  139.6500 C   0  0  1  0  0  3  0  0  0  0  0  0
  189.3030  177.3160  138.5330 C   0  0  0  0  0  0  0  0  0  0  0  0
  188.9140  177.5340  137.1730 C   0  0  0  0  0  3  0  0  0  0  0  0
  187.5230  178.2270  136.5620 C   0  0  1  0  0  3  0  0  0  0  0  0
  187.3950  179.6380  136.7500 O   0  0  0  0  0  1  0  0  0  0  0  0
  187.2650  177.9560  135.1080 N   0  0  0  0  0  1  0  0  0  0  0  0
  190.5450  176.5260  139.0860 C   0  0  0  0  0  2  0  0  0  0  0  0
  192.7820  174.6060  136.1500 C   0  0  0  0  0  0  0  0  0  0  0  0
  190.7520  174.6640  137.4870 C   0  0  0  0  0  3  0  0  0  0  0  0
  193.1290  175.9040  136.5210 C   0  0  0  0  0  3  0  0  0  0  0  0
  191.6140  174.0150  136.5650 C   0  0  0  0  0  3  0  0  0  0  0  0
  191.2160  175.8860  137.9360 C   0  0  0  0  0  0  0  0  0  0  0  0
  192.2450  176.4930  137.4250 N   0  0  0  0  0  0  0  0  0  0  0  0
  195.0650  173.9260  135.3200 C   0  0  0  0  0  0  0  0  0  0  0  0
  193.6350  173.9240  135.1590 N   0  0  0  0  0  2  0  0  0  0  0  0
  195.8010  173.1140  134.6320 O   0  0  0  0  0  0  0  0  0  0  0  0
  195.7690  174.8670  136.0970 O   0  0  0  0  0  0  0  0  0  0  0  0
  197.7040  175.8000  136.9130 O   0  0  0  0  0  1  0  0  0  0  0  0
  197.0240  174.5940  136.6830 C   0  0  1  0  0  3  0  0  0  0  0  0
  196.8110  173.8660  137.9580 C   0  0  0  0  0  0  0  0  0  0  0  0
  197.6830  173.0360  138.3100 O   0  0  0  0  0  0  0  0  0  0  0  0
  195.5530  174.1050  138.8070 C   0  0  0  0  0  3  0  0  0  0  0  0
  194.4910  173.1650  138.6030 F   0  0  0  0  0  0  0  0  0  0  0  0
  195.3750  175.3830  139.4220 F   0  0  0  0  0  0  0  0  0  0  0  0
  1  2  2  0  0  0  0
  2 28  1  0  0  0  0
  3  8  1  1  0  0  0
  4  9  1  6  0  0  0
  4  6  1  0  0  0  0
  4  5  1  0  0  0  0
  5  3  1  0  0  0  0
  6  7  1  0  0  0  0
  7  3  1  0  0  0  0
  7  2  1  6  0  0  0
 10  9  1  1  0  0  0
 10 12  1  0  0  0  0
 11 13  1  0  0  0  0
 13 12  1  0  0  0  0
 14 11  1  0  0  0  0
 14 10  1  0  0  0  0
 15 16  2  0  0  0  0
 15 11  1  0  0  0  0
 18 17  1  1  0  0  0
 18 19  1  0  0  0  0
 18 15  1  0  0  0  0
 19 20  1  0  0  0  0
 20 21  1  1  0  0  0
 20 22  1  0  0  0  0
 23 22  1  0  0  0  0
 24 27  1  0  0  0  0
 25 27  2  0  0  0  0
 25 29  1  0  0  0  0
 26 25  1  0  0  0  0
 28 26  2  0  0  0  0
 28 24  1  0  0  0  0
 30 29  1  0  0  0  0
 31 30  1  0  0  0  0
 32 33  1  0  0  0  0
 32 34  1  0  0  0  0
 33 34  1  0  0  0  0
 33 31  1  1  0  0  0
 35  1  1  0  0  0  0
 36 35  1  0  0  0  0
 38 37  1  1  0  0  0
 38 36  1  0  0  0  0
 39 44  1  0  0  0  0
 39 38  1  0  0  0  0
 40 39  2  0  0  0  0
 41 43  1  6  0  0  0
 41 42  1  0  0  0  0
 41 40  1  0  0  0  0
 45 47  2  0  0  0  0
 45 48  1  0  0  0  0
 46 49  1  0  0  0  0
 47 50  1  0  0  0  0
 48 46  2  0  0  0  0
 49 44  1  0  0  0  0
 50 49  2  0  0  0  0
 51 54  1  0  0  0  0
 52 51  1  0  0  0  0
 52 45  1  0  0  0  0
 53 51  2  0  0  0  0
 54 56  1  0  0  0  0
 56 55  1  1  0  0  0
 56 57  1  0  0  0  0
 57 58  2  0  0  0  0
 57 59  1  0  0  0  0
 59 61  1  0  0  0  0
 60 59  1  0  0  0  0
M  END
>  <MODEL>
3

>  <REMARK>
 VINA RESULT:      -6.2      2.895     10.666
  Name = 
  24 active torsions:
  status: ('A' for Active; 'I' for Inactive)
    1  A    between atoms: C_2  and  O_55
    2  A    between atoms: C_3  and  C_47
    3  A    between atoms: CA_4  and  C_11
    4  A    between atoms: CA_4  and  C_25
    5  A    between atoms: C_7  and  C_9
    6  A    between atoms: C_7  and  C_24
    7  A    between atoms: C_8  and  C_47
    8  A    between atoms: C_10  and  C_30
    9  A    between atoms: C_10  and  C_50
   10  A    between atoms: C_14  and  N_37
   11  A    between atoms: C_15  and  C_16
   12  A    between atoms: N_22  and  O_60
   13  A    between atoms: C_24  and  O_55
   14  A    between atoms: C_25  and  C_56
   15  A    between atoms: C_30  and  C_58
   16  A    between atoms: C_32  and  O_38
   17  A    between atoms: C_32  and  C_44
   18  A    between atoms: C_33  and  C_34
   19  A    between atoms: C_33  and  O_38
   20  A    between atoms: C_42  and  C_45
   21  A    between atoms: C_45  and  C_61
   22  A    between atoms: C_50  and  C_53
   23  A    between atoms: C_51  and  C_56
   24  A    between atoms: C_58  and  O_60
                            x       y       z     vdW  Elec       q    Type
                         _______ _______ _______ _____ _____    ______ ____

>  <TORSDO>
F 24

$$$$
=
 OpenBabel11042411343D

 61 65  0  0  1  0  0  0  0  0999 V2000
  185.6080  178.7820  139.4550 N   0  0  0  0  0  0  0  0  0  0  0  0
  185.1220  177.9070  138.6280 C   0  0  0  0  0  0  0  0  0  0  0  0
  182.9160  179.3630  138.0860 C   0  0  2  0  0  3  0  0  0  0  0  0
  182.0760  177.3640  136.5560 C   0  0  2  0  0  3  0  0  0  0  0  0
  181.5200  179.0820  137.0040 S   0  0  0  0  0  0  0  0  0  0  0  0
  183.3380  177.0850  137.1280 O   0  0  0  0  0  0  0  0  0  0  0  0
  183.6440  178.0330  138.1700 C   0  0  1  0  0  3  0  0  0  0  0  0
  182.4320  179.5730  139.3300 O   0  0  0  0  0  1  0  0  0  0  0  0
  181.8650  176.9870  135.0740 C   0  0  0  0  0  2  0  0  0  0  0  0
  181.0260  175.7010  134.9920 C   0  0  2  0  0  3  0  0  0  0  0  0
  181.7640  173.5730  135.8400 N   0  0  0  0  0  0  0  0  0  0  0  0
  180.4850  175.3840  136.3830 C   0  0  0  0  0  2  0  0  0  0  0  0
  181.0550  174.2880  136.8670 C   0  0  0  0  0  2  0  0  0  0  0  0
  181.8530  174.4550  134.6800 C   0  0  0  0  0  2  0  0  0  0  0  0
  181.8090  172.1140  135.9290 C   0  0  0  0  0  0  0  0  0  0  0  0
  180.9010  171.5580  136.5650 O   0  0  0  0  0  0  0  0  0  0  0  0
  183.7200  171.5630  134.6050 O   0  0  0  0  0  1  0  0  0  0  0  0
  183.1230  171.4320  135.8620 C   0  0  1  0  0  3  0  0  0  0  0  0
  183.9660  172.1000  136.9190 C   0  0  0  0  0  2  0  0  0  0  0  0
  185.2970  172.8220  136.5740 C   0  0  2  0  0  3  0  0  0  0  0  0
  186.0450  172.9510  137.8310 N   0  0  0  0  0  1  0  0  0  0  0  0
  185.1930  174.2310  135.8590 C   0  0  0  0  0  2  0  0  0  0  0  0
  186.3910  174.5360  135.1490 O   0  0  0  0  0  1  0  0  0  0  0  0
  186.3560  178.3600  136.0220 S   0  0  0  0  0  0  0  0  0  0  0  0
  188.2280  176.9260  136.6800 C   0  0  0  0  0  0  0  0  0  0  0  0
  187.3170  176.8600  137.7580 C   0  0  0  0  0  3  0  0  0  0  0  0
  187.8130  177.6970  135.6510 C   0  0  0  0  0  3  0  0  0  0  0  0
  186.1640  177.6520  137.6020 C   0  0  0  0  0  0  0  0  0  0  0  0
  189.4700  176.1860  136.5760 C   0  0  0  0  0  2  0  0  0  0  0  0
  190.5620  176.7850  137.2390 O   0  0  0  0  0  0  0  0  0  0  0  0
  191.7140  176.2130  136.6870 C   0  0  0  0  0  2  0  0  0  0  0  0
  191.7490  174.1590  137.8710 O   0  0  0  0  0  0  0  0  0  0  0  0
  191.9410  174.7690  136.6560 C   0  0  2  0  0  3  0  0  0  0  0  0
  193.1150  174.4320  137.5440 C   0  0  0  0  0  2  0  0  0  0  0  0
  185.0180  179.7320  140.2230 O   0  0  0  0  0  0  0  0  0  0  0  0
  185.1530  179.4680  141.6350 C   0  0  0  0  0  2  0  0  0  0  0  0
  184.5510  177.3950  142.3500 O   0  0  0  0  0  1  0  0  0  0  0  0
  184.0300  178.6830  142.2840 C   0  0  1  0  0  3  0  0  0  0  0  0
  183.6150  179.2270  143.6000 C   0  0  0  0  0  0  0  0  0  0  0  0
  182.3000  178.9850  144.1110 C   0  0  0  0  0  3  0  0  0  0  0  0
  180.9760  178.2980  143.3600 C   0  0  1  0  0  3  0  0  0  0  0  0
  180.3720  177.1980  144.0430 O   0  0  0  0  0  1  0  0  0  0  0  0
  179.8730  179.2580  143.0180 N   0  0  0  0  0  1  0  0  0  0  0  0
  184.8020  180.0110  144.2690 C   0  0  0  0  0  2  0  0  0  0  0  0
  187.4360  177.5580  146.3560 C   0  0  0  0  0  0  0  0  0  0  0  0
  185.4690  178.9880  146.4080 C   0  0  0  0  0  3  0  0  0  0  0  0
  187.4380  177.5190  144.9630 C   0  0  0  0  0  3  0  0  0  0  0  0
  186.4620  178.2170  147.0670 C   0  0  0  0  0  3  0  0  0  0  0  0
  185.6060  179.0350  145.0340 C   0  0  0  0  0  0  0  0  0  0  0  0
  186.4400  178.2910  144.3700 N   0  0  0  0  0  0  0  0  0  0  0  0
  189.8340  176.9650  146.8690 C   0  0  0  0  0  0  0  0  0  0  0  0
  188.4270  176.7300  147.0690 N   0  0  0  0  0  2  0  0  0  0  0  0
  190.7030  176.4510  147.6780 O   0  0  0  0  0  0  0  0  0  0  0  0
  190.3700  177.6220  145.7440 O   0  0  0  0  0  0  0  0  0  0  0  0
  190.6470  175.7050  144.5090 O   0  0  0  0  0  1  0  0  0  0  0  0
  191.1810  176.9720  144.7890 C   0  0  1  0  0  3  0  0  0  0  0  0
  191.2300  177.7990  143.5580 C   0  0  0  0  0  0  0  0  0  0  0  0
  191.8670  178.8780  143.6030 O   0  0  0  0  0  0  0  0  0  0  0  0
  190.5050  177.3580  142.2770 C   0  0  0  0  0  3  0  0  0  0  0  0
  190.9720  177.9700  141.0690 F   0  0  0  0  0  0  0  0  0  0  0  0
  189.2390  176.7050  142.3970 F   0  0  0  0  0  0  0  0  0  0  0  0
  1 35  1  0  0  0  0
  2  1  2  0  0  0  0
  3  7  1  0  0  0  0
  3  8  1  1  0  0  0
  4  9  1  6  0  0  0
  4  5  1  0  0  0  0
  4  6  1  0  0  0  0
  5  3  1  0  0  0  0
  6  7  1  0  0  0  0
  7  2  1  6  0  0  0
 10  9  1  1  0  0  0
 10 12  1  0  0  0  0
 11 15  1  0  0  0  0
 11 13  1  0  0  0  0
 12 13  1  0  0  0  0
 14 10  1  0  0  0  0
 14 11  1  0  0  0  0
 15 16  2  0  0  0  0
 18 17  1  6  0  0  0
 18 15  1  0  0  0  0
 18 19  1  0  0  0  0
 20 19  1  0  0  0  0
 20 21  1  1  0  0  0
 22 20  1  0  0  0  0
 23 22  1  0  0  0  0
 24 28  1  0  0  0  0
 25 26  1  0  0  0  0
 27 24  1  0  0  0  0
 27 25  2  0  0  0  0
 28 26  2  0  0  0  0
 28  2  1  0  0  0  0
 29 25  1  0  0  0  0
 29 30  1  0  0  0  0
 31 30  1  0  0  0  0
 33 31  1  1  0  0  0
 33 34  1  0  0  0  0
 33 32  1  0  0  0  0
 34 32  1  0  0  0  0
 35 36  1  0  0  0  0
 36 38  1  0  0  0  0
 38 37  1  1  0  0  0
 38 39  1  0  0  0  0
 39 40  2  0  0  0  0
 39 44  1  0  0  0  0
 41 43  1  1  0  0  0
 41 42  1  0  0  0  0
 41 40  1  0  0  0  0
 44 49  1  0  0  0  0
 45 48  1  0  0  0  0
 45 52  1  0  0  0  0
 46 48  2  0  0  0  0
 47 45  2  0  0  0  0
 49 46  1  0  0  0  0
 50 47  1  0  0  0  0
 50 49  2  0  0  0  0
 51 52  1  0  0  0  0
 51 53  2  0  0  0  0
 54 51  1  0  0  0  0
 56 55  1  6  0  0  0
 56 54  1  0  0  0  0
 57 58  2  0  0  0  0
 57 56  1  0  0  0  0
 59 61  1  0  0  0  0
 59 57  1  0  0  0  0
 60 59  1  0  0  0  0
M  END
>  <MODEL>
4

>  <REMARK>
 VINA RESULT:      -6.2      2.727      7.036
  Name = 
  24 active torsions:
  status: ('A' for Active; 'I' for Inactive)
    1  A    between atoms: C_2  and  O_55
    2  A    between atoms: C_3  and  C_47
    3  A    between atoms: CA_4  and  C_11
    4  A    between atoms: CA_4  and  C_25
    5  A    between atoms: C_7  and  C_9
    6  A    between atoms: C_7  and  C_24
    7  A    between atoms: C_8  and  C_47
    8  A    between atoms: C_10  and  C_30
    9  A    between atoms: C_10  and  C_50
   10  A    between atoms: C_14  and  N_37
   11  A    between atoms: C_15  and  C_16
   12  A    between atoms: N_22  and  O_60
   13  A    between atoms: C_24  and  O_55
   14  A    between atoms: C_25  and  C_56
   15  A    between atoms: C_30  and  C_58
   16  A    between atoms: C_32  and  O_38
   17  A    between atoms: C_32  and  C_44
   18  A    between atoms: C_33  and  C_34
   19  A    between atoms: C_33  and  O_38
   20  A    between atoms: C_42  and  C_45
   21  A    between atoms: C_45  and  C_61
   22  A    between atoms: C_50  and  C_53
   23  A    between atoms: C_51  and  C_56
   24  A    between atoms: C_58  and  O_60
                            x       y       z     vdW  Elec       q    Type
                         _______ _______ _______ _____ _____    ______ ____

>  <TORSDO>
F 24

$$$$
=
 OpenBabel11042411343D

 61 65  0  0  1  0  0  0  0  0999 V2000
  192.3780  175.5100  137.6170 N   0  0  0  0  0  0  0  0  0  0  0  0
  191.7770  174.5050  137.0580 C   0  0  0  0  0  0  0  0  0  0  0  0
  190.0960  175.4070  135.1500 C   0  0  2  0  0  3  0  0  0  0  0  0
  188.3090  173.6450  136.0100 C   0  0  2  0  0  3  0  0  0  0  0  0
  188.4640  174.8870  134.6360 S   0  0  0  0  0  0  0  0  0  0  0  0
  189.5130  173.5640  136.7460 O   0  0  0  0  0  0  0  0  0  0  0  0
  190.3530  174.7020  136.4700 C   0  0  1  0  0  3  0  0  0  0  0  0
  190.0260  176.7190  135.4650 O   0  0  0  0  0  1  0  0  0  0  0  0
  187.6310  172.3180  135.6030 C   0  0  0  0  0  2  0  0  0  0  0  0
  186.3570  172.1210  136.4430 C   0  0  2  0  0  3  0  0  0  0  0  0
  184.7410  173.8600  136.8370 N   0  0  0  0  0  0  0  0  0  0  0  0
  185.1600  172.0580  135.5000 C   0  0  0  0  0  2  0  0  0  0  0  0
  184.3910  173.1300  135.6480 C   0  0  0  0  0  2  0  0  0  0  0  0
  186.0130  173.3270  137.3160 C   0  0  0  0  0  2  0  0  0  0  0  0
  183.6690  174.5490  137.5560 C   0  0  0  0  0  0  0  0  0  0  0  0
  182.5180  174.1180  137.4030 O   0  0  0  0  0  0  0  0  0  0  0  0
  184.8090  176.5960  137.0830 O   0  0  0  0  0  1  0  0  0  0  0  0
  183.8320  175.9870  137.8760 C   0  0  1  0  0  3  0  0  0  0  0  0
  182.4800  176.6030  137.6140 C   0  0  0  0  0  2  0  0  0  0  0  0
  181.6120  177.1950  138.7580 C   0  0  2  0  0  3  0  0  0  0  0  0
  180.6730  178.1340  138.1310 N   0  0  0  0  0  1  0  0  0  0  0  0
  182.3710  177.9060  139.9520 C   0  0  0  0  0  2  0  0  0  0  0  0
  182.1590  179.3150  139.9280 O   0  0  0  0  0  1  0  0  0  0  0  0
  193.4140  174.1810  134.6640 S   0  0  0  0  0  0  0  0  0  0  0  0
  194.5790  172.3140  135.7360 C   0  0  0  0  0  0  0  0  0  0  0  0
  193.5710  172.6920  136.6510 C   0  0  0  0  0  3  0  0  0  0  0  0
  194.5900  173.0360  134.5940 C   0  0  0  0  0  3  0  0  0  0  0  0
  192.7900  173.7890  136.2420 C   0  0  0  0  0  0  0  0  0  0  0  0
  195.4950  171.2020  135.8980 C   0  0  0  0  0  2  0  0  0  0  0  0
  196.5720  171.4570  136.7740 O   0  0  0  0  0  0  0  0  0  0  0  0
  196.8820  172.8140  136.6230 C   0  0  0  0  0  2  0  0  0  0  0  0
  196.9650  175.0660  137.3620 O   0  0  0  0  0  0  0  0  0  0  0  0
  196.9050  173.7490  137.7470 C   0  0  2  0  0  3  0  0  0  0  0  0
  198.2180  174.4920  137.7470 C   0  0  0  0  0  2  0  0  0  0  0  0
  191.9340  176.7290  138.0140 O   0  0  0  0  0  0  0  0  0  0  0  0
  190.8660  176.6440  138.9800 C   0  0  0  0  0  2  0  0  0  0  0  0
  192.4900  177.4930  140.3250 O   0  0  0  0  0  1  0  0  0  0  0  0
  191.2470  176.8810  140.4280 C   0  0  1  0  0  3  0  0  0  0  0  0
  190.2470  177.6810  141.1770 C   0  0  0  0  0  0  0  0  0  0  0  0
  190.4260  177.9600  142.5700 C   0  0  0  0  0  3  0  0  0  0  0  0
  191.5530  177.3500  143.6400 C   0  0  1  0  0  3  0  0  0  0  0  0
  191.3640  177.7020  145.0120 O   0  0  0  0  0  1  0  0  0  0  0  0
  191.7300  175.8590  143.5930 N   0  0  0  0  0  1  0  0  0  0  0  0
  189.0890  178.1470  140.2210 C   0  0  0  0  0  2  0  0  0  0  0  0
  185.7550  178.2040  142.7090 C   0  0  0  0  0  0  0  0  0  0  0  0
  186.7800  178.9060  140.6180 C   0  0  0  0  0  3  0  0  0  0  0  0
  186.7640  177.2760  142.9560 C   0  0  0  0  0  3  0  0  0  0  0  0
  185.7210  178.9590  141.5620 C   0  0  0  0  0  3  0  0  0  0  0  0
  187.8250  178.0800  140.9840 C   0  0  0  0  0  0  0  0  0  0  0  0
  187.7760  177.2650  141.9960 N   0  0  0  0  0  0  0  0  0  0  0  0
  184.7980  178.7980  144.9670 C   0  0  0  0  0  0  0  0  0  0  0  0
  184.6180  178.2500  143.6470 N   0  0  0  0  0  2  0  0  0  0  0  0
  183.7720  179.1000  145.6940 O   0  0  0  0  0  0  0  0  0  0  0  0
  186.0480  178.9120  145.6080 O   0  0  0  0  0  0  0  0  0  0  0  0
  187.7260  177.3490  145.7350 O   0  0  0  0  0  1  0  0  0  0  0  0
  186.6060  177.8790  146.3910 C   0  0  1  0  0  3  0  0  0  0  0  0
  186.9920  178.4330  147.7130 C   0  0  0  0  0  0  0  0  0  0  0  0
  186.4260  179.4840  148.0950 O   0  0  0  0  0  0  0  0  0  0  0  0
  188.0670  177.7530  148.5740 C   0  0  0  0  0  3  0  0  0  0  0  0
  188.3800  178.4220  149.8020 F   0  0  0  0  0  0  0  0  0  0  0  0
  188.9130  176.7730  147.9660 F   0  0  0  0  0  0  0  0  0  0  0  0
  1 35  1  0  0  0  0
  2  1  2  0  0  0  0
  3  8  1  1  0  0  0
  3  7  1  0  0  0  0
  4  9  1  6  0  0  0
  4  6  1  0  0  0  0
  5  3  1  0  0  0  0
  5  4  1  0  0  0  0
  7  6  1  0  0  0  0
  7  2  1  6  0  0  0
 10  9  1  6  0  0  0
 10 14  1  0  0  0  0
 11 14  1  0  0  0  0
 11 15  1  0  0  0  0
 12 13  1  0  0  0  0
 12 10  1  0  0  0  0
 13 11  1  0  0  0  0
 15 18  1  0  0  0  0
 16 15  2  0  0  0  0
 18 17  1  6  0  0  0
 19 18  1  0  0  0  0
 19 20  1  0  0  0  0
 20 21  1  6  0  0  0
 20 22  1  0  0  0  0
 23 22  1  0  0  0  0
 24 28  1  0  0  0  0
 25 29  1  0  0  0  0
 25 26  1  0  0  0  0
 27 24  1  0  0  0  0
 27 25  2  0  0  0  0
 28 26  2  0  0  0  0
 28  2  1  0  0  0  0
 29 30  1  0  0  0  0
 31 30  1  0  0  0  0
 32 33  1  0  0  0  0
 32 34  1  0  0  0  0
 33 31  1  6  0  0  0
 33 34  1  0  0  0  0
 35 36  1  0  0  0  0
 36 38  1  0  0  0  0
 38 37  1  6  0  0  0
 38 39  1  0  0  0  0
 39 40  2  0  0  0  0
 40 41  1  0  0  0  0
 41 43  1  1  0  0  0
 41 42  1  0  0  0  0
 44 49  1  0  0  0  0
 44 39  1  0  0  0  0
 45 47  1  0  0  0  0
 45 52  1  0  0  0  0
 46 49  2  0  0  0  0
 46 48  1  0  0  0  0
 48 45  2  0  0  0  0
 49 50  1  0  0  0  0
 50 47  2  0  0  0  0
 51 54  1  0  0  0  0
 51 53  2  0  0  0  0
 52 51  1  0  0  0  0
 54 56  1  0  0  0  0
 56 55  1  6  0  0  0
 56 57  1  0  0  0  0
 57 58  2  0  0  0  0
 57 59  1  0  0  0  0
 59 60  1  0  0  0  0
 61 59  1  0  0  0  0
M  END
>  <MODEL>
5

>  <REMARK>
 VINA RESULT:      -6.2      2.802      9.003
  Name = 
  24 active torsions:
  status: ('A' for Active; 'I' for Inactive)
    1  A    between atoms: C_2  and  O_55
    2  A    between atoms: C_3  and  C_47
    3  A    between atoms: CA_4  and  C_11
    4  A    between atoms: CA_4  and  C_25
    5  A    between atoms: C_7  and  C_9
    6  A    between atoms: C_7  and  C_24
    7  A    between atoms: C_8  and  C_47
    8  A    between atoms: C_10  and  C_30
    9  A    between atoms: C_10  and  C_50
   10  A    between atoms: C_14  and  N_37
   11  A    between atoms: C_15  and  C_16
   12  A    between atoms: N_22  and  O_60
   13  A    between atoms: C_24  and  O_55
   14  A    between atoms: C_25  and  C_56
   15  A    between atoms: C_30  and  C_58
   16  A    between atoms: C_32  and  O_38
   17  A    between atoms: C_32  and  C_44
   18  A    between atoms: C_33  and  C_34
   19  A    between atoms: C_33  and  O_38
   20  A    between atoms: C_42  and  C_45
   21  A    between atoms: C_45  and  C_61
   22  A    between atoms: C_50  and  C_53
   23  A    between atoms: C_51  and  C_56
   24  A    between atoms: C_58  and  O_60
                            x       y       z     vdW  Elec       q    Type
                         _______ _______ _______ _____ _____    ______ ____

>  <TORSDO>
F 24

$$$$
=
 OpenBabel11042411343D

 61 65  0  0  1  0  0  0  0  0999 V2000
  191.1470  175.7320  137.9730 N   0  0  0  0  0  0  0  0  0  0  0  0
  190.7570  174.7400  137.2320 C   0  0  0  0  0  0  0  0  0  0  0  0
  189.0790  174.9960  135.1340 C   0  0  2  0  0  3  0  0  0  0  0  0
  187.2560  173.6750  136.5390 C   0  0  2  0  0  3  0  0  0  0  0  0
  187.4280  174.3790  134.8270 S   0  0  0  0  0  0  0  0  0  0  0  0
  188.4660  173.8130  137.2580 O   0  0  0  0  0  0  0  0  0  0  0  0
  189.3320  174.7680  136.6130 C   0  0  1  0  0  3  0  0  0  0  0  0
  189.0460  176.3390  134.9900 O   0  0  0  0  0  1  0  0  0  0  0  0
  186.5410  172.3090  136.6030 C   0  0  0  0  0  2  0  0  0  0  0  0
  185.1210  172.5050  137.1630 C   0  0  2  0  0  3  0  0  0  0  0  0
  183.4840  173.9580  136.1610 N   0  0  0  0  0  0  0  0  0  0  0  0
  184.1360  171.7720  136.2580 C   0  0  0  0  0  2  0  0  0  0  0  0
  183.3700  172.6360  135.6040 C   0  0  0  0  0  2  0  0  0  0  0  0
  184.6270  173.9480  137.0700 C   0  0  0  0  0  2  0  0  0  0  0  0
  182.3010  174.8160  136.1320 C   0  0  0  0  0  0  0  0  0  0  0  0
  181.1970  174.2560  136.0740 O   0  0  0  0  0  0  0  0  0  0  0  0
  182.0750  177.1700  136.4740 O   0  0  0  0  0  1  0  0  0  0  0  0
  182.4170  176.1760  135.5530 C   0  0  1  0  0  3  0  0  0  0  0  0
  183.8630  176.3070  135.1460 C   0  0  0  0  0  2  0  0  0  0  0  0
  184.7410  177.5020  135.6080 C   0  0  2  0  0  3  0  0  0  0  0  0
  185.7900  177.6700  134.5950 N   0  0  0  0  0  1  0  0  0  0  0  0
  185.3900  177.4100  137.0500 C   0  0  0  0  0  2  0  0  0  0  0  0
  186.8120  177.3630  136.9700 O   0  0  0  0  0  1  0  0  0  0  0  0
  192.4440  175.1030  134.8780 S   0  0  0  0  0  0  0  0  0  0  0  0
  193.9580  173.3740  135.7210 C   0  0  0  0  0  0  0  0  0  0  0  0
  192.8870  173.4050  136.6410 C   0  0  0  0  0  3  0  0  0  0  0  0
  193.8300  174.2410  134.6920 C   0  0  0  0  0  3  0  0  0  0  0  0
  191.9010  174.3690  136.3620 C   0  0  0  0  0  0  0  0  0  0  0  0
  195.0810  172.4570  135.7600 C   0  0  0  0  0  2  0  0  0  0  0  0
  195.4330  172.0220  137.0550 O   0  0  0  0  0  0  0  0  0  0  0  0
  196.2910  172.9990  137.5740 C   0  0  0  0  0  2  0  0  0  0  0  0
  198.6450  173.2280  137.7390 O   0  0  0  0  0  0  0  0  0  0  0  0
  197.5480  173.3700  136.9260 C   0  0  2  0  0  3  0  0  0  0  0  0
  198.1390  174.5620  137.6370 C   0  0  0  0  0  2  0  0  0  0  0  0
  190.4730  176.7640  138.5380 O   0  0  0  0  0  0  0  0  0  0  0  0
  189.7940  176.3870  139.7540 C   0  0  0  0  0  2  0  0  0  0  0  0
  191.3940  177.7650  140.5980 O   0  0  0  0  0  1  0  0  0  0  0  0
  190.3610  176.9490  141.0430 C   0  0  1  0  0  3  0  0  0  0  0  0
  189.3530  177.6580  141.8690 C   0  0  0  0  0  0  0  0  0  0  0  0
  189.6500  178.0430  143.2160 C   0  0  0  0  0  3  0  0  0  0  0  0
  190.9620  177.6510  144.1700 C   0  0  1  0  0  3  0  0  0  0  0  0
  192.0470  178.5810  144.1520 O   0  0  0  0  0  1  0  0  0  0  0  0
  190.6400  177.3840  145.6120 N   0  0  0  0  0  1  0  0  0  0  0  0
  188.0420  177.9120  141.0390 C   0  0  0  0  0  2  0  0  0  0  0  0
  184.7290  178.6190  143.4540 C   0  0  0  0  0  0  0  0  0  0  0  0
  186.9280  177.6090  143.2140 C   0  0  0  0  0  3  0  0  0  0  0  0
  184.8840  179.3640  142.2870 C   0  0  0  0  0  3  0  0  0  0  0  0
  185.7260  177.8090  143.9410 C   0  0  0  0  0  3  0  0  0  0  0  0
  186.9680  178.2550  141.9940 C   0  0  0  0  0  0  0  0  0  0  0  0
  186.0840  179.1300  141.6160 N   0  0  0  0  0  0  0  0  0  0  0  0
  182.2170  178.7820  143.6240 C   0  0  0  0  0  0  0  0  0  0  0  0
  183.5100  178.8400  144.2550 N   0  0  0  0  0  2  0  0  0  0  0  0
  181.1430  178.6960  144.3420 O   0  0  0  0  0  0  0  0  0  0  0  0
  182.0070  178.9520  142.2410 O   0  0  0  0  0  0  0  0  0  0  0  0
  179.9740  179.7190  141.4940 O   0  0  0  0  0  1  0  0  0  0  0  0
  180.8030  178.5920  141.5970 C   0  0  1  0  0  3  0  0  0  0  0  0
  181.1210  178.0560  140.2510 C   0  0  0  0  0  0  0  0  0  0  0  0
  180.8940  176.8420  140.0360 O   0  0  0  0  0  0  0  0  0  0  0  0
  181.7290  178.9540  139.1620 C   0  0  0  0  0  3  0  0  0  0  0  0
  180.8010  179.4460  138.1880 F   0  0  0  0  0  0  0  0  0  0  0  0
  183.1450  178.9330  138.9700 F   0  0  0  0  0  0  0  0  0  0  0  0
  1 35  1  0  0  0  0
  2  1  2  0  0  0  0
  3  8  1  1  0  0  0
  3  7  1  0  0  0  0
  4  9  1  6  0  0  0
  4  6  1  0  0  0  0
  5  3  1  0  0  0  0
  5  4  1  0  0  0  0
  7  2  1  6  0  0  0
  7  6  1  0  0  0  0
 10  9  1  6  0  0  0
 11 14  1  0  0  0  0
 12 10  1  0  0  0  0
 13 11  1  0  0  0  0
 13 12  1  0  0  0  0
 14 10  1  0  0  0  0
 15 11  1  0  0  0  0
 16 15  2  0  0  0  0
 18 15  1  0  0  0  0
 18 17  1  1  0  0  0
 19 18  1  0  0  0  0
 19 20  1  0  0  0  0
 20 21  1  6  0  0  0
 20 22  1  0  0  0  0
 23 22  1  0  0  0  0
 24 28  1  0  0  0  0
 25 29  1  0  0  0  0
 25 26  1  0  0  0  0
 27 24  1  0  0  0  0
 27 25  2  0  0  0  0
 28 26  2  0  0  0  0
 28  2  1  0  0  0  0
 29 30  1  0  0  0  0
 30 31  1  0  0  0  0
 33 31  1  1  0  0  0
 33 34  1  0  0  0  0
 33 32  1  0  0  0  0
 34 32  1  0  0  0  0
 35 36  1  0  0  0  0
 36 38  1  0  0  0  0
 38 37  1  6  0  0  0
 38 39  1  0  0  0  0
 39 40  2  0  0  0  0
 40 41  1  0  0  0  0
 41 42  1  1  0  0  0
 41 43  1  0  0  0  0
 44 39  1  0  0  0  0
 44 49  1  0  0  0  0
 45 48  1  0  0  0  0
 45 52  1  0  0  0  0
 46 48  2  0  0  0  0
 47 45  2  0  0  0  0
 49 46  1  0  0  0  0
 50 49  2  0  0  0  0
 50 47  1  0  0  0  0
 51 52  1  0  0  0  0
 51 53  2  0  0  0  0
 54 51  1  0  0  0  0
 56 55  1  6  0  0  0
 56 54  1  0  0  0  0
 57 56  1  0  0  0  0
 58 57  2  0  0  0  0
 59 57  1  0  0  0  0
 60 59  1  0  0  0  0
 61 59  1  0  0  0  0
M  END
>  <MODEL>
6

>  <REMARK>
 VINA RESULT:      -5.9      3.000      9.353
  Name = 
  24 active torsions:
  status: ('A' for Active; 'I' for Inactive)
    1  A    between atoms: C_2  and  O_55
    2  A    between atoms: C_3  and  C_47
    3  A    between atoms: CA_4  and  C_11
    4  A    between atoms: CA_4  and  C_25
    5  A    between atoms: C_7  and  C_9
    6  A    between atoms: C_7  and  C_24
    7  A    between atoms: C_8  and  C_47
    8  A    between atoms: C_10  and  C_30
    9  A    between atoms: C_10  and  C_50
   10  A    between atoms: C_14  and  N_37
   11  A    between atoms: C_15  and  C_16
   12  A    between atoms: N_22  and  O_60
   13  A    between atoms: C_24  and  O_55
   14  A    between atoms: C_25  and  C_56
   15  A    between atoms: C_30  and  C_58
   16  A    between atoms: C_32  and  O_38
   17  A    between atoms: C_32  and  C_44
   18  A    between atoms: C_33  and  C_34
   19  A    between atoms: C_33  and  O_38
   20  A    between atoms: C_42  and  C_45
   21  A    between atoms: C_45  and  C_61
   22  A    between atoms: C_50  and  C_53
   23  A    between atoms: C_51  and  C_56
   24  A    between atoms: C_58  and  O_60
                            x       y       z     vdW  Elec       q    Type
                         _______ _______ _______ _____ _____    ______ ____

>  <TORSDO>
F 24

$$$$
=
 OpenBabel11042411343D

 61 65  0  0  1  0  0  0  0  0999 V2000
  191.5480  176.3990  139.1860 N   0  0  0  0  0  0  0  0  0  0  0  0
  190.8790  175.8780  138.2030 C   0  0  0  0  0  0  0  0  0  0  0  0
  189.3170  177.6730  136.9310 C   0  0  2  0  0  3  0  0  0  0  0  0
  187.3180  175.9380  137.1150 C   0  0  2  0  0  3  0  0  0  0  0  0
  187.6250  177.6060  136.3540 S   0  0  0  0  0  0  0  0  0  0  0  0
  188.5060  175.4220  137.6790 O   0  0  0  0  0  0  0  0  0  0  0  0
  189.4890  176.4650  137.8340 C   0  0  1  0  0  3  0  0  0  0  0  0
  189.4250  178.7400  137.7540 O   0  0  0  0  0  1  0  0  0  0  0  0
  186.4660  174.9840  136.2500 C   0  0  0  0  0  2  0  0  0  0  0  0
  185.5730  174.1290  137.1660 C   0  0  2  0  0  3  0  0  0  0  0  0
  183.3780  173.3600  136.5440 N   0  0  0  0  0  0  0  0  0  0  0  0
  185.5620  172.6990  136.6350 C   0  0  0  0  0  2  0  0  0  0  0  0
  184.3650  172.3890  136.1530 C   0  0  0  0  0  2  0  0  0  0  0  0
  184.0940  174.5070  137.0960 C   0  0  0  0  0  2  0  0  0  0  0  0
  182.0130  172.8920  136.7770 C   0  0  0  0  0  0  0  0  0  0  0  0
  181.8670  171.6980  137.0760 O   0  0  0  0  0  0  0  0  0  0  0  0
  179.7730  172.7460  135.9570 O   0  0  0  0  0  1  0  0  0  0  0  0
  180.8950  173.5700  136.0790 C   0  0  1  0  0  3  0  0  0  0  0  0
  180.5760  174.7750  136.9280 C   0  0  0  0  0  2  0  0  0  0  0  0
  180.4100  174.6730  138.4690 C   0  0  2  0  0  3  0  0  0  0  0  0
  178.9790  174.4620  138.7250 N   0  0  0  0  0  1  0  0  0  0  0  0
  180.9410  175.8860  139.3380 C   0  0  0  0  0  2  0  0  0  0  0  0
  182.2480  175.6210  139.8430 O   0  0  0  0  0  1  0  0  0  0  0  0
  191.5510  175.0660  135.4820 S   0  0  0  0  0  0  0  0  0  0  0  0
  193.8860  175.6710  135.8980 C   0  0  0  0  0  0  0  0  0  0  0  0
  193.2290  175.8660  137.1340 C   0  0  0  0  0  3  0  0  0  0  0  0
  193.0850  175.2110  134.9120 C   0  0  0  0  0  3  0  0  0  0  0  0
  191.8460  175.6050  137.1120 C   0  0  0  0  0  0  0  0  0  0  0  0
  195.3060  175.8370  135.6600 C   0  0  0  0  0  2  0  0  0  0  0  0
  196.1200  175.5790  136.7840 O   0  0  0  0  0  0  0  0  0  0  0  0
  197.2240  174.8610  136.3090 C   0  0  0  0  0  2  0  0  0  0  0  0
  196.2530  172.8630  135.4790 O   0  0  0  0  0  0  0  0  0  0  0  0
  197.1260  173.8910  135.2190 C   0  0  2  0  0  3  0  0  0  0  0  0
  197.6320  172.5530  135.6990 C   0  0  0  0  0  2  0  0  0  0  0  0
  191.1960  177.2700  140.1640 O   0  0  0  0  0  0  0  0  0  0  0  0
  190.3590  176.6670  141.1720 C   0  0  0  0  0  2  0  0  0  0  0  0
  192.0580  177.3160  142.5350 O   0  0  0  0  0  1  0  0  0  0  0  0
  190.7140  176.9710  142.6140 C   0  0  1  0  0  3  0  0  0  0  0  0
  189.8620  178.0230  143.2210 C   0  0  0  0  0  0  0  0  0  0  0  0
  189.7240  178.1250  144.6420 C   0  0  0  0  0  3  0  0  0  0  0  0
  190.2430  177.0820  145.8380 C   0  0  1  0  0  3  0  0  0  0  0  0
  191.6580  176.9720  146.0000 O   0  0  0  0  0  1  0  0  0  0  0  0
  189.6670  177.3440  147.2000 N   0  0  0  0  0  1  0  0  0  0  0  0
  189.2360  178.9360  142.1040 C   0  0  0  0  0  2  0  0  0  0  0  0
  185.1600  178.1120  141.9720 C   0  0  0  0  0  0  0  0  0  0  0  0
  187.1220  179.0010  140.8420 C   0  0  0  0  0  3  0  0  0  0  0  0
  185.9330  177.5300  142.9740 C   0  0  0  0  0  3  0  0  0  0  0  0
  185.7220  178.7780  140.9100 C   0  0  0  0  0  3  0  0  0  0  0  0
  187.8250  178.5310  141.9350 C   0  0  0  0  0  0  0  0  0  0  0  0
  187.3000  177.7780  142.8560 N   0  0  0  0  0  0  0  0  0  0  0  0
  182.8290  178.7710  142.6780 C   0  0  0  0  0  0  0  0  0  0  0  0
  183.7070  177.8600  141.9900 N   0  0  0  0  0  2  0  0  0  0  0  0
  181.5520  178.7250  142.4750 O   0  0  0  0  0  0  0  0  0  0  0  0
  183.2490  179.6520  143.6930 O   0  0  0  0  0  0  0  0  0  0  0  0
  185.0750  180.8690  144.3740 O   0  0  0  0  0  1  0  0  0  0  0  0
  184.5240  179.5810  144.2930 C   0  0  1  0  0  3  0  0  0  0  0  0
  184.3860  178.9900  145.6470 C   0  0  0  0  0  0  0  0  0  0  0  0
  183.2290  178.7490  146.0660 O   0  0  0  0  0  0  0  0  0  0  0  0
  185.6200  178.7020  146.5160 C   0  0  0  0  0  3  0  0  0  0  0  0
  186.1260  179.8240  147.2490 F   0  0  0  0  0  0  0  0  0  0  0  0
  186.3750  177.5140  146.2620 F   0  0  0  0  0  0  0  0  0  0  0  0
  1 35  1  0  0  0  0
  2  1  2  0  0  0  0
  3  8  1  1  0  0  0
  3  7  1  0  0  0  0
  4  9  1  6  0  0  0
  4  6  1  0  0  0  0
  5  3  1  0  0  0  0
  5  4  1  0  0  0  0
  6  7  1  0  0  0  0
  7  2  1  6  0  0  0
 10  9  1  6  0  0  0
 11 15  1  0  0  0  0
 11 14  1  0  0  0  0
 12 10  1  0  0  0  0
 13 11  1  0  0  0  0
 13 12  1  0  0  0  0
 14 10  1  0  0  0  0
 15 16  2  0  0  0  0
 18 17  1  1  0  0  0
 18 15  1  0  0  0  0
 18 19  1  0  0  0  0
 19 20  1  0  0  0  0
 20 21  1  6  0  0  0
 20 22  1  0  0  0  0
 22 23  1  0  0  0  0
 24 28  1  0  0  0  0
 25 26  1  0  0  0  0
 27 24  1  0  0  0  0
 27 25  2  0  0  0  0
 28 26  2  0  0  0  0
 28  2  1  0  0  0  0
 29 25  1  0  0  0  0
 29 30  1  0  0  0  0
 31 30  1  0  0  0  0
 32 34  1  0  0  0  0
 33 32  1  0  0  0  0
 33 34  1  0  0  0  0
 33 31  1  1  0  0  0
 35 36  1  0  0  0  0
 36 38  1  0  0  0  0
 38 37  1  6  0  0  0
 38 39  1  0  0  0  0
 39 40  2  0  0  0  0
 40 41  1  0  0  0  0
 41 42  1  1  0  0  0
 41 43  1  0  0  0  0
 44 39  1  0  0  0  0
 45 52  1  0  0  0  0
 45 47  1  0  0  0  0
 46 48  1  0  0  0  0
 46 49  2  0  0  0  0
 48 45  2  0  0  0  0
 49 44  1  0  0  0  0
 49 50  1  0  0  0  0
 50 47  2  0  0  0  0
 51 54  1  0  0  0  0
 52 51  1  0  0  0  0
 53 51  2  0  0  0  0
 54 56  1  0  0  0  0
 56 55  1  1  0  0  0
 56 57  1  0  0  0  0
 57 58  2  0  0  0  0
 57 59  1  0  0  0  0
 59 60  1  0  0  0  0
 61 59  1  0  0  0  0
M  END
>  <MODEL>
7

>  <REMARK>
 VINA RESULT:      -5.9      2.620      9.284
  Name = 
  24 active torsions:
  status: ('A' for Active; 'I' for Inactive)
    1  A    between atoms: C_2  and  O_55
    2  A    between atoms: C_3  and  C_47
    3  A    between atoms: CA_4  and  C_11
    4  A    between atoms: CA_4  and  C_25
    5  A    between atoms: C_7  and  C_9
    6  A    between atoms: C_7  and  C_24
    7  A    between atoms: C_8  and  C_47
    8  A    between atoms: C_10  and  C_30
    9  A    between atoms: C_10  and  C_50
   10  A    between atoms: C_14  and  N_37
   11  A    between atoms: C_15  and  C_16
   12  A    between atoms: N_22  and  O_60
   13  A    between atoms: C_24  and  O_55
   14  A    between atoms: C_25  and  C_56
   15  A    between atoms: C_30  and  C_58
   16  A    between atoms: C_32  and  O_38
   17  A    between atoms: C_32  and  C_44
   18  A    between atoms: C_33  and  C_34
   19  A    between atoms: C_33  and  O_38
   20  A    between atoms: C_42  and  C_45
   21  A    between atoms: C_45  and  C_61
   22  A    between atoms: C_50  and  C_53
   23  A    between atoms: C_51  and  C_56
   24  A    between atoms: C_58  and  O_60
                            x       y       z     vdW  Elec       q    Type
                         _______ _______ _______ _____ _____    ______ ____

>  <TORSDO>
F 24

$$$$
=
 OpenBabel11042411343D

 61 65  0  0  1  0  0  0  0  0999 V2000
  182.7240  177.9350  138.5370 N   0  0  0  0  0  0  0  0  0  0  0  0
  181.8070  178.3860  139.3380 C   0  0  0  0  0  0  0  0  0  0  0  0
  181.5020  178.5370  142.0150 C   0  0  2  0  0  3  0  0  0  0  0  0
  184.0250  179.3410  142.1720 C   0  0  2  0  0  3  0  0  0  0  0  0
  182.6400  178.9200  143.3390 S   0  0  0  0  0  0  0  0  0  0  0  0
  183.6470  179.0790  140.8360 O   0  0  0  0  0  0  0  0  0  0  0  0
  182.2170  178.9290  140.7340 C   0  0  1  0  0  3  0  0  0  0  0  0
  180.4630  179.3960  142.1090 O   0  0  0  0  0  1  0  0  0  0  0  0
  185.4190  178.8560  142.6270 C   0  0  0  0  0  2  0  0  0  0  0  0
  185.2780  178.0700  143.9420 C   0  0  2  0  0  3  0  0  0  0  0  0
  186.7750  178.3230  145.8110 N   0  0  0  0  0  0  0  0  0  0  0  0
  184.7480  179.0130  145.0180 C   0  0  0  0  0  2  0  0  0  0  0  0
  185.6790  179.2460  145.9350 C   0  0  0  0  0  2  0  0  0  0  0  0
  186.6180  177.6320  144.5330 C   0  0  0  0  0  2  0  0  0  0  0  0
  187.4650  177.9140  147.0330 C   0  0  0  0  0  0  0  0  0  0  0  0
  186.8300  177.9900  148.0940 O   0  0  0  0  0  0  0  0  0  0  0  0
  189.4090  178.0490  148.4160 O   0  0  0  0  0  1  0  0  0  0  0  0
  188.9400  178.0440  147.1000 C   0  0  1  0  0  3  0  0  0  0  0  0
  189.4740  176.8470  146.3530 C   0  0  0  0  0  2  0  0  0  0  0  0
  190.1460  176.9810  144.9590 C   0  0  2  0  0  3  0  0  0  0  0  0
  189.3510  176.1700  144.0290 N   0  0  0  0  0  1  0  0  0  0  0  0
  191.6750  176.5870  144.8500 C   0  0  0  0  0  2  0  0  0  0  0  0
  191.8760  175.5810  143.8600 O   0  0  0  0  0  1  0  0  0  0  0  0
  179.5980  178.6400  137.4490 S   0  0  0  0  0  0  0  0  0  0  0  0
  179.6180  181.0650  137.7810 C   0  0  0  0  0  0  0  0  0  0  0  0
  180.7080  180.5810  138.5380 C   0  0  0  0  0  3  0  0  0  0  0  0
  178.9370  180.1070  137.1150 C   0  0  0  0  0  3  0  0  0  0  0  0
  180.8630  179.1830  138.5160 C   0  0  0  0  0  0  0  0  0  0  0  0
  179.2590  182.4600  137.6100 C   0  0  0  0  0  2  0  0  0  0  0  0
  178.9340  182.8190  136.2850 O   0  0  0  0  0  0  0  0  0  0  0  0
  179.1080  184.2060  136.2050 C   0  0  0  0  0  2  0  0  0  0  0  0
  181.4700  184.1350  136.3940 O   0  0  0  0  0  0  0  0  0  0  0  0
  180.3950  184.8230  135.8890 C   0  0  2  0  0  3  0  0  0  0  0  0
  181.0600  185.2650  137.1690 C   0  0  0  0  0  2  0  0  0  0  0  0
  184.0280  177.6200  138.7350 O   0  0  0  0  0  0  0  0  0  0  0  0
  184.7780  177.5590  137.5050 C   0  0  0  0  0  2  0  0  0  0  0  0
  184.1930  175.3680  137.6770 O   0  0  0  0  0  1  0  0  0  0  0  0
  185.0730  176.1740  136.9630 C   0  0  1  0  0  3  0  0  0  0  0  0
  184.9170  176.0710  135.4910 C   0  0  0  0  0  0  0  0  0  0  0  0
  184.0310  175.1060  134.9140 C   0  0  0  0  0  3  0  0  0  0  0  0
  183.2080  173.8490  135.6410 C   0  0  1  0  0  3  0  0  0  0  0  0
  181.8020  174.0370  135.8080 O   0  0  0  0  0  1  0  0  0  0  0  0
  183.3940  172.5090  134.9880 N   0  0  0  0  0  1  0  0  0  0  0  0
  185.8000  177.1520  134.7690 C   0  0  0  0  0  2  0  0  0  0  0  0
  189.7350  176.0810  135.5970 C   0  0  0  0  0  0  0  0  0  0  0  0
  187.5130  175.3870  134.8920 C   0  0  0  0  0  3  0  0  0  0  0  0
  189.4210  177.4300  135.4430 C   0  0  0  0  0  3  0  0  0  0  0  0
  188.8430  175.0840  135.2850 C   0  0  0  0  0  3  0  0  0  0  0  0
  187.2130  176.7350  134.8990 C   0  0  0  0  0  0  0  0  0  0  0  0
  188.1040  177.6690  135.0530 N   0  0  0  0  0  0  0  0  0  0  0  0
  191.4010  175.1390  137.2400 C   0  0  0  0  0  0  0  0  0  0  0  0
  191.1220  175.7340  135.9590 N   0  0  0  0  0  2  0  0  0  0  0  0
  192.5460  174.5800  137.4650 O   0  0  0  0  0  0  0  0  0  0  0  0
  190.5470  175.2370  138.3570 O   0  0  0  0  0  0  0  0  0  0  0  0
  191.5090  177.2740  138.8060 O   0  0  0  0  0  1  0  0  0  0  0  0
  190.5780  176.3260  139.2540 C   0  0  1  0  0  3  0  0  0  0  0  0
  189.2220  176.9240  139.3310 C   0  0  0  0  0  0  0  0  0  0  0  0
  188.4210  176.6770  138.3990 O   0  0  0  0  0  0  0  0  0  0  0  0
  188.8220  177.8340  140.5020 C   0  0  0  0  0  3  0  0  0  0  0  0
  188.2980  177.1570  141.6510 F   0  0  0  0  0  0  0  0  0  0  0  0
  188.6410  179.2300  140.2530 F   0  0  0  0  0  0  0  0  0  0  0  0
  1 35  1  0  0  0  0
  1  2  2  0  0  0  0
  3  8  1  1  0  0  0
  3  5  1  0  0  0  0
  4  9  1  1  0  0  0
  4  5  1  0  0  0  0
  6  4  1  0  0  0  0
  7  2  1  6  0  0  0
  7  6  1  0  0  0  0
  7  3  1  0  0  0  0
 10  9  1  6  0  0  0
 10 14  1  0  0  0  0
 10 12  1  0  0  0  0
 11 13  1  0  0  0  0
 11 15  1  0  0  0  0
 12 13  1  0  0  0  0
 14 11  1  0  0  0  0
 15 18  1  0  0  0  0
 15 16  2  0  0  0  0
 18 17  1  1  0  0  0
 19 18  1  0  0  0  0
 20 21  1  6  0  0  0
 20 19  1  0  0  0  0
 22 20  1  0  0  0  0
 23 22  1  0  0  0  0
 24 28  1  0  0  0  0
 25 26  1  0  0  0  0
 27 24  1  0  0  0  0
 27 25  2  0  0  0  0
 28 26  2  0  0  0  0
 28  2  1  0  0  0  0
 29 25  1  0  0  0  0
 30 29  1  0  0  0  0
 31 30  1  0  0  0  0
 32 34  1  0  0  0  0
 33 31  1  1  0  0  0
 33 32  1  0  0  0  0
 33 34  1  0  0  0  0
 36 35  1  0  0  0  0
 38 36  1  0  0  0  0
 38 37  1  1  0  0  0
 39 38  1  0  0  0  0
 40 39  2  0  0  0  0
 40 41  1  0  0  0  0
 41 43  1  6  0  0  0
 41 42  1  0  0  0  0
 44 49  1  0  0  0  0
 44 39  1  0  0  0  0
 45 52  1  0  0  0  0
 46 49  2  0  0  0  0
 46 48  1  0  0  0  0
 47 45  1  0  0  0  0
 48 45  2  0  0  0  0
 49 50  1  0  0  0  0
 50 47  2  0  0  0  0
 51 53  2  0  0  0  0
 51 54  1  0  0  0  0
 52 51  1  0  0  0  0
 54 56  1  0  0  0  0
 56 55  1  6  0  0  0
 56 57  1  0  0  0  0
 57 59  1  0  0  0  0
 58 57  2  0  0  0  0
 59 60  1  0  0  0  0
 61 59  1  0  0  0  0
M  END
>  <MODEL>
8

>  <REMARK>
 VINA RESULT:      -5.9      3.510      9.489
  Name = 
  24 active torsions:
  status: ('A' for Active; 'I' for Inactive)
    1  A    between atoms: C_2  and  O_55
    2  A    between atoms: C_3  and  C_47
    3  A    between atoms: CA_4  and  C_11
    4  A    between atoms: CA_4  and  C_25
    5  A    between atoms: C_7  and  C_9
    6  A    between atoms: C_7  and  C_24
    7  A    between atoms: C_8  and  C_47
    8  A    between atoms: C_10  and  C_30
    9  A    between atoms: C_10  and  C_50
   10  A    between atoms: C_14  and  N_37
   11  A    between atoms: C_15  and  C_16
   12  A    between atoms: N_22  and  O_60
   13  A    between atoms: C_24  and  O_55
   14  A    between atoms: C_25  and  C_56
   15  A    between atoms: C_30  and  C_58
   16  A    between atoms: C_32  and  O_38
   17  A    between atoms: C_32  and  C_44
   18  A    between atoms: C_33  and  C_34
   19  A    between atoms: C_33  and  O_38
   20  A    between atoms: C_42  and  C_45
   21  A    between atoms: C_45  and  C_61
   22  A    between atoms: C_50  and  C_53
   23  A    between atoms: C_51  and  C_56
   24  A    between atoms: C_58  and  O_60
                            x       y       z     vdW  Elec       q    Type
                         _______ _______ _______ _____ _____    ______ ____

>  <TORSDO>
F 24

$$$$
=
 OpenBabel11042411343D

 61 65  0  0  1  0  0  0  0  0999 V2000
  187.8460  178.2090  140.2470 N   0  0  0  0  0  0  0  0  0  0  0  0
  187.7090  178.3760  141.5260 C   0  0  0  0  0  0  0  0  0  0  0  0
  185.8690  179.0280  143.3890 C   0  0  2  0  0  3  0  0  0  0  0  0
  183.9960  178.1660  141.7190 C   0  0  2  0  0  3  0  0  0  0  0  0
  184.0810  178.9850  143.3860 S   0  0  0  0  0  0  0  0  0  0  0  0
  185.2880  178.0480  141.1560 O   0  0  0  0  0  0  0  0  0  0  0  0
  186.3000  178.2410  142.1640 C   0  0  1  0  0  3  0  0  0  0  0  0
  186.2930  178.2920  144.4410 O   0  0  0  0  0  1  0  0  0  0  0  0
  182.8650  178.6850  140.8050 C   0  0  0  0  0  2  0  0  0  0  0  0
  183.2280  178.4040  139.3370 C   0  0  2  0  0  3  0  0  0  0  0  0
  181.7990  177.2000  137.8190 N   0  0  0  0  0  0  0  0  0  0  0  0
  182.3900  179.3150  138.4460 C   0  0  0  0  0  2  0  0  0  0  0  0
  181.5050  178.6070  137.7550 C   0  0  0  0  0  2  0  0  0  0  0  0
  182.8040  177.0140  138.8630 C   0  0  0  0  0  2  0  0  0  0  0  0
  181.4820  176.3820  136.6490 C   0  0  0  0  0  0  0  0  0  0  0  0
  181.4240  176.9590  135.5540 O   0  0  0  0  0  0  0  0  0  0  0  0
  179.9760  174.8100  135.6660 O   0  0  0  0  0  1  0  0  0  0  0  0
  180.6630  175.1610  136.8310 C   0  0  1  0  0  3  0  0  0  0  0  0
  181.6450  174.0810  137.2110 C   0  0  0  0  0  2  0  0  0  0  0  0
  183.0460  173.9750  136.5480 C   0  0  2  0  0  3  0  0  0  0  0  0
  183.1050  172.6610  135.8960 N   0  0  0  0  0  1  0  0  0  0  0  0
  184.3080  174.1730  137.4830 C   0  0  0  0  0  2  0  0  0  0  0  0
  185.1560  173.0270  137.4500 O   0  0  0  0  0  1  0  0  0  0  0  0
  190.3320  177.0960  141.4800 S   0  0  0  0  0  0  0  0  0  0  0  0
  190.2940  176.9740  143.9240 C   0  0  0  0  0  0  0  0  0  0  0  0
  189.0350  177.5030  143.5630 C   0  0  0  0  0  3  0  0  0  0  0  0
  191.0950  176.6850  142.8750 C   0  0  0  0  0  3  0  0  0  0  0  0
  188.8530  177.6920  142.1810 C   0  0  0  0  0  0  0  0  0  0  0  0
  190.7230  176.6540  145.2720 C   0  0  0  0  0  2  0  0  0  0  0  0
  190.7280  177.7530  146.1580 O   0  0  0  0  0  0  0  0  0  0  0  0
  190.2830  177.2610  147.3910 C   0  0  0  0  0  2  0  0  0  0  0  0
  187.9990  177.8610  147.1750 O   0  0  0  0  0  0  0  0  0  0  0  0
  188.8840  176.9230  147.6480 C   0  0  2  0  0  3  0  0  0  0  0  0
  188.2870  177.9550  148.5730 C   0  0  0  0  0  2  0  0  0  0  0  0
  186.9430  178.1390  139.2370 O   0  0  0  0  0  0  0  0  0  0  0  0
  187.3570  178.8750  138.0680 C   0  0  0  0  0  2  0  0  0  0  0  0
  189.6280  178.7660  138.1060 O   0  0  0  0  0  1  0  0  0  0  0  0
  188.5630  178.3360  137.3240 C   0  0  1  0  0  3  0  0  0  0  0  0
  188.5230  176.8660  137.1250 C   0  0  0  0  0  0  0  0  0  0  0  0
  187.5910  176.2750  136.2130 C   0  0  0  0  0  3  0  0  0  0  0  0
  186.3120  176.9720  135.3990 C   0  0  1  0  0  3  0  0  0  0  0  0
  185.1750  177.3120  136.1950 O   0  0  0  0  0  1  0  0  0  0  0  0
  186.6610  178.1920  134.5950 N   0  0  0  0  0  1  0  0  0  0  0  0
  189.6250  176.1640  137.9980 C   0  0  0  0  0  2  0  0  0  0  0  0
  193.2260  175.6100  135.9880 C   0  0  0  0  0  0  0  0  0  0  0  0
  190.7950  175.6050  135.9050 C   0  0  0  0  0  3  0  0  0  0  0  0
  193.2360  176.2500  137.2260 C   0  0  0  0  0  3  0  0  0  0  0  0
  192.0590  175.3400  135.3150 C   0  0  0  0  0  3  0  0  0  0  0  0
  190.8620  176.1020  137.1920 C   0  0  0  0  0  0  0  0  0  0  0  0
  191.9690  176.4870  137.7550 N   0  0  0  0  0  0  0  0  0  0  0  0
  195.1840  174.0960  135.4990 C   0  0  0  0  0  0  0  0  0  0  0  0
  194.5230  175.3640  135.3290 N   0  0  0  0  0  2  0  0  0  0  0  0
  196.1640  173.7610  134.7230 O   0  0  0  0  0  0  0  0  0  0  0  0
  194.9310  173.2130  136.5670 O   0  0  0  0  0  0  0  0  0  0  0  0
  195.3510  172.0850  138.5240 O   0  0  0  0  0  1  0  0  0  0  0  0
  195.6910  173.2080  137.7560 C   0  0  1  0  0  3  0  0  0  0  0  0
  197.1330  173.1790  137.4050 C   0  0  0  0  0  0  0  0  0  0  0  0
  197.6140  172.0960  136.9960 O   0  0  0  0  0  0  0  0  0  0  0  0
  198.0120  174.4300  137.5580 C   0  0  0  0  0  3  0  0  0  0  0  0
  198.5200  174.6620  138.8780 F   0  0  0  0  0  0  0  0  0  0  0  0
  197.9570  175.4340  136.5410 F   0  0  0  0  0  0  0  0  0  0  0  0
  1  2  2  0  0  0  0
  2 28  1  0  0  0  0
  3  8  1  1  0  0  0
  4  9  1  6  0  0  0
  4  5  1  0  0  0  0
  5  3  1  0  0  0  0
  6  4  1  0  0  0  0
  6  7  1  0  0  0  0
  7  2  1  6  0  0  0
  7  3  1  0  0  0  0
 10  9  1  1  0  0  0
 11 14  1  0  0  0  0
 12 10  1  0  0  0  0
 13 11  1  0  0  0  0
 13 12  1  0  0  0  0
 14 10  1  0  0  0  0
 15 18  1  0  0  0  0
 15 11  1  0  0  0  0
 16 15  2  0  0  0  0
 18 17  1  6  0  0  0
 18 19  1  0  0  0  0
 20 21  1  1  0  0  0
 20 19  1  0  0  0  0
 20 22  1  0  0  0  0
 23 22  1  0  0  0  0
 24 28  1  0  0  0  0
 24 27  1  0  0  0  0
 25 29  1  0  0  0  0
 26 25  1  0  0  0  0
 27 25  2  0  0  0  0
 28 26  2  0  0  0  0
 29 30  1  0  0  0  0
 30 31  1  0  0  0  0
 32 33  1  0  0  0  0
 32 34  1  0  0  0  0
 33 31  1  6  0  0  0
 33 34  1  0  0  0  0
 35  1  1  0  0  0  0
 36 35  1  0  0  0  0
 38 36  1  0  0  0  0
 38 37  1  1  0  0  0
 39 38  1  0  0  0  0
 39 44  1  0  0  0  0
 40 39  2  0  0  0  0
 41 43  1  1  0  0  0
 41 42  1  0  0  0  0
 41 40  1  0  0  0  0
 45 47  1  0  0  0  0
 46 49  2  0  0  0  0
 47 50  2  0  0  0  0
 48 46  1  0  0  0  0
 48 45  2  0  0  0  0
 49 50  1  0  0  0  0
 49 44  1  0  0  0  0
 51 54  1  0  0  0  0
 52 51  1  0  0  0  0
 52 45  1  0  0  0  0
 53 51  2  0  0  0  0
 54 56  1  0  0  0  0
 56 55  1  1  0  0  0
 57 59  1  0  0  0  0
 57 56  1  0  0  0  0
 58 57  2  0  0  0  0
 59 60  1  0  0  0  0
 61 59  1  0  0  0  0
M  END
>  <MODEL>
9

>  <REMARK>
 VINA RESULT:      -5.9      3.144     10.653
  Name = 
  24 active torsions:
  status: ('A' for Active; 'I' for Inactive)
    1  A    between atoms: C_2  and  O_55
    2  A    between atoms: C_3  and  C_47
    3  A    between atoms: CA_4  and  C_11
    4  A    between atoms: CA_4  and  C_25
    5  A    between atoms: C_7  and  C_9
    6  A    between atoms: C_7  and  C_24
    7  A    between atoms: C_8  and  C_47
    8  A    between atoms: C_10  and  C_30
    9  A    between atoms: C_10  and  C_50
   10  A    between atoms: C_14  and  N_37
   11  A    between atoms: C_15  and  C_16
   12  A    between atoms: N_22  and  O_60
   13  A    between atoms: C_24  and  O_55
   14  A    between atoms: C_25  and  C_56
   15  A    between atoms: C_30  and  C_58
   16  A    between atoms: C_32  and  O_38
   17  A    between atoms: C_32  and  C_44
   18  A    between atoms: C_33  and  C_34
   19  A    between atoms: C_33  and  O_38
   20  A    between atoms: C_42  and  C_45
   21  A    between atoms: C_45  and  C_61
   22  A    between atoms: C_50  and  C_53
   23  A    between atoms: C_51  and  C_56
   24  A    between atoms: C_58  and  O_60
                            x       y       z     vdW  Elec       q    Type
                         _______ _______ _______ _____ _____    ______ ____

>  <TORSDO>
F 24

$$$$
