=
 OpenBabel11032421283D

 34 38  0  0  0  0  0  0  0  0999 V2000
  188.8500  177.2520  147.7480 N   0  0  0  0  0  0  0  0  0  0  0  0
  189.5430  176.9130  141.7740 N   0  0  0  0  0  2  0  0  0  0  0  0
  187.6020  177.4780  145.8260 C   0  0  0  0  0  0  0  0  0  0  0  0
  188.7920  177.2730  142.9420 C   0  0  0  0  0  0  0  0  0  0  0  0
  190.9640  177.0740  146.7080 C   0  0  0  0  0  3  0  0  0  0  0  0
  187.5270  177.5430  142.7730 N   0  0  0  0  0  0  0  0  0  0  0  0
  187.4730  177.4340  147.3140 C   0  0  0  0  0  2  0  0  0  0  0  0
  186.4830  177.8330  144.9670 C   0  0  0  0  0  3  0  0  0  0  0  0
  191.6390  177.0780  145.4890 C   0  0  0  0  0  3  0  0  0  0  0  0
  189.5130  177.2920  144.2530 C   0  0  0  0  0  0  0  0  0  0  0  0
  188.8730  177.3190  145.5090 C   0  0  0  0  0  0  0  0  0  0  0  0
  190.9380  177.1920  144.2770 C   0  0  0  0  0  0  0  0  0  0  0  0
  189.5820  177.1980  146.6890 C   0  0  0  0  0  0  0  0  0  0  0  0
  186.4400  177.8980  143.6390 C   0  0  0  0  0  0  0  0  0  0  0  0
  191.6750  177.2130  143.1390 F   0  0  0  0  0  0  0  0  0  0  0  0
  183.0720  178.9890  142.7680 O   0  0  0  0  0  0  0  0  0  0  0  0
  184.0000  178.7400  143.6570 C   0  0  0  0  0  0  0  0  0  0  0  0
  184.8690  178.2850  141.6600 C   0  0  0  0  0  3  0  0  0  0  0  0
  183.5600  178.7250  141.5800 C   0  0  0  0  0  0  0  0  0  0  0  0
  185.1510  178.2930  143.0210 C   0  0  0  0  0  0  0  0  0  0  0  0
  183.7970  178.9400  145.1180 C   0  0  0  0  0  1  0  0  0  0  0  0
  182.7990  178.9060  140.3130 C   0  0  0  0  0  2  0  0  0  0  0  0
  184.2040  180.4040  139.1040 O   0  0  0  0  0  1  0  0  0  0  0  0
  184.1020  178.2640  138.2860 O   0  0  0  0  0  0  0  0  0  0  0  0
  183.7300  179.2420  139.1990 C   0  0  0  0  0  0  0  0  0  0  0  0
  189.0210  176.9850  140.4150 C   0  0  0  0  0  2  0  0  0  0  0  0
  189.8080  178.0020  139.5990 C   0  0  0  0  0  2  0  0  0  0  0  0
  188.9220  178.7370  138.7050 N   0  0  0  0  0  2  0  0  0  0  0  0
  188.6130  178.3190  137.3730 C   0  0  0  0  0  0  0  0  0  0  0  0
  187.9600  177.5130  134.7680 C   0  0  0  0  0  3  0  0  0  0  0  0
  189.5510  177.6280  136.5890 C   0  0  0  0  0  3  0  0  0  0  0  0
  189.2260  177.2280  135.2910 C   0  0  0  0  0  3  0  0  0  0  0  0
  187.0220  178.1980  135.5460 C   0  0  0  0  0  3  0  0  0  0  0  0
  187.3490  178.5990  136.8450 C   0  0  0  0  0  3  0  0  0  0  0  0
  2  4  1  0  0  0  0
  3  7  1  0  0  0  0
  4 10  1  0  0  0  0
  6  4  2  0  0  0  0
  6 14  1  0  0  0  0
  7  1  1  0  0  0  0
  8  3  1  0  0  0  0
  9  5  2  0  0  0  0
 10 12  2  0  0  0  0
 10 11  1  0  0  0  0
 11  3  2  0  0  0  0
 11 13  1  0  0  0  0
 12  9  1  0  0  0  0
 13  5  1  0  0  0  0
 13  1  2  0  0  0  0
 14  8  2  0  0  0  0
 15 12  1  0  0  0  0
 16 17  1  0  0  0  0
 17 21  1  0  0  0  0
 18 20  1  0  0  0  0
 19 18  2  0  0  0  0
 19 16  1  0  0  0  0
 20 14  1  0  0  0  0
 20 17  2  0  0  0  0
 22 19  1  0  0  0  0
 23 25  1  0  0  0  0
 24 25  2  0  0  0  0
 25 22  1  0  0  0  0
 26  2  1  0  0  0  0
 27 26  1  0  0  0  0
 28 27  1  0  0  0  0
 29 28  1  0  0  0  0
 30 32  2  0  0  0  0
 30 33  1  0  0  0  0
 31 29  2  0  0  0  0
 32 31  1  0  0  0  0
 33 34  2  0  0  0  0
 34 29  1  0  0  0  0
M  END
>  <MODEL>
1

>  <REMARK>
 VINA RESULT:     -10.0      0.000      0.000
  Name = 
  7 active torsions:
  status: ('A' for Active; 'I' for Inactive)
    1  A    between atoms: C_2  and  C_18
    2  A    between atoms: C_2  and  C_33
    3  A    between atoms: C_5  and  N_12
    4  A    between atoms: N_6  and  C_26
    5  A    between atoms: C_10  and  N_12
    6  A    between atoms: C_10  and  C_26
    7  A    between atoms: C_28  and  C_32
                            x       y       z     vdW  Elec       q    Type
                         _______ _______ _______ _____ _____    ______ ____

>  <TORSDO>
F 7

$$$$
=
 OpenBabel11032421283D

 34 38  0  0  0  0  0  0  0  0999 V2000
  183.9820  178.8270  146.1670 N   0  0  0  0  0  0  0  0  0  0  0  0
  187.4870  178.3540  141.2910 N   0  0  0  0  0  2  0  0  0  0  0  0
  186.1760  178.3800  145.6250 C   0  0  0  0  0  0  0  0  0  0  0  0
  187.2370  178.1710  142.6910 C   0  0  0  0  0  0  0  0  0  0  0  0
  183.1250  178.8140  143.9660 C   0  0  0  0  0  3  0  0  0  0  0  0
  188.2670  177.9130  143.4480 N   0  0  0  0  0  0  0  0  0  0  0  0
  185.2790  178.6240  146.7950 C   0  0  0  0  0  2  0  0  0  0  0  0
  187.5520  177.9420  145.7890 C   0  0  0  0  0  3  0  0  0  0  0  0
  183.4400  178.6300  142.6210 C   0  0  0  0  0  3  0  0  0  0  0  0
  185.8250  178.3080  143.1690 C   0  0  0  0  0  0  0  0  0  0  0  0
  185.4570  178.4640  144.5210 C   0  0  0  0  0  0  0  0  0  0  0  0
  184.7610  178.3750  142.2180 C   0  0  0  0  0  0  0  0  0  0  0  0
  184.1520  178.7230  144.8940 C   0  0  0  0  0  0  0  0  0  0  0  0
  188.4680  177.7030  144.8530 C   0  0  0  0  0  0  0  0  0  0  0  0
  184.9740  178.1850  140.8930 F   0  0  0  0  0  0  0  0  0  0  0  0
  191.9860  176.9190  145.4050 O   0  0  0  0  0  0  0  0  0  0  0  0
  191.0320  177.4590  144.6890 C   0  0  0  0  0  0  0  0  0  0  0  0
  190.0710  176.5550  146.4790 C   0  0  0  0  0  3  0  0  0  0  0  0
  191.4420  176.3750  146.4680 C   0  0  0  0  0  0  0  0  0  0  0  0
  189.8080  177.2620  145.3130 C   0  0  0  0  0  0  0  0  0  0  0  0
  191.2880  178.1790  143.4110 C   0  0  0  0  0  1  0  0  0  0  0  0
  192.2190  175.6790  147.5310 C   0  0  0  0  0  2  0  0  0  0  0  0
  191.9720  177.6960  148.7760 O   0  0  0  0  0  0  0  0  0  0  0  0
  193.7660  176.3900  149.3520 O   0  0  0  0  0  1  0  0  0  0  0  0
  192.6450  176.6530  148.5750 C   0  0  0  0  0  0  0  0  0  0  0  0
  188.7760  178.1150  140.6560 C   0  0  0  0  0  2  0  0  0  0  0  0
  188.5880  177.7980  139.1780 C   0  0  0  0  0  2  0  0  0  0  0  0
  187.3620  178.4050  138.6760 N   0  0  0  0  0  2  0  0  0  0  0  0
  186.6790  177.9610  137.5000 C   0  0  0  0  0  0  0  0  0  0  0  0
  185.3730  177.1150  135.1680 C   0  0  0  0  0  3  0  0  0  0  0  0
  185.4520  177.2840  137.5820 C   0  0  0  0  0  3  0  0  0  0  0  0
  184.8020  176.8610  136.4190 C   0  0  0  0  0  3  0  0  0  0  0  0
  186.5930  177.7920  135.0820 C   0  0  0  0  0  3  0  0  0  0  0  0
  187.2440  178.2130  136.2460 C   0  0  0  0  0  3  0  0  0  0  0  0
  1  7  1  0  0  0  0
  2  4  1  0  0  0  0
  3  8  1  0  0  0  0
  3  7  1  0  0  0  0
  4 10  1  0  0  0  0
  4  6  2  0  0  0  0
  5 13  1  0  0  0  0
  6 14  1  0  0  0  0
  9  5  2  0  0  0  0
 10 11  1  0  0  0  0
 11 13  1  0  0  0  0
 11  3  2  0  0  0  0
 12  9  1  0  0  0  0
 12 10  2  0  0  0  0
 13  1  2  0  0  0  0
 14 20  1  0  0  0  0
 14  8  2  0  0  0  0
 15 12  1  0  0  0  0
 16 19  1  0  0  0  0
 17 20  2  0  0  0  0
 17 16  1  0  0  0  0
 19 18  2  0  0  0  0
 19 22  1  0  0  0  0
 20 18  1  0  0  0  0
 21 17  1  0  0  0  0
 22 25  1  0  0  0  0
 25 23  2  0  0  0  0
 25 24  1  0  0  0  0
 26  2  1  0  0  0  0
 27 26  1  0  0  0  0
 28 27  1  0  0  0  0
 29 31  1  0  0  0  0
 29 28  1  0  0  0  0
 30 32  1  0  0  0  0
 32 31  2  0  0  0  0
 33 30  2  0  0  0  0
 33 34  1  0  0  0  0
 34 29  2  0  0  0  0
M  END
>  <MODEL>
2

>  <REMARK>
 VINA RESULT:      -9.9      3.860      6.650
  Name = 
  7 active torsions:
  status: ('A' for Active; 'I' for Inactive)
    1  A    between atoms: C_2  and  C_18
    2  A    between atoms: C_2  and  C_33
    3  A    between atoms: C_5  and  N_12
    4  A    between atoms: N_6  and  C_26
    5  A    between atoms: C_10  and  N_12
    6  A    between atoms: C_10  and  C_26
    7  A    between atoms: C_28  and  C_32
                            x       y       z     vdW  Elec       q    Type
                         _______ _______ _______ _____ _____    ______ ____

>  <TORSDO>
F 7

$$$$
=
 OpenBabel11032421283D

 34 38  0  0  0  0  0  0  0  0999 V2000
  191.2280  176.1300  136.9980 N   0  0  0  0  0  0  0  0  0  0  0  0
  186.8970  178.6030  140.3760 N   0  0  0  0  0  2  0  0  0  0  0  0
  190.7640  176.5520  139.2140 C   0  0  0  0  0  0  0  0  0  0  0  0
  188.2240  178.0870  140.2000 C   0  0  0  0  0  0  0  0  0  0  0  0
  189.4140  177.3330  136.0820 C   0  0  0  0  0  3  0  0  0  0  0  0
  188.9050  177.8210  141.2800 N   0  0  0  0  0  0  0  0  0  0  0  0
  191.7440  175.8530  138.3300 C   0  0  0  0  0  2  0  0  0  0  0  0
  190.9860  176.7010  140.6430 C   0  0  0  0  0  3  0  0  0  0  0  0
  188.3090  178.1300  136.3760 C   0  0  0  0  0  3  0  0  0  0  0  0
  188.7080  177.8800  138.7980 C   0  0  0  0  0  0  0  0  0  0  0  0
  189.8380  177.1090  138.4560 C   0  0  0  0  0  0  0  0  0  0  0  0
  187.9570  178.4110  137.7060 C   0  0  0  0  0  0  0  0  0  0  0  0
  190.1610  176.8390  137.1400 C   0  0  0  0  0  0  0  0  0  0  0  0
  190.2040  177.2770  141.5530 C   0  0  0  0  0  0  0  0  0  0  0  0
  186.8820  179.2140  137.9020 F   0  0  0  0  0  0  0  0  0  0  0  0
  191.3050  177.9780  144.9570 O   0  0  0  0  0  0  0  0  0  0  0  0
  190.8600  178.3780  143.7930 C   0  0  0  0  0  0  0  0  0  0  0  0
  191.0600  176.1650  143.6900 C   0  0  0  0  0  3  0  0  0  0  0  0
  191.4350  176.6730  144.9200 C   0  0  0  0  0  0  0  0  0  0  0  0
  190.6870  177.2850  142.9560 C   0  0  0  0  0  0  0  0  0  0  0  0
  190.5830  179.8070  143.4800 C   0  0  0  0  0  1  0  0  0  0  0  0
  191.9020  175.8540  146.0730 C   0  0  0  0  0  2  0  0  0  0  0  0
  190.1880  176.3370  147.6560 O   0  0  0  0  0  0  0  0  0  0  0  0
  192.2900  177.0560  148.2220 O   0  0  0  0  0  1  0  0  0  0  0  0
  191.4050  176.4360  147.3510 C   0  0  0  0  0  0  0  0  0  0  0  0
  186.3390  178.9890  141.6660 C   0  0  0  0  0  2  0  0  0  0  0  0
  185.2860  177.9820  142.1090 C   0  0  0  0  0  2  0  0  0  0  0  0
  184.8190  178.2880  143.4550 N   0  0  0  0  0  2  0  0  0  0  0  0
  185.6370  178.1790  144.6240 C   0  0  0  0  0  0  0  0  0  0  0  0
  187.2100  177.9950  146.9370 C   0  0  0  0  0  3  0  0  0  0  0  0
  186.8920  177.5500  144.5790 C   0  0  0  0  0  3  0  0  0  0  0  0
  187.6750  177.4570  145.7320 C   0  0  0  0  0  3  0  0  0  0  0  0
  185.9630  178.6240  146.9850 C   0  0  0  0  0  3  0  0  0  0  0  0
  185.1790  178.7160  145.8310 C   0  0  0  0  0  3  0  0  0  0  0  0
  1 13  2  0  0  0  0
  1  7  1  0  0  0  0
  2 26  1  0  0  0  0
  3  8  1  0  0  0  0
  4  2  1  0  0  0  0
  4  6  2  0  0  0  0
  5  9  2  0  0  0  0
  5 13  1  0  0  0  0
  6 14  1  0  0  0  0
  7  3  1  0  0  0  0
  8 14  2  0  0  0  0
  9 12  1  0  0  0  0
 10  4  1  0  0  0  0
 11 10  1  0  0  0  0
 11  3  2  0  0  0  0
 12 15  1  0  0  0  0
 12 10  2  0  0  0  0
 13 11  1  0  0  0  0
 14 20  1  0  0  0  0
 17 16  1  0  0  0  0
 18 19  2  0  0  0  0
 19 16  1  0  0  0  0
 19 22  1  0  0  0  0
 20 18  1  0  0  0  0
 20 17  2  0  0  0  0
 21 17  1  0  0  0  0
 22 25  1  0  0  0  0
 25 23  2  0  0  0  0
 25 24  1  0  0  0  0
 26 27  1  0  0  0  0
 27 28  1  0  0  0  0
 28 29  1  0  0  0  0
 29 34  1  0  0  0  0
 30 33  1  0  0  0  0
 31 29  2  0  0  0  0
 31 32  1  0  0  0  0
 32 30  2  0  0  0  0
 34 33  2  0  0  0  0
M  END
>  <MODEL>
3

>  <REMARK>
 VINA RESULT:      -9.8      3.543      8.438
  Name = 
  7 active torsions:
  status: ('A' for Active; 'I' for Inactive)
    1  A    between atoms: C_2  and  C_18
    2  A    between atoms: C_2  and  C_33
    3  A    between atoms: C_5  and  N_12
    4  A    between atoms: N_6  and  C_26
    5  A    between atoms: C_10  and  N_12
    6  A    between atoms: C_10  and  C_26
    7  A    between atoms: C_28  and  C_32
                            x       y       z     vdW  Elec       q    Type
                         _______ _______ _______ _____ _____    ______ ____

>  <TORSDO>
F 7

$$$$
=
 OpenBabel11032421283D

 34 38  0  0  0  0  0  0  0  0999 V2000
  189.1310  177.1230  147.7680 N   0  0  0  0  0  0  0  0  0  0  0  0
  189.2670  177.2380  141.7470 N   0  0  0  0  0  2  0  0  0  0  0  0
  187.7040  177.4620  145.9920 C   0  0  0  0  0  0  0  0  0  0  0  0
  188.6230  177.4950  143.0030 C   0  0  0  0  0  0  0  0  0  0  0  0
  191.1400  177.0670  146.5270 C   0  0  0  0  0  3  0  0  0  0  0  0
  187.3440  177.7490  142.9720 N   0  0  0  0  0  0  0  0  0  0  0  0
  187.7160  177.3060  147.4770 C   0  0  0  0  0  2  0  0  0  0  0  0
  186.5060  177.8540  145.2690 C   0  0  0  0  0  3  0  0  0  0  0  0
  191.6980  177.1760  145.2550 C   0  0  0  0  0  3  0  0  0  0  0  0
  189.4630  177.4330  144.2400 C   0  0  0  0  0  0  0  0  0  0  0  0
  188.9430  177.3540  145.5480 C   0  0  0  0  0  0  0  0  0  0  0  0
  190.8850  177.3620  144.1250 C   0  0  0  0  0  0  0  0  0  0  0  0
  189.7610  177.1620  146.6450 C   0  0  0  0  0  0  0  0  0  0  0  0
  186.3370  178.0150  143.9590 C   0  0  0  0  0  0  0  0  0  0  0  0
  191.5120  177.4830  142.9290 F   0  0  0  0  0  0  0  0  0  0  0  0
  183.3370  179.1220  142.2080 O   0  0  0  0  0  0  0  0  0  0  0  0
  184.6150  178.8430  142.2240 C   0  0  0  0  0  0  0  0  0  0  0  0
  183.8410  178.4660  144.2740 C   0  0  0  0  0  3  0  0  0  0  0  0
  182.8560  178.9100  143.4110 C   0  0  0  0  0  0  0  0  0  0  0  0
  184.9900  178.4270  143.4940 C   0  0  0  0  0  0  0  0  0  0  0  0
  185.4840  178.9600  141.0200 C   0  0  0  0  0  1  0  0  0  0  0  0
  181.4260  179.1020  143.7770 C   0  0  0  0  0  2  0  0  0  0  0  0
  180.2790  180.5190  142.2420 O   0  0  0  0  0  1  0  0  0  0  0  0
  180.2500  178.2830  141.7370 O   0  0  0  0  0  0  0  0  0  0  0  0
  180.6110  179.3460  142.5530 C   0  0  0  0  0  0  0  0  0  0  0  0
  188.6190  177.3980  140.4520 C   0  0  0  0  0  2  0  0  0  0  0  0
  189.5560  178.0920  139.4730 C   0  0  0  0  0  2  0  0  0  0  0  0
  188.7990  178.8850  138.5120 N   0  0  0  0  0  2  0  0  0  0  0  0
  188.1450  178.3320  137.3670 C   0  0  0  0  0  0  0  0  0  0  0  0
  186.8230  177.2460  135.1460 C   0  0  0  0  0  3  0  0  0  0  0  0
  188.8680  177.9710  136.2180 C   0  0  0  0  0  3  0  0  0  0  0  0
  188.2080  177.4310  135.1120 C   0  0  0  0  0  3  0  0  0  0  0  0
  186.0990  177.6020  136.2880 C   0  0  0  0  0  3  0  0  0  0  0  0
  186.7600  178.1430  137.3950 C   0  0  0  0  0  3  0  0  0  0  0  0
  2  4  1  0  0  0  0
  3  7  1  0  0  0  0
  4 10  1  0  0  0  0
  5 13  1  0  0  0  0
  6  4  2  0  0  0  0
  6 14  1  0  0  0  0
  7  1  1  0  0  0  0
  8  3  1  0  0  0  0
  9  5  2  0  0  0  0
 10 11  1  0  0  0  0
 11  3  2  0  0  0  0
 11 13  1  0  0  0  0
 12 10  2  0  0  0  0
 12  9  1  0  0  0  0
 13  1  2  0  0  0  0
 14  8  2  0  0  0  0
 15 12  1  0  0  0  0
 16 17  1  0  0  0  0
 16 19  1  0  0  0  0
 17 20  2  0  0  0  0
 19 22  1  0  0  0  0
 19 18  2  0  0  0  0
 20 14  1  0  0  0  0
 20 18  1  0  0  0  0
 21 17  1  0  0  0  0
 23 25  1  0  0  0  0
 24 25  2  0  0  0  0
 25 22  1  0  0  0  0
 26  2  1  0  0  0  0
 27 26  1  0  0  0  0
 28 27  1  0  0  0  0
 29 34  1  0  0  0  0
 29 28  1  0  0  0  0
 30 33  1  0  0  0  0
 31 29  2  0  0  0  0
 32 30  2  0  0  0  0
 32 31  1  0  0  0  0
 33 34  2  0  0  0  0
M  END
>  <MODEL>
4

>  <REMARK>
 VINA RESULT:      -9.8      1.242      1.951
  Name = 
  7 active torsions:
  status: ('A' for Active; 'I' for Inactive)
    1  A    between atoms: C_2  and  C_18
    2  A    between atoms: C_2  and  C_33
    3  A    between atoms: C_5  and  N_12
    4  A    between atoms: N_6  and  C_26
    5  A    between atoms: C_10  and  N_12
    6  A    between atoms: C_10  and  C_26
    7  A    between atoms: C_28  and  C_32
                            x       y       z     vdW  Elec       q    Type
                         _______ _______ _______ _____ _____    ______ ____

>  <TORSDO>
F 7

$$$$
=
 OpenBabel11032421283D

 34 38  0  0  0  0  0  0  0  0999 V2000
  188.8300  177.1490  147.7690 N   0  0  0  0  0  0  0  0  0  0  0  0
  189.6090  176.9610  141.7990 N   0  0  0  0  0  2  0  0  0  0  0  0
  187.6050  177.4050  145.8360 C   0  0  0  0  0  0  0  0  0  0  0  0
  188.8370  177.2840  142.9640 C   0  0  0  0  0  0  0  0  0  0  0  0
  190.9590  177.0220  146.7550 C   0  0  0  0  0  3  0  0  0  0  0  0
  187.5720  177.5420  142.7840 N   0  0  0  0  0  0  0  0  0  0  0  0
  187.4560  177.3240  147.3200 C   0  0  0  0  0  2  0  0  0  0  0  0
  186.4940  177.7660  144.9700 C   0  0  0  0  0  3  0  0  0  0  0  0
  191.6510  177.0640  145.5460 C   0  0  0  0  0  3  0  0  0  0  0  0
  189.5400  177.2800  144.2860 C   0  0  0  0  0  0  0  0  0  0  0  0
  188.8820  177.2690  145.5330 C   0  0  0  0  0  0  0  0  0  0  0  0
  190.9650  177.1970  144.3280 C   0  0  0  0  0  0  0  0  0  0  0  0
  189.5770  177.1290  146.7200 C   0  0  0  0  0  0  0  0  0  0  0  0
  186.4680  177.8620  143.6430 C   0  0  0  0  0  0  0  0  0  0  0  0
  191.7170  177.2540  143.2010 F   0  0  0  0  0  0  0  0  0  0  0  0
  183.1070  178.9560  142.7490 O   0  0  0  0  0  0  0  0  0  0  0  0
  184.0310  178.7120  143.6430 C   0  0  0  0  0  0  0  0  0  0  0  0
  184.9050  178.2350  141.6550 C   0  0  0  0  0  3  0  0  0  0  0  0
  183.5990  178.6790  141.5650 C   0  0  0  0  0  0  0  0  0  0  0  0
  185.1820  178.2560  143.0160 C   0  0  0  0  0  0  0  0  0  0  0  0
  183.8240  178.9270  145.1020 C   0  0  0  0  0  1  0  0  0  0  0  0
  182.8430  178.8500  140.2940 C   0  0  0  0  0  2  0  0  0  0  0  0
  184.0790  178.3310  138.3240 O   0  0  0  0  0  0  0  0  0  0  0  0
  184.2820  180.4850  139.0810 O   0  0  0  0  0  1  0  0  0  0  0  0
  183.7760  179.1960  139.1850 C   0  0  0  0  0  0  0  0  0  0  0  0
  189.1050  177.0590  140.4350 C   0  0  0  0  0  2  0  0  0  0  0  0
  190.1750  177.6290  139.5150 C   0  0  0  0  0  2  0  0  0  0  0  0
  190.2380  176.8720  138.2710 N   0  0  0  0  0  2  0  0  0  0  0  0
  191.3170  176.0000  137.9240 C   0  0  0  0  0  0  0  0  0  0  0  0
  193.4000  174.2550  137.2350 C   0  0  0  0  0  3  0  0  0  0  0  0
  192.6520  176.3590  138.1700 C   0  0  0  0  0  3  0  0  0  0  0  0
  193.6900  175.4890  137.8250 C   0  0  0  0  0  3  0  0  0  0  0  0
  192.0720  173.8920  136.9900 C   0  0  0  0  0  3  0  0  0  0  0  0
  191.0340  174.7640  137.3350 C   0  0  0  0  0  3  0  0  0  0  0  0
  2  4  1  0  0  0  0
  3  7  1  0  0  0  0
  4 10  1  0  0  0  0
  6  4  2  0  0  0  0
  6 14  1  0  0  0  0
  7  1  1  0  0  0  0
  8  3  1  0  0  0  0
  9  5  2  0  0  0  0
 10 12  2  0  0  0  0
 10 11  1  0  0  0  0
 11  3  2  0  0  0  0
 11 13  1  0  0  0  0
 12  9  1  0  0  0  0
 13  5  1  0  0  0  0
 13  1  2  0  0  0  0
 14  8  2  0  0  0  0
 15 12  1  0  0  0  0
 16 17  1  0  0  0  0
 17 21  1  0  0  0  0
 18 20  1  0  0  0  0
 19 18  2  0  0  0  0
 19 16  1  0  0  0  0
 20 17  2  0  0  0  0
 20 14  1  0  0  0  0
 22 19  1  0  0  0  0
 23 25  2  0  0  0  0
 24 25  1  0  0  0  0
 25 22  1  0  0  0  0
 26  2  1  0  0  0  0
 27 26  1  0  0  0  0
 28 27  1  0  0  0  0
 29 31  1  0  0  0  0
 29 28  1  0  0  0  0
 30 32  1  0  0  0  0
 32 31  2  0  0  0  0
 33 30  2  0  0  0  0
 33 34  1  0  0  0  0
 34 29  2  0  0  0  0
M  END
>  <MODEL>
5

>  <REMARK>
 VINA RESULT:      -9.7      1.778      2.385
  Name = 
  7 active torsions:
  status: ('A' for Active; 'I' for Inactive)
    1  A    between atoms: C_2  and  C_18
    2  A    between atoms: C_2  and  C_33
    3  A    between atoms: C_5  and  N_12
    4  A    between atoms: N_6  and  C_26
    5  A    between atoms: C_10  and  N_12
    6  A    between atoms: C_10  and  C_26
    7  A    between atoms: C_28  and  C_32
                            x       y       z     vdW  Elec       q    Type
                         _______ _______ _______ _____ _____    ______ ____

>  <TORSDO>
F 7

$$$$
=
 OpenBabel11032421283D

 34 38  0  0  0  0  0  0  0  0999 V2000
  189.5860  177.1170  146.8800 N   0  0  0  0  0  0  0  0  0  0  0  0
  188.8080  177.7010  140.9360 N   0  0  0  0  0  2  0  0  0  0  0  0
  187.8880  177.4590  145.3630 C   0  0  0  0  0  0  0  0  0  0  0  0
  188.3420  177.8030  142.2890 C   0  0  0  0  0  0  0  0  0  0  0  0
  191.3850  177.3380  145.3650 C   0  0  0  0  0  3  0  0  0  0  0  0
  187.0570  177.9420  142.4630 N   0  0  0  0  0  0  0  0  0  0  0  0
  188.1350  177.1930  146.8120 C   0  0  0  0  0  2  0  0  0  0  0  0
  186.5670  177.7960  144.8570 C   0  0  0  0  0  3  0  0  0  0  0  0
  191.7360  177.5940  144.0410 C   0  0  0  0  0  3  0  0  0  0  0  0
  189.3610  177.7230  143.3820 C   0  0  0  0  0  0  0  0  0  0  0  0
  189.0500  177.4990  144.7390 C   0  0  0  0  0  0  0  0  0  0  0  0
  190.7500  177.7910  143.0600 C   0  0  0  0  0  0  0  0  0  0  0  0
  190.0360  177.2990  145.6870 C   0  0  0  0  0  0  0  0  0  0  0  0
  186.1910  178.0400  143.6030 C   0  0  0  0  0  0  0  0  0  0  0  0
  191.1790  178.0580  141.8020 F   0  0  0  0  0  0  0  0  0  0  0  0
  182.6580  178.9280  143.7210 O   0  0  0  0  0  0  0  0  0  0  0  0
  183.8070  178.7240  144.3140 C   0  0  0  0  0  0  0  0  0  0  0  0
  184.1180  178.3560  142.1430 C   0  0  0  0  0  3  0  0  0  0  0  0
  182.8150  178.7130  142.4370 C   0  0  0  0  0  0  0  0  0  0  0  0
  184.7620  178.3620  143.3740 C   0  0  0  0  0  0  0  0  0  0  0  0
  184.0020  178.8880  145.7810 C   0  0  0  0  0  1  0  0  0  0  0  0
  181.7260  178.8650  141.4320 C   0  0  0  0  0  2  0  0  0  0  0  0
  180.1310  180.4230  142.2730 O   0  0  0  0  0  0  0  0  0  0  0  0
  179.5860  178.2110  142.5310 O   0  0  0  0  0  1  0  0  0  0  0  0
  180.4470  179.2160  142.1110 C   0  0  0  0  0  0  0  0  0  0  0  0
  187.9630  177.9000  139.7660 C   0  0  0  0  0  2  0  0  0  0  0  0
  188.8140  178.2400  138.5500 C   0  0  0  0  0  2  0  0  0  0  0  0
  189.2020  177.0280  137.8400 N   0  0  0  0  0  2  0  0  0  0  0  0
  190.5580  176.6670  137.5660 C   0  0  0  0  0  0  0  0  0  0  0  0
  193.2300  175.9780  137.0720 C   0  0  0  0  0  3  0  0  0  0  0  0
  190.9440  176.1850  136.3050 C   0  0  0  0  0  3  0  0  0  0  0  0
  192.2760  175.8410  136.0600 C   0  0  0  0  0  3  0  0  0  0  0  0
  192.8510  176.4600  138.3290 C   0  0  0  0  0  3  0  0  0  0  0  0
  191.5180  176.8030  138.5740 C   0  0  0  0  0  3  0  0  0  0  0  0
  2  4  1  0  0  0  0
  3  7  1  0  0  0  0
  4  6  2  0  0  0  0
  4 10  1  0  0  0  0
  5 13  1  0  0  0  0
  6 14  1  0  0  0  0
  7  1  1  0  0  0  0
  8  3  1  0  0  0  0
  9  5  2  0  0  0  0
 10 11  1  0  0  0  0
 11  3  2  0  0  0  0
 11 13  1  0  0  0  0
 12 10  2  0  0  0  0
 12  9  1  0  0  0  0
 13  1  2  0  0  0  0
 14  8  2  0  0  0  0
 15 12  1  0  0  0  0
 16 17  1  0  0  0  0
 17 21  1  0  0  0  0
 18 19  2  0  0  0  0
 18 20  1  0  0  0  0
 19 16  1  0  0  0  0
 20 14  1  0  0  0  0
 20 17  2  0  0  0  0
 22 25  1  0  0  0  0
 22 19  1  0  0  0  0
 25 23  2  0  0  0  0
 25 24  1  0  0  0  0
 26  2  1  0  0  0  0
 27 26  1  0  0  0  0
 28 27  1  0  0  0  0
 29 28  1  0  0  0  0
 29 34  1  0  0  0  0
 30 33  1  0  0  0  0
 31 29  2  0  0  0  0
 32 31  1  0  0  0  0
 32 30  2  0  0  0  0
 33 34  2  0  0  0  0
M  END
>  <MODEL>
6

>  <REMARK>
 VINA RESULT:      -9.6      1.993      2.675
  Name = 
  7 active torsions:
  status: ('A' for Active; 'I' for Inactive)
    1  A    between atoms: C_2  and  C_18
    2  A    between atoms: C_2  and  C_33
    3  A    between atoms: C_5  and  N_12
    4  A    between atoms: N_6  and  C_26
    5  A    between atoms: C_10  and  N_12
    6  A    between atoms: C_10  and  C_26
    7  A    between atoms: C_28  and  C_32
                            x       y       z     vdW  Elec       q    Type
                         _______ _______ _______ _____ _____    ______ ____

>  <TORSDO>
F 7

$$$$
=
 OpenBabel11032421283D

 34 38  0  0  0  0  0  0  0  0999 V2000
  182.4370  179.0000  144.0870 N   0  0  0  0  0  0  0  0  0  0  0  0
  187.3220  178.5730  140.5880 N   0  0  0  0  0  2  0  0  0  0  0  0
  184.7020  178.6310  144.2810 C   0  0  0  0  0  0  0  0  0  0  0  0
  186.6460  178.4070  141.8420 C   0  0  0  0  0  0  0  0  0  0  0  0
  182.3240  178.9090  141.7290 C   0  0  0  0  0  3  0  0  0  0  0  0
  187.3900  178.2060  142.8940 N   0  0  0  0  0  0  0  0  0  0  0  0
  183.4740  178.8620  145.0990 C   0  0  0  0  0  2  0  0  0  0  0  0
  185.9690  178.2530  144.8860 C   0  0  0  0  0  3  0  0  0  0  0  0
  183.0550  178.7110  140.5590 C   0  0  0  0  0  3  0  0  0  0  0  0
  185.1520  178.4970  141.8440 C   0  0  0  0  0  0  0  0  0  0  0  0
  184.3690  178.6640  143.0050 C   0  0  0  0  0  0  0  0  0  0  0  0
  184.4430  178.5020  140.6040 C   0  0  0  0  0  0  0  0  0  0  0  0
  183.0060  178.8770  142.9370 C   0  0  0  0  0  0  0  0  0  0  0  0
  187.1420  178.0320  144.2970 C   0  0  0  0  0  0  0  0  0  0  0  0
  185.0730  178.2940  139.4210 F   0  0  0  0  0  0  0  0  0  0  0  0
  189.4960  177.2170  146.9580 O   0  0  0  0  0  0  0  0  0  0  0  0
  188.3080  177.5920  146.5560 C   0  0  0  0  0  0  0  0  0  0  0  0
  189.5470  177.2870  144.7340 C   0  0  0  0  0  3  0  0  0  0  0  0
  190.2480  177.0340  145.8990 C   0  0  0  0  0  0  0  0  0  0  0  0
  188.2800  177.6540  145.1700 C   0  0  0  0  0  0  0  0  0  0  0  0
  187.1890  177.8790  147.4950 C   0  0  0  0  0  1  0  0  0  0  0  0
  191.6670  176.5840  145.9580 C   0  0  0  0  0  2  0  0  0  0  0  0
  191.9480  174.8830  147.6030 O   0  0  0  0  0  0  0  0  0  0  0  0
  192.3970  177.0200  148.3020 O   0  0  0  0  0  1  0  0  0  0  0  0
  191.9980  176.1110  147.3310 C   0  0  0  0  0  0  0  0  0  0  0  0
  188.7530  178.3740  140.4010 C   0  0  0  0  0  2  0  0  0  0  0  0
  189.0820  178.2530  138.9190 C   0  0  0  0  0  2  0  0  0  0  0  0
  189.0080  176.8620  138.4890 N   0  0  0  0  0  2  0  0  0  0  0  0
  190.1420  176.0980  138.0710 C   0  0  0  0  0  0  0  0  0  0  0  0
  192.3940  174.6370  137.2640 C   0  0  0  0  0  3  0  0  0  0  0  0
  189.9890  174.8970  137.3600 C   0  0  0  0  0  3  0  0  0  0  0  0
  191.1120  174.1680  136.9590 C   0  0  0  0  0  3  0  0  0  0  0  0
  192.5510  175.8340  137.9680 C   0  0  0  0  0  3  0  0  0  0  0  0
  191.4260  176.5620  138.3700 C   0  0  0  0  0  3  0  0  0  0  0  0
  1  7  1  0  0  0  0
  2  4  1  0  0  0  0
  3  8  1  0  0  0  0
  3  7  1  0  0  0  0
  4 10  1  0  0  0  0
  4  6  2  0  0  0  0
  5 13  1  0  0  0  0
  6 14  1  0  0  0  0
  9 12  1  0  0  0  0
  9  5  2  0  0  0  0
 10 11  1  0  0  0  0
 11  3  2  0  0  0  0
 12 10  2  0  0  0  0
 13 11  1  0  0  0  0
 13  1  2  0  0  0  0
 14  8  2  0  0  0  0
 14 20  1  0  0  0  0
 15 12  1  0  0  0  0
 17 16  1  0  0  0  0
 17 21  1  0  0  0  0
 18 20  1  0  0  0  0
 18 19  2  0  0  0  0
 19 22  1  0  0  0  0
 19 16  1  0  0  0  0
 20 17  2  0  0  0  0
 22 25  1  0  0  0  0
 25 23  2  0  0  0  0
 25 24  1  0  0  0  0
 26  2  1  0  0  0  0
 27 26  1  0  0  0  0
 28 27  1  0  0  0  0
 29 34  1  0  0  0  0
 29 28  1  0  0  0  0
 30 33  1  0  0  0  0
 31 29  2  0  0  0  0
 32 30  2  0  0  0  0
 32 31  1  0  0  0  0
 33 34  2  0  0  0  0
M  END
>  <MODEL>
7

>  <REMARK>
 VINA RESULT:      -9.5      3.781      6.638
  Name = 
  7 active torsions:
  status: ('A' for Active; 'I' for Inactive)
    1  A    between atoms: C_2  and  C_18
    2  A    between atoms: C_2  and  C_33
    3  A    between atoms: C_5  and  N_12
    4  A    between atoms: N_6  and  C_26
    5  A    between atoms: C_10  and  N_12
    6  A    between atoms: C_10  and  C_26
    7  A    between atoms: C_28  and  C_32
                            x       y       z     vdW  Elec       q    Type
                         _______ _______ _______ _____ _____    ______ ____

>  <TORSDO>
F 7

$$$$
=
 OpenBabel11032421283D

 34 38  0  0  1  0  0  0  0  0999 V2000
  185.0050  178.8610  146.7950 N   0  0  0  0  0  0  0  0  0  0  0  0
  189.8010  176.4710  144.0450 N   0  0  0  0  0  2  0  0  0  0  0  0
  185.7720  178.4440  144.6640 C   0  0  0  0  0  0  0  0  0  0  0  0
  188.5840  177.2300  144.0330 C   0  0  0  0  0  0  0  0  0  0  0  0
  186.9870  178.2820  147.9420 C   0  0  0  0  0  3  0  0  0  0  0  0
  188.0390  177.4570  142.8700 N   0  0  0  0  0  0  0  0  0  0  0  0
  184.5660  178.9180  145.4080 C   0  0  0  0  0  3  0  0  0  0  0  0
  185.8570  178.5110  143.2140 C   0  0  0  0  0  3  0  0  0  0  0  0
  188.3030  177.8510  147.7970 C   0  0  0  0  0  3  0  0  0  0  0  0
  188.0320  177.6800  145.3500 C   0  0  1  0  0  3  0  0  0  0  0  0
  186.7180  178.1540  145.5380 C   0  0  0  0  0  0  0  0  0  0  0  0
  188.8300  177.5580  146.5280 C   0  0  0  0  0  0  0  0  0  0  0  0
  186.2180  178.4280  146.7970 C   0  0  0  0  0  0  0  0  0  0  0  0
  186.8470  178.1160  142.4170 C   0  0  0  0  0  0  0  0  0  0  0  0
  190.1270  177.1680  146.4750 F   0  0  0  0  0  0  0  0  0  0  0  0
  185.7380  178.7260  138.9990 O   0  0  0  0  0  0  0  0  0  0  0  0
  185.4990  178.6550  140.2840 C   0  0  0  0  0  0  0  0  0  0  0  0
  187.6500  178.1680  139.9910 C   0  0  0  0  0  3  0  0  0  0  0  0
  187.0020  178.4390  138.8000 C   0  0  0  0  0  0  0  0  0  0  0  0
  186.6620  178.3070  140.9580 C   0  0  0  0  0  0  0  0  0  0  0  0
  184.1610  178.9320  140.8760 C   0  0  0  0  0  1  0  0  0  0  0  0
  187.6500  178.4370  137.4590 C   0  0  0  0  0  2  0  0  0  0  0  0
  186.6640  176.2770  137.2590 O   0  0  0  0  0  1  0  0  0  0  0  0
  188.3120  176.7580  135.7390 O   0  0  0  0  0  0  0  0  0  0  0  0
  187.5180  177.0940  136.8280 C   0  0  0  0  0  0  0  0  0  0  0  0
  190.5320  176.0850  142.8450 C   0  0  0  0  0  2  0  0  0  0  0  0
  191.7190  177.0130  142.6270 C   0  0  0  0  0  2  0  0  0  0  0  0
  191.5860  177.7280  141.3640 N   0  0  0  0  0  2  0  0  0  0  0  0
  191.7550  177.1160  140.0820 C   0  0  0  0  0  0  0  0  0  0  0  0
  192.1330  175.9340  137.5690 C   0  0  0  0  0  3  0  0  0  0  0  0
  190.6770  176.5140  139.4140 C   0  0  0  0  0  3  0  0  0  0  0  0
  190.8660  175.9240  138.1610 C   0  0  0  0  0  3  0  0  0  0  0  0
  193.2090  176.5340  138.2300 C   0  0  0  0  0  3  0  0  0  0  0  0
  193.0190  177.1240  139.4840 C   0  0  0  0  0  3  0  0  0  0  0  0
  1 13  1  0  0  0  0
  3  7  1  0  0  0  0
  3 11  2  0  0  0  0
  4  2  1  0  0  0  0
  6  4  2  0  0  0  0
  7  1  2  0  0  0  0
  8  3  1  0  0  0  0
  9  5  1  0  0  0  0
 10  4  1  1  0  0  0
 10 11  1  0  0  0  0
 10 12  1  0  0  0  0
 11 13  1  0  0  0  0
 12  9  2  0  0  0  0
 13  5  2  0  0  0  0
 14  6  1  0  0  0  0
 14  8  2  0  0  0  0
 15 12  1  0  0  0  0
 16 17  1  0  0  0  0
 17 21  1  0  0  0  0
 17 20  2  0  0  0  0
 18 20  1  0  0  0  0
 19 16  1  0  0  0  0
 19 18  2  0  0  0  0
 20 14  1  0  0  0  0
 22 19  1  0  0  0  0
 24 25  2  0  0  0  0
 25 23  1  0  0  0  0
 25 22  1  0  0  0  0
 26  2  1  0  0  0  0
 27 26  1  0  0  0  0
 28 27  1  0  0  0  0
 29 28  1  0  0  0  0
 30 32  2  0  0  0  0
 30 33  1  0  0  0  0
 31 29  2  0  0  0  0
 32 31  1  0  0  0  0
 33 34  2  0  0  0  0
 34 29  1  0  0  0  0
M  END
>  <MODEL>
8

>  <REMARK>
 VINA RESULT:      -9.4      2.249      3.940
  Name = 
  7 active torsions:
  status: ('A' for Active; 'I' for Inactive)
    1  A    between atoms: C_2  and  C_18
    2  A    between atoms: C_2  and  C_33
    3  A    between atoms: C_5  and  N_12
    4  A    between atoms: N_6  and  C_26
    5  A    between atoms: C_10  and  N_12
    6  A    between atoms: C_10  and  C_26
    7  A    between atoms: C_28  and  C_32
                            x       y       z     vdW  Elec       q    Type
                         _______ _______ _______ _____ _____    ______ ____

>  <TORSDO>
F 7

$$$$
=
 OpenBabel11032421283D

 34 38  0  0  1  0  0  0  0  0999 V2000
  189.9910  177.1890  146.2750 N   0  0  0  0  0  0  0  0  0  0  0  0
  185.6420  178.7730  142.4210 N   0  0  0  0  0  2  0  0  0  0  0  0
  189.6580  177.4070  144.0070 C   0  0  0  0  0  0  0  0  0  0  0  0
  186.9190  178.1910  142.7170 C   0  0  0  0  0  0  0  0  0  0  0  0
  187.7510  177.5330  146.9380 C   0  0  0  0  0  3  0  0  0  0  0  0
  187.7270  177.9940  141.7130 N   0  0  0  0  0  0  0  0  0  0  0  0
  190.7230  177.1370  145.0180 C   0  0  0  0  0  3  0  0  0  0  0  0
  189.8990  177.2690  142.5800 C   0  0  0  0  0  3  0  0  0  0  0  0
  186.4530  177.7710  146.4900 C   0  0  0  0  0  3  0  0  0  0  0  0
  187.2240  177.8770  144.1490 C   0  0  1  0  0  3  0  0  0  0  0  0
  188.5160  177.5990  144.6400 C   0  0  0  0  0  0  0  0  0  0  0  0
  186.1810  177.9350  145.1220 C   0  0  0  0  0  0  0  0  0  0  0  0
  188.7620  177.4490  145.9920 C   0  0  0  0  0  0  0  0  0  0  0  0
  189.0630  177.4900  141.5670 C   0  0  0  0  0  0  0  0  0  0  0  0
  184.8870  178.1390  144.7720 F   0  0  0  0  0  0  0  0  0  0  0  0
  189.7300  177.1820  137.9970 O   0  0  0  0  0  0  0  0  0  0  0  0
  188.9430  177.5100  138.9900 C   0  0  0  0  0  0  0  0  0  0  0  0
  190.8370  176.7580  139.8800 C   0  0  0  0  0  3  0  0  0  0  0  0
  190.8560  176.7310  138.4970 C   0  0  0  0  0  0  0  0  0  0  0  0
  189.5830  177.2650  140.1970 C   0  0  0  0  0  0  0  0  0  0  0  0
  187.5790  178.0730  138.7900 C   0  0  0  0  0  1  0  0  0  0  0  0
  192.0070  176.2770  137.6700 C   0  0  0  0  0  2  0  0  0  0  0  0
  190.9820  174.1270  137.5930 O   0  0  0  0  0  1  0  0  0  0  0  0
  193.2740  174.1320  137.5790 O   0  0  0  0  0  0  0  0  0  0  0  0
  192.0520  174.7880  137.6240 C   0  0  0  0  0  0  0  0  0  0  0  0
  185.1450  179.0030  141.0700 C   0  0  0  0  0  2  0  0  0  0  0  0
  183.9830  178.0680  140.7670 C   0  0  0  0  0  2  0  0  0  0  0  0
  182.7360  178.8160  140.6670 N   0  0  0  0  0  2  0  0  0  0  0  0
  181.6910  178.7540  141.6420 C   0  0  0  0  0  0  0  0  0  0  0  0
  179.6780  178.6250  143.5890 C   0  0  0  0  0  3  0  0  0  0  0  0
  180.3400  178.7270  141.2630 C   0  0  0  0  0  3  0  0  0  0  0  0
  179.3370  178.6640  142.2330 C   0  0  0  0  0  3  0  0  0  0  0  0
  181.0230  178.6500  143.9720 C   0  0  0  0  0  3  0  0  0  0  0  0
  182.0260  178.7140  143.0000 C   0  0  0  0  0  3  0  0  0  0  0  0
  2  4  1  0  0  0  0
  3 11  2  0  0  0  0
  3  7  1  0  0  0  0
  6  4  2  0  0  0  0
  7  1  2  0  0  0  0
  8  3  1  0  0  0  0
  9  5  1  0  0  0  0
 10  4  1  1  0  0  0
 10 11  1  0  0  0  0
 10 12  1  0  0  0  0
 11 13  1  0  0  0  0
 12  9  2  0  0  0  0
 13  1  1  0  0  0  0
 13  5  2  0  0  0  0
 14  6  1  0  0  0  0
 14  8  2  0  0  0  0
 15 12  1  0  0  0  0
 16 19  1  0  0  0  0
 16 17  1  0  0  0  0
 17 20  2  0  0  0  0
 18 20  1  0  0  0  0
 19 18  2  0  0  0  0
 20 14  1  0  0  0  0
 21 17  1  0  0  0  0
 22 19  1  0  0  0  0
 23 25  1  0  0  0  0
 24 25  2  0  0  0  0
 25 22  1  0  0  0  0
 26  2  1  0  0  0  0
 27 26  1  0  0  0  0
 28 27  1  0  0  0  0
 28 29  1  0  0  0  0
 29 34  1  0  0  0  0
 30 33  1  0  0  0  0
 31 29  2  0  0  0  0
 31 32  1  0  0  0  0
 32 30  2  0  0  0  0
 34 33  2  0  0  0  0
M  END
>  <MODEL>
9

>  <REMARK>
 VINA RESULT:      -9.4      3.401      6.925
  Name = 
  7 active torsions:
  status: ('A' for Active; 'I' for Inactive)
    1  A    between atoms: C_2  and  C_18
    2  A    between atoms: C_2  and  C_33
    3  A    between atoms: C_5  and  N_12
    4  A    between atoms: N_6  and  C_26
    5  A    between atoms: C_10  and  N_12
    6  A    between atoms: C_10  and  C_26
    7  A    between atoms: C_28  and  C_32
                            x       y       z     vdW  Elec       q    Type
                         _______ _______ _______ _____ _____    ______ ____

>  <TORSDO>
F 7

$$$$
