=
 OpenBabel11042412023D

 28 31  0  0  1  0  0  0  0  0999 V2000
  185.5390  178.5080  143.1460 C   0  0  0  0  0  0  0  0  0  0  0  0
  183.2680  179.0040  143.8820 C   0  0  0  0  0  3  0  0  0  0  0  0
  184.1300  178.8380  142.8740 C   0  0  0  0  0  3  0  0  0  0  0  0
  185.9800  178.3660  144.5540 C   0  0  0  0  0  0  0  0  0  0  0  0
  187.2260  178.0760  144.8190 N   0  0  0  0  0  0  0  0  0  0  0  0
  183.6950  178.8650  145.2890 C   0  0  0  0  0  3  0  0  0  0  0  0
  186.3680  178.3480  142.1490 C   0  0  0  0  0  0  0  0  0  0  0  0
  184.9600  178.5680  145.6070 C   0  0  0  0  0  3  0  0  0  0  0  0
  187.2090  178.1840  141.1630 C   0  0  0  0  0  3  0  0  0  0  0  0
  189.2300  177.5570  146.0970 C   0  0  0  0  0  3  0  0  0  0  0  0
  187.9000  177.8390  148.5090 C   0  0  0  0  0  3  0  0  0  0  0  0
  187.2040  178.0300  147.3140 C   0  0  0  0  0  3  0  0  0  0  0  0
  187.8720  177.8900  146.0900 C   0  0  0  0  0  0  0  0  0  0  0  0
  189.8940  177.3560  147.3120 C   0  0  0  0  0  0  0  0  0  0  0  0
  189.2190  177.5150  148.4850 N   0  0  0  0  0  0  0  0  0  0  0  0
  191.7460  176.3180  146.0450 C   0  0  0  0  0  2  0  0  0  0  0  0
  191.5730  175.5370  147.3260 C   0  0  0  0  0  2  0  0  0  0  0  0
  191.3570  177.0400  147.3230 C   0  0  0  0  0  3  0  0  0  0  0  0
  188.6470  177.8320  141.4090 C   0  0  0  0  0  0  0  0  0  0  0  0
  189.2390  178.8050  142.2200 O   0  0  0  0  0  1  0  0  0  0  0  0
  188.7050  176.5960  142.0600 O   0  0  0  0  0  1  0  0  0  0  0  0
  188.4300  177.5290  138.8850 C   0  0  0  0  0  2  0  0  0  0  0  0
  189.3980  177.7410  140.0720 C   0  0  2  0  0  3  0  0  0  0  0  0
  188.9950  176.6700  137.7430 C   0  0  0  0  0  2  0  0  0  0  0  0
  192.4570  176.6400  138.6750 O   0  0  0  0  0  0  0  0  0  0  0  0
  191.2050  176.7130  138.7740 C   0  0  0  0  0  0  0  0  0  0  0  0
  190.5490  176.7250  140.1120 C   0  0  0  0  0  2  0  0  0  0  0  0
  190.4100  176.8000  137.6340 O   0  0  0  0  0  0  0  0  0  0  0  0
  1  4  1  0  0  0  0
  2  6  1  0  0  0  0
  3  1  1  0  0  0  0
  3  2  2  0  0  0  0
  4  5  2  0  0  0  0
  4  8  1  0  0  0  0
  5 13  1  0  0  0  0
  6  8  2  0  0  0  0
  7  1  2  0  0  0  0
  9 19  1  0  0  0  0
  9  7  2  0  0  0  0
 10 14  1  0  0  0  0
 12 11  2  0  0  0  0
 13 10  2  0  0  0  0
 13 12  1  0  0  0  0
 14 18  1  0  0  0  0
 14 15  2  0  0  0  0
 15 11  1  0  0  0  0
 16 18  1  0  0  0  0
 16 17  1  0  0  0  0
 18 17  1  0  0  0  0
 19 21  1  0  0  0  0
 19 20  1  0  0  0  0
 22 23  1  0  0  0  0
 23 27  1  0  0  0  0
 23 19  1  1  0  0  0
 24 22  1  0  0  0  0
 25 26  2  0  0  0  0
 26 27  1  0  0  0  0
 28 24  1  0  0  0  0
 28 26  1  0  0  0  0
M  END
>  <MODEL>
1

>  <REMARK>
 VINA RESULT:      -9.9      0.000      0.000
  Name = 
  4 active torsions:
  status: ('A' for Active; 'I' for Inactive)
    1  A    between atoms: C_8  and  C_11
    2  A    between atoms: C_8  and  C_28
    3  A    between atoms: C_13  and  N_16
    4  A    between atoms: C_21  and  C_22
                            x       y       z     vdW  Elec       q    Type
                         _______ _______ _______ _____ _____    ______ ____

>  <TORSDO>
F 4

$$$$
=
 OpenBabel11042412023D

 28 31  0  0  1  0  0  0  0  0999 V2000
  190.3890  177.0080  144.5610 C   0  0  0  0  0  0  0  0  0  0  0  0
  191.6240  176.5210  146.6060 C   0  0  0  0  0  3  0  0  0  0  0  0
  191.6090  176.5900  145.2720 C   0  0  0  0  0  3  0  0  0  0  0  0
  189.1830  177.3480  145.3530 C   0  0  0  0  0  0  0  0  0  0  0  0
  188.0880  177.7200  144.7430 N   0  0  0  0  0  0  0  0  0  0  0  0
  190.4290  176.8590  147.4070 C   0  0  0  0  0  3  0  0  0  0  0  0
  190.3920  177.0710  143.2560 C   0  0  0  0  0  0  0  0  0  0  0  0
  189.2880  177.2440  146.8250 C   0  0  0  0  0  3  0  0  0  0  0  0
  190.3790  177.1390  141.9520 C   0  0  0  0  0  3  0  0  0  0  0  0
  185.8690  178.6690  144.4420 C   0  0  0  0  0  3  0  0  0  0  0  0
  185.2230  178.2900  147.1080 C   0  0  0  0  0  3  0  0  0  0  0  0
  186.4830  177.9060  146.6450 C   0  0  0  0  0  3  0  0  0  0  0  0
  186.8150  178.0940  145.2960 C   0  0  0  0  0  0  0  0  0  0  0  0
  184.6210  179.0570  144.9420 C   0  0  0  0  0  0  0  0  0  0  0  0
  184.3240  178.8470  146.2550 N   0  0  0  0  0  0  0  0  0  0  0  0
  182.3280  178.7940  144.0560 C   0  0  0  0  0  2  0  0  0  0  0  0
  183.2850  178.6630  142.8950 C   0  0  0  0  0  2  0  0  0  0  0  0
  183.5920  179.6350  144.0210 C   0  0  0  0  0  3  0  0  0  0  0  0
  189.1560  177.5760  141.2000 C   0  0  0  0  0  0  0  0  0  0  0  0
  188.0320  176.9140  141.7040 O   0  0  0  0  0  1  0  0  0  0  0  0
  188.9900  178.9550  141.3710 O   0  0  0  0  0  1  0  0  0  0  0  0
  190.6020  176.4410  139.4320 C   0  0  0  0  0  2  0  0  0  0  0  0
  189.3200  177.2620  139.7060 C   0  0  2  0  0  3  0  0  0  0  0  0
  191.2790  176.7400  138.0860 C   0  0  0  0  0  2  0  0  0  0  0  0
  188.6550  178.5990  136.4980 O   0  0  0  0  0  0  0  0  0  0  0  0
  189.3720  178.1000  137.4040 C   0  0  0  0  0  0  0  0  0  0  0  0
  189.1950  178.5130  138.8250 C   0  0  0  0  0  2  0  0  0  0  0  0
  190.3350  177.1410  137.0970 O   0  0  0  0  0  0  0  0  0  0  0  0
  1  3  1  0  0  0  0
  1  4  1  0  0  0  0
  2  6  1  0  0  0  0
  3  2  2  0  0  0  0
  4  8  1  0  0  0  0
  5 13  1  0  0  0  0
  5  4  2  0  0  0  0
  7  1  2  0  0  0  0
  8  6  2  0  0  0  0
  9  7  2  0  0  0  0
 10 14  2  0  0  0  0
 10 13  1  0  0  0  0
 12 11  1  0  0  0  0
 13 12  2  0  0  0  0
 14 15  1  0  0  0  0
 15 11  2  0  0  0  0
 17 18  1  0  0  0  0
 17 16  1  0  0  0  0
 18 16  1  0  0  0  0
 18 14  1  0  0  0  0
 19 21  1  0  0  0  0
 19 20  1  0  0  0  0
 19  9  1  0  0  0  0
 22 23  1  0  0  0  0
 23 19  1  1  0  0  0
 24 22  1  0  0  0  0
 25 26  2  0  0  0  0
 26 27  1  0  0  0  0
 27 23  1  0  0  0  0
 28 26  1  0  0  0  0
 28 24  1  0  0  0  0
M  END
>  <MODEL>
2

>  <REMARK>
 VINA RESULT:      -9.7      1.433      5.097
  Name = 
  4 active torsions:
  status: ('A' for Active; 'I' for Inactive)
    1  A    between atoms: C_8  and  C_11
    2  A    between atoms: C_8  and  C_28
    3  A    between atoms: C_13  and  N_16
    4  A    between atoms: C_21  and  C_22
                            x       y       z     vdW  Elec       q    Type
                         _______ _______ _______ _____ _____    ______ ____

>  <TORSDO>
F 4

$$$$
=
 OpenBabel11042412023D

 28 31  0  0  1  0  0  0  0  0999 V2000
  187.1000  178.0130  146.2310 C   0  0  0  0  0  0  0  0  0  0  0  0
  188.3520  177.6280  148.2870 C   0  0  0  0  0  3  0  0  0  0  0  0
  187.1890  177.9220  147.6970 C   0  0  0  0  0  3  0  0  0  0  0  0
  188.3210  177.7730  145.4240 C   0  0  0  0  0  0  0  0  0  0  0  0
  188.2650  177.8510  144.1210 N   0  0  0  0  0  0  0  0  0  0  0  0
  189.5760  177.3860  147.4950 C   0  0  0  0  0  3  0  0  0  0  0  0
  185.9550  178.3010  145.6710 C   0  0  0  0  0  0  0  0  0  0  0  0
  189.5650  177.4540  146.1590 C   0  0  0  0  0  3  0  0  0  0  0  0
  184.8180  178.5870  145.0950 C   0  0  0  0  0  3  0  0  0  0  0  0
  188.9350  177.3230  141.8430 C   0  0  0  0  0  3  0  0  0  0  0  0
  191.6220  177.6000  142.4500 C   0  0  0  0  0  3  0  0  0  0  0  0
  190.6680  177.7960  143.4490 C   0  0  0  0  0  3  0  0  0  0  0  0
  189.3060  177.6590  143.1480 C   0  0  0  0  0  0  0  0  0  0  0  0
  189.9170  177.1160  140.8680 C   0  0  0  0  0  0  0  0  0  0  0  0
  191.2310  177.2730  141.1900 N   0  0  0  0  0  0  0  0  0  0  0  0
  190.6620  177.1130  138.5100 C   0  0  0  0  0  2  0  0  0  0  0  0
  189.4910  178.0610  138.6190 C   0  0  0  0  0  2  0  0  0  0  0  0
  189.5200  176.7970  139.4610 C   0  0  0  0  0  3  0  0  0  0  0  0
  184.6920  178.6710  143.6020 C   0  0  0  0  0  0  0  0  0  0  0  0
  185.0430  179.9550  143.1710 O   0  0  0  0  0  1  0  0  0  0  0  0
  185.5610  177.7400  143.0230 O   0  0  0  0  0  1  0  0  0  0  0  0
  183.0540  178.5050  141.6530 C   0  0  0  0  0  2  0  0  0  0  0  0
  183.2500  178.3570  143.1800 C   0  0  2  0  0  3  0  0  0  0  0  0
  181.6640  179.0030  141.2300 C   0  0  0  0  0  2  0  0  0  0  0  0
  179.9100  178.5790  144.3290 O   0  0  0  0  0  0  0  0  0  0  0  0
  180.8560  178.7580  143.5180 C   0  0  0  0  0  0  0  0  0  0  0  0
  182.2130  179.1310  144.0070 C   0  0  0  0  0  2  0  0  0  0  0  0
  180.6540  178.5960  142.1500 O   0  0  0  0  0  0  0  0  0  0  0  0
  1  3  1  0  0  0  0
  3  2  2  0  0  0  0
  4  8  1  0  0  0  0
  4  1  1  0  0  0  0
  5  4  2  0  0  0  0
  6  2  1  0  0  0  0
  7  1  2  0  0  0  0
  8  6  2  0  0  0  0
  9  7  2  0  0  0  0
 10 13  1  0  0  0  0
 11 12  1  0  0  0  0
 13 12  2  0  0  0  0
 13  5  1  0  0  0  0
 14 15  1  0  0  0  0
 14 10  2  0  0  0  0
 15 11  2  0  0  0  0
 16 17  1  0  0  0  0
 16 18  1  0  0  0  0
 17 18  1  0  0  0  0
 18 14  1  0  0  0  0
 19  9  1  0  0  0  0
 20 19  1  0  0  0  0
 21 19  1  0  0  0  0
 22 23  1  0  0  0  0
 23 19  1  1  0  0  0
 23 27  1  0  0  0  0
 24 22  1  0  0  0  0
 24 28  1  0  0  0  0
 26 27  1  0  0  0  0
 26 25  2  0  0  0  0
 28 26  1  0  0  0  0
M  END
>  <MODEL>
3

>  <REMARK>
 VINA RESULT:      -9.5      3.086      6.972
  Name = 
  4 active torsions:
  status: ('A' for Active; 'I' for Inactive)
    1  A    between atoms: C_8  and  C_11
    2  A    between atoms: C_8  and  C_28
    3  A    between atoms: C_13  and  N_16
    4  A    between atoms: C_21  and  C_22
                            x       y       z     vdW  Elec       q    Type
                         _______ _______ _______ _____ _____    ______ ____

>  <TORSDO>
F 4

$$$$
=
 OpenBabel11042412023D

 28 31  0  0  1  0  0  0  0  0999 V2000
  188.8520  177.5790  145.7250 C   0  0  0  0  0  0  0  0  0  0  0  0
  188.8140  177.8170  148.1520 C   0  0  0  0  0  3  0  0  0  0  0  0
  189.5040  177.5270  147.0440 C   0  0  0  0  0  3  0  0  0  0  0  0
  187.4210  177.9590  145.6510 C   0  0  0  0  0  0  0  0  0  0  0  0
  186.8210  178.0100  144.4910 N   0  0  0  0  0  0  0  0  0  0  0  0
  187.3880  178.1970  148.0910 C   0  0  0  0  0  3  0  0  0  0  0  0
  189.5420  177.2940  144.6530 C   0  0  0  0  0  0  0  0  0  0  0  0
  186.7340  178.2630  146.9260 C   0  0  0  0  0  3  0  0  0  0  0  0
  190.2170  177.0120  143.5710 C   0  0  0  0  0  3  0  0  0  0  0  0
  185.0820  178.3930  142.8340 C   0  0  0  0  0  3  0  0  0  0  0  0
  183.1940  178.9520  144.7810 C   0  0  0  0  0  3  0  0  0  0  0  0
  184.4990  178.6360  145.1600 C   0  0  0  0  0  3  0  0  0  0  0  0
  185.4590  178.3500  144.1790 C   0  0  0  0  0  0  0  0  0  0  0  0
  183.7690  178.7300  142.4870 C   0  0  0  0  0  0  0  0  0  0  0  0
  182.8570  178.9870  143.4660 N   0  0  0  0  0  0  0  0  0  0  0  0
  181.9140  178.2670  140.9190 C   0  0  0  0  0  2  0  0  0  0  0  0
  183.0440  177.3240  140.5820 C   0  0  0  0  0  2  0  0  0  0  0  0
  183.3520  178.7360  141.0490 C   0  0  0  0  0  3  0  0  0  0  0  0
  189.5840  177.0720  142.2120 C   0  0  0  0  0  0  0  0  0  0  0  0
  188.4820  176.2130  142.1670 O   0  0  0  0  0  1  0  0  0  0  0  0
  189.1550  178.3810  141.9720 O   0  0  0  0  0  1  0  0  0  0  0  0
  192.0040  177.2630  141.4260 C   0  0  0  0  0  2  0  0  0  0  0  0
  190.6060  176.6650  141.1410 C   0  0  2  0  0  3  0  0  0  0  0  0
  192.8170  177.6210  140.1730 C   0  0  0  0  0  2  0  0  0  0  0  0
  190.8660  175.9170  137.6920 O   0  0  0  0  0  0  0  0  0  0  0  0
  191.1660  176.5120  138.7600 C   0  0  0  0  0  0  0  0  0  0  0  0
  190.1050  176.9370  139.7150 C   0  0  0  0  0  2  0  0  0  0  0  0
  192.4980  176.7690  139.0760 O   0  0  0  0  0  0  0  0  0  0  0  0
  1  3  1  0  0  0  0
  3  2  2  0  0  0  0
  4  1  1  0  0  0  0
  4  8  1  0  0  0  0
  5  4  2  0  0  0  0
  6  2  1  0  0  0  0
  7  1  2  0  0  0  0
  8  6  2  0  0  0  0
  9  7  2  0  0  0  0
 10 13  1  0  0  0  0
 11 12  1  0  0  0  0
 13  5  1  0  0  0  0
 13 12  2  0  0  0  0
 14 10  2  0  0  0  0
 14 15  1  0  0  0  0
 15 11  2  0  0  0  0
 16 18  1  0  0  0  0
 17 16  1  0  0  0  0
 17 18  1  0  0  0  0
 18 14  1  0  0  0  0
 19  9  1  0  0  0  0
 20 19  1  0  0  0  0
 21 19  1  0  0  0  0
 23 22  1  0  0  0  0
 23 19  1  1  0  0  0
 24 22  1  0  0  0  0
 25 26  2  0  0  0  0
 26 28  1  0  0  0  0
 26 27  1  0  0  0  0
 27 23  1  0  0  0  0
 28 24  1  0  0  0  0
M  END
>  <MODEL>
4

>  <REMARK>
 VINA RESULT:      -9.4      1.618      5.419
  Name = 
  4 active torsions:
  status: ('A' for Active; 'I' for Inactive)
    1  A    between atoms: C_8  and  C_11
    2  A    between atoms: C_8  and  C_28
    3  A    between atoms: C_13  and  N_16
    4  A    between atoms: C_21  and  C_22
                            x       y       z     vdW  Elec       q    Type
                         _______ _______ _______ _____ _____    ______ ____

>  <TORSDO>
F 4

$$$$
=
 OpenBabel11042412023D

 28 31  0  0  1  0  0  0  0  0999 V2000
  184.8370  178.4950  144.3710 C   0  0  0  0  0  0  0  0  0  0  0  0
  185.1920  178.5360  146.7830 C   0  0  0  0  0  3  0  0  0  0  0  0
  184.3820  178.7660  145.7440 C   0  0  0  0  0  3  0  0  0  0  0  0
  186.2060  177.9660  144.1640 C   0  0  0  0  0  0  0  0  0  0  0  0
  186.6320  177.7190  142.9530 N   0  0  0  0  0  0  0  0  0  0  0  0
  186.5580  178.0080  146.5900 C   0  0  0  0  0  3  0  0  0  0  0  0
  184.0320  178.7240  143.3680 C   0  0  0  0  0  0  0  0  0  0  0  0
  187.0350  177.7420  145.3690 C   0  0  0  0  0  3  0  0  0  0  0  0
  183.2390  178.9470  142.3540 C   0  0  0  0  0  3  0  0  0  0  0  0
  188.4140  177.6650  141.2980 C   0  0  0  0  0  3  0  0  0  0  0  0
  189.8790  175.8350  142.7700 C   0  0  0  0  0  3  0  0  0  0  0  0
  188.6490  176.2810  143.2560 C   0  0  0  0  0  3  0  0  0  0  0  0
  187.9040  177.2090  142.5160 C   0  0  0  0  0  0  0  0  0  0  0  0
  189.6420  177.1860  140.8300 C   0  0  0  0  0  0  0  0  0  0  0  0
  190.3490  176.2960  141.5810 N   0  0  0  0  0  0  0  0  0  0  0  0
  189.1530  178.4880  138.7860 C   0  0  0  0  0  2  0  0  0  0  0  0
  189.4930  177.0790  138.3610 C   0  0  0  0  0  2  0  0  0  0  0  0
  190.2090  177.7040  139.5460 C   0  0  0  0  0  3  0  0  0  0  0  0
  183.6700  178.6660  140.9440 C   0  0  0  0  0  0  0  0  0  0  0  0
  184.7900  179.4400  140.6290 O   0  0  0  0  0  1  0  0  0  0  0  0
  184.0030  177.3120  140.8350 O   0  0  0  0  0  1  0  0  0  0  0  0
  182.9420  180.0520  138.9290 C   0  0  0  0  0  2  0  0  0  0  0  0
  182.5240  178.9900  139.9730 C   0  0  2  0  0  3  0  0  0  0  0  0
  181.8130  180.9950  138.4870 C   0  0  0  0  0  2  0  0  0  0  0  0
  178.9960  179.2210  139.8200 O   0  0  0  0  0  0  0  0  0  0  0  0
  180.1780  179.6300  139.6750 C   0  0  0  0  0  0  0  0  0  0  0  0
  181.2160  179.3310  140.7010 C   0  0  0  0  0  2  0  0  0  0  0  0
  180.5390  180.3580  138.5440 O   0  0  0  0  0  0  0  0  0  0  0  0
  1  3  1  0  0  0  0
  3  2  2  0  0  0  0
  4  1  1  0  0  0  0
  4  8  1  0  0  0  0
  5  4  2  0  0  0  0
  6  2  1  0  0  0  0
  7  1  2  0  0  0  0
  8  6  2  0  0  0  0
  9  7  2  0  0  0  0
 10 13  1  0  0  0  0
 11 12  1  0  0  0  0
 13  5  1  0  0  0  0
 13 12  2  0  0  0  0
 14 10  2  0  0  0  0
 14 15  1  0  0  0  0
 15 11  2  0  0  0  0
 16 18  1  0  0  0  0
 17 16  1  0  0  0  0
 17 18  1  0  0  0  0
 18 14  1  0  0  0  0
 19  9  1  0  0  0  0
 20 19  1  0  0  0  0
 21 19  1  0  0  0  0
 22 23  1  0  0  0  0
 23 27  1  0  0  0  0
 23 19  1  1  0  0  0
 24 28  1  0  0  0  0
 24 22  1  0  0  0  0
 26 25  2  0  0  0  0
 26 27  1  0  0  0  0
 28 26  1  0  0  0  0
M  END
>  <MODEL>
5

>  <REMARK>
 VINA RESULT:      -9.3      3.786      6.619
  Name = 
  4 active torsions:
  status: ('A' for Active; 'I' for Inactive)
    1  A    between atoms: C_8  and  C_11
    2  A    between atoms: C_8  and  C_28
    3  A    between atoms: C_13  and  N_16
    4  A    between atoms: C_21  and  C_22
                            x       y       z     vdW  Elec       q    Type
                         _______ _______ _______ _____ _____    ______ ____

>  <TORSDO>
F 4

$$$$
=
 OpenBabel11042412023D

 28 31  0  0  1  0  0  0  0  0999 V2000
  186.2010  178.2310  144.8290 C   0  0  0  0  0  0  0  0  0  0  0  0
  183.9110  178.7660  145.4720 C   0  0  0  0  0  3  0  0  0  0  0  0
  185.1500  178.4250  145.8410 C   0  0  0  0  0  3  0  0  0  0  0  0
  185.8600  178.4210  143.3990 C   0  0  0  0  0  0  0  0  0  0  0  0
  186.7770  178.2520  142.4840 N   0  0  0  0  0  0  0  0  0  0  0  0
  183.5580  178.9590  144.0500 C   0  0  0  0  0  3  0  0  0  0  0  0
  187.4070  177.8990  145.2070 C   0  0  0  0  0  0  0  0  0  0  0  0
  184.4650  178.7980  143.0800 C   0  0  0  0  0  3  0  0  0  0  0  0
  188.6170  177.5660  145.5690 C   0  0  0  0  0  3  0  0  0  0  0  0
  187.8470  178.2530  140.2990 C   0  0  0  0  0  3  0  0  0  0  0  0
  185.4500  178.7340  139.0000 C   0  0  0  0  0  3  0  0  0  0  0  0
  185.4680  178.6270  140.3910 C   0  0  0  0  0  3  0  0  0  0  0  0
  186.6780  178.3810  141.0540 C   0  0  0  0  0  0  0  0  0  0  0  0
  187.7970  178.3820  138.9060 C   0  0  0  0  0  0  0  0  0  0  0  0
  186.6020  178.6060  138.2920 N   0  0  0  0  0  0  0  0  0  0  0  0
  188.6840  177.7590  136.6840 C   0  0  0  0  0  2  0  0  0  0  0  0
  189.2000  176.7500  137.6830 C   0  0  0  0  0  2  0  0  0  0  0  0
  189.0400  178.2040  138.0920 C   0  0  0  0  0  3  0  0  0  0  0  0
  189.7140  177.3770  144.5610 C   0  0  0  0  0  0  0  0  0  0  0  0
  189.3110  176.4510  143.5940 O   0  0  0  0  0  1  0  0  0  0  0  0
  189.9740  178.6040  143.9420 O   0  0  0  0  0  1  0  0  0  0  0  0
  191.6220  175.6840  144.5100 C   0  0  0  0  0  2  0  0  0  0  0  0
  190.9860  176.8780  145.2620 C   0  0  2  0  0  3  0  0  0  0  0  0
  192.3140  174.6530  145.4140 C   0  0  0  0  0  2  0  0  0  0  0  0
  192.4310  176.5220  148.4720 O   0  0  0  0  0  0  0  0  0  0  0  0
  192.0530  176.1310  147.3370 C   0  0  0  0  0  0  0  0  0  0  0  0
  190.7670  176.6110  146.7580 C   0  0  0  0  0  2  0  0  0  0  0  0
  192.8400  175.2530  146.5950 O   0  0  0  0  0  0  0  0  0  0  0  0
  1  7  2  0  0  0  0
  1  3  1  0  0  0  0
  2  3  2  0  0  0  0
  4  1  1  0  0  0  0
  5  4  2  0  0  0  0
  6  2  1  0  0  0  0
  7  9  2  0  0  0  0
  8  4  1  0  0  0  0
  8  6  2  0  0  0  0
 10 13  1  0  0  0  0
 11 12  1  0  0  0  0
 12 13  2  0  0  0  0
 13  5  1  0  0  0  0
 14 10  2  0  0  0  0
 15 14  1  0  0  0  0
 15 11  2  0  0  0  0
 16 17  1  0  0  0  0
 16 18  1  0  0  0  0
 17 18  1  0  0  0  0
 18 14  1  0  0  0  0
 19  9  1  0  0  0  0
 20 19  1  0  0  0  0
 21 19  1  0  0  0  0
 22 23  1  0  0  0  0
 22 24  1  0  0  0  0
 23 19  1  6  0  0  0
 23 27  1  0  0  0  0
 24 28  1  0  0  0  0
 26 25  2  0  0  0  0
 27 26  1  0  0  0  0
 28 26  1  0  0  0  0
M  END
>  <MODEL>
6

>  <REMARK>
 VINA RESULT:      -9.3      2.549      6.642
  Name = 
  4 active torsions:
  status: ('A' for Active; 'I' for Inactive)
    1  A    between atoms: C_8  and  C_11
    2  A    between atoms: C_8  and  C_28
    3  A    between atoms: C_13  and  N_16
    4  A    between atoms: C_21  and  C_22
                            x       y       z     vdW  Elec       q    Type
                         _______ _______ _______ _____ _____    ______ ____

>  <TORSDO>
F 4

$$$$
=
 OpenBabel11042412023D

 28 31  0  0  1  0  0  0  0  0999 V2000
  188.1810  178.1230  140.6930 C   0  0  0  0  0  0  0  0  0  0  0  0
  189.9930  177.8380  139.0860 C   0  0  0  0  0  3  0  0  0  0  0  0
  188.7140  178.1470  139.3210 C   0  0  0  0  0  3  0  0  0  0  0  0
  189.0890  177.7510  141.8050 C   0  0  0  0  0  0  0  0  0  0  0  0
  188.6380  177.7210  143.0310 N   0  0  0  0  0  0  0  0  0  0  0  0
  190.9080  177.4660  140.1850 C   0  0  0  0  0  3  0  0  0  0  0  0
  186.9290  178.4290  140.9050 C   0  0  0  0  0  0  0  0  0  0  0  0
  190.4890  177.4230  141.4550 C   0  0  0  0  0  3  0  0  0  0  0  0
  185.6790  178.7320  141.1330 C   0  0  0  0  0  3  0  0  0  0  0  0
  188.5890  177.3880  145.4400 C   0  0  0  0  0  3  0  0  0  0  0  0
  191.2870  176.7730  145.5220 C   0  0  0  0  0  3  0  0  0  0  0  0
  190.6910  177.0850  144.3000 C   0  0  0  0  0  3  0  0  0  0  0  0
  189.3250  177.3950  144.2510 C   0  0  0  0  0  0  0  0  0  0  0  0
  189.2210  177.0860  146.6510 C   0  0  0  0  0  0  0  0  0  0  0  0
  190.5470  176.7740  146.6610 N   0  0  0  0  0  0  0  0  0  0  0  0
  187.3960  178.1520  147.9340 C   0  0  0  0  0  2  0  0  0  0  0  0
  188.6650  178.2920  148.7410 C   0  0  0  0  0  2  0  0  0  0  0  0
  188.4270  177.0370  147.9190 C   0  0  0  0  0  3  0  0  0  0  0  0
  185.1120  178.7320  142.5220 C   0  0  0  0  0  0  0  0  0  0  0  0
  185.7830  177.7880  143.3060 O   0  0  0  0  0  1  0  0  0  0  0  0
  185.2890  180.0020  143.0820 O   0  0  0  0  0  1  0  0  0  0  0  0
  183.0590  178.4570  141.0320 C   0  0  0  0  0  2  0  0  0  0  0  0
  183.6140  178.3990  142.4750 C   0  0  2  0  0  3  0  0  0  0  0  0
  181.6030  178.9340  140.9240 C   0  0  0  0  0  2  0  0  0  0  0  0
  180.6410  178.7020  144.3700 O   0  0  0  0  0  0  0  0  0  0  0  0
  181.3650  178.8290  143.3490 C   0  0  0  0  0  0  0  0  0  0  0  0
  182.7960  179.2250  143.4780 C   0  0  0  0  0  2  0  0  0  0  0  0
  180.8460  178.5870  142.0800 O   0  0  0  0  0  0  0  0  0  0  0  0
  1  7  2  0  0  0  0
  1  4  1  0  0  0  0
  2  3  2  0  0  0  0
  2  6  1  0  0  0  0
  3  1  1  0  0  0  0
  4  5  2  0  0  0  0
  5 13  1  0  0  0  0
  6  8  2  0  0  0  0
  7  9  2  0  0  0  0
  8  4  1  0  0  0  0
  9 19  1  0  0  0  0
 10 14  1  0  0  0  0
 11 15  1  0  0  0  0
 12 11  2  0  0  0  0
 13 12  1  0  0  0  0
 13 10  2  0  0  0  0
 14 15  2  0  0  0  0
 14 18  1  0  0  0  0
 16 17  1  0  0  0  0
 18 16  1  0  0  0  0
 18 17  1  0  0  0  0
 19 21  1  0  0  0  0
 19 20  1  0  0  0  0
 22 23  1  0  0  0  0
 23 19  1  6  0  0  0
 23 27  1  0  0  0  0
 24 22  1  0  0  0  0
 24 28  1  0  0  0  0
 26 27  1  0  0  0  0
 26 25  2  0  0  0  0
 28 26  1  0  0  0  0
M  END
>  <MODEL>
7

>  <REMARK>
 VINA RESULT:      -9.1      2.816      6.184
  Name = 
  4 active torsions:
  status: ('A' for Active; 'I' for Inactive)
    1  A    between atoms: C_8  and  C_11
    2  A    between atoms: C_8  and  C_28
    3  A    between atoms: C_13  and  N_16
    4  A    between atoms: C_21  and  C_22
                            x       y       z     vdW  Elec       q    Type
                         _______ _______ _______ _____ _____    ______ ____

>  <TORSDO>
F 4

$$$$
=
 OpenBabel11042412023D

 28 31  0  0  1  0  0  0  0  0999 V2000
  188.8670  177.5810  145.2240 C   0  0  0  0  0  0  0  0  0  0  0  0
  188.9410  177.4210  147.6560 C   0  0  0  0  0  3  0  0  0  0  0  0
  189.5880  177.3550  146.4880 C   0  0  0  0  0  3  0  0  0  0  0  0
  187.4160  177.8810  145.2730 C   0  0  0  0  0  0  0  0  0  0  0  0
  186.7570  178.0830  144.1630 N   0  0  0  0  0  0  0  0  0  0  0  0
  187.4950  177.7190  147.7180 C   0  0  0  0  0  3  0  0  0  0  0  0
  189.5150  177.5140  144.0910 C   0  0  0  0  0  0  0  0  0  0  0  0
  186.7810  177.9340  146.6080 C   0  0  0  0  0  3  0  0  0  0  0  0
  190.1490  177.4510  142.9510 C   0  0  0  0  0  3  0  0  0  0  0  0
  184.8210  178.2020  142.6940 C   0  0  0  0  0  3  0  0  0  0  0  0
  183.1900  179.1220  144.7330 C   0  0  0  0  0  3  0  0  0  0  0  0
  184.5340  178.8540  144.9960 C   0  0  0  0  0  3  0  0  0  0  0  0
  185.3640  178.3870  143.9680 C   0  0  0  0  0  0  0  0  0  0  0  0
  183.4730  178.4960  142.4590 C   0  0  0  0  0  0  0  0  0  0  0  0
  182.6900  178.9340  143.4840 N   0  0  0  0  0  0  0  0  0  0  0  0
  183.9810  178.0430  140.0820 C   0  0  0  0  0  2  0  0  0  0  0  0
  183.2740  179.3760  140.1540 C   0  0  0  0  0  2  0  0  0  0  0  0
  182.8800  178.2600  141.1050 C   0  0  0  0  0  3  0  0  0  0  0  0
  189.4450  177.6930  141.6470 C   0  0  0  0  0  0  0  0  0  0  0  0
  188.4570  176.7210  141.4580 O   0  0  0  0  0  1  0  0  0  0  0  0
  188.8440  178.9550  141.6860 O   0  0  0  0  0  1  0  0  0  0  0  0
  189.8890  176.8750  139.2710 C   0  0  0  0  0  2  0  0  0  0  0  0
  190.4540  177.6410  140.4910 C   0  0  2  0  0  3  0  0  0  0  0  0
  190.9360  176.0900  138.4660 C   0  0  0  0  0  2  0  0  0  0  0  0
  193.9300  177.5030  139.8440 O   0  0  0  0  0  0  0  0  0  0  0  0
  192.7330  177.1280  139.7480 C   0  0  0  0  0  0  0  0  0  0  0  0
  191.8360  177.1430  140.9390 C   0  0  0  0  0  2  0  0  0  0  0  0
  192.2190  176.7080  138.5240 O   0  0  0  0  0  0  0  0  0  0  0  0
  1  4  1  0  0  0  0
  1  3  1  0  0  0  0
  2  6  1  0  0  0  0
  3  2  2  0  0  0  0
  4  8  1  0  0  0  0
  5  4  2  0  0  0  0
  7  1  2  0  0  0  0
  8  6  2  0  0  0  0
  9  7  2  0  0  0  0
 10 13  1  0  0  0  0
 11 12  1  0  0  0  0
 13  5  1  0  0  0  0
 13 12  2  0  0  0  0
 14 10  2  0  0  0  0
 14 15  1  0  0  0  0
 15 11  2  0  0  0  0
 16 17  1  0  0  0  0
 16 18  1  0  0  0  0
 17 18  1  0  0  0  0
 18 14  1  0  0  0  0
 19 21  1  0  0  0  0
 19  9  1  0  0  0  0
 20 19  1  0  0  0  0
 22 23  1  0  0  0  0
 23 27  1  0  0  0  0
 23 19  1  1  0  0  0
 24 28  1  0  0  0  0
 24 22  1  0  0  0  0
 26 25  2  0  0  0  0
 26 27  1  0  0  0  0
 28 26  1  0  0  0  0
M  END
>  <MODEL>
8

>  <REMARK>
 VINA RESULT:      -9.0      1.657      5.268
  Name = 
  4 active torsions:
  status: ('A' for Active; 'I' for Inactive)
    1  A    between atoms: C_8  and  C_11
    2  A    between atoms: C_8  and  C_28
    3  A    between atoms: C_13  and  N_16
    4  A    between atoms: C_21  and  C_22
                            x       y       z     vdW  Elec       q    Type
                         _______ _______ _______ _____ _____    ______ ____

>  <TORSDO>
F 4

$$$$
=
 OpenBabel11042412023D

 28 31  0  0  1  0  0  0  0  0999 V2000
  187.5420  178.1270  141.3290 C   0  0  0  0  0  0  0  0  0  0  0  0
  185.3260  178.8940  141.9980 C   0  0  0  0  0  3  0  0  0  0  0  0
  186.1940  178.6290  141.0160 C   0  0  0  0  0  3  0  0  0  0  0  0
  187.9170  177.9230  142.7490 C   0  0  0  0  0  0  0  0  0  0  0  0
  189.1080  177.4800  143.0500 N   0  0  0  0  0  0  0  0  0  0  0  0
  185.6870  178.6960  143.4170 C   0  0  0  0  0  3  0  0  0  0  0  0
  188.3760  177.8710  140.3570 C   0  0  0  0  0  0  0  0  0  0  0  0
  186.8950  178.2430  143.7710 C   0  0  0  0  0  3  0  0  0  0  0  0
  189.2230  177.6100  139.3970 C   0  0  0  0  0  3  0  0  0  0  0  0
  188.8470  177.2450  145.4570 C   0  0  0  0  0  3  0  0  0  0  0  0
  191.5300  176.6530  145.8030 C   0  0  0  0  0  3  0  0  0  0  0  0
  191.0430  176.9110  144.5210 C   0  0  0  0  0  3  0  0  0  0  0  0
  189.6850  177.2090  144.3390 C   0  0  0  0  0  0  0  0  0  0  0  0
  189.3710  176.9980  146.7310 C   0  0  0  0  0  0  0  0  0  0  0  0
  190.6920  176.6960  146.8710 N   0  0  0  0  0  0  0  0  0  0  0  0
  187.4820  178.1470  147.8370 C   0  0  0  0  0  2  0  0  0  0  0  0
  188.6800  178.2520  148.7510 C   0  0  0  0  0  2  0  0  0  0  0  0
  188.4670  176.9950  147.9250 C   0  0  0  0  0  3  0  0  0  0  0  0
  190.5980  177.0830  139.6840 C   0  0  0  0  0  0  0  0  0  0  0  0
  191.3730  178.0840  140.2760 O   0  0  0  0  0  1  0  0  0  0  0  0
  190.4920  176.0030  140.5670 O   0  0  0  0  0  1  0  0  0  0  0  0
  190.7070  175.2470  137.9150 C   0  0  0  0  0  2  0  0  0  0  0  0
  191.2610  176.6140  138.3800 C   0  0  2  0  0  3  0  0  0  0  0  0
  191.7300  174.3490  137.2020 C   0  0  0  0  0  2  0  0  0  0  0  0
  194.3270  176.7520  136.6180 O   0  0  0  0  0  0  0  0  0  0  0  0
  193.3340  176.1860  137.1450 C   0  0  0  0  0  0  0  0  0  0  0  0
  192.7940  176.6600  138.4500 C   0  0  0  0  0  2  0  0  0  0  0  0
  192.7110  175.1150  136.5090 O   0  0  0  0  0  0  0  0  0  0  0  0
  1  4  1  0  0  0  0
  2  6  1  0  0  0  0
  3  1  1  0  0  0  0
  3  2  2  0  0  0  0
  4  5  2  0  0  0  0
  4  8  1  0  0  0  0
  5 13  1  0  0  0  0
  6  8  2  0  0  0  0
  7  1  2  0  0  0  0
  9 19  1  0  0  0  0
  9  7  2  0  0  0  0
 10 14  1  0  0  0  0
 11 15  1  0  0  0  0
 12 11  2  0  0  0  0
 13 12  1  0  0  0  0
 13 10  2  0  0  0  0
 14 15  2  0  0  0  0
 14 18  1  0  0  0  0
 16 18  1  0  0  0  0
 16 17  1  0  0  0  0
 18 17  1  0  0  0  0
 19 20  1  0  0  0  0
 19 21  1  0  0  0  0
 22 23  1  0  0  0  0
 23 27  1  0  0  0  0
 23 19  1  1  0  0  0
 24 22  1  0  0  0  0
 25 26  2  0  0  0  0
 26 27  1  0  0  0  0
 28 26  1  0  0  0  0
 28 24  1  0  0  0  0
M  END
>  <MODEL>
9

>  <REMARK>
 VINA RESULT:      -8.8      1.730      3.071
  Name = 
  4 active torsions:
  status: ('A' for Active; 'I' for Inactive)
    1  A    between atoms: C_8  and  C_11
    2  A    between atoms: C_8  and  C_28
    3  A    between atoms: C_13  and  N_16
    4  A    between atoms: C_21  and  C_22
                            x       y       z     vdW  Elec       q    Type
                         _______ _______ _______ _____ _____    ______ ____

>  <TORSDO>
F 4

$$$$
