=
 OpenBabel11042409553D

 66 70  0  0  1  0  0  0  0  0999 V2000
  189.6570  177.6100  139.6580 C   0  0  0  0  0  2  0  0  0  0  0  0
  191.0450  177.6540  140.2520 C   0  0  2  0  0  3  0  0  0  0  0  0
  190.9960  175.9590  138.5010 C   0  0  2  0  0  3  0  0  0  0  0  0
  189.8290  176.9260  138.3240 C   0  0  0  0  0  2  0  0  0  0  0  0
  191.7210  176.3900  139.7700 C   0  0  0  0  0  2  0  0  0  0  0  0
  192.1110  174.9630  136.4640 C   0  0  0  0  0  0  0  0  0  0  0  0
  191.9170  176.0570  137.3800 N   0  0  0  0  0  2  0  0  0  0  0  0
  193.2110  174.8720  135.7510 N   0  0  0  0  0  0  0  0  0  0  0  0
  194.3030  175.8090  135.7640 C   0  0  0  0  0  0  0  0  0  0  0  0
  194.5440  176.5230  136.7800 O   0  0  0  0  0  0  0  0  0  0  0  0
  195.2320  175.8630  134.5950 C   0  0  0  0  0  2  0  0  0  0  0  0
  196.3260  176.9050  134.8060 C   0  0  0  0  0  2  0  0  0  0  0  0
  197.3060  176.4180  135.7240 O   0  0  0  0  0  0  0  0  0  0  0  0
  197.8710  175.1410  135.6100 C   0  0  0  0  0  0  0  0  0  0  0  0
  197.3960  174.1670  136.2500 O   0  0  0  0  0  1  0  0  0  0  0  0
  199.0000  174.9580  134.8250 O   0  0  0  0  0  0  0  0  0  0  0  0
  190.8310  173.2890  135.3270 C   0  0  0  0  0  3  0  0  0  0  0  0
  191.1250  173.9280  136.4100 N   0  0  0  0  0  0  0  0  0  0  0  0
  189.8070  172.2020  135.3930 C   0  0  0  0  0  2  0  0  0  0  0  0
  188.4080  172.7240  135.3790 C   0  0  0  0  0  0  0  0  0  0  0  0
  187.3870  172.2590  136.3000 C   0  0  0  0  0  3  0  0  0  0  0  0
  188.0590  173.8040  134.7590 N   0  0  0  0  0  0  0  0  0  0  0  0
  186.3840  173.1190  136.1800 C   0  0  0  0  0  0  0  0  0  0  0  0
  186.6880  174.1440  135.1320 C   0  0  1  0  0  3  0  0  0  0  0  0
  186.1480  178.0790  137.5660 C   0  0  0  0  0  2  0  0  0  0  0  0
  185.2050  176.9220  137.3320 C   0  0  0  0  0  2  0  0  0  0  0  0
  187.6450  177.7790  135.6050 C   0  0  0  0  0  0  0  0  0  0  0  0
  188.7990  178.2610  135.4360 O   0  0  0  0  0  0  0  0  0  0  0  0
  186.5850  178.6330  136.2360 C   0  0  0  0  0  2  0  0  0  0  0  0
  187.3960  176.4390  135.1660 N   0  0  0  0  0  0  0  0  0  0  0  0
  186.6030  175.5390  135.6820 C   0  0  0  0  0  0  0  0  0  0  0  0
  185.9360  175.7310  136.9420 N   0  0  0  0  0  2  0  0  0  0  0  0
  185.0990  173.0180  136.9430 C   0  0  0  0  0  2  0  0  0  0  0  0
  184.0560  173.5010  136.1620 O   0  0  0  0  0  0  0  0  0  0  0  0
  182.9110  172.2560  136.0160 P   0  0  0  0  0  0  0  0  0  0  0  0
  181.4920  172.7800  135.9190 O   0  0  0  0  0  1  0  0  0  0  0  0
  183.0370  171.2050  137.3370 O   0  0  0  0  0  1  0  0  0  0  0  0
  183.2360  171.3800  134.5980 O   0  0  0  0  0  0  0  0  0  0  0  0
  190.9920  177.7090  141.6780 O   0  0  0  0  0  0  0  0  0  0  0  0
  190.3130  175.5440  142.1310 O   0  0  0  0  0  0  0  0  0  0  0  0
  190.2590  176.7800  142.4120 C   0  0  0  0  0  0  0  0  0  0  0  0
  187.8760  176.9780  143.6470 S   0  0  0  0  0  0  0  0  0  0  0  0
  189.4860  177.2220  143.5960 C   0  0  1  0  0  3  0  0  0  0  0  0
  191.5960  175.8490  144.7510 O   0  0  0  0  0  1  0  0  0  0  0  0
  189.8490  176.5810  147.2560 C   0  0  0  0  0  2  0  0  0  0  0  0
  191.4340  177.1070  145.3560 C   0  0  1  0  0  3  0  0  0  0  0  0
  188.8190  177.4790  146.5520 C   0  0  0  0  0  2  0  0  0  0  0  0
  190.2300  177.8820  144.7400 C   0  0  2  0  0  3  0  0  0  0  0  0
  189.3960  178.4670  145.7270 O   0  0  0  0  0  0  0  0  0  0  0  0
  192.1810  176.0450  147.4040 O   0  0  0  0  0  1  0  0  0  0  0  0
  191.2740  176.9680  146.8790 C   0  0  2  0  0  3  0  0  0  0  0  0
  187.2610  177.8420  142.1940 C   0  0  0  0  0  2  0  0  0  0  0  0
  186.0880  178.7140  142.6110 C   0  0  0  0  0  2  0  0  0  0  0  0
  184.7750  177.9440  142.6740 C   0  0  0  0  0  2  0  0  0  0  0  0
  183.5210  178.8290  142.6740 C   0  0  2  0  0  3  0  0  0  0  0  0
  182.7660  178.7070  143.9820 C   0  0  0  0  0  2  0  0  0  0  0  0
  183.6690  179.0840  145.1400 C   0  0  0  0  0  1  0  0  0  0  0  0
  182.5990  178.4330  141.5240 C   0  0  0  0  0  2  0  0  0  0  0  0
  181.2440  179.1260  141.5760 C   0  0  0  0  0  2  0  0  0  0  0  0
  180.7620  179.3470  140.1850 C   0  0  0  0  0  0  0  0  0  0  0  0
  181.1940  180.3310  139.3860 N   0  0  0  0  0  0  0  0  0  0  0  0
  179.7590  178.6290  139.5710 C   0  0  0  0  0  3  0  0  0  0  0  0
  180.4370  180.1870  138.2840 C   0  0  0  0  0  0  0  0  0  0  0  0
  179.5500  179.1860  138.3650 N   0  0  0  0  0  2  0  0  0  0  0  0
  180.4760  181.1510  137.1560 C   0  0  0  0  0  2  0  0  0  0  0  0
  180.9470  182.5130  137.6280 C   0  0  0  0  0  1  0  0  0  0  0  0
  1  2  1  0  0  0  0
  2 39  1  1  0  0  0
  3  7  1  6  0  0  0
  3  5  1  0  0  0  0
  4  3  1  0  0  0  0
  4  1  1  0  0  0  0
  5  2  1  0  0  0  0
  6  7  1  0  0  0  0
  8  9  1  0  0  0  0
  8  6  2  0  0  0  0
  9 10  2  0  0  0  0
 11 12  1  0  0  0  0
 11  9  1  0  0  0  0
 12 13  1  0  0  0  0
 14 13  1  0  0  0  0
 14 15  1  0  0  0  0
 16 14  2  0  0  0  0
 17 19  1  0  0  0  0
 17 18  2  0  0  0  0
 18  6  1  0  0  0  0
 20 19  1  0  0  0  0
 20 21  1  0  0  0  0
 22 24  1  0  0  0  0
 22 20  2  0  0  0  0
 23 21  2  0  0  0  0
 23 33  1  0  0  0  0
 24 31  1  1  0  0  0
 24 23  1  0  0  0  0
 26 25  1  0  0  0  0
 27 29  1  0  0  0  0
 28 27  2  0  0  0  0
 29 25  1  0  0  0  0
 30 27  1  0  0  0  0
 30 31  2  0  0  0  0
 31 32  1  0  0  0  0
 32 26  1  0  0  0  0
 34 33  1  0  0  0  0
 35 34  1  0  0  0  0
 35 37  1  0  0  0  0
 36 35  1  0  0  0  0
 38 35  2  0  0  0  0
 39 41  1  0  0  0  0
 40 41  2  0  0  0  0
 43 41  1  1  0  0  0
 43 42  1  0  0  0  0
 46 44  1  6  0  0  0
 46 51  1  0  0  0  0
 47 45  1  0  0  0  0
 48 43  1  1  0  0  0
 48 46  1  0  0  0  0
 48 49  1  0  0  0  0
 49 47  1  0  0  0  0
 51 45  1  0  0  0  0
 51 50  1  6  0  0  0
 52 53  1  0  0  0  0
 52 42  1  0  0  0  0
 53 54  1  0  0  0  0
 55 58  1  6  0  0  0
 55 54  1  0  0  0  0
 55 56  1  0  0  0  0
 56 57  1  0  0  0  0
 58 59  1  0  0  0  0
 60 59  1  0  0  0  0
 61 60  1  0  0  0  0
 62 60  2  0  0  0  0
 63 64  1  0  0  0  0
 63 61  2  0  0  0  0
 64 62  1  0  0  0  0
 65 66  1  0  0  0  0
 65 63  1  0  0  0  0
M  END
>  <MODEL>
1

>  <REMARK>
 VINA RESULT:      -6.7      0.000      0.000
  Name = 
  26 active torsions:
  status: ('A' for Active; 'I' for Inactive)
    1  A    between atoms: C_2  and  O_50
    2  A    between atoms: C_3  and  O_65
    3  A    between atoms: C_4  and  C_36
    4  A    between atoms: C_4  and  C_48
    5  A    between atoms: C_5  and  C_7
    6  A    between atoms: C_5  and  C_21
    7  A    between atoms: P_10  and  O_55
    8  A    between atoms: C_11  and  N_44
    9  A    between atoms: C_12  and  C_54
   10  A    between atoms: C_18  and  C_53
   11  A    between atoms: C_21  and  C_53
   12  A    between atoms: C_28  and  C_49
   13  A    between atoms: C_30  and  C_47
   14  A    between atoms: C_30  and  O_55
   15  A    between atoms: C_31  and  C_60
   16  A    between atoms: C_32  and  N_43
   17  A    between atoms: C_33  and  C_54
   18  A    between atoms: C_36  and  C_53
   19  A    between atoms: C_37  and  C_42
   20  A    between atoms: C_37  and  O_50
   21  A    between atoms: S_38  and  C_48
   22  A    between atoms: C_40  and  C_57
   23  A    between atoms: C_40  and  C_59
   24  A    between atoms: C_42  and  C_45
   25  A    between atoms: C_57  and  O_65
   26  A    between atoms: N_58  and  C_59
                            x       y       z     vdW  Elec       q    Type
                         _______ _______ _______ _____ _____    ______ ____

>  <TORSDO>
F 26

$$$$
=
 OpenBabel11042409553D

 66 70  0  0  1  0  0  0  0  0999 V2000
  189.5530  177.4970  139.4930 C   0  0  0  0  0  2  0  0  0  0  0  0
  190.9340  177.6450  140.0860 C   0  0  2  0  0  3  0  0  0  0  0  0
  190.9890  175.8790  138.4060 C   0  0  2  0  0  3  0  0  0  0  0  0
  189.7680  176.7690  138.1880 C   0  0  0  0  0  2  0  0  0  0  0  0
  191.6840  176.4030  139.6570 C   0  0  0  0  0  2  0  0  0  0  0  0
  192.0490  174.9190  136.3240 C   0  0  0  0  0  0  0  0  0  0  0  0
  191.9060  175.9830  137.2830 N   0  0  0  0  0  2  0  0  0  0  0  0
  193.1400  174.8110  135.6000 N   0  0  0  0  0  0  0  0  0  0  0  0
  194.2690  175.7020  135.6390 C   0  0  0  0  0  0  0  0  0  0  0  0
  194.2080  176.8620  135.1370 O   0  0  0  0  0  0  0  0  0  0  0  0
  195.5000  175.2900  136.3790 C   0  0  0  0  0  2  0  0  0  0  0  0
  195.6620  173.7740  136.3800 C   0  0  0  0  0  2  0  0  0  0  0  0
  196.9550  173.4120  135.8930 O   0  0  0  0  0  0  0  0  0  0  0  0
  197.3740  172.0780  135.7960 C   0  0  0  0  0  0  0  0  0  0  0  0
  198.2970  171.6380  136.5280 O   0  0  0  0  0  1  0  0  0  0  0  0
  196.8010  171.2470  134.8430 O   0  0  0  0  0  0  0  0  0  0  0  0
  190.8590  173.1670  135.2070 C   0  0  0  0  0  3  0  0  0  0  0  0
  191.0220  173.9270  136.2380 N   0  0  0  0  0  0  0  0  0  0  0  0
  189.7730  172.1400  135.2390 C   0  0  0  0  0  2  0  0  0  0  0  0
  188.4140  172.7300  135.0450 C   0  0  0  0  0  0  0  0  0  0  0  0
  187.2170  172.1530  135.6280 C   0  0  0  0  0  3  0  0  0  0  0  0
  188.2170  173.9260  134.5950 N   0  0  0  0  0  0  0  0  0  0  0  0
  186.2730  173.0720  135.4810 C   0  0  0  0  0  0  0  0  0  0  0  0
  186.8030  174.2610  134.7420 C   0  0  1  0  0  3  0  0  0  0  0  0
  186.0310  177.6530  137.8390 C   0  0  0  0  0  2  0  0  0  0  0  0
  185.1800  176.4730  137.4310 C   0  0  0  0  0  2  0  0  0  0  0  0
  187.4660  177.8330  135.8190 C   0  0  0  0  0  0  0  0  0  0  0  0
  188.5670  178.4390  135.7070 O   0  0  0  0  0  0  0  0  0  0  0  0
  186.3640  178.4660  136.6160 C   0  0  0  0  0  2  0  0  0  0  0  0
  187.3140  176.5710  135.1590 N   0  0  0  0  0  0  0  0  0  0  0  0
  186.6220  175.5280  135.5290 C   0  0  0  0  0  0  0  0  0  0  0  0
  185.9940  175.4380  136.8200 N   0  0  0  0  0  2  0  0  0  0  0  0
  184.8550  172.8960  135.9310 C   0  0  0  0  0  2  0  0  0  0  0  0
  184.1260  172.2630  134.9330 O   0  0  0  0  0  0  0  0  0  0  0  0
  182.8600  171.4180  135.6850 P   0  0  0  0  0  0  0  0  0  0  0  0
  182.9180  169.9270  135.4190 O   0  0  0  0  0  1  0  0  0  0  0  0
  181.3720  172.0300  135.1580 O   0  0  0  0  0  0  0  0  0  0  0  0
  182.9730  171.6470  137.3640 O   0  0  0  0  0  1  0  0  0  0  0  0
  190.8740  177.7560  141.5070 O   0  0  0  0  0  0  0  0  0  0  0  0
  190.2860  175.5710  141.9920 O   0  0  0  0  0  0  0  0  0  0  0  0
  190.2140  176.8040  142.2820 C   0  0  0  0  0  0  0  0  0  0  0  0
  187.9120  176.9100  143.6710 S   0  0  0  0  0  0  0  0  0  0  0  0
  189.5030  177.2220  143.5130 C   0  0  1  0  0  3  0  0  0  0  0  0
  191.5350  175.8170  144.7650 O   0  0  0  0  0  1  0  0  0  0  0  0
  189.8500  176.8400  147.2100 C   0  0  0  0  0  2  0  0  0  0  0  0
  191.4520  177.1250  145.2720 C   0  0  1  0  0  3  0  0  0  0  0  0
  188.8710  177.7420  146.4410 C   0  0  0  0  0  2  0  0  0  0  0  0
  190.2920  177.9210  144.6010 C   0  0  2  0  0  3  0  0  0  0  0  0
  189.5000  178.6290  145.5420 O   0  0  0  0  0  0  0  0  0  0  0  0
  192.1470  176.1780  147.3940 O   0  0  0  0  0  1  0  0  0  0  0  0
  191.2930  177.1120  146.8030 C   0  0  2  0  0  3  0  0  0  0  0  0
  187.1650  177.7360  142.2590 C   0  0  0  0  0  2  0  0  0  0  0  0
  186.0740  178.6650  142.7640 C   0  0  0  0  0  2  0  0  0  0  0  0
  184.6860  178.0460  142.6770 C   0  0  0  0  0  2  0  0  0  0  0  0
  183.5440  179.0650  142.5510 C   0  0  2  0  0  3  0  0  0  0  0  0
  182.9480  179.3880  143.9060 C   0  0  0  0  0  2  0  0  0  0  0  0
  181.9020  178.3550  144.2740 C   0  0  0  0  0  1  0  0  0  0  0  0
  182.4500  178.5160  141.6380 C   0  0  0  0  0  2  0  0  0  0  0  0
  182.9450  178.1970  140.2350 C   0  0  0  0  0  2  0  0  0  0  0  0
  181.9140  177.3820  139.5350 C   0  0  0  0  0  0  0  0  0  0  0  0
  181.2470  176.3670  140.0970 N   0  0  0  0  0  0  0  0  0  0  0  0
  181.5730  177.5080  138.2060 C   0  0  0  0  0  3  0  0  0  0  0  0
  180.5000  175.8910  139.0860 C   0  0  0  0  0  0  0  0  0  0  0  0
  180.6820  176.5400  137.9280 N   0  0  0  0  0  2  0  0  0  0  0  0
  179.6760  174.6610  139.2100 C   0  0  0  0  0  2  0  0  0  0  0  0
  180.0630  173.6460  138.1510 C   0  0  0  0  0  1  0  0  0  0  0  0
  1  2  1  0  0  0  0
  2 39  1  1  0  0  0
  3  7  1  6  0  0  0
  3  5  1  0  0  0  0
  4  3  1  0  0  0  0
  4  1  1  0  0  0  0
  5  2  1  0  0  0  0
  6  7  1  0  0  0  0
  8  9  1  0  0  0  0
  8  6  2  0  0  0  0
  9 11  1  0  0  0  0
 10  9  2  0  0  0  0
 11 12  1  0  0  0  0
 13 12  1  0  0  0  0
 14 13  1  0  0  0  0
 14 15  1  0  0  0  0
 16 14  2  0  0  0  0
 17 19  1  0  0  0  0
 17 18  2  0  0  0  0
 18  6  1  0  0  0  0
 20 19  1  0  0  0  0
 20 21  1  0  0  0  0
 22 24  1  0  0  0  0
 22 20  2  0  0  0  0
 23 21  2  0  0  0  0
 23 33  1  0  0  0  0
 24 23  1  0  0  0  0
 24 31  1  1  0  0  0
 26 25  1  0  0  0  0
 27 29  1  0  0  0  0
 28 27  2  0  0  0  0
 29 25  1  0  0  0  0
 30 31  2  0  0  0  0
 30 27  1  0  0  0  0
 31 32  1  0  0  0  0
 32 26  1  0  0  0  0
 34 35  1  0  0  0  0
 34 33  1  0  0  0  0
 35 38  1  0  0  0  0
 36 35  1  0  0  0  0
 37 35  2  0  0  0  0
 39 41  1  0  0  0  0
 40 41  2  0  0  0  0
 43 41  1  1  0  0  0
 43 42  1  0  0  0  0
 46 44  1  6  0  0  0
 46 51  1  0  0  0  0
 47 45  1  0  0  0  0
 48 43  1  1  0  0  0
 48 46  1  0  0  0  0
 48 49  1  0  0  0  0
 49 47  1  0  0  0  0
 51 45  1  0  0  0  0
 51 50  1  1  0  0  0
 52 53  1  0  0  0  0
 52 42  1  0  0  0  0
 54 53  1  0  0  0  0
 55 58  1  6  0  0  0
 55 54  1  0  0  0  0
 55 56  1  0  0  0  0
 56 57  1  0  0  0  0
 59 58  1  0  0  0  0
 60 61  1  0  0  0  0
 60 59  1  0  0  0  0
 62 60  2  0  0  0  0
 63 65  1  0  0  0  0
 63 61  2  0  0  0  0
 64 62  1  0  0  0  0
 64 63  1  0  0  0  0
 66 65  1  0  0  0  0
M  END
>  <MODEL>
2

>  <REMARK>
 VINA RESULT:      -6.3      1.456      2.102
  Name = 
  26 active torsions:
  status: ('A' for Active; 'I' for Inactive)
    1  A    between atoms: C_2  and  O_50
    2  A    between atoms: C_3  and  O_65
    3  A    between atoms: C_4  and  C_36
    4  A    between atoms: C_4  and  C_48
    5  A    between atoms: C_5  and  C_7
    6  A    between atoms: C_5  and  C_21
    7  A    between atoms: P_10  and  O_55
    8  A    between atoms: C_11  and  N_44
    9  A    between atoms: C_12  and  C_54
   10  A    between atoms: C_18  and  C_53
   11  A    between atoms: C_21  and  C_53
   12  A    between atoms: C_28  and  C_49
   13  A    between atoms: C_30  and  C_47
   14  A    between atoms: C_30  and  O_55
   15  A    between atoms: C_31  and  C_60
   16  A    between atoms: C_32  and  N_43
   17  A    between atoms: C_33  and  C_54
   18  A    between atoms: C_36  and  C_53
   19  A    between atoms: C_37  and  C_42
   20  A    between atoms: C_37  and  O_50
   21  A    between atoms: S_38  and  C_48
   22  A    between atoms: C_40  and  C_57
   23  A    between atoms: C_40  and  C_59
   24  A    between atoms: C_42  and  C_45
   25  A    between atoms: C_57  and  O_65
   26  A    between atoms: N_58  and  C_59
                            x       y       z     vdW  Elec       q    Type
                         _______ _______ _______ _____ _____    ______ ____

>  <TORSDO>
F 26

$$$$
=
 OpenBabel11042409553D

 66 70  0  0  1  0  0  0  0  0999 V2000
  188.9460  176.5420  135.8520 C   0  0  0  0  0  2  0  0  0  0  0  0
  188.6960  176.2410  137.3100 C   0  0  2  0  0  3  0  0  0  0  0  0
  190.2750  174.6040  136.4320 C   0  0  2  0  0  3  0  0  0  0  0  0
  190.2370  175.8320  135.5260 C   0  0  0  0  0  2  0  0  0  0  0  0
  189.2400  174.8460  137.5240 C   0  0  0  0  0  2  0  0  0  0  0  0
  192.0590  175.4050  138.0310 C   0  0  0  0  0  0  0  0  0  0  0  0
  191.5830  174.4650  137.0500 N   0  0  0  0  0  2  0  0  0  0  0  0
  193.3460  175.5460  138.2560 N   0  0  0  0  0  0  0  0  0  0  0  0
  194.4000  174.8100  137.6110 C   0  0  0  0  0  0  0  0  0  0  0  0
  194.8060  173.7040  138.0740 O   0  0  0  0  0  0  0  0  0  0  0  0
  194.9510  175.3070  136.3140 C   0  0  0  0  0  2  0  0  0  0  0  0
  195.6900  174.2010  135.5680 C   0  0  0  0  0  2  0  0  0  0  0  0
  197.0860  174.4960  135.4960 O   0  0  0  0  0  0  0  0  0  0  0  0
  197.9190  174.4550  136.6220 C   0  0  0  0  0  0  0  0  0  0  0  0
  198.6000  173.4300  136.8830 O   0  0  0  0  0  0  0  0  0  0  0  0
  197.9520  175.5370  137.4910 O   0  0  0  0  0  1  0  0  0  0  0  0
  191.4260  177.0350  139.6670 C   0  0  0  0  0  3  0  0  0  0  0  0
  191.1110  176.2470  138.6940 N   0  0  0  0  0  0  0  0  0  0  0  0
  190.3590  177.8970  140.2640 C   0  0  0  0  0  2  0  0  0  0  0  0
  189.7350  177.2870  141.4760 C   0  0  0  0  0  0  0  0  0  0  0  0
  190.4070  177.2290  142.7610 C   0  0  0  0  0  3  0  0  0  0  0  0
  188.4730  177.0190  141.5660 N   0  0  0  0  0  0  0  0  0  0  0  0
  189.4700  176.8860  143.6350 C   0  0  0  0  0  0  0  0  0  0  0  0
  188.1640  176.6470  142.9440 C   0  0  1  0  0  3  0  0  0  0  0  0
  184.4030  179.2160  143.9200 C   0  0  0  0  0  2  0  0  0  0  0  0
  185.3580  179.2640  142.7500 C   0  0  0  0  0  2  0  0  0  0  0  0
  185.8630  178.0910  145.5860 C   0  0  0  0  0  0  0  0  0  0  0  0
  185.5130  177.5090  146.6490 O   0  0  0  0  0  0  0  0  0  0  0  0
  185.1830  179.3710  145.1980 C   0  0  0  0  0  2  0  0  0  0  0  0
  186.9130  177.5090  144.8060 N   0  0  0  0  0  0  0  0  0  0  0  0
  187.0730  177.5110  143.5100 C   0  0  0  0  0  0  0  0  0  0  0  0
  186.0650  178.0040  142.6100 N   0  0  0  0  0  2  0  0  0  0  0  0
  189.7210  176.6930  145.0990 C   0  0  0  0  0  2  0  0  0  0  0  0
  189.7300  177.9280  145.7360 O   0  0  0  0  0  0  0  0  0  0  0  0
  189.5810  177.6430  147.4020 P   0  0  0  0  0  0  0  0  0  0  0  0
  189.0150  178.8360  148.1480 O   0  0  0  0  0  1  0  0  0  0  0  0
  191.0920  177.2370  148.0500 O   0  0  0  0  0  1  0  0  0  0  0  0
  188.5230  176.3370  147.6400 O   0  0  0  0  0  0  0  0  0  0  0  0
  187.3040  176.3140  137.6180 O   0  0  0  0  0  0  0  0  0  0  0  0
  186.6830  178.1020  136.2880 O   0  0  0  0  0  0  0  0  0  0  0  0
  186.4070  176.9620  136.7720 C   0  0  0  0  0  0  0  0  0  0  0  0
  183.7230  177.0000  136.5830 S   0  0  0  0  0  0  0  0  0  0  0  0
  185.1640  176.2750  136.3520 C   0  0  1  0  0  3  0  0  0  0  0  0
  183.0270  175.3650  134.8420 O   0  0  0  0  0  1  0  0  0  0  0  0
  183.5030  172.9630  136.8070 C   0  0  0  0  0  2  0  0  0  0  0  0
  184.0760  174.4310  134.8290 C   0  0  1  0  0  3  0  0  0  0  0  0
  184.7950  173.4710  137.4690 C   0  0  0  0  0  2  0  0  0  0  0  0
  185.2760  174.9120  135.7000 C   0  0  2  0  0  3  0  0  0  0  0  0
  185.7770  173.8910  136.5480 O   0  0  0  0  0  0  0  0  0  0  0  0
  182.3510  172.7300  134.7180 O   0  0  0  0  0  1  0  0  0  0  0  0
  183.5860  173.0470  135.2890 C   0  0  2  0  0  3  0  0  0  0  0  0
  183.6610  177.2820  138.3580 C   0  0  0  0  0  2  0  0  0  0  0  0
  182.3680  178.0120  138.6860 C   0  0  0  0  0  2  0  0  0  0  0  0
  182.5640  179.5140  138.8410 C   0  0  0  0  0  2  0  0  0  0  0  0
  181.2780  180.3400  138.6910 C   0  0  2  0  0  3  0  0  0  0  0  0
  180.5340  180.4380  140.0080 C   0  0  0  0  0  2  0  0  0  0  0  0
  179.6650  179.2120  140.2060 C   0  0  0  0  0  1  0  0  0  0  0  0
  180.3660  179.7050  137.6450 C   0  0  0  0  0  2  0  0  0  0  0  0
  180.9100  179.8180  136.2280 C   0  0  0  0  0  2  0  0  0  0  0  0
  180.6550  181.1950  135.7220 C   0  0  0  0  0  0  0  0  0  0  0  0
  181.1620  182.3050  136.2720 N   0  0  0  0  0  0  0  0  0  0  0  0
  179.8060  181.5130  134.6850 C   0  0  0  0  0  3  0  0  0  0  0  0
  180.6070  183.2900  135.5450 C   0  0  0  0  0  0  0  0  0  0  0  0
  179.7710  182.8540  134.5940 N   0  0  0  0  0  2  0  0  0  0  0  0
  180.7820  184.7270  135.8790 C   0  0  0  0  0  2  0  0  0  0  0  0
  180.1230  185.0560  137.2040 C   0  0  0  0  0  1  0  0  0  0  0  0
  1  2  1  0  0  0  0
  2  5  1  0  0  0  0
  2 39  1  6  0  0  0
  3  7  1  1  0  0  0
  3  5  1  0  0  0  0
  4  1  1  0  0  0  0
  4  3  1  0  0  0  0
  6  8  2  0  0  0  0
  6 18  1  0  0  0  0
  7  6  1  0  0  0  0
  9 10  2  0  0  0  0
  9  8  1  0  0  0  0
 11  9  1  0  0  0  0
 12 11  1  0  0  0  0
 13 12  1  0  0  0  0
 13 14  1  0  0  0  0
 14 15  2  0  0  0  0
 14 16  1  0  0  0  0
 17 19  1  0  0  0  0
 18 17  2  0  0  0  0
 19 20  1  0  0  0  0
 20 22  2  0  0  0  0
 20 21  1  0  0  0  0
 21 23  2  0  0  0  0
 22 24  1  0  0  0  0
 23 33  1  0  0  0  0
 24 31  1  1  0  0  0
 24 23  1  0  0  0  0
 25 29  1  0  0  0  0
 26 25  1  0  0  0  0
 27 28  2  0  0  0  0
 29 27  1  0  0  0  0
 30 27  1  0  0  0  0
 31 30  2  0  0  0  0
 32 26  1  0  0  0  0
 32 31  1  0  0  0  0
 33 34  1  0  0  0  0
 34 35  1  0  0  0  0
 35 38  2  0  0  0  0
 35 37  1  0  0  0  0
 35 36  1  0  0  0  0
 40 41  2  0  0  0  0
 41 39  1  0  0  0  0
 42 52  1  0  0  0  0
 43 42  1  6  0  0  0
 43 41  1  0  0  0  0
 45 47  1  0  0  0  0
 46 44  1  1  0  0  0
 46 51  1  0  0  0  0
 46 48  1  0  0  0  0
 48 43  1  1  0  0  0
 48 49  1  0  0  0  0
 49 47  1  0  0  0  0
 51 50  1  6  0  0  0
 51 45  1  0  0  0  0
 52 53  1  0  0  0  0
 53 54  1  0  0  0  0
 55 58  1  6  0  0  0
 55 54  1  0  0  0  0
 55 56  1  0  0  0  0
 56 57  1  0  0  0  0
 59 58  1  0  0  0  0
 60 59  1  0  0  0  0
 60 61  1  0  0  0  0
 62 60  2  0  0  0  0
 63 65  1  0  0  0  0
 63 61  2  0  0  0  0
 64 62  1  0  0  0  0
 64 63  1  0  0  0  0
 65 66  1  0  0  0  0
M  END
>  <MODEL>
3

>  <REMARK>
 VINA RESULT:      -6.0      3.149      8.018
  Name = 
  26 active torsions:
  status: ('A' for Active; 'I' for Inactive)
    1  A    between atoms: C_2  and  O_50
    2  A    between atoms: C_3  and  O_65
    3  A    between atoms: C_4  and  C_36
    4  A    between atoms: C_4  and  C_48
    5  A    between atoms: C_5  and  C_7
    6  A    between atoms: C_5  and  C_21
    7  A    between atoms: P_10  and  O_55
    8  A    between atoms: C_11  and  N_44
    9  A    between atoms: C_12  and  C_54
   10  A    between atoms: C_18  and  C_53
   11  A    between atoms: C_21  and  C_53
   12  A    between atoms: C_28  and  C_49
   13  A    between atoms: C_30  and  C_47
   14  A    between atoms: C_30  and  O_55
   15  A    between atoms: C_31  and  C_60
   16  A    between atoms: C_32  and  N_43
   17  A    between atoms: C_33  and  C_54
   18  A    between atoms: C_36  and  C_53
   19  A    between atoms: C_37  and  C_42
   20  A    between atoms: C_37  and  O_50
   21  A    between atoms: S_38  and  C_48
   22  A    between atoms: C_40  and  C_57
   23  A    between atoms: C_40  and  C_59
   24  A    between atoms: C_42  and  C_45
   25  A    between atoms: C_57  and  O_65
   26  A    between atoms: N_58  and  C_59
                            x       y       z     vdW  Elec       q    Type
                         _______ _______ _______ _____ _____    ______ ____

>  <TORSDO>
F 26

$$$$
=
 OpenBabel11042409553D

 66 70  0  0  1  0  0  0  0  0999 V2000
  185.5860  178.3020  141.3960 C   0  0  0  0  0  2  0  0  0  0  0  0
  185.5220  178.7880  139.9670 C   0  0  2  0  0  3  0  0  0  0  0  0
  183.5110  177.4960  140.4450 C   0  0  2  0  0  3  0  0  0  0  0  0
  184.1610  177.9510  141.7490 C   0  0  0  0  0  2  0  0  0  0  0  0
  184.4230  177.9750  139.3220 C   0  0  0  0  0  2  0  0  0  0  0  0
  181.8150  178.7400  139.0460 C   0  0  0  0  0  0  0  0  0  0  0  0
  182.2040  178.1140  140.2820 N   0  0  0  0  0  2  0  0  0  0  0  0
  180.8670  179.6500  139.0260 N   0  0  0  0  0  0  0  0  0  0  0  0
  180.1110  180.1060  140.1620 C   0  0  0  0  0  0  0  0  0  0  0  0
  180.0070  179.3990  141.2070 O   0  0  0  0  0  0  0  0  0  0  0  0
  179.5270  181.4810  140.1480 C   0  0  0  0  0  2  0  0  0  0  0  0
  179.5500  182.0770  138.7450 C   0  0  0  0  0  2  0  0  0  0  0  0
  180.8390  182.6190  138.4550 O   0  0  0  0  0  0  0  0  0  0  0  0
  181.0740  183.4450  137.3480 C   0  0  0  0  0  0  0  0  0  0  0  0
  180.7650  183.0690  136.1870 O   0  0  0  0  0  0  0  0  0  0  0  0
  181.7040  184.6680  137.5260 O   0  0  0  0  0  1  0  0  0  0  0  0
  181.9640  178.1340  136.7340 C   0  0  0  0  0  3  0  0  0  0  0  0
  182.5390  178.4220  137.8540 N   0  0  0  0  0  0  0  0  0  0  0  0
  182.8200  177.8490  135.5420 C   0  0  0  0  0  2  0  0  0  0  0  0
  182.7000  176.4380  135.0680 C   0  0  0  0  0  0  0  0  0  0  0  0
  183.7930  175.4880  135.1460 C   0  0  0  0  0  3  0  0  0  0  0  0
  181.5670  175.8690  134.8150 N   0  0  0  0  0  0  0  0  0  0  0  0
  183.2500  174.3030  134.9010 C   0  0  0  0  0  0  0  0  0  0  0  0
  181.7920  174.4420  134.5940 C   0  0  1  0  0  3  0  0  0  0  0  0
  179.5770  171.1800  137.0740 C   0  0  0  0  0  2  0  0  0  0  0  0
  179.7660  171.3310  135.5820 C   0  0  0  0  0  2  0  0  0  0  0  0
  179.9250  173.5410  137.7660 C   0  0  0  0  0  0  0  0  0  0  0  0
  180.1900  173.9740  138.9200 O   0  0  0  0  0  0  0  0  0  0  0  0
  178.9310  172.4260  137.6170 C   0  0  0  0  0  2  0  0  0  0  0  0
  180.5730  174.1500  136.6440 N   0  0  0  0  0  0  0  0  0  0  0  0
  180.9500  173.6080  135.5180 C   0  0  0  0  0  0  0  0  0  0  0  0
  180.9000  172.1880  135.2910 N   0  0  0  0  0  2  0  0  0  0  0  0
  184.0220  173.0190  134.8650 C   0  0  0  0  0  2  0  0  0  0  0  0
  184.3900  172.6620  136.1560 O   0  0  0  0  0  0  0  0  0  0  0  0
  186.0500  172.3100  136.1330 P   0  0  0  0  0  0  0  0  0  0  0  0
  186.7660  172.8070  137.3740 O   0  0  0  0  0  1  0  0  0  0  0  0
  186.7610  172.9950  134.7580 O   0  0  0  0  0  0  0  0  0  0  0  0
  186.2500  170.6250  136.0620 O   0  0  0  0  0  1  0  0  0  0  0  0
  186.7720  178.6000  139.3050 O   0  0  0  0  0  0  0  0  0  0  0  0
  188.1700  179.5170  140.9040 O   0  0  0  0  0  0  0  0  0  0  0  0
  187.9770  178.6450  140.0030 C   0  0  0  0  0  0  0  0  0  0  0  0
  189.4280  176.5950  140.9680 S   0  0  0  0  0  0  0  0  0  0  0  0
  189.0060  177.6060  139.7630 C   0  0  1  0  0  3  0  0  0  0  0  0
  188.0270  175.6910  138.0180 O   0  0  0  0  0  1  0  0  0  0  0  0
  191.1110  175.1030  137.9640 C   0  0  0  0  0  2  0  0  0  0  0  0
  189.0410  176.4460  137.4060 C   0  0  1  0  0  3  0  0  0  0  0  0
  191.5790  176.3050  138.8010 C   0  0  0  0  0  2  0  0  0  0  0  0
  189.6270  177.5090  138.3840 C   0  0  2  0  0  3  0  0  0  0  0  0
  191.0450  177.5380  138.3720 O   0  0  0  0  0  0  0  0  0  0  0  0
  189.6210  174.4130  136.2170 O   0  0  0  0  0  1  0  0  0  0  0  0
  190.1530  175.5330  136.8600 C   0  0  2  0  0  3  0  0  0  0  0  0
  190.0020  177.6920  142.2730 C   0  0  0  0  0  2  0  0  0  0  0  0
  189.4110  177.2230  143.5930 C   0  0  0  0  0  2  0  0  0  0  0  0
  189.7340  178.1600  144.7480 C   0  0  0  0  0  2  0  0  0  0  0  0
  189.8370  177.4690  146.1150 C   0  0  2  0  0  3  0  0  0  0  0  0
  190.5430  176.1330  146.0010 C   0  0  0  0  0  2  0  0  0  0  0  0
  191.9650  176.2510  146.5120 C   0  0  0  0  0  1  0  0  0  0  0  0
  188.4440  177.2520  146.7010 C   0  0  0  0  0  2  0  0  0  0  0  0
  187.7720  178.5450  147.1430 C   0  0  0  0  0  2  0  0  0  0  0  0
  186.3990  178.5950  146.5690 C   0  0  0  0  0  0  0  0  0  0  0  0
  186.0680  179.2820  145.4680 N   0  0  0  0  0  0  0  0  0  0  0  0
  185.2830  178.0170  147.1340 C   0  0  0  0  0  3  0  0  0  0  0  0
  184.7390  179.1020  145.3820 C   0  0  0  0  0  0  0  0  0  0  0  0
  184.2280  178.3630  146.3760 N   0  0  0  0  0  2  0  0  0  0  0  0
  183.9020  179.7950  144.3700 C   0  0  0  0  0  2  0  0  0  0  0  0
  182.4850  179.2540  144.3800 C   0  0  0  0  0  1  0  0  0  0  0  0
  1  4  1  0  0  0  0
  2 39  1  6  0  0  0
  2  1  1  0  0  0  0
  3  7  1  6  0  0  0
  3  4  1  0  0  0  0
  5  2  1  0  0  0  0
  5  3  1  0  0  0  0
  6  7  1  0  0  0  0
  8  6  2  0  0  0  0
  8  9  1  0  0  0  0
  9 10  2  0  0  0  0
 11  9  1  0  0  0  0
 12 11  1  0  0  0  0
 13 12  1  0  0  0  0
 14 16  1  0  0  0  0
 14 13  1  0  0  0  0
 15 14  2  0  0  0  0
 17 18  2  0  0  0  0
 18  6  1  0  0  0  0
 19 17  1  0  0  0  0
 20 21  1  0  0  0  0
 20 19  1  0  0  0  0
 22 20  2  0  0  0  0
 23 21  2  0  0  0  0
 24 22  1  0  0  0  0
 24 23  1  0  0  0  0
 24 31  1  1  0  0  0
 25 29  1  0  0  0  0
 26 25  1  0  0  0  0
 27 28  2  0  0  0  0
 29 27  1  0  0  0  0
 30 27  1  0  0  0  0
 31 30  2  0  0  0  0
 32 31  1  0  0  0  0
 32 26  1  0  0  0  0
 33 23  1  0  0  0  0
 33 34  1  0  0  0  0
 35 34  1  0  0  0  0
 35 36  1  0  0  0  0
 37 35  2  0  0  0  0
 38 35  1  0  0  0  0
 39 41  1  0  0  0  0
 41 40  2  0  0  0  0
 42 52  1  0  0  0  0
 43 41  1  6  0  0  0
 43 42  1  0  0  0  0
 45 47  1  0  0  0  0
 46 44  1  1  0  0  0
 46 48  1  0  0  0  0
 48 43  1  1  0  0  0
 49 48  1  0  0  0  0
 49 47  1  0  0  0  0
 51 50  1  1  0  0  0
 51 46  1  0  0  0  0
 51 45  1  0  0  0  0
 52 53  1  0  0  0  0
 53 54  1  0  0  0  0
 55 54  1  6  0  0  0
 55 58  1  0  0  0  0
 56 55  1  0  0  0  0
 56 57  1  0  0  0  0
 58 59  1  0  0  0  0
 60 62  2  0  0  0  0
 60 59  1  0  0  0  0
 61 60  1  0  0  0  0
 63 61  2  0  0  0  0
 63 64  1  0  0  0  0
 64 62  1  0  0  0  0
 65 66  1  0  0  0  0
 65 63  1  0  0  0  0
M  END
>  <MODEL>
4

>  <REMARK>
 VINA RESULT:      -5.6      4.147      9.427
  Name = 
  26 active torsions:
  status: ('A' for Active; 'I' for Inactive)
    1  A    between atoms: C_2  and  O_50
    2  A    between atoms: C_3  and  O_65
    3  A    between atoms: C_4  and  C_36
    4  A    between atoms: C_4  and  C_48
    5  A    between atoms: C_5  and  C_7
    6  A    between atoms: C_5  and  C_21
    7  A    between atoms: P_10  and  O_55
    8  A    between atoms: C_11  and  N_44
    9  A    between atoms: C_12  and  C_54
   10  A    between atoms: C_18  and  C_53
   11  A    between atoms: C_21  and  C_53
   12  A    between atoms: C_28  and  C_49
   13  A    between atoms: C_30  and  C_47
   14  A    between atoms: C_30  and  O_55
   15  A    between atoms: C_31  and  C_60
   16  A    between atoms: C_32  and  N_43
   17  A    between atoms: C_33  and  C_54
   18  A    between atoms: C_36  and  C_53
   19  A    between atoms: C_37  and  C_42
   20  A    between atoms: C_37  and  O_50
   21  A    between atoms: S_38  and  C_48
   22  A    between atoms: C_40  and  C_57
   23  A    between atoms: C_40  and  C_59
   24  A    between atoms: C_42  and  C_45
   25  A    between atoms: C_57  and  O_65
   26  A    between atoms: N_58  and  C_59
                            x       y       z     vdW  Elec       q    Type
                         _______ _______ _______ _____ _____    ______ ____

>  <TORSDO>
F 26

$$$$
=
 OpenBabel11042409553D

 66 70  0  0  1  0  0  0  0  0999 V2000
  189.7460  176.4830  135.5560 C   0  0  0  0  0  2  0  0  0  0  0  0
  189.3690  176.0060  136.9390 C   0  0  2  0  0  3  0  0  0  0  0  0
  191.1730  174.6020  136.0920 C   0  0  2  0  0  3  0  0  0  0  0  0
  191.1230  175.9140  135.3130 C   0  0  0  0  0  2  0  0  0  0  0  0
  190.0100  174.6430  137.0750 C   0  0  0  0  0  2  0  0  0  0  0  0
  192.7280  175.4060  137.9130 C   0  0  0  0  0  0  0  0  0  0  0  0
  192.4160  174.4990  136.8400 N   0  0  0  0  0  2  0  0  0  0  0  0
  193.9730  175.6040  138.2830 N   0  0  0  0  0  0  0  0  0  0  0  0
  195.1320  174.9640  137.7190 C   0  0  0  0  0  0  0  0  0  0  0  0
  195.7170  175.4420  136.7050 O   0  0  0  0  0  0  0  0  0  0  0  0
  195.7150  173.7730  138.4070 C   0  0  0  0  0  2  0  0  0  0  0  0
  194.9750  172.4960  138.0260 C   0  0  0  0  0  2  0  0  0  0  0  0
  195.7200  171.7610  137.0530 O   0  0  0  0  0  0  0  0  0  0  0  0
  195.3730  171.7510  135.6950 C   0  0  0  0  0  0  0  0  0  0  0  0
  196.0140  172.4430  134.8620 O   0  0  0  0  0  0  0  0  0  0  0  0
  194.2760  171.0140  135.2720 O   0  0  0  0  0  1  0  0  0  0  0  0
  191.8680  177.1520  139.3080 C   0  0  0  0  0  3  0  0  0  0  0  0
  191.6670  176.1570  138.5110 N   0  0  0  0  0  0  0  0  0  0  0  0
  190.6830  177.8870  139.8490 C   0  0  0  0  0  2  0  0  0  0  0  0
  190.2890  177.4230  141.2130 C   0  0  0  0  0  0  0  0  0  0  0  0
  190.9360  177.8980  142.4220 C   0  0  0  0  0  3  0  0  0  0  0  0
  189.1850  176.7950  141.4570 N   0  0  0  0  0  0  0  0  0  0  0  0
  190.1600  177.4960  143.4200 C   0  0  0  0  0  0  0  0  0  0  0  0
  189.0090  176.6900  142.9040 C   0  0  1  0  0  3  0  0  0  0  0  0
  185.3220  178.6060  145.0090 C   0  0  0  0  0  2  0  0  0  0  0  0
  186.2220  177.4680  145.4310 C   0  0  0  0  0  2  0  0  0  0  0  0
  185.7270  178.5530  142.5580 C   0  0  0  0  0  0  0  0  0  0  0  0
  185.4860  179.4610  141.7170 O   0  0  0  0  0  0  0  0  0  0  0  0
  184.7380  178.2950  143.6570 C   0  0  0  0  0  2  0  0  0  0  0  0
  186.9310  177.7910  142.4120 N   0  0  0  0  0  0  0  0  0  0  0  0
  187.6920  177.2690  143.3350 C   0  0  0  0  0  0  0  0  0  0  0  0
  187.4940  177.5330  144.7360 N   0  0  0  0  0  2  0  0  0  0  0  0
  190.4540  177.7560  144.8660 C   0  0  0  0  0  2  0  0  0  0  0  0
  190.4840  176.5510  145.5580 O   0  0  0  0  0  0  0  0  0  0  0  0
  190.2400  176.9010  147.2010 P   0  0  0  0  0  0  0  0  0  0  0  0
  189.0450  176.1700  147.7790 O   0  0  0  0  0  1  0  0  0  0  0  0
  190.0360  178.5690  147.4050 O   0  0  0  0  0  0  0  0  0  0  0  0
  191.6140  176.4150  148.0720 O   0  0  0  0  0  1  0  0  0  0  0  0
  187.9520  175.9360  137.0890 O   0  0  0  0  0  0  0  0  0  0  0  0
  187.4010  177.9770  136.1480 O   0  0  0  0  0  0  0  0  0  0  0  0
  187.1030  176.7610  136.3540 C   0  0  0  0  0  0  0  0  0  0  0  0
  184.4870  177.0170  135.7790 S   0  0  0  0  0  0  0  0  0  0  0  0
  185.8900  176.1920  135.7210 C   0  0  1  0  0  3  0  0  0  0  0  0
  183.5520  174.8960  134.9980 O   0  0  0  0  0  1  0  0  0  0  0  0
  185.0690  172.6570  136.5940 C   0  0  0  0  0  2  0  0  0  0  0  0
  184.6750  174.1540  134.5940 C   0  0  1  0  0  3  0  0  0  0  0  0
  186.4040  173.3940  136.7940 C   0  0  0  0  0  2  0  0  0  0  0  0
  186.0010  174.8530  135.0210 C   0  0  2  0  0  3  0  0  0  0  0  0
  186.9260  173.9530  135.6100 O   0  0  0  0  0  0  0  0  0  0  0  0
  183.3280  172.1820  135.0160 O   0  0  0  0  0  1  0  0  0  0  0  0
  184.6120  172.7180  135.1420 C   0  0  2  0  0  3  0  0  0  0  0  0
  184.1800  177.2290  137.5380 C   0  0  0  0  0  2  0  0  0  0  0  0
  182.7470  177.6980  137.7260 C   0  0  0  0  0  2  0  0  0  0  0  0
  181.9440  177.6720  136.4320 C   0  0  0  0  0  2  0  0  0  0  0  0
  180.5010  178.1760  136.5710 C   0  0  2  0  0  3  0  0  0  0  0  0
  180.1420  179.1230  135.4440 C   0  0  0  0  0  2  0  0  0  0  0  0
  180.4570  180.5510  135.8450 C   0  0  0  0  0  1  0  0  0  0  0  0
  180.3220  178.8940  137.9070 C   0  0  0  0  0  2  0  0  0  0  0  0
  179.6560  178.0270  138.9670 C   0  0  0  0  0  2  0  0  0  0  0  0
  180.2560  178.3440  140.2930 C   0  0  0  0  0  0  0  0  0  0  0  0
  179.7320  177.9660  141.4650 N   0  0  0  0  0  0  0  0  0  0  0  0
  181.3700  179.1310  140.4900 C   0  0  0  0  0  3  0  0  0  0  0  0
  180.5520  178.5340  142.3660 C   0  0  0  0  0  0  0  0  0  0  0  0
  181.5380  179.2580  141.8180 N   0  0  0  0  0  2  0  0  0  0  0  0
  180.2880  178.4930  143.8270 C   0  0  0  0  0  2  0  0  0  0  0  0
  178.9310  179.0920  144.1450 C   0  0  0  0  0  1  0  0  0  0  0  0
  1  2  1  0  0  0  0
  2  5  1  0  0  0  0
  2 39  1  6  0  0  0
  3  7  1  1  0  0  0
  3  5  1  0  0  0  0
  4  1  1  0  0  0  0
  4  3  1  0  0  0  0
  6  8  2  0  0  0  0
  6 18  1  0  0  0  0
  7  6  1  0  0  0  0
  9  8  1  0  0  0  0
  9 11  1  0  0  0  0
 10  9  2  0  0  0  0
 12 11  1  0  0  0  0
 13 12  1  0  0  0  0
 14 13  1  0  0  0  0
 15 14  2  0  0  0  0
 16 14  1  0  0  0  0
 17 19  1  0  0  0  0
 18 17  2  0  0  0  0
 19 20  1  0  0  0  0
 20 22  2  0  0  0  0
 20 21  1  0  0  0  0
 21 23  2  0  0  0  0
 22 24  1  0  0  0  0
 23 33  1  0  0  0  0
 24 31  1  6  0  0  0
 24 23  1  0  0  0  0
 25 26  1  0  0  0  0
 27 29  1  0  0  0  0
 28 27  2  0  0  0  0
 29 25  1  0  0  0  0
 30 27  1  0  0  0  0
 30 31  2  0  0  0  0
 31 32  1  0  0  0  0
 32 26  1  0  0  0  0
 33 34  1  0  0  0  0
 34 35  1  0  0  0  0
 35 37  2  0  0  0  0
 35 36  1  0  0  0  0
 35 38  1  0  0  0  0
 40 41  2  0  0  0  0
 41 39  1  0  0  0  0
 42 52  1  0  0  0  0
 43 42  1  6  0  0  0
 43 41  1  0  0  0  0
 45 47  1  0  0  0  0
 46 44  1  1  0  0  0
 46 48  1  0  0  0  0
 46 51  1  0  0  0  0
 48 49  1  0  0  0  0
 48 43  1  1  0  0  0
 49 47  1  0  0  0  0
 51 50  1  1  0  0  0
 51 45  1  0  0  0  0
 52 53  1  0  0  0  0
 54 55  1  0  0  0  0
 54 53  1  0  0  0  0
 55 56  1  6  0  0  0
 55 58  1  0  0  0  0
 56 57  1  0  0  0  0
 58 59  1  0  0  0  0
 59 60  1  0  0  0  0
 60 62  2  0  0  0  0
 60 61  1  0  0  0  0
 61 63  2  0  0  0  0
 62 64  1  0  0  0  0
 63 65  1  0  0  0  0
 64 63  1  0  0  0  0
 65 66  1  0  0  0  0
M  END
>  <MODEL>
5

>  <REMARK>
 VINA RESULT:      -5.5      3.268      8.165
  Name = 
  26 active torsions:
  status: ('A' for Active; 'I' for Inactive)
    1  A    between atoms: C_2  and  O_50
    2  A    between atoms: C_3  and  O_65
    3  A    between atoms: C_4  and  C_36
    4  A    between atoms: C_4  and  C_48
    5  A    between atoms: C_5  and  C_7
    6  A    between atoms: C_5  and  C_21
    7  A    between atoms: P_10  and  O_55
    8  A    between atoms: C_11  and  N_44
    9  A    between atoms: C_12  and  C_54
   10  A    between atoms: C_18  and  C_53
   11  A    between atoms: C_21  and  C_53
   12  A    between atoms: C_28  and  C_49
   13  A    between atoms: C_30  and  C_47
   14  A    between atoms: C_30  and  O_55
   15  A    between atoms: C_31  and  C_60
   16  A    between atoms: C_32  and  N_43
   17  A    between atoms: C_33  and  C_54
   18  A    between atoms: C_36  and  C_53
   19  A    between atoms: C_37  and  C_42
   20  A    between atoms: C_37  and  O_50
   21  A    between atoms: S_38  and  C_48
   22  A    between atoms: C_40  and  C_57
   23  A    between atoms: C_40  and  C_59
   24  A    between atoms: C_42  and  C_45
   25  A    between atoms: C_57  and  O_65
   26  A    between atoms: N_58  and  C_59
                            x       y       z     vdW  Elec       q    Type
                         _______ _______ _______ _____ _____    ______ ____

>  <TORSDO>
F 26

$$$$
=
 OpenBabel11042409553D

 66 70  0  0  1  0  0  0  0  0999 V2000
  186.1600  178.0210  139.0790 C   0  0  0  0  0  2  0  0  0  0  0  0
  185.4620  177.3460  137.9220 C   0  0  2  0  0  3  0  0  0  0  0  0
  183.9300  177.4360  139.8160 C   0  0  2  0  0  3  0  0  0  0  0  0
  185.0470  178.4590  139.9990 C   0  0  0  0  0  2  0  0  0  0  0  0
  184.2430  176.6870  138.5270 C   0  0  0  0  0  2  0  0  0  0  0  0
  181.8290  178.4250  140.8120 C   0  0  0  0  0  0  0  0  0  0  0  0
  182.6450  178.1020  139.6710 N   0  0  0  0  0  2  0  0  0  0  0  0
  180.5350  178.6070  140.6810 N   0  0  0  0  0  0  0  0  0  0  0  0
  179.7940  178.5380  139.4490 C   0  0  0  0  0  0  0  0  0  0  0  0
  179.3630  177.4350  139.0030 O   0  0  0  0  0  0  0  0  0  0  0  0
  179.4380  179.8030  138.7390 C   0  0  0  0  0  2  0  0  0  0  0  0
  179.9690  181.0240  139.4830 C   0  0  0  0  0  2  0  0  0  0  0  0
  180.8670  181.7610  138.6510 O   0  0  0  0  0  0  0  0  0  0  0  0
  180.4290  182.7810  137.7950 C   0  0  0  0  0  0  0  0  0  0  0  0
  179.2590  182.7760  137.3340 O   0  0  0  0  0  0  0  0  0  0  0  0
  181.3140  183.7760  137.4060 O   0  0  0  0  0  1  0  0  0  0  0  0
  183.6760  178.7640  142.2980 C   0  0  0  0  0  3  0  0  0  0  0  0
  182.4370  178.4570  142.1070 N   0  0  0  0  0  0  0  0  0  0  0  0
  184.1980  178.7980  143.6990 C   0  0  0  0  0  2  0  0  0  0  0  0
  185.5360  178.1480  143.8330 C   0  0  0  0  0  0  0  0  0  0  0  0
  186.6970  178.5780  143.0780 C   0  0  0  0  0  3  0  0  0  0  0  0
  185.8450  177.3570  144.8080 N   0  0  0  0  0  0  0  0  0  0  0  0
  187.7320  177.9760  143.6470 C   0  0  0  0  0  0  0  0  0  0  0  0
  187.2800  177.0820  144.7590 C   0  0  1  0  0  3  0  0  0  0  0  0
  188.5350  178.2290  149.0950 C   0  0  0  0  0  2  0  0  0  0  0  0
  187.5530  178.8750  148.1450 C   0  0  0  0  0  2  0  0  0  0  0  0
  189.9450  177.0120  147.4500 C   0  0  0  0  0  0  0  0  0  0  0  0
  190.7370  176.0550  147.6730 O   0  0  0  0  0  0  0  0  0  0  0  0
  189.8830  178.1480  148.4290 C   0  0  0  0  0  2  0  0  0  0  0  0
  189.1540  176.9780  146.2570 N   0  0  0  0  0  0  0  0  0  0  0  0
  187.9470  177.4330  146.0580 C   0  0  0  0  0  0  0  0  0  0  0  0
  187.1250  177.9330  147.1280 N   0  0  0  0  0  2  0  0  0  0  0  0
  189.1480  178.1220  143.1780 C   0  0  0  0  0  2  0  0  0  0  0  0
  189.1850  178.0770  141.7900 O   0  0  0  0  0  0  0  0  0  0  0  0
  190.0510  176.6850  141.3490 P   0  0  0  0  0  0  0  0  0  0  0  0
  191.5230  176.9650  141.1220 O   0  0  0  0  0  1  0  0  0  0  0  0
  189.3800  176.0150  139.9470 O   0  0  0  0  0  0  0  0  0  0  0  0
  189.9280  175.5470  142.6030 O   0  0  0  0  0  1  0  0  0  0  0  0
  186.3160  176.3920  137.2920 O   0  0  0  0  0  0  0  0  0  0  0  0
  185.7400  176.4900  135.0530 O   0  0  0  0  0  0  0  0  0  0  0  0
  185.9650  175.7890  136.0870 C   0  0  0  0  0  0  0  0  0  0  0  0
  187.2820  173.4600  136.3730 S   0  0  0  0  0  0  0  0  0  0  0  0
  185.9500  174.3110  135.9800 C   0  0  1  0  0  3  0  0  0  0  0  0
  184.0430  173.6710  137.8850 O   0  0  0  0  0  1  0  0  0  0  0  0
  184.4330  170.9270  136.4080 C   0  0  0  0  0  2  0  0  0  0  0  0
  183.6020  173.3090  136.6010 C   0  0  1  0  0  3  0  0  0  0  0  0
  185.3520  171.4150  135.2750 C   0  0  0  0  0  2  0  0  0  0  0  0
  184.6760  173.6320  135.5190 C   0  0  2  0  0  3  0  0  0  0  0  0
  184.8740  172.5620  134.6090 O   0  0  0  0  0  0  0  0  0  0  0  0
  182.4730  171.4550  137.6830 O   0  0  0  0  0  1  0  0  0  0  0  0
  183.2090  171.8220  136.5540 C   0  0  2  0  0  3  0  0  0  0  0  0
  188.5500  174.1100  135.2750 C   0  0  0  0  0  2  0  0  0  0  0  0
  189.6370  174.7540  136.1200 C   0  0  0  0  0  2  0  0  0  0  0  0
  190.9580  174.8930  135.3750 C   0  0  0  0  0  2  0  0  0  0  0  0
  192.2030  174.7630  136.2620 C   0  0  2  0  0  3  0  0  0  0  0  0
  193.1690  175.9050  136.0200 C   0  0  0  0  0  2  0  0  0  0  0  0
  193.8330  176.3100  137.3220 C   0  0  0  0  0  1  0  0  0  0  0  0
  192.9110  173.4390  135.9820 C   0  0  0  0  0  2  0  0  0  0  0  0
  193.9040  173.5220  134.8310 C   0  0  0  0  0  2  0  0  0  0  0  0
  195.2310  173.0410  135.3040 C   0  0  0  0  0  0  0  0  0  0  0  0
  196.1960  173.8390  135.7790 N   0  0  0  0  0  0  0  0  0  0  0  0
  195.6690  171.7360  135.2400 C   0  0  0  0  0  3  0  0  0  0  0  0
  197.2150  172.9900  136.0010 C   0  0  0  0  0  0  0  0  0  0  0  0
  196.9420  171.7210  135.6710 N   0  0  0  0  0  2  0  0  0  0  0  0
  198.5630  173.4520  136.4180 C   0  0  0  0  0  2  0  0  0  0  0  0
  198.4590  174.5720  137.4350 C   0  0  0  0  0  1  0  0  0  0  0  0
  1  4  1  0  0  0  0
  2 39  1  1  0  0  0
  2  5  1  0  0  0  0
  2  1  1  0  0  0  0
  3  7  1  6  0  0  0
  3  4  1  0  0  0  0
  5  3  1  0  0  0  0
  6 18  1  0  0  0  0
  7  6  1  0  0  0  0
  8  6  2  0  0  0  0
  9  8  1  0  0  0  0
 10  9  2  0  0  0  0
 11  9  1  0  0  0  0
 11 12  1  0  0  0  0
 13 12  1  0  0  0  0
 14 13  1  0  0  0  0
 15 14  2  0  0  0  0
 16 14  1  0  0  0  0
 17 19  1  0  0  0  0
 18 17  2  0  0  0  0
 19 20  1  0  0  0  0
 20 22  2  0  0  0  0
 21 23  2  0  0  0  0
 21 20  1  0  0  0  0
 23 24  1  0  0  0  0
 24 22  1  0  0  0  0
 24 31  1  1  0  0  0
 26 25  1  0  0  0  0
 27 28  2  0  0  0  0
 27 29  1  0  0  0  0
 29 25  1  0  0  0  0
 30 27  1  0  0  0  0
 31 30  2  0  0  0  0
 31 32  1  0  0  0  0
 32 26  1  0  0  0  0
 33 23  1  0  0  0  0
 34 33  1  0  0  0  0
 35 34  1  0  0  0  0
 35 38  1  0  0  0  0
 36 35  1  0  0  0  0
 37 35  2  0  0  0  0
 40 41  2  0  0  0  0
 41 39  1  0  0  0  0
 43 41  1  1  0  0  0
 43 42  1  0  0  0  0
 45 51  1  0  0  0  0
 46 44  1  1  0  0  0
 47 45  1  0  0  0  0
 48 43  1  1  0  0  0
 48 46  1  0  0  0  0
 49 47  1  0  0  0  0
 49 48  1  0  0  0  0
 51 46  1  0  0  0  0
 51 50  1  1  0  0  0
 52 53  1  0  0  0  0
 52 42  1  0  0  0  0
 54 53  1  0  0  0  0
 55 54  1  6  0  0  0
 56 55  1  0  0  0  0
 56 57  1  0  0  0  0
 58 55  1  0  0  0  0
 59 60  1  0  0  0  0
 59 58  1  0  0  0  0
 60 61  1  0  0  0  0
 61 63  2  0  0  0  0
 62 60  2  0  0  0  0
 62 64  1  0  0  0  0
 63 65  1  0  0  0  0
 64 63  1  0  0  0  0
 65 66  1  0  0  0  0
M  END
>  <MODEL>
6

>  <REMARK>
 VINA RESULT:      -5.0      3.839     12.815
  Name = 
  26 active torsions:
  status: ('A' for Active; 'I' for Inactive)
    1  A    between atoms: C_2  and  O_50
    2  A    between atoms: C_3  and  O_65
    3  A    between atoms: C_4  and  C_36
    4  A    between atoms: C_4  and  C_48
    5  A    between atoms: C_5  and  C_7
    6  A    between atoms: C_5  and  C_21
    7  A    between atoms: P_10  and  O_55
    8  A    between atoms: C_11  and  N_44
    9  A    between atoms: C_12  and  C_54
   10  A    between atoms: C_18  and  C_53
   11  A    between atoms: C_21  and  C_53
   12  A    between atoms: C_28  and  C_49
   13  A    between atoms: C_30  and  C_47
   14  A    between atoms: C_30  and  O_55
   15  A    between atoms: C_31  and  C_60
   16  A    between atoms: C_32  and  N_43
   17  A    between atoms: C_33  and  C_54
   18  A    between atoms: C_36  and  C_53
   19  A    between atoms: C_37  and  C_42
   20  A    between atoms: C_37  and  O_50
   21  A    between atoms: S_38  and  C_48
   22  A    between atoms: C_40  and  C_57
   23  A    between atoms: C_40  and  C_59
   24  A    between atoms: C_42  and  C_45
   25  A    between atoms: C_57  and  O_65
   26  A    between atoms: N_58  and  C_59
                            x       y       z     vdW  Elec       q    Type
                         _______ _______ _______ _____ _____    ______ ____

>  <TORSDO>
F 26

$$$$
=
 OpenBabel11042409553D

 66 70  0  0  1  0  0  0  0  0999 V2000
  189.8190  176.6280  135.7710 C   0  0  0  0  0  2  0  0  0  0  0  0
  189.4450  176.2210  137.1760 C   0  0  2  0  0  3  0  0  0  0  0  0
  191.2010  174.7340  136.3710 C   0  0  2  0  0  3  0  0  0  0  0  0
  191.1760  176.0130  135.5380 C   0  0  0  0  0  2  0  0  0  0  0  0
  190.0500  174.8480  137.3630 C   0  0  0  0  0  2  0  0  0  0  0  0
  192.7220  175.4610  138.2510 C   0  0  0  0  0  0  0  0  0  0  0  0
  192.4480  174.6290  137.1100 N   0  0  0  0  0  2  0  0  0  0  0  0
  193.9580  175.6860  138.6370 N   0  0  0  0  0  0  0  0  0  0  0  0
  195.1430  175.1450  138.0260 C   0  0  0  0  0  0  0  0  0  0  0  0
  195.5570  175.5700  136.9070 O   0  0  0  0  0  0  0  0  0  0  0  0
  195.9570  174.1400  138.7730 C   0  0  0  0  0  2  0  0  0  0  0  0
  197.3270  173.9500  138.1300 C   0  0  0  0  0  2  0  0  0  0  0  0
  198.2830  174.8290  138.7250 O   0  0  0  0  0  0  0  0  0  0  0  0
  198.1800  175.2570  140.0560 C   0  0  0  0  0  0  0  0  0  0  0  0
  197.2990  176.0860  140.3990 O   0  0  0  0  0  0  0  0  0  0  0  0
  199.0960  174.8040  140.9950 O   0  0  0  0  0  1  0  0  0  0  0  0
  191.7730  177.1600  139.6470 C   0  0  0  0  0  3  0  0  0  0  0  0
  191.6300  176.1130  138.9060 N   0  0  0  0  0  0  0  0  0  0  0  0
  190.5570  177.7800  140.2560 C   0  0  0  0  0  2  0  0  0  0  0  0
  190.2720  177.2670  141.6290 C   0  0  0  0  0  0  0  0  0  0  0  0
  191.1270  177.5540  142.7670 C   0  0  0  0  0  3  0  0  0  0  0  0
  189.1290  176.7770  141.9810 N   0  0  0  0  0  0  0  0  0  0  0  0
  190.4320  177.1830  143.8330 C   0  0  0  0  0  0  0  0  0  0  0  0
  189.1210  176.5840  143.4300 C   0  0  1  0  0  3  0  0  0  0  0  0
  185.0800  178.4970  144.7350 C   0  0  0  0  0  2  0  0  0  0  0  0
  185.8140  178.5390  143.4150 C   0  0  0  0  0  2  0  0  0  0  0  0
  186.9840  177.9630  146.2380 C   0  0  0  0  0  0  0  0  0  0  0  0
  186.9340  177.5050  147.4130 O   0  0  0  0  0  0  0  0  0  0  0  0
  185.9900  179.0060  145.8200 C   0  0  0  0  0  2  0  0  0  0  0  0
  188.0070  177.4770  145.3620 N   0  0  0  0  0  0  0  0  0  0  0  0
  187.9660  177.3000  144.0690 C   0  0  0  0  0  0  0  0  0  0  0  0
  186.7500  177.4350  143.3110 N   0  0  0  0  0  2  0  0  0  0  0  0
  190.9380  177.2860  145.2400 C   0  0  0  0  0  2  0  0  0  0  0  0
  190.3680  176.2820  146.0140 O   0  0  0  0  0  0  0  0  0  0  0  0
  191.5640  175.7180  147.0780 P   0  0  0  0  0  0  0  0  0  0  0  0
  190.9960  174.8460  148.1800 O   0  0  0  0  0  1  0  0  0  0  0  0
  192.3850  177.0310  147.7620 O   0  0  0  0  0  1  0  0  0  0  0  0
  192.6780  174.7830  146.2010 O   0  0  0  0  0  0  0  0  0  0  0  0
  188.0280  176.1970  137.3450 O   0  0  0  0  0  0  0  0  0  0  0  0
  187.5410  177.7410  135.6920 O   0  0  0  0  0  0  0  0  0  0  0  0
  187.1750  176.7470  136.3910 C   0  0  0  0  0  0  0  0  0  0  0  0
  184.4900  176.8920  136.4980 S   0  0  0  0  0  0  0  0  0  0  0  0
  185.8670  176.1080  136.1170 C   0  0  1  0  0  3  0  0  0  0  0  0
  183.4280  174.8330  135.8050 O   0  0  0  0  0  1  0  0  0  0  0  0
  185.1280  172.6340  137.2650 C   0  0  0  0  0  2  0  0  0  0  0  0
  184.4670  174.0500  135.2760 C   0  0  1  0  0  3  0  0  0  0  0  0
  186.4890  173.3490  137.2330 C   0  0  0  0  0  2  0  0  0  0  0  0
  185.8530  174.7370  135.4720 C   0  0  2  0  0  3  0  0  0  0  0  0
  186.8400  173.8440  135.9600 O   0  0  0  0  0  0  0  0  0  0  0  0
  183.1670  172.1280  135.9820 O   0  0  0  0  0  1  0  0  0  0  0  0
  184.4640  172.6410  135.8940 C   0  0  2  0  0  3  0  0  0  0  0  0
  184.6350  177.1880  138.2660 C   0  0  0  0  0  2  0  0  0  0  0  0
  183.3440  177.8230  138.7570 C   0  0  0  0  0  2  0  0  0  0  0  0
  182.3590  178.1020  137.6300 C   0  0  0  0  0  2  0  0  0  0  0  0
  180.8890  177.8620  137.9990 C   0  0  2  0  0  3  0  0  0  0  0  0
  180.3170  176.6850  137.2340 C   0  0  0  0  0  2  0  0  0  0  0  0
  180.8440  175.3850  137.8090 C   0  0  0  0  0  1  0  0  0  0  0  0
  180.0610  179.1080  137.6950 C   0  0  0  0  0  2  0  0  0  0  0  0
  178.9410  179.3420  138.7000 C   0  0  0  0  0  2  0  0  0  0  0  0
  179.5330  179.4590  140.0620 C   0  0  0  0  0  0  0  0  0  0  0  0
  179.6260  178.4460  140.9320 N   0  0  0  0  0  0  0  0  0  0  0  0
  179.9830  180.6300  140.6310 C   0  0  0  0  0  3  0  0  0  0  0  0
  180.1420  179.0290  142.0280 C   0  0  0  0  0  0  0  0  0  0  0  0
  180.3530  180.3450  141.8920 N   0  0  0  0  0  2  0  0  0  0  0  0
  180.3060  178.3060  143.3150 C   0  0  0  0  0  2  0  0  0  0  0  0
  181.0800  179.1490  144.3110 C   0  0  0  0  0  1  0  0  0  0  0  0
  1  2  1  0  0  0  0
  2 39  1  6  0  0  0
  2  5  1  0  0  0  0
  3  7  1  1  0  0  0
  3  5  1  0  0  0  0
  4  1  1  0  0  0  0
  4  3  1  0  0  0  0
  6  8  2  0  0  0  0
  6 18  1  0  0  0  0
  7  6  1  0  0  0  0
  9  8  1  0  0  0  0
  9 11  1  0  0  0  0
 10  9  2  0  0  0  0
 12 13  1  0  0  0  0
 12 11  1  0  0  0  0
 13 14  1  0  0  0  0
 14 15  2  0  0  0  0
 14 16  1  0  0  0  0
 17 19  1  0  0  0  0
 18 17  2  0  0  0  0
 19 20  1  0  0  0  0
 20 22  2  0  0  0  0
 20 21  1  0  0  0  0
 21 23  2  0  0  0  0
 22 24  1  0  0  0  0
 23 33  1  0  0  0  0
 24 23  1  0  0  0  0
 24 31  1  1  0  0  0
 25 29  1  0  0  0  0
 26 25  1  0  0  0  0
 27 28  2  0  0  0  0
 29 27  1  0  0  0  0
 30 27  1  0  0  0  0
 31 30  2  0  0  0  0
 32 26  1  0  0  0  0
 32 31  1  0  0  0  0
 33 34  1  0  0  0  0
 34 35  1  0  0  0  0
 35 37  1  0  0  0  0
 35 36  1  0  0  0  0
 38 35  2  0  0  0  0
 40 41  2  0  0  0  0
 41 39  1  0  0  0  0
 42 52  1  0  0  0  0
 43 41  1  6  0  0  0
 43 42  1  0  0  0  0
 46 48  1  0  0  0  0
 46 44  1  1  0  0  0
 46 51  1  0  0  0  0
 47 45  1  0  0  0  0
 48 49  1  0  0  0  0
 48 43  1  1  0  0  0
 49 47  1  0  0  0  0
 51 50  1  1  0  0  0
 51 45  1  0  0  0  0
 52 53  1  0  0  0  0
 54 55  1  0  0  0  0
 54 53  1  0  0  0  0
 55 56  1  6  0  0  0
 56 57  1  0  0  0  0
 58 55  1  0  0  0  0
 58 59  1  0  0  0  0
 59 60  1  0  0  0  0
 60 62  2  0  0  0  0
 60 61  1  0  0  0  0
 61 63  2  0  0  0  0
 62 64  1  0  0  0  0
 63 65  1  0  0  0  0
 64 63  1  0  0  0  0
 65 66  1  0  0  0  0
M  END
>  <MODEL>
7

>  <REMARK>
 VINA RESULT:      -4.9      3.276      8.203
  Name = 
  26 active torsions:
  status: ('A' for Active; 'I' for Inactive)
    1  A    between atoms: C_2  and  O_50
    2  A    between atoms: C_3  and  O_65
    3  A    between atoms: C_4  and  C_36
    4  A    between atoms: C_4  and  C_48
    5  A    between atoms: C_5  and  C_7
    6  A    between atoms: C_5  and  C_21
    7  A    between atoms: P_10  and  O_55
    8  A    between atoms: C_11  and  N_44
    9  A    between atoms: C_12  and  C_54
   10  A    between atoms: C_18  and  C_53
   11  A    between atoms: C_21  and  C_53
   12  A    between atoms: C_28  and  C_49
   13  A    between atoms: C_30  and  C_47
   14  A    between atoms: C_30  and  O_55
   15  A    between atoms: C_31  and  C_60
   16  A    between atoms: C_32  and  N_43
   17  A    between atoms: C_33  and  C_54
   18  A    between atoms: C_36  and  C_53
   19  A    between atoms: C_37  and  C_42
   20  A    between atoms: C_37  and  O_50
   21  A    between atoms: S_38  and  C_48
   22  A    between atoms: C_40  and  C_57
   23  A    between atoms: C_40  and  C_59
   24  A    between atoms: C_42  and  C_45
   25  A    between atoms: C_57  and  O_65
   26  A    between atoms: N_58  and  C_59
                            x       y       z     vdW  Elec       q    Type
                         _______ _______ _______ _____ _____    ______ ____

>  <TORSDO>
F 26

$$$$
=
 OpenBabel11042409553D

 66 70  0  0  1  0  0  0  0  0999 V2000
  187.0610  178.1630  138.5200 C   0  0  0  0  0  2  0  0  0  0  0  0
  187.0440  176.6720  138.2790 C   0  0  2  0  0  3  0  0  0  0  0  0
  189.0350  177.6120  137.2330 C   0  0  2  0  0  3  0  0  0  0  0  0
  188.4920  178.5770  138.2830 C   0  0  0  0  0  2  0  0  0  0  0  0
  188.0660  176.4370  137.1900 C   0  0  0  0  0  2  0  0  0  0  0  0
  190.6640  176.8030  138.9850 C   0  0  0  0  0  0  0  0  0  0  0  0
  190.3480  177.1220  137.6170 N   0  0  0  0  0  2  0  0  0  0  0  0
  191.9100  176.7910  139.4010 N   0  0  0  0  0  0  0  0  0  0  0  0
  193.0710  177.0560  138.5920 C   0  0  0  0  0  0  0  0  0  0  0  0
  193.9580  177.8770  138.9670 O   0  0  0  0  0  0  0  0  0  0  0  0
  193.2840  176.2710  137.3400 C   0  0  0  0  0  2  0  0  0  0  0  0
  193.8850  174.9020  137.6400 C   0  0  0  0  0  2  0  0  0  0  0  0
  195.3100  174.9870  137.6950 O   0  0  0  0  0  0  0  0  0  0  0  0
  196.0540  174.4460  138.7530 C   0  0  0  0  0  0  0  0  0  0  0  0
  196.1150  175.0340  139.8630 O   0  0  0  0  0  1  0  0  0  0  0  0
  196.7760  173.2780  138.5570 O   0  0  0  0  0  0  0  0  0  0  0  0
  189.5410  177.1350  141.0740 C   0  0  0  0  0  3  0  0  0  0  0  0
  189.5910  176.5850  139.9070 N   0  0  0  0  0  0  0  0  0  0  0  0
  188.3540  176.8630  141.9420 C   0  0  0  0  0  2  0  0  0  0  0  0
  188.5190  177.3940  143.3280 C   0  0  0  0  0  0  0  0  0  0  0  0
  187.5110  177.2260  144.3590 C   0  0  0  0  0  3  0  0  0  0  0  0
  189.6540  177.7890  143.8070 N   0  0  0  0  0  0  0  0  0  0  0  0
  188.1060  177.5680  145.4940 C   0  0  0  0  0  0  0  0  0  0  0  0
  189.5070  178.0290  145.2400 C   0  0  1  0  0  3  0  0  0  0  0  0
  192.0210  175.6370  148.3470 C   0  0  0  0  0  2  0  0  0  0  0  0
  191.3670  176.9960  148.4390 C   0  0  0  0  0  2  0  0  0  0  0  0
  192.2020  175.4440  145.8760 C   0  0  0  0  0  0  0  0  0  0  0  0
  192.3870  174.3970  145.1970 O   0  0  0  0  0  0  0  0  0  0  0  0
  192.9520  175.6190  147.1640 C   0  0  0  0  0  2  0  0  0  0  0  0
  191.2940  176.4300  145.3730 N   0  0  0  0  0  0  0  0  0  0  0  0
  190.5030  177.2330  146.0320 C   0  0  0  0  0  0  0  0  0  0  0  0
  190.3090  177.1260  147.4540 N   0  0  0  0  0  2  0  0  0  0  0  0
  187.4270  177.5600  146.8300 C   0  0  0  0  0  2  0  0  0  0  0  0
  186.0780  177.2680  146.6640 O   0  0  0  0  0  0  0  0  0  0  0  0
  185.2840  178.7230  146.2990 P   0  0  0  0  0  0  0  0  0  0  0  0
  185.2300  178.9970  144.8090 O   0  0  0  0  0  0  0  0  0  0  0  0
  186.0570  180.0080  147.0840 O   0  0  0  0  0  1  0  0  0  0  0  0
  183.6860  178.6280  146.8650 O   0  0  0  0  0  1  0  0  0  0  0  0
  185.7450  176.2300  137.8850 O   0  0  0  0  0  0  0  0  0  0  0  0
  185.3480  177.7320  136.1700 O   0  0  0  0  0  0  0  0  0  0  0  0
  184.8980  177.0450  137.1370 C   0  0  0  0  0  0  0  0  0  0  0  0
  182.5820  175.6760  137.1480 S   0  0  0  0  0  0  0  0  0  0  0  0
  183.4420  177.0350  137.4060 C   0  0  1  0  0  3  0  0  0  0  0  0
  182.6380  177.0880  140.0570 O   0  0  0  0  0  1  0  0  0  0  0  0
  180.0260  177.9940  138.5680 C   0  0  0  0  0  2  0  0  0  0  0  0
  182.3790  178.3220  139.4360 C   0  0  1  0  0  3  0  0  0  0  0  0
  180.6080  178.1080  137.1500 C   0  0  0  0  0  2  0  0  0  0  0  0
  182.7950  178.3000  137.9340 C   0  0  2  0  0  3  0  0  0  0  0  0
  181.8030  178.8550  137.0850 O   0  0  0  0  0  0  0  0  0  0  0  0
  180.4380  178.4640  140.8820 O   0  0  0  0  0  1  0  0  0  0  0  0
  180.8990  178.7140  139.5880 C   0  0  2  0  0  3  0  0  0  0  0  0
  182.8540  175.3160  135.4060 C   0  0  0  0  0  2  0  0  0  0  0  0
  181.7910  174.3330  134.9440 C   0  0  0  0  0  2  0  0  0  0  0  0
  181.3770  173.3560  136.0370 C   0  0  0  0  0  2  0  0  0  0  0  0
  180.8050  172.0300  135.5180 C   0  0  2  0  0  3  0  0  0  0  0  0
  180.3530  171.1450  136.6620 C   0  0  0  0  0  2  0  0  0  0  0  0
  179.8680  171.9960  137.8190 C   0  0  0  0  0  1  0  0  0  0  0  0
  181.8560  171.2900  134.6950 C   0  0  0  0  0  2  0  0  0  0  0  0
  182.6670  170.2950  135.5150 C   0  0  0  0  0  2  0  0  0  0  0  0
  184.0750  170.7720  135.5950 C   0  0  0  0  0  0  0  0  0  0  0  0
  184.4470  171.9340  136.1450 N   0  0  0  0  0  0  0  0  0  0  0  0
  185.1610  170.1270  135.0440 C   0  0  0  0  0  3  0  0  0  0  0  0
  185.7720  171.9710  135.9200 C   0  0  0  0  0  0  0  0  0  0  0  0
  186.2350  170.9120  135.2430 N   0  0  0  0  0  2  0  0  0  0  0  0
  186.6060  173.1550  136.2480 C   0  0  0  0  0  2  0  0  0  0  0  0
  187.8770  173.1650  135.4210 C   0  0  0  0  0  1  0  0  0  0  0  0
  2 39  1  6  0  0  0
  2  1  1  0  0  0  0
  3  7  1  1  0  0  0
  3  4  1  0  0  0  0
  4  1  1  0  0  0  0
  5  3  1  0  0  0  0
  5  2  1  0  0  0  0
  6  8  2  0  0  0  0
  6 18  1  0  0  0  0
  7  6  1  0  0  0  0
  9 10  2  0  0  0  0
  9  8  1  0  0  0  0
 11 12  1  0  0  0  0
 11  9  1  0  0  0  0
 12 13  1  0  0  0  0
 13 14  1  0  0  0  0
 14 15  1  0  0  0  0
 16 14  2  0  0  0  0
 17 19  1  0  0  0  0
 18 17  2  0  0  0  0
 19 20  1  0  0  0  0
 20 22  2  0  0  0  0
 20 21  1  0  0  0  0
 21 23  2  0  0  0  0
 22 24  1  0  0  0  0
 23 33  1  0  0  0  0
 24 23  1  0  0  0  0
 24 31  1  1  0  0  0
 25 26  1  0  0  0  0
 27 29  1  0  0  0  0
 28 27  2  0  0  0  0
 29 25  1  0  0  0  0
 30 27  1  0  0  0  0
 30 31  2  0  0  0  0
 31 32  1  0  0  0  0
 32 26  1  0  0  0  0
 34 33  1  0  0  0  0
 35 34  1  0  0  0  0
 35 38  1  0  0  0  0
 35 37  1  0  0  0  0
 36 35  2  0  0  0  0
 40 41  2  0  0  0  0
 41 39  1  0  0  0  0
 42 43  1  0  0  0  0
 43 41  1  1  0  0  0
 45 51  1  0  0  0  0
 46 51  1  0  0  0  0
 46 44  1  6  0  0  0
 47 45  1  0  0  0  0
 48 43  1  6  0  0  0
 48 46  1  0  0  0  0
 49 47  1  0  0  0  0
 49 48  1  0  0  0  0
 51 50  1  1  0  0  0
 52 42  1  0  0  0  0
 53 52  1  0  0  0  0
 53 54  1  0  0  0  0
 55 58  1  1  0  0  0
 55 54  1  0  0  0  0
 55 56  1  0  0  0  0
 56 57  1  0  0  0  0
 58 59  1  0  0  0  0
 59 60  1  0  0  0  0
 60 61  1  0  0  0  0
 62 64  1  0  0  0  0
 62 60  2  0  0  0  0
 63 61  2  0  0  0  0
 63 65  1  0  0  0  0
 64 63  1  0  0  0  0
 66 65  1  0  0  0  0
M  END
>  <MODEL>
8

>  <REMARK>
 VINA RESULT:      -4.6      3.951      9.477
  Name = 
  26 active torsions:
  status: ('A' for Active; 'I' for Inactive)
    1  A    between atoms: C_2  and  O_50
    2  A    between atoms: C_3  and  O_65
    3  A    between atoms: C_4  and  C_36
    4  A    between atoms: C_4  and  C_48
    5  A    between atoms: C_5  and  C_7
    6  A    between atoms: C_5  and  C_21
    7  A    between atoms: P_10  and  O_55
    8  A    between atoms: C_11  and  N_44
    9  A    between atoms: C_12  and  C_54
   10  A    between atoms: C_18  and  C_53
   11  A    between atoms: C_21  and  C_53
   12  A    between atoms: C_28  and  C_49
   13  A    between atoms: C_30  and  C_47
   14  A    between atoms: C_30  and  O_55
   15  A    between atoms: C_31  and  C_60
   16  A    between atoms: C_32  and  N_43
   17  A    between atoms: C_33  and  C_54
   18  A    between atoms: C_36  and  C_53
   19  A    between atoms: C_37  and  C_42
   20  A    between atoms: C_37  and  O_50
   21  A    between atoms: S_38  and  C_48
   22  A    between atoms: C_40  and  C_57
   23  A    between atoms: C_40  and  C_59
   24  A    between atoms: C_42  and  C_45
   25  A    between atoms: C_57  and  O_65
   26  A    between atoms: N_58  and  C_59
                            x       y       z     vdW  Elec       q    Type
                         _______ _______ _______ _____ _____    ______ ____

>  <TORSDO>
F 26

$$$$
=
 OpenBabel11042409553D

 66 70  0  0  1  0  0  0  0  0999 V2000
  185.4940  179.8180  143.7660 C   0  0  0  0  0  2  0  0  0  0  0  0
  185.6600  178.9070  142.5730 C   0  0  2  0  0  3  0  0  0  0  0  0
  183.4140  178.6160  143.4740 C   0  0  2  0  0  3  0  0  0  0  0  0
  184.0020  179.9390  143.9560 C   0  0  0  0  0  2  0  0  0  0  0  0
  184.5030  177.9360  142.6530 C   0  0  0  0  0  2  0  0  0  0  0  0
  182.3990  179.0320  141.1990 C   0  0  0  0  0  0  0  0  0  0  0  0
  182.2610  178.8490  142.6200 N   0  0  0  0  0  2  0  0  0  0  0  0
  181.4720  179.6600  140.5100 N   0  0  0  0  0  0  0  0  0  0  0  0
  180.2490  180.2000  141.0410 C   0  0  0  0  0  0  0  0  0  0  0  0
  180.0170  180.2010  142.2850 O   0  0  0  0  0  0  0  0  0  0  0  0
  179.2840  180.8680  140.1170 C   0  0  0  0  0  2  0  0  0  0  0  0
  179.7590  180.7900  138.6700 C   0  0  0  0  0  2  0  0  0  0  0  0
  179.6970  182.0790  138.0560 O   0  0  0  0  0  0  0  0  0  0  0  0
  180.8430  182.7580  137.6220 C   0  0  0  0  0  0  0  0  0  0  0  0
  181.9540  182.5720  138.1830 O   0  0  0  0  0  1  0  0  0  0  0  0
  180.7420  183.6890  136.5980 O   0  0  0  0  0  0  0  0  0  0  0  0
  184.0350  179.0940  139.4510 C   0  0  0  0  0  3  0  0  0  0  0  0
  183.6040  178.5980  140.5630 N   0  0  0  0  0  0  0  0  0  0  0  0
  185.3260  178.5870  138.8940 C   0  0  0  0  0  2  0  0  0  0  0  0
  185.1310  177.6200  137.7730 C   0  0  0  0  0  0  0  0  0  0  0  0
  186.0080  176.4840  137.5540 C   0  0  0  0  0  3  0  0  0  0  0  0
  184.0380  177.5390  137.0870 N   0  0  0  0  0  0  0  0  0  0  0  0
  185.3830  175.7190  136.6700 C   0  0  0  0  0  0  0  0  0  0  0  0
  184.1010  176.3550  136.2320 C   0  0  1  0  0  3  0  0  0  0  0  0
  180.1050  173.9620  136.2810 C   0  0  0  0  0  2  0  0  0  0  0  0
  180.3670  175.4500  136.2490 C   0  0  0  0  0  2  0  0  0  0  0  0
  182.2680  173.1920  137.2290 C   0  0  0  0  0  0  0  0  0  0  0  0
  182.7510  172.0260  137.2010 O   0  0  0  0  0  0  0  0  0  0  0  0
  180.7990  173.3660  137.4770 C   0  0  0  0  0  2  0  0  0  0  0  0
  183.1550  174.3000  137.0420 N   0  0  0  0  0  0  0  0  0  0  0  0
  182.9250  175.4500  136.4690 C   0  0  0  0  0  0  0  0  0  0  0  0
  181.7050  175.7270  135.7590 N   0  0  0  0  0  2  0  0  0  0  0  0
  185.9360  174.4330  136.1360 C   0  0  0  0  0  2  0  0  0  0  0  0
  186.7100  174.6910  135.0120 O   0  0  0  0  0  0  0  0  0  0  0  0
  188.2840  174.1470  135.3420 P   0  0  0  0  0  0  0  0  0  0  0  0
  188.6070  172.8430  134.6380 O   0  0  0  0  0  0  0  0  0  0  0  0
  188.4830  173.9520  137.0120 O   0  0  0  0  0  1  0  0  0  0  0  0
  189.3900  175.3140  134.7990 O   0  0  0  0  0  1  0  0  0  0  0  0
  186.9160  178.2300  142.6130 O   0  0  0  0  0  0  0  0  0  0  0  0
  186.3870  176.4000  143.9270 O   0  0  0  0  0  0  0  0  0  0  0  0
  187.2130  177.3120  143.6190 C   0  0  0  0  0  0  0  0  0  0  0  0
  189.8090  178.0090  143.4900 S   0  0  0  0  0  0  0  0  0  0  0  0
  188.5450  177.3370  144.2670 C   0  0  1  0  0  3  0  0  0  0  0  0
  187.2250  178.5770  146.3630 O   0  0  0  0  0  1  0  0  0  0  0  0
  190.1600  178.3920  147.4640 C   0  0  0  0  0  2  0  0  0  0  0  0
  187.9090  177.4360  146.8150 C   0  0  1  0  0  3  0  0  0  0  0  0
  190.7670  177.5440  146.3330 C   0  0  0  0  0  2  0  0  0  0  0  0
  188.6850  176.7430  145.6540 C   0  0  2  0  0  3  0  0  0  0  0  0
  190.0120  176.3950  146.0160 O   0  0  0  0  0  0  0  0  0  0  0  0
  188.2480  178.6510  148.8860 O   0  0  0  0  0  1  0  0  0  0  0  0
  188.8580  177.7870  147.9740 C   0  0  2  0  0  3  0  0  0  0  0  0
  189.9240  177.0720  141.9590 C   0  0  0  0  0  2  0  0  0  0  0  0
  189.1400  177.8060  140.8830 C   0  0  0  0  0  2  0  0  0  0  0  0
  189.8730  177.8520  139.5490 C   0  0  0  0  0  2  0  0  0  0  0  0
  191.0320  176.8540  139.4270 C   0  0  2  0  0  3  0  0  0  0  0  0
  192.3600  177.5720  139.2950 C   0  0  0  0  0  2  0  0  0  0  0  0
  193.2420  177.2600  140.4880 C   0  0  0  0  0  1  0  0  0  0  0  0
  190.8250  175.9530  138.2120 C   0  0  0  0  0  2  0  0  0  0  0  0
  191.8890  176.1410  137.1400 C   0  0  0  0  0  2  0  0  0  0  0  0
  192.7210  174.9080  137.0670 C   0  0  0  0  0  0  0  0  0  0  0  0
  193.6040  174.5390  138.0030 N   0  0  0  0  0  0  0  0  0  0  0  0
  192.7540  174.0370  136.0000 C   0  0  0  0  0  3  0  0  0  0  0  0
  194.1610  173.4320  137.4810 C   0  0  0  0  0  0  0  0  0  0  0  0
  193.6890  173.1100  136.2700 N   0  0  0  0  0  2  0  0  0  0  0  0
  195.3050  172.7350  138.1220 C   0  0  0  0  0  2  0  0  0  0  0  0
  196.6010  173.0510  137.4000 C   0  0  0  0  0  1  0  0  0  0  0  0
  1  4  1  0  0  0  0
  2 39  1  1  0  0  0
  2  5  1  0  0  0  0
  2  1  1  0  0  0  0
  3  7  1  6  0  0  0
  3  4  1  0  0  0  0
  5  3  1  0  0  0  0
  6  7  1  0  0  0  0
  8  9  1  0  0  0  0
  8  6  2  0  0  0  0
  9 10  2  0  0  0  0
 11  9  1  0  0  0  0
 12 11  1  0  0  0  0
 13 12  1  0  0  0  0
 14 13  1  0  0  0  0
 14 15  1  0  0  0  0
 16 14  2  0  0  0  0
 17 18  2  0  0  0  0
 18  6  1  0  0  0  0
 19 17  1  0  0  0  0
 20 19  1  0  0  0  0
 21 20  1  0  0  0  0
 22 20  2  0  0  0  0
 23 21  2  0  0  0  0
 24 31  1  1  0  0  0
 24 23  1  0  0  0  0
 24 22  1  0  0  0  0
 25 29  1  0  0  0  0
 26 25  1  0  0  0  0
 27 29  1  0  0  0  0
 28 27  2  0  0  0  0
 30 27  1  0  0  0  0
 31 30  2  0  0  0  0
 32 26  1  0  0  0  0
 32 31  1  0  0  0  0
 33 23  1  0  0  0  0
 34 35  1  0  0  0  0
 34 33  1  0  0  0  0
 35 37  1  0  0  0  0
 36 35  2  0  0  0  0
 38 35  1  0  0  0  0
 39 41  1  0  0  0  0
 41 40  2  0  0  0  0
 41 43  1  0  0  0  0
 43 42  1  1  0  0  0
 45 51  1  0  0  0  0
 46 44  1  6  0  0  0
 46 51  1  0  0  0  0
 47 45  1  0  0  0  0
 48 43  1  6  0  0  0
 48 49  1  0  0  0  0
 48 46  1  0  0  0  0
 49 47  1  0  0  0  0
 51 50  1  1  0  0  0
 52 42  1  0  0  0  0
 53 52  1  0  0  0  0
 54 53  1  0  0  0  0
 55 58  1  6  0  0  0
 55 54  1  0  0  0  0
 56 55  1  0  0  0  0
 56 57  1  0  0  0  0
 59 58  1  0  0  0  0
 60 59  1  0  0  0  0
 60 61  1  0  0  0  0
 62 64  1  0  0  0  0
 62 60  2  0  0  0  0
 63 61  2  0  0  0  0
 63 65  1  0  0  0  0
 64 63  1  0  0  0  0
 66 65  1  0  0  0  0
M  END
>  <MODEL>
9

>  <REMARK>
 VINA RESULT:      -4.4      3.391      9.995
  Name = 
  26 active torsions:
  status: ('A' for Active; 'I' for Inactive)
    1  A    between atoms: C_2  and  O_50
    2  A    between atoms: C_3  and  O_65
    3  A    between atoms: C_4  and  C_36
    4  A    between atoms: C_4  and  C_48
    5  A    between atoms: C_5  and  C_7
    6  A    between atoms: C_5  and  C_21
    7  A    between atoms: P_10  and  O_55
    8  A    between atoms: C_11  and  N_44
    9  A    between atoms: C_12  and  C_54
   10  A    between atoms: C_18  and  C_53
   11  A    between atoms: C_21  and  C_53
   12  A    between atoms: C_28  and  C_49
   13  A    between atoms: C_30  and  C_47
   14  A    between atoms: C_30  and  O_55
   15  A    between atoms: C_31  and  C_60
   16  A    between atoms: C_32  and  N_43
   17  A    between atoms: C_33  and  C_54
   18  A    between atoms: C_36  and  C_53
   19  A    between atoms: C_37  and  C_42
   20  A    between atoms: C_37  and  O_50
   21  A    between atoms: S_38  and  C_48
   22  A    between atoms: C_40  and  C_57
   23  A    between atoms: C_40  and  C_59
   24  A    between atoms: C_42  and  C_45
   25  A    between atoms: C_57  and  O_65
   26  A    between atoms: N_58  and  C_59
                            x       y       z     vdW  Elec       q    Type
                         _______ _______ _______ _____ _____    ______ ____

>  <TORSDO>
F 26

$$$$
