=
 OpenBabel11042412023D

 28 30  0  0  1  0  0  0  0  0999 V2000
  189.1890  177.3380  145.7350 C   0  0  0  0  0  0  0  0  0  0  0  0
  189.1200  176.8190  147.0320 C   0  0  0  0  0  3  0  0  0  0  0  0
  191.4670  176.6150  147.1160 C   0  0  0  0  0  0  0  0  0  0  0  0
  192.6420  176.2380  147.8240 N   0  0  0  0  0  1  0  0  0  0  0  0
  190.4650  177.4980  145.1530 C   0  0  0  0  0  0  0  0  0  0  0  0
  190.2500  176.4740  147.6970 N   0  0  0  0  0  0  0  0  0  0  0  0
  191.5650  177.1160  145.8580 N   0  0  0  0  0  0  0  0  0  0  0  0
  185.2260  178.7910  146.9680 N   0  0  0  0  0  2  0  0  0  0  0  0
  186.5320  178.3420  146.7650 N   0  0  0  0  0  0  0  0  0  0  0  0
  184.6180  178.8150  145.6900 C   0  0  0  0  0  0  0  0  0  0  0  0
  183.4280  179.1740  145.4940 O   0  0  0  0  0  0  0  0  0  0  0  0
  186.7430  178.1010  145.5100 C   0  0  0  0  0  0  0  0  0  0  0  0
  187.9970  177.6410  144.9920 N   0  0  0  0  0  2  0  0  0  0  0  0
  185.5590  178.3690  144.6350 C   0  0  0  0  0  2  0  0  0  0  0  0
  190.8010  179.2840  143.6570 O   0  0  0  0  0  0  0  0  0  0  0  0
  190.6730  178.0350  143.7870 C   0  0  0  0  0  0  0  0  0  0  0  0
  191.9990  177.1970  141.9910 O   0  0  0  0  0  1  0  0  0  0  0  0
  190.7150  177.1590  142.5440 C   0  0  1  0  0  0  0  0  0  0  0  0
  190.4190  175.7190  142.9330 C   0  0  0  0  0  1  0  0  0  0  0  0
  189.6910  177.5980  141.5140 C   0  0  0  0  0  0  0  0  0  0  0  0
  188.4860  177.7450  141.8550 O   0  0  0  0  0  0  0  0  0  0  0  0
  190.0220  177.8090  140.1690 O   0  0  0  0  0  0  0  0  0  0  0  0
  189.1090  178.5200  138.0710 C   0  0  2  0  0  3  0  0  0  0  0  0
  190.0410  177.3490  137.8210 C   0  0  0  0  0  2  0  0  0  0  0  0
  189.2080  177.3920  139.0830 C   0  0  1  0  0  3  0  0  0  0  0  0
  187.9150  177.8420  136.1180 O   0  0  0  0  0  0  0  0  0  0  0  0
  186.6490  178.8310  137.7510 O   0  0  0  0  0  1  0  0  0  0  0  0
  187.8630  178.3630  137.2640 C   0  0  0  0  0  0  0  0  0  0  0  0
  1  2  2  0  0  0  0
  2  6  1  0  0  0  0
  3  6  2  0  0  0  0
  3  4  1  0  0  0  0
  5  1  1  0  0  0  0
  5  7  2  0  0  0  0
  7  3  1  0  0  0  0
  9  8  1  0  0  0  0
 10  8  1  0  0  0  0
 11 10  2  0  0  0  0
 12  9  2  0  0  0  0
 13 12  1  0  0  0  0
 13  1  1  0  0  0  0
 14 12  1  0  0  0  0
 14 10  1  0  0  0  0
 15 16  2  0  0  0  0
 16  5  1  0  0  0  0
 17 18  1  0  0  0  0
 18 19  1  1  0  0  0
 18 16  1  0  0  0  0
 20 21  2  0  0  0  0
 20 18  1  0  0  0  0
 22 20  1  0  0  0  0
 23 28  1  6  0  0  0
 23 25  1  0  0  0  0
 24 23  1  0  0  0  0
 24 25  1  0  0  0  0
 25 22  1  1  0  0  0
 26 28  2  0  0  0  0
 28 27  1  0  0  0  0
M  END
>  <MODEL>
1

>  <REMARK>
 VINA RESULT:      -8.8      0.000      0.000
  Name = 
  7 active torsions:
  status: ('A' for Active; 'I' for Inactive)
    1  A    between atoms: O_1  and  C_17
    2  A    between atoms: O_1  and  C_20
    3  A    between atoms: C_2  and  C_22
    4  A    between atoms: C_3  and  N_27
    5  A    between atoms: C_10  and  C_17
    6  A    between atoms: C_10  and  C_26
    7  A    between atoms: C_18  and  C_26
                            x       y       z     vdW  Elec       q    Type
                         _______ _______ _______ _____ _____    ______ ____

>  <TORSDO>
F 7

$$$$
=
 OpenBabel11042412023D

 28 30  0  0  1  0  0  0  0  0999 V2000
  189.3280  177.8240  140.5440 C   0  0  0  0  0  0  0  0  0  0  0  0
  188.3370  178.4720  139.7990 C   0  0  0  0  0  3  0  0  0  0  0  0
  186.7960  178.2340  141.5670 C   0  0  0  0  0  0  0  0  0  0  0  0
  185.4920  178.4380  142.0940 N   0  0  0  0  0  1  0  0  0  0  0  0
  189.0010  177.3960  141.8490 C   0  0  0  0  0  0  0  0  0  0  0  0
  187.1010  178.6690  140.3200 N   0  0  0  0  0  0  0  0  0  0  0  0
  187.7380  177.6020  142.3140 N   0  0  0  0  0  0  0  0  0  0  0  0
  190.7510  174.6780  137.8210 N   0  0  0  0  0  2  0  0  0  0  0  0
  190.1230  175.5940  138.6670 N   0  0  0  0  0  0  0  0  0  0  0  0
  192.1090  175.0700  137.7590 C   0  0  0  0  0  0  0  0  0  0  0  0
  192.9770  174.4620  137.0800 O   0  0  0  0  0  0  0  0  0  0  0  0
  190.9720  176.4700  139.1020 C   0  0  0  0  0  0  0  0  0  0  0  0
  190.6190  177.5460  139.9790 N   0  0  0  0  0  2  0  0  0  0  0  0
  192.3630  176.2720  138.5890 C   0  0  0  0  0  2  0  0  0  0  0  0
  190.1510  175.4640  142.5460 O   0  0  0  0  0  0  0  0  0  0  0  0
  189.9590  176.6970  142.7380 C   0  0  0  0  0  0  0  0  0  0  0  0
  192.0390  176.9940  143.8650 O   0  0  0  0  0  1  0  0  0  0  0  0
  190.6970  177.3870  143.8750 C   0  0  1  0  0  0  0  0  0  0  0  0
  190.6530  178.8920  143.6650 C   0  0  0  0  0  1  0  0  0  0  0  0
  190.0720  177.0720  145.2210 C   0  0  0  0  0  0  0  0  0  0  0  0
  190.8130  176.8220  146.2110 O   0  0  0  0  0  0  0  0  0  0  0  0
  188.6860  177.0000  145.4070 O   0  0  0  0  0  0  0  0  0  0  0  0
  186.5280  177.5310  146.3050 C   0  0  2  0  0  3  0  0  0  0  0  0
  187.5690  177.7450  147.3880 C   0  0  0  0  0  2  0  0  0  0  0  0
  187.9070  178.0580  145.9480 C   0  0  1  0  0  3  0  0  0  0  0  0
  185.5990  179.5350  147.2090 O   0  0  0  0  0  1  0  0  0  0  0  0
  184.5420  178.7120  145.3510 O   0  0  0  0  0  0  0  0  0  0  0  0
  185.5460  178.6550  146.3100 C   0  0  0  0  0  0  0  0  0  0  0  0
  1  5  1  0  0  0  0
  2  6  1  0  0  0  0
  2  1  2  0  0  0  0
  3  4  1  0  0  0  0
  3  7  1  0  0  0  0
  5  7  2  0  0  0  0
  5 16  1  0  0  0  0
  6  3  2  0  0  0  0
  8  9  1  0  0  0  0
  9 12  2  0  0  0  0
 10  8  1  0  0  0  0
 10 14  1  0  0  0  0
 11 10  2  0  0  0  0
 12 13  1  0  0  0  0
 13  1  1  0  0  0  0
 14 12  1  0  0  0  0
 15 16  2  0  0  0  0
 16 18  1  0  0  0  0
 17 18  1  0  0  0  0
 18 19  1  6  0  0  0
 18 20  1  0  0  0  0
 20 22  1  0  0  0  0
 20 21  2  0  0  0  0
 23 28  1  1  0  0  0
 23 24  1  0  0  0  0
 25 22  1  6  0  0  0
 25 23  1  0  0  0  0
 25 24  1  0  0  0  0
 27 28  2  0  0  0  0
 28 26  1  0  0  0  0
M  END
>  <MODEL>
2

>  <REMARK>
 VINA RESULT:      -8.5      3.402      7.700
  Name = 
  7 active torsions:
  status: ('A' for Active; 'I' for Inactive)
    1  A    between atoms: O_1  and  C_17
    2  A    between atoms: O_1  and  C_20
    3  A    between atoms: C_2  and  C_22
    4  A    between atoms: C_3  and  N_27
    5  A    between atoms: C_10  and  C_17
    6  A    between atoms: C_10  and  C_26
    7  A    between atoms: C_18  and  C_26
                            x       y       z     vdW  Elec       q    Type
                         _______ _______ _______ _____ _____    ______ ____

>  <TORSDO>
F 7

$$$$
=
 OpenBabel11042412023D

 28 30  0  0  1  0  0  0  0  0999 V2000
  189.0870  177.3280  145.7080 C   0  0  0  0  0  0  0  0  0  0  0  0
  189.0550  176.8350  147.0160 C   0  0  0  0  0  3  0  0  0  0  0  0
  191.4050  176.6440  147.0440 C   0  0  0  0  0  0  0  0  0  0  0  0
  192.5990  176.2870  147.7270 N   0  0  0  0  0  1  0  0  0  0  0  0
  190.3470  177.4830  145.0900 C   0  0  0  0  0  0  0  0  0  0  0  0
  190.2040  176.5090  147.6590 N   0  0  0  0  0  0  0  0  0  0  0  0
  191.4670  177.1210  145.7740 N   0  0  0  0  0  0  0  0  0  0  0  0
  185.1610  178.8210  147.0100 N   0  0  0  0  0  2  0  0  0  0  0  0
  186.4610  178.3650  146.7840 N   0  0  0  0  0  0  0  0  0  0  0  0
  184.5170  178.8090  145.7500 C   0  0  0  0  0  0  0  0  0  0  0  0
  183.3220  179.1630  145.5770 O   0  0  0  0  0  0  0  0  0  0  0  0
  186.6360  178.0880  145.5300 C   0  0  0  0  0  0  0  0  0  0  0  0
  187.8750  177.6110  144.9910 N   0  0  0  0  0  2  0  0  0  0  0  0
  185.4280  178.3310  144.6830 C   0  0  0  0  0  2  0  0  0  0  0  0
  190.5510  179.2450  143.5420 O   0  0  0  0  0  0  0  0  0  0  0  0
  190.5160  177.9940  143.7090 C   0  0  0  0  0  0  0  0  0  0  0  0
  191.9410  177.1010  142.0190 O   0  0  0  0  0  1  0  0  0  0  0  0
  190.6250  177.0880  142.4920 C   0  0  1  0  0  0  0  0  0  0  0  0
  190.2900  175.6600  142.8960 C   0  0  0  0  0  1  0  0  0  0  0  0
  189.6710  177.5110  141.3910 C   0  0  0  0  0  0  0  0  0  0  0  0
  190.1070  177.6850  140.2200 O   0  0  0  0  0  0  0  0  0  0  0  0
  188.3150  177.7660  141.6290 O   0  0  0  0  0  0  0  0  0  0  0  0
  186.1570  178.2040  140.6840 C   0  0  2  0  0  3  0  0  0  0  0  0
  186.4140  179.2110  141.7890 C   0  0  0  0  0  2  0  0  0  0  0  0
  187.5590  178.7380  140.9210 C   0  0  1  0  0  3  0  0  0  0  0  0
  184.6620  179.7610  139.6640 O   0  0  0  0  0  1  0  0  0  0  0  0
  185.9370  178.5280  138.2150 O   0  0  0  0  0  0  0  0  0  0  0  0
  185.5530  178.8860  139.5010 C   0  0  0  0  0  0  0  0  0  0  0  0
  1  2  2  0  0  0  0
  2  6  1  0  0  0  0
  3  6  2  0  0  0  0
  3  4  1  0  0  0  0
  5  1  1  0  0  0  0
  5  7  2  0  0  0  0
  7  3  1  0  0  0  0
  9  8  1  0  0  0  0
 10  8  1  0  0  0  0
 11 10  2  0  0  0  0
 12  9  2  0  0  0  0
 13 12  1  0  0  0  0
 13  1  1  0  0  0  0
 14 12  1  0  0  0  0
 14 10  1  0  0  0  0
 15 16  2  0  0  0  0
 16  5  1  0  0  0  0
 17 18  1  0  0  0  0
 18 19  1  1  0  0  0
 18 16  1  0  0  0  0
 20 22  1  0  0  0  0
 20 18  1  0  0  0  0
 21 20  2  0  0  0  0
 23 28  1  6  0  0  0
 23 25  1  0  0  0  0
 23 24  1  0  0  0  0
 25 22  1  1  0  0  0
 25 24  1  0  0  0  0
 27 28  2  0  0  0  0
 28 26  1  0  0  0  0
M  END
>  <MODEL>
3

>  <REMARK>
 VINA RESULT:      -8.4      1.332      1.935
  Name = 
  7 active torsions:
  status: ('A' for Active; 'I' for Inactive)
    1  A    between atoms: O_1  and  C_17
    2  A    between atoms: O_1  and  C_20
    3  A    between atoms: C_2  and  C_22
    4  A    between atoms: C_3  and  N_27
    5  A    between atoms: C_10  and  C_17
    6  A    between atoms: C_10  and  C_26
    7  A    between atoms: C_18  and  C_26
                            x       y       z     vdW  Elec       q    Type
                         _______ _______ _______ _____ _____    ______ ____

>  <TORSDO>
F 7

$$$$
=
 OpenBabel11042412023D

 28 30  0  0  1  0  0  0  0  0999 V2000
  189.1490  177.1140  145.5370 C   0  0  0  0  0  0  0  0  0  0  0  0
  189.2260  177.2220  146.9300 C   0  0  0  0  0  3  0  0  0  0  0  0
  191.4610  176.4700  146.9030 C   0  0  0  0  0  0  0  0  0  0  0  0
  192.6500  176.1330  147.6050 N   0  0  0  0  0  1  0  0  0  0  0  0
  190.2980  176.6790  144.8430 C   0  0  0  0  0  0  0  0  0  0  0  0
  190.3720  176.9070  147.5840 N   0  0  0  0  0  0  0  0  0  0  0  0
  191.4150  176.3550  145.5510 N   0  0  0  0  0  0  0  0  0  0  0  0
  185.3450  178.9120  146.8180 N   0  0  0  0  0  2  0  0  0  0  0  0
  186.6150  178.3750  146.5940 N   0  0  0  0  0  0  0  0  0  0  0  0
  184.6510  178.8000  145.5900 C   0  0  0  0  0  0  0  0  0  0  0  0
  183.4660  179.1890  145.4250 O   0  0  0  0  0  0  0  0  0  0  0  0
  186.7270  177.9630  145.3700 C   0  0  0  0  0  0  0  0  0  0  0  0
  187.9210  177.3770  144.8400 N   0  0  0  0  0  2  0  0  0  0  0  0
  185.4970  178.1740  144.5460 C   0  0  0  0  0  2  0  0  0  0  0  0
  190.2170  175.3560  142.8970 O   0  0  0  0  0  0  0  0  0  0  0  0
  190.3450  176.5200  143.3700 C   0  0  0  0  0  0  0  0  0  0  0  0
  190.8180  178.8460  143.1430 O   0  0  0  0  0  1  0  0  0  0  0  0
  190.5600  177.6820  142.4120 C   0  0  1  0  0  0  0  0  0  0  0  0
  191.7750  177.3990  141.5430 C   0  0  0  0  0  1  0  0  0  0  0  0
  189.3600  177.8900  141.5070 C   0  0  0  0  0  0  0  0  0  0  0  0
  188.4830  178.7410  141.8190 O   0  0  0  0  0  0  0  0  0  0  0  0
  189.1570  177.1370  140.3440 O   0  0  0  0  0  0  0  0  0  0  0  0
  189.1290  176.5320  138.0250 C   0  0  2  0  0  3  0  0  0  0  0  0
  188.0040  177.5180  138.2820 C   0  0  0  0  0  2  0  0  0  0  0  0
  189.3100  177.6560  139.0310 C   0  0  1  0  0  3  0  0  0  0  0  0
  191.0120  176.4870  136.5600 O   0  0  0  0  0  1  0  0  0  0  0  0
  189.2030  177.6670  135.7980 O   0  0  0  0  0  0  0  0  0  0  0  0
  189.8310  176.8770  136.7540 C   0  0  0  0  0  0  0  0  0  0  0  0
  1  2  2  0  0  0  0
  2  6  1  0  0  0  0
  3  6  2  0  0  0  0
  3  4  1  0  0  0  0
  5  1  1  0  0  0  0
  5  7  2  0  0  0  0
  7  3  1  0  0  0  0
  9  8  1  0  0  0  0
 10  8  1  0  0  0  0
 11 10  2  0  0  0  0
 12  9  2  0  0  0  0
 13 12  1  0  0  0  0
 13  1  1  0  0  0  0
 14 12  1  0  0  0  0
 14 10  1  0  0  0  0
 15 16  2  0  0  0  0
 16  5  1  0  0  0  0
 18 19  1  6  0  0  0
 18 17  1  0  0  0  0
 18 16  1  0  0  0  0
 20 21  2  0  0  0  0
 20 18  1  0  0  0  0
 22 20  1  0  0  0  0
 23 28  1  6  0  0  0
 23 24  1  0  0  0  0
 23 25  1  0  0  0  0
 24 25  1  0  0  0  0
 25 22  1  1  0  0  0
 26 28  1  0  0  0  0
 27 28  2  0  0  0  0
M  END
>  <MODEL>
4

>  <REMARK>
 VINA RESULT:      -8.3      1.106      1.628
  Name = 
  7 active torsions:
  status: ('A' for Active; 'I' for Inactive)
    1  A    between atoms: O_1  and  C_17
    2  A    between atoms: O_1  and  C_20
    3  A    between atoms: C_2  and  C_22
    4  A    between atoms: C_3  and  N_27
    5  A    between atoms: C_10  and  C_17
    6  A    between atoms: C_10  and  C_26
    7  A    between atoms: C_18  and  C_26
                            x       y       z     vdW  Elec       q    Type
                         _______ _______ _______ _____ _____    ______ ____

>  <TORSDO>
F 7

$$$$
=
 OpenBabel11042412023D

 28 30  0  0  1  0  0  0  0  0999 V2000
  189.8080  177.6450  140.7260 C   0  0  0  0  0  0  0  0  0  0  0  0
  189.8550  177.4950  139.3360 C   0  0  0  0  0  3  0  0  0  0  0  0
  192.1690  177.0520  139.4240 C   0  0  0  0  0  0  0  0  0  0  0  0
  193.3880  176.7530  138.7550 N   0  0  0  0  0  1  0  0  0  0  0  0
  191.0060  177.4680  141.4510 C   0  0  0  0  0  0  0  0  0  0  0  0
  191.0230  177.1980  138.7140 N   0  0  0  0  0  0  0  0  0  0  0  0
  192.1540  177.1930  140.7740 N   0  0  0  0  0  0  0  0  0  0  0  0
  185.8300  178.7480  139.2110 N   0  0  0  0  0  2  0  0  0  0  0  0
  187.1410  178.3700  139.5040 N   0  0  0  0  0  0  0  0  0  0  0  0
  185.2080  179.0030  140.4560 C   0  0  0  0  0  0  0  0  0  0  0  0
  184.0090  179.3680  140.5720 O   0  0  0  0  0  0  0  0  0  0  0  0
  187.3450  178.3830  140.7840 C   0  0  0  0  0  0  0  0  0  0  0  0
  188.5930  178.0280  141.3900 N   0  0  0  0  0  2  0  0  0  0  0  0
  186.1450  178.7830  141.5830 C   0  0  0  0  0  2  0  0  0  0  0  0
  191.6020  178.6570  143.3940 O   0  0  0  0  0  0  0  0  0  0  0  0
  191.0890  177.6020  142.9260 C   0  0  0  0  0  0  0  0  0  0  0  0
  189.7560  175.6480  143.2180 O   0  0  0  0  0  1  0  0  0  0  0  0
  190.6100  176.5280  143.8890 C   0  0  1  0  0  0  0  0  0  0  0  0
  191.8040  175.7290  144.3870 C   0  0  0  0  0  1  0  0  0  0  0  0
  189.9000  177.1280  145.0890 C   0  0  0  0  0  0  0  0  0  0  0  0
  190.3620  176.9380  146.2470 O   0  0  0  0  0  0  0  0  0  0  0  0
  188.7100  177.8580  144.9700 O   0  0  0  0  0  0  0  0  0  0  0  0
  186.4810  178.6270  145.3970 C   0  0  2  0  0  3  0  0  0  0  0  0
  186.4330  177.1370  145.1110 C   0  0  0  0  0  2  0  0  0  0  0  0
  187.6100  177.7220  145.8580 C   0  0  1  0  0  3  0  0  0  0  0  0
  184.4190  178.5070  146.5930 O   0  0  0  0  0  0  0  0  0  0  0  0
  186.0470  179.7920  147.5660 O   0  0  0  0  0  1  0  0  0  0  0  0
  185.5950  178.9550  146.5530 C   0  0  0  0  0  0  0  0  0  0  0  0
  1 13  1  0  0  0  0
  1  5  1  0  0  0  0
  2  1  2  0  0  0  0
  3  7  1  0  0  0  0
  4  3  1  0  0  0  0
  5 16  1  0  0  0  0
  6  2  1  0  0  0  0
  6  3  2  0  0  0  0
  7  5  2  0  0  0  0
  8  9  1  0  0  0  0
  8 10  1  0  0  0  0
  9 12  2  0  0  0  0
 10 11  2  0  0  0  0
 10 14  1  0  0  0  0
 12 13  1  0  0  0  0
 12 14  1  0  0  0  0
 16 15  2  0  0  0  0
 16 18  1  0  0  0  0
 17 18  1  0  0  0  0
 18 19  1  1  0  0  0
 18 20  1  0  0  0  0
 20 21  2  0  0  0  0
 22 20  1  0  0  0  0
 23 25  1  0  0  0  0
 23 28  1  1  0  0  0
 24 23  1  0  0  0  0
 24 25  1  0  0  0  0
 25 22  1  6  0  0  0
 28 26  2  0  0  0  0
 28 27  1  0  0  0  0
M  END
>  <MODEL>
5

>  <REMARK>
 VINA RESULT:      -8.1      3.428      6.349
  Name = 
  7 active torsions:
  status: ('A' for Active; 'I' for Inactive)
    1  A    between atoms: O_1  and  C_17
    2  A    between atoms: O_1  and  C_20
    3  A    between atoms: C_2  and  C_22
    4  A    between atoms: C_3  and  N_27
    5  A    between atoms: C_10  and  C_17
    6  A    between atoms: C_10  and  C_26
    7  A    between atoms: C_18  and  C_26
                            x       y       z     vdW  Elec       q    Type
                         _______ _______ _______ _____ _____    ______ ____

>  <TORSDO>
F 7

$$$$
=
 OpenBabel11042412023D

 28 30  0  0  1  0  0  0  0  0999 V2000
  187.9590  177.8970  141.3490 C   0  0  0  0  0  0  0  0  0  0  0  0
  187.4480  178.4960  140.1930 C   0  0  0  0  0  3  0  0  0  0  0  0
  189.2450  177.6580  138.9180 C   0  0  0  0  0  0  0  0  0  0  0  0
  189.9130  177.5380  137.6690 N   0  0  0  0  0  1  0  0  0  0  0  0
  189.1500  177.1480  141.2350 C   0  0  0  0  0  0  0  0  0  0  0  0
  188.0910  178.3640  139.0060 N   0  0  0  0  0  0  0  0  0  0  0  0
  189.7650  177.0650  140.0240 N   0  0  0  0  0  0  0  0  0  0  0  0
  183.7600  178.5050  142.5080 N   0  0  0  0  0  2  0  0  0  0  0  0
  185.0260  178.2980  141.9570 N   0  0  0  0  0  0  0  0  0  0  0  0
  183.9570  178.6290  143.9050 C   0  0  0  0  0  0  0  0  0  0  0  0
  183.0210  178.8240  144.7230 O   0  0  0  0  0  0  0  0  0  0  0  0
  185.9320  178.2920  142.8830 C   0  0  0  0  0  0  0  0  0  0  0  0
  187.3260  178.0880  142.6250 N   0  0  0  0  0  2  0  0  0  0  0  0
  185.3900  178.4970  144.2620 C   0  0  0  0  0  2  0  0  0  0  0  0
  189.2430  175.4240  142.8350 O   0  0  0  0  0  0  0  0  0  0  0  0
  189.7930  176.4670  142.3840 C   0  0  0  0  0  0  0  0  0  0  0  0
  191.6980  175.9180  143.7090 O   0  0  0  0  0  1  0  0  0  0  0  0
  191.0610  176.9750  143.0520 C   0  0  1  0  0  0  0  0  0  0  0  0
  192.0130  177.5030  141.9900 C   0  0  0  0  0  1  0  0  0  0  0  0
  190.7670  178.0960  144.0320 C   0  0  0  0  0  0  0  0  0  0  0  0
  191.6810  178.9070  144.3450 O   0  0  0  0  0  0  0  0  0  0  0  0
  189.5190  178.2460  144.6490 O   0  0  0  0  0  0  0  0  0  0  0  0
  188.0940  177.5050  146.4270 C   0  0  2  0  0  3  0  0  0  0  0  0
  189.4720  176.9040  146.6290 C   0  0  0  0  0  2  0  0  0  0  0  0
  189.3360  178.2960  146.0570 C   0  0  1  0  0  3  0  0  0  0  0  0
  187.9480  177.4820  148.8100 O   0  0  0  0  0  1  0  0  0  0  0  0
  186.5850  178.9920  147.7560 O   0  0  0  0  0  0  0  0  0  0  0  0
  187.5550  177.9970  147.7300 C   0  0  0  0  0  0  0  0  0  0  0  0
  1 13  1  0  0  0  0
  2  1  2  0  0  0  0
  3  6  2  0  0  0  0
  3  7  1  0  0  0  0
  4  3  1  0  0  0  0
  5  1  1  0  0  0  0
  5 16  1  0  0  0  0
  6  2  1  0  0  0  0
  7  5  2  0  0  0  0
  8 10  1  0  0  0  0
  9  8  1  0  0  0  0
  9 12  2  0  0  0  0
 10 14  1  0  0  0  0
 10 11  2  0  0  0  0
 12 14  1  0  0  0  0
 13 12  1  0  0  0  0
 16 15  2  0  0  0  0
 16 18  1  0  0  0  0
 18 19  1  6  0  0  0
 18 17  1  0  0  0  0
 18 20  1  0  0  0  0
 20 21  2  0  0  0  0
 20 22  1  0  0  0  0
 23 24  1  0  0  0  0
 23 28  1  1  0  0  0
 25 22  1  6  0  0  0
 25 23  1  0  0  0  0
 25 24  1  0  0  0  0
 28 27  2  0  0  0  0
 28 26  1  0  0  0  0
M  END
>  <MODEL>
6

>  <REMARK>
 VINA RESULT:      -7.7      3.378      6.310
  Name = 
  7 active torsions:
  status: ('A' for Active; 'I' for Inactive)
    1  A    between atoms: O_1  and  C_17
    2  A    between atoms: O_1  and  C_20
    3  A    between atoms: C_2  and  C_22
    4  A    between atoms: C_3  and  N_27
    5  A    between atoms: C_10  and  C_17
    6  A    between atoms: C_10  and  C_26
    7  A    between atoms: C_18  and  C_26
                            x       y       z     vdW  Elec       q    Type
                         _______ _______ _______ _____ _____    ______ ____

>  <TORSDO>
F 7

$$$$
=
 OpenBabel11042412023D

 28 30  0  0  1  0  0  0  0  0999 V2000
  187.9100  178.5080  141.0240 C   0  0  0  0  0  0  0  0  0  0  0  0
  186.6280  179.0160  141.2620 C   0  0  0  0  0  3  0  0  0  0  0  0
  186.5140  177.8710  143.3190 C   0  0  0  0  0  0  0  0  0  0  0  0
  185.7940  177.5360  144.4990 N   0  0  0  0  0  1  0  0  0  0  0  0
  188.4800  177.6680  142.0040 C   0  0  0  0  0  0  0  0  0  0  0  0
  185.9590  178.6960  142.3970 N   0  0  0  0  0  0  0  0  0  0  0  0
  187.7560  177.3630  143.1160 N   0  0  0  0  0  0  0  0  0  0  0  0
  187.5140  176.8400  136.9740 N   0  0  0  0  0  2  0  0  0  0  0  0
  187.4920  177.2500  138.3090 N   0  0  0  0  0  0  0  0  0  0  0  0
  188.5350  177.5940  136.3490 C   0  0  0  0  0  0  0  0  0  0  0  0
  188.8350  177.4820  135.1320 O   0  0  0  0  0  0  0  0  0  0  0  0
  188.3930  178.1570  138.5220 C   0  0  0  0  0  0  0  0  0  0  0  0
  188.6000  178.7820  139.7950 N   0  0  0  0  0  2  0  0  0  0  0  0
  189.1890  178.5160  137.3080 C   0  0  0  0  0  2  0  0  0  0  0  0
  190.0030  176.2050  140.9630 O   0  0  0  0  0  0  0  0  0  0  0  0
  189.8280  177.0640  141.8710 C   0  0  0  0  0  0  0  0  0  0  0  0
  192.1920  177.3050  142.0740 O   0  0  0  0  0  1  0  0  0  0  0  0
  190.9930  177.4150  142.7840 C   0  0  1  0  0  0  0  0  0  0  0  0
  190.8560  178.8580  143.2440 C   0  0  0  0  0  1  0  0  0  0  0  0
  191.0310  176.5220  144.0110 C   0  0  0  0  0  0  0  0  0  0  0  0
  191.9880  175.7150  144.1660 O   0  0  0  0  0  0  0  0  0  0  0  0
  190.0110  176.5220  144.9710 O   0  0  0  0  0  0  0  0  0  0  0  0
  189.0170  176.8550  147.1260 C   0  0  2  0  0  3  0  0  0  0  0  0
  190.5150  176.6940  147.3040 C   0  0  0  0  0  2  0  0  0  0  0  0
  189.9740  177.4040  146.0830 C   0  0  1  0  0  3  0  0  0  0  0  0
  189.2450  178.4380  148.8970 O   0  0  0  0  0  1  0  0  0  0  0  0
  187.2280  178.4610  147.8120 O   0  0  0  0  0  0  0  0  0  0  0  0
  188.5150  177.9680  147.9850 C   0  0  0  0  0  0  0  0  0  0  0  0
  1  2  2  0  0  0  0
  1  5  1  0  0  0  0
  2  6  1  0  0  0  0
  3  4  1  0  0  0  0
  5  7  2  0  0  0  0
  6  3  2  0  0  0  0
  7  3  1  0  0  0  0
  8  9  1  0  0  0  0
  9 12  2  0  0  0  0
 10  8  1  0  0  0  0
 10 14  1  0  0  0  0
 11 10  2  0  0  0  0
 12 13  1  0  0  0  0
 13  1  1  0  0  0  0
 14 12  1  0  0  0  0
 15 16  2  0  0  0  0
 16  5  1  0  0  0  0
 16 18  1  0  0  0  0
 17 18  1  0  0  0  0
 18 19  1  1  0  0  0
 18 20  1  0  0  0  0
 20 21  2  0  0  0  0
 20 22  1  0  0  0  0
 23 24  1  0  0  0  0
 23 28  1  1  0  0  0
 25 22  1  6  0  0  0
 25 23  1  0  0  0  0
 25 24  1  0  0  0  0
 27 28  2  0  0  0  0
 28 26  1  0  0  0  0
M  END
>  <MODEL>
7

>  <REMARK>
 VINA RESULT:      -7.5      3.073      7.384
  Name = 
  7 active torsions:
  status: ('A' for Active; 'I' for Inactive)
    1  A    between atoms: O_1  and  C_17
    2  A    between atoms: O_1  and  C_20
    3  A    between atoms: C_2  and  C_22
    4  A    between atoms: C_3  and  N_27
    5  A    between atoms: C_10  and  C_17
    6  A    between atoms: C_10  and  C_26
    7  A    between atoms: C_18  and  C_26
                            x       y       z     vdW  Elec       q    Type
                         _______ _______ _______ _____ _____    ______ ____

>  <TORSDO>
F 7

$$$$
=
 OpenBabel11042412023D

 28 30  0  0  1  0  0  0  0  0999 V2000
  190.0400  176.2840  138.8640 C   0  0  0  0  0  0  0  0  0  0  0  0
  189.0610  176.3410  137.8670 C   0  0  0  0  0  3  0  0  0  0  0  0
  187.8020  177.8780  139.1380 C   0  0  0  0  0  0  0  0  0  0  0  0
  186.6480  178.6950  139.2830 N   0  0  0  0  0  1  0  0  0  0  0  0
  189.8600  177.0810  140.0150 C   0  0  0  0  0  0  0  0  0  0  0  0
  187.9700  177.1340  138.0160 N   0  0  0  0  0  0  0  0  0  0  0  0
  188.7370  177.8420  140.1220 N   0  0  0  0  0  0  0  0  0  0  0  0
  193.9360  176.6840  136.8640 N   0  0  0  0  0  2  0  0  0  0  0  0
  192.6640  176.7400  137.4370 N   0  0  0  0  0  0  0  0  0  0  0  0
  194.4550  175.4080  137.1860 C   0  0  0  0  0  0  0  0  0  0  0  0
  195.5950  175.0110  136.8270 O   0  0  0  0  0  0  0  0  0  0  0  0
  192.3920  175.6320  138.0520 C   0  0  0  0  0  0  0  0  0  0  0  0
  191.1640  175.3960  138.7500 N   0  0  0  0  0  2  0  0  0  0  0  0
  193.4910  174.6190  137.9890 C   0  0  0  0  0  2  0  0  0  0  0  0
  191.9840  177.5510  140.9160 O   0  0  0  0  0  0  0  0  0  0  0  0
  190.8230  177.1080  141.1420 C   0  0  0  0  0  0  0  0  0  0  0  0
  189.7890  175.4030  142.4480 O   0  0  0  0  0  1  0  0  0  0  0  0
  190.4860  176.6110  142.5390 C   0  0  1  0  0  0  0  0  0  0  0  0
  191.7730  176.3490  143.3050 C   0  0  0  0  0  1  0  0  0  0  0  0
  189.6660  177.6280  143.3130 C   0  0  0  0  0  0  0  0  0  0  0  0
  190.0440  178.8300  143.3570 O   0  0  0  0  0  0  0  0  0  0  0  0
  188.5140  177.2770  144.0280 O   0  0  0  0  0  0  0  0  0  0  0  0
  186.5060  177.5480  145.3060 C   0  0  2  0  0  3  0  0  0  0  0  0
  187.6800  177.4620  146.2630 C   0  0  0  0  0  2  0  0  0  0  0  0
  187.8470  178.1500  144.9270 C   0  0  1  0  0  3  0  0  0  0  0  0
  184.7830  179.1510  144.9060 O   0  0  0  0  0  0  0  0  0  0  0  0
  185.6000  179.0990  147.0450 O   0  0  0  0  0  1  0  0  0  0  0  0
  185.5720  178.6300  145.7370 C   0  0  0  0  0  0  0  0  0  0  0  0
  1  5  1  0  0  0  0
  2  6  1  0  0  0  0
  2  1  2  0  0  0  0
  3  4  1  0  0  0  0
  3  7  1  0  0  0  0
  5  7  2  0  0  0  0
  5 16  1  0  0  0  0
  6  3  2  0  0  0  0
  8 10  1  0  0  0  0
  8  9  1  0  0  0  0
  9 12  2  0  0  0  0
 10 14  1  0  0  0  0
 11 10  2  0  0  0  0
 12 13  1  0  0  0  0
 13  1  1  0  0  0  0
 14 12  1  0  0  0  0
 15 16  2  0  0  0  0
 16 18  1  0  0  0  0
 17 18  1  0  0  0  0
 18 19  1  1  0  0  0
 18 20  1  0  0  0  0
 20 21  2  0  0  0  0
 20 22  1  0  0  0  0
 23 28  1  1  0  0  0
 23 24  1  0  0  0  0
 25 22  1  6  0  0  0
 25 23  1  0  0  0  0
 25 24  1  0  0  0  0
 26 28  2  0  0  0  0
 28 27  1  0  0  0  0
M  END
>  <MODEL>
8

>  <REMARK>
 VINA RESULT:      -7.5      4.050      8.406
  Name = 
  7 active torsions:
  status: ('A' for Active; 'I' for Inactive)
    1  A    between atoms: O_1  and  C_17
    2  A    between atoms: O_1  and  C_20
    3  A    between atoms: C_2  and  C_22
    4  A    between atoms: C_3  and  N_27
    5  A    between atoms: C_10  and  C_17
    6  A    between atoms: C_10  and  C_26
    7  A    between atoms: C_18  and  C_26
                            x       y       z     vdW  Elec       q    Type
                         _______ _______ _______ _____ _____    ______ ____

>  <TORSDO>
F 7

$$$$
=
 OpenBabel11042412023D

 28 30  0  0  1  0  0  0  0  0999 V2000
  187.8300  177.7890  142.3280 C   0  0  0  0  0  0  0  0  0  0  0  0
  186.9310  178.5310  141.5550 C   0  0  0  0  0  3  0  0  0  0  0  0
  188.2850  178.2560  139.6450 C   0  0  0  0  0  0  0  0  0  0  0  0
  188.5240  178.5000  138.2640 N   0  0  0  0  0  1  0  0  0  0  0  0
  188.9770  177.2690  141.6900 C   0  0  0  0  0  0  0  0  0  0  0  0
  187.1670  178.7460  140.2370 N   0  0  0  0  0  0  0  0  0  0  0  0
  189.1760  177.5330  140.3700 N   0  0  0  0  0  0  0  0  0  0  0  0
  184.5760  179.0100  145.0220 N   0  0  0  0  0  2  0  0  0  0  0  0
  185.5030  178.7030  144.0240 N   0  0  0  0  0  0  0  0  0  0  0  0
  185.1150  178.4980  146.2270 C   0  0  0  0  0  0  0  0  0  0  0  0
  184.5390  178.5960  147.3420 O   0  0  0  0  0  0  0  0  0  0  0  0
  186.5190  178.0730  144.5230 C   0  0  0  0  0  0  0  0  0  0  0  0
  187.6270  177.6140  143.7390 N   0  0  0  0  0  2  0  0  0  0  0  0
  186.4250  177.8430  145.9980 C   0  0  0  0  0  2  0  0  0  0  0  0
  189.7890  175.2360  142.5550 O   0  0  0  0  0  0  0  0  0  0  0  0
  190.0060  176.4690  142.3970 C   0  0  0  0  0  0  0  0  0  0  0  0
  192.0530  176.0580  143.5470 O   0  0  0  0  0  1  0  0  0  0  0  0
  191.2890  177.0670  142.9550 C   0  0  1  0  0  0  0  0  0  0  0  0
  192.1040  177.6600  141.8160 C   0  0  0  0  0  1  0  0  0  0  0  0
  191.0030  178.1640  143.9630 C   0  0  0  0  0  0  0  0  0  0  0  0
  191.4120  179.3370  143.7430 O   0  0  0  0  0  0  0  0  0  0  0  0
  190.3350  177.9200  145.1700 O   0  0  0  0  0  0  0  0  0  0  0  0
  191.3500  177.1870  147.2120 C   0  0  2  0  0  3  0  0  0  0  0  0
  189.8540  176.9530  147.3050 C   0  0  0  0  0  2  0  0  0  0  0  0
  190.5630  176.7770  145.9810 C   0  0  1  0  0  3  0  0  0  0  0  0
  191.8080  174.8480  147.3480 O   0  0  0  0  0  0  0  0  0  0  0  0
  193.0530  176.1760  148.7390 O   0  0  0  0  0  1  0  0  0  0  0  0
  192.0880  176.0070  147.7540 C   0  0  0  0  0  0  0  0  0  0  0  0
  1 13  1  0  0  0  0
  2  1  2  0  0  0  0
  3  6  2  0  0  0  0
  3  7  1  0  0  0  0
  4  3  1  0  0  0  0
  5  1  1  0  0  0  0
  5 16  1  0  0  0  0
  6  2  1  0  0  0  0
  7  5  2  0  0  0  0
  8 10  1  0  0  0  0
  9 12  2  0  0  0  0
  9  8  1  0  0  0  0
 10 11  2  0  0  0  0
 12 14  1  0  0  0  0
 13 12  1  0  0  0  0
 14 10  1  0  0  0  0
 16 15  2  0  0  0  0
 16 18  1  0  0  0  0
 18 19  1  6  0  0  0
 18 17  1  0  0  0  0
 18 20  1  0  0  0  0
 20 22  1  0  0  0  0
 21 20  2  0  0  0  0
 23 24  1  0  0  0  0
 23 28  1  1  0  0  0
 25 22  1  6  0  0  0
 25 23  1  0  0  0  0
 25 24  1  0  0  0  0
 26 28  2  0  0  0  0
 28 27  1  0  0  0  0
M  END
>  <MODEL>
9

>  <REMARK>
 VINA RESULT:      -7.2      3.022      6.393
  Name = 
  7 active torsions:
  status: ('A' for Active; 'I' for Inactive)
    1  A    between atoms: O_1  and  C_17
    2  A    between atoms: O_1  and  C_20
    3  A    between atoms: C_2  and  C_22
    4  A    between atoms: C_3  and  N_27
    5  A    between atoms: C_10  and  C_17
    6  A    between atoms: C_10  and  C_26
    7  A    between atoms: C_18  and  C_26
                            x       y       z     vdW  Elec       q    Type
                         _______ _______ _______ _____ _____    ______ ____

>  <TORSDO>
F 7

$$$$
