=
 OpenBabel11032419493D

 27 30  0  0  1  0  0  0  0  0999 V2000
  184.0190  178.3620  142.7080 N   0  0  0  0  0  0  0  0  0  0  0  0
  186.4400  178.0700  143.4380 C   0  0  0  0  0  0  0  0  0  0  0  0
  183.3860  178.7020  143.7860 C   0  0  1  0  0  3  0  0  0  0  0  0
  185.2800  179.1440  145.3650 C   0  0  0  0  0  3  0  0  0  0  0  0
  184.0290  179.3040  144.9560 C   0  0  0  0  0  3  0  0  0  0  0  0
  186.3490  178.3260  144.7680 C   0  0  0  0  0  0  0  0  0  0  0  0
  185.4070  178.3980  142.4990 N   0  0  0  0  0  0  0  0  0  0  0  0
  187.6800  177.5310  142.8360 C   0  0  0  0  0  0  0  0  0  0  0  0
  191.3180  177.0380  140.4170 O   0  0  0  0  0  0  0  0  0  0  0  0
  190.2330  175.9470  142.0390 N   0  0  0  0  0  0  0  0  0  0  0  0
  188.2820  178.3040  141.8540 C   0  0  0  0  0  3  0  0  0  0  0  0
  190.3350  177.0050  141.2020 C   0  0  0  0  0  0  0  0  0  0  0  0
  189.3160  175.6260  142.9820 C   0  0  0  0  0  3  0  0  0  0  0  0
  189.4440  178.0690  141.1380 C   0  0  0  0  0  3  0  0  0  0  0  0
  188.1790  176.3350  143.3390 C   0  0  0  0  0  3  0  0  0  0  0  0
  187.1870  177.1400  146.8800 C   0  0  0  0  0  3  0  0  0  0  0  0
  188.7300  178.2100  145.6770 C   0  0  0  0  0  3  0  0  0  0  0  0
  189.2940  177.6320  146.7990 C   0  0  0  0  0  3  0  0  0  0  0  0
  188.3580  176.9860  147.5220 N   0  0  0  0  0  2  0  0  0  0  0  0
  187.3910  177.8760  145.7300 C   0  0  0  0  0  0  0  0  0  0  0  0
  181.8830  178.6220  143.7870 C   0  0  0  0  0  2  0  0  0  0  0  0
  181.2370  179.3340  142.6760 N   0  0  0  0  0  0  0  0  0  0  0  0
  179.3170  180.6770  141.9620 C   0  0  0  0  0  2  0  0  0  0  0  0
  178.9310  179.6750  141.0520 O   0  0  0  0  0  0  0  0  0  0  0  0
  180.1110  179.1360  140.5100 C   0  0  0  0  0  2  0  0  0  0  0  0
  180.0430  180.0430  143.1500 C   0  0  0  0  0  2  0  0  0  0  0  0
  180.8900  178.3980  141.6010 C   0  0  0  0  0  2  0  0  0  0  0  0
  1  3  1  0  0  0  0
  2  6  2  0  0  0  0
  3 21  1  6  0  0  0
  3  5  1  0  0  0  0
  5  4  2  0  0  0  0
  6  4  1  0  0  0  0
  6 20  1  0  0  0  0
  7  1  2  0  0  0  0
  7  2  1  0  0  0  0
  8 15  2  0  0  0  0
  8  2  1  0  0  0  0
  9 12  2  0  0  0  0
 10 13  2  0  0  0  0
 11  8  1  0  0  0  0
 12 10  1  0  0  0  0
 13 15  1  0  0  0  0
 14 12  1  0  0  0  0
 14 11  2  0  0  0  0
 16 19  1  0  0  0  0
 17 20  1  0  0  0  0
 17 18  2  0  0  0  0
 18 19  1  0  0  0  0
 20 16  2  0  0  0  0
 22 26  1  0  0  0  0
 22 21  1  0  0  0  0
 23 26  1  0  0  0  0
 24 23  1  0  0  0  0
 25 24  1  0  0  0  0
 25 27  1  0  0  0  0
 27 22  1  0  0  0  0
M  END
>  <MODEL>
1

>  <REMARK>
 VINA RESULT:      -8.3      0.000      0.000
  Name = 
  4 active torsions:
  status: ('A' for Active; 'I' for Inactive)
    1  A    between atoms: C_2  and  C_9
    2  A    between atoms: C_7  and  N_8
    3  A    between atoms: C_7  and  C_18
    4  A    between atoms: C_20  and  C_25
                            x       y       z     vdW  Elec       q    Type
                         _______ _______ _______ _____ _____    ______ ____

>  <TORSDO>
F 4

$$$$
=
 OpenBabel11032419493D

 27 30  0  0  1  0  0  0  0  0999 V2000
  190.7940  176.9600  142.0870 N   0  0  0  0  0  0  0  0  0  0  0  0
  190.0660  176.7410  139.6580 C   0  0  0  0  0  0  0  0  0  0  0  0
  189.9100  177.7360  142.6300 C   0  0  1  0  0  3  0  0  0  0  0  0
  188.1700  177.8520  140.8330 C   0  0  0  0  0  3  0  0  0  0  0  0
  188.5620  177.9380  142.0960 C   0  0  0  0  0  3  0  0  0  0  0  0
  188.9700  177.5410  139.6370 C   0  0  0  0  0  0  0  0  0  0  0  0
  190.6780  176.2730  140.8680 N   0  0  0  0  0  0  0  0  0  0  0  0
  190.6470  176.1900  138.4140 C   0  0  0  0  0  0  0  0  0  0  0  0
  193.3750  175.2430  135.0980 O   0  0  0  0  0  0  0  0  0  0  0  0
  191.3370  174.6510  135.8020 N   0  0  0  0  0  0  0  0  0  0  0  0
  191.9290  176.6090  138.0860 C   0  0  0  0  0  3  0  0  0  0  0  0
  192.4700  175.3740  135.9620 C   0  0  0  0  0  0  0  0  0  0  0  0
  190.2050  174.5700  136.5410 C   0  0  0  0  0  3  0  0  0  0  0  0
  192.7230  176.2510  137.0090 C   0  0  0  0  0  3  0  0  0  0  0  0
  189.9000  175.2540  137.7080 C   0  0  0  0  0  3  0  0  0  0  0  0
  188.9610  179.1260  137.6230 C   0  0  0  0  0  3  0  0  0  0  0  0
  187.2290  177.7300  137.7810 C   0  0  0  0  0  3  0  0  0  0  0  0
  187.1030  178.5480  136.6740 C   0  0  0  0  0  3  0  0  0  0  0  0
  188.1520  179.3880  136.5820 N   0  0  0  0  0  0  0  0  0  0  0  0
  188.4240  178.0960  138.3690 C   0  0  2  0  0  3  0  0  0  0  0  0
  190.2230  178.3490  143.9690 C   0  0  0  0  0  2  0  0  0  0  0  0
  190.2580  177.3890  145.0820 N   0  0  0  0  0  0  0  0  0  0  0  0
  189.5340  176.8990  147.3700 C   0  0  0  0  0  2  0  0  0  0  0  0
  190.8710  176.8870  147.8100 O   0  0  0  0  0  0  0  0  0  0  0  0
  191.6340  176.2960  146.7880 C   0  0  0  0  0  2  0  0  0  0  0  0
  189.3930  177.8450  146.1750 C   0  0  0  0  0  2  0  0  0  0  0  0
  191.6340  177.2020  145.5540 C   0  0  0  0  0  2  0  0  0  0  0  0
  1  3  1  0  0  0  0
  2  7  1  0  0  0  0
  3 21  1  1  0  0  0
  4  5  2  0  0  0  0
  5  3  1  0  0  0  0
  6  2  2  0  0  0  0
  6  4  1  0  0  0  0
  7  1  2  0  0  0  0
  8  2  1  0  0  0  0
  9 12  2  0  0  0  0
 10 12  1  0  0  0  0
 10 13  2  0  0  0  0
 11  8  1  0  0  0  0
 12 14  1  0  0  0  0
 13 15  1  0  0  0  0
 14 11  2  0  0  0  0
 15  8  2  0  0  0  0
 16 20  1  0  0  0  0
 17 20  1  0  0  0  0
 18 17  2  0  0  0  0
 19 18  1  0  0  0  0
 19 16  2  0  0  0  0
 20  6  1  1  0  0  0
 21 22  1  0  0  0  0
 22 27  1  0  0  0  0
 22 26  1  0  0  0  0
 23 24  1  0  0  0  0
 25 24  1  0  0  0  0
 26 23  1  0  0  0  0
 27 25  1  0  0  0  0
M  END
>  <MODEL>
2

>  <REMARK>
 VINA RESULT:      -8.2      5.626      8.390
  Name = 
  4 active torsions:
  status: ('A' for Active; 'I' for Inactive)
    1  A    between atoms: C_2  and  C_9
    2  A    between atoms: C_7  and  N_8
    3  A    between atoms: C_7  and  C_18
    4  A    between atoms: C_20  and  C_25
                            x       y       z     vdW  Elec       q    Type
                         _______ _______ _______ _____ _____    ______ ____

>  <TORSDO>
F 4

$$$$
=
 OpenBabel11032419493D

 27 30  0  0  0  0  0  0  0  0999 V2000
  186.6660  178.2510  139.5510 N   0  0  0  0  0  0  0  0  0  0  0  0
  187.5570  178.2000  141.9350 C   0  0  0  0  0  0  0  0  0  0  0  0
  185.4180  178.5800  139.6700 C   0  0  0  0  0  0  0  0  0  0  0  0
  185.3010  179.2490  142.0810 C   0  0  0  0  0  3  0  0  0  0  0  0
  184.8650  179.2830  140.8290 C   0  0  0  0  0  3  0  0  0  0  0  0
  186.4390  178.5020  142.6420 C   0  0  0  0  0  0  0  0  0  0  0  0
  187.6720  178.3980  140.5200 N   0  0  0  0  0  2  0  0  0  0  0  0
  188.7970  177.7470  142.6020 C   0  0  0  0  0  0  0  0  0  0  0  0
  192.1210  175.2830  144.0900 O   0  0  0  0  0  0  0  0  0  0  0  0
  191.5100  177.4340  144.0880 N   0  0  0  0  0  0  0  0  0  0  0  0
  189.0900  176.3930  142.5210 C   0  0  0  0  0  3  0  0  0  0  0  0
  191.2760  176.1470  143.7410 C   0  0  0  0  0  0  0  0  0  0  0  0
  190.8100  178.5710  143.8660 C   0  0  0  0  0  3  0  0  0  0  0  0
  190.1760  175.6950  143.0230 C   0  0  0  0  0  3  0  0  0  0  0  0
  189.6020  178.7100  143.2000 C   0  0  0  0  0  3  0  0  0  0  0  0
  186.7910  177.0590  144.7310 C   0  0  0  0  0  3  0  0  0  0  0  0
  185.6060  178.9260  145.0170 C   0  0  0  0  0  3  0  0  0  0  0  0
  185.7090  178.2220  146.2010 C   0  0  0  0  0  3  0  0  0  0  0  0
  186.4260  177.0950  146.0240 N   0  0  0  0  0  2  0  0  0  0  0  0
  186.3130  178.1850  144.0900 C   0  0  0  0  0  0  0  0  0  0  0  0
  184.5090  178.3700  138.4890 C   0  0  0  0  0  2  0  0  0  0  0  0
  183.1440  177.9530  138.8410 N   0  0  0  0  0  0  0  0  0  0  0  0
  181.6280  176.0670  139.2180 C   0  0  0  0  0  2  0  0  0  0  0  0
  180.8230  176.4730  138.1380 O   0  0  0  0  0  0  0  0  0  0  0  0
  180.7950  177.8790  138.1530 C   0  0  0  0  0  2  0  0  0  0  0  0
  183.0770  176.4930  138.9720 C   0  0  0  0  0  2  0  0  0  0  0  0
  182.1880  178.4270  137.8350 C   0  0  0  0  0  2  0  0  0  0  0  0
  1  3  2  0  0  0  0
  1  7  1  0  0  0  0
  2  8  1  0  0  0  0
  2  6  2  0  0  0  0
  3  5  1  0  0  0  0
  4  6  1  0  0  0  0
  5  4  2  0  0  0  0
  6 20  1  0  0  0  0
  7  2  1  0  0  0  0
  8 15  2  0  0  0  0
 11  8  1  0  0  0  0
 11 14  2  0  0  0  0
 12 10  1  0  0  0  0
 12  9  2  0  0  0  0
 13 10  2  0  0  0  0
 14 12  1  0  0  0  0
 15 13  1  0  0  0  0
 16 19  1  0  0  0  0
 17 18  2  0  0  0  0
 19 18  1  0  0  0  0
 20 16  2  0  0  0  0
 20 17  1  0  0  0  0
 21 22  1  0  0  0  0
 21  3  1  0  0  0  0
 22 26  1  0  0  0  0
 24 25  1  0  0  0  0
 24 23  1  0  0  0  0
 26 23  1  0  0  0  0
 27 25  1  0  0  0  0
 27 22  1  0  0  0  0
M  END
>  <MODEL>
3

>  <REMARK>
 VINA RESULT:      -7.9      2.920      3.680
  Name = 
  4 active torsions:
  status: ('A' for Active; 'I' for Inactive)
    1  A    between atoms: C_2  and  C_9
    2  A    between atoms: C_7  and  N_8
    3  A    between atoms: C_7  and  C_18
    4  A    between atoms: C_20  and  C_25
                            x       y       z     vdW  Elec       q    Type
                         _______ _______ _______ _____ _____    ______ ____

>  <TORSDO>
F 4

$$$$
=
 OpenBabel11032419493D

 27 30  0  0  0  0  0  0  0  0999 V2000
  186.6880  178.2790  139.5180 N   0  0  0  0  0  0  0  0  0  0  0  0
  187.5650  178.2240  141.9070 C   0  0  0  0  0  0  0  0  0  0  0  0
  185.4440  178.6270  139.6290 C   0  0  0  0  0  0  0  0  0  0  0  0
  185.3240  179.3070  142.0370 C   0  0  0  0  0  3  0  0  0  0  0  0
  184.8960  179.3420  140.7830 C   0  0  0  0  0  3  0  0  0  0  0  0
  186.4480  178.5450  142.6070 C   0  0  0  0  0  0  0  0  0  0  0  0
  187.6910  178.4150  140.4920 N   0  0  0  0  0  2  0  0  0  0  0  0
  188.7950  177.7540  142.5830 C   0  0  0  0  0  0  0  0  0  0  0  0
  192.0790  175.2490  144.0890 O   0  0  0  0  0  0  0  0  0  0  0  0
  191.4920  177.4060  144.0900 N   0  0  0  0  0  0  0  0  0  0  0  0
  189.0740  176.3980  142.4980 C   0  0  0  0  0  3  0  0  0  0  0  0
  191.2460  176.1230  143.7360 C   0  0  0  0  0  0  0  0  0  0  0  0
  190.8060  178.5520  143.8670 C   0  0  0  0  0  3  0  0  0  0  0  0
  190.1470  175.6870  143.0070 C   0  0  0  0  0  3  0  0  0  0  0  0
  189.6040  178.7060  143.1910 C   0  0  0  0  0  3  0  0  0  0  0  0
  186.8050  177.1260  144.7110 C   0  0  0  0  0  3  0  0  0  0  0  0
  185.5720  178.9660  144.9660 C   0  0  0  0  0  3  0  0  0  0  0  0
  185.6750  178.2730  146.1580 C   0  0  0  0  0  3  0  0  0  0  0  0
  186.4220  177.1630  145.9990 N   0  0  0  0  0  2  0  0  0  0  0  0
  186.3090  178.2350  144.0560 C   0  0  0  0  0  0  0  0  0  0  0  0
  184.5380  178.4260  138.4440 C   0  0  0  0  0  2  0  0  0  0  0  0
  184.5680  177.0690  137.8810 N   0  0  0  0  0  0  0  0  0  0  0  0
  184.5760  175.7130  135.8410 C   0  0  0  0  0  2  0  0  0  0  0  0
  183.3440  175.1340  136.1980 O   0  0  0  0  0  0  0  0  0  0  0  0
  183.3640  174.9560  137.5940 C   0  0  0  0  0  2  0  0  0  0  0  0
  184.6680  177.1280  136.4180 C   0  0  0  0  0  2  0  0  0  0  0  0
  183.3750  176.3200  138.2880 C   0  0  0  0  0  2  0  0  0  0  0  0
  1  3  2  0  0  0  0
  1  7  1  0  0  0  0
  2  8  1  0  0  0  0
  2  6  2  0  0  0  0
  3  5  1  0  0  0  0
  4  6  1  0  0  0  0
  5  4  2  0  0  0  0
  6 20  1  0  0  0  0
  7  2  1  0  0  0  0
  8 15  2  0  0  0  0
 11  8  1  0  0  0  0
 11 14  2  0  0  0  0
 12  9  2  0  0  0  0
 12 10  1  0  0  0  0
 13 10  2  0  0  0  0
 14 12  1  0  0  0  0
 15 13  1  0  0  0  0
 16 19  1  0  0  0  0
 17 18  2  0  0  0  0
 19 18  1  0  0  0  0
 20 16  2  0  0  0  0
 20 17  1  0  0  0  0
 21  3  1  0  0  0  0
 22 27  1  0  0  0  0
 22 21  1  0  0  0  0
 23 24  1  0  0  0  0
 23 26  1  0  0  0  0
 24 25  1  0  0  0  0
 25 27  1  0  0  0  0
 26 22  1  0  0  0  0
M  END
>  <MODEL>
4

>  <REMARK>
 VINA RESULT:      -7.8      3.678      4.535
  Name = 
  4 active torsions:
  status: ('A' for Active; 'I' for Inactive)
    1  A    between atoms: C_2  and  C_9
    2  A    between atoms: C_7  and  N_8
    3  A    between atoms: C_7  and  C_18
    4  A    between atoms: C_20  and  C_25
                            x       y       z     vdW  Elec       q    Type
                         _______ _______ _______ _____ _____    ______ ____

>  <TORSDO>
F 4

$$$$
=
 OpenBabel11032419493D

 27 30  0  0  0  0  0  0  0  0999 V2000
  191.5400  176.7430  138.9300 N   0  0  0  0  0  0  0  0  0  0  0  0
  190.5120  177.4090  141.1610 C   0  0  0  0  0  0  0  0  0  0  0  0
  190.5950  176.9230  138.0620 C   0  0  0  0  0  0  0  0  0  0  0  0
  188.8890  178.1520  139.4220 C   0  0  0  0  0  3  0  0  0  0  0  0
  189.4520  177.8130  138.2710 C   0  0  0  0  0  3  0  0  0  0  0  0
  189.2470  177.7280  140.7860 C   0  0  0  0  0  0  0  0  0  0  0  0
  191.5960  177.2600  140.2350 N   0  0  0  0  0  2  0  0  0  0  0  0
  190.8940  177.3060  142.5870 C   0  0  0  0  0  0  0  0  0  0  0  0
  192.1430  175.7690  146.5120 O   0  0  0  0  0  0  0  0  0  0  0  0
  191.7070  177.7420  145.5560 N   0  0  0  0  0  0  0  0  0  0  0  0
  191.1650  176.0340  143.0690 C   0  0  0  0  0  3  0  0  0  0  0  0
  191.8030  176.3950  145.4760 C   0  0  0  0  0  0  0  0  0  0  0  0
  191.3740  178.6810  144.6380 C   0  0  0  0  0  3  0  0  0  0  0  0
  191.5600  175.6380  144.3360 C   0  0  0  0  0  3  0  0  0  0  0  0
  191.0150  178.4850  143.3130 C   0  0  0  0  0  3  0  0  0  0  0  0
  187.8950  176.8810  142.7920 C   0  0  0  0  0  3  0  0  0  0  0  0
  187.0640  178.6540  141.7260 C   0  0  0  0  0  3  0  0  0  0  0  0
  186.2400  178.2760  142.7690 C   0  0  0  0  0  3  0  0  0  0  0  0
  186.7470  177.2050  143.4110 N   0  0  0  0  0  2  0  0  0  0  0  0
  188.1230  177.7690  141.7590 C   0  0  0  0  0  0  0  0  0  0  0  0
  190.7510  176.3050  136.6980 C   0  0  0  0  0  2  0  0  0  0  0  0
  191.7960  175.2750  136.6150 N   0  0  0  0  0  0  0  0  0  0  0  0
  193.8020  174.5030  135.4410 C   0  0  0  0  0  2  0  0  0  0  0  0
  193.1380  173.3300  135.0380 O   0  0  0  0  0  0  0  0  0  0  0  0
  192.3150  172.9360  136.1080 C   0  0  0  0  0  2  0  0  0  0  0  0
  192.7910  175.6410  135.6000 C   0  0  0  0  0  2  0  0  0  0  0  0
  191.2030  173.9680  136.3110 C   0  0  0  0  0  2  0  0  0  0  0  0
  1  7  1  0  0  0  0
  2  8  1  0  0  0  0
  3  5  1  0  0  0  0
  3  1  2  0  0  0  0
  4  6  1  0  0  0  0
  5  4  2  0  0  0  0
  6  2  2  0  0  0  0
  6 20  1  0  0  0  0
  7  2  1  0  0  0  0
  8 11  1  0  0  0  0
  8 15  2  0  0  0  0
 11 14  2  0  0  0  0
 12 10  1  0  0  0  0
 12  9  2  0  0  0  0
 13 10  2  0  0  0  0
 14 12  1  0  0  0  0
 15 13  1  0  0  0  0
 16 19  1  0  0  0  0
 17 20  1  0  0  0  0
 17 18  2  0  0  0  0
 18 19  1  0  0  0  0
 20 16  2  0  0  0  0
 21  3  1  0  0  0  0
 22 21  1  0  0  0  0
 23 26  1  0  0  0  0
 24 23  1  0  0  0  0
 24 25  1  0  0  0  0
 25 27  1  0  0  0  0
 26 22  1  0  0  0  0
 27 22  1  0  0  0  0
M  END
>  <MODEL>
5

>  <REMARK>
 VINA RESULT:      -7.6      4.728      8.812
  Name = 
  4 active torsions:
  status: ('A' for Active; 'I' for Inactive)
    1  A    between atoms: C_2  and  C_9
    2  A    between atoms: C_7  and  N_8
    3  A    between atoms: C_7  and  C_18
    4  A    between atoms: C_20  and  C_25
                            x       y       z     vdW  Elec       q    Type
                         _______ _______ _______ _____ _____    ______ ____

>  <TORSDO>
F 4

$$$$
=
 OpenBabel11032419493D

 27 30  0  0  1  0  0  0  0  0999 V2000
  185.2200  178.1560  142.0670 N   0  0  0  0  0  0  0  0  0  0  0  0
  187.1050  178.1030  143.7770 C   0  0  0  0  0  0  0  0  0  0  0  0
  184.1630  178.4680  142.7480 C   0  0  1  0  0  3  0  0  0  0  0  0
  185.1580  179.1220  144.9520 C   0  0  0  0  0  3  0  0  0  0  0  0
  184.1970  179.1570  144.0390 C   0  0  0  0  0  3  0  0  0  0  0  0
  186.4330  178.3870  144.9210 C   0  0  0  0  0  0  0  0  0  0  0  0
  186.5570  178.3100  142.4680 N   0  0  0  0  0  0  0  0  0  0  0  0
  188.5180  177.6620  143.7970 C   0  0  0  0  0  0  0  0  0  0  0  0
  192.1820  175.2510  143.4940 O   0  0  0  0  0  0  0  0  0  0  0  0
  191.6110  177.3730  143.9110 N   0  0  0  0  0  0  0  0  0  0  0  0
  188.7580  176.3280  143.5000 C   0  0  0  0  0  3  0  0  0  0  0  0
  191.2610  176.1000  143.6140 C   0  0  0  0  0  0  0  0  0  0  0  0
  190.8730  178.4920  144.1000 C   0  0  0  0  0  3  0  0  0  0  0  0
  189.9610  175.6470  143.4240 C   0  0  0  0  0  3  0  0  0  0  0  0
  189.4930  178.6210  144.0450 C   0  0  0  0  0  3  0  0  0  0  0  0
  186.7870  178.7660  147.4320 C   0  0  0  0  0  3  0  0  0  0  0  0
  187.8810  177.0420  146.5350 C   0  0  0  0  0  3  0  0  0  0  0  0
  188.1670  177.1600  147.8820 C   0  0  0  0  0  3  0  0  0  0  0  0
  187.5030  178.2020  148.4190 N   0  0  0  0  0  2  0  0  0  0  0  0
  186.9880  178.0600  146.2620 C   0  0  0  0  0  0  0  0  0  0  0  0
  182.8150  178.2530  142.1130 C   0  0  0  0  0  2  0  0  0  0  0  0
  181.7290  179.0400  142.7140 N   0  0  0  0  0  0  0  0  0  0  0  0
  179.7150  178.9970  144.1060 C   0  0  0  0  0  2  0  0  0  0  0  0
  178.9340  179.4420  143.0230 O   0  0  0  0  0  0  0  0  0  0  0  0
  179.7130  180.3710  142.3100 C   0  0  0  0  0  2  0  0  0  0  0  0
  180.9090  178.1930  143.5860 C   0  0  0  0  0  2  0  0  0  0  0  0
  180.9070  179.6580  141.6690 C   0  0  0  0  0  2  0  0  0  0  0  0
  1  7  2  0  0  0  0
  1  3  1  0  0  0  0
  2  8  1  0  0  0  0
  2  6  2  0  0  0  0
  3 21  1  6  0  0  0
  3  5  1  0  0  0  0
  5  4  2  0  0  0  0
  6  4  1  0  0  0  0
  6 20  1  0  0  0  0
  7  2  1  0  0  0  0
  8 15  2  0  0  0  0
  9 12  2  0  0  0  0
 10 13  2  0  0  0  0
 11  8  1  0  0  0  0
 12 10  1  0  0  0  0
 14 11  2  0  0  0  0
 14 12  1  0  0  0  0
 15 13  1  0  0  0  0
 16 19  1  0  0  0  0
 17 18  2  0  0  0  0
 18 19  1  0  0  0  0
 20 17  1  0  0  0  0
 20 16  2  0  0  0  0
 21 22  1  0  0  0  0
 22 26  1  0  0  0  0
 24 23  1  0  0  0  0
 25 24  1  0  0  0  0
 26 23  1  0  0  0  0
 27 25  1  0  0  0  0
 27 22  1  0  0  0  0
M  END
>  <MODEL>
6

>  <REMARK>
 VINA RESULT:      -7.6      1.579      2.044
  Name = 
  4 active torsions:
  status: ('A' for Active; 'I' for Inactive)
    1  A    between atoms: C_2  and  C_9
    2  A    between atoms: C_7  and  N_8
    3  A    between atoms: C_7  and  C_18
    4  A    between atoms: C_20  and  C_25
                            x       y       z     vdW  Elec       q    Type
                         _______ _______ _______ _____ _____    ______ ____

>  <TORSDO>
F 4

$$$$
=
 OpenBabel11032419493D

 27 30  0  0  1  0  0  0  0  0999 V2000
  185.2370  178.5920  145.2910 N   0  0  0  0  0  0  0  0  0  0  0  0
  187.6290  177.7260  145.2100 C   0  0  0  0  0  0  0  0  0  0  0  0
  184.8800  178.6990  144.0500 C   0  0  0  0  0  0  0  0  0  0  0  0
  186.7600  177.5270  142.8830 C   0  0  0  0  0  3  0  0  0  0  0  0
  185.5100  177.9640  142.9530 C   0  0  0  0  0  3  0  0  0  0  0  0
  187.8420  177.6630  143.8710 C   0  0  0  0  0  0  0  0  0  0  0  0
  186.3270  177.8640  145.7950 N   0  0  0  0  0  2  0  0  0  0  0  0
  188.7290  177.5350  146.1800 C   0  0  0  0  0  0  0  0  0  0  0  0
  192.4950  176.3110  148.0910 O   0  0  0  0  0  0  0  0  0  0  0  0
  190.7190  177.5840  148.5680 N   0  0  0  0  0  0  0  0  0  0  0  0
  189.7920  176.7440  145.7700 C   0  0  0  0  0  3  0  0  0  0  0  0
  191.3870  176.7730  147.7150 C   0  0  0  0  0  0  0  0  0  0  0  0
  189.5330  178.2270  148.4620 C   0  0  0  0  0  3  0  0  0  0  0  0
  190.9540  176.4100  146.4460 C   0  0  0  0  0  3  0  0  0  0  0  0
  188.6480  178.2070  147.3940 C   0  0  0  0  0  3  0  0  0  0  0  0
  190.1690  178.6190  143.3800 C   0  0  0  0  0  3  0  0  0  0  0  0
  189.7180  176.6270  142.4870 C   0  0  0  0  0  3  0  0  0  0  0  0
  190.9860  177.0480  142.1350 C   0  0  0  0  0  3  0  0  0  0  0  0
  191.2550  178.2520  142.6780 N   0  0  0  0  0  0  0  0  0  0  0  0
  189.2130  177.6270  143.2930 C   0  0  2  0  0  3  0  0  0  0  0  0
  183.6490  179.5040  143.7280 C   0  0  0  0  0  2  0  0  0  0  0  0
  182.5260  178.7110  143.2080 N   0  0  0  0  0  0  0  0  0  0  0  0
  181.0750  178.2530  141.2890 C   0  0  0  0  0  2  0  0  0  0  0  0
  179.9480  178.6830  142.0130 O   0  0  0  0  0  0  0  0  0  0  0  0
  180.1240  178.2510  143.3400 C   0  0  0  0  0  2  0  0  0  0  0  0
  182.3210  178.9930  141.7830 C   0  0  0  0  0  2  0  0  0  0  0  0
  181.3050  178.9900  143.9720 C   0  0  0  0  0  2  0  0  0  0  0  0
  1  7  1  0  0  0  0
  2  7  1  0  0  0  0
  2  8  1  0  0  0  0
  3  1  2  0  0  0  0
  4  5  2  0  0  0  0
  4  6  1  0  0  0  0
  5  3  1  0  0  0  0
  6  2  2  0  0  0  0
  8 15  2  0  0  0  0
 11  8  1  0  0  0  0
 11 14  2  0  0  0  0
 12  9  2  0  0  0  0
 12 10  1  0  0  0  0
 13 10  2  0  0  0  0
 14 12  1  0  0  0  0
 15 13  1  0  0  0  0
 17 20  1  0  0  0  0
 18 17  2  0  0  0  0
 18 19  1  0  0  0  0
 19 16  2  0  0  0  0
 20 16  1  0  0  0  0
 20  6  1  6  0  0  0
 21  3  1  0  0  0  0
 22 21  1  0  0  0  0
 22 27  1  0  0  0  0
 23 26  1  0  0  0  0
 23 24  1  0  0  0  0
 24 25  1  0  0  0  0
 25 27  1  0  0  0  0
 26 22  1  0  0  0  0
M  END
>  <MODEL>
7

>  <REMARK>
 VINA RESULT:      -7.5      2.248      4.166
  Name = 
  4 active torsions:
  status: ('A' for Active; 'I' for Inactive)
    1  A    between atoms: C_2  and  C_9
    2  A    between atoms: C_7  and  N_8
    3  A    between atoms: C_7  and  C_18
    4  A    between atoms: C_20  and  C_25
                            x       y       z     vdW  Elec       q    Type
                         _______ _______ _______ _____ _____    ______ ____

>  <TORSDO>
F 4

$$$$
=
 OpenBabel11032419493D

 27 30  0  0  0  0  0  0  0  0999 V2000
  187.7060  178.5550  139.1990 N   0  0  0  0  0  0  0  0  0  0  0  0
  187.9720  177.9220  141.6500 C   0  0  0  0  0  0  0  0  0  0  0  0
  188.8840  178.3930  138.6840 C   0  0  0  0  0  0  0  0  0  0  0  0
  190.0840  177.2080  140.5370 C   0  0  0  0  0  3  0  0  0  0  0  0
  189.9160  177.5280  139.2610 C   0  0  0  0  0  3  0  0  0  0  0  0
  189.2960  177.6300  141.7060 C   0  0  0  0  0  0  0  0  0  0  0  0
  187.2420  178.0430  140.4210 N   0  0  0  0  0  2  0  0  0  0  0  0
  187.1470  178.0240  142.8740 C   0  0  0  0  0  0  0  0  0  0  0  0
  183.9990  179.0750  145.7580 O   0  0  0  0  0  0  0  0  0  0  0  0
  185.8000  177.7530  145.6630 N   0  0  0  0  0  0  0  0  0  0  0  0
  186.0390  178.8560  142.8130 C   0  0  0  0  0  3  0  0  0  0  0  0
  184.9670  178.6460  145.0790 C   0  0  0  0  0  0  0  0  0  0  0  0
  186.9060  177.1180  145.2090 C   0  0  0  0  0  3  0  0  0  0  0  0
  185.0880  179.1280  143.7820 C   0  0  0  0  0  3  0  0  0  0  0  0
  187.5040  177.2360  143.9630 C   0  0  0  0  0  3  0  0  0  0  0  0
  190.5150  178.7190  143.6810 C   0  0  0  0  0  3  0  0  0  0  0  0
  190.4810  176.4890  143.6570 C   0  0  0  0  0  3  0  0  0  0  0  0
  191.1830  176.9590  144.7500 C   0  0  0  0  0  3  0  0  0  0  0  0
  191.2000  178.3060  144.7610 N   0  0  0  0  0  2  0  0  0  0  0  0
  190.0460  177.6190  142.9910 C   0  0  0  0  0  0  0  0  0  0  0  0
  189.1650  179.0000  137.3360 C   0  0  0  0  0  2  0  0  0  0  0  0
  188.6330  178.2310  136.2020 N   0  0  0  0  0  0  0  0  0  0  0  0
  186.6250  177.4620  135.0290 C   0  0  0  0  0  2  0  0  0  0  0  0
  186.9590  176.1220  135.2980 O   0  0  0  0  0  0  0  0  0  0  0  0
  188.3570  176.0170  135.1910 C   0  0  0  0  0  2  0  0  0  0  0  0
  187.1730  178.3630  136.1380 C   0  0  0  0  0  2  0  0  0  0  0  0
  189.0210  176.8210  136.3120 C   0  0  0  0  0  2  0  0  0  0  0  0
  1  7  1  0  0  0  0
  2  6  2  0  0  0  0
  2  8  1  0  0  0  0
  3  1  2  0  0  0  0
  3  5  1  0  0  0  0
  4  6  1  0  0  0  0
  5  4  2  0  0  0  0
  6 20  1  0  0  0  0
  7  2  1  0  0  0  0
  8 15  2  0  0  0  0
 11  8  1  0  0  0  0
 11 14  2  0  0  0  0
 12 10  1  0  0  0  0
 12  9  2  0  0  0  0
 13 10  2  0  0  0  0
 14 12  1  0  0  0  0
 15 13  1  0  0  0  0
 16 19  1  0  0  0  0
 17 18  2  0  0  0  0
 18 19  1  0  0  0  0
 20 17  1  0  0  0  0
 20 16  2  0  0  0  0
 21  3  1  0  0  0  0
 22 27  1  0  0  0  0
 22 21  1  0  0  0  0
 23 24  1  0  0  0  0
 23 26  1  0  0  0  0
 25 24  1  0  0  0  0
 25 27  1  0  0  0  0
 26 22  1  0  0  0  0
M  END
>  <MODEL>
8

>  <REMARK>
 VINA RESULT:      -7.5      3.764      6.794
  Name = 
  4 active torsions:
  status: ('A' for Active; 'I' for Inactive)
    1  A    between atoms: C_2  and  C_9
    2  A    between atoms: C_7  and  N_8
    3  A    between atoms: C_7  and  C_18
    4  A    between atoms: C_20  and  C_25
                            x       y       z     vdW  Elec       q    Type
                         _______ _______ _______ _____ _____    ______ ____

>  <TORSDO>
F 4

$$$$
=
 OpenBabel11032419493D

 27 30  0  0  1  0  0  0  0  0999 V2000
  186.7520  178.9160  140.7860 N   0  0  0  0  0  0  0  0  0  0  0  0
  184.6230  178.7050  139.4060 C   0  0  0  0  0  0  0  0  0  0  0  0
  187.6440  178.2490  140.1240 C   0  0  0  0  0  0  0  0  0  0  0  0
  186.4530  177.8210  137.9630 C   0  0  0  0  0  3  0  0  0  0  0  0
  187.5510  177.9580  138.6930 C   0  0  0  0  0  3  0  0  0  0  0  0
  185.0460  177.9160  138.3870 C   0  0  0  0  0  0  0  0  0  0  0  0
  185.5160  179.3780  140.3050 N   0  0  0  0  0  2  0  0  0  0  0  0
  183.1920  179.0280  139.5950 C   0  0  0  0  0  0  0  0  0  0  0  0
  179.0570  179.1260  141.0860 O   0  0  0  0  0  0  0  0  0  0  0  0
  180.3090  180.1920  139.5710 N   0  0  0  0  0  0  0  0  0  0  0  0
  182.5180  178.3210  140.5800 C   0  0  0  0  0  3  0  0  0  0  0  0
  180.1820  179.2550  140.5390 C   0  0  0  0  0  0  0  0  0  0  0  0
  181.3640  180.5690  138.8100 C   0  0  0  0  0  3  0  0  0  0  0  0
  181.1980  178.4210  140.9890 C   0  0  0  0  0  3  0  0  0  0  0  0
  182.6510  180.0510  138.8250 C   0  0  0  0  0  3  0  0  0  0  0  0
  183.5410  175.9160  137.8320 C   0  0  0  0  0  3  0  0  0  0  0  0
  183.6830  177.5010  136.2700 C   0  0  0  0  0  3  0  0  0  0  0  0
  182.8670  176.4680  135.8500 C   0  0  0  0  0  3  0  0  0  0  0  0
  182.7830  175.5140  136.7970 N   0  0  0  0  0  0  0  0  0  0  0  0
  184.0940  177.1470  137.5400 C   0  0  2  0  0  3  0  0  0  0  0  0
  188.9250  177.8810  140.8240 C   0  0  0  0  0  2  0  0  0  0  0  0
  188.8590  177.9550  142.2900 N   0  0  0  0  0  0  0  0  0  0  0  0
  190.1220  178.2060  144.3730 C   0  0  0  0  0  2  0  0  0  0  0  0
  189.7200  176.9250  144.7940 O   0  0  0  0  0  0  0  0  0  0  0  0
  188.3900  176.7530  144.3710 C   0  0  0  0  0  2  0  0  0  0  0  0
  190.1840  178.2530  142.8450 C   0  0  0  0  0  2  0  0  0  0  0  0
  188.3360  176.7020  142.8430 C   0  0  0  0  0  2  0  0  0  0  0  0
  2  8  1  0  0  0  0
  2  7  1  0  0  0  0
  3  1  2  0  0  0  0
  3 21  1  0  0  0  0
  4  6  1  0  0  0  0
  4  5  2  0  0  0  0
  5  3  1  0  0  0  0
  6  2  2  0  0  0  0
  7  1  1  0  0  0  0
  8 11  1  0  0  0  0
 10 12  1  0  0  0  0
 11 14  2  0  0  0  0
 12 14  1  0  0  0  0
 12  9  2  0  0  0  0
 13 15  1  0  0  0  0
 13 10  2  0  0  0  0
 15  8  2  0  0  0  0
 17 20  1  0  0  0  0
 18 17  2  0  0  0  0
 18 19  1  0  0  0  0
 19 16  2  0  0  0  0
 20 16  1  0  0  0  0
 20  6  1  6  0  0  0
 21 22  1  0  0  0  0
 22 27  1  0  0  0  0
 22 26  1  0  0  0  0
 23 24  1  0  0  0  0
 25 24  1  0  0  0  0
 26 23  1  0  0  0  0
 27 25  1  0  0  0  0
M  END
>  <MODEL>
9

>  <REMARK>
 VINA RESULT:      -7.5      3.513      8.936
  Name = 
  4 active torsions:
  status: ('A' for Active; 'I' for Inactive)
    1  A    between atoms: C_2  and  C_9
    2  A    between atoms: C_7  and  N_8
    3  A    between atoms: C_7  and  C_18
    4  A    between atoms: C_20  and  C_25
                            x       y       z     vdW  Elec       q    Type
                         _______ _______ _______ _____ _____    ______ ____

>  <TORSDO>
F 4

$$$$
