=
 OpenBabel11032419203D

 25 27  0  0  0  0  0  0  0  0999 V2000
  188.7810  178.0180  143.5120 C   0  0  0  0  0  0  0  0  0  0  0  0
  188.5570  177.8440  144.7940 C   0  0  0  0  0  0  0  0  0  0  0  0
  188.9950  178.1940  142.2400 C   0  0  0  0  0  3  0  0  0  0  0  0
  185.4060  178.5120  146.7820 C   0  0  0  0  0  3  0  0  0  0  0  0
  183.5130  178.7250  143.6590 C   0  0  0  0  0  0  0  0  0  0  0  0
  187.2040  178.1360  145.3430 C   0  0  0  0  0  0  0  0  0  0  0  0
  183.7280  178.7380  145.0460 C   0  0  0  0  0  3  0  0  0  0  0  0
  185.8820  178.2940  143.2740 C   0  0  0  0  0  3  0  0  0  0  0  0
  182.1470  178.9460  143.1210 C   0  0  0  0  0  1  0  0  0  0  0  0
  185.0230  178.5260  145.5180 C   0  0  0  0  0  0  0  0  0  0  0  0
  186.8840  178.2520  146.8070 C   0  0  0  0  0  2  0  0  0  0  0  0
  184.5870  178.5050  142.7770 C   0  0  0  0  0  3  0  0  0  0  0  0
  186.0750  178.3040  144.6600 C   0  0  0  0  0  0  0  0  0  0  0  0
  192.7550  175.8240  148.0760 N   0  0  0  0  0  1  0  0  0  0  0  0
  189.6410  177.3010  145.6560 C   0  0  0  0  0  0  0  0  0  0  0  0
  189.3640  176.8130  146.9410 C   0  0  0  0  0  3  0  0  0  0  0  0
  190.3900  176.3210  147.7500 C   0  0  0  0  0  3  0  0  0  0  0  0
  191.6980  176.3230  147.2670 C   0  0  0  0  0  0  0  0  0  0  0  0
  190.9780  177.2880  145.2210 C   0  0  0  0  0  3  0  0  0  0  0  0
  191.9630  176.8040  146.0220 N   0  0  0  0  0  0  0  0  0  0  0  0
  187.9840  177.7340  141.2480 C   0  0  0  0  0  2  0  0  0  0  0  0
  188.9650  178.4990  139.0470 C   0  0  0  0  0  0  0  0  0  0  0  0
  189.8820  177.6380  139.1140 O   0  0  0  0  0  1  0  0  0  0  0  0
  188.9040  179.3540  137.9550 O   0  0  0  0  0  0  0  0  0  0  0  0
  187.9910  178.6080  140.0860 N   0  0  0  0  0  2  0  0  0  0  0  0
  1  2  2  0  0  0  0
  2  6  1  0  0  0  0
  2 15  1  0  0  0  0
  3  1  2  0  0  0  0
  4 11  1  0  0  0  0
  5  7  2  0  0  0  0
  6 11  1  0  0  0  0
  7 10  1  0  0  0  0
  8 13  1  0  0  0  0
  9  5  1  0  0  0  0
 10  4  2  0  0  0  0
 12  8  2  0  0  0  0
 12  5  1  0  0  0  0
 13  6  2  0  0  0  0
 13 10  1  0  0  0  0
 15 16  1  0  0  0  0
 16 17  2  0  0  0  0
 18 17  1  0  0  0  0
 18 14  1  0  0  0  0
 19 15  2  0  0  0  0
 19 20  1  0  0  0  0
 20 18  2  0  0  0  0
 21  3  1  0  0  0  0
 22 23  1  0  0  0  0
 22 25  1  0  0  0  0
 24 22  2  0  0  0  0
 25 21  1  0  0  0  0
M  END
>  <MODEL>
1

>  <REMARK>
 VINA RESULT:     -10.7      0.000      0.000
  Name = 
  4 active torsions:
  status: ('A' for Active; 'I' for Inactive)
    1  A    between atoms: C_3  and  N_19
    2  A    between atoms: C_3  and  C_24
    3  A    between atoms: C_7  and  C_12
    4  A    between atoms: C_9  and  C_12
                            x       y       z     vdW  Elec       q    Type
                         _______ _______ _______ _____ _____    ______ ____

>  <TORSDO>
F 4

$$$$
=
 OpenBabel11032419203D

 25 27  0  0  0  0  0  0  0  0999 V2000
  187.2640  177.6580  143.0260 C   0  0  0  0  0  0  0  0  0  0  0  0
  186.4760  177.9450  144.0360 C   0  0  0  0  0  0  0  0  0  0  0  0
  188.0530  177.3710  142.0300 C   0  0  0  0  0  3  0  0  0  0  0  0
  187.3180  178.2230  147.7150 C   0  0  0  0  0  3  0  0  0  0  0  0
  190.6280  176.8240  147.0360 C   0  0  0  0  0  0  0  0  0  0  0  0
  187.0300  177.9370  145.4180 C   0  0  0  0  0  0  0  0  0  0  0  0
  189.5840  177.3650  147.8020 C   0  0  0  0  0  3  0  0  0  0  0  0
  189.2690  176.9970  145.0190 C   0  0  0  0  0  2  0  0  0  0  0  0
  191.9060  176.4440  147.6920 C   0  0  0  0  0  1  0  0  0  0  0  0
  188.3990  177.7120  147.1540 C   0  0  0  0  0  0  0  0  0  0  0  0
  186.2980  178.4300  146.6340 C   0  0  0  0  0  3  0  0  0  0  0  0
  190.4710  176.6400  145.6500 C   0  0  0  0  0  3  0  0  0  0  0  0
  188.2420  177.5400  145.7990 C   0  0  0  0  0  0  0  0  0  0  0  0
  181.0610  179.3670  142.9730 N   0  0  0  0  0  1  0  0  0  0  0  0
  185.0640  178.3320  143.7720 C   0  0  0  0  0  0  0  0  0  0  0  0
  184.2070  178.6960  144.8200 C   0  0  0  0  0  3  0  0  0  0  0  0
  182.8800  179.0420  144.5640 C   0  0  0  0  0  3  0  0  0  0  0  0
  182.4110  179.0170  143.2520 C   0  0  0  0  0  0  0  0  0  0  0  0
  184.5380  178.3160  142.4670 C   0  0  0  0  0  3  0  0  0  0  0  0
  183.2430  178.6560  142.2380 N   0  0  0  0  0  0  0  0  0  0  0  0
  189.4240  177.9490  141.9810 C   0  0  0  0  0  2  0  0  0  0  0  0
  190.4140  177.2990  139.7470 C   0  0  0  0  0  0  0  0  0  0  0  0
  189.7540  178.1920  139.1530 O   0  0  0  0  0  1  0  0  0  0  0  0
  191.2700  176.4810  139.0220 O   0  0  0  0  0  0  0  0  0  0  0  0
  190.2870  177.1160  141.1580 N   0  0  0  0  0  2  0  0  0  0  0  0
  1  2  2  0  0  0  0
  2  6  1  0  0  0  0
  3  1  2  0  0  0  0
  5  9  1  0  0  0  0
  5  7  1  0  0  0  0
  6 13  2  0  0  0  0
  6 11  1  0  0  0  0
  8 12  1  0  0  0  0
  8 13  1  0  0  0  0
 10  4  1  0  0  0  0
 10  7  2  0  0  0  0
 11  4  2  0  0  0  0
 12  5  2  0  0  0  0
 13 10  1  0  0  0  0
 14 18  1  0  0  0  0
 15  2  1  0  0  0  0
 15 16  1  0  0  0  0
 17 16  2  0  0  0  0
 18 17  1  0  0  0  0
 19 15  2  0  0  0  0
 20 19  1  0  0  0  0
 20 18  2  0  0  0  0
 21  3  1  0  0  0  0
 22 25  1  0  0  0  0
 23 22  1  0  0  0  0
 24 22  2  0  0  0  0
 25 21  1  0  0  0  0
M  END
>  <MODEL>
2

>  <REMARK>
 VINA RESULT:     -10.3      2.146      6.078
  Name = 
  4 active torsions:
  status: ('A' for Active; 'I' for Inactive)
    1  A    between atoms: C_3  and  N_19
    2  A    between atoms: C_3  and  C_24
    3  A    between atoms: C_7  and  C_12
    4  A    between atoms: C_9  and  C_12
                            x       y       z     vdW  Elec       q    Type
                         _______ _______ _______ _____ _____    ______ ____

>  <TORSDO>
F 4

$$$$
=
 OpenBabel11032419203D

 25 27  0  0  0  0  0  0  0  0999 V2000
  187.3660  178.4860  141.6950 C   0  0  0  0  0  0  0  0  0  0  0  0
  188.6310  178.1340  141.6830 C   0  0  0  0  0  0  0  0  0  0  0  0
  186.1120  178.8380  141.7160 C   0  0  0  0  0  3  0  0  0  0  0  0
  191.1070  178.2040  144.5440 C   0  0  0  0  0  3  0  0  0  0  0  0
  188.3990  177.4190  146.8730 C   0  0  0  0  0  0  0  0  0  0  0  0
  189.3960  178.1230  142.9600 C   0  0  0  0  0  0  0  0  0  0  0  0
  189.7110  177.6980  146.4600 C   0  0  0  0  0  3  0  0  0  0  0  0
  187.6130  177.6000  144.5720 C   0  0  0  0  0  2  0  0  0  0  0  0
  188.1120  177.1740  148.3100 C   0  0  0  0  0  1  0  0  0  0  0  0
  189.9450  177.9220  145.1040 C   0  0  0  0  0  0  0  0  0  0  0  0
  190.8760  178.3650  143.0700 C   0  0  0  0  0  3  0  0  0  0  0  0
  187.3540  177.3710  145.9320 C   0  0  0  0  0  3  0  0  0  0  0  0
  188.9280  177.8710  144.1800 C   0  0  0  0  0  0  0  0  0  0  0  0
  190.9980  176.3720  136.8080 N   0  0  0  0  0  1  0  0  0  0  0  0
  189.2530  177.6940  140.4050 C   0  0  0  0  0  0  0  0  0  0  0  0
  188.9920  178.3690  139.2050 C   0  0  0  0  0  3  0  0  0  0  0  0
  189.5660  177.9390  138.0080 C   0  0  0  0  0  3  0  0  0  0  0  0
  190.4020  176.8230  138.0170 C   0  0  0  0  0  0  0  0  0  0  0  0
  190.0970  176.5700  140.3570 C   0  0  0  0  0  3  0  0  0  0  0  0
  190.6480  176.1660  139.1820 N   0  0  0  0  0  0  0  0  0  0  0  0
  185.2170  178.3230  142.7880 C   0  0  0  0  0  2  0  0  0  0  0  0
  182.9090  179.0120  143.5580 C   0  0  0  0  0  0  0  0  0  0  0  0
  183.2480  178.9280  144.7690 O   0  0  0  0  0  1  0  0  0  0  0  0
  181.6160  179.3960  143.2320 O   0  0  0  0  0  0  0  0  0  0  0  0
  183.8410  178.7120  142.5190 N   0  0  0  0  0  2  0  0  0  0  0  0
  1  3  2  0  0  0  0
  2  1  2  0  0  0  0
  2  6  1  0  0  0  0
  3 21  1  0  0  0  0
  4 10  1  0  0  0  0
  5  9  1  0  0  0  0
  6 11  1  0  0  0  0
  6 13  2  0  0  0  0
  7  5  1  0  0  0  0
  8 12  1  0  0  0  0
 10  7  2  0  0  0  0
 11  4  2  0  0  0  0
 12  5  2  0  0  0  0
 13  8  1  0  0  0  0
 13 10  1  0  0  0  0
 14 18  1  0  0  0  0
 15  2  1  0  0  0  0
 16 15  2  0  0  0  0
 17 18  2  0  0  0  0
 17 16  1  0  0  0  0
 18 20  1  0  0  0  0
 19 15  1  0  0  0  0
 20 19  2  0  0  0  0
 22 23  1  0  0  0  0
 24 22  2  0  0  0  0
 25 21  1  0  0  0  0
 25 22  1  0  0  0  0
M  END
>  <MODEL>
3

>  <REMARK>
 VINA RESULT:     -10.0      3.700      6.418
  Name = 
  4 active torsions:
  status: ('A' for Active; 'I' for Inactive)
    1  A    between atoms: C_3  and  N_19
    2  A    between atoms: C_3  and  C_24
    3  A    between atoms: C_7  and  C_12
    4  A    between atoms: C_9  and  C_12
                            x       y       z     vdW  Elec       q    Type
                         _______ _______ _______ _____ _____    ______ ____

>  <TORSDO>
F 4

$$$$
=
 OpenBabel11032419203D

 25 27  0  0  0  0  0  0  0  0999 V2000
  186.7170  178.1570  141.8020 C   0  0  0  0  0  0  0  0  0  0  0  0
  185.4850  178.3680  142.2050 C   0  0  0  0  0  0  0  0  0  0  0  0
  187.9410  177.9470  141.4120 C   0  0  0  0  0  3  0  0  0  0  0  0
  184.2100  179.0030  145.7110 C   0  0  0  0  0  3  0  0  0  0  0  0
  187.3940  177.8090  147.0570 C   0  0  0  0  0  0  0  0  0  0  0  0
  185.2090  178.5120  143.6610 C   0  0  0  0  0  0  0  0  0  0  0  0
  186.0910  178.3290  147.0850 C   0  0  0  0  0  3  0  0  0  0  0  0
  187.3300  177.7160  144.6220 C   0  0  0  0  0  2  0  0  0  0  0  0
  188.1260  177.5800  148.3300 C   0  0  0  0  0  1  0  0  0  0  0  0
  185.4330  178.5320  145.8720 C   0  0  0  0  0  0  0  0  0  0  0  0
  183.9270  179.0450  144.2380 C   0  0  0  0  0  3  0  0  0  0  0  0
  188.0110  177.5030  145.8300 C   0  0  0  0  0  3  0  0  0  0  0  0
  186.0340  178.2400  144.6690 C   0  0  0  0  0  0  0  0  0  0  0  0
  181.3970  178.9450  138.2760 N   0  0  0  0  0  1  0  0  0  0  0  0
  184.4040  178.5190  141.1940 C   0  0  0  0  0  0  0  0  0  0  0  0
  183.2130  177.7870  141.2970 C   0  0  0  0  0  3  0  0  0  0  0  0
  182.2110  177.9220  140.3350 C   0  0  0  0  0  3  0  0  0  0  0  0
  182.4080  178.7930  139.2650 C   0  0  0  0  0  0  0  0  0  0  0  0
  184.5550  179.3780  140.0910 C   0  0  0  0  0  3  0  0  0  0  0  0
  183.5680  179.4970  139.1650 N   0  0  0  0  0  0  0  0  0  0  0  0
  189.0550  178.7270  142.0180 C   0  0  0  0  0  2  0  0  0  0  0  0
  190.9790  178.2110  143.5760 C   0  0  0  0  0  0  0  0  0  0  0  0
  190.9570  179.3780  144.0500 O   0  0  0  0  0  0  0  0  0  0  0  0
  191.9060  177.2940  144.0530 O   0  0  0  0  0  1  0  0  0  0  0  0
  190.0640  177.8230  142.5500 N   0  0  0  0  0  2  0  0  0  0  0  0
  1  2  2  0  0  0  0
  2  6  1  0  0  0  0
  3  1  2  0  0  0  0
  3 21  1  0  0  0  0
  4 10  1  0  0  0  0
  5  7  1  0  0  0  0
  5  9  1  0  0  0  0
  6 11  1  0  0  0  0
  6 13  2  0  0  0  0
  8 13  1  0  0  0  0
  8 12  1  0  0  0  0
 10  7  2  0  0  0  0
 11  4  2  0  0  0  0
 12  5  2  0  0  0  0
 13 10  1  0  0  0  0
 14 18  1  0  0  0  0
 15 16  1  0  0  0  0
 15  2  1  0  0  0  0
 17 16  2  0  0  0  0
 18 17  1  0  0  0  0
 19 15  2  0  0  0  0
 20 18  2  0  0  0  0
 20 19  1  0  0  0  0
 21 25  1  0  0  0  0
 22 23  2  0  0  0  0
 22 24  1  0  0  0  0
 25 22  1  0  0  0  0
M  END
>  <MODEL>
4

>  <REMARK>
 VINA RESULT:      -9.7      2.779      6.720
  Name = 
  4 active torsions:
  status: ('A' for Active; 'I' for Inactive)
    1  A    between atoms: C_3  and  N_19
    2  A    between atoms: C_3  and  C_24
    3  A    between atoms: C_7  and  C_12
    4  A    between atoms: C_9  and  C_12
                            x       y       z     vdW  Elec       q    Type
                         _______ _______ _______ _____ _____    ______ ____

>  <TORSDO>
F 4

$$$$
=
 OpenBabel11032419203D

 25 27  0  0  0  0  0  0  0  0999 V2000
  189.9390  176.7800  144.0360 C   0  0  0  0  0  0  0  0  0  0  0  0
  188.8550  177.3290  143.5390 C   0  0  0  0  0  0  0  0  0  0  0  0
  191.0100  176.2350  144.5370 C   0  0  0  0  0  3  0  0  0  0  0  0
  186.5080  178.2610  146.3590 C   0  0  0  0  0  3  0  0  0  0  0  0
  183.7900  178.6290  143.9400 C   0  0  0  0  0  0  0  0  0  0  0  0
  187.7560  177.7350  144.4590 C   0  0  0  0  0  0  0  0  0  0  0  0
  184.4110  178.6260  145.1990 C   0  0  0  0  0  3  0  0  0  0  0  0
  185.8910  178.0000  142.8760 C   0  0  0  0  0  3  0  0  0  0  0  0
  182.3470  178.9640  143.8290 C   0  0  0  0  0  1  0  0  0  0  0  0
  185.7670  178.3060  145.2670 C   0  0  0  0  0  0  0  0  0  0  0  0
  187.9000  177.8780  145.9490 C   0  0  0  0  0  2  0  0  0  0  0  0
  184.5280  178.3190  142.7830 C   0  0  0  0  0  3  0  0  0  0  0  0
  186.4910  177.9960  144.1400 C   0  0  0  0  0  0  0  0  0  0  0  0
  188.5660  178.4070  137.9510 N   0  0  0  0  0  1  0  0  0  0  0  0
  188.7740  177.5900  142.0770 C   0  0  0  0  0  0  0  0  0  0  0  0
  189.3110  176.6850  141.1510 C   0  0  0  0  0  3  0  0  0  0  0  0
  189.2460  176.9470  139.7820 C   0  0  0  0  0  3  0  0  0  0  0  0
  188.6430  178.1240  139.3420 C   0  0  0  0  0  0  0  0  0  0  0  0
  188.1830  178.7660  141.5810 C   0  0  0  0  0  3  0  0  0  0  0  0
  188.1290  179.0040  140.2430 N   0  0  0  0  0  0  0  0  0  0  0  0
  191.6240  176.8050  145.7670 C   0  0  0  0  0  2  0  0  0  0  0  0
  192.4350  175.9620  148.0090 C   0  0  0  0  0  0  0  0  0  0  0  0
  192.4240  177.1250  148.4920 O   0  0  0  0  0  0  0  0  0  0  0  0
  192.8210  174.8920  148.8040 O   0  0  0  0  0  1  0  0  0  0  0  0
  192.0580  175.7330  146.6510 N   0  0  0  0  0  2  0  0  0  0  0  0
  1  3  2  0  0  0  0
  2  1  2  0  0  0  0
  2  6  1  0  0  0  0
  3 21  1  0  0  0  0
  5  7  2  0  0  0  0
  6 11  1  0  0  0  0
  7 10  1  0  0  0  0
  8 13  1  0  0  0  0
  9  5  1  0  0  0  0
 10  4  2  0  0  0  0
 11  4  1  0  0  0  0
 12  8  2  0  0  0  0
 12  5  1  0  0  0  0
 13  6  2  0  0  0  0
 13 10  1  0  0  0  0
 14 18  1  0  0  0  0
 15  2  1  0  0  0  0
 16 15  2  0  0  0  0
 17 16  1  0  0  0  0
 18 17  2  0  0  0  0
 18 20  1  0  0  0  0
 19 15  1  0  0  0  0
 20 19  2  0  0  0  0
 21 25  1  0  0  0  0
 22 23  2  0  0  0  0
 22 24  1  0  0  0  0
 25 22  1  0  0  0  0
M  END
>  <MODEL>
5

>  <REMARK>
 VINA RESULT:      -9.6      3.159      5.883
  Name = 
  4 active torsions:
  status: ('A' for Active; 'I' for Inactive)
    1  A    between atoms: C_3  and  N_19
    2  A    between atoms: C_3  and  C_24
    3  A    between atoms: C_7  and  C_12
    4  A    between atoms: C_9  and  C_12
                            x       y       z     vdW  Elec       q    Type
                         _______ _______ _______ _____ _____    ______ ____

>  <TORSDO>
F 4

$$$$
=
 OpenBabel11032419203D

 25 27  0  0  1  0  0  0  0  0999 V2000
  190.0180  177.0290  142.6480 C   0  0  0  0  0  0  0  0  0  0  0  0
  189.1830  177.3180  141.6770 C   0  0  0  0  0  0  0  0  0  0  0  0
  190.8400  176.7450  143.6180 C   0  0  0  0  0  3  0  0  0  0  0  0
  185.8100  179.0210  141.8990 C   0  0  0  0  0  3  0  0  0  0  0  0
  185.6210  178.1270  145.4400 C   0  0  0  0  0  0  0  0  0  0  0  0
  187.8530  177.8990  142.0100 C   0  0  0  0  0  0  0  0  0  0  0  0
  185.2070  178.6930  144.2240 C   0  0  0  0  0  3  0  0  0  0  0  0
  187.6710  177.3220  144.3950 C   0  0  0  0  0  3  0  0  0  0  0  0
  184.7580  178.2500  146.6440 C   0  0  0  0  0  1  0  0  0  0  0  0
  186.0420  178.5600  143.1150 C   0  0  1  0  0  3  0  0  0  0  0  0
  186.9770  178.6390  141.0370 C   0  0  0  0  0  3  0  0  0  0  0  0
  186.8470  177.4430  145.5250 C   0  0  0  0  0  3  0  0  0  0  0  0
  187.2440  177.8980  143.1930 C   0  0  0  0  0  0  0  0  0  0  0  0
  190.8590  176.4860  136.2950 N   0  0  0  0  0  1  0  0  0  0  0  0
  189.6070  177.1160  140.2660 C   0  0  0  0  0  0  0  0  0  0  0  0
  188.6700  177.1070  139.2250 C   0  0  0  0  0  3  0  0  0  0  0  0
  189.0750  176.9000  137.9060 C   0  0  0  0  0  3  0  0  0  0  0  0
  190.4270  176.6970  137.6330 C   0  0  0  0  0  0  0  0  0  0  0  0
  190.9580  176.8990  139.9380 C   0  0  0  0  0  3  0  0  0  0  0  0
  191.3340  176.7000  138.6470 N   0  0  0  0  0  0  0  0  0  0  0  0
  191.0230  177.7060  144.7400 C   0  0  0  0  0  2  0  0  0  0  0  0
  191.2850  176.5970  146.9970 C   0  0  0  0  0  0  0  0  0  0  0  0
  190.0470  176.6730  147.2190 O   0  0  0  0  0  0  0  0  0  0  0  0
  192.1190  176.0200  147.9440 O   0  0  0  0  0  1  0  0  0  0  0  0
  191.8400  177.1060  145.7830 N   0  0  0  0  0  2  0  0  0  0  0  0
  1  3  2  0  0  0  0
  2  6  1  0  0  0  0
  2  1  2  0  0  0  0
  3 21  1  0  0  0  0
  5 12  1  0  0  0  0
  5  9  1  0  0  0  0
  6 13  2  0  0  0  0
  7  5  2  0  0  0  0
  8 12  2  0  0  0  0
 10  4  1  6  0  0  0
 10 13  1  0  0  0  0
 10  7  1  0  0  0  0
 11  4  2  0  0  0  0
 11  6  1  0  0  0  0
 13  8  1  0  0  0  0
 14 18  1  0  0  0  0
 15  2  1  0  0  0  0
 16 15  2  0  0  0  0
 17 16  1  0  0  0  0
 18 17  2  0  0  0  0
 18 20  1  0  0  0  0
 19 15  1  0  0  0  0
 20 19  2  0  0  0  0
 21 25  1  0  0  0  0
 22 23  2  0  0  0  0
 22 24  1  0  0  0  0
 25 22  1  0  0  0  0
M  END
>  <MODEL>
6

>  <REMARK>
 VINA RESULT:      -9.5      3.093      6.293
  Name = 
  4 active torsions:
  status: ('A' for Active; 'I' for Inactive)
    1  A    between atoms: C_3  and  N_19
    2  A    between atoms: C_3  and  C_24
    3  A    between atoms: C_7  and  C_12
    4  A    between atoms: C_9  and  C_12
                            x       y       z     vdW  Elec       q    Type
                         _______ _______ _______ _____ _____    ______ ____

>  <TORSDO>
F 4

$$$$
=
 OpenBabel11032419203D

 25 27  0  0  1  0  0  0  0  0999 V2000
  185.1610  178.6190  144.8950 C   0  0  0  0  0  0  0  0  0  0  0  0
  185.0330  178.5970  143.5890 C   0  0  0  0  0  0  0  0  0  0  0  0
  185.2970  178.6420  146.1900 C   0  0  0  0  0  3  0  0  0  0  0  0
  187.7590  178.5830  140.9630 C   0  0  0  0  0  3  0  0  0  0  0  0
  189.9300  176.7490  143.2650 C   0  0  0  0  0  0  0  0  0  0  0  0
  186.2510  178.4770  142.7400 C   0  0  0  0  0  0  0  0  0  0  0  0
  189.5520  177.3870  142.0730 C   0  0  0  0  0  3  0  0  0  0  0  0
  187.7560  177.2460  144.2480 C   0  0  0  0  0  3  0  0  0  0  0  0
  191.2820  176.1440  143.3830 C   0  0  0  0  0  1  0  0  0  0  0  0
  188.2750  177.9430  141.9970 C   0  0  1  0  0  3  0  0  0  0  0  0
  186.3680  179.0030  141.3370 C   0  0  0  0  0  3  0  0  0  0  0  0
  189.0350  176.6800  144.3480 C   0  0  0  0  0  3  0  0  0  0  0  0
  187.3950  177.8730  143.0510 C   0  0  0  0  0  0  0  0  0  0  0  0
  179.8350  178.6470  141.2530 N   0  0  0  0  0  1  0  0  0  0  0  0
  183.6720  178.6280  142.9890 C   0  0  0  0  0  0  0  0  0  0  0  0
  182.5560  179.0030  143.7500 C   0  0  0  0  0  3  0  0  0  0  0  0
  181.2810  179.0130  143.1830 C   0  0  0  0  0  3  0  0  0  0  0  0
  181.1270  178.6410  141.8480 C   0  0  0  0  0  0  0  0  0  0  0  0
  183.4610  178.2540  141.6490 C   0  0  0  0  0  3  0  0  0  0  0  0
  182.2110  178.2710  141.1150 N   0  0  0  0  0  0  0  0  0  0  0  0
  186.2320  177.6920  146.8540 C   0  0  0  0  0  2  0  0  0  0  0  0
  188.4420  177.8700  148.0690 C   0  0  0  0  0  0  0  0  0  0  0  0
  188.7650  176.7010  147.7280 O   0  0  0  0  0  0  0  0  0  0  0  0
  189.3140  178.6270  148.8380 O   0  0  0  0  0  1  0  0  0  0  0  0
  187.1850  178.4220  147.6750 N   0  0  0  0  0  2  0  0  0  0  0  0
  1  3  2  0  0  0  0
  2  1  2  0  0  0  0
  3 21  1  0  0  0  0
  4 11  2  0  0  0  0
  5  9  1  0  0  0  0
  5 12  1  0  0  0  0
  6 13  2  0  0  0  0
  6  2  1  0  0  0  0
  7  5  2  0  0  0  0
  8 12  2  0  0  0  0
 10  4  1  1  0  0  0
 10  7  1  0  0  0  0
 10 13  1  0  0  0  0
 11  6  1  0  0  0  0
 13  8  1  0  0  0  0
 14 18  1  0  0  0  0
 15  2  1  0  0  0  0
 15 16  1  0  0  0  0
 17 16  2  0  0  0  0
 18 17  1  0  0  0  0
 19 15  2  0  0  0  0
 20 19  1  0  0  0  0
 20 18  2  0  0  0  0
 21 25  1  0  0  0  0
 22 24  1  0  0  0  0
 23 22  2  0  0  0  0
 25 22  1  0  0  0  0
M  END
>  <MODEL>
7

>  <REMARK>
 VINA RESULT:      -9.4      3.665      7.808
  Name = 
  4 active torsions:
  status: ('A' for Active; 'I' for Inactive)
    1  A    between atoms: C_3  and  N_19
    2  A    between atoms: C_3  and  C_24
    3  A    between atoms: C_7  and  C_12
    4  A    between atoms: C_9  and  C_12
                            x       y       z     vdW  Elec       q    Type
                         _______ _______ _______ _____ _____    ______ ____

>  <TORSDO>
F 4

$$$$
=
 OpenBabel11032419203D

 25 27  0  0  0  0  0  0  0  0999 V2000
  187.1830  178.3280  142.3690 C   0  0  0  0  0  0  0  0  0  0  0  0
  188.3100  177.8860  142.8780 C   0  0  0  0  0  0  0  0  0  0  0  0
  186.0620  178.7670  141.8730 C   0  0  0  0  0  3  0  0  0  0  0  0
  187.9230  177.5020  146.6240 C   0  0  0  0  0  3  0  0  0  0  0  0
  191.3780  176.3220  146.8330 C   0  0  0  0  0  0  0  0  0  0  0  0
  188.3990  177.6360  144.3430 C   0  0  0  0  0  0  0  0  0  0  0  0
  190.1060  176.6900  147.2970 C   0  0  0  0  0  3  0  0  0  0  0  0
  190.7160  176.8330  144.5430 C   0  0  0  0  0  2  0  0  0  0  0  0
  192.4090  175.8540  147.7950 C   0  0  0  0  0  1  0  0  0  0  0  0
  189.1620  177.1250  146.3670 C   0  0  0  0  0  0  0  0  0  0  0  0
  187.2830  177.8820  145.3200 C   0  0  0  0  0  3  0  0  0  0  0  0
  191.6810  176.3920  145.4610 C   0  0  0  0  0  3  0  0  0  0  0  0
  189.4560  177.2020  145.0260 C   0  0  0  0  0  0  0  0  0  0  0  0
  192.6330  176.7470  139.3450 N   0  0  0  0  0  1  0  0  0  0  0  0
  189.4510  177.5870  141.9720 C   0  0  0  0  0  0  0  0  0  0  0  0
  190.7150  178.1520  142.1920 C   0  0  0  0  0  3  0  0  0  0  0  0
  191.7750  177.8790  141.3270 C   0  0  0  0  0  3  0  0  0  0  0  0
  191.5630  177.0380  140.2350 C   0  0  0  0  0  0  0  0  0  0  0  0
  189.2900  176.7510  140.8530 C   0  0  0  0  0  3  0  0  0  0  0  0
  190.3350  176.4960  140.0220 N   0  0  0  0  0  0  0  0  0  0  0  0
  184.7720  178.1740  142.3200 C   0  0  0  0  0  2  0  0  0  0  0  0
  183.5100  178.9290  144.3770 C   0  0  0  0  0  0  0  0  0  0  0  0
  182.5870  179.4210  143.6760 O   0  0  0  0  0  0  0  0  0  0  0  0
  183.4350  179.0030  145.7610 O   0  0  0  0  0  1  0  0  0  0  0  0
  184.6370  178.3020  143.7630 N   0  0  0  0  0  2  0  0  0  0  0  0
  1  2  2  0  0  0  0
  2  6  1  0  0  0  0
  3 21  1  0  0  0  0
  3  1  2  0  0  0  0
  5  7  1  0  0  0  0
  5  9  1  0  0  0  0
  6 13  2  0  0  0  0
  6 11  1  0  0  0  0
  8 13  1  0  0  0  0
  8 12  1  0  0  0  0
 10  4  1  0  0  0  0
 10  7  2  0  0  0  0
 11  4  2  0  0  0  0
 12  5  2  0  0  0  0
 13 10  1  0  0  0  0
 14 18  1  0  0  0  0
 15 16  1  0  0  0  0
 15  2  1  0  0  0  0
 17 16  2  0  0  0  0
 18 17  1  0  0  0  0
 19 15  2  0  0  0  0
 20 18  2  0  0  0  0
 20 19  1  0  0  0  0
 21 25  1  0  0  0  0
 22 24  1  0  0  0  0
 23 22  2  0  0  0  0
 25 22  1  0  0  0  0
M  END
>  <MODEL>
8

>  <REMARK>
 VINA RESULT:      -9.4      3.481      6.171
  Name = 
  4 active torsions:
  status: ('A' for Active; 'I' for Inactive)
    1  A    between atoms: C_3  and  N_19
    2  A    between atoms: C_3  and  C_24
    3  A    between atoms: C_7  and  C_12
    4  A    between atoms: C_9  and  C_12
                            x       y       z     vdW  Elec       q    Type
                         _______ _______ _______ _____ _____    ______ ____

>  <TORSDO>
F 4

$$$$
=
 OpenBabel11032419203D

 25 27  0  0  0  0  0  0  0  0999 V2000
  185.0170  178.4790  142.0920 C   0  0  0  0  0  0  0  0  0  0  0  0
  186.0290  178.2510  142.8970 C   0  0  0  0  0  0  0  0  0  0  0  0
  184.0080  178.7070  141.3010 C   0  0  0  0  0  3  0  0  0  0  0  0
  184.8760  178.6220  146.4830 C   0  0  0  0  0  3  0  0  0  0  0  0
  188.2950  177.9900  147.6190 C   0  0  0  0  0  0  0  0  0  0  0  0
  185.8200  178.3320  144.3690 C   0  0  0  0  0  0  0  0  0  0  0  0
  186.9250  178.2740  147.7320 C   0  0  0  0  0  3  0  0  0  0  0  0
  188.1010  177.9090  145.1900 C   0  0  0  0  0  2  0  0  0  0  0  0
  189.1300  177.8810  148.8430 C   0  0  0  0  0  1  0  0  0  0  0  0
  186.1700  178.3700  146.5630 C   0  0  0  0  0  0  0  0  0  0  0  0
  184.5020  178.6270  145.0300 C   0  0  0  0  0  3  0  0  0  0  0  0
  188.8800  177.8080  146.3530 C   0  0  0  0  0  3  0  0  0  0  0  0
  186.7390  178.1990  145.3230 C   0  0  0  0  0  0  0  0  0  0  0  0
  191.0870  176.8200  140.6980 N   0  0  0  0  0  1  0  0  0  0  0  0
  187.3430  177.8570  142.3230 C   0  0  0  0  0  0  0  0  0  0  0  0
  188.0270  176.7280  142.7930 C   0  0  0  0  0  3  0  0  0  0  0  0
  189.2680  176.3760  142.2600 C   0  0  0  0  0  3  0  0  0  0  0  0
  189.8240  177.1640  141.2540 C   0  0  0  0  0  0  0  0  0  0  0  0
  187.9520  178.6220  141.3120 C   0  0  0  0  0  3  0  0  0  0  0  0
  189.1610  178.2630  140.8050 N   0  0  0  0  0  0  0  0  0  0  0  0
  182.6750  178.1200  141.6120 C   0  0  0  0  0  2  0  0  0  0  0  0
  180.7020  179.6530  141.9990 C   0  0  0  0  0  0  0  0  0  0  0  0
  180.2600  179.4380  140.8390 O   0  0  0  0  0  0  0  0  0  0  0  0
  180.0100  180.5030  142.8510 O   0  0  0  0  0  1  0  0  0  0  0  0
  181.9100  179.0360  142.4450 N   0  0  0  0  0  2  0  0  0  0  0  0
  1  2  2  0  0  0  0
  2  6  1  0  0  0  0
  3 21  1  0  0  0  0
  3  1  2  0  0  0  0
  4 10  1  0  0  0  0
  5  7  1  0  0  0  0
  5  9  1  0  0  0  0
  6 11  1  0  0  0  0
  6 13  2  0  0  0  0
  8 13  1  0  0  0  0
  8 12  1  0  0  0  0
 10  7  2  0  0  0  0
 11  4  2  0  0  0  0
 12  5  2  0  0  0  0
 13 10  1  0  0  0  0
 14 18  1  0  0  0  0
 15 16  1  0  0  0  0
 15  2  1  0  0  0  0
 17 16  2  0  0  0  0
 18 17  1  0  0  0  0
 19 15  2  0  0  0  0
 20 18  2  0  0  0  0
 20 19  1  0  0  0  0
 21 25  1  0  0  0  0
 22 25  1  0  0  0  0
 22 24  1  0  0  0  0
 23 22  2  0  0  0  0
M  END
>  <MODEL>
9

>  <REMARK>
 VINA RESULT:      -9.4      3.565      5.761
  Name = 
  4 active torsions:
  status: ('A' for Active; 'I' for Inactive)
    1  A    between atoms: C_3  and  N_19
    2  A    between atoms: C_3  and  C_24
    3  A    between atoms: C_7  and  C_12
    4  A    between atoms: C_9  and  C_12
                            x       y       z     vdW  Elec       q    Type
                         _______ _______ _______ _____ _____    ______ ____

>  <TORSDO>
F 4

$$$$
