=
 OpenBabel11032419433D

 45 49  0  0  1  0  0  0  0  0999 V2000
  184.5380  178.5900  142.3830 C   0  0  0  0  0  0  0  0  0  0  0  0
  184.4110  178.4200  139.9610 C   0  0  0  0  0  0  0  0  0  0  0  0
  185.8170  178.6580  139.8600 N   0  0  0  0  0  0  0  0  0  0  0  0
  183.7230  178.2560  138.8680 N   0  0  0  0  0  0  0  0  0  0  0  0
  183.7920  178.4030  141.2940 C   0  0  0  0  0  3  0  0  0  0  0  0
  186.5790  178.8530  140.8970 C   0  0  0  0  0  0  0  0  0  0  0  0
  186.0220  178.8430  142.2990 C   0  0  0  0  0  2  0  0  0  0  0  0
  181.5110  178.8970  138.3800 O   0  0  0  0  0  0  0  0  0  0  0  0
  182.3140  177.9980  138.7510 C   0  0  0  0  0  0  0  0  0  0  0  0
  181.7660  175.6280  138.0550 C   0  0  1  0  0  3  0  0  0  0  0  0
  182.8330  175.6330  139.0680 N   0  0  0  0  0  2  0  0  0  0  0  0
  181.7680  176.6500  139.1290 C   0  0  1  0  0  3  0  0  0  0  0  0
  182.3270  176.0740  136.7000 C   0  0  2  0  0  3  0  0  0  0  0  0
  181.2600  176.3430  135.8400 O   0  0  0  0  0  1  0  0  0  0  0  0
  183.2280  174.9930  136.0930 C   0  0  1  0  0  3  0  0  0  0  0  0
  182.5040  174.2310  135.0820 N   0  0  0  0  0  2  0  0  0  0  0  0
  182.1750  173.0440  135.6460 O   0  0  0  0  0  1  0  0  0  0  0  0
  184.4930  175.6030  135.4870 C   0  0  2  0  0  3  0  0  0  0  0  0
  185.0950  174.7110  134.5940 O   0  0  0  0  0  1  0  0  0  0  0  0
  186.7470  176.1800  135.9850 O   0  0  0  0  0  0  0  0  0  0  0  0
  186.0250  177.3460  136.3050 C   0  0  0  0  0  2  0  0  0  0  0  0
  185.4820  175.9970  136.5710 C   0  0  1  0  0  3  0  0  0  0  0  0
  183.8900  178.5950  143.7250 C   0  0  0  0  0  2  0  0  0  0  0  0
  184.8660  178.9320  144.7460 N   0  0  0  0  0  2  0  0  0  0  0  0
  184.2190  178.7890  145.9800 N   0  0  0  0  0  2  0  0  0  0  0  0
  185.2500  178.4880  146.9580 C   0  0  0  0  0  2  0  0  0  0  0  0
  186.5300  178.3240  146.2890 N   0  0  0  0  0  2  0  0  0  0  0  0
  187.3460  177.6650  147.1480 O   0  0  0  0  0  0  0  0  0  0  0  0
  191.5240  177.1140  145.2470 C   0  0  0  0  0  2  0  0  0  0  0  0
  190.6580  177.8920  144.2550 C   0  0  0  0  0  2  0  0  0  0  0  0
  189.7200  177.5220  147.0100 C   0  0  0  0  0  2  0  0  0  0  0  0
  188.3870  177.1860  146.3520 C   0  0  2  0  0  3  0  0  0  0  0  0
  189.3130  177.2310  143.9950 C   0  0  0  0  0  2  0  0  0  0  0  0
  190.7990  176.5810  146.4860 C   0  0  2  0  0  3  0  0  0  0  0  0
  191.8150  176.3210  147.5820 C   0  0  0  0  0  1  0  0  0  0  0  0
  188.2740  177.7980  144.9570 C   0  0  0  0  0  2  0  0  0  0  0  0
  187.9570  179.0750  140.7510 O   0  0  0  0  0  0  0  0  0  0  0  0
  188.4840  179.3130  137.8310 O   0  0  0  0  0  0  0  0  0  0  0  0
  189.6170  177.3100  140.4030 C   0  0  0  0  0  3  0  0  0  0  0  0
  190.3970  176.7520  139.2360 C   0  0  1  0  0  3  0  0  0  0  0  0
  189.0450  178.4620  138.5660 C   0  0  0  0  0  0  0  0  0  0  0  0
  189.9740  177.5440  138.1270 O   0  0  0  0  0  0  0  0  0  0  0  0
  188.8380  178.3000  139.9820 C   0  0  0  0  0  0  0  0  0  0  0  0
  192.1330  177.3100  140.9270 C   0  0  0  0  0  1  0  0  0  0  0  0
  191.8840  176.9430  139.4790 C   0  0  0  0  0  2  0  0  0  0  0  0
  1 23  1  0  0  0  0
  2  5  1  0  0  0  0
  3  2  1  0  0  0  0
  3  6  2  0  0  0  0
  4  2  2  0  0  0  0
  5  1  2  0  0  0  0
  6  7  1  0  0  0  0
  7  1  1  0  0  0  0
  8  9  2  0  0  0  0
  9  4  1  0  0  0  0
 10 13  1  6  0  0  0
 10 11  1  0  0  0  0
 10 12  1  0  0  0  0
 11 12  1  0  0  0  0
 12  9  1  6  0  0  0
 13 14  1  6  0  0  0
 15 16  1  6  0  0  0
 15 13  1  0  0  0  0
 16 17  1  0  0  0  0
 18 19  1  6  0  0  0
 18 15  1  0  0  0  0
 20 21  1  0  0  0  0
 20 22  1  0  0  0  0
 21 22  1  0  0  0  0
 22 18  1  6  0  0  0
 23 24  1  0  0  0  0
 24 25  1  0  0  0  0
 25 26  1  0  0  0  0
 27 26  1  0  0  0  0
 27 28  1  0  0  0  0
 29 34  1  0  0  0  0
 30 29  1  0  0  0  0
 32 31  1  0  0  0  0
 32 28  1  1  0  0  0
 33 30  1  0  0  0  0
 33 36  1  0  0  0  0
 34 31  1  0  0  0  0
 34 35  1  1  0  0  0
 36 32  1  0  0  0  0
 37  6  1  0  0  0  0
 38 41  2  0  0  0  0
 40 45  1  1  0  0  0
 40 39  1  0  0  0  0
 41 43  1  0  0  0  0
 42 41  1  0  0  0  0
 42 40  1  0  0  0  0
 43 39  2  0  0  0  0
 43 37  1  0  0  0  0
 45 44  1  0  0  0  0
M  END
>  <MODEL>
1

>  <REMARK>
 VINA RESULT:      -7.5      0.000      0.000
  Name = 
  17 active torsions:
  status: ('A' for Active; 'I' for Inactive)
    1  A    between atoms: C_2  and  C_17
    2  A    between atoms: N_4  and  C_9
    3  A    between atoms: N_4  and  N_29
    4  A    between atoms: C_6  and  N_18
    5  A    between atoms: C_6  and  N_29
    6  A    between atoms: C_7  and  C_14
    7  A    between atoms: C_7  and  C_43
    8  A    between atoms: C_9  and  C_12
    9  A    between atoms: N_13  and  C_14
   10  A    between atoms: C_14  and  C_17
   11  A    between atoms: N_18  and  O_30
   12  A    between atoms: C_20  and  O_30
   13  A    between atoms: C_22  and  C_27
   14  A    between atoms: N_33  and  C_35
   15  A    between atoms: C_35  and  C_41
   16  A    between atoms: C_38  and  O_44
   17  A    between atoms: C_40  and  O_44
                            x       y       z     vdW  Elec       q    Type
                         _______ _______ _______ _____ _____    ______ ____

>  <TORSDO>
F 17

$$$$
=
 OpenBabel11032419433D

 45 49  0  0  1  0  0  0  0  0999 V2000
  187.6980  177.5720  138.6630 C   0  0  0  0  0  0  0  0  0  0  0  0
  189.8700  176.5660  139.0870 C   0  0  0  0  0  0  0  0  0  0  0  0
  189.9640  177.2670  140.3300 N   0  0  0  0  0  0  0  0  0  0  0  0
  190.8580  175.7980  138.7250 N   0  0  0  0  0  0  0  0  0  0  0  0
  188.6760  176.7640  138.2530 C   0  0  0  0  0  3  0  0  0  0  0  0
  189.0360  178.0710  140.7620 C   0  0  0  0  0  0  0  0  0  0  0  0
  187.7770  178.3210  139.9680 C   0  0  0  0  0  2  0  0  0  0  0  0
  191.0160  173.7470  137.5820 O   0  0  0  0  0  0  0  0  0  0  0  0
  190.9570  175.0050  137.5300 C   0  0  0  0  0  0  0  0  0  0  0  0
  192.4060  176.1210  135.7820 C   0  0  1  0  0  3  0  0  0  0  0  0
  191.8500  174.8620  135.2620 N   0  0  0  0  0  2  0  0  0  0  0  0
  191.0500  175.6810  136.1910 C   0  0  1  0  0  3  0  0  0  0  0  0
  193.5380  175.8250  136.7730 C   0  0  2  0  0  3  0  0  0  0  0  0
  193.8180  176.9870  137.4940 O   0  0  0  0  0  1  0  0  0  0  0  0
  194.7970  175.3460  136.0420 C   0  0  1  0  0  3  0  0  0  0  0  0
  195.7220  176.4550  135.8350 N   0  0  0  0  0  2  0  0  0  0  0  0
  196.9510  176.0120  136.1920 O   0  0  0  0  0  1  0  0  0  0  0  0
  195.4900  174.2200  136.8130 C   0  0  2  0  0  3  0  0  0  0  0  0
  195.4860  173.0350  136.0700 O   0  0  0  0  0  1  0  0  0  0  0  0
  195.4240  172.8800  138.7770 O   0  0  0  0  0  0  0  0  0  0  0  0
  195.8060  174.1500  139.2510 C   0  0  0  0  0  2  0  0  0  0  0  0
  194.8230  173.9910  138.1590 C   0  0  1  0  0  3  0  0  0  0  0  0
  186.5060  177.7810  137.7940 C   0  0  0  0  0  2  0  0  0  0  0  0
  185.3890  178.2600  138.5880 N   0  0  0  0  0  2  0  0  0  0  0  0
  184.2380  178.0770  137.8120 N   0  0  0  0  0  2  0  0  0  0  0  0
  183.5940  176.8700  138.2990 C   0  0  0  0  0  2  0  0  0  0  0  0
  183.1590  177.0650  139.6720 N   0  0  0  0  0  2  0  0  0  0  0  0
  182.2530  178.0740  139.6620 O   0  0  0  0  0  0  0  0  0  0  0  0
  183.3510  178.8610  144.0850 C   0  0  0  0  0  2  0  0  0  0  0  0
  181.8410  178.6260  144.0120 C   0  0  0  0  0  2  0  0  0  0  0  0
  183.5130  178.0020  141.6830 C   0  0  0  0  0  2  0  0  0  0  0  0
  182.4160  178.7080  140.8950 C   0  0  2  0  0  3  0  0  0  0  0  0
  181.1580  179.4770  142.9530 C   0  0  0  0  0  2  0  0  0  0  0  0
  184.0750  178.9480  142.7370 C   0  0  2  0  0  3  0  0  0  0  0  0
  185.5480  178.6540  142.9450 C   0  0  0  0  0  1  0  0  0  0  0  0
  181.0860  178.6990  141.6430 C   0  0  0  0  0  2  0  0  0  0  0  0
  189.1670  178.7330  141.9920 O   0  0  0  0  0  0  0  0  0  0  0  0
  191.4560  179.2000  143.8370 O   0  0  0  0  0  0  0  0  0  0  0  0
  188.6290  177.2190  143.8400 C   0  0  0  0  0  3  0  0  0  0  0  0
  189.2540  176.8330  145.1590 C   0  0  1  0  0  3  0  0  0  0  0  0
  190.5270  178.3890  144.0810 C   0  0  0  0  0  0  0  0  0  0  0  0
  190.4400  177.6250  145.2250 O   0  0  0  0  0  0  0  0  0  0  0  0
  189.3930  178.1230  143.2350 C   0  0  0  0  0  0  0  0  0  0  0  0
  189.0790  177.9140  147.3930 C   0  0  0  0  0  1  0  0  0  0  0  0
  188.3150  177.2010  146.2950 C   0  0  0  0  0  2  0  0  0  0  0  0
  1  7  1  0  0  0  0
  2  3  1  0  0  0  0
  3  6  2  0  0  0  0
  4  2  2  0  0  0  0
  5  1  2  0  0  0  0
  5  2  1  0  0  0  0
  6 37  1  0  0  0  0
  7  6  1  0  0  0  0
  9  8  2  0  0  0  0
  9  4  1  0  0  0  0
 10 12  1  0  0  0  0
 10 13  1  1  0  0  0
 11 10  1  0  0  0  0
 11 12  1  0  0  0  0
 12  9  1  1  0  0  0
 13 14  1  6  0  0  0
 15 16  1  1  0  0  0
 15 13  1  0  0  0  0
 15 18  1  0  0  0  0
 16 17  1  0  0  0  0
 18 19  1  6  0  0  0
 20 21  1  0  0  0  0
 22 18  1  6  0  0  0
 22 20  1  0  0  0  0
 22 21  1  0  0  0  0
 23 24  1  0  0  0  0
 23  1  1  0  0  0  0
 25 26  1  0  0  0  0
 25 24  1  0  0  0  0
 26 27  1  0  0  0  0
 28 27  1  0  0  0  0
 30 29  1  0  0  0  0
 31 34  1  0  0  0  0
 32 28  1  6  0  0  0
 32 36  1  0  0  0  0
 32 31  1  0  0  0  0
 33 30  1  0  0  0  0
 34 35  1  1  0  0  0
 34 29  1  0  0  0  0
 36 33  1  0  0  0  0
 37 43  1  0  0  0  0
 38 41  2  0  0  0  0
 39 40  1  0  0  0  0
 40 42  1  0  0  0  0
 40 45  1  1  0  0  0
 41 42  1  0  0  0  0
 43 39  2  0  0  0  0
 43 41  1  0  0  0  0
 45 44  1  0  0  0  0
M  END
>  <MODEL>
2

>  <REMARK>
 VINA RESULT:      -7.3      3.840      8.550
  Name = 
  17 active torsions:
  status: ('A' for Active; 'I' for Inactive)
    1  A    between atoms: C_2  and  C_17
    2  A    between atoms: N_4  and  C_9
    3  A    between atoms: N_4  and  N_29
    4  A    between atoms: C_6  and  N_18
    5  A    between atoms: C_6  and  N_29
    6  A    between atoms: C_7  and  C_14
    7  A    between atoms: C_7  and  C_43
    8  A    between atoms: C_9  and  C_12
    9  A    between atoms: N_13  and  C_14
   10  A    between atoms: C_14  and  C_17
   11  A    between atoms: N_18  and  O_30
   12  A    between atoms: C_20  and  O_30
   13  A    between atoms: C_22  and  C_27
   14  A    between atoms: N_33  and  C_35
   15  A    between atoms: C_35  and  C_41
   16  A    between atoms: C_38  and  O_44
   17  A    between atoms: C_40  and  O_44
                            x       y       z     vdW  Elec       q    Type
                         _______ _______ _______ _____ _____    ______ ____

>  <TORSDO>
F 17

$$$$
=
 OpenBabel11032419433D

 45 49  0  0  1  0  0  0  0  0999 V2000
  189.7870  177.0220  139.8530 C   0  0  0  0  0  0  0  0  0  0  0  0
  189.7850  176.6690  137.4480 C   0  0  0  0  0  0  0  0  0  0  0  0
  188.6020  177.4610  137.3220 N   0  0  0  0  0  0  0  0  0  0  0  0
  190.2980  176.1340  136.3780 N   0  0  0  0  0  0  0  0  0  0  0  0
  190.3580  176.4640  138.7860 C   0  0  0  0  0  3  0  0  0  0  0  0
  188.0100  178.0170  138.3390 C   0  0  0  0  0  0  0  0  0  0  0  0
  188.5390  177.8610  139.7430 C   0  0  0  0  0  2  0  0  0  0  0  0
  191.5700  174.2240  136.9050 O   0  0  0  0  0  0  0  0  0  0  0  0
  191.4790  175.3190  136.2860 C   0  0  0  0  0  0  0  0  0  0  0  0
  193.9540  175.8360  136.2000 C   0  0  1  0  0  3  0  0  0  0  0  0
  193.6330  174.7090  135.3110 N   0  0  0  0  0  2  0  0  0  0  0  0
  192.6560  175.7990  135.4840 C   0  0  1  0  0  3  0  0  0  0  0  0
  193.9300  175.3750  137.6620 C   0  0  2  0  0  3  0  0  0  0  0  0
  193.7760  176.4940  138.4830 O   0  0  0  0  0  1  0  0  0  0  0  0
  195.2210  174.6330  138.0260 C   0  0  1  0  0  3  0  0  0  0  0  0
  195.6230  174.9450  139.3920 N   0  0  0  0  0  2  0  0  0  0  0  0
  196.9590  175.1700  139.3670 O   0  0  0  0  0  1  0  0  0  0  0  0
  195.0570  173.1210  137.8580 C   0  0  2  0  0  3  0  0  0  0  0  0
  195.1080  172.4750  139.0980 O   0  0  0  0  0  1  0  0  0  0  0  0
  196.6050  171.3540  137.4830 O   0  0  0  0  0  0  0  0  0  0  0  0
  195.7010  171.2400  136.4090 C   0  0  0  0  0  2  0  0  0  0  0  0
  196.1230  172.5550  136.9350 C   0  0  1  0  0  3  0  0  0  0  0  0
  190.3660  176.7830  141.2060 C   0  0  0  0  0  2  0  0  0  0  0  0
  191.5220  177.6380  141.4100 N   0  0  0  0  0  2  0  0  0  0  0  0
  192.1300  177.2110  142.5970 N   0  0  0  0  0  2  0  0  0  0  0  0
  191.2120  176.2760  143.2230 C   0  0  0  0  0  2  0  0  0  0  0  0
  191.4510  176.2380  144.6550 N   0  0  0  0  0  2  0  0  0  0  0  0
  191.0110  177.4150  145.1630 O   0  0  0  0  0  0  0  0  0  0  0  0
  186.5060  177.8560  146.1080 C   0  0  0  0  0  2  0  0  0  0  0  0
  187.2820  178.1070  147.4020 C   0  0  0  0  0  2  0  0  0  0  0  0
  188.7250  178.0080  144.8500 C   0  0  0  0  0  2  0  0  0  0  0  0
  189.7190  177.1440  145.6170 C   0  0  2  0  0  3  0  0  0  0  0  0
  188.2970  177.0160  147.7080 C   0  0  0  0  0  2  0  0  0  0  0  0
  187.3400  177.3760  144.9160 C   0  0  2  0  0  3  0  0  0  0  0  0
  186.5880  177.6720  143.6330 C   0  0  0  0  0  1  0  0  0  0  0  0
  189.6510  177.4010  147.1200 C   0  0  0  0  0  2  0  0  0  0  0  0
  186.8540  178.7940  138.1670 O   0  0  0  0  0  0  0  0  0  0  0  0
  185.0520  179.6200  140.3880 O   0  0  0  0  0  0  0  0  0  0  0  0
  184.8260  177.5180  137.6600 C   0  0  0  0  0  3  0  0  0  0  0  0
  183.4560  177.3450  138.2730 C   0  0  1  0  0  3  0  0  0  0  0  0
  184.7150  178.8030  139.4940 C   0  0  0  0  0  0  0  0  0  0  0  0
  183.4800  178.1970  139.4170 O   0  0  0  0  0  0  0  0  0  0  0  0
  185.5360  178.3690  138.3930 C   0  0  0  0  0  0  0  0  0  0  0  0
  181.6600  179.0140  137.8550 C   0  0  0  0  0  1  0  0  0  0  0  0
  182.3960  177.8150  137.2920 C   0  0  0  0  0  2  0  0  0  0  0  0
  1 23  1  0  0  0  0
  2  5  1  0  0  0  0
  3  2  1  0  0  0  0
  3  6  2  0  0  0  0
  4  2  2  0  0  0  0
  5  1  2  0  0  0  0
  6  7  1  0  0  0  0
  7  1  1  0  0  0  0
  9  4  1  0  0  0  0
  9  8  2  0  0  0  0
 10 13  1  1  0  0  0
 11 12  1  0  0  0  0
 11 10  1  0  0  0  0
 12 10  1  0  0  0  0
 12  9  1  1  0  0  0
 13 15  1  0  0  0  0
 13 14  1  1  0  0  0
 15 16  1  1  0  0  0
 17 16  1  0  0  0  0
 18 15  1  0  0  0  0
 18 19  1  1  0  0  0
 21 22  1  0  0  0  0
 21 20  1  0  0  0  0
 22 20  1  0  0  0  0
 22 18  1  1  0  0  0
 23 24  1  0  0  0  0
 24 25  1  0  0  0  0
 25 26  1  0  0  0  0
 26 27  1  0  0  0  0
 27 28  1  0  0  0  0
 29 30  1  0  0  0  0
 30 33  1  0  0  0  0
 31 34  1  0  0  0  0
 31 32  1  0  0  0  0
 32 28  1  6  0  0  0
 32 36  1  0  0  0  0
 34 35  1  6  0  0  0
 34 29  1  0  0  0  0
 36 33  1  0  0  0  0
 37  6  1  0  0  0  0
 37 43  1  0  0  0  0
 39 40  1  0  0  0  0
 39 43  2  0  0  0  0
 40 45  1  6  0  0  0
 40 42  1  0  0  0  0
 41 38  2  0  0  0  0
 42 41  1  0  0  0  0
 43 41  1  0  0  0  0
 45 44  1  0  0  0  0
M  END
>  <MODEL>
3

>  <REMARK>
 VINA RESULT:      -7.1      4.408      8.419
  Name = 
  17 active torsions:
  status: ('A' for Active; 'I' for Inactive)
    1  A    between atoms: C_2  and  C_17
    2  A    between atoms: N_4  and  C_9
    3  A    between atoms: N_4  and  N_29
    4  A    between atoms: C_6  and  N_18
    5  A    between atoms: C_6  and  N_29
    6  A    between atoms: C_7  and  C_14
    7  A    between atoms: C_7  and  C_43
    8  A    between atoms: C_9  and  C_12
    9  A    between atoms: N_13  and  C_14
   10  A    between atoms: C_14  and  C_17
   11  A    between atoms: N_18  and  O_30
   12  A    between atoms: C_20  and  O_30
   13  A    between atoms: C_22  and  C_27
   14  A    between atoms: N_33  and  C_35
   15  A    between atoms: C_35  and  C_41
   16  A    between atoms: C_38  and  O_44
   17  A    between atoms: C_40  and  O_44
                            x       y       z     vdW  Elec       q    Type
                         _______ _______ _______ _____ _____    ______ ____

>  <TORSDO>
F 17

$$$$
=
 OpenBabel11032419433D

 45 49  0  0  1  0  0  0  0  0999 V2000
  186.9710  178.4140  142.0040 C   0  0  0  0  0  0  0  0  0  0  0  0
  188.8320  177.9690  140.5050 C   0  0  0  0  0  0  0  0  0  0  0  0
  189.6080  177.4720  141.5980 N   0  0  0  0  0  0  0  0  0  0  0  0
  189.3680  178.0010  139.3190 N   0  0  0  0  0  0  0  0  0  0  0  0
  187.4690  178.4550  140.7690 C   0  0  0  0  0  3  0  0  0  0  0  0
  189.1610  177.4230  142.8200 C   0  0  0  0  0  0  0  0  0  0  0  0
  187.7710  177.8950  143.1710 C   0  0  0  0  0  2  0  0  0  0  0  0
  189.0250  179.5820  137.6100 O   0  0  0  0  0  0  0  0  0  0  0  0
  188.7620  178.4490  138.0950 C   0  0  0  0  0  0  0  0  0  0  0  0
  188.2880  176.6360  136.3950 C   0  0  1  0  0  3  0  0  0  0  0  0
  187.9660  176.1660  137.7530 N   0  0  0  0  0  2  0  0  0  0  0  0
  187.7490  177.5810  137.4030 C   0  0  1  0  0  3  0  0  0  0  0  0
  189.8070  176.6590  136.1950 C   0  0  2  0  0  3  0  0  0  0  0  0
  190.0840  177.1880  134.9330 O   0  0  0  0  0  1  0  0  0  0  0  0
  190.4000  175.2510  136.3130 C   0  0  1  0  0  3  0  0  0  0  0  0
  190.8830  174.7880  135.0180 N   0  0  0  0  0  2  0  0  0  0  0  0
  190.5360  173.4830  134.9130 O   0  0  0  0  0  1  0  0  0  0  0  0
  191.5330  175.2120  137.3420 C   0  0  2  0  0  3  0  0  0  0  0  0
  191.0260  175.3120  138.6420 O   0  0  0  0  0  1  0  0  0  0  0  0
  193.4880  176.3180  138.1240 O   0  0  0  0  0  0  0  0  0  0  0  0
  193.8890  175.7620  136.8930 C   0  0  0  0  0  2  0  0  0  0  0  0
  192.5360  176.3260  137.0900 C   0  0  1  0  0  3  0  0  0  0  0  0
  185.5970  178.9340  142.2590 C   0  0  0  0  0  2  0  0  0  0  0  0
  185.2790  178.8240  143.6710 N   0  0  0  0  0  2  0  0  0  0  0  0
  184.2000  179.6860  143.9060 N   0  0  0  0  0  2  0  0  0  0  0  0
  183.3050  178.9930  144.8160 C   0  0  0  0  0  2  0  0  0  0  0  0
  182.0450  178.7140  144.1490 N   0  0  0  0  0  2  0  0  0  0  0  0
  181.8840  179.6600  143.1910 O   0  0  0  0  0  0  0  0  0  0  0  0
  180.7630  177.9680  139.0360 C   0  0  0  0  0  2  0  0  0  0  0  0
  179.9400  179.2380  139.2620 C   0  0  0  0  0  2  0  0  0  0  0  0
  182.1720  178.6250  141.0640 C   0  0  0  0  0  2  0  0  0  0  0  0
  181.1930  179.0120  142.1660 C   0  0  2  0  0  3  0  0  0  0  0  0
  179.2170  179.2470  140.6000 C   0  0  0  0  0  2  0  0  0  0  0  0
  181.5860  177.4880  140.2360 C   0  0  2  0  0  3  0  0  0  0  0  0
  182.7070  176.5940  139.7430 C   0  0  0  0  0  1  0  0  0  0  0  0
  180.0900  179.9310  141.6460 C   0  0  0  0  0  2  0  0  0  0  0  0
  189.9560  176.9200  143.8610 O   0  0  0  0  0  0  0  0  0  0  0  0
  191.8760  177.1240  146.1260 O   0  0  0  0  0  0  0  0  0  0  0  0
  188.4450  176.9520  145.7880 C   0  0  0  0  0  3  0  0  0  0  0  0
  188.5860  177.0260  147.2900 C   0  0  1  0  0  3  0  0  0  0  0  0
  190.6300  177.0680  146.2810 C   0  0  0  0  0  0  0  0  0  0  0  0
  189.9940  177.1030  147.5030 O   0  0  0  0  0  0  0  0  0  0  0  0
  189.6510  176.9750  145.2290 C   0  0  0  0  0  0  0  0  0  0  0  0
  186.5480  178.4470  147.1590 C   0  0  0  0  0  1  0  0  0  0  0  0
  187.9100  178.2870  147.8030 C   0  0  0  0  0  2  0  0  0  0  0  0
  1 23  1  0  0  0  0
  1  7  1  0  0  0  0
  2  5  1  0  0  0  0
  2  3  1  0  0  0  0
  3  6  2  0  0  0  0
  4  2  2  0  0  0  0
  5  1  2  0  0  0  0
  6  7  1  0  0  0  0
  6 37  1  0  0  0  0
  8  9  2  0  0  0  0
  9  4  1  0  0  0  0
 10 13  1  1  0  0  0
 10 12  1  0  0  0  0
 10 11  1  0  0  0  0
 12 11  1  0  0  0  0
 12  9  1  1  0  0  0
 13 14  1  6  0  0  0
 13 15  1  0  0  0  0
 15 16  1  6  0  0  0
 15 18  1  0  0  0  0
 17 16  1  0  0  0  0
 18 19  1  1  0  0  0
 21 22  1  0  0  0  0
 21 20  1  0  0  0  0
 22 18  1  1  0  0  0
 22 20  1  0  0  0  0
 23 24  1  0  0  0  0
 24 25  1  0  0  0  0
 25 26  1  0  0  0  0
 27 26  1  0  0  0  0
 28 27  1  0  0  0  0
 29 30  1  0  0  0  0
 29 34  1  0  0  0  0
 30 33  1  0  0  0  0
 31 32  1  0  0  0  0
 32 28  1  1  0  0  0
 33 36  1  0  0  0  0
 34 35  1  6  0  0  0
 34 31  1  0  0  0  0
 36 32  1  0  0  0  0
 37 43  1  0  0  0  0
 38 41  2  0  0  0  0
 39 40  1  0  0  0  0
 40 42  1  0  0  0  0
 40 45  1  6  0  0  0
 41 42  1  0  0  0  0
 43 39  2  0  0  0  0
 43 41  1  0  0  0  0
 44 45  1  0  0  0  0
M  END
>  <MODEL>
4

>  <REMARK>
 VINA RESULT:      -7.0      3.220      7.438
  Name = 
  17 active torsions:
  status: ('A' for Active; 'I' for Inactive)
    1  A    between atoms: C_2  and  C_17
    2  A    between atoms: N_4  and  C_9
    3  A    between atoms: N_4  and  N_29
    4  A    between atoms: C_6  and  N_18
    5  A    between atoms: C_6  and  N_29
    6  A    between atoms: C_7  and  C_14
    7  A    between atoms: C_7  and  C_43
    8  A    between atoms: C_9  and  C_12
    9  A    between atoms: N_13  and  C_14
   10  A    between atoms: C_14  and  C_17
   11  A    between atoms: N_18  and  O_30
   12  A    between atoms: C_20  and  O_30
   13  A    between atoms: C_22  and  C_27
   14  A    between atoms: N_33  and  C_35
   15  A    between atoms: C_35  and  C_41
   16  A    between atoms: C_38  and  O_44
   17  A    between atoms: C_40  and  O_44
                            x       y       z     vdW  Elec       q    Type
                         _______ _______ _______ _____ _____    ______ ____

>  <TORSDO>
F 17

$$$$
=
 OpenBabel11032419433D

 45 49  0  0  1  0  0  0  0  0999 V2000
  185.0330  178.4130  142.4390 C   0  0  0  0  0  0  0  0  0  0  0  0
  184.8000  178.8370  140.0570 C   0  0  0  0  0  0  0  0  0  0  0  0
  186.2210  178.7930  139.9000 N   0  0  0  0  0  0  0  0  0  0  0  0
  184.0620  179.0770  139.0120 N   0  0  0  0  0  0  0  0  0  0  0  0
  184.2320  178.6420  141.3990 C   0  0  0  0  0  3  0  0  0  0  0  0
  187.0370  178.5800  140.8910 C   0  0  0  0  0  0  0  0  0  0  0  0
  186.5320  178.3630  142.2960 C   0  0  0  0  0  2  0  0  0  0  0  0
  181.9350  179.3020  139.9960 O   0  0  0  0  0  0  0  0  0  0  0  0
  182.6270  179.1530  138.9530 C   0  0  0  0  0  0  0  0  0  0  0  0
  181.5490  177.6110  137.2610 C   0  0  1  0  0  3  0  0  0  0  0  0
  180.5470  178.5190  137.8420 N   0  0  0  0  0  2  0  0  0  0  0  0
  181.9260  178.9960  137.6330 C   0  0  1  0  0  3  0  0  0  0  0  0
  181.9160  176.5190  138.2730 C   0  0  2  0  0  3  0  0  0  0  0  0
  183.1250  175.9370  137.8850 O   0  0  0  0  0  1  0  0  0  0  0  0
  180.8210  175.4490  138.3490 C   0  0  1  0  0  3  0  0  0  0  0  0
  181.2810  174.2020  137.7470 N   0  0  0  0  0  2  0  0  0  0  0  0
  180.9000  174.2300  136.4480 O   0  0  0  0  0  1  0  0  0  0  0  0
  180.3850  175.2060  139.7950 C   0  0  2  0  0  3  0  0  0  0  0  0
  179.9810  173.8790  139.9750 O   0  0  0  0  0  1  0  0  0  0  0  0
  178.9430  175.9290  141.5430 O   0  0  0  0  0  0  0  0  0  0  0  0
  179.7160  177.0710  141.2540 C   0  0  0  0  0  2  0  0  0  0  0  0
  179.2610  176.1480  140.1910 C   0  0  1  0  0  3  0  0  0  0  0  0
  184.4410  178.2420  143.7970 C   0  0  0  0  0  2  0  0  0  0  0  0
  184.0550  179.5340  144.3360 N   0  0  0  0  0  2  0  0  0  0  0  0
  184.9000  179.7830  145.4240 N   0  0  0  0  0  2  0  0  0  0  0  0
  184.8790  178.5890  146.2500 C   0  0  0  0  0  2  0  0  0  0  0  0
  186.1670  178.4180  146.9000 N   0  0  0  0  0  2  0  0  0  0  0  0
  186.7950  177.3920  146.2750 O   0  0  0  0  0  0  0  0  0  0  0  0
  191.3490  177.4150  145.4720 C   0  0  0  0  0  2  0  0  0  0  0  0
  191.1070  176.6410  146.7690 C   0  0  0  0  0  2  0  0  0  0  0  0
  188.8320  177.3120  145.0410 C   0  0  0  0  0  2  0  0  0  0  0  0
  188.1520  177.7110  146.3450 C   0  0  2  0  0  3  0  0  0  0  0  0
  190.2310  177.3970  147.7570 C   0  0  0  0  0  2  0  0  0  0  0  0
  190.1210  178.1070  144.8720 C   0  0  2  0  0  3  0  0  0  0  0  0
  190.3660  178.3630  143.3980 C   0  0  0  0  0  1  0  0  0  0  0  0
  188.7720  177.0040  147.5480 C   0  0  0  0  0  2  0  0  0  0  0  0
  188.4250  178.5380  140.6890 O   0  0  0  0  0  0  0  0  0  0  0  0
  190.4060  176.3190  140.5760 O   0  0  0  0  0  0  0  0  0  0  0  0
  188.9350  178.4520  138.2950 C   0  0  0  0  0  3  0  0  0  0  0  0
  189.8320  177.6370  137.3940 C   0  0  1  0  0  3  0  0  0  0  0  0
  190.0320  176.9630  139.5630 C   0  0  0  0  0  0  0  0  0  0  0  0
  190.4760  176.7230  138.2800 O   0  0  0  0  0  0  0  0  0  0  0  0
  189.0760  178.0390  139.5500 C   0  0  0  0  0  0  0  0  0  0  0  0
  188.5290  177.8120  135.2820 C   0  0  0  0  0  1  0  0  0  0  0  0
  188.9860  176.8800  136.3850 C   0  0  0  0  0  2  0  0  0  0  0  0
  1 23  1  0  0  0  0
  2  5  1  0  0  0  0
  3  2  1  0  0  0  0
  3  6  2  0  0  0  0
  4  2  2  0  0  0  0
  5  1  2  0  0  0  0
  6  7  1  0  0  0  0
  7  1  1  0  0  0  0
  9  4  1  0  0  0  0
  9  8  2  0  0  0  0
 10 12  1  0  0  0  0
 10 11  1  0  0  0  0
 10 13  1  1  0  0  0
 12 11  1  0  0  0  0
 12  9  1  1  0  0  0
 13 14  1  6  0  0  0
 13 15  1  0  0  0  0
 15 16  1  1  0  0  0
 15 18  1  0  0  0  0
 17 16  1  0  0  0  0
 18 19  1  6  0  0  0
 21 20  1  0  0  0  0
 22 18  1  1  0  0  0
 22 21  1  0  0  0  0
 22 20  1  0  0  0  0
 23 24  1  0  0  0  0
 24 25  1  0  0  0  0
 25 26  1  0  0  0  0
 26 27  1  0  0  0  0
 28 27  1  0  0  0  0
 29 30  1  0  0  0  0
 30 33  1  0  0  0  0
 31 32  1  0  0  0  0
 32 28  1  6  0  0  0
 32 36  1  0  0  0  0
 34 35  1  6  0  0  0
 34 31  1  0  0  0  0
 34 29  1  0  0  0  0
 36 33  1  0  0  0  0
 37  6  1  0  0  0  0
 39 43  2  0  0  0  0
 40 45  1  6  0  0  0
 40 42  1  0  0  0  0
 40 39  1  0  0  0  0
 41 38  2  0  0  0  0
 42 41  1  0  0  0  0
 43 41  1  0  0  0  0
 43 37  1  0  0  0  0
 44 45  1  0  0  0  0
M  END
>  <MODEL>
5

>  <REMARK>
 VINA RESULT:      -7.0      1.835      3.460
  Name = 
  17 active torsions:
  status: ('A' for Active; 'I' for Inactive)
    1  A    between atoms: C_2  and  C_17
    2  A    between atoms: N_4  and  C_9
    3  A    between atoms: N_4  and  N_29
    4  A    between atoms: C_6  and  N_18
    5  A    between atoms: C_6  and  N_29
    6  A    between atoms: C_7  and  C_14
    7  A    between atoms: C_7  and  C_43
    8  A    between atoms: C_9  and  C_12
    9  A    between atoms: N_13  and  C_14
   10  A    between atoms: C_14  and  C_17
   11  A    between atoms: N_18  and  O_30
   12  A    between atoms: C_20  and  O_30
   13  A    between atoms: C_22  and  C_27
   14  A    between atoms: N_33  and  C_35
   15  A    between atoms: C_35  and  C_41
   16  A    between atoms: C_38  and  O_44
   17  A    between atoms: C_40  and  O_44
                            x       y       z     vdW  Elec       q    Type
                         _______ _______ _______ _____ _____    ______ ____

>  <TORSDO>
F 17

$$$$
=
 OpenBabel11032419433D

 45 49  0  0  1  0  0  0  0  0999 V2000
  184.6990  178.8590  142.3930 C   0  0  0  0  0  0  0  0  0  0  0  0
  184.6530  178.6360  139.9730 C   0  0  0  0  0  0  0  0  0  0  0  0
  186.0830  178.6120  139.9380 N   0  0  0  0  0  0  0  0  0  0  0  0
  183.9980  178.5620  138.8510 N   0  0  0  0  0  0  0  0  0  0  0  0
  183.9810  178.7730  141.2730 C   0  0  0  0  0  3  0  0  0  0  0  0
  186.8190  178.7010  141.0080 C   0  0  0  0  0  0  0  0  0  0  0  0
  186.2060  178.8370  142.3790 C   0  0  0  0  0  2  0  0  0  0  0  0
  181.9530  179.6020  138.3250 O   0  0  0  0  0  0  0  0  0  0  0  0
  182.5720  178.5590  138.6680 C   0  0  0  0  0  0  0  0  0  0  0  0
  181.7600  176.3070  137.8500 C   0  0  1  0  0  3  0  0  0  0  0  0
  182.6860  176.1400  138.9820 N   0  0  0  0  0  2  0  0  0  0  0  0
  181.7870  177.3070  138.9440 C   0  0  1  0  0  3  0  0  0  0  0  0
  182.5410  176.6730  136.5830 C   0  0  2  0  0  3  0  0  0  0  0  0
  181.6430  177.1570  135.6280 O   0  0  0  0  0  1  0  0  0  0  0  0
  183.2900  175.4570  136.0270 C   0  0  1  0  0  3  0  0  0  0  0  0
  184.6640  175.4350  136.5150 N   0  0  0  0  0  2  0  0  0  0  0  0
  185.4680  175.5560  135.4310 O   0  0  0  0  0  1  0  0  0  0  0  0
  182.5800  174.1530  136.3960 C   0  0  2  0  0  3  0  0  0  0  0  0
  183.5080  173.1530  136.7070 O   0  0  0  0  0  1  0  0  0  0  0  0
  181.4010  172.3190  135.4450 O   0  0  0  0  0  0  0  0  0  0  0  0
  180.3810  173.2200  135.8100 C   0  0  0  0  0  2  0  0  0  0  0  0
  181.6750  173.6870  135.2690 C   0  0  1  0  0  3  0  0  0  0  0  0
  184.0020  179.0240  143.7000 C   0  0  0  0  0  2  0  0  0  0  0  0
  184.9730  179.0610  144.7800 N   0  0  0  0  0  2  0  0  0  0  0  0
  184.2640  178.8200  145.9630 N   0  0  0  0  0  2  0  0  0  0  0  0
  185.2370  178.3820  146.9490 C   0  0  0  0  0  2  0  0  0  0  0  0
  186.5600  178.3440  146.3500 N   0  0  0  0  0  2  0  0  0  0  0  0
  187.3550  177.6330  147.1880 O   0  0  0  0  0  0  0  0  0  0  0  0
  191.5670  177.1580  145.3390 C   0  0  0  0  0  2  0  0  0  0  0  0
  190.7240  177.9940  144.3740 C   0  0  0  0  0  2  0  0  0  0  0  0
  189.7310  177.4810  147.0870 C   0  0  0  0  0  2  0  0  0  0  0  0
  188.4080  177.1910  146.3860 C   0  0  2  0  0  3  0  0  0  0  0  0
  189.3800  177.3570  144.0540 C   0  0  0  0  0  2  0  0  0  0  0  0
  190.8140  176.5640  146.5340 C   0  0  2  0  0  3  0  0  0  0  0  0
  191.8070  176.2370  147.6330 C   0  0  0  0  0  1  0  0  0  0  0  0
  188.3260  177.8780  145.0250 C   0  0  0  0  0  2  0  0  0  0  0  0
  188.2200  178.6660  140.9260 O   0  0  0  0  0  0  0  0  0  0  0  0
  190.0420  176.3120  140.8920 O   0  0  0  0  0  0  0  0  0  0  0  0
  189.0120  178.6880  138.6090 C   0  0  0  0  0  3  0  0  0  0  0  0
  189.9540  177.8630  137.7640 C   0  0  1  0  0  3  0  0  0  0  0  0
  189.8400  177.0430  139.8900 C   0  0  0  0  0  0  0  0  0  0  0  0
  190.4200  176.8490  138.6540 O   0  0  0  0  0  0  0  0  0  0  0  0
  188.9690  178.1890  139.8400 C   0  0  0  0  0  0  0  0  0  0  0  0
  187.9650  178.0680  136.2850 C   0  0  0  0  0  1  0  0  0  0  0  0
  189.1880  177.2360  136.6130 C   0  0  0  0  0  2  0  0  0  0  0  0
  1 23  1  0  0  0  0
  2  5  1  0  0  0  0
  3  2  1  0  0  0  0
  3  6  2  0  0  0  0
  4  2  2  0  0  0  0
  5  1  2  0  0  0  0
  6  7  1  0  0  0  0
  7  1  1  0  0  0  0
  8  9  2  0  0  0  0
  9  4  1  0  0  0  0
 10 13  1  6  0  0  0
 10 12  1  0  0  0  0
 10 11  1  0  0  0  0
 12  9  1  6  0  0  0
 12 11  1  0  0  0  0
 13 14  1  6  0  0  0
 15 18  1  0  0  0  0
 15 16  1  1  0  0  0
 15 13  1  0  0  0  0
 17 16  1  0  0  0  0
 18 19  1  6  0  0  0
 20 21  1  0  0  0  0
 22 20  1  0  0  0  0
 22 21  1  0  0  0  0
 22 18  1  1  0  0  0
 23 24  1  0  0  0  0
 24 25  1  0  0  0  0
 25 26  1  0  0  0  0
 27 26  1  0  0  0  0
 27 28  1  0  0  0  0
 29 34  1  0  0  0  0
 30 29  1  0  0  0  0
 32 31  1  0  0  0  0
 32 28  1  1  0  0  0
 33 30  1  0  0  0  0
 33 36  1  0  0  0  0
 34 31  1  0  0  0  0
 34 35  1  1  0  0  0
 36 32  1  0  0  0  0
 37  6  1  0  0  0  0
 39 43  2  0  0  0  0
 40 45  1  6  0  0  0
 40 39  1  0  0  0  0
 40 42  1  0  0  0  0
 41 38  2  0  0  0  0
 42 41  1  0  0  0  0
 43 41  1  0  0  0  0
 43 37  1  0  0  0  0
 44 45  1  0  0  0  0
M  END
>  <MODEL>
6

>  <REMARK>
 VINA RESULT:      -6.9      1.140      2.363
  Name = 
  17 active torsions:
  status: ('A' for Active; 'I' for Inactive)
    1  A    between atoms: C_2  and  C_17
    2  A    between atoms: N_4  and  C_9
    3  A    between atoms: N_4  and  N_29
    4  A    between atoms: C_6  and  N_18
    5  A    between atoms: C_6  and  N_29
    6  A    between atoms: C_7  and  C_14
    7  A    between atoms: C_7  and  C_43
    8  A    between atoms: C_9  and  C_12
    9  A    between atoms: N_13  and  C_14
   10  A    between atoms: C_14  and  C_17
   11  A    between atoms: N_18  and  O_30
   12  A    between atoms: C_20  and  O_30
   13  A    between atoms: C_22  and  C_27
   14  A    between atoms: N_33  and  C_35
   15  A    between atoms: C_35  and  C_41
   16  A    between atoms: C_38  and  O_44
   17  A    between atoms: C_40  and  O_44
                            x       y       z     vdW  Elec       q    Type
                         _______ _______ _______ _____ _____    ______ ____

>  <TORSDO>
F 17

$$$$
=
 OpenBabel11032419433D

 45 49  0  0  1  0  0  0  0  0999 V2000
  185.3420  178.3330  142.8020 C   0  0  0  0  0  0  0  0  0  0  0  0
  184.7890  178.9140  140.5070 C   0  0  0  0  0  0  0  0  0  0  0  0
  186.1770  178.9370  140.1680 N   0  0  0  0  0  0  0  0  0  0  0  0
  183.9130  179.1960  139.5860 N   0  0  0  0  0  0  0  0  0  0  0  0
  184.4060  178.6020  141.8920 C   0  0  0  0  0  3  0  0  0  0  0  0
  187.1220  178.6880  141.0280 C   0  0  0  0  0  0  0  0  0  0  0  0
  186.8110  178.3530  142.4660 C   0  0  0  0  0  2  0  0  0  0  0  0
  181.8950  178.5570  140.6140 O   0  0  0  0  0  0  0  0  0  0  0  0
  182.4820  179.2190  139.7160 C   0  0  0  0  0  0  0  0  0  0  0  0
  181.4180  179.3400  137.4230 C   0  0  1  0  0  3  0  0  0  0  0  0
  180.3840  179.3010  138.4690 N   0  0  0  0  0  2  0  0  0  0  0  0
  181.6560  179.9980  138.7310 C   0  0  1  0  0  3  0  0  0  0  0  0
  182.0380  177.9500  137.2460 C   0  0  2  0  0  3  0  0  0  0  0  0
  182.5980  177.8680  135.9700 O   0  0  0  0  0  1  0  0  0  0  0  0
  180.9850  176.8500  137.4260 C   0  0  1  0  0  3  0  0  0  0  0  0
  180.2820  176.6040  136.1730 N   0  0  0  0  0  2  0  0  0  0  0  0
  179.6470  175.4150  136.3060 O   0  0  0  0  0  1  0  0  0  0  0  0
  181.6190  175.5550  137.9370 C   0  0  2  0  0  3  0  0  0  0  0  0
  181.8830  175.6390  139.3080 O   0  0  0  0  0  1  0  0  0  0  0  0
  183.7850  174.5760  138.0490 O   0  0  0  0  0  0  0  0  0  0  0  0
  183.1050  173.7780  137.1090 C   0  0  0  0  0  2  0  0  0  0  0  0
  182.9000  175.2400  137.1820 C   0  0  1  0  0  3  0  0  0  0  0  0
  184.9380  178.0450  144.2080 C   0  0  0  0  0  2  0  0  0  0  0  0
  184.4240  179.2500  144.8340 N   0  0  0  0  0  2  0  0  0  0  0  0
  185.3340  179.5970  145.8400 N   0  0  0  0  0  2  0  0  0  0  0  0
  185.3540  178.4920  146.7820 C   0  0  0  0  0  2  0  0  0  0  0  0
  186.7070  178.2880  147.2710 N   0  0  0  0  0  2  0  0  0  0  0  0
  187.2310  177.2520  146.5700 O   0  0  0  0  0  0  0  0  0  0  0  0
  191.6570  177.1860  145.2330 C   0  0  0  0  0  2  0  0  0  0  0  0
  191.5450  176.3700  146.5210 C   0  0  0  0  0  2  0  0  0  0  0  0
  189.1050  177.1660  145.1010 C   0  0  0  0  0  2  0  0  0  0  0  0
  188.5960  177.5330  146.4900 C   0  0  2  0  0  3  0  0  0  0  0  0
  190.8150  177.1100  147.6320 C   0  0  0  0  0  2  0  0  0  0  0  0
  190.3880  177.9330  144.8080 C   0  0  2  0  0  3  0  0  0  0  0  0
  190.4650  178.2380  143.3240 C   0  0  0  0  0  1  0  0  0  0  0  0
  189.3310  176.7640  147.5840 C   0  0  0  0  0  2  0  0  0  0  0  0
  188.4720  178.7150  140.6480 O   0  0  0  0  0  0  0  0  0  0  0  0
  188.6820  179.3960  137.7570 O   0  0  0  0  0  0  0  0  0  0  0  0
  189.6390  176.7540  139.7610 C   0  0  0  0  0  3  0  0  0  0  0  0
  190.1260  176.2850  138.4100 C   0  0  1  0  0  3  0  0  0  0  0  0
  189.1220  178.3260  138.2480 C   0  0  0  0  0  0  0  0  0  0  0  0
  189.7620  177.3420  137.5240 O   0  0  0  0  0  0  0  0  0  0  0  0
  189.0570  177.9410  139.6340 C   0  0  0  0  0  0  0  0  0  0  0  0
  192.1990  176.2130  137.0370 C   0  0  0  0  0  1  0  0  0  0  0  0
  191.6370  176.1260  138.4410 C   0  0  0  0  0  2  0  0  0  0  0  0
  1 23  1  0  0  0  0
  2  5  1  0  0  0  0
  3  2  1  0  0  0  0
  3  6  2  0  0  0  0
  4  9  1  0  0  0  0
  4  2  2  0  0  0  0
  5  1  2  0  0  0  0
  6  7  1  0  0  0  0
  7  1  1  0  0  0  0
  9  8  2  0  0  0  0
 10 13  1  1  0  0  0
 10 11  1  0  0  0  0
 10 12  1  0  0  0  0
 11 12  1  0  0  0  0
 12  9  1  1  0  0  0
 13 14  1  6  0  0  0
 13 15  1  0  0  0  0
 15 16  1  6  0  0  0
 15 18  1  0  0  0  0
 16 17  1  0  0  0  0
 18 19  1  1  0  0  0
 21 22  1  0  0  0  0
 21 20  1  0  0  0  0
 22 18  1  1  0  0  0
 22 20  1  0  0  0  0
 23 24  1  0  0  0  0
 24 25  1  0  0  0  0
 25 26  1  0  0  0  0
 26 27  1  0  0  0  0
 28 27  1  0  0  0  0
 29 30  1  0  0  0  0
 30 33  1  0  0  0  0
 31 32  1  0  0  0  0
 32 28  1  6  0  0  0
 32 36  1  0  0  0  0
 34 35  1  6  0  0  0
 34 31  1  0  0  0  0
 34 29  1  0  0  0  0
 36 33  1  0  0  0  0
 37  6  1  0  0  0  0
 38 41  2  0  0  0  0
 40 45  1  1  0  0  0
 40 39  1  0  0  0  0
 41 43  1  0  0  0  0
 42 41  1  0  0  0  0
 42 40  1  0  0  0  0
 43 39  2  0  0  0  0
 43 37  1  0  0  0  0
 44 45  1  0  0  0  0
M  END
>  <MODEL>
7

>  <REMARK>
 VINA RESULT:      -6.9      1.734      2.521
  Name = 
  17 active torsions:
  status: ('A' for Active; 'I' for Inactive)
    1  A    between atoms: C_2  and  C_17
    2  A    between atoms: N_4  and  C_9
    3  A    between atoms: N_4  and  N_29
    4  A    between atoms: C_6  and  N_18
    5  A    between atoms: C_6  and  N_29
    6  A    between atoms: C_7  and  C_14
    7  A    between atoms: C_7  and  C_43
    8  A    between atoms: C_9  and  C_12
    9  A    between atoms: N_13  and  C_14
   10  A    between atoms: C_14  and  C_17
   11  A    between atoms: N_18  and  O_30
   12  A    between atoms: C_20  and  O_30
   13  A    between atoms: C_22  and  C_27
   14  A    between atoms: N_33  and  C_35
   15  A    between atoms: C_35  and  C_41
   16  A    between atoms: C_38  and  O_44
   17  A    between atoms: C_40  and  O_44
                            x       y       z     vdW  Elec       q    Type
                         _______ _______ _______ _____ _____    ______ ____

>  <TORSDO>
F 17

$$$$
=
 OpenBabel11032419433D

 45 49  0  0  1  0  0  0  0  0999 V2000
  184.7440  178.9290  140.2990 C   0  0  0  0  0  0  0  0  0  0  0  0
  184.8840  178.1220  138.0100 C   0  0  0  0  0  0  0  0  0  0  0  0
  183.4940  178.3940  137.8180 N   0  0  0  0  0  0  0  0  0  0  0  0
  185.5630  177.6040  137.0280 N   0  0  0  0  0  0  0  0  0  0  0  0
  185.4850  178.4110  139.3200 C   0  0  0  0  0  3  0  0  0  0  0  0
  182.7330  178.8910  138.7500 C   0  0  0  0  0  0  0  0  0  0  0  0
  183.2760  179.2220  140.1180 C   0  0  0  0  0  2  0  0  0  0  0  0
  187.3750  176.1640  137.4590 O   0  0  0  0  0  0  0  0  0  0  0  0
  186.9610  177.2680  137.0100 C   0  0  0  0  0  0  0  0  0  0  0  0
  189.1450  178.4940  137.3680 C   0  0  1  0  0  3  0  0  0  0  0  0
  189.2420  177.5980  136.2040 N   0  0  0  0  0  2  0  0  0  0  0  0
  187.9620  178.2660  136.5030 C   0  0  1  0  0  3  0  0  0  0  0  0
  189.1980  177.6760  138.6640 C   0  0  2  0  0  3  0  0  0  0  0  0
  188.6960  178.4570  139.7060 O   0  0  0  0  0  1  0  0  0  0  0  0
  190.6330  177.2410  138.9810 C   0  0  1  0  0  3  0  0  0  0  0  0
  190.7320  176.7650  140.3560 N   0  0  0  0  0  2  0  0  0  0  0  0
  191.6930  177.5050  140.9590 O   0  0  0  0  0  1  0  0  0  0  0  0
  191.1090  176.1550  138.0140 C   0  0  2  0  0  3  0  0  0  0  0  0
  190.5540  174.9150  138.3470 O   0  0  0  0  0  1  0  0  0  0  0  0
  192.9940  174.7900  137.5250 O   0  0  0  0  0  0  0  0  0  0  0  0
  193.1190  175.8660  136.6250 C   0  0  0  0  0  2  0  0  0  0  0  0
  192.6250  176.0580  138.0050 C   0  0  1  0  0  3  0  0  0  0  0  0
  185.3630  179.1910  141.6290 C   0  0  0  0  0  2  0  0  0  0  0  0
  184.6560  178.4530  142.6600 N   0  0  0  0  0  2  0  0  0  0  0  0
  184.0760  179.4040  143.5080 N   0  0  0  0  0  2  0  0  0  0  0  0
  184.2840  178.9340  144.8660 C   0  0  0  0  0  2  0  0  0  0  0  0
  185.5700  178.2650  144.9630 N   0  0  0  0  0  2  0  0  0  0  0  0
  185.7980  178.0310  146.2790 O   0  0  0  0  0  0  0  0  0  0  0  0
  190.3320  177.1760  145.9750 C   0  0  0  0  0  2  0  0  0  0  0  0
  189.8700  176.7580  147.3720 C   0  0  0  0  0  2  0  0  0  0  0  0
  187.8720  177.3650  145.3120 C   0  0  0  0  0  2  0  0  0  0  0  0
  187.1820  178.1460  146.4240 C   0  0  2  0  0  3  0  0  0  0  0  0
  189.0710  177.8410  148.0820 C   0  0  0  0  0  2  0  0  0  0  0  0
  189.2870  177.8960  145.1170 C   0  0  2  0  0  3  0  0  0  0  0  0
  189.6740  177.7740  143.6560 C   0  0  0  0  0  1  0  0  0  0  0  0
  187.5850  177.6390  147.8070 C   0  0  0  0  0  2  0  0  0  0  0  0
  181.3740  179.1480  138.5140 O   0  0  0  0  0  0  0  0  0  0  0  0
  180.0730  180.8000  140.6210 O   0  0  0  0  0  0  0  0  0  0  0  0
  180.7070  181.1330  137.2440 C   0  0  0  0  0  3  0  0  0  0  0  0
  179.9940  182.4330  137.5350 C   0  0  1  0  0  3  0  0  0  0  0  0
  180.1700  181.1630  139.4210 C   0  0  0  0  0  0  0  0  0  0  0  0
  179.7020  182.3630  138.9300 O   0  0  0  0  0  0  0  0  0  0  0  0
  180.7910  180.4150  138.3590 C   0  0  0  0  0  0  0  0  0  0  0  0
  180.7780  184.0510  135.8160 C   0  0  0  0  0  1  0  0  0  0  0  0
  180.9270  183.5980  137.2540 C   0  0  0  0  0  2  0  0  0  0  0  0
  1 23  1  0  0  0  0
  2  5  1  0  0  0  0
  3  2  1  0  0  0  0
  3  6  2  0  0  0  0
  4  2  2  0  0  0  0
  5  1  2  0  0  0  0
  6  7  1  0  0  0  0
  7  1  1  0  0  0  0
  9  4  1  0  0  0  0
  9  8  2  0  0  0  0
 10 13  1  1  0  0  0
 11 12  1  0  0  0  0
 11 10  1  0  0  0  0
 12  9  1  1  0  0  0
 12 10  1  0  0  0  0
 13 15  1  0  0  0  0
 13 14  1  1  0  0  0
 15 16  1  1  0  0  0
 16 17  1  0  0  0  0
 18 19  1  1  0  0  0
 18 15  1  0  0  0  0
 20 22  1  0  0  0  0
 21 20  1  0  0  0  0
 21 22  1  0  0  0  0
 22 18  1  6  0  0  0
 23 24  1  0  0  0  0
 24 25  1  0  0  0  0
 25 26  1  0  0  0  0
 26 27  1  0  0  0  0
 27 28  1  0  0  0  0
 29 30  1  0  0  0  0
 30 33  1  0  0  0  0
 31 32  1  0  0  0  0
 32 28  1  6  0  0  0
 32 36  1  0  0  0  0
 34 35  1  6  0  0  0
 34 31  1  0  0  0  0
 34 29  1  0  0  0  0
 36 33  1  0  0  0  0
 37  6  1  0  0  0  0
 39 40  1  0  0  0  0
 39 43  2  0  0  0  0
 40 45  1  1  0  0  0
 40 42  1  0  0  0  0
 41 38  2  0  0  0  0
 42 41  1  0  0  0  0
 43 37  1  0  0  0  0
 43 41  1  0  0  0  0
 44 45  1  0  0  0  0
M  END
>  <MODEL>
8

>  <REMARK>
 VINA RESULT:      -6.8      2.730      6.858
  Name = 
  17 active torsions:
  status: ('A' for Active; 'I' for Inactive)
    1  A    between atoms: C_2  and  C_17
    2  A    between atoms: N_4  and  C_9
    3  A    between atoms: N_4  and  N_29
    4  A    between atoms: C_6  and  N_18
    5  A    between atoms: C_6  and  N_29
    6  A    between atoms: C_7  and  C_14
    7  A    between atoms: C_7  and  C_43
    8  A    between atoms: C_9  and  C_12
    9  A    between atoms: N_13  and  C_14
   10  A    between atoms: C_14  and  C_17
   11  A    between atoms: N_18  and  O_30
   12  A    between atoms: C_20  and  O_30
   13  A    between atoms: C_22  and  C_27
   14  A    between atoms: N_33  and  C_35
   15  A    between atoms: C_35  and  C_41
   16  A    between atoms: C_38  and  O_44
   17  A    between atoms: C_40  and  O_44
                            x       y       z     vdW  Elec       q    Type
                         _______ _______ _______ _____ _____    ______ ____

>  <TORSDO>
F 17

$$$$
=
 OpenBabel11032419433D

 45 49  0  0  1  0  0  0  0  0999 V2000
  189.6180  177.0940  138.5820 C   0  0  0  0  0  0  0  0  0  0  0  0
  191.3120  177.2430  140.3190 C   0  0  0  0  0  0  0  0  0  0  0  0
  192.3070  176.7790  139.4040 N   0  0  0  0  0  0  0  0  0  0  0  0
  191.6610  177.4990  141.5470 N   0  0  0  0  0  0  0  0  0  0  0  0
  189.9270  177.3820  139.8460 C   0  0  0  0  0  3  0  0  0  0  0  0
  192.0450  176.4790  138.1640 C   0  0  0  0  0  0  0  0  0  0  0  0
  190.6520  176.6020  137.6000 C   0  0  0  0  0  2  0  0  0  0  0  0
  191.1250  179.0160  143.2650 O   0  0  0  0  0  0  0  0  0  0  0  0
  190.8240  177.9800  142.6130 C   0  0  0  0  0  0  0  0  0  0  0  0
  189.6230  176.5810  144.3450 C   0  0  1  0  0  3  0  0  0  0  0  0
  188.9250  177.8600  144.1420 N   0  0  0  0  0  2  0  0  0  0  0  0
  189.5950  177.2090  143.0020 C   0  0  1  0  0  3  0  0  0  0  0  0
  190.8990  176.8050  145.1660 C   0  0  2  0  0  3  0  0  0  0  0  0
  191.8730  175.9010  144.7350 O   0  0  0  0  0  1  0  0  0  0  0  0
  190.6310  176.6110  146.6630 C   0  0  1  0  0  3  0  0  0  0  0  0
  191.8650  176.7560  147.4270 N   0  0  0  0  0  2  0  0  0  0  0  0
  192.2080  175.5190  147.8570 O   0  0  0  0  0  1  0  0  0  0  0  0
  189.5790  177.6000  147.1690 C   0  0  2  0  0  3  0  0  0  0  0  0
  190.0360  178.2710  148.3080 O   0  0  0  0  0  1  0  0  0  0  0  0
  187.5900  177.6120  148.4740 O   0  0  0  0  0  0  0  0  0  0  0  0
  187.1250  177.7730  147.1540 C   0  0  0  0  0  2  0  0  0  0  0  0
  188.2690  176.8930  147.4750 C   0  0  1  0  0  3  0  0  0  0  0  0
  188.2050  177.2150  138.1250 C   0  0  0  0  0  2  0  0  0  0  0  0
  187.5220  178.2430  138.8910 N   0  0  0  0  0  2  0  0  0  0  0  0
  186.6220  178.8630  138.0150 N   0  0  0  0  0  2  0  0  0  0  0  0
  185.2900  178.4730  138.4430 C   0  0  0  0  0  2  0  0  0  0  0  0
  185.1080  178.8010  139.8460 N   0  0  0  0  0  2  0  0  0  0  0  0
  183.8740  178.3650  140.1990 O   0  0  0  0  0  0  0  0  0  0  0  0
  183.4270  179.0250  144.7540 C   0  0  0  0  0  2  0  0  0  0  0  0
  184.8700  179.3590  144.3730 C   0  0  0  0  0  2  0  0  0  0  0  0
  182.8640  179.0020  142.2620 C   0  0  0  0  0  2  0  0  0  0  0  0
  183.9480  178.1740  141.5800 C   0  0  2  0  0  3  0  0  0  0  0  0
  185.5360  178.2660  143.5500 C   0  0  0  0  0  2  0  0  0  0  0  0
  182.5680  178.4210  143.6390 C   0  0  2  0  0  3  0  0  0  0  0  0
  181.1040  178.6320  143.9710 C   0  0  0  0  0  1  0  0  0  0  0  0
  185.3430  178.5580  142.0660 C   0  0  0  0  0  2  0  0  0  0  0  0
  193.0560  176.0340  137.2990 O   0  0  0  0  0  0  0  0  0  0  0  0
  192.0930  173.5650  135.9450 O   0  0  0  0  0  0  0  0  0  0  0  0
  194.7780  174.4150  137.9390 C   0  0  0  0  0  3  0  0  0  0  0  0
  195.0510  172.9500  137.6960 C   0  0  1  0  0  3  0  0  0  0  0  0
  193.1360  173.6060  136.6440 C   0  0  0  0  0  0  0  0  0  0  0  0
  193.9680  172.5290  136.8660 O   0  0  0  0  0  0  0  0  0  0  0  0
  193.6570  174.7670  137.3180 C   0  0  0  0  0  0  0  0  0  0  0  0
  197.1330  171.6030  137.4970 C   0  0  0  0  0  1  0  0  0  0  0  0
  196.3680  172.7930  136.9550 C   0  0  0  0  0  2  0  0  0  0  0  0
  1  5  2  0  0  0  0
  2  4  2  0  0  0  0
  3  2  1  0  0  0  0
  4  9  1  0  0  0  0
  5  2  1  0  0  0  0
  6  3  2  0  0  0  0
  7  6  1  0  0  0  0
  7  1  1  0  0  0  0
  9  8  2  0  0  0  0
 10 13  1  1  0  0  0
 11 10  1  0  0  0  0
 12  9  1  1  0  0  0
 12 11  1  0  0  0  0
 12 10  1  0  0  0  0
 13 14  1  6  0  0  0
 13 15  1  0  0  0  0
 15 18  1  0  0  0  0
 15 16  1  1  0  0  0
 16 17  1  0  0  0  0
 18 19  1  1  0  0  0
 21 22  1  0  0  0  0
 21 20  1  0  0  0  0
 22 18  1  6  0  0  0
 22 20  1  0  0  0  0
 23  1  1  0  0  0  0
 23 24  1  0  0  0  0
 25 26  1  0  0  0  0
 25 24  1  0  0  0  0
 26 27  1  0  0  0  0
 27 28  1  0  0  0  0
 30 29  1  0  0  0  0
 31 34  1  0  0  0  0
 32 28  1  6  0  0  0
 32 36  1  0  0  0  0
 32 31  1  0  0  0  0
 33 30  1  0  0  0  0
 34 35  1  1  0  0  0
 34 29  1  0  0  0  0
 36 33  1  0  0  0  0
 37 43  1  0  0  0  0
 37  6  1  0  0  0  0
 38 41  2  0  0  0  0
 40 45  1  6  0  0  0
 40 39  1  0  0  0  0
 41 42  1  0  0  0  0
 41 43  1  0  0  0  0
 42 40  1  0  0  0  0
 43 39  2  0  0  0  0
 45 44  1  0  0  0  0
M  END
>  <MODEL>
9

>  <REMARK>
 VINA RESULT:      -6.6      3.443      9.215
  Name = 
  17 active torsions:
  status: ('A' for Active; 'I' for Inactive)
    1  A    between atoms: C_2  and  C_17
    2  A    between atoms: N_4  and  C_9
    3  A    between atoms: N_4  and  N_29
    4  A    between atoms: C_6  and  N_18
    5  A    between atoms: C_6  and  N_29
    6  A    between atoms: C_7  and  C_14
    7  A    between atoms: C_7  and  C_43
    8  A    between atoms: C_9  and  C_12
    9  A    between atoms: N_13  and  C_14
   10  A    between atoms: C_14  and  C_17
   11  A    between atoms: N_18  and  O_30
   12  A    between atoms: C_20  and  O_30
   13  A    between atoms: C_22  and  C_27
   14  A    between atoms: N_33  and  C_35
   15  A    between atoms: C_35  and  C_41
   16  A    between atoms: C_38  and  O_44
   17  A    between atoms: C_40  and  O_44
                            x       y       z     vdW  Elec       q    Type
                         _______ _______ _______ _____ _____    ______ ____

>  <TORSDO>
F 17

$$$$
