=
 OpenBabel11032421273D

 34 39  0  0  1  0  0  0  0  0999 V2000
  183.9150  176.7410  137.6310 N   0  0  2  0  0  0  0  0  0  0  0  0
  182.9470  177.1410  135.4080 C   0  0  0  0  0  2  0  0  0  0  0  0
  183.8810  176.2520  134.5940 C   0  0  0  0  0  2  0  0  0  0  0  0
  182.7250  176.5650  136.8020 C   0  0  0  0  0  2  0  0  0  0  0  0
  184.9140  175.7230  137.3070 C   0  0  0  0  0  2  0  0  0  0  0  0
  185.3180  176.4610  134.9750 C   0  0  0  0  0  3  0  0  0  0  0  0
  185.8030  176.2120  136.2050 C   0  0  0  0  0  0  0  0  0  0  0  0
  179.4330  177.5610  141.1090 C   0  0  0  0  0  3  0  0  0  0  0  0
  182.0170  178.0470  140.3050 C   0  0  0  0  0  0  0  0  0  0  0  0
  183.4190  178.0940  139.8200 C   0  0  1  0  0  3  0  0  0  0  0  0
  181.4210  176.8660  139.9740 C   0  0  0  0  0  0  0  0  0  0  0  0
  181.3720  178.9860  141.0450 N   0  0  0  0  0  0  0  0  0  0  0  0
  180.0860  178.7630  141.4470 C   0  0  0  0  0  3  0  0  0  0  0  0
  180.1130  176.5880  140.3600 C   0  0  0  0  0  3  0  0  0  0  0  0
  182.2750  176.0150  139.2370 N   0  0  0  0  0  2  0  0  0  0  0  0
  183.5480  176.7210  139.0570 C   0  0  1  0  0  3  0  0  0  0  0  0
  183.6700  179.3520  139.0420 C   0  0  0  0  0  3  0  0  0  0  0  0
  184.5260  180.1400  139.4040 O   0  0  0  0  0  0  0  0  0  0  0  0
  187.2570  176.4360  136.5150 C   0  0  1  0  0  3  0  0  0  0  0  0
  187.1880  178.2700  138.3560 C   0  0  1  0  0  3  0  0  0  0  0  0
  186.8320  179.0310  137.2370 O   0  0  0  0  0  1  0  0  0  0  0  0
  187.4680  176.7930  138.0050 C   0  0  2  0  0  3  0  0  0  0  0  0
  189.3210  178.2000  137.1050 O   0  0  0  0  0  1  0  0  0  0  0  0
  188.6180  177.7670  138.2340 C   0  0  1  0  0  0  0  0  0  0  0  0
  189.3810  177.6170  139.5110 C   0  0  0  0  0  0  0  0  0  0  0  0
  190.8350  177.4180  141.8970 C   0  0  0  0  0  0  0  0  0  0  0  0
  188.7550  177.8660  140.7390 C   0  0  0  0  0  3  0  0  0  0  0  0
  190.7440  177.2910  139.4820 C   0  0  0  0  0  3  0  0  0  0  0  0
  189.4800  177.7620  141.9310 C   0  0  0  0  0  3  0  0  0  0  0  0
  191.4670  177.1860  140.6730 C   0  0  0  0  0  3  0  0  0  0  0  0
  191.5530  177.3120  143.0800 O   0  0  0  0  0  1  0  0  0  0  0  0
  189.0830  174.7970  136.9490 N   0  0  0  0  0  2  0  0  0  0  0  0
  188.1100  175.2760  135.9540 C   0  0  1  0  0  3  0  0  0  0  0  0
  187.8850  174.0010  136.6350 C   0  0  0  0  0  2  0  0  0  0  0  0
  1  4  1  6  0  0  0
  1 16  1  0  0  0  0
  2  4  1  0  0  0  0
  3  6  1  0  0  0  0
  3  2  1  0  0  0  0
  5  1  1  0  0  0  0
  6  7  2  0  0  0  0
  7  5  1  0  0  0  0
  8 13  1  0  0  0  0
  9 12  1  0  0  0  0
 10 17  1  6  0  0  0
 10  9  1  0  0  0  0
 11  9  2  0  0  0  0
 11 14  1  0  0  0  0
 12 13  2  0  0  0  0
 14  8  2  0  0  0  0
 15 11  1  0  0  0  0
 16 15  1  6  0  0  0
 16 10  1  0  0  0  0
 17 18  2  0  0  0  0
 19  7  1  1  0  0  0
 20 21  1  6  0  0  0
 22 19  1  6  0  0  0
 22 24  1  0  0  0  0
 22 20  1  0  0  0  0
 24 23  1  6  0  0  0
 24 20  1  0  0  0  0
 24 25  1  0  0  0  0
 25 27  1  0  0  0  0
 26 29  1  0  0  0  0
 26 31  1  0  0  0  0
 27 29  2  0  0  0  0
 28 25  2  0  0  0  0
 28 30  1  0  0  0  0
 30 26  2  0  0  0  0
 33 19  1  1  0  0  0
 33 34  1  0  0  0  0
 33 32  1  0  0  0  0
 34 32  1  0  0  0  0
M  END
>  <MODEL>
1

>  <REMARK>
 VINA RESULT:      -6.4      0.000      0.000
  Name = 
  6 active torsions:
  status: ('A' for Active; 'I' for Inactive)
    1  A    between atoms: C_1  and  C_32
    2  A    between atoms: N_2  and  C_33
    3  A    between atoms: C_9  and  C_19
    4  A    between atoms: C_10  and  C_29
    5  A    between atoms: C_26  and  C_29
    6  A    between atoms: C_29  and  C_34
                            x       y       z     vdW  Elec       q    Type
                         _______ _______ _______ _____ _____    ______ ____

>  <TORSDO>
F 6

$$$$
=
 OpenBabel11032421273D

 34 39  0  0  1  0  0  0  0  0999 V2000
  188.0520  177.0290  142.4800 N   0  0  2  0  0  0  0  0  0  0  0  0
  189.1160  177.1810  140.2700 C   0  0  0  0  0  2  0  0  0  0  0  0
  188.5440  178.5270  139.8380 C   0  0  0  0  0  2  0  0  0  0  0  0
  189.3290  177.1390  141.7800 C   0  0  0  0  0  2  0  0  0  0  0  0
  187.3970  178.3350  142.5510 C   0  0  0  0  0  2  0  0  0  0  0  0
  187.0700  178.6150  140.1100 C   0  0  0  0  0  3  0  0  0  0  0  0
  186.5360  178.5410  141.3420 C   0  0  0  0  0  0  0  0  0  0  0  0
  187.5160  178.2760  148.0480 C   0  0  0  0  0  3  0  0  0  0  0  0
  188.9530  177.4090  145.8710 C   0  0  0  0  0  0  0  0  0  0  0  0
  189.5400  176.8460  144.6290 C   0  0  1  0  0  3  0  0  0  0  0  0
  187.5930  177.3100  145.8610 C   0  0  0  0  0  0  0  0  0  0  0  0
  189.6220  177.9060  146.9440 N   0  0  0  0  0  0  0  0  0  0  0  0
  188.9230  178.3470  148.0310 C   0  0  0  0  0  3  0  0  0  0  0  0
  186.8340  177.7440  146.9440 C   0  0  0  0  0  3  0  0  0  0  0  0
  187.1000  176.7310  144.6700 N   0  0  0  0  0  2  0  0  0  0  0  0
  188.2540  176.4390  143.8140 C   0  0  1  0  0  3  0  0  0  0  0  0
  190.4870  177.8240  143.9980 C   0  0  0  0  0  3  0  0  0  0  0  0
  191.6740  177.7980  144.2740 O   0  0  0  0  0  0  0  0  0  0  0  0
  185.0500  178.6460  141.5410 C   0  0  1  0  0  3  0  0  0  0  0  0
  183.8920  178.7280  139.2150 C   0  0  1  0  0  3  0  0  0  0  0  0
  184.2810  180.0650  139.3430 O   0  0  0  0  0  1  0  0  0  0  0  0
  184.2770  177.8770  140.4440 C   0  0  2  0  0  3  0  0  0  0  0  0
  182.4200  179.4170  141.0810 O   0  0  0  0  0  1  0  0  0  0  0  0
  182.8460  178.3670  140.2580 C   0  0  1  0  0  0  0  0  0  0  0  0
  181.8320  177.3460  139.8580 C   0  0  0  0  0  0  0  0  0  0  0  0
  179.9400  175.3920  139.1820 C   0  0  0  0  0  0  0  0  0  0  0  0
  180.4730  177.5610  140.1210 C   0  0  0  0  0  3  0  0  0  0  0  0
  182.2410  176.1380  139.2760 C   0  0  0  0  0  3  0  0  0  0  0  0
  179.5280  176.5870  139.7800 C   0  0  0  0  0  3  0  0  0  0  0  0
  181.2970  175.1660  138.9340 C   0  0  0  0  0  3  0  0  0  0  0  0
  179.0020  174.4280  138.8410 O   0  0  0  0  0  1  0  0  0  0  0  0
  184.8610  179.4900  143.8780 N   0  0  0  0  0  2  0  0  0  0  0  0
  184.6800  178.3190  143.0050 C   0  0  1  0  0  3  0  0  0  0  0  0
  183.5100  179.0510  143.4910 C   0  0  0  0  0  2  0  0  0  0  0  0
  1  4  1  1  0  0  0
  1  5  1  0  0  0  0
  1 16  1  0  0  0  0
  2  4  1  0  0  0  0
  3  6  1  0  0  0  0
  3  2  1  0  0  0  0
  6  7  2  0  0  0  0
  7  5  1  0  0  0  0
  9 12  1  0  0  0  0
 10 17  1  6  0  0  0
 10  9  1  0  0  0  0
 11  9  2  0  0  0  0
 11 14  1  0  0  0  0
 12 13  2  0  0  0  0
 13  8  1  0  0  0  0
 14  8  2  0  0  0  0
 15 11  1  0  0  0  0
 16 10  1  0  0  0  0
 16 15  1  1  0  0  0
 17 18  2  0  0  0  0
 19  7  1  1  0  0  0
 20 21  1  1  0  0  0
 20 24  1  0  0  0  0
 20 22  1  0  0  0  0
 22 19  1  1  0  0  0
 24 22  1  0  0  0  0
 24 23  1  1  0  0  0
 25 27  1  0  0  0  0
 25 24  1  0  0  0  0
 26 29  1  0  0  0  0
 28 25  2  0  0  0  0
 29 27  2  0  0  0  0
 30 26  2  0  0  0  0
 30 28  1  0  0  0  0
 31 26  1  0  0  0  0
 33 19  1  6  0  0  0
 33 34  1  0  0  0  0
 33 32  1  0  0  0  0
 34 32  1  0  0  0  0
M  END
>  <MODEL>
2

>  <REMARK>
 VINA RESULT:      -6.2      3.881      8.379
  Name = 
  6 active torsions:
  status: ('A' for Active; 'I' for Inactive)
    1  A    between atoms: C_1  and  C_32
    2  A    between atoms: N_2  and  C_33
    3  A    between atoms: C_9  and  C_19
    4  A    between atoms: C_10  and  C_29
    5  A    between atoms: C_26  and  C_29
    6  A    between atoms: C_29  and  C_34
                            x       y       z     vdW  Elec       q    Type
                         _______ _______ _______ _____ _____    ______ ____

>  <TORSDO>
F 6

$$$$
=
 OpenBabel11032421273D

 34 39  0  0  1  0  0  0  0  0999 V2000
  189.5830  177.8900  142.2110 N   0  0  2  0  0  0  0  0  0  0  0  0
  190.5260  176.3790  140.5180 C   0  0  0  0  0  2  0  0  0  0  0  0
  190.0040  177.0850  139.2720 C   0  0  0  0  0  2  0  0  0  0  0  0
  190.8210  177.3820  141.6290 C   0  0  0  0  0  2  0  0  0  0  0  0
  189.0040  178.9240  141.3530 C   0  0  0  0  0  2  0  0  0  0  0  0
  188.5540  177.4530  139.4090 C   0  0  0  0  0  3  0  0  0  0  0  0
  188.0880  178.2980  140.3460 C   0  0  0  0  0  0  0  0  0  0  0  0
  191.6030  176.1620  147.2890 C   0  0  0  0  0  3  0  0  0  0  0  0
  189.6750  177.2930  145.6890 C   0  0  0  0  0  0  0  0  0  0  0  0
  188.8030  177.9910  144.7110 C   0  0  1  0  0  3  0  0  0  0  0  0
  190.9770  177.3050  145.2830 C   0  0  0  0  0  0  0  0  0  0  0  0
  189.3060  176.7540  146.8800 N   0  0  0  0  0  0  0  0  0  0  0  0
  190.2510  176.1820  147.6840 C   0  0  0  0  0  3  0  0  0  0  0  0
  191.9780  176.7380  146.0660 C   0  0  0  0  0  3  0  0  0  0  0  0
  191.1510  177.9470  144.0360 N   0  0  0  0  0  2  0  0  0  0  0  0
  189.8280  178.3810  143.5790 C   0  0  1  0  0  3  0  0  0  0  0  0
  187.6350  177.1310  144.3320 C   0  0  0  0  0  3  0  0  0  0  0  0
  186.6130  177.1510  144.9960 O   0  0  0  0  0  0  0  0  0  0  0  0
  186.6240  178.6280  140.4200 C   0  0  1  0  0  3  0  0  0  0  0  0
  185.9260  178.2040  137.9520 C   0  0  1  0  0  3  0  0  0  0  0  0
  186.7380  179.3320  137.7870 O   0  0  0  0  0  1  0  0  0  0  0  0
  185.8010  177.7720  139.4280 C   0  0  2  0  0  3  0  0  0  0  0  0
  184.5320  179.8960  139.1000 O   0  0  0  0  0  1  0  0  0  0  0  0
  184.6780  178.5480  138.7490 C   0  0  1  0  0  0  0  0  0  0  0  0
  183.4400  177.7820  138.4120 C   0  0  0  0  0  0  0  0  0  0  0  0
  181.1670  176.2920  137.7340 C   0  0  0  0  0  0  0  0  0  0  0  0
  183.0000  176.7500  139.2500 C   0  0  0  0  0  3  0  0  0  0  0  0
  182.7500  178.0490  137.2210 C   0  0  0  0  0  3  0  0  0  0  0  0
  181.8620  176.0090  138.9130 C   0  0  0  0  0  3  0  0  0  0  0  0
  181.6130  177.3090  136.8860 C   0  0  0  0  0  3  0  0  0  0  0  0
  180.0370  175.5580  137.4020 O   0  0  0  0  0  1  0  0  0  0  0  0
  185.2310  179.7530  142.1530 N   0  0  0  0  0  2  0  0  0  0  0  0
  186.1470  178.6320  141.8900 C   0  0  1  0  0  3  0  0  0  0  0  0
  184.7150  178.3790  142.0410 C   0  0  0  0  0  2  0  0  0  0  0  0
  1  5  1  6  0  0  0
  1 16  1  0  0  0  0
  2  4  1  0  0  0  0
  3  6  1  0  0  0  0
  3  2  1  0  0  0  0
  4  1  1  0  0  0  0
  6  7  2  0  0  0  0
  7  5  1  0  0  0  0
  8 13  1  0  0  0  0
  9 12  1  0  0  0  0
 10 17  1  6  0  0  0
 10  9  1  0  0  0  0
 11  9  2  0  0  0  0
 11 14  1  0  0  0  0
 12 13  2  0  0  0  0
 14  8  2  0  0  0  0
 15 11  1  0  0  0  0
 16 15  1  1  0  0  0
 16 10  1  0  0  0  0
 17 18  2  0  0  0  0
 19  7  1  1  0  0  0
 20 21  1  1  0  0  0
 20 24  1  0  0  0  0
 20 22  1  0  0  0  0
 22 19  1  1  0  0  0
 24 23  1  1  0  0  0
 24 22  1  0  0  0  0
 25 24  1  0  0  0  0
 25 27  1  0  0  0  0
 26 29  1  0  0  0  0
 28 25  2  0  0  0  0
 29 27  2  0  0  0  0
 30 28  1  0  0  0  0
 30 26  2  0  0  0  0
 31 26  1  0  0  0  0
 33 19  1  6  0  0  0
 33 34  1  0  0  0  0
 33 32  1  0  0  0  0
 34 32  1  0  0  0  0
M  END
>  <MODEL>
3

>  <REMARK>
 VINA RESULT:      -6.2      3.722      8.363
  Name = 
  6 active torsions:
  status: ('A' for Active; 'I' for Inactive)
    1  A    between atoms: C_1  and  C_32
    2  A    between atoms: N_2  and  C_33
    3  A    between atoms: C_9  and  C_19
    4  A    between atoms: C_10  and  C_29
    5  A    between atoms: C_26  and  C_29
    6  A    between atoms: C_29  and  C_34
                            x       y       z     vdW  Elec       q    Type
                         _______ _______ _______ _____ _____    ______ ____

>  <TORSDO>
F 6

$$$$
=
 OpenBabel11032421273D

 34 39  0  0  1  0  0  0  0  0999 V2000
  190.0050  177.0110  138.9200 N   0  0  2  0  0  0  0  0  0  0  0  0
  189.0540  179.0330  137.8990 C   0  0  0  0  0  2  0  0  0  0  0  0
  188.4840  178.3990  136.6350 C   0  0  0  0  0  2  0  0  0  0  0  0
  188.9980  178.0580  139.0700 C   0  0  0  0  0  2  0  0  0  0  0  0
  189.5440  175.9930  137.9770 C   0  0  0  0  0  2  0  0  0  0  0  0
  189.4710  177.4710  135.9870 C   0  0  0  0  0  3  0  0  0  0  0  0
  189.9520  176.3650  136.5840 C   0  0  0  0  0  0  0  0  0  0  0  0
  190.0630  178.3300  144.4990 C   0  0  0  0  0  3  0  0  0  0  0  0
  191.2580  177.4210  142.1950 C   0  0  0  0  0  0  0  0  0  0  0  0
  191.7060  176.8370  140.9060 C   0  0  1  0  0  3  0  0  0  0  0  0
  189.9030  177.3370  142.3270 C   0  0  0  0  0  0  0  0  0  0  0  0
  192.0400  177.9230  143.1860 N   0  0  0  0  0  0  0  0  0  0  0  0
  191.4610  178.3840  144.3340 C   0  0  0  0  0  3  0  0  0  0  0  0
  189.2650  177.7920  143.4770 C   0  0  0  0  0  3  0  0  0  0  0  0
  189.2830  176.7500  141.2020 N   0  0  0  0  0  2  0  0  0  0  0  0
  190.3390  176.4350  140.2350 C   0  0  1  0  0  3  0  0  0  0  0  0
  192.5920  177.7960  140.1680 C   0  0  0  0  0  3  0  0  0  0  0  0
  193.7490  177.5010  139.9200 O   0  0  0  0  0  0  0  0  0  0  0  0
  190.9320  175.4750  135.8720 C   0  0  1  0  0  3  0  0  0  0  0  0
  193.0720  175.5230  137.3480 C   0  0  1  0  0  3  0  0  0  0  0  0
  193.1620  176.7820  136.7440 O   0  0  0  0  0  1  0  0  0  0  0  0
  191.8400  174.7230  136.8730 C   0  0  2  0  0  3  0  0  0  0  0  0
  193.4950  174.8370  135.0090 O   0  0  0  0  0  1  0  0  0  0  0  0
  193.2260  174.4160  136.3160 C   0  0  1  0  0  0  0  0  0  0  0  0
  193.8760  173.1550  136.7860 C   0  0  0  0  0  0  0  0  0  0  0  0
  195.1550  170.8030  137.6100 C   0  0  0  0  0  0  0  0  0  0  0  0
  194.7960  173.1870  137.8420 C   0  0  0  0  0  3  0  0  0  0  0  0
  193.6180  171.9430  136.1290 C   0  0  0  0  0  3  0  0  0  0  0  0
  195.4310  172.0120  138.2560 C   0  0  0  0  0  3  0  0  0  0  0  0
  194.2520  170.7700  136.5450 C   0  0  0  0  0  3  0  0  0  0  0  0
  195.7840  169.6370  138.0240 O   0  0  0  0  0  1  0  0  0  0  0  0
  190.3670  173.1780  135.0910 N   0  0  0  0  0  2  0  0  0  0  0  0
  190.2060  174.6140  134.8150 C   0  0  1  0  0  3  0  0  0  0  0  0
  189.0830  173.8480  135.3540 C   0  0  0  0  0  2  0  0  0  0  0  0
  1  5  1  6  0  0  0
  1  4  1  0  0  0  0
  1 16  1  0  0  0  0
  2  4  1  0  0  0  0
  3  2  1  0  0  0  0
  6  7  2  0  0  0  0
  6  3  1  0  0  0  0
  7  5  1  0  0  0  0
  9 11  2  0  0  0  0
  9 12  1  0  0  0  0
 10 17  1  6  0  0  0
 10  9  1  0  0  0  0
 11 14  1  0  0  0  0
 12 13  2  0  0  0  0
 13  8  1  0  0  0  0
 14  8  2  0  0  0  0
 15 11  1  0  0  0  0
 16 10  1  0  0  0  0
 16 15  1  1  0  0  0
 18 17  2  0  0  0  0
 19  7  1  1  0  0  0
 20 21  1  6  0  0  0
 22 19  1  6  0  0  0
 22 20  1  0  0  0  0
 24 23  1  6  0  0  0
 24 25  1  0  0  0  0
 24 22  1  0  0  0  0
 24 20  1  0  0  0  0
 25 27  1  0  0  0  0
 26 31  1  0  0  0  0
 26 29  1  0  0  0  0
 27 29  2  0  0  0  0
 28 30  1  0  0  0  0
 28 25  2  0  0  0  0
 30 26  2  0  0  0  0
 32 34  1  0  0  0  0
 33 32  1  0  0  0  0
 33 34  1  0  0  0  0
 33 19  1  1  0  0  0
M  END
>  <MODEL>
4

>  <REMARK>
 VINA RESULT:      -6.1      5.372      7.518
  Name = 
  6 active torsions:
  status: ('A' for Active; 'I' for Inactive)
    1  A    between atoms: C_1  and  C_32
    2  A    between atoms: N_2  and  C_33
    3  A    between atoms: C_9  and  C_19
    4  A    between atoms: C_10  and  C_29
    5  A    between atoms: C_26  and  C_29
    6  A    between atoms: C_29  and  C_34
                            x       y       z     vdW  Elec       q    Type
                         _______ _______ _______ _____ _____    ______ ____

>  <TORSDO>
F 6

$$$$
=
 OpenBabel11032421273D

 34 39  0  0  1  0  0  0  0  0999 V2000
  185.9290  178.0550  143.3140 N   0  0  2  0  0  0  0  0  0  0  0  0
  184.9190  179.7280  144.8030 C   0  0  0  0  0  2  0  0  0  0  0  0
  183.4630  179.5470  144.3880 C   0  0  0  0  0  2  0  0  0  0  0  0
  185.6800  178.4100  144.7080 C   0  0  0  0  0  2  0  0  0  0  0  0
  184.7290  177.4700  142.7160 C   0  0  0  0  0  2  0  0  0  0  0  0
  183.3130  179.4980  142.8950 C   0  0  0  0  0  3  0  0  0  0  0  0
  183.8750  178.5500  142.1240 C   0  0  0  0  0  0  0  0  0  0  0  0
  191.3620  177.5500  145.0720 C   0  0  0  0  0  3  0  0  0  0  0  0
  189.4240  177.5970  143.1220 C   0  0  0  0  0  0  0  0  0  0  0  0
  188.2490  177.5200  142.2180 C   0  0  1  0  0  3  0  0  0  0  0  0
  189.0810  177.2770  144.4030 C   0  0  0  0  0  0  0  0  0  0  0  0
  190.7090  177.8730  142.7780 N   0  0  0  0  0  0  0  0  0  0  0  0
  191.6820  177.8600  143.7360 C   0  0  0  0  0  3  0  0  0  0  0  0
  190.0350  177.2470  145.4150 C   0  0  0  0  0  3  0  0  0  0  0  0
  187.7050  176.9870  144.5390 N   0  0  0  0  0  2  0  0  0  0  0  0
  187.0890  177.1510  143.2190 C   0  0  1  0  0  3  0  0  0  0  0  0
  188.1090  178.7840  141.4210 C   0  0  0  0  0  3  0  0  0  0  0  0
  188.4060  178.8020  140.2390 O   0  0  0  0  0  0  0  0  0  0  0  0
  183.6770  178.5570  140.6340 C   0  0  1  0  0  3  0  0  0  0  0  0
  181.1500  179.1400  140.4430 C   0  0  1  0  0  3  0  0  0  0  0  0
  181.0640  177.8430  140.9590 O   0  0  0  0  0  1  0  0  0  0  0  0
  182.6080  179.5920  140.2120 C   0  0  2  0  0  3  0  0  0  0  0  0
  182.0220  177.8620  138.5120 O   0  0  0  0  0  1  0  0  0  0  0  0
  181.7460  179.1270  139.0440 C   0  0  1  0  0  0  0  0  0  0  0  0
  181.2600  180.1820  138.1040 C   0  0  0  0  0  0  0  0  0  0  0  0
  180.4290  182.1730  136.3170 C   0  0  0  0  0  0  0  0  0  0  0  0
  180.8680  179.8410  136.8030 C   0  0  0  0  0  3  0  0  0  0  0  0
  181.2560  181.5280  138.4980 C   0  0  0  0  0  3  0  0  0  0  0  0
  180.4490  180.8350  135.9120 C   0  0  0  0  0  3  0  0  0  0  0  0
  180.8360  182.5200  137.6080 C   0  0  0  0  0  3  0  0  0  0  0  0
  180.0110  183.1580  135.4330 O   0  0  0  0  0  1  0  0  0  0  0  0
  185.0150  177.8920  138.6400 N   0  0  0  0  0  2  0  0  0  0  0  0
  185.0390  178.6350  139.9100 C   0  0  1  0  0  3  0  0  0  0  0  0
  184.9880  179.3640  138.6430 C   0  0  0  0  0  2  0  0  0  0  0  0
  1  5  1  1  0  0  0
  1  4  1  0  0  0  0
  3  2  1  0  0  0  0
  4  2  1  0  0  0  0
  6  3  1  0  0  0  0
  7  5  1  0  0  0  0
  7  6  2  0  0  0  0
  8 14  1  0  0  0  0
  9 11  1  0  0  0  0
 10 17  1  1  0  0  0
 10  9  1  0  0  0  0
 10 16  1  0  0  0  0
 11 15  1  0  0  0  0
 11 14  2  0  0  0  0
 12  9  2  0  0  0  0
 12 13  1  0  0  0  0
 13  8  2  0  0  0  0
 16  1  1  0  0  0  0
 16 15  1  1  0  0  0
 18 17  2  0  0  0  0
 19  7  1  1  0  0  0
 20 21  1  1  0  0  0
 22 20  1  0  0  0  0
 22 19  1  1  0  0  0
 24 23  1  6  0  0  0
 24 22  1  0  0  0  0
 24 20  1  0  0  0  0
 25 28  1  0  0  0  0
 25 24  1  0  0  0  0
 26 30  1  0  0  0  0
 27 25  2  0  0  0  0
 29 26  2  0  0  0  0
 29 27  1  0  0  0  0
 30 28  2  0  0  0  0
 31 26  1  0  0  0  0
 32 34  1  0  0  0  0
 32 33  1  0  0  0  0
 33 19  1  1  0  0  0
 34 33  1  0  0  0  0
M  END
>  <MODEL>
5

>  <REMARK>
 VINA RESULT:      -6.1      3.749      8.730
  Name = 
  6 active torsions:
  status: ('A' for Active; 'I' for Inactive)
    1  A    between atoms: C_1  and  C_32
    2  A    between atoms: N_2  and  C_33
    3  A    between atoms: C_9  and  C_19
    4  A    between atoms: C_10  and  C_29
    5  A    between atoms: C_26  and  C_29
    6  A    between atoms: C_29  and  C_34
                            x       y       z     vdW  Elec       q    Type
                         _______ _______ _______ _____ _____    ______ ____

>  <TORSDO>
F 6

$$$$
=
 OpenBabel11032421273D

 34 39  0  0  1  0  0  0  0  0999 V2000
  185.9110  178.0150  143.3560 N   0  0  2  0  0  0  0  0  0  0  0  0
  185.0400  179.6070  145.0120 C   0  0  0  0  0  2  0  0  0  0  0  0
  183.5520  179.4380  144.7250 C   0  0  0  0  0  2  0  0  0  0  0  0
  185.7910  178.3000  144.7830 C   0  0  0  0  0  2  0  0  0  0  0  0
  184.6610  177.4530  142.8430 C   0  0  0  0  0  2  0  0  0  0  0  0
  183.2650  179.4610  143.2510 C   0  0  0  0  0  3  0  0  0  0  0  0
  183.7550  178.5560  142.3860 C   0  0  0  0  0  0  0  0  0  0  0  0
  191.4660  177.4190  144.6370 C   0  0  0  0  0  3  0  0  0  0  0  0
  189.3780  177.5840  142.8550 C   0  0  0  0  0  0  0  0  0  0  0  0
  188.1340  177.5610  142.0460 C   0  0  1  0  0  3  0  0  0  0  0  0
  189.1380  177.1800  144.1360 C   0  0  0  0  0  0  0  0  0  0  0  0
  190.6320  177.8860  142.4270 N   0  0  0  0  0  0  0  0  0  0  0  0
  191.6780  177.8160  143.3010 C   0  0  0  0  0  3  0  0  0  0  0  0
  190.1710  177.0900  145.0650 C   0  0  0  0  0  3  0  0  0  0  0  0
  187.7780  176.8770  144.3640 N   0  0  0  0  0  2  0  0  0  0  0  0
  187.0580  177.1240  143.1110 C   0  0  1  0  0  3  0  0  0  0  0  0
  187.9320  178.8720  141.3450 C   0  0  0  0  0  3  0  0  0  0  0  0
  188.2610  179.0050  140.1790 O   0  0  0  0  0  0  0  0  0  0  0  0
  183.4200  178.6340  140.9230 C   0  0  1  0  0  3  0  0  0  0  0  0
  185.0440  179.4010  139.0440 C   0  0  1  0  0  3  0  0  0  0  0  0
  184.1830  180.5030  139.0900 O   0  0  0  0  0  1  0  0  0  0  0  0
  184.6460  178.2940  140.0440 C   0  0  2  0  0  3  0  0  0  0  0  0
  182.9710  178.3510  138.1950 O   0  0  0  0  0  1  0  0  0  0  0  0
  184.3080  178.1610  138.5630 C   0  0  1  0  0  0  0  0  0  0  0  0
  185.1100  177.1740  137.7770 C   0  0  0  0  0  0  0  0  0  0  0  0
  186.6320  175.2860  136.3760 C   0  0  0  0  0  0  0  0  0  0  0  0
  184.5050  176.0150  137.2750 C   0  0  0  0  0  3  0  0  0  0  0  0
  186.4860  177.3720  137.5940 C   0  0  0  0  0  3  0  0  0  0  0  0
  185.2640  175.0740  136.5710 C   0  0  0  0  0  3  0  0  0  0  0  0
  187.2430  176.4330  136.8900 C   0  0  0  0  0  3  0  0  0  0  0  0
  187.3840  174.3530  135.6750 O   0  0  0  0  0  1  0  0  0  0  0  0
  181.1220  178.0510  141.6900 N   0  0  0  0  0  2  0  0  0  0  0  0
  182.1200  177.8530  140.6270 C   0  0  1  0  0  3  0  0  0  0  0  0
  180.9620  178.7130  140.3850 C   0  0  0  0  0  2  0  0  0  0  0  0
  1  5  1  1  0  0  0
  1  4  1  0  0  0  0
  3  2  1  0  0  0  0
  4  2  1  0  0  0  0
  6  3  1  0  0  0  0
  7  5  1  0  0  0  0
  7  6  2  0  0  0  0
  8 14  1  0  0  0  0
  9 11  1  0  0  0  0
 10 17  1  1  0  0  0
 10  9  1  0  0  0  0
 10 16  1  0  0  0  0
 11 15  1  0  0  0  0
 11 14  2  0  0  0  0
 12  9  2  0  0  0  0
 12 13  1  0  0  0  0
 13  8  2  0  0  0  0
 16  1  1  0  0  0  0
 16 15  1  1  0  0  0
 18 17  2  0  0  0  0
 19  7  1  1  0  0  0
 20 21  1  1  0  0  0
 20 22  1  0  0  0  0
 22 19  1  1  0  0  0
 24 23  1  6  0  0  0
 24 20  1  0  0  0  0
 24 22  1  0  0  0  0
 25 24  1  0  0  0  0
 26 29  2  0  0  0  0
 26 30  1  0  0  0  0
 27 25  2  0  0  0  0
 28 25  1  0  0  0  0
 29 27  1  0  0  0  0
 30 28  2  0  0  0  0
 31 26  1  0  0  0  0
 33 19  1  1  0  0  0
 33 32  1  0  0  0  0
 34 33  1  0  0  0  0
 34 32  1  0  0  0  0
M  END
>  <MODEL>
6

>  <REMARK>
 VINA RESULT:      -6.1      3.104      7.607
  Name = 
  6 active torsions:
  status: ('A' for Active; 'I' for Inactive)
    1  A    between atoms: C_1  and  C_32
    2  A    between atoms: N_2  and  C_33
    3  A    between atoms: C_9  and  C_19
    4  A    between atoms: C_10  and  C_29
    5  A    between atoms: C_26  and  C_29
    6  A    between atoms: C_29  and  C_34
                            x       y       z     vdW  Elec       q    Type
                         _______ _______ _______ _____ _____    ______ ____

>  <TORSDO>
F 6

$$$$
=
 OpenBabel11032421273D

 34 39  0  0  1  0  0  0  0  0999 V2000
  183.1440  178.6920  138.0530 N   0  0  2  0  0  0  0  0  0  0  0  0
  181.5460  178.7150  136.1870 C   0  0  0  0  0  2  0  0  0  0  0  0
  181.5470  177.2230  135.8720 C   0  0  0  0  0  2  0  0  0  0  0  0
  181.7580  178.9570  137.6780 C   0  0  0  0  0  2  0  0  0  0  0  0
  183.3640  177.2520  138.1980 C   0  0  0  0  0  2  0  0  0  0  0  0
  182.9410  176.6670  135.8260 C   0  0  0  0  0  3  0  0  0  0  0  0
  183.7740  176.6640  136.8820 C   0  0  0  0  0  0  0  0  0  0  0  0
  186.3580  178.2550  142.7800 C   0  0  0  0  0  3  0  0  0  0  0  0
  183.9680  178.6710  141.4860 C   0  0  0  0  0  0  0  0  0  0  0  0
  182.7980  179.0000  140.6330 C   0  0  1  0  0  3  0  0  0  0  0  0
  185.1390  178.9100  140.8280 C   0  0  0  0  0  0  0  0  0  0  0  0
  183.9510  178.2520  142.7780 N   0  0  0  0  0  0  0  0  0  0  0  0
  185.1290  178.0350  143.4330 C   0  0  0  0  0  3  0  0  0  0  0  0
  186.3660  178.7060  141.4510 C   0  0  0  0  0  3  0  0  0  0  0  0
  184.9350  179.3750  139.5090 N   0  0  0  0  0  2  0  0  0  0  0  0
  183.4880  179.4280  139.2820 C   0  0  1  0  0  3  0  0  0  0  0  0
  181.8320  177.8530  140.5910 C   0  0  0  0  0  3  0  0  0  0  0  0
  180.7010  177.9840  141.0260 O   0  0  0  0  0  0  0  0  0  0  0  0
  185.1550  176.0820  136.7680 C   0  0  1  0  0  3  0  0  0  0  0  0
  186.8720  178.0070  136.4450 C   0  0  1  0  0  3  0  0  0  0  0  0
  186.4140  177.8630  135.1300 O   0  0  0  0  0  1  0  0  0  0  0  0
  186.2130  177.0050  137.4160 C   0  0  2  0  0  3  0  0  0  0  0  0
  187.7850  175.7670  135.9260 O   0  0  0  0  0  1  0  0  0  0  0  0
  187.6250  176.7650  136.8940 C   0  0  1  0  0  0  0  0  0  0  0  0
  188.7450  176.9790  137.8600 C   0  0  0  0  0  0  0  0  0  0  0  0
  190.8080  177.3240  139.7230 C   0  0  0  0  0  0  0  0  0  0  0  0
  189.9040  176.1970  137.7790 C   0  0  0  0  0  3  0  0  0  0  0  0
  188.6140  177.9190  138.8920 C   0  0  0  0  0  3  0  0  0  0  0  0
  190.9360  176.3730  138.7070 C   0  0  0  0  0  3  0  0  0  0  0  0
  189.6460  178.0940  139.8180 C   0  0  0  0  0  3  0  0  0  0  0  0
  191.8340  177.5000  140.6410 O   0  0  0  0  0  1  0  0  0  0  0  0
  183.8820  173.9440  136.8960 N   0  0  0  0  0  2  0  0  0  0  0  0
  185.1550  174.6050  137.2220 C   0  0  1  0  0  3  0  0  0  0  0  0
  185.0940  173.6520  136.1140 C   0  0  0  0  0  2  0  0  0  0  0  0
  1  4  1  1  0  0  0
  1  5  1  0  0  0  0
  1 16  1  0  0  0  0
  2  4  1  0  0  0  0
  3  2  1  0  0  0  0
  6  3  1  0  0  0  0
  6  7  2  0  0  0  0
  7  5  1  0  0  0  0
  8 13  1  0  0  0  0
  9 12  1  0  0  0  0
 10 17  1  6  0  0  0
 10  9  1  0  0  0  0
 11 14  1  0  0  0  0
 11  9  2  0  0  0  0
 12 13  2  0  0  0  0
 14  8  2  0  0  0  0
 15 11  1  0  0  0  0
 16 15  1  1  0  0  0
 16 10  1  0  0  0  0
 17 18  2  0  0  0  0
 19  7  1  1  0  0  0
 20 21  1  6  0  0  0
 20 24  1  0  0  0  0
 20 22  1  0  0  0  0
 22 19  1  6  0  0  0
 24 23  1  6  0  0  0
 24 22  1  0  0  0  0
 24 25  1  0  0  0  0
 25 28  1  0  0  0  0
 26 30  1  0  0  0  0
 26 31  1  0  0  0  0
 27 25  2  0  0  0  0
 27 29  1  0  0  0  0
 28 30  2  0  0  0  0
 29 26  2  0  0  0  0
 32 33  1  0  0  0  0
 33 19  1  6  0  0  0
 34 32  1  0  0  0  0
 34 33  1  0  0  0  0
M  END
>  <MODEL>
7

>  <REMARK>
 VINA RESULT:      -6.0      2.146      3.379
  Name = 
  6 active torsions:
  status: ('A' for Active; 'I' for Inactive)
    1  A    between atoms: C_1  and  C_32
    2  A    between atoms: N_2  and  C_33
    3  A    between atoms: C_9  and  C_19
    4  A    between atoms: C_10  and  C_29
    5  A    between atoms: C_26  and  C_29
    6  A    between atoms: C_29  and  C_34
                            x       y       z     vdW  Elec       q    Type
                         _______ _______ _______ _____ _____    ______ ____

>  <TORSDO>
F 6

$$$$
=
 OpenBabel11032421273D

 34 39  0  0  1  0  0  0  0  0999 V2000
  184.4420  176.5630  136.6770 N   0  0  2  0  0  0  0  0  0  0  0  0
  183.5760  174.2880  136.3470 C   0  0  0  0  0  2  0  0  0  0  0  0
  182.1260  174.6430  136.0380 C   0  0  0  0  0  2  0  0  0  0  0  0
  184.5220  175.3710  135.8380 C   0  0  0  0  0  2  0  0  0  0  0  0
  183.2610  177.3520  136.3270 C   0  0  0  0  0  2  0  0  0  0  0  0
  181.5840  175.6560  137.0050 C   0  0  0  0  0  3  0  0  0  0  0  0
  182.0850  176.8970  137.1380 C   0  0  0  0  0  0  0  0  0  0  0  0
  189.8140  176.7560  138.6680 C   0  0  0  0  0  3  0  0  0  0  0  0
  187.3580  177.8840  138.1650 C   0  0  0  0  0  0  0  0  0  0  0  0
  186.0330  178.3730  137.7080 C   0  0  1  0  0  3  0  0  0  0  0  0
  187.7750  176.8230  137.4170 C   0  0  0  0  0  0  0  0  0  0  0  0
  188.1370  178.4160  139.1430 N   0  0  0  0  0  0  0  0  0  0  0  0
  189.3570  177.8640  139.4090 C   0  0  0  0  0  3  0  0  0  0  0  0
  189.0100  176.2250  137.6480 C   0  0  0  0  0  3  0  0  0  0  0  0
  186.8340  176.4500  136.4310 N   0  0  0  0  0  2  0  0  0  0  0  0
  185.6840  177.3490  136.5620 C   0  0  1  0  0  3  0  0  0  0  0  0
  185.0800  178.4840  138.8610 C   0  0  0  0  0  3  0  0  0  0  0  0
  184.8580  179.5660  139.3760 O   0  0  0  0  0  0  0  0  0  0  0  0
  181.4870  177.8640  138.1210 C   0  0  1  0  0  3  0  0  0  0  0  0
  180.6490  176.8050  140.3430 C   0  0  1  0  0  3  0  0  0  0  0  0
  179.4800  176.7310  139.5780 O   0  0  0  0  0  1  0  0  0  0  0  0
  181.8170  177.4640  139.5780 C   0  0  2  0  0  3  0  0  0  0  0  0
  180.1290  179.2150  140.1340 O   0  0  0  0  0  1  0  0  0  0  0  0
  181.0250  178.2530  140.6140 C   0  0  1  0  0  0  0  0  0  0  0  0
  181.7080  178.5300  141.9140 C   0  0  0  0  0  0  0  0  0  0  0  0
  182.9890  178.9660  144.3680 C   0  0  0  0  0  0  0  0  0  0  0  0
  183.1070  178.5650  141.9820 C   0  0  0  0  0  3  0  0  0  0  0  0
  180.9550  178.6920  143.0850 C   0  0  0  0  0  3  0  0  0  0  0  0
  183.7460  178.7870  143.2070 C   0  0  0  0  0  3  0  0  0  0  0  0
  181.5940  178.9150  144.3080 C   0  0  0  0  0  3  0  0  0  0  0  0
  183.6230  179.1890  145.5820 O   0  0  0  0  0  1  0  0  0  0  0  0
  181.2870  179.6300  136.3750 N   0  0  0  0  0  2  0  0  0  0  0  0
  181.8150  179.3170  137.7120 C   0  0  1  0  0  3  0  0  0  0  0  0
  180.6330  180.1690  137.5790 C   0  0  0  0  0  2  0  0  0  0  0  0
  1  4  1  6  0  0  0
  3  2  1  0  0  0  0
  3  6  1  0  0  0  0
  4  2  1  0  0  0  0
  5  1  1  0  0  0  0
  5  7  1  0  0  0  0
  6  7  2  0  0  0  0
  8 13  1  0  0  0  0
  9 12  1  0  0  0  0
 10  9  1  0  0  0  0
 10 17  1  1  0  0  0
 11 14  1  0  0  0  0
 11  9  2  0  0  0  0
 12 13  2  0  0  0  0
 14  8  2  0  0  0  0
 15 11  1  0  0  0  0
 16 15  1  1  0  0  0
 16  1  1  0  0  0  0
 16 10  1  0  0  0  0
 17 18  2  0  0  0  0
 19  7  1  6  0  0  0
 20 21  1  6  0  0  0
 20 24  1  0  0  0  0
 22 19  1  6  0  0  0
 22 20  1  0  0  0  0
 22 24  1  0  0  0  0
 24 23  1  6  0  0  0
 24 25  1  0  0  0  0
 25 27  2  0  0  0  0
 25 28  1  0  0  0  0
 26 31  1  0  0  0  0
 27 29  1  0  0  0  0
 28 30  2  0  0  0  0
 29 26  2  0  0  0  0
 30 26  1  0  0  0  0
 32 34  1  0  0  0  0
 32 33  1  0  0  0  0
 33 19  1  1  0  0  0
 34 33  1  0  0  0  0
M  END
>  <MODEL>
8

>  <REMARK>
 VINA RESULT:      -6.0      2.677      6.908
  Name = 
  6 active torsions:
  status: ('A' for Active; 'I' for Inactive)
    1  A    between atoms: C_1  and  C_32
    2  A    between atoms: N_2  and  C_33
    3  A    between atoms: C_9  and  C_19
    4  A    between atoms: C_10  and  C_29
    5  A    between atoms: C_26  and  C_29
    6  A    between atoms: C_29  and  C_34
                            x       y       z     vdW  Elec       q    Type
                         _______ _______ _______ _____ _____    ______ ____

>  <TORSDO>
F 6

$$$$
=
 OpenBabel11032421273D

 34 39  0  0  1  0  0  0  0  0999 V2000
  186.4020  174.9280  136.6850 N   0  0  2  0  0  0  0  0  0  0  0  0
  185.5590  176.6990  135.2060 C   0  0  0  0  0  2  0  0  0  0  0  0
  186.8980  177.2480  134.7270 C   0  0  0  0  0  2  0  0  0  0  0  0
  185.6470  175.1990  135.4660 C   0  0  0  0  0  2  0  0  0  0  0  0
  187.8390  175.0240  136.4250 C   0  0  0  0  0  2  0  0  0  0  0  0
  187.8580  177.4400  135.8670 C   0  0  0  0  0  3  0  0  0  0  0  0
  188.3030  176.4330  136.6400 C   0  0  0  0  0  0  0  0  0  0  0  0
  183.7020  170.0830  135.2380 C   0  0  0  0  0  3  0  0  0  0  0  0
  184.1090  172.2510  136.8790 C   0  0  0  0  0  0  0  0  0  0  0  0
  184.5450  173.3950  137.7190 C   0  0  1  0  0  3  0  0  0  0  0  0
  185.1270  171.8070  136.0880 C   0  0  0  0  0  0  0  0  0  0  0  0
  182.8990  171.6340  136.8950 N   0  0  0  0  0  0  0  0  0  0  0  0
  182.6780  170.5600  136.0810 C   0  0  0  0  0  3  0  0  0  0  0  0
  184.9540  170.7150  135.2420 C   0  0  0  0  0  3  0  0  0  0  0  0
  186.3100  172.5620  136.2500 N   0  0  0  0  0  2  0  0  0  0  0  0
  186.0280  173.6120  137.2330 C   0  0  1  0  0  3  0  0  0  0  0  0
  183.5910  174.5450  137.5870 C   0  0  0  0  0  3  0  0  0  0  0  0
  183.2970  175.2170  138.5600 O   0  0  0  0  0  0  0  0  0  0  0  0
  189.2710  176.6970  137.7590 C   0  0  1  0  0  3  0  0  0  0  0  0
  188.4310  178.6150  139.3000 C   0  0  1  0  0  3  0  0  0  0  0  0
  189.0690  179.3620  138.3030 O   0  0  0  0  0  1  0  0  0  0  0  0
  188.5350  177.0940  139.0600 C   0  0  2  0  0  3  0  0  0  0  0  0
  190.7800  177.9600  139.7210 O   0  0  0  0  0  1  0  0  0  0  0  0
  189.4380  177.7820  140.0780 C   0  0  1  0  0  0  0  0  0  0  0  0
  189.1300  177.5430  141.5200 C   0  0  0  0  0  0  0  0  0  0  0  0
  188.5210  177.0180  144.2040 C   0  0  0  0  0  0  0  0  0  0  0  0
  190.0850  176.9500  142.3560 C   0  0  0  0  0  3  0  0  0  0  0  0
  187.8600  177.8500  142.0300 C   0  0  0  0  0  3  0  0  0  0  0  0
  189.7830  176.6920  143.6970 C   0  0  0  0  0  3  0  0  0  0  0  0
  187.5600  177.5940  143.3700 C   0  0  0  0  0  3  0  0  0  0  0  0
  188.2230  176.7650  145.5360 O   0  0  0  0  0  1  0  0  0  0  0  0
  191.0010  175.3330  136.5950 N   0  0  0  0  0  2  0  0  0  0  0  0
  190.2930  175.5440  137.8670 C   0  0  1  0  0  3  0  0  0  0  0  0
  191.6830  175.9780  137.7280 C   0  0  0  0  0  2  0  0  0  0  0  0
  1  4  1  6  0  0  0
  1 16  1  0  0  0  0
  2  4  1  0  0  0  0
  3  2  1  0  0  0  0
  3  6  1  0  0  0  0
  5  7  1  0  0  0  0
  5  1  1  0  0  0  0
  6  7  2  0  0  0  0
  8 14  2  0  0  0  0
  8 13  1  0  0  0  0
  9 12  1  0  0  0  0
  9 10  1  0  0  0  0
 10 17  1  6  0  0  0
 11 15  1  0  0  0  0
 11  9  2  0  0  0  0
 13 12  2  0  0  0  0
 14 11  1  0  0  0  0
 16 15  1  6  0  0  0
 16 10  1  0  0  0  0
 17 18  2  0  0  0  0
 19  7  1  6  0  0  0
 20 21  1  6  0  0  0
 20 24  1  0  0  0  0
 22 19  1  6  0  0  0
 22 20  1  0  0  0  0
 22 24  1  0  0  0  0
 24 23  1  6  0  0  0
 24 25  1  0  0  0  0
 25 28  2  0  0  0  0
 25 27  1  0  0  0  0
 26 31  1  0  0  0  0
 27 29  2  0  0  0  0
 28 30  1  0  0  0  0
 29 26  1  0  0  0  0
 30 26  2  0  0  0  0
 32 34  1  0  0  0  0
 32 33  1  0  0  0  0
 33 19  1  6  0  0  0
 34 33  1  0  0  0  0
M  END
>  <MODEL>
9

>  <REMARK>
 VINA RESULT:      -5.9      3.326      4.896
  Name = 
  6 active torsions:
  status: ('A' for Active; 'I' for Inactive)
    1  A    between atoms: C_1  and  C_32
    2  A    between atoms: N_2  and  C_33
    3  A    between atoms: C_9  and  C_19
    4  A    between atoms: C_10  and  C_29
    5  A    between atoms: C_26  and  C_29
    6  A    between atoms: C_29  and  C_34
                            x       y       z     vdW  Elec       q    Type
                         _______ _______ _______ _____ _____    ______ ____

>  <TORSDO>
F 6

$$$$
