=
 OpenBabel11042413163D

 61 69  0  0  1  0  0  0  0  0999 V2000
  189.9830  176.4820  137.5460 C   0  0  1  0  0  3  0  0  0  0  0  0
  188.4370  178.6410  137.5530 C   0  0  0  0  0  1  0  0  0  0  0  0
  188.5880  177.1210  137.5170 C   0  0  1  0  0  0  0  0  0  0  0  0
  187.4890  176.2510  137.0210 C   0  0  1  0  0  3  0  0  0  0  0  0
  187.6920  176.4880  138.3980 O   0  0  0  0  0  0  0  0  0  0  0  0
  186.2630  177.0210  136.5420 C   0  0  0  0  0  2  0  0  0  0  0  0
  181.2010  175.0500  138.7520 C   0  0  0  0  0  1  0  0  0  0  0  0
  181.7610  176.1890  138.0350 N   0  0  0  0  0  0  0  0  0  0  0  0
  183.9610  174.6530  137.7370 C   0  0  1  0  0  3  0  0  0  0  0  0
  183.3330  177.6940  136.0090 O   0  0  0  0  0  0  0  0  0  0  0  0
  185.2260  174.9300  137.1320 O   0  0  0  0  0  0  0  0  0  0  0  0
  185.1040  176.0710  136.2800 C   0  0  1  0  0  3  0  0  0  0  0  0
  182.9430  176.6170  138.8100 C   0  0  0  0  0  2  0  0  0  0  0  0
  183.1320  175.9000  137.5560 C   0  0  2  0  0  0  0  0  0  0  0  0
  183.8000  176.7180  136.5750 C   0  0  0  0  0  0  0  0  0  0  0  0
  183.7420  171.1370  136.1380 C   0  0  0  0  0  0  0  0  0  0  0  0
  184.4400  169.9760  136.1250 F   0  0  0  0  0  0  0  0  0  0  0  0
  183.2760  173.4440  137.0800 C   0  0  2  0  0  3  0  0  0  0  0  0
  184.2870  172.3020  136.9320 C   0  0  0  0  0  2  0  0  0  0  0  0
  182.6910  171.2680  135.3110 C   0  0  0  0  0  3  0  0  0  0  0  0
  182.6480  173.7400  135.7170 C   0  0  0  0  0  2  0  0  0  0  0  0
  181.8550  172.5200  135.2590 C   0  0  0  0  0  2  0  0  0  0  0  0
  190.0760  175.9610  135.2240 C   0  0  0  0  0  2  0  0  0  0  0  0
  190.7200  176.7360  136.3000 N   0  0  0  0  0  0  0  0  0  0  0  0
  191.3690  175.5200  135.7320 C   0  0  1  0  0  3  0  0  0  0  0  0
  191.1890  174.2350  136.5440 C   0  0  0  0  0  2  0  0  0  0  0  0
  192.5340  173.5760  136.7680 C   0  0  0  0  0  2  0  0  0  0  0  0
  193.6360  174.6140  136.6060 C   0  0  2  0  0  3  0  0  0  0  0  0
  195.0010  174.2470  137.2120 C   0  0  1  0  0  3  0  0  0  0  0  0
  194.0270  175.1370  137.9730 C   0  0  0  0  0  2  0  0  0  0  0  0
  195.2280  172.8310  139.1760 O   0  0  0  0  0  1  0  0  0  0  0  0
  195.1570  172.8130  137.7800 C   0  0  2  0  0  3  0  0  0  0  0  0
  196.2900  171.9700  137.1860 C   0  0  0  0  0  2  0  0  0  0  0  0
  195.7650  170.6290  136.6890 C   0  0  0  0  0  2  0  0  0  0  0  0
  194.8880  170.0850  137.6220 O   0  0  0  0  0  1  0  0  0  0  0  0
  190.5120  176.5300  139.9780 C   0  0  0  0  0  3  0  0  0  0  0  0
  190.7920  176.9270  138.7330 C   0  0  0  0  0  3  0  0  0  0  0  0
  191.3340  176.9760  141.1480 C   0  0  0  0  0  2  0  0  0  0  0  0
  190.4210  179.0170  144.2080 C   0  0  0  0  0  3  0  0  0  0  0  0
  189.7630  178.1210  145.2100 C   0  0  1  0  0  3  0  0  0  0  0  0
  188.4030  176.7560  143.6210 C   0  0  0  0  0  3  0  0  0  0  0  0
  189.4360  176.5770  142.5890 C   0  0  0  0  0  3  0  0  0  0  0  0
  188.4900  177.4870  144.7350 C   0  0  0  0  0  0  0  0  0  0  0  0
  190.4810  177.3700  142.3120 C   0  0  0  0  0  0  0  0  0  0  0  0
  190.7580  178.6660  142.9670 C   0  0  0  0  0  3  0  0  0  0  0  0
  190.7050  177.1420  145.8440 C   0  0  0  0  0  0  0  0  0  0  0  0
  192.2620  175.5590  146.2790 N   0  0  0  0  0  0  0  0  0  0  0  0
  191.7040  176.2810  145.1480 C   0  0  0  0  0  3  0  0  0  0  0  0
  191.6900  175.9340  147.3500 N   0  0  0  0  0  0  0  0  0  0  0  0
  190.7200  176.9080  147.1100 N   0  0  0  0  0  2  0  0  0  0  0  0
  187.3220  177.5070  145.6700 C   0  0  0  0  0  2  0  0  0  0  0  0
  185.9770  177.7200  144.9690 C   0  0  1  0  0  3  0  0  0  0  0  0
  184.9550  178.7970  142.8670 C   0  0  1  0  0  3  0  0  0  0  0  0
  183.6450  178.4470  143.5870 C   0  0  1  0  0  3  0  0  0  0  0  0
  185.0980  178.7510  145.6840 C   0  0  0  0  0  2  0  0  0  0  0  0
  185.2060  180.1580  142.9400 F   0  0  0  0  0  0  0  0  0  0  0  0
  183.6780  178.7760  145.0890 C   0  0  0  0  0  2  0  0  0  0  0  0
  186.1370  178.0250  143.4690 C   0  0  0  0  0  2  0  0  0  0  0  0
  182.4590  179.0640  142.9190 C   0  0  0  0  0  0  0  0  0  0  0  0
  181.7470  179.9110  143.5280 O   0  0  0  0  0  1  0  0  0  0  0  0
  182.1550  178.7210  141.6080 O   0  0  0  0  0  0  0  0  0  0  0  0
  1 37  1  1  0  0  0
  3  1  1  0  0  0  0
  3  2  1  6  0  0  0
  3  5  1  0  0  0  0
  4  6  1  6  0  0  0
  4  3  1  0  0  0  0
  4  5  1  0  0  0  0
  8  7  1  0  0  0  0
  8 13  1  0  0  0  0
  9 11  1  6  0  0  0
 10 15  2  0  0  0  0
 12  6  1  1  0  0  0
 12 15  1  0  0  0  0
 12 11  1  0  0  0  0
 14  9  1  0  0  0  0
 14  8  1  0  0  0  0
 14 13  1  1  0  0  0
 15 14  1  0  0  0  0
 16 19  1  0  0  0  0
 17 16  1  0  0  0  0
 18 21  1  6  0  0  0
 18  9  1  0  0  0  0
 19 18  1  0  0  0  0
 20 16  2  0  0  0  0
 22 20  1  0  0  0  0
 22 21  1  0  0  0  0
 23 25  1  0  0  0  0
 23 24  1  0  0  0  0
 24  1  1  0  0  0  0
 25 24  1  0  0  0  0
 25 26  1  1  0  0  0
 26 27  1  0  0  0  0
 28 27  1  1  0  0  0
 28 29  1  0  0  0  0
 28 30  1  0  0  0  0
 29 32  1  1  0  0  0
 29 30  1  0  0  0  0
 32 31  1  1  0  0  0
 33 32  1  0  0  0  0
 34 33  1  0  0  0  0
 34 35  1  0  0  0  0
 36 38  1  0  0  0  0
 37 36  2  0  0  0  0
 38 44  1  0  0  0  0
 39 40  1  0  0  0  0
 40 46  1  6  0  0  0
 41 43  2  0  0  0  0
 42 41  1  0  0  0  0
 43 40  1  0  0  0  0
 43 51  1  0  0  0  0
 44 42  2  0  0  0  0
 44 45  1  0  0  0  0
 45 39  2  0  0  0  0
 46 50  1  0  0  0  0
 47 49  2  0  0  0  0
 48 46  2  0  0  0  0
 48 47  1  0  0  0  0
 50 49  1  0  0  0  0
 52 51  1  1  0  0  0
 52 55  1  0  0  0  0
 53 56  1  1  0  0  0
 53 58  1  0  0  0  0
 53 54  1  0  0  0  0
 54 59  1  6  0  0  0
 54 57  1  0  0  0  0
 57 55  1  0  0  0  0
 58 52  1  0  0  0  0
 59 60  1  0  0  0  0
 61 59  2  0  0  0  0
M  END
>  <MODEL>
1

>  <REMARK>
 VINA RESULT:      -9.0      0.000      0.000
  Name = 
  18 active torsions:
  status: ('A' for Active; 'I' for Inactive)
    1  A    between atoms: C_1  and  C_6
    2  A    between atoms: C_1  and  C_45
    3  A    between atoms: C_7  and  C_23
    4  A    between atoms: C_8  and  C_19
    5  A    between atoms: C_8  and  C_42
    6  A    between atoms: C_10  and  C_20
    7  A    between atoms: C_11  and  C_12
    8  A    between atoms: C_14  and  C_15
    9  A    between atoms: C_23  and  C_43
   10  A    between atoms: C_24  and  C_51
   11  A    between atoms: C_25  and  C_32
   12  A    between atoms: N_30  and  C_32
   13  A    between atoms: C_32  and  C_33
   14  A    between atoms: C_41  and  C_59
   15  A    between atoms: C_42  and  C_46
   16  A    between atoms: C_51  and  C_52
   17  A    between atoms: C_52  and  C_54
   18  A    between atoms: C_53  and  C_59
                            x       y       z     vdW  Elec       q    Type
                         _______ _______ _______ _____ _____    ______ ____

>  <TORSDO>
F 18

$$$$
=
 OpenBabel11042413163D

 61 69  0  0  1  0  0  0  0  0999 V2000
  189.4420  176.9130  137.5800 C   0  0  1  0  0  3  0  0  0  0  0  0
  188.2250  179.1950  136.9820 C   0  0  0  0  0  1  0  0  0  0  0  0
  188.1660  177.7630  137.5080 C   0  0  1  0  0  0  0  0  0  0  0  0
  186.8850  177.0090  137.5450 C   0  0  1  0  0  3  0  0  0  0  0  0
  187.3960  177.6710  138.6820 O   0  0  0  0  0  0  0  0  0  0  0  0
  185.6970  177.7870  136.9890 C   0  0  0  0  0  2  0  0  0  0  0  0
  180.0900  177.0550  135.4370 C   0  0  0  0  0  1  0  0  0  0  0  0
  181.4240  176.5470  135.1470 N   0  0  0  0  0  0  0  0  0  0  0  0
  182.2040  177.9560  137.3130 C   0  0  1  0  0  3  0  0  0  0  0  0
  184.1700  175.5150  135.6370 O   0  0  0  0  0  0  0  0  0  0  0  0
  183.4960  178.1490  137.8930 O   0  0  0  0  0  0  0  0  0  0  0  0
  184.3870  177.1400  137.4130 C   0  0  1  0  0  3  0  0  0  0  0  0
  182.2590  177.7320  134.8660 C   0  0  0  0  0  2  0  0  0  0  0  0
  182.4110  177.0360  136.1360 C   0  0  2  0  0  0  0  0  0  0  0  0
  183.7270  176.4600  136.2700 C   0  0  0  0  0  0  0  0  0  0  0  0
  179.8680  177.8740  140.3960 C   0  0  0  0  0  0  0  0  0  0  0  0
  179.1640  178.7370  141.1660 F   0  0  0  0  0  0  0  0  0  0  0  0
  181.2210  177.3370  138.3210 C   0  0  2  0  0  3  0  0  0  0  0  0
  180.7050  178.4280  139.2650 C   0  0  0  0  0  2  0  0  0  0  0  0
  179.9350  176.5840  140.7670 C   0  0  0  0  0  3  0  0  0  0  0  0
  181.8060  176.1900  139.1470 C   0  0  0  0  0  2  0  0  0  0  0  0
  180.6910  175.5530  139.9710 C   0  0  0  0  0  2  0  0  0  0  0  0
  189.5750  175.9820  135.3910 C   0  0  0  0  0  2  0  0  0  0  0  0
  190.1900  176.9520  136.3150 N   0  0  0  0  0  0  0  0  0  0  0  0
  190.8690  175.6680  135.9830 C   0  0  1  0  0  3  0  0  0  0  0  0
  190.7030  174.5480  137.0130 C   0  0  0  0  0  2  0  0  0  0  0  0
  192.0470  173.9110  137.3020 C   0  0  0  0  0  2  0  0  0  0  0  0
  193.1560  174.8650  136.8770 C   0  0  2  0  0  3  0  0  0  0  0  0
  194.5860  174.4450  137.2570 C   0  0  1  0  0  3  0  0  0  0  0  0
  193.8150  175.4390  138.1150 C   0  0  0  0  0  2  0  0  0  0  0  0
  195.3690  173.1230  139.1420 O   0  0  0  0  0  1  0  0  0  0  0  0
  194.7640  173.0390  137.8840 C   0  0  2  0  0  3  0  0  0  0  0  0
  195.4650  171.9920  137.0110 C   0  0  0  0  0  2  0  0  0  0  0  0
  194.7530  170.6480  137.1000 C   0  0  0  0  0  2  0  0  0  0  0  0
  193.5540  170.6970  136.3950 O   0  0  0  0  0  1  0  0  0  0  0  0
  190.2700  176.7060  139.9180 C   0  0  0  0  0  3  0  0  0  0  0  0
  190.3310  177.3090  138.7270 C   0  0  0  0  0  3  0  0  0  0  0  0
  191.1700  177.1080  141.0470 C   0  0  0  0  0  2  0  0  0  0  0  0
  190.4890  178.9980  144.2610 C   0  0  0  0  0  3  0  0  0  0  0  0
  189.8680  178.0630  145.2510 C   0  0  1  0  0  3  0  0  0  0  0  0
  188.3840  176.8170  143.6760 C   0  0  0  0  0  3  0  0  0  0  0  0
  189.3500  176.6720  142.5750 C   0  0  0  0  0  3  0  0  0  0  0  0
  188.5550  177.4830  144.8200 C   0  0  0  0  0  0  0  0  0  0  0  0
  190.3970  177.4550  142.2790 C   0  0  0  0  0  0  0  0  0  0  0  0
  190.7440  178.7070  142.9850 C   0  0  0  0  0  3  0  0  0  0  0  0
  190.8220  177.0290  145.7740 C   0  0  0  0  0  0  0  0  0  0  0  0
  192.1150  175.6800  147.0490 N   0  0  0  0  0  0  0  0  0  0  0  0
  191.1160  176.7240  147.2040 C   0  0  0  0  0  2  0  0  0  0  0  0
  192.3260  175.4700  145.8140 N   0  0  0  0  0  0  0  0  0  0  0  0
  191.5440  176.2930  145.0030 N   0  0  0  0  0  0  0  0  0  0  0  0
  187.4440  177.4780  145.8230 C   0  0  0  0  0  2  0  0  0  0  0  0
  186.0580  177.6940  145.2080 C   0  0  1  0  0  3  0  0  0  0  0  0
  184.9250  178.5430  143.0590 C   0  0  1  0  0  3  0  0  0  0  0  0
  183.6650  178.4000  143.9240 C   0  0  1  0  0  3  0  0  0  0  0  0
  185.3160  178.8800  145.8320 C   0  0  0  0  0  2  0  0  0  0  0  0
  185.2700  179.8780  142.9120 F   0  0  0  0  0  0  0  0  0  0  0  0
  183.8540  178.9320  145.3540 C   0  0  0  0  0  2  0  0  0  0  0  0
  186.1030  177.7730  143.6710 C   0  0  0  0  0  2  0  0  0  0  0  0
  182.4670  179.0070  143.2700 C   0  0  0  0  0  0  0  0  0  0  0  0
  182.5970  179.7700  142.2720 O   0  0  0  0  0  0  0  0  0  0  0  0
  181.1980  178.7070  143.7490 O   0  0  0  0  0  1  0  0  0  0  0  0
  1 37  1  1  0  0  0
  3  2  1  6  0  0  0
  3  4  1  0  0  0  0
  3  1  1  0  0  0  0
  3  5  1  0  0  0  0
  4  6  1  6  0  0  0
  4  5  1  0  0  0  0
  8  7  1  0  0  0  0
  8 14  1  0  0  0  0
  9 11  1  1  0  0  0
  9 18  1  0  0  0  0
 10 15  2  0  0  0  0
 12  6  1  6  0  0  0
 12 11  1  0  0  0  0
 13  8  1  0  0  0  0
 14 13  1  6  0  0  0
 14 15  1  0  0  0  0
 14  9  1  0  0  0  0
 15 12  1  0  0  0  0
 16 20  2  0  0  0  0
 16 17  1  0  0  0  0
 18 21  1  1  0  0  0
 18 19  1  0  0  0  0
 19 16  1  0  0  0  0
 21 22  1  0  0  0  0
 22 20  1  0  0  0  0
 23 25  1  0  0  0  0
 23 24  1  0  0  0  0
 24  1  1  0  0  0  0
 25 24  1  0  0  0  0
 25 26  1  1  0  0  0
 26 27  1  0  0  0  0
 28 29  1  0  0  0  0
 28 27  1  1  0  0  0
 28 30  1  0  0  0  0
 29 32  1  1  0  0  0
 29 30  1  0  0  0  0
 32 31  1  1  0  0  0
 33 34  1  0  0  0  0
 33 32  1  0  0  0  0
 35 34  1  0  0  0  0
 36 38  1  0  0  0  0
 37 36  2  0  0  0  0
 38 44  1  0  0  0  0
 39 40  1  0  0  0  0
 40 46  1  6  0  0  0
 41 43  2  0  0  0  0
 42 41  1  0  0  0  0
 43 40  1  0  0  0  0
 43 51  1  0  0  0  0
 44 42  2  0  0  0  0
 44 45  1  0  0  0  0
 45 39  2  0  0  0  0
 46 48  1  0  0  0  0
 47 48  1  0  0  0  0
 49 47  2  0  0  0  0
 50 46  2  0  0  0  0
 50 49  1  0  0  0  0
 52 51  1  1  0  0  0
 52 55  1  0  0  0  0
 53 56  1  1  0  0  0
 53 58  1  0  0  0  0
 53 54  1  0  0  0  0
 54 59  1  6  0  0  0
 54 57  1  0  0  0  0
 57 55  1  0  0  0  0
 58 52  1  0  0  0  0
 59 61  1  0  0  0  0
 60 59  2  0  0  0  0
M  END
>  <MODEL>
2

>  <REMARK>
 VINA RESULT:      -8.8      2.213      2.926
  Name = 
  18 active torsions:
  status: ('A' for Active; 'I' for Inactive)
    1  A    between atoms: C_1  and  C_6
    2  A    between atoms: C_1  and  C_45
    3  A    between atoms: C_7  and  C_23
    4  A    between atoms: C_8  and  C_19
    5  A    between atoms: C_8  and  C_42
    6  A    between atoms: C_10  and  C_20
    7  A    between atoms: C_11  and  C_12
    8  A    between atoms: C_14  and  C_15
    9  A    between atoms: C_23  and  C_43
   10  A    between atoms: C_24  and  C_51
   11  A    between atoms: C_25  and  C_32
   12  A    between atoms: N_30  and  C_32
   13  A    between atoms: C_32  and  C_33
   14  A    between atoms: C_41  and  C_59
   15  A    between atoms: C_42  and  C_46
   16  A    between atoms: C_51  and  C_52
   17  A    between atoms: C_52  and  C_54
   18  A    between atoms: C_53  and  C_59
                            x       y       z     vdW  Elec       q    Type
                         _______ _______ _______ _____ _____    ______ ____

>  <TORSDO>
F 18

$$$$
=
 OpenBabel11042413163D

 61 69  0  0  1  0  0  0  0  0999 V2000
  188.6730  177.6300  140.9820 C   0  0  1  0  0  3  0  0  0  0  0  0
  190.9750  177.3240  139.6940 C   0  0  0  0  0  1  0  0  0  0  0  0
  189.4780  177.6270  139.6760 C   0  0  1  0  0  0  0  0  0  0  0  0
  188.6820  177.4910  138.4270 C   0  0  1  0  0  3  0  0  0  0  0  0
  189.1810  178.7370  138.8640 O   0  0  0  0  0  0  0  0  0  0  0  0
  189.4910  177.0030  137.2310 C   0  0  0  0  0  2  0  0  0  0  0  0
  184.0500  175.8740  135.3600 C   0  0  0  0  0  1  0  0  0  0  0  0
  185.1840  176.7490  135.0930 N   0  0  0  0  0  0  0  0  0  0  0  0
  186.5570  175.1310  136.7620 C   0  0  1  0  0  3  0  0  0  0  0  0
  188.0010  177.5800  134.6290 O   0  0  0  0  0  0  0  0  0  0  0  0
  187.9050  175.1920  137.2310 O   0  0  0  0  0  0  0  0  0  0  0  0
  188.6660  176.0500  136.3780 C   0  0  1  0  0  3  0  0  0  0  0  0
  185.5530  177.3450  136.3930 C   0  0  0  0  0  2  0  0  0  0  0  0
  186.3910  176.2990  135.8220 C   0  0  2  0  0  0  0  0  0  0  0  0
  187.7120  176.7900  135.5140 C   0  0  0  0  0  0  0  0  0  0  0  0
  184.9910  171.6300  136.2560 C   0  0  0  0  0  0  0  0  0  0  0  0
  183.9240  170.9160  136.6900 F   0  0  0  0  0  0  0  0  0  0  0  0
  186.2730  173.8050  136.0360 C   0  0  2  0  0  3  0  0  0  0  0  0
  185.2040  173.0220  136.8060 C   0  0  0  0  0  2  0  0  0  0  0  0
  185.9100  171.0170  135.4910 C   0  0  0  0  0  3  0  0  0  0  0  0
  187.5030  172.9190  135.8400 C   0  0  0  0  0  2  0  0  0  0  0  0
  187.1250  171.7310  134.9600 C   0  0  0  0  0  2  0  0  0  0  0  0
  189.9250  176.4560  142.6330 C   0  0  0  0  0  2  0  0  0  0  0  0
  189.5440  177.7960  142.1540 N   0  0  0  0  0  0  0  0  0  0  0  0
  188.9700  177.2360  143.4100 C   0  0  1  0  0  3  0  0  0  0  0  0
  187.5770  176.6170  143.2790 C   0  0  0  0  0  2  0  0  0  0  0  0
  186.7300  176.9980  144.4770 C   0  0  0  0  0  2  0  0  0  0  0  0
  186.1690  178.3980  144.2700 C   0  0  2  0  0  3  0  0  0  0  0  0
  185.7460  179.1480  145.5440 C   0  0  1  0  0  3  0  0  0  0  0  0
  184.7150  178.4160  144.6960 C   0  0  0  0  0  2  0  0  0  0  0  0
  184.9090  178.1980  147.6210 O   0  0  0  0  0  1  0  0  0  0  0  0
  186.0750  178.4740  146.9010 C   0  0  2  0  0  3  0  0  0  0  0  0
  187.1030  179.1920  147.7810 C   0  0  0  0  0  2  0  0  0  0  0  0
  188.2390  178.2520  148.1650 C   0  0  0  0  0  2  0  0  0  0  0  0
  187.7800  176.9390  148.2010 O   0  0  0  0  0  1  0  0  0  0  0  0
  186.3190  178.3800  140.6820 C   0  0  0  0  0  3  0  0  0  0  0  0
  187.5870  178.6710  140.9840 C   0  0  0  0  0  3  0  0  0  0  0  0
  185.2490  179.4290  140.6970 C   0  0  0  0  0  2  0  0  0  0  0  0
  181.8920  179.6490  138.9500 C   0  0  0  0  0  3  0  0  0  0  0  0
  180.9090  178.7870  139.6780 C   0  0  1  0  0  3  0  0  0  0  0  0
  182.4290  176.8710  140.1840 C   0  0  0  0  0  3  0  0  0  0  0  0
  183.6090  177.6590  140.5760 C   0  0  0  0  0  3  0  0  0  0  0  0
  181.2670  177.3320  139.7150 C   0  0  0  0  0  0  0  0  0  0  0  0
  183.9420  178.9000  140.1960 C   0  0  0  0  0  0  0  0  0  0  0  0
  183.1990  179.7130  139.2100 C   0  0  0  0  0  3  0  0  0  0  0  0
  180.5200  179.3300  141.0210 C   0  0  0  0  0  0  0  0  0  0  0  0
  179.8540  179.6180  143.1630 N   0  0  0  0  0  0  0  0  0  0  0  0
  180.1440  178.5430  142.2300 C   0  0  0  0  0  2  0  0  0  0  0  0
  180.0240  180.7390  142.5900 N   0  0  0  0  0  0  0  0  0  0  0  0
  180.4310  180.5910  141.2630 N   0  0  0  0  0  0  0  0  0  0  0  0
  180.1820  176.3490  139.4040 C   0  0  0  0  0  2  0  0  0  0  0  0
  180.6320  175.2030  138.4930 C   0  0  1  0  0  3  0  0  0  0  0  0
  180.5630  174.4470  136.0340 C   0  0  1  0  0  3  0  0  0  0  0  0
  181.1320  173.1560  136.6390 C   0  0  1  0  0  3  0  0  0  0  0  0
  179.8100  173.9280  138.7020 C   0  0  0  0  0  2  0  0  0  0  0  0
  179.2290  174.2820  135.6920 F   0  0  0  0  0  0  0  0  0  0  0  0
  180.4250  172.7400  137.9400 C   0  0  0  0  0  2  0  0  0  0  0  0
  180.6990  175.6210  137.0130 C   0  0  0  0  0  2  0  0  0  0  0  0
  181.1540  172.0380  135.6490 C   0  0  0  0  0  0  0  0  0  0  0  0
  181.8500  172.1230  134.5990 O   0  0  0  0  0  0  0  0  0  0  0  0
  180.4220  170.8840  135.9010 O   0  0  0  0  0  1  0  0  0  0  0  0
  1 37  1  6  0  0  0
  1 24  1  0  0  0  0
  3  2  1  1  0  0  0
  3  1  1  0  0  0  0
  4  6  1  6  0  0  0
  4  5  1  0  0  0  0
  4  3  1  0  0  0  0
  5  3  1  0  0  0  0
  8  7  1  0  0  0  0
  8 14  1  0  0  0  0
  8 13  1  0  0  0  0
  9 11  1  6  0  0  0
 10 15  2  0  0  0  0
 12  6  1  1  0  0  0
 12 11  1  0  0  0  0
 14 13  1  1  0  0  0
 14  9  1  0  0  0  0
 15 14  1  0  0  0  0
 15 12  1  0  0  0  0
 16 17  1  0  0  0  0
 16 19  1  0  0  0  0
 18 21  1  1  0  0  0
 18  9  1  0  0  0  0
 18 19  1  0  0  0  0
 20 16  2  0  0  0  0
 22 20  1  0  0  0  0
 22 21  1  0  0  0  0
 23 25  1  0  0  0  0
 24 23  1  0  0  0  0
 24 25  1  0  0  0  0
 25 26  1  6  0  0  0
 26 27  1  0  0  0  0
 28 27  1  1  0  0  0
 28 30  1  0  0  0  0
 28 29  1  0  0  0  0
 29 32  1  1  0  0  0
 30 29  1  0  0  0  0
 32 31  1  1  0  0  0
 32 33  1  0  0  0  0
 33 34  1  0  0  0  0
 34 35  1  0  0  0  0
 36 38  1  0  0  0  0
 36 37  2  0  0  0  0
 39 45  2  0  0  0  0
 39 40  1  0  0  0  0
 40 43  1  0  0  0  0
 40 46  1  1  0  0  0
 41 42  1  0  0  0  0
 43 41  2  0  0  0  0
 44 42  2  0  0  0  0
 44 38  1  0  0  0  0
 45 44  1  0  0  0  0
 46 50  2  0  0  0  0
 46 48  1  0  0  0  0
 48 47  1  0  0  0  0
 49 47  2  0  0  0  0
 50 49  1  0  0  0  0
 51 43  1  0  0  0  0
 52 55  1  0  0  0  0
 52 51  1  1  0  0  0
 53 56  1  1  0  0  0
 53 54  1  0  0  0  0
 53 58  1  0  0  0  0
 54 59  1  6  0  0  0
 54 57  1  0  0  0  0
 57 55  1  0  0  0  0
 58 52  1  0  0  0  0
 59 61  1  0  0  0  0
 60 59  2  0  0  0  0
M  END
>  <MODEL>
3

>  <REMARK>
 VINA RESULT:      -8.4      3.854      8.691
  Name = 
  18 active torsions:
  status: ('A' for Active; 'I' for Inactive)
    1  A    between atoms: C_1  and  C_6
    2  A    between atoms: C_1  and  C_45
    3  A    between atoms: C_7  and  C_23
    4  A    between atoms: C_8  and  C_19
    5  A    between atoms: C_8  and  C_42
    6  A    between atoms: C_10  and  C_20
    7  A    between atoms: C_11  and  C_12
    8  A    between atoms: C_14  and  C_15
    9  A    between atoms: C_23  and  C_43
   10  A    between atoms: C_24  and  C_51
   11  A    between atoms: C_25  and  C_32
   12  A    between atoms: N_30  and  C_32
   13  A    between atoms: C_32  and  C_33
   14  A    between atoms: C_41  and  C_59
   15  A    between atoms: C_42  and  C_46
   16  A    between atoms: C_51  and  C_52
   17  A    between atoms: C_52  and  C_54
   18  A    between atoms: C_53  and  C_59
                            x       y       z     vdW  Elec       q    Type
                         _______ _______ _______ _____ _____    ______ ____

>  <TORSDO>
F 18

$$$$
=
 OpenBabel11042413163D

 61 69  0  0  1  0  0  0  0  0999 V2000
  183.9370  177.8430  138.3210 C   0  0  1  0  0  3  0  0  0  0  0  0
  182.3630  176.8470  140.2130 C   0  0  0  0  0  1  0  0  0  0  0  0
  183.4590  177.8180  139.7790 C   0  0  1  0  0  0  0  0  0  0  0  0
  184.3840  178.4270  140.7720 C   0  0  1  0  0  3  0  0  0  0  0  0
  183.2440  179.1090  140.2930 O   0  0  0  0  0  0  0  0  0  0  0  0
  184.1410  177.9640  142.2050 C   0  0  0  0  0  2  0  0  0  0  0  0
  189.9230  177.6400  143.1290 C   0  0  0  0  0  1  0  0  0  0  0  0
  188.9430  178.3160  142.2880 N   0  0  0  0  0  0  0  0  0  0  0  0
  187.1000  177.2880  143.9720 C   0  0  1  0  0  3  0  0  0  0  0  0
  186.4810  179.8100  141.5450 O   0  0  0  0  0  0  0  0  0  0  0  0
  185.6730  177.3630  143.9620 O   0  0  0  0  0  0  0  0  0  0  0  0
  185.2600  178.4410  143.1180 C   0  0  1  0  0  3  0  0  0  0  0  0
  188.0890  177.2520  141.7220 C   0  0  0  0  0  2  0  0  0  0  0  0
  187.5660  178.0970  142.7870 C   0  0  2  0  0  0  0  0  0  0  0  0
  186.4430  178.8810  142.3370 C   0  0  0  0  0  0  0  0  0  0  0  0
  189.3870  177.3660  147.0910 C   0  0  0  0  0  0  0  0  0  0  0  0
  190.5640  176.8390  147.5080 F   0  0  0  0  0  0  0  0  0  0  0  0
  187.6840  177.8520  145.2780 C   0  0  2  0  0  3  0  0  0  0  0  0
  188.8650  176.9840  145.7240 C   0  0  0  0  0  2  0  0  0  0  0  0
  188.6470  178.0650  147.9670 C   0  0  0  0  0  3  0  0  0  0  0  0
  186.6760  177.9580  146.4230 C   0  0  0  0  0  2  0  0  0  0  0  0
  187.3280  178.6890  147.5930 C   0  0  0  0  0  2  0  0  0  0  0  0
  181.6540  177.9720  137.6550 C   0  0  0  0  0  2  0  0  0  0  0  0
  182.9910  178.5600  137.4550 N   0  0  0  0  0  0  0  0  0  0  0  0
  182.3650  177.6980  136.4120 C   0  0  1  0  0  3  0  0  0  0  0  0
  182.8270  176.2390  136.3980 C   0  0  0  0  0  2  0  0  0  0  0  0
  181.6340  175.3230  136.2120 C   0  0  0  0  0  2  0  0  0  0  0  0
  181.7680  174.5870  134.8860 C   0  0  2  0  0  3  0  0  0  0  0  0
  182.0500  173.0780  134.9800 C   0  0  1  0  0  3  0  0  0  0  0  0
  183.1850  174.0680  134.7500 C   0  0  0  0  0  2  0  0  0  0  0  0
  183.2650  171.9210  136.7420 O   0  0  0  0  0  1  0  0  0  0  0  0
  182.0150  172.4410  136.3930 C   0  0  2  0  0  3  0  0  0  0  0  0
  180.9060  171.4130  136.6440 C   0  0  0  0  0  2  0  0  0  0  0  0
  179.5330  172.0260  136.4010 C   0  0  0  0  0  2  0  0  0  0  0  0
  178.9350  172.3510  137.6150 O   0  0  0  0  0  1  0  0  0  0  0  0
  186.1470  178.0600  137.1980 C   0  0  0  0  0  3  0  0  0  0  0  0
  185.3180  178.4220  138.1810 C   0  0  0  0  0  3  0  0  0  0  0  0
  187.5170  178.6540  137.0690 C   0  0  0  0  0  2  0  0  0  0  0  0
  189.6760  176.2970  135.0310 C   0  0  0  0  0  3  0  0  0  0  0  0
  189.8620  175.0250  135.7980 C   0  0  1  0  0  3  0  0  0  0  0  0
  190.1280  176.0210  138.0720 C   0  0  0  0  0  3  0  0  0  0  0  0
  189.0560  177.0240  137.9700 C   0  0  0  0  0  3  0  0  0  0  0  0
  190.5530  175.1900  137.1170 C   0  0  0  0  0  0  0  0  0  0  0  0
  188.5640  177.6040  136.8660 C   0  0  0  0  0  0  0  0  0  0  0  0
  189.0800  177.3950  135.4970 C   0  0  0  0  0  3  0  0  0  0  0  0
  188.6160  174.1960  135.8880 C   0  0  0  0  0  0  0  0  0  0  0  0
  186.5390  173.3230  135.6790 N   0  0  0  0  0  0  0  0  0  0  0  0
  187.3430  174.4080  135.1420 C   0  0  0  0  0  3  0  0  0  0  0  0
  187.2180  172.6710  136.5320 N   0  0  0  0  0  0  0  0  0  0  0  0
  188.5040  173.1910  136.6860 N   0  0  0  0  0  2  0  0  0  0  0  0
  191.6460  174.2220  137.4470 C   0  0  0  0  0  2  0  0  0  0  0  0
  192.9740  174.5320  136.7510 C   0  0  1  0  0  3  0  0  0  0  0  0
  195.5120  174.2140  137.0350 C   0  0  1  0  0  3  0  0  0  0  0  0
  195.5480  175.1530  135.8210 C   0  0  1  0  0  3  0  0  0  0  0  0
  193.3500  176.0140  136.8340 C   0  0  0  0  0  2  0  0  0  0  0  0
  195.8850  174.8880  138.1880 F   0  0  0  0  0  0  0  0  0  0  0  0
  194.5640  176.3290  135.9420 C   0  0  0  0  0  2  0  0  0  0  0  0
  194.1140  173.6110  137.2230 C   0  0  0  0  0  2  0  0  0  0  0  0
  196.9330  175.6290  135.5240 C   0  0  0  0  0  0  0  0  0  0  0  0
  197.2280  176.8530  135.6260 O   0  0  0  0  0  1  0  0  0  0  0  0
  197.9100  174.7110  135.1580 O   0  0  0  0  0  0  0  0  0  0  0  0
  1 37  1  1  0  0  0
  1  3  1  0  0  0  0
  3  2  1  1  0  0  0
  3  5  1  0  0  0  0
  3  4  1  0  0  0  0
  4  6  1  1  0  0  0
  5  4  1  0  0  0  0
  8 14  1  0  0  0  0
  8  7  1  0  0  0  0
  9 11  1  1  0  0  0
  9 18  1  0  0  0  0
 10 15  2  0  0  0  0
 12  6  1  6  0  0  0
 12 11  1  0  0  0  0
 13  8  1  0  0  0  0
 14 13  1  6  0  0  0
 14  9  1  0  0  0  0
 15 14  1  0  0  0  0
 15 12  1  0  0  0  0
 16 17  1  0  0  0  0
 16 20  2  0  0  0  0
 18 19  1  1  0  0  0
 18 21  1  0  0  0  0
 19 16  1  0  0  0  0
 21 22  1  0  0  0  0
 22 20  1  0  0  0  0
 24 23  1  0  0  0  0
 24  1  1  0  0  0  0
 25 26  1  1  0  0  0
 25 24  1  0  0  0  0
 25 23  1  0  0  0  0
 27 26  1  0  0  0  0
 28 29  1  0  0  0  0
 28 27  1  1  0  0  0
 29 32  1  1  0  0  0
 30 28  1  0  0  0  0
 30 29  1  0  0  0  0
 32 33  1  0  0  0  0
 32 31  1  6  0  0  0
 34 33  1  0  0  0  0
 34 35  1  0  0  0  0
 36 37  2  0  0  0  0
 38 36  1  0  0  0  0
 39 45  2  0  0  0  0
 39 40  1  0  0  0  0
 40 46  1  1  0  0  0
 40 43  1  0  0  0  0
 42 41  1  0  0  0  0
 43 51  1  0  0  0  0
 43 41  2  0  0  0  0
 44 38  1  0  0  0  0
 44 42  2  0  0  0  0
 45 44  1  0  0  0  0
 46 50  1  0  0  0  0
 47 49  2  0  0  0  0
 48 47  1  0  0  0  0
 48 46  2  0  0  0  0
 49 50  1  0  0  0  0
 52 55  1  0  0  0  0
 52 58  1  0  0  0  0
 52 51  1  1  0  0  0
 53 58  1  0  0  0  0
 53 56  1  1  0  0  0
 54 59  1  1  0  0  0
 54 57  1  0  0  0  0
 54 53  1  0  0  0  0
 57 55  1  0  0  0  0
 59 60  1  0  0  0  0
 61 59  2  0  0  0  0
M  END
>  <MODEL>
4

>  <REMARK>
 VINA RESULT:      -7.0      3.179     10.894
  Name = 
  18 active torsions:
  status: ('A' for Active; 'I' for Inactive)
    1  A    between atoms: C_1  and  C_6
    2  A    between atoms: C_1  and  C_45
    3  A    between atoms: C_7  and  C_23
    4  A    between atoms: C_8  and  C_19
    5  A    between atoms: C_8  and  C_42
    6  A    between atoms: C_10  and  C_20
    7  A    between atoms: C_11  and  C_12
    8  A    between atoms: C_14  and  C_15
    9  A    between atoms: C_23  and  C_43
   10  A    between atoms: C_24  and  C_51
   11  A    between atoms: C_25  and  C_32
   12  A    between atoms: N_30  and  C_32
   13  A    between atoms: C_32  and  C_33
   14  A    between atoms: C_41  and  C_59
   15  A    between atoms: C_42  and  C_46
   16  A    between atoms: C_51  and  C_52
   17  A    between atoms: C_52  and  C_54
   18  A    between atoms: C_53  and  C_59
                            x       y       z     vdW  Elec       q    Type
                         _______ _______ _______ _____ _____    ______ ____

>  <TORSDO>
F 18

$$$$
=
 OpenBabel11042413163D

 61 69  0  0  1  0  0  0  0  0999 V2000
  183.1650  177.1070  138.8840 C   0  0  1  0  0  3  0  0  0  0  0  0
  181.4910  178.5210  140.3840 C   0  0  0  0  0  1  0  0  0  0  0  0
  182.9090  178.0470  140.0700 C   0  0  1  0  0  0  0  0  0  0  0  0
  183.9800  178.0940  141.1000 C   0  0  1  0  0  3  0  0  0  0  0  0
  183.8350  179.1040  140.1240 O   0  0  0  0  0  0  0  0  0  0  0  0
  183.5120  178.6170  142.4530 C   0  0  0  0  0  2  0  0  0  0  0  0
  189.2140  177.5360  143.2930 C   0  0  0  0  0  1  0  0  0  0  0  0
  188.3180  178.3200  142.4520 N   0  0  0  0  0  0  0  0  0  0  0  0
  186.3860  177.5880  144.1890 C   0  0  1  0  0  3  0  0  0  0  0  0
  186.0660  180.1160  141.7120 O   0  0  0  0  0  0  0  0  0  0  0  0
  184.9810  177.8530  144.2000 O   0  0  0  0  0  0  0  0  0  0  0  0
  184.7020  178.9580  143.3370 C   0  0  1  0  0  3  0  0  0  0  0  0
  187.3180  177.3680  141.9250 C   0  0  0  0  0  2  0  0  0  0  0  0
  186.9340  178.2990  142.9780 C   0  0  2  0  0  0  0  0  0  0  0  0
  185.9180  179.2180  142.5260 C   0  0  0  0  0  0  0  0  0  0  0  0
  188.6890  177.4090  147.2920 C   0  0  0  0  0  0  0  0  0  0  0  0
  189.7720  176.7170  147.7220 F   0  0  0  0  0  0  0  0  0  0  0  0
  187.0650  178.0960  145.4720 C   0  0  2  0  0  3  0  0  0  0  0  0
  188.0990  177.0680  145.9430 C   0  0  0  0  0  2  0  0  0  0  0  0
  188.0780  178.2460  148.1470 C   0  0  0  0  0  3  0  0  0  0  0  0
  186.0980  178.3990  146.6170 C   0  0  0  0  0  2  0  0  0  0  0  0
  186.8700  179.0580  147.7570 C   0  0  0  0  0  2  0  0  0  0  0  0
  181.3270  175.6240  139.1930 C   0  0  0  0  0  2  0  0  0  0  0  0
  181.9080  176.6330  138.2890 N   0  0  0  0  0  0  0  0  0  0  0  0
  181.9220  175.1840  137.9370 C   0  0  1  0  0  3  0  0  0  0  0  0
  183.2350  174.4500  138.2220 C   0  0  0  0  0  2  0  0  0  0  0  0
  183.4110  173.3110  137.2380 C   0  0  0  0  0  2  0  0  0  0  0  0
  183.2070  173.8350  135.8220 C   0  0  2  0  0  3  0  0  0  0  0  0
  182.5730  172.8500  134.8260 C   0  0  1  0  0  3  0  0  0  0  0  0
  184.0820  173.0430  134.8720 C   0  0  0  0  0  2  0  0  0  0  0  0
  182.9000  170.4460  135.0000 O   0  0  0  0  0  1  0  0  0  0  0  0
  182.0690  171.4990  135.3950 C   0  0  2  0  0  3  0  0  0  0  0  0
  180.5970  171.1600  135.1320 C   0  0  0  0  0  2  0  0  0  0  0  0
  179.8150  171.0890  136.4370 C   0  0  0  0  0  2  0  0  0  0  0  0
  180.1400  172.1730  137.2470 O   0  0  0  0  0  1  0  0  0  0  0  0
  185.1450  177.1440  137.3770 C   0  0  0  0  0  3  0  0  0  0  0  0
  184.0380  177.7360  137.8330 C   0  0  0  0  0  3  0  0  0  0  0  0
  185.9990  177.7810  136.3230 C   0  0  0  0  0  2  0  0  0  0  0  0
  188.3820  174.8660  136.7570 C   0  0  0  0  0  3  0  0  0  0  0  0
  189.7870  175.3810  136.7360 C   0  0  1  0  0  3  0  0  0  0  0  0
  189.5110  177.0840  134.9310 C   0  0  0  0  0  3  0  0  0  0  0  0
  188.2140  177.6230  135.3720 C   0  0  0  0  0  3  0  0  0  0  0  0
  190.1820  176.0580  135.4590 C   0  0  0  0  0  0  0  0  0  0  0  0
  187.2570  177.0090  136.0820 C   0  0  0  0  0  0  0  0  0  0  0  0
  187.2930  175.5930  136.5060 C   0  0  0  0  0  3  0  0  0  0  0  0
  190.1490  176.1740  137.9570 C   0  0  0  0  0  0  0  0  0  0  0  0
  190.7600  177.7760  139.4330 N   0  0  0  0  0  0  0  0  0  0  0  0
  190.4760  177.6280  138.0160 C   0  0  0  0  0  3  0  0  0  0  0  0
  190.6290  176.6540  140.0150 N   0  0  0  0  0  0  0  0  0  0  0  0
  190.2560  175.6450  139.1260 N   0  0  0  0  0  2  0  0  0  0  0  0
  191.5080  175.6930  134.8690 C   0  0  0  0  0  2  0  0  0  0  0  0
  192.4530  175.0030  135.8570 C   0  0  1  0  0  3  0  0  0  0  0  0
  194.8050  175.2270  136.8770 C   0  0  1  0  0  3  0  0  0  0  0  0
  194.4610  173.8390  137.4340 C   0  0  1  0  0  3  0  0  0  0  0  0
  193.0320  173.6980  135.3040 C   0  0  0  0  0  2  0  0  0  0  0  0
  195.7160  175.1260  135.8360 F   0  0  0  0  0  0  0  0  0  0  0  0
  193.7930  172.9230  136.3950 C   0  0  0  0  0  2  0  0  0  0  0  0
  193.5440  175.9510  136.3860 C   0  0  0  0  0  2  0  0  0  0  0  0
  195.6460  173.1790  138.0610 C   0  0  0  0  0  0  0  0  0  0  0  0
  196.1510  172.1420  137.5460 O   0  0  0  0  0  0  0  0  0  0  0  0
  196.2120  173.7290  139.2040 O   0  0  0  0  0  1  0  0  0  0  0  0
  1 37  1  6  0  0  0
  1  3  1  0  0  0  0
  3  5  1  0  0  0  0
  3  2  1  1  0  0  0
  3  4  1  0  0  0  0
  4  6  1  1  0  0  0
  5  4  1  0  0  0  0
  8 14  1  0  0  0  0
  8  7  1  0  0  0  0
  9 11  1  1  0  0  0
  9 18  1  0  0  0  0
 10 15  2  0  0  0  0
 12  6  1  6  0  0  0
 12 11  1  0  0  0  0
 13  8  1  0  0  0  0
 14 13  1  6  0  0  0
 14  9  1  0  0  0  0
 15 14  1  0  0  0  0
 15 12  1  0  0  0  0
 16 17  1  0  0  0  0
 16 20  2  0  0  0  0
 18 19  1  1  0  0  0
 18 21  1  0  0  0  0
 19 16  1  0  0  0  0
 21 22  1  0  0  0  0
 22 20  1  0  0  0  0
 24  1  1  0  0  0  0
 24 23  1  0  0  0  0
 25 26  1  1  0  0  0
 25 24  1  0  0  0  0
 25 23  1  0  0  0  0
 27 26  1  0  0  0  0
 28 27  1  1  0  0  0
 29 30  1  0  0  0  0
 29 32  1  1  0  0  0
 29 28  1  0  0  0  0
 30 28  1  0  0  0  0
 32 31  1  6  0  0  0
 33 32  1  0  0  0  0
 33 34  1  0  0  0  0
 34 35  1  0  0  0  0
 36 37  2  0  0  0  0
 38 36  1  0  0  0  0
 40 39  1  0  0  0  0
 40 46  1  1  0  0  0
 41 42  1  0  0  0  0
 41 43  2  0  0  0  0
 42 44  2  0  0  0  0
 43 40  1  0  0  0  0
 44 38  1  0  0  0  0
 44 45  1  0  0  0  0
 45 39  2  0  0  0  0
 46 48  2  0  0  0  0
 46 50  1  0  0  0  0
 47 49  2  0  0  0  0
 48 47  1  0  0  0  0
 50 49  1  0  0  0  0
 51 43  1  0  0  0  0
 52 51  1  6  0  0  0
 52 58  1  0  0  0  0
 53 56  1  6  0  0  0
 53 54  1  0  0  0  0
 54 59  1  6  0  0  0
 55 52  1  0  0  0  0
 55 57  1  0  0  0  0
 57 54  1  0  0  0  0
 58 53  1  0  0  0  0
 59 61  1  0  0  0  0
 60 59  2  0  0  0  0
M  END
>  <MODEL>
5

>  <REMARK>
 VINA RESULT:      -7.0      2.971     10.599
  Name = 
  18 active torsions:
  status: ('A' for Active; 'I' for Inactive)
    1  A    between atoms: C_1  and  C_6
    2  A    between atoms: C_1  and  C_45
    3  A    between atoms: C_7  and  C_23
    4  A    between atoms: C_8  and  C_19
    5  A    between atoms: C_8  and  C_42
    6  A    between atoms: C_10  and  C_20
    7  A    between atoms: C_11  and  C_12
    8  A    between atoms: C_14  and  C_15
    9  A    between atoms: C_23  and  C_43
   10  A    between atoms: C_24  and  C_51
   11  A    between atoms: C_25  and  C_32
   12  A    between atoms: N_30  and  C_32
   13  A    between atoms: C_32  and  C_33
   14  A    between atoms: C_41  and  C_59
   15  A    between atoms: C_42  and  C_46
   16  A    between atoms: C_51  and  C_52
   17  A    between atoms: C_52  and  C_54
   18  A    between atoms: C_53  and  C_59
                            x       y       z     vdW  Elec       q    Type
                         _______ _______ _______ _____ _____    ______ ____

>  <TORSDO>
F 18

$$$$
=
 OpenBabel11042413163D

 61 69  0  0  1  0  0  0  0  0999 V2000
  185.9900  178.4880  142.4910 C   0  0  1  0  0  3  0  0  0  0  0  0
  184.6850  180.2080  144.0370 C   0  0  0  0  0  1  0  0  0  0  0  0
  184.6980  178.9400  143.1850 C   0  0  1  0  0  0  0  0  0  0  0  0
  183.4380  178.3670  142.6410 C   0  0  1  0  0  3  0  0  0  0  0  0
  184.0340  177.8770  143.8230 O   0  0  0  0  0  0  0  0  0  0  0  0
  182.1930  179.1750  142.9900 C   0  0  0  0  0  2  0  0  0  0  0  0
  180.0750  176.4790  138.2330 C   0  0  0  0  0  1  0  0  0  0  0  0
  179.8460  176.5990  139.6670 N   0  0  0  0  0  0  0  0  0  0  0  0
  181.6200  178.6320  139.5680 C   0  0  1  0  0  3  0  0  0  0  0  0
  179.5060  177.8860  142.3260 O   0  0  0  0  0  0  0  0  0  0  0  0
  182.1560  179.4620  140.6010 O   0  0  0  0  0  0  0  0  0  0  0  0
  181.3220  179.3760  141.7590 C   0  0  1  0  0  3  0  0  0  0  0  0
  181.1490  176.3360  140.3110 C   0  0  0  0  0  2  0  0  0  0  0  0
  180.6460  177.7020  140.2470 C   0  0  2  0  0  0  0  0  0  0  0  0
  180.3940  178.2340  141.5640 C   0  0  0  0  0  0  0  0  0  0  0  0
  181.0320  180.0870  136.0320 C   0  0  0  0  0  0  0  0  0  0  0  0
  181.3390  179.7970  134.7450 F   0  0  0  0  0  0  0  0  0  0  0  0
  180.9120  179.4650  138.4860 C   0  0  2  0  0  3  0  0  0  0  0  0
  181.5530  179.1800  137.1240 C   0  0  0  0  0  2  0  0  0  0  0  0
  180.4280  181.2550  136.3040 C   0  0  0  0  0  3  0  0  0  0  0  0
  180.9240  180.9720  138.7440 C   0  0  0  0  0  2  0  0  0  0  0  0
  180.0460  181.6610  137.7040 C   0  0  0  0  0  2  0  0  0  0  0  0
  186.7940  177.2350  144.3500 C   0  0  0  0  0  2  0  0  0  0  0  0
  186.4000  177.1470  142.9330 N   0  0  0  0  0  0  0  0  0  0  0  0
  187.8310  177.0640  143.3400 C   0  0  1  0  0  3  0  0  0  0  0  0
  188.6320  178.3620  143.2030 C   0  0  0  0  0  2  0  0  0  0  0  0
  189.7370  178.3950  144.2390 C   0  0  0  0  0  2  0  0  0  0  0  0
  190.3540  177.0080  144.3590 C   0  0  2  0  0  3  0  0  0  0  0  0
  190.4900  176.4540  145.7870 C   0  0  1  0  0  3  0  0  0  0  0  0
  191.6740  177.1170  145.0960 C   0  0  0  0  0  2  0  0  0  0  0  0
  190.7700  177.5190  147.9560 O   0  0  0  0  0  1  0  0  0  0  0  0
  189.8500  177.2840  146.9290 C   0  0  2  0  0  3  0  0  0  0  0  0
  188.5260  176.7550  147.4920 C   0  0  0  0  0  2  0  0  0  0  0  0
  187.9400  177.7290  148.5060 C   0  0  0  0  0  2  0  0  0  0  0  0
  187.4260  178.8450  147.8530 O   0  0  0  0  0  1  0  0  0  0  0  0
  186.9560  178.5810  140.1990 C   0  0  0  0  0  3  0  0  0  0  0  0
  185.8810  178.5350  140.9910 C   0  0  0  0  0  3  0  0  0  0  0  0
  186.8290  178.6190  138.7060 C   0  0  0  0  0  2  0  0  0  0  0  0
  188.8890  175.5000  138.0810 C   0  0  0  0  0  3  0  0  0  0  0  0
  190.2950  175.9030  137.7630 C   0  0  1  0  0  3  0  0  0  0  0  0
  189.7790  177.8990  136.3540 C   0  0  0  0  0  3  0  0  0  0  0  0
  188.7040  178.4540  137.1920 C   0  0  0  0  0  3  0  0  0  0  0  0
  190.4360  176.7510  136.5350 C   0  0  0  0  0  0  0  0  0  0  0  0
  187.8890  177.8050  138.0350 C   0  0  0  0  0  0  0  0  0  0  0  0
  187.8640  176.3390  138.2300 C   0  0  0  0  0  3  0  0  0  0  0  0
  191.0390  176.4520  138.9440 C   0  0  0  0  0  0  0  0  0  0  0  0
  191.6630  177.2760  140.9560 N   0  0  0  0  0  0  0  0  0  0  0  0
  190.4790  176.7600  140.2910 C   0  0  0  0  0  2  0  0  0  0  0  0
  192.6450  177.2630  140.1510 N   0  0  0  0  0  0  0  0  0  0  0  0
  192.2880  176.7630  138.8980 N   0  0  0  0  0  0  0  0  0  0  0  0
  191.5220  176.3900  135.5710 C   0  0  0  0  0  2  0  0  0  0  0  0
  192.2570  175.0950  135.9290 C   0  0  1  0  0  3  0  0  0  0  0  0
  194.6100  174.0510  135.9150 C   0  0  1  0  0  3  0  0  0  0  0  0
  193.8170  172.7890  136.2810 C   0  0  1  0  0  3  0  0  0  0  0  0
  191.9630  173.9600  134.9430 C   0  0  0  0  0  2  0  0  0  0  0  0
  195.0290  174.0000  134.5940 F   0  0  0  0  0  0  0  0  0  0  0  0
  192.5330  172.6230  135.4510 C   0  0  0  0  0  2  0  0  0  0  0  0
  193.7670  175.3140  136.1370 C   0  0  0  0  0  2  0  0  0  0  0  0
  194.6660  171.5600  136.2230 C   0  0  0  0  0  0  0  0  0  0  0  0
  195.9220  171.6420  136.3160 O   0  0  0  0  0  1  0  0  0  0  0  0
  194.0620  170.3150  136.0950 O   0  0  0  0  0  0  0  0  0  0  0  0
  1 37  1  6  0  0  0
  1 24  1  0  0  0  0
  1  3  1  0  0  0  0
  3  5  1  0  0  0  0
  3  2  1  1  0  0  0
  4  6  1  1  0  0  0
  4  3  1  0  0  0  0
  4  5  1  0  0  0  0
  7  8  1  0  0  0  0
  8 14  1  0  0  0  0
  8 13  1  0  0  0  0
  9 14  1  0  0  0  0
  9 11  1  1  0  0  0
 11 12  1  0  0  0  0
 12  6  1  1  0  0  0
 14 13  1  1  0  0  0
 14 15  1  0  0  0  0
 15 12  1  0  0  0  0
 15 10  2  0  0  0  0
 16 20  2  0  0  0  0
 16 19  1  0  0  0  0
 17 16  1  0  0  0  0
 18 19  1  6  0  0  0
 18 21  1  0  0  0  0
 18  9  1  0  0  0  0
 20 22  1  0  0  0  0
 22 21  1  0  0  0  0
 24 25  1  0  0  0  0
 24 23  1  0  0  0  0
 25 26  1  6  0  0  0
 25 23  1  0  0  0  0
 26 27  1  0  0  0  0
 28 27  1  1  0  0  0
 28 30  1  0  0  0  0
 28 29  1  0  0  0  0
 29 32  1  1  0  0  0
 30 29  1  0  0  0  0
 32 33  1  0  0  0  0
 32 31  1  1  0  0  0
 33 34  1  0  0  0  0
 35 34  1  0  0  0  0
 36 37  2  0  0  0  0
 38 36  1  0  0  0  0
 39 45  2  0  0  0  0
 40 39  1  0  0  0  0
 40 46  1  1  0  0  0
 41 43  2  0  0  0  0
 41 42  1  0  0  0  0
 42 44  2  0  0  0  0
 43 40  1  0  0  0  0
 44 45  1  0  0  0  0
 44 38  1  0  0  0  0
 46 48  1  0  0  0  0
 48 47  1  0  0  0  0
 49 47  2  0  0  0  0
 50 46  2  0  0  0  0
 50 49  1  0  0  0  0
 51 43  1  0  0  0  0
 52 51  1  6  0  0  0
 52 58  1  0  0  0  0
 53 56  1  6  0  0  0
 53 58  1  0  0  0  0
 53 54  1  0  0  0  0
 54 59  1  6  0  0  0
 55 57  1  0  0  0  0
 55 52  1  0  0  0  0
 57 54  1  0  0  0  0
 59 60  1  0  0  0  0
 61 59  2  0  0  0  0
M  END
>  <MODEL>
6

>  <REMARK>
 VINA RESULT:      -6.5      3.546      9.448
  Name = 
  18 active torsions:
  status: ('A' for Active; 'I' for Inactive)
    1  A    between atoms: C_1  and  C_6
    2  A    between atoms: C_1  and  C_45
    3  A    between atoms: C_7  and  C_23
    4  A    between atoms: C_8  and  C_19
    5  A    between atoms: C_8  and  C_42
    6  A    between atoms: C_10  and  C_20
    7  A    between atoms: C_11  and  C_12
    8  A    between atoms: C_14  and  C_15
    9  A    between atoms: C_23  and  C_43
   10  A    between atoms: C_24  and  C_51
   11  A    between atoms: C_25  and  C_32
   12  A    between atoms: N_30  and  C_32
   13  A    between atoms: C_32  and  C_33
   14  A    between atoms: C_41  and  C_59
   15  A    between atoms: C_42  and  C_46
   16  A    between atoms: C_51  and  C_52
   17  A    between atoms: C_52  and  C_54
   18  A    between atoms: C_53  and  C_59
                            x       y       z     vdW  Elec       q    Type
                         _______ _______ _______ _____ _____    ______ ____

>  <TORSDO>
F 18

$$$$
=
 OpenBabel11042413163D

 61 69  0  0  1  0  0  0  0  0999 V2000
  185.4490  178.5030  140.1330 C   0  0  1  0  0  3  0  0  0  0  0  0
  183.5550  178.3300  141.9850 C   0  0  0  0  0  1  0  0  0  0  0  0
  184.9810  178.7000  141.5810 C   0  0  1  0  0  0  0  0  0  0  0  0
  186.0590  178.8290  142.5970 C   0  0  1  0  0  3  0  0  0  0  0  0
  185.3610  179.9510  142.1000 O   0  0  0  0  0  0  0  0  0  0  0  0
  185.6020  178.5290  144.0210 C   0  0  0  0  0  2  0  0  0  0  0  0
  188.9050  178.0610  148.8430 C   0  0  0  0  0  1  0  0  0  0  0  0
  187.5350  177.8770  148.3830 N   0  0  0  0  0  0  0  0  0  0  0  0
  188.5490  178.1880  145.9010 C   0  0  1  0  0  3  0  0  0  0  0  0
  185.2810  177.0080  146.6480 O   0  0  0  0  0  0  0  0  0  0  0  0
  187.9120  178.2140  144.6210 O   0  0  0  0  0  0  0  0  0  0  0  0
  186.6090  177.6350  144.7290 C   0  0  1  0  0  3  0  0  0  0  0  0
  187.1640  179.1320  147.6980 C   0  0  0  0  0  2  0  0  0  0  0  0
  187.4520  177.9440  146.9060 C   0  0  2  0  0  0  0  0  0  0  0  0
  186.2910  177.5030  146.1730 C   0  0  0  0  0  0  0  0  0  0  0  0
  191.6950  176.3780  147.2400 C   0  0  0  0  0  0  0  0  0  0  0  0
  192.4420  176.3300  148.3690 F   0  0  0  0  0  0  0  0  0  0  0  0
  189.6130  177.0800  145.9770 C   0  0  2  0  0  3  0  0  0  0  0  0
  190.5160  177.3240  147.1900 C   0  0  0  0  0  2  0  0  0  0  0  0
  192.1270  175.7190  146.1520 C   0  0  0  0  0  3  0  0  0  0  0  0
  190.4770  176.9500  144.7220 C   0  0  0  0  0  2  0  0  0  0  0  0
  191.3620  175.7130  144.8540 C   0  0  0  0  0  2  0  0  0  0  0  0
  183.3460  179.3860  139.4470 C   0  0  0  0  0  2  0  0  0  0  0  0
  184.8010  179.4550  139.2200 N   0  0  0  0  0  0  0  0  0  0  0  0
  183.8960  178.8090  138.2270 C   0  0  1  0  0  3  0  0  0  0  0  0
  183.8180  177.2820  138.3020 C   0  0  0  0  0  2  0  0  0  0  0  0
  182.3730  176.8360  138.2060 C   0  0  0  0  0  2  0  0  0  0  0  0
  182.0020  176.0630  139.4640 C   0  0  2  0  0  3  0  0  0  0  0  0
  180.8600  175.0440  139.3150 C   0  0  1  0  0  3  0  0  0  0  0  0
  180.5910  176.4340  139.8740 C   0  0  0  0  0  2  0  0  0  0  0  0
  179.1170  175.4850  137.6760 O   0  0  0  0  0  1  0  0  0  0  0  0
  180.3180  174.7980  137.8830 C   0  0  2  0  0  3  0  0  0  0  0  0
  180.1910  173.3340  137.4500 C   0  0  0  0  0  2  0  0  0  0  0  0
  180.6070  173.1610  135.9950 C   0  0  0  0  0  2  0  0  0  0  0  0
  181.9580  172.8370  135.9200 O   0  0  0  0  0  1  0  0  0  0  0  0
  187.5800  178.2560  138.8710 C   0  0  0  0  0  3  0  0  0  0  0  0
  186.9450  178.5850  139.9990 C   0  0  0  0  0  3  0  0  0  0  0  0
  189.0710  178.3510  138.7530 C   0  0  0  0  0  2  0  0  0  0  0  0
  189.5500  176.3250  135.5860 C   0  0  0  0  0  3  0  0  0  0  0  0
  189.6830  174.8790  135.9510 C   0  0  1  0  0  3  0  0  0  0  0  0
  191.0760  175.1610  138.0050 C   0  0  0  0  0  3  0  0  0  0  0  0
  190.3540  176.3130  138.5700 C   0  0  0  0  0  3  0  0  0  0  0  0
  190.8550  174.5650  136.8300 C   0  0  0  0  0  0  0  0  0  0  0  0
  189.6370  177.2430  137.9230 C   0  0  0  0  0  0  0  0  0  0  0  0
  189.4970  177.3350  136.4540 C   0  0  0  0  0  3  0  0  0  0  0  0
  188.4030  174.2680  136.4390 C   0  0  0  0  0  0  0  0  0  0  0  0
  186.7820  172.8950  137.2170 N   0  0  0  0  0  0  0  0  0  0  0  0
  188.2080  172.8750  136.9350 C   0  0  0  0  0  2  0  0  0  0  0  0
  186.3050  174.0370  136.9310 N   0  0  0  0  0  0  0  0  0  0  0  0
  187.2840  174.9050  136.4430 N   0  0  0  0  0  0  0  0  0  0  0  0
  191.6940  173.3810  136.4620 C   0  0  0  0  0  2  0  0  0  0  0  0
  193.1680  173.7200  136.2270 C   0  0  1  0  0  3  0  0  0  0  0  0
  195.5150  173.2350  137.1660 C   0  0  1  0  0  3  0  0  0  0  0  0
  195.9050  174.3370  136.1710 C   0  0  1  0  0  3  0  0  0  0  0  0
  193.5150  175.1540  136.6390 C   0  0  0  0  0  2  0  0  0  0  0  0
  195.5450  173.7160  138.4660 F   0  0  0  0  0  0  0  0  0  0  0  0
  194.9370  175.5320  136.1870 C   0  0  0  0  0  2  0  0  0  0  0  0
  194.1170  172.6840  136.8550 C   0  0  0  0  0  2  0  0  0  0  0  0
  197.3210  174.7800  136.3550 C   0  0  0  0  0  0  0  0  0  0  0  0
  197.6270  176.0020  136.2760 O   0  0  0  0  0  0  0  0  0  0  0  0
  198.3010  173.8380  136.6420 O   0  0  0  0  0  1  0  0  0  0  0  0
  1 37  1  1  0  0  0
  1  3  1  0  0  0  0
  3  2  1  1  0  0  0
  3  5  1  0  0  0  0
  3  4  1  0  0  0  0
  4  6  1  1  0  0  0
  5  4  1  0  0  0  0
  8  7  1  0  0  0  0
  9 11  1  6  0  0  0
  9 18  1  0  0  0  0
  9 14  1  0  0  0  0
 11 12  1  0  0  0  0
 12  6  1  6  0  0  0
 12 15  1  0  0  0  0
 13  8  1  0  0  0  0
 14 13  1  1  0  0  0
 14  8  1  0  0  0  0
 15 10  2  0  0  0  0
 15 14  1  0  0  0  0
 16 17  1  0  0  0  0
 18 21  1  6  0  0  0
 18 19  1  0  0  0  0
 19 16  1  0  0  0  0
 20 16  2  0  0  0  0
 21 22  1  0  0  0  0
 22 20  1  0  0  0  0
 24 23  1  0  0  0  0
 24  1  1  0  0  0  0
 25 26  1  1  0  0  0
 25 24  1  0  0  0  0
 25 23  1  0  0  0  0
 27 26  1  0  0  0  0
 28 27  1  6  0  0  0
 28 30  1  0  0  0  0
 29 32  1  6  0  0  0
 29 28  1  0  0  0  0
 29 30  1  0  0  0  0
 32 31  1  1  0  0  0
 33 32  1  0  0  0  0
 34 33  1  0  0  0  0
 35 34  1  0  0  0  0
 36 37  2  0  0  0  0
 38 36  1  0  0  0  0
 39 40  1  0  0  0  0
 39 45  2  0  0  0  0
 40 46  1  1  0  0  0
 40 43  1  0  0  0  0
 41 42  1  0  0  0  0
 43 41  2  0  0  0  0
 44 42  2  0  0  0  0
 44 38  1  0  0  0  0
 45 44  1  0  0  0  0
 46 50  2  0  0  0  0
 46 48  1  0  0  0  0
 48 47  1  0  0  0  0
 49 47  2  0  0  0  0
 50 49  1  0  0  0  0
 51 43  1  0  0  0  0
 52 51  1  1  0  0  0
 52 55  1  0  0  0  0
 52 58  1  0  0  0  0
 53 56  1  1  0  0  0
 54 57  1  0  0  0  0
 54 59  1  1  0  0  0
 54 53  1  0  0  0  0
 57 55  1  0  0  0  0
 58 53  1  0  0  0  0
 59 61  1  0  0  0  0
 60 59  2  0  0  0  0
M  END
>  <MODEL>
7

>  <REMARK>
 VINA RESULT:      -6.5      3.280     11.399
  Name = 
  18 active torsions:
  status: ('A' for Active; 'I' for Inactive)
    1  A    between atoms: C_1  and  C_6
    2  A    between atoms: C_1  and  C_45
    3  A    between atoms: C_7  and  C_23
    4  A    between atoms: C_8  and  C_19
    5  A    between atoms: C_8  and  C_42
    6  A    between atoms: C_10  and  C_20
    7  A    between atoms: C_11  and  C_12
    8  A    between atoms: C_14  and  C_15
    9  A    between atoms: C_23  and  C_43
   10  A    between atoms: C_24  and  C_51
   11  A    between atoms: C_25  and  C_32
   12  A    between atoms: N_30  and  C_32
   13  A    between atoms: C_32  and  C_33
   14  A    between atoms: C_41  and  C_59
   15  A    between atoms: C_42  and  C_46
   16  A    between atoms: C_51  and  C_52
   17  A    between atoms: C_52  and  C_54
   18  A    between atoms: C_53  and  C_59
                            x       y       z     vdW  Elec       q    Type
                         _______ _______ _______ _____ _____    ______ ____

>  <TORSDO>
F 18

$$$$
=
 OpenBabel11042413163D

 61 69  0  0  1  0  0  0  0  0999 V2000
  190.1150  177.7660  137.8890 C   0  0  1  0  0  3  0  0  0  0  0  0
  189.4240  177.3090  135.3660 C   0  0  0  0  0  1  0  0  0  0  0  0
  190.2370  176.9360  136.6040 C   0  0  1  0  0  0  0  0  0  0  0  0
  191.4530  176.0870  136.4970 C   0  0  1  0  0  3  0  0  0  0  0  0
  190.1960  175.5520  136.8560 O   0  0  0  0  0  0  0  0  0  0  0  0
  191.7960  175.6790  135.0680 C   0  0  0  0  0  2  0  0  0  0  0  0
  196.3750  174.0470  138.3480 C   0  0  0  0  0  1  0  0  0  0  0  0
  195.0020  173.6640  138.0430 N   0  0  0  0  0  0  0  0  0  0  0  0
  195.1630  175.4750  136.0480 C   0  0  1  0  0  3  0  0  0  0  0  0
  192.5840  173.0580  136.4210 O   0  0  0  0  0  0  0  0  0  0  0  0
  194.1920  175.9100  135.0930 O   0  0  0  0  0  0  0  0  0  0  0  0
  193.1320  174.9530  135.0250 C   0  0  1  0  0  3  0  0  0  0  0  0
  194.1890  174.8820  138.2260 C   0  0  0  0  0  2  0  0  0  0  0  0
  194.4830  174.4150  136.8780 C   0  0  2  0  0  0  0  0  0  0  0  0
  193.2820  174.0300  136.1780 C   0  0  0  0  0  0  0  0  0  0  0  0
  197.6210  172.7340  134.8590 C   0  0  0  0  0  0  0  0  0  0  0  0
  197.6180  171.4060  134.5950 F   0  0  0  0  0  0  0  0  0  0  0  0
  196.4140  174.9070  135.3590 C   0  0  2  0  0  3  0  0  0  0  0  0
  196.3470  173.3760  135.3630 C   0  0  0  0  0  2  0  0  0  0  0  0
  198.7900  173.3960  134.8330 C   0  0  0  0  0  3  0  0  0  0  0  0
  197.7360  175.3550  135.9850 C   0  0  0  0  0  2  0  0  0  0  0  0
  198.8890  174.8730  135.1100 C   0  0  0  0  0  2  0  0  0  0  0  0
  188.2290  178.4460  139.1750 C   0  0  0  0  0  2  0  0  0  0  0  0
  188.9090  178.6060  137.8770 N   0  0  0  0  0  0  0  0  0  0  0  0
  187.6400  177.8320  137.9910 C   0  0  1  0  0  3  0  0  0  0  0  0
  187.8000  176.3120  138.0700 C   0  0  0  0  0  2  0  0  0  0  0  0
  186.7410  175.6390  137.2210 C   0  0  0  0  0  2  0  0  0  0  0  0
  185.8780  176.7040  136.5580 C   0  0  2  0  0  3  0  0  0  0  0  0
  184.3770  176.3840  136.4520 C   0  0  1  0  0  3  0  0  0  0  0  0
  185.3080  176.1460  135.2690 C   0  0  0  0  0  2  0  0  0  0  0  0
  183.8630  174.0120  136.2790 O   0  0  0  0  0  1  0  0  0  0  0  0
  183.8800  175.0980  137.1600 C   0  0  2  0  0  3  0  0  0  0  0  0
  182.5490  175.2110  137.9120 C   0  0  0  0  0  2  0  0  0  0  0  0
  182.7210  175.9960  139.2050 C   0  0  0  0  0  2  0  0  0  0  0  0
  181.5120  176.0580  139.8910 O   0  0  0  0  0  1  0  0  0  0  0  0
  191.0130  177.1290  140.1210 C   0  0  0  0  0  3  0  0  0  0  0  0
  190.1470  176.9120  139.1270 C   0  0  0  0  0  3  0  0  0  0  0  0
  191.0250  176.2730  141.3520 C   0  0  0  0  0  2  0  0  0  0  0  0
  190.3290  178.7880  144.1010 C   0  0  0  0  0  3  0  0  0  0  0  0
  189.6480  178.0890  145.2360 C   0  0  1  0  0  3  0  0  0  0  0  0
  188.1610  176.5990  143.8920 C   0  0  0  0  0  3  0  0  0  0  0  0
  189.1500  176.2070  142.8750 C   0  0  0  0  0  3  0  0  0  0  0  0
  188.3260  177.4750  144.8850 C   0  0  0  0  0  0  0  0  0  0  0  0
  190.2320  176.8840  142.4640 C   0  0  0  0  0  0  0  0  0  0  0  0
  190.6060  178.2400  142.9180 C   0  0  0  0  0  3  0  0  0  0  0  0
  190.5480  177.1520  145.9860 C   0  0  0  0  0  0  0  0  0  0  0  0
  191.5400  175.8140  147.5170 N   0  0  0  0  0  0  0  0  0  0  0  0
  190.3350  176.6110  147.3590 C   0  0  0  0  0  2  0  0  0  0  0  0
  192.2540  175.9080  146.4710 N   0  0  0  0  0  0  0  0  0  0  0  0
  191.6690  176.7320  145.5100 N   0  0  0  0  0  0  0  0  0  0  0  0
  187.1890  177.7040  145.8320 C   0  0  0  0  0  2  0  0  0  0  0  0
  185.8330  177.8650  145.1380 C   0  0  1  0  0  3  0  0  0  0  0  0
  184.7140  179.1070  143.1810 C   0  0  1  0  0  3  0  0  0  0  0  0
  183.4450  178.5210  143.8180 C   0  0  1  0  0  3  0  0  0  0  0  0
  184.8420  178.6870  145.9680 C   0  0  0  0  0  2  0  0  0  0  0  0
  184.8130  180.4640  143.4450 F   0  0  0  0  0  0  0  0  0  0  0  0
  183.4320  178.6410  145.3510 C   0  0  0  0  0  2  0  0  0  0  0  0
  185.9690  178.3910  143.6970 C   0  0  0  0  0  2  0  0  0  0  0  0
  182.2030  179.0930  143.2160 C   0  0  0  0  0  0  0  0  0  0  0  0
  181.7330  180.1890  143.6320 O   0  0  0  0  0  1  0  0  0  0  0  0
  181.5780  178.4250  142.1700 O   0  0  0  0  0  0  0  0  0  0  0  0
  1 37  1  1  0  0  0
  3  2  1  6  0  0  0
  3  5  1  0  0  0  0
  3  1  1  0  0  0  0
  4  6  1  6  0  0  0
  4  3  1  0  0  0  0
  4  5  1  0  0  0  0
  8 13  1  0  0  0  0
  8  7  1  0  0  0  0
  9 11  1  6  0  0  0
  9 14  1  0  0  0  0
 12  6  1  1  0  0  0
 12 11  1  0  0  0  0
 12 15  1  0  0  0  0
 14  8  1  0  0  0  0
 14 13  1  1  0  0  0
 15 10  2  0  0  0  0
 15 14  1  0  0  0  0
 16 19  1  0  0  0  0
 17 16  1  0  0  0  0
 18 19  1  1  0  0  0
 18 21  1  0  0  0  0
 18  9  1  0  0  0  0
 20 16  2  0  0  0  0
 20 22  1  0  0  0  0
 22 21  1  0  0  0  0
 24  1  1  0  0  0  0
 24 25  1  0  0  0  0
 24 23  1  0  0  0  0
 25 26  1  1  0  0  0
 25 23  1  0  0  0  0
 27 26  1  0  0  0  0
 28 27  1  1  0  0  0
 29 28  1  0  0  0  0
 29 32  1  1  0  0  0
 30 29  1  0  0  0  0
 30 28  1  0  0  0  0
 32 31  1  6  0  0  0
 32 33  1  0  0  0  0
 33 34  1  0  0  0  0
 34 35  1  0  0  0  0
 36 38  1  0  0  0  0
 37 36  2  0  0  0  0
 38 44  1  0  0  0  0
 39 40  1  0  0  0  0
 40 46  1  6  0  0  0
 41 43  2  0  0  0  0
 42 41  1  0  0  0  0
 43 40  1  0  0  0  0
 43 51  1  0  0  0  0
 44 42  2  0  0  0  0
 44 45  1  0  0  0  0
 45 39  2  0  0  0  0
 46 48  1  0  0  0  0
 48 47  1  0  0  0  0
 49 47  2  0  0  0  0
 50 46  2  0  0  0  0
 50 49  1  0  0  0  0
 52 51  1  1  0  0  0
 52 55  1  0  0  0  0
 53 56  1  1  0  0  0
 53 58  1  0  0  0  0
 53 54  1  0  0  0  0
 54 59  1  6  0  0  0
 54 57  1  0  0  0  0
 57 55  1  0  0  0  0
 58 52  1  0  0  0  0
 59 60  1  0  0  0  0
 61 59  2  0  0  0  0
M  END
>  <MODEL>
8

>  <REMARK>
 VINA RESULT:      -6.3      2.570      8.121
  Name = 
  18 active torsions:
  status: ('A' for Active; 'I' for Inactive)
    1  A    between atoms: C_1  and  C_6
    2  A    between atoms: C_1  and  C_45
    3  A    between atoms: C_7  and  C_23
    4  A    between atoms: C_8  and  C_19
    5  A    between atoms: C_8  and  C_42
    6  A    between atoms: C_10  and  C_20
    7  A    between atoms: C_11  and  C_12
    8  A    between atoms: C_14  and  C_15
    9  A    between atoms: C_23  and  C_43
   10  A    between atoms: C_24  and  C_51
   11  A    between atoms: C_25  and  C_32
   12  A    between atoms: N_30  and  C_32
   13  A    between atoms: C_32  and  C_33
   14  A    between atoms: C_41  and  C_59
   15  A    between atoms: C_42  and  C_46
   16  A    between atoms: C_51  and  C_52
   17  A    between atoms: C_52  and  C_54
   18  A    between atoms: C_53  and  C_59
                            x       y       z     vdW  Elec       q    Type
                         _______ _______ _______ _____ _____    ______ ____

>  <TORSDO>
F 18

$$$$
=
 OpenBabel11042413163D

 61 69  0  0  1  0  0  0  0  0999 V2000
  186.1630  174.0730  136.1800 C   0  0  1  0  0  3  0  0  0  0  0  0
  184.1760  172.6310  137.1920 C   0  0  0  0  0  1  0  0  0  0  0  0
  184.6920  173.9400  136.5980 C   0  0  1  0  0  0  0  0  0  0  0  0
  183.9610  175.2180  136.8040 C   0  0  1  0  0  3  0  0  0  0  0  0
  183.8130  174.4530  135.6270 O   0  0  0  0  0  0  0  0  0  0  0  0
  182.7120  175.0810  137.6670 C   0  0  0  0  0  2  0  0  0  0  0  0
  181.3600  180.5350  139.3410 C   0  0  0  0  0  1  0  0  0  0  0  0
  180.7510  179.2280  139.1290 N   0  0  0  0  0  0  0  0  0  0  0  0
  183.2820  178.3190  138.9010 C   0  0  1  0  0  3  0  0  0  0  0  0
  180.3930  176.2790  139.2520 O   0  0  0  0  0  0  0  0  0  0  0  0
  183.7890  177.0140  138.6120 O   0  0  0  0  0  0  0  0  0  0  0  0
  182.7640  176.0450  138.8420 C   0  0  1  0  0  3  0  0  0  0  0  0
  181.1530  178.8070  137.7720 C   0  0  0  0  0  2  0  0  0  0  0  0
  181.7800  178.1830  138.9290 C   0  0  2  0  0  0  0  0  0  0  0  0
  181.4800  176.7740  138.9980 C   0  0  0  0  0  0  0  0  0  0  0  0
  185.8810  178.9190  141.7020 C   0  0  0  0  0  0  0  0  0  0  0  0
  187.2270  178.9640  141.8540 F   0  0  0  0  0  0  0  0  0  0  0  0
  183.8070  178.8420  140.2480 C   0  0  2  0  0  3  0  0  0  0  0  0
  185.3160  178.5920  140.3380 C   0  0  0  0  0  2  0  0  0  0  0  0
  185.1050  178.9950  142.7960 C   0  0  0  0  0  3  0  0  0  0  0  0
  183.1200  178.2320  141.4700 C   0  0  0  0  0  2  0  0  0  0  0  0
  183.6010  178.9570  142.7240 C   0  0  0  0  0  2  0  0  0  0  0  0
  186.2400  172.1880  134.7260 C   0  0  0  0  0  2  0  0  0  0  0  0
  186.3690  173.6550  134.7870 N   0  0  0  0  0  0  0  0  0  0  0  0
  187.5640  172.7840  134.5940 C   0  0  1  0  0  3  0  0  0  0  0  0
  188.3810  172.4980  135.8570 C   0  0  0  0  0  2  0  0  0  0  0  0
  189.8600  172.5380  135.5310 C   0  0  0  0  0  2  0  0  0  0  0  0
  190.2230  173.9210  135.0080 C   0  0  2  0  0  3  0  0  0  0  0  0
  191.6750  174.3690  135.2410 C   0  0  1  0  0  3  0  0  0  0  0  0
  190.5640  174.8190  136.1800 C   0  0  0  0  0  2  0  0  0  0  0  0
  193.2140  173.7800  137.0290 O   0  0  0  0  0  1  0  0  0  0  0  0
  192.6490  173.3200  135.8360 C   0  0  2  0  0  3  0  0  0  0  0  0
  193.7300  172.7860  134.8900 C   0  0  0  0  0  2  0  0  0  0  0  0
  194.7250  171.9120  135.6410 C   0  0  0  0  0  2  0  0  0  0  0  0
  195.9730  171.9750  135.0280 O   0  0  0  0  0  1  0  0  0  0  0  0
  187.4290  175.7890  137.4630 C   0  0  0  0  0  3  0  0  0  0  0  0
  186.6950  175.4630  136.3950 C   0  0  0  0  0  3  0  0  0  0  0  0
  187.9580  177.1780  137.6570 C   0  0  0  0  0  2  0  0  0  0  0  0
  189.9800  179.0110  140.2880 C   0  0  0  0  0  3  0  0  0  0  0  0
  190.8630  178.0280  140.9920 C   0  0  1  0  0  3  0  0  0  0  0  0
  189.2440  176.1310  141.1220 C   0  0  0  0  0  3  0  0  0  0  0  0
  188.7010  176.2470  139.7590 C   0  0  0  0  0  3  0  0  0  0  0  0
  190.1290  176.9380  141.7130 C   0  0  0  0  0  0  0  0  0  0  0  0
  188.6360  177.3370  138.9810 C   0  0  0  0  0  0  0  0  0  0  0  0
  189.0430  178.6970  139.3920 C   0  0  0  0  0  3  0  0  0  0  0  0
  191.9840  177.5150  140.1380 C   0  0  0  0  0  0  0  0  0  0  0  0
  193.2770  176.6880  138.4760 N   0  0  0  0  0  0  0  0  0  0  0  0
  191.9050  177.1070  138.7060 C   0  0  0  0  0  3  0  0  0  0  0  0
  193.9510  176.8260  139.5440 N   0  0  0  0  0  0  0  0  0  0  0  0
  193.1760  177.3310  140.5900 N   0  0  0  0  0  2  0  0  0  0  0  0
  190.5710  176.6160  143.1060 C   0  0  0  0  0  2  0  0  0  0  0  0
  189.7000  177.2550  144.1910 C   0  0  1  0  0  3  0  0  0  0  0  0
  189.4330  177.3590  146.7490 C   0  0  1  0  0  3  0  0  0  0  0  0
  188.1440  178.1020  146.3680 C   0  0  1  0  0  3  0  0  0  0  0  0
  188.3040  176.6290  144.2690 C   0  0  0  0  0  2  0  0  0  0  0  0
  189.1480  176.0750  147.1850 F   0  0  0  0  0  0  0  0  0  0  0  0
  187.3870  177.4350  145.2070 C   0  0  0  0  0  2  0  0  0  0  0  0
  190.4020  177.2940  145.5610 C   0  0  0  0  0  2  0  0  0  0  0  0
  187.2530  178.3160  147.5490 C   0  0  0  0  0  0  0  0  0  0  0  0
  186.2340  179.0560  147.4590 O   0  0  0  0  0  0  0  0  0  0  0  0
  187.5360  177.6710  148.7470 O   0  0  0  0  0  1  0  0  0  0  0  0
  1 37  1  6  0  0  0
  1  3  1  0  0  0  0
  3  4  1  0  0  0  0
  3  2  1  1  0  0  0
  4  6  1  1  0  0  0
  5  3  1  0  0  0  0
  5  4  1  0  0  0  0
  8  7  1  0  0  0  0
  9 11  1  1  0  0  0
  9 14  1  0  0  0  0
  9 18  1  0  0  0  0
 11 12  1  0  0  0  0
 12  6  1  6  0  0  0
 12 15  1  0  0  0  0
 13  8  1  0  0  0  0
 14 13  1  6  0  0  0
 14 15  1  0  0  0  0
 14  8  1  0  0  0  0
 15 10  2  0  0  0  0
 16 17  1  0  0  0  0
 16 20  2  0  0  0  0
 18 19  1  1  0  0  0
 18 21  1  0  0  0  0
 19 16  1  0  0  0  0
 21 22  1  0  0  0  0
 22 20  1  0  0  0  0
 23 24  1  0  0  0  0
 24  1  1  0  0  0  0
 25 23  1  0  0  0  0
 25 24  1  0  0  0  0
 25 26  1  1  0  0  0
 27 26  1  0  0  0  0
 28 29  1  0  0  0  0
 28 27  1  1  0  0  0
 28 30  1  0  0  0  0
 29 32  1  1  0  0  0
 29 30  1  0  0  0  0
 32 31  1  1  0  0  0
 33 34  1  0  0  0  0
 33 32  1  0  0  0  0
 35 34  1  0  0  0  0
 36 38  1  0  0  0  0
 37 36  2  0  0  0  0
 38 44  1  0  0  0  0
 39 40  1  0  0  0  0
 40 46  1  6  0  0  0
 40 43  1  0  0  0  0
 41 43  2  0  0  0  0
 42 41  1  0  0  0  0
 43 51  1  0  0  0  0
 44 45  1  0  0  0  0
 44 42  2  0  0  0  0
 45 39  2  0  0  0  0
 46 50  1  0  0  0  0
 47 48  1  0  0  0  0
 47 49  2  0  0  0  0
 48 46  2  0  0  0  0
 49 50  1  0  0  0  0
 52 51  1  6  0  0  0
 52 55  1  0  0  0  0
 52 58  1  0  0  0  0
 53 56  1  6  0  0  0
 54 53  1  0  0  0  0
 54 59  1  1  0  0  0
 55 57  1  0  0  0  0
 57 54  1  0  0  0  0
 58 53  1  0  0  0  0
 59 61  1  0  0  0  0
 60 59  2  0  0  0  0
M  END
>  <MODEL>
9

>  <REMARK>
 VINA RESULT:      -6.0      2.895      5.506
  Name = 
  18 active torsions:
  status: ('A' for Active; 'I' for Inactive)
    1  A    between atoms: C_1  and  C_6
    2  A    between atoms: C_1  and  C_45
    3  A    between atoms: C_7  and  C_23
    4  A    between atoms: C_8  and  C_19
    5  A    between atoms: C_8  and  C_42
    6  A    between atoms: C_10  and  C_20
    7  A    between atoms: C_11  and  C_12
    8  A    between atoms: C_14  and  C_15
    9  A    between atoms: C_23  and  C_43
   10  A    between atoms: C_24  and  C_51
   11  A    between atoms: C_25  and  C_32
   12  A    between atoms: N_30  and  C_32
   13  A    between atoms: C_32  and  C_33
   14  A    between atoms: C_41  and  C_59
   15  A    between atoms: C_42  and  C_46
   16  A    between atoms: C_51  and  C_52
   17  A    between atoms: C_52  and  C_54
   18  A    between atoms: C_53  and  C_59
                            x       y       z     vdW  Elec       q    Type
                         _______ _______ _______ _____ _____    ______ ____

>  <TORSDO>
F 18

$$$$
