=
 OpenBabel11042410533D

 26 28  0  0  1  0  0  0  0  0999 V2000
  188.6450  177.5480  147.3070 C   0  0  0  0  0  3  0  0  0  0  0  0
  185.3150  179.0390  147.0660 N   0  0  0  0  0  2  0  0  0  0  0  0
  184.6180  179.0210  145.9340 N   0  0  0  0  0  0  0  0  0  0  0  0
  186.4980  178.4510  146.8200 C   0  0  0  0  0  0  0  0  0  0  0  0
  185.3610  178.4250  144.9730 C   0  0  0  0  0  0  0  0  0  0  0  0
  187.5030  178.2270  147.7440 C   0  0  0  0  0  3  0  0  0  0  0  0
  188.7690  177.1230  145.9640 C   0  0  0  0  0  0  0  0  0  0  0  0
  187.7440  177.3850  145.0250 C   0  0  0  0  0  0  0  0  0  0  0  0
  186.5900  178.0460  145.5060 C   0  0  0  0  0  0  0  0  0  0  0  0
  184.8710  178.1770  143.6570 N   0  0  0  0  0  2  0  0  0  0  0  0
  183.6500  178.6240  143.2670 O   0  0  0  0  0  1  0  0  0  0  0  0
  187.9220  176.9560  143.6650 N   0  0  0  0  0  2  0  0  0  0  0  0
  188.6530  177.6360  142.6050 C   0  0  2  0  0  3  0  0  0  0  0  0
  187.6820  178.0080  141.4920 C   0  0  0  0  0  2  0  0  0  0  0  0
  188.4550  178.6710  140.3550 C   0  0  0  0  0  2  0  0  0  0  0  0
  189.7570  176.7590  142.0730 C   0  0  0  0  0  3  0  0  0  0  0  0
  190.1740  176.8350  140.7980 C   0  0  0  0  0  3  0  0  0  0  0  0
  189.5330  177.7420  139.7700 C   0  0  1  0  0  3  0  0  0  0  0  0
  189.0150  176.9720  138.7200 O   0  0  0  0  0  0  0  0  0  0  0  0
  189.1150  178.4390  136.8460 C   0  0  0  0  0  1  0  0  0  0  0  0
  189.7830  177.3050  137.5990 C   0  0  0  0  0  2  0  0  0  0  0  0
  190.0020  176.3650  145.5760 C   0  0  0  0  0  2  0  0  0  0  0  0
  191.6040  178.0180  144.8910 O   0  0  0  0  0  0  0  0  0  0  0  0
  191.2570  177.1740  145.7630 C   0  0  0  0  0  0  0  0  0  0  0  0
  192.0600  177.0010  146.8950 O   0  0  0  0  0  0  0  0  0  0  0  0
  192.2480  175.7320  147.5080 C   0  0  0  0  0  1  0  0  0  0  0  0
  1  6  1  0  0  0  0
  3  2  1  0  0  0  0
  4  2  1  0  0  0  0
  4  6  2  0  0  0  0
  5  9  1  0  0  0  0
  5  3  2  0  0  0  0
  7  1  2  0  0  0  0
  8  9  2  0  0  0  0
  8  7  1  0  0  0  0
  9  4  1  0  0  0  0
 10  5  1  0  0  0  0
 11 10  1  0  0  0  0
 12  8  1  0  0  0  0
 13 12  1  1  0  0  0
 14 13  1  0  0  0  0
 15 14  1  0  0  0  0
 16 13  1  0  0  0  0
 17 16  2  0  0  0  0
 18 19  1  6  0  0  0
 18 15  1  0  0  0  0
 18 17  1  0  0  0  0
 20 21  1  0  0  0  0
 21 19  1  0  0  0  0
 22 24  1  0  0  0  0
 22  7  1  0  0  0  0
 23 24  2  0  0  0  0
 24 25  1  0  0  0  0
 25 26  1  0  0  0  0
M  END
>  <MODEL>
1

>  <REMARK>
 VINA RESULT:      -8.1      0.000      0.000
  Name = 
  8 active torsions:
  status: ('A' for Active; 'I' for Inactive)
    1  A    between atoms: O_4  and  C_17
    2  A    between atoms: O_6  and  C_23
    3  A    between atoms: O_6  and  C_25
    4  A    between atoms: C_7  and  N_21
    5  A    between atoms: C_11  and  N_13
    6  A    between atoms: C_17  and  C_22
    7  A    between atoms: C_20  and  C_22
    8  A    between atoms: N_21  and  C_24
                            x       y       z     vdW  Elec       q    Type
                         _______ _______ _______ _____ _____    ______ ____

>  <TORSDO>
F 8

$$$$
=
 OpenBabel11042410533D

 26 28  0  0  1  0  0  0  0  0999 V2000
  187.6900  177.8650  147.5120 C   0  0  0  0  0  3  0  0  0  0  0  0
  191.2560  177.1430  147.8850 N   0  0  0  0  0  2  0  0  0  0  0  0
  192.0060  176.7640  146.8550 N   0  0  0  0  0  0  0  0  0  0  0  0
  189.9990  177.2930  147.4330 C   0  0  0  0  0  0  0  0  0  0  0  0
  191.2240  176.6710  145.7550 C   0  0  0  0  0  0  0  0  0  0  0  0
  188.9120  177.7190  148.1760 C   0  0  0  0  0  3  0  0  0  0  0  0
  187.5720  177.5700  146.1340 C   0  0  0  0  0  0  0  0  0  0  0  0
  188.6850  177.1070  145.3950 C   0  0  0  0  0  0  0  0  0  0  0  0
  189.9130  177.0000  146.0890 C   0  0  0  0  0  0  0  0  0  0  0  0
  191.7380  176.3590  144.4620 N   0  0  0  0  0  2  0  0  0  0  0  0
  192.0770  175.0870  144.1300 O   0  0  0  0  0  1  0  0  0  0  0  0
  188.5140  176.7960  144.0020 N   0  0  0  0  0  2  0  0  0  0  0  0
  188.8480  177.6290  142.8560 C   0  0  2  0  0  3  0  0  0  0  0  0
  187.5830  177.9000  142.0530 C   0  0  0  0  0  2  0  0  0  0  0  0
  187.9410  178.7260  140.8200 C   0  0  0  0  0  2  0  0  0  0  0  0
  189.8870  176.9580  141.9960 C   0  0  0  0  0  3  0  0  0  0  0  0
  189.9490  177.1560  140.6700 C   0  0  0  0  0  3  0  0  0  0  0  0
  188.9490  178.0020  139.9110 C   0  0  1  0  0  3  0  0  0  0  0  0
  188.2890  177.2120  138.9600 O   0  0  0  0  0  0  0  0  0  0  0  0
  188.9630  178.7040  137.2300 C   0  0  0  0  0  1  0  0  0  0  0  0
  187.8020  178.1090  138.0040 C   0  0  0  0  0  2  0  0  0  0  0  0
  186.2410  177.7870  145.4780 C   0  0  0  0  0  2  0  0  0  0  0  0
  185.9490  179.6310  146.9890 O   0  0  0  0  0  0  0  0  0  0  0  0
  185.4060  178.8100  146.1990 C   0  0  0  0  0  0  0  0  0  0  0  0
  184.0210  178.8650  146.0130 O   0  0  0  0  0  0  0  0  0  0  0  0
  183.4290  178.9250  144.7210 C   0  0  0  0  0  1  0  0  0  0  0  0
  1  6  1  0  0  0  0
  3  2  1  0  0  0  0
  4  2  1  0  0  0  0
  4  6  2  0  0  0  0
  5  9  1  0  0  0  0
  5  3  2  0  0  0  0
  7  1  2  0  0  0  0
  8  9  2  0  0  0  0
  8  7  1  0  0  0  0
  9  4  1  0  0  0  0
 10  5  1  0  0  0  0
 11 10  1  0  0  0  0
 12  8  1  0  0  0  0
 13 12  1  1  0  0  0
 14 13  1  0  0  0  0
 15 14  1  0  0  0  0
 16 13  1  0  0  0  0
 17 16  2  0  0  0  0
 18 19  1  6  0  0  0
 18 17  1  0  0  0  0
 18 15  1  0  0  0  0
 20 21  1  0  0  0  0
 21 19  1  0  0  0  0
 22  7  1  0  0  0  0
 22 24  1  0  0  0  0
 24 23  2  0  0  0  0
 25 24  1  0  0  0  0
 26 25  1  0  0  0  0
M  END
>  <MODEL>
2

>  <REMARK>
 VINA RESULT:      -8.0      2.203      4.686
  Name = 
  8 active torsions:
  status: ('A' for Active; 'I' for Inactive)
    1  A    between atoms: O_4  and  C_17
    2  A    between atoms: O_6  and  C_23
    3  A    between atoms: O_6  and  C_25
    4  A    between atoms: C_7  and  N_21
    5  A    between atoms: C_11  and  N_13
    6  A    between atoms: C_17  and  C_22
    7  A    between atoms: C_20  and  C_22
    8  A    between atoms: N_21  and  C_24
                            x       y       z     vdW  Elec       q    Type
                         _______ _______ _______ _____ _____    ______ ____

>  <TORSDO>
F 8

$$$$
=
 OpenBabel11042410533D

 26 28  0  0  1  0  0  0  0  0999 V2000
  190.9470  176.8230  143.1460 C   0  0  0  0  0  3  0  0  0  0  0  0
  191.7350  176.9720  146.7140 N   0  0  0  0  0  2  0  0  0  0  0  0
  190.7840  176.9770  147.6430 N   0  0  0  0  0  0  0  0  0  0  0  0
  191.1270  176.9490  145.5150 C   0  0  0  0  0  0  0  0  0  0  0  0
  189.5770  176.9610  147.0320 C   0  0  0  0  0  0  0  0  0  0  0  0
  191.7560  176.8940  144.2840 C   0  0  0  0  0  3  0  0  0  0  0  0
  189.5380  176.8240  143.2540 C   0  0  0  0  0  0  0  0  0  0  0  0
  188.9090  176.9090  144.5190 C   0  0  0  0  0  0  0  0  0  0  0  0
  189.7550  176.9490  145.6510 C   0  0  0  0  0  0  0  0  0  0  0  0
  188.3460  176.8850  147.7490 N   0  0  0  0  0  2  0  0  0  0  0  0
  188.0440  177.7830  148.7210 O   0  0  0  0  0  1  0  0  0  0  0  0
  187.4730  176.9310  144.5810 N   0  0  0  0  0  2  0  0  0  0  0  0
  186.6010  178.0960  144.6120 C   0  0  2  0  0  3  0  0  0  0  0  0
  185.6500  177.9730  145.7960 C   0  0  0  0  0  2  0  0  0  0  0  0
  184.6970  179.1650  145.7970 C   0  0  0  0  0  2  0  0  0  0  0  0
  185.8290  178.2180  143.3240 C   0  0  0  0  0  3  0  0  0  0  0  0
  184.6050  178.7670  143.2770 C   0  0  0  0  0  3  0  0  0  0  0  0
  183.8620  179.2410  144.5070 C   0  0  1  0  0  3  0  0  0  0  0  0
  182.6670  178.5230  144.6420 O   0  0  0  0  0  0  0  0  0  0  0  0
  180.4130  178.5980  143.8750 C   0  0  0  0  0  1  0  0  0  0  0  0
  181.8600  178.9370  143.5760 C   0  0  0  0  0  2  0  0  0  0  0  0
  188.7330  176.7040  141.9950 C   0  0  0  0  0  2  0  0  0  0  0  0
  188.3920  178.9750  141.2940 O   0  0  0  0  0  0  0  0  0  0  0  0
  188.9470  177.8660  141.0630 C   0  0  0  0  0  0  0  0  0  0  0  0
  189.7540  177.7370  139.9290 O   0  0  0  0  0  0  0  0  0  0  0  0
  189.3200  178.1420  138.6370 C   0  0  0  0  0  1  0  0  0  0  0  0
  1  7  2  0  0  0  0
  1  6  1  0  0  0  0
  2  3  1  0  0  0  0
  4  9  1  0  0  0  0
  4  2  1  0  0  0  0
  5  3  2  0  0  0  0
  5 10  1  0  0  0  0
  6  4  2  0  0  0  0
  7  8  1  0  0  0  0
  8 12  1  0  0  0  0
  8  9  2  0  0  0  0
  9  5  1  0  0  0  0
 10 11  1  0  0  0  0
 13 12  1  6  0  0  0
 13 14  1  0  0  0  0
 14 15  1  0  0  0  0
 16 13  1  0  0  0  0
 17 16  2  0  0  0  0
 17 18  1  0  0  0  0
 18 19  1  1  0  0  0
 18 15  1  0  0  0  0
 21 20  1  0  0  0  0
 21 19  1  0  0  0  0
 22  7  1  0  0  0  0
 24 23  2  0  0  0  0
 24 22  1  0  0  0  0
 25 24  1  0  0  0  0
 26 25  1  0  0  0  0
M  END
>  <MODEL>
3

>  <REMARK>
 VINA RESULT:      -8.0      2.536      6.226
  Name = 
  8 active torsions:
  status: ('A' for Active; 'I' for Inactive)
    1  A    between atoms: O_4  and  C_17
    2  A    between atoms: O_6  and  C_23
    3  A    between atoms: O_6  and  C_25
    4  A    between atoms: C_7  and  N_21
    5  A    between atoms: C_11  and  N_13
    6  A    between atoms: C_17  and  C_22
    7  A    between atoms: C_20  and  C_22
    8  A    between atoms: N_21  and  C_24
                            x       y       z     vdW  Elec       q    Type
                         _______ _______ _______ _____ _____    ______ ____

>  <TORSDO>
F 8

$$$$
=
 OpenBabel11042410533D

 26 28  0  0  1  0  0  0  0  0999 V2000
  185.4880  178.5480  146.0790 C   0  0  0  0  0  3  0  0  0  0  0  0
  188.1820  178.3420  148.5430 N   0  0  0  0  0  2  0  0  0  0  0  0
  189.3760  177.8440  148.2380 N   0  0  0  0  0  0  0  0  0  0  0  0
  187.4120  178.2450  147.4460 C   0  0  0  0  0  0  0  0  0  0  0  0
  189.3600  177.4300  146.9500 C   0  0  0  0  0  0  0  0  0  0  0  0
  186.1080  178.6890  147.3250 C   0  0  0  0  0  3  0  0  0  0  0  0
  186.1700  177.9560  144.9910 C   0  0  0  0  0  0  0  0  0  0  0  0
  187.4940  177.4810  145.1390 C   0  0  0  0  0  0  0  0  0  0  0  0
  188.1020  177.6660  146.4020 C   0  0  0  0  0  0  0  0  0  0  0  0
  190.5130  176.9140  146.2870 N   0  0  0  0  0  2  0  0  0  0  0  0
  191.7320  176.9320  146.8840 O   0  0  0  0  0  1  0  0  0  0  0  0
  188.1410  176.8640  144.0130 N   0  0  0  0  0  2  0  0  0  0  0  0
  188.9430  177.5100  142.9840 C   0  0  2  0  0  3  0  0  0  0  0  0
  188.3010  177.2630  141.6250 C   0  0  0  0  0  2  0  0  0  0  0  0
  189.1710  177.8900  140.5390 C   0  0  0  0  0  2  0  0  0  0  0  0
  190.3560  176.9860  143.0050 C   0  0  0  0  0  3  0  0  0  0  0  0
  191.1080  176.9250  141.8940 C   0  0  0  0  0  3  0  0  0  0  0  0
  190.5910  177.2990  140.5220 C   0  0  1  0  0  3  0  0  0  0  0  0
  190.6600  176.1870  139.6730 O   0  0  0  0  0  0  0  0  0  0  0  0
  192.5910  176.4940  138.3120 C   0  0  0  0  0  1  0  0  0  0  0  0
  191.0920  176.6850  138.4390 C   0  0  0  0  0  2  0  0  0  0  0  0
  185.4590  177.8730  143.6740 C   0  0  0  0  0  2  0  0  0  0  0  0
  184.4620  180.0570  143.7570 O   0  0  0  0  0  0  0  0  0  0  0  0
  185.1540  179.2300  143.0990 C   0  0  0  0  0  0  0  0  0  0  0  0
  185.6200  179.5940  141.8320 O   0  0  0  0  0  0  0  0  0  0  0  0
  185.1030  179.0210  140.6380 C   0  0  0  0  0  1  0  0  0  0  0  0
  1  6  1  0  0  0  0
  3  2  1  0  0  0  0
  4  2  1  0  0  0  0
  5  3  2  0  0  0  0
  6  4  2  0  0  0  0
  7  8  1  0  0  0  0
  7  1  2  0  0  0  0
  8  9  2  0  0  0  0
  9  5  1  0  0  0  0
  9  4  1  0  0  0  0
 10 11  1  0  0  0  0
 10  5  1  0  0  0  0
 12  8  1  0  0  0  0
 13 16  1  0  0  0  0
 13 12  1  1  0  0  0
 14 13  1  0  0  0  0
 15 14  1  0  0  0  0
 17 16  2  0  0  0  0
 18 19  1  6  0  0  0
 18 15  1  0  0  0  0
 18 17  1  0  0  0  0
 20 21  1  0  0  0  0
 21 19  1  0  0  0  0
 22  7  1  0  0  0  0
 24 22  1  0  0  0  0
 24 23  2  0  0  0  0
 25 24  1  0  0  0  0
 26 25  1  0  0  0  0
M  END
>  <MODEL>
4

>  <REMARK>
 VINA RESULT:      -7.9      1.930      4.632
  Name = 
  8 active torsions:
  status: ('A' for Active; 'I' for Inactive)
    1  A    between atoms: O_4  and  C_17
    2  A    between atoms: O_6  and  C_23
    3  A    between atoms: O_6  and  C_25
    4  A    between atoms: C_7  and  N_21
    5  A    between atoms: C_11  and  N_13
    6  A    between atoms: C_17  and  C_22
    7  A    between atoms: C_20  and  C_22
    8  A    between atoms: N_21  and  C_24
                            x       y       z     vdW  Elec       q    Type
                         _______ _______ _______ _____ _____    ______ ____

>  <TORSDO>
F 8

$$$$
=
 OpenBabel11042410533D

 26 28  0  0  1  0  0  0  0  0999 V2000
  190.9370  176.6500  145.3300 C   0  0  0  0  0  3  0  0  0  0  0  0
  189.3050  178.0080  148.3070 N   0  0  0  0  0  2  0  0  0  0  0  0
  188.0010  178.2620  148.3390 N   0  0  0  0  0  0  0  0  0  0  0  0
  189.5990  177.5580  147.0750 C   0  0  0  0  0  0  0  0  0  0  0  0
  187.4710  177.9760  147.1270 C   0  0  0  0  0  0  0  0  0  0  0  0
  190.8410  177.1390  146.6360 C   0  0  0  0  0  3  0  0  0  0  0  0
  189.8020  176.6030  144.4870 C   0  0  0  0  0  0  0  0  0  0  0  0
  188.5440  177.0620  144.9410 C   0  0  0  0  0  0  0  0  0  0  0  0
  188.4750  177.5220  146.2770 C   0  0  0  0  0  0  0  0  0  0  0  0
  186.0750  178.0670  146.8500 N   0  0  0  0  0  2  0  0  0  0  0  0
  185.4010  179.2340  147.0180 O   0  0  0  0  0  1  0  0  0  0  0  0
  187.4230  177.0180  144.0430 N   0  0  0  0  0  2  0  0  0  0  0  0
  186.7590  178.1400  143.3920 C   0  0  2  0  0  3  0  0  0  0  0  0
  185.2510  177.9480  143.4890 C   0  0  0  0  0  2  0  0  0  0  0  0
  184.5540  179.0930  142.7590 C   0  0  0  0  0  2  0  0  0  0  0  0
  187.1870  178.2470  141.9510 C   0  0  0  0  0  3  0  0  0  0  0  0
  186.3730  178.7370  141.0020 C   0  0  0  0  0  3  0  0  0  0  0  0
  184.9420  179.1510  141.2710 C   0  0  1  0  0  3  0  0  0  0  0  0
  184.0720  178.3740  140.4950 O   0  0  0  0  0  0  0  0  0  0  0  0
  183.2890  179.9680  138.9080 C   0  0  0  0  0  1  0  0  0  0  0  0
  184.2440  178.8210  139.1810 C   0  0  0  0  0  2  0  0  0  0  0  0
  189.9690  176.0290  143.1120 C   0  0  0  0  0  2  0  0  0  0  0  0
  190.9790  178.1360  142.5570 O   0  0  0  0  0  0  0  0  0  0  0  0
  190.5720  177.0130  142.1470 C   0  0  0  0  0  0  0  0  0  0  0  0
  190.6860  176.7080  140.7870 O   0  0  0  0  0  0  0  0  0  0  0  0
  190.1580  177.5530  139.7720 C   0  0  0  0  0  1  0  0  0  0  0  0
  1  6  1  0  0  0  0
  2  3  1  0  0  0  0
  4  2  1  0  0  0  0
  5  3  2  0  0  0  0
  6  4  2  0  0  0  0
  7  8  1  0  0  0  0
  7  1  2  0  0  0  0
  8  9  2  0  0  0  0
  9  4  1  0  0  0  0
  9  5  1  0  0  0  0
 10 11  1  0  0  0  0
 10  5  1  0  0  0  0
 12  8  1  0  0  0  0
 13 14  1  0  0  0  0
 13 12  1  6  0  0  0
 15 14  1  0  0  0  0
 16 13  1  0  0  0  0
 17 18  1  0  0  0  0
 17 16  2  0  0  0  0
 18 19  1  6  0  0  0
 18 15  1  0  0  0  0
 20 21  1  0  0  0  0
 21 19  1  0  0  0  0
 22  7  1  0  0  0  0
 24 23  2  0  0  0  0
 24 22  1  0  0  0  0
 25 24  1  0  0  0  0
 26 25  1  0  0  0  0
M  END
>  <MODEL>
5

>  <REMARK>
 VINA RESULT:      -7.6      2.391      4.131
  Name = 
  8 active torsions:
  status: ('A' for Active; 'I' for Inactive)
    1  A    between atoms: O_4  and  C_17
    2  A    between atoms: O_6  and  C_23
    3  A    between atoms: O_6  and  C_25
    4  A    between atoms: C_7  and  N_21
    5  A    between atoms: C_11  and  N_13
    6  A    between atoms: C_17  and  C_22
    7  A    between atoms: C_20  and  C_22
    8  A    between atoms: N_21  and  C_24
                            x       y       z     vdW  Elec       q    Type
                         _______ _______ _______ _____ _____    ______ ____

>  <TORSDO>
F 8

$$$$
=
 OpenBabel11042410533D

 26 28  0  0  1  0  0  0  0  0999 V2000
  185.4510  178.7360  142.3910 C   0  0  0  0  0  3  0  0  0  0  0  0
  187.7850  178.6280  139.5780 N   0  0  0  0  0  2  0  0  0  0  0  0
  188.9380  177.9700  139.6470 N   0  0  0  0  0  0  0  0  0  0  0  0
  187.1800  178.5080  140.7720 C   0  0  0  0  0  0  0  0  0  0  0  0
  189.0640  177.4390  140.8850 C   0  0  0  0  0  0  0  0  0  0  0  0
  185.9370  179.0110  141.1090 C   0  0  0  0  0  3  0  0  0  0  0  0
  186.2170  177.9840  143.3120 C   0  0  0  0  0  0  0  0  0  0  0  0
  187.4990  177.5010  142.9620 C   0  0  0  0  0  0  0  0  0  0  0  0
  187.9470  177.7710  141.6480 C   0  0  0  0  0  0  0  0  0  0  0  0
  190.1580  176.6060  141.2640 N   0  0  0  0  0  2  0  0  0  0  0  0
  191.3860  177.1300  141.5080 O   0  0  0  0  0  1  0  0  0  0  0  0
  188.2530  176.7610  143.9370 N   0  0  0  0  0  2  0  0  0  0  0  0
  189.2090  177.2800  144.9060 C   0  0  2  0  0  3  0  0  0  0  0  0
  190.5290  176.5380  144.7470 C   0  0  0  0  0  2  0  0  0  0  0  0
  191.5150  177.0410  145.7980 C   0  0  0  0  0  2  0  0  0  0  0  0
  188.6810  177.1270  146.3080 C   0  0  0  0  0  3  0  0  0  0  0  0
  189.4970  176.9510  147.3600 C   0  0  0  0  0  3  0  0  0  0  0  0
  190.9990  176.8160  147.2300 C   0  0  1  0  0  3  0  0  0  0  0  0
  191.4040  175.5670  147.7180 O   0  0  0  0  0  0  0  0  0  0  0  0
  193.2180  176.1320  149.1530 C   0  0  0  0  0  1  0  0  0  0  0  0
  192.8000  175.6270  147.7860 C   0  0  0  0  0  2  0  0  0  0  0  0
  185.6170  177.6920  144.6550 C   0  0  0  0  0  2  0  0  0  0  0  0
  183.7600  179.2060  144.8050 O   0  0  0  0  0  0  0  0  0  0  0  0
  184.9010  178.8810  145.2350 C   0  0  0  0  0  0  0  0  0  0  0  0
  185.4850  179.6460  146.2490 O   0  0  0  0  0  0  0  0  0  0  0  0
  186.0560  179.0600  147.4120 C   0  0  0  0  0  1  0  0  0  0  0  0
  1  7  1  0  0  0  0
  2  3  1  0  0  0  0
  2  4  1  0  0  0  0
  3  5  2  0  0  0  0
  4  6  1  0  0  0  0
  4  9  2  0  0  0  0
  5 10  1  0  0  0  0
  5  9  1  0  0  0  0
  6  1  2  0  0  0  0
  7 22  1  0  0  0  0
  8  7  2  0  0  0  0
  8 12  1  0  0  0  0
  9  8  1  0  0  0  0
 10 11  1  0  0  0  0
 13 12  1  6  0  0  0
 13 16  1  0  0  0  0
 14 13  1  0  0  0  0
 14 15  1  0  0  0  0
 15 18  1  0  0  0  0
 16 17  2  0  0  0  0
 18 17  1  0  0  0  0
 18 19  1  6  0  0  0
 19 21  1  0  0  0  0
 21 20  1  0  0  0  0
 22 24  1  0  0  0  0
 23 24  2  0  0  0  0
 24 25  1  0  0  0  0
 25 26  1  0  0  0  0
M  END
>  <MODEL>
6

>  <REMARK>
 VINA RESULT:      -7.3      2.319      6.811
  Name = 
  8 active torsions:
  status: ('A' for Active; 'I' for Inactive)
    1  A    between atoms: O_4  and  C_17
    2  A    between atoms: O_6  and  C_23
    3  A    between atoms: O_6  and  C_25
    4  A    between atoms: C_7  and  N_21
    5  A    between atoms: C_11  and  N_13
    6  A    between atoms: C_17  and  C_22
    7  A    between atoms: C_20  and  C_22
    8  A    between atoms: N_21  and  C_24
                            x       y       z     vdW  Elec       q    Type
                         _______ _______ _______ _____ _____    ______ ____

>  <TORSDO>
F 8

$$$$
=
 OpenBabel11042410533D

 26 28  0  0  1  0  0  0  0  0999 V2000
  186.1350  178.7340  140.9720 C   0  0  0  0  0  3  0  0  0  0  0  0
  183.7070  179.5460  143.5840 N   0  0  0  0  0  2  0  0  0  0  0  0
  183.8990  179.1980  144.8530 N   0  0  0  0  0  0  0  0  0  0  0  0
  184.7480  179.0750  142.8760 C   0  0  0  0  0  0  0  0  0  0  0  0
  185.0570  178.5050  144.9460 C   0  0  0  0  0  0  0  0  0  0  0  0
  184.9590  179.2550  141.5210 C   0  0  0  0  0  3  0  0  0  0  0  0
  187.0630  178.0330  141.7760 C   0  0  0  0  0  0  0  0  0  0  0  0
  186.8190  177.8310  143.1550 C   0  0  0  0  0  0  0  0  0  0  0  0
  185.6360  178.3980  143.6840 C   0  0  0  0  0  0  0  0  0  0  0  0
  185.5920  178.0520  146.1880 N   0  0  0  0  0  2  0  0  0  0  0  0
  185.3350  178.7130  147.3450 O   0  0  0  0  0  1  0  0  0  0  0  0
  187.7780  177.0920  143.9290 N   0  0  0  0  0  2  0  0  0  0  0  0
  188.9000  177.6190  144.6940 C   0  0  2  0  0  3  0  0  0  0  0  0
  190.2010  177.1880  144.0290 C   0  0  0  0  0  2  0  0  0  0  0  0
  191.3780  177.6900  144.8600 C   0  0  0  0  0  2  0  0  0  0  0  0
  188.8470  177.1310  146.1190 C   0  0  0  0  0  3  0  0  0  0  0  0
  189.9590  176.9440  146.8480 C   0  0  0  0  0  3  0  0  0  0  0  0
  191.3550  177.1300  146.2940 C   0  0  1  0  0  3  0  0  0  0  0  0
  192.0580  175.9200  146.3700 O   0  0  0  0  0  0  0  0  0  0  0  0
  193.0730  176.0040  148.5230 C   0  0  0  0  0  1  0  0  0  0  0  0
  191.9130  175.4880  147.6930 C   0  0  0  0  0  2  0  0  0  0  0  0
  188.3210  177.5350  141.1300 C   0  0  0  0  0  2  0  0  0  0  0  0
  188.9410  179.0370  139.3610 O   0  0  0  0  0  0  0  0  0  0  0  0
  188.4190  177.9330  139.6830 C   0  0  0  0  0  0  0  0  0  0  0  0
  187.9320  177.0960  138.6740 O   0  0  0  0  0  0  0  0  0  0  0  0
  188.1340  177.3720  137.2930 C   0  0  0  0  0  1  0  0  0  0  0  0
  1  6  2  0  0  0  0
  1  7  1  0  0  0  0
  2  3  1  0  0  0  0
  3  5  2  0  0  0  0
  4  2  1  0  0  0  0
  4  9  2  0  0  0  0
  5 10  1  0  0  0  0
  6  4  1  0  0  0  0
  7  8  2  0  0  0  0
  8  9  1  0  0  0  0
  8 12  1  0  0  0  0
  9  5  1  0  0  0  0
 10 11  1  0  0  0  0
 13 12  1  6  0  0  0
 13 16  1  0  0  0  0
 14 13  1  0  0  0  0
 14 15  1  0  0  0  0
 15 18  1  0  0  0  0
 16 17  2  0  0  0  0
 18 19  1  6  0  0  0
 18 17  1  0  0  0  0
 19 21  1  0  0  0  0
 21 20  1  0  0  0  0
 22  7  1  0  0  0  0
 23 24  2  0  0  0  0
 24 22  1  0  0  0  0
 25 24  1  0  0  0  0
 26 25  1  0  0  0  0
M  END
>  <MODEL>
7

>  <REMARK>
 VINA RESULT:      -7.2      1.680      6.164
  Name = 
  8 active torsions:
  status: ('A' for Active; 'I' for Inactive)
    1  A    between atoms: O_4  and  C_17
    2  A    between atoms: O_6  and  C_23
    3  A    between atoms: O_6  and  C_25
    4  A    between atoms: C_7  and  N_21
    5  A    between atoms: C_11  and  N_13
    6  A    between atoms: C_17  and  C_22
    7  A    between atoms: C_20  and  C_22
    8  A    between atoms: N_21  and  C_24
                            x       y       z     vdW  Elec       q    Type
                         _______ _______ _______ _____ _____    ______ ____

>  <TORSDO>
F 8

$$$$
=
 OpenBabel11042410533D

 26 28  0  0  1  0  0  0  0  0999 V2000
  183.7220  178.9220  143.7540 C   0  0  0  0  0  3  0  0  0  0  0  0
  185.3120  179.3420  147.0210 N   0  0  0  0  0  2  0  0  0  0  0  0
  186.5260  178.8660  147.2770 N   0  0  0  0  0  0  0  0  0  0  0  0
  185.0000  178.9950  145.7600 C   0  0  0  0  0  0  0  0  0  0  0  0
  186.9810  178.2170  146.1810 C   0  0  0  0  0  0  0  0  0  0  0  0
  183.8400  179.3310  145.0860 C   0  0  0  0  0  3  0  0  0  0  0  0
  184.7490  178.1770  143.1290 C   0  0  0  0  0  0  0  0  0  0  0  0
  185.9170  177.8160  143.8410 C   0  0  0  0  0  0  0  0  0  0  0  0
  186.0180  178.2720  145.1760 C   0  0  0  0  0  0  0  0  0  0  0  0
  188.2890  177.6540  146.0990 N   0  0  0  0  0  2  0  0  0  0  0  0
  188.8960  177.1290  147.1940 O   0  0  0  0  0  1  0  0  0  0  0  0
  186.9250  177.0380  143.1740 N   0  0  0  0  0  2  0  0  0  0  0  0
  188.1930  177.5030  142.6280 C   0  0  2  0  0  3  0  0  0  0  0  0
  188.0660  177.6290  141.1160 C   0  0  0  0  0  2  0  0  0  0  0  0
  189.4100  178.0610  140.5360 C   0  0  0  0  0  2  0  0  0  0  0  0
  189.3060  176.5540  142.9890 C   0  0  0  0  0  3  0  0  0  0  0  0
  190.3760  176.3780  142.1960 C   0  0  0  0  0  3  0  0  0  0  0  0
  190.5270  177.0500  140.8480 C   0  0  1  0  0  3  0  0  0  0  0  0
  190.6180  176.0770  139.8440 O   0  0  0  0  0  0  0  0  0  0  0  0
  191.9360  176.3050  137.8730 C   0  0  0  0  0  1  0  0  0  0  0  0
  190.7220  176.7890  138.6440 C   0  0  0  0  0  2  0  0  0  0  0  0
  184.5740  177.8060  141.6870 C   0  0  0  0  0  2  0  0  0  0  0  0
  185.3020  179.7520  140.4840 O   0  0  0  0  0  0  0  0  0  0  0  0
  184.3390  179.0050  140.8100 C   0  0  0  0  0  0  0  0  0  0  0  0
  183.0560  179.3160  140.3480 O   0  0  0  0  0  0  0  0  0  0  0  0
  181.9410  178.4600  140.5660 C   0  0  0  0  0  1  0  0  0  0  0  0
  1  6  1  0  0  0  0
  2  3  1  0  0  0  0
  4  2  1  0  0  0  0
  5  3  2  0  0  0  0
  6  4  2  0  0  0  0
  7  1  2  0  0  0  0
  7  8  1  0  0  0  0
  8  9  2  0  0  0  0
  9  4  1  0  0  0  0
  9  5  1  0  0  0  0
 10  5  1  0  0  0  0
 10 11  1  0  0  0  0
 12  8  1  0  0  0  0
 13 16  1  0  0  0  0
 13 12  1  6  0  0  0
 14 13  1  0  0  0  0
 15 18  1  0  0  0  0
 15 14  1  0  0  0  0
 17 16  2  0  0  0  0
 18 19  1  6  0  0  0
 18 17  1  0  0  0  0
 20 21  1  0  0  0  0
 21 19  1  0  0  0  0
 22  7  1  0  0  0  0
 23 24  2  0  0  0  0
 24 22  1  0  0  0  0
 25 26  1  0  0  0  0
 25 24  1  0  0  0  0
M  END
>  <MODEL>
8

>  <REMARK>
 VINA RESULT:      -7.1      2.197      5.087
  Name = 
  8 active torsions:
  status: ('A' for Active; 'I' for Inactive)
    1  A    between atoms: O_4  and  C_17
    2  A    between atoms: O_6  and  C_23
    3  A    between atoms: O_6  and  C_25
    4  A    between atoms: C_7  and  N_21
    5  A    between atoms: C_11  and  N_13
    6  A    between atoms: C_17  and  C_22
    7  A    between atoms: C_20  and  C_22
    8  A    between atoms: N_21  and  C_24
                            x       y       z     vdW  Elec       q    Type
                         _______ _______ _______ _____ _____    ______ ____

>  <TORSDO>
F 8

$$$$
=
 OpenBabel11042410533D

 26 28  0  0  1  0  0  0  0  0999 V2000
  191.0260  176.8530  141.9460 C   0  0  0  0  0  3  0  0  0  0  0  0
  189.9150  178.2230  138.7420 N   0  0  0  0  0  2  0  0  0  0  0  0
  188.6460  178.5510  138.5210 N   0  0  0  0  0  0  0  0  0  0  0  0
  189.9910  177.7200  139.9860 C   0  0  0  0  0  0  0  0  0  0  0  0
  187.9190  178.2530  139.6230 C   0  0  0  0  0  0  0  0  0  0  0  0
  191.1420  177.2970  140.6250 C   0  0  0  0  0  3  0  0  0  0  0  0
  189.7700  176.8250  142.5950 C   0  0  0  0  0  0  0  0  0  0  0  0
  188.5970  177.2340  141.9190 C   0  0  0  0  0  0  0  0  0  0  0  0
  188.7540  177.7060  140.5950 C   0  0  0  0  0  0  0  0  0  0  0  0
  186.5300  178.5530  139.7410 N   0  0  0  0  0  2  0  0  0  0  0  0
  185.8000  178.9290  138.6610 O   0  0  0  0  0  1  0  0  0  0  0  0
  187.3380  177.1660  142.6090 N   0  0  0  0  0  2  0  0  0  0  0  0
  186.7070  178.2040  143.4130 C   0  0  2  0  0  3  0  0  0  0  0  0
  186.0930  177.5670  144.6530 C   0  0  0  0  0  2  0  0  0  0  0  0
  185.3810  178.6430  145.4680 C   0  0  0  0  0  2  0  0  0  0  0  0
  185.6550  178.9290  142.6140 C   0  0  0  0  0  3  0  0  0  0  0  0
  184.5670  179.4650  143.1920 C   0  0  0  0  0  3  0  0  0  0  0  0
  184.2600  179.3300  144.6670 C   0  0  1  0  0  3  0  0  0  0  0  0
  183.0420  178.6600  144.8360 O   0  0  0  0  0  0  0  0  0  0  0  0
  180.8240  178.6270  143.9690 C   0  0  0  0  0  1  0  0  0  0  0  0
  182.2730  178.9970  143.7170 C   0  0  0  0  0  2  0  0  0  0  0  0
  189.7250  176.3760  144.0250 C   0  0  0  0  0  2  0  0  0  0  0  0
  190.1560  178.6490  144.6680 O   0  0  0  0  0  0  0  0  0  0  0  0
  190.2340  177.4270  144.9730 C   0  0  0  0  0  0  0  0  0  0  0  0
  190.8050  177.0710  146.1990 O   0  0  0  0  0  0  0  0  0  0  0  0
  190.0190  176.7540  147.3410 C   0  0  0  0  0  1  0  0  0  0  0  0
  1  7  1  0  0  0  0
  2  4  1  0  0  0  0
  3  2  1  0  0  0  0
  3  5  2  0  0  0  0
  4  9  2  0  0  0  0
  4  6  1  0  0  0  0
  5 10  1  0  0  0  0
  5  9  1  0  0  0  0
  6  1  2  0  0  0  0
  7 22  1  0  0  0  0
  8  7  2  0  0  0  0
  8 12  1  0  0  0  0
  9  8  1  0  0  0  0
 11 10  1  0  0  0  0
 13 12  1  6  0  0  0
 13 14  1  0  0  0  0
 14 15  1  0  0  0  0
 16 17  2  0  0  0  0
 16 13  1  0  0  0  0
 17 18  1  0  0  0  0
 18 19  1  6  0  0  0
 18 15  1  0  0  0  0
 21 20  1  0  0  0  0
 21 19  1  0  0  0  0
 22 24  1  0  0  0  0
 23 24  2  0  0  0  0
 24 25  1  0  0  0  0
 25 26  1  0  0  0  0
M  END
>  <MODEL>
9

>  <REMARK>
 VINA RESULT:      -7.1      2.520      5.995
  Name = 
  8 active torsions:
  status: ('A' for Active; 'I' for Inactive)
    1  A    between atoms: O_4  and  C_17
    2  A    between atoms: O_6  and  C_23
    3  A    between atoms: O_6  and  C_25
    4  A    between atoms: C_7  and  N_21
    5  A    between atoms: C_11  and  N_13
    6  A    between atoms: C_17  and  C_22
    7  A    between atoms: C_20  and  C_22
    8  A    between atoms: N_21  and  C_24
                            x       y       z     vdW  Elec       q    Type
                         _______ _______ _______ _____ _____    ______ ____

>  <TORSDO>
F 8

$$$$
