=
 OpenBabel11042411113D

 54 59  0  0  1  0  0  0  0  0999 V2000
  183.8440  177.3900  139.1530 C   0  0  0  0  0  2  0  0  0  0  0  0
  185.2690  172.4210  135.2530 N   0  0  0  0  0  2  0  0  0  0  0  0
  185.9870  173.6120  135.6960 C   0  0  1  0  0  3  0  0  0  0  0  0
  182.9160  174.1930  136.6700 N   0  0  0  0  0  0  0  0  0  0  0  0
  187.6680  174.5250  137.2940 C   0  0  0  0  0  2  0  0  0  0  0  0
  180.8670  176.4490  140.1620 C   0  0  2  0  0  3  0  0  0  0  0  0
  180.6940  172.3620  134.9610 C   0  0  0  0  0  1  0  0  0  0  0  0
  184.4540  178.0970  137.9350 C   0  0  2  0  0  3  0  0  0  0  0  0
  181.0950  172.8590  137.3030 N   0  0  0  0  0  2  0  0  0  0  0  0
  182.7730  178.2070  139.9140 C   0  0  2  0  0  0  0  0  0  0  0  0
  182.8100  180.0410  138.1120 C   0  0  0  0  0  2  0  0  0  0  0  0
  186.4830  178.7780  137.2890 C   0  0  0  0  0  2  0  0  0  0  0  0
  181.7560  174.6520  138.7070 C   0  0  0  0  0  0  0  0  0  0  0  0
  186.8080  173.3150  136.9470 C   0  0  0  0  0  2  0  0  0  0  0  0
  181.6670  172.2370  136.1170 C   0  0  2  0  0  3  0  0  0  0  0  0
  184.1500  172.1630  136.1550 C   0  0  0  0  0  2  0  0  0  0  0  0
  188.4370  177.5620  136.3850 C   0  0  0  0  0  2  0  0  0  0  0  0
  189.4140  173.9890  135.7270 O   0  0  0  0  0  1  0  0  0  0  0  0
  185.5550  178.8680  138.3350 O   0  0  0  0  0  0  0  0  0  0  0  0
  181.8270  174.0380  137.5570 C   0  0  0  0  0  0  0  0  0  0  0  0
  181.3730  177.7300  139.4790 C   0  0  0  0  0  2  0  0  0  0  0  0
  183.4100  178.9550  137.2120 C   0  0  0  0  0  2  0  0  0  0  0  0
  187.4620  177.6470  137.5470 C   0  0  0  0  0  2  0  0  0  0  0  0
  188.4830  174.9820  136.0680 C   0  0  1  0  0  0  0  0  0  0  0  0
  182.9490  173.0270  135.7950 C   0  0  2  0  0  3  0  0  0  0  0  0
  181.6900  175.2240  139.8810 C   0  0  0  0  0  3  0  0  0  0  0  0
  182.8870  179.7100  139.6050 C   0  0  0  0  0  2  0  0  0  0  0  0
  186.9410  174.0580  134.5940 C   0  0  0  0  0  2  0  0  0  0  0  0
  183.3620  175.4980  136.2140 C   0  0  0  0  0  1  0  0  0  0  0  0
  187.6190  175.2400  134.9680 O   0  0  0  0  0  0  0  0  0  0  0  0
  189.2660  176.2730  136.3840 C   0  0  2  0  0  3  0  0  0  0  0  0
  178.9310  174.8060  140.2580 C   0  0  0  0  0  1  0  0  0  0  0  0
  179.3670  176.2310  139.9530 C   0  0  0  0  0  2  0  0  0  0  0  0
  189.8570  175.8150  138.6370 O   0  0  0  0  0  0  0  0  0  0  0  0
  190.2330  176.1770  137.5320 C   0  0  0  0  0  0  0  0  0  0  0  0
  191.6680  176.5330  137.3100 C   0  0  0  0  0  2  0  0  0  0  0  0
  192.5440  175.8410  138.3380 C   0  0  0  0  0  1  0  0  0  0  0  0
  182.9460  178.0290  141.4290 C   0  0  0  0  0  2  0  0  0  0  0  0
  184.3500  178.3770  141.9180 C   0  0  0  0  0  2  0  0  0  0  0  0
  184.3890  178.3340  143.3720 N   0  0  0  0  0  2  0  0  0  0  0  0
  185.5690  178.4630  145.3610 O   0  0  0  0  0  0  0  0  0  0  0  0
  185.5950  178.1950  144.1320 C   0  0  0  0  0  0  0  0  0  0  0  0
  187.1950  178.1440  142.3710 O   0  0  0  0  0  0  0  0  0  0  0  0
  186.8620  177.7470  143.5190 C   0  0  0  0  0  0  0  0  0  0  0  0
  187.7720  176.8100  144.2540 C   0  0  0  0  0  2  0  0  0  0  0  0
  188.3330  178.1420  146.3230 C   0  0  0  0  0  2  0  0  0  0  0  0
  189.4800  178.5970  144.2180 N   0  0  0  0  0  2  0  0  0  0  0  0
  190.1580  176.6890  146.9290 C   0  0  0  0  0  2  0  0  0  0  0  0
  190.5610  177.9930  143.4550 C   0  0  0  0  0  2  0  0  0  0  0  0
  189.1640  178.1560  148.6660 C   0  0  0  0  0  1  0  0  0  0  0  0
  188.8760  177.2930  147.4540 C   0  0  1  0  0  3  0  0  0  0  0  0
  191.4820  176.8900  144.5540 S   0  0  0  0  0  0  0  0  0  0  0  0
  188.8770  177.5410  145.0310 C   0  0  2  0  0  0  0  0  0  0  0  0
  189.9450  176.5310  145.4380 C   0  0  2  0  0  3  0  0  0  0  0  0
  1 10  1  0  0  0  0
  2  3  1  0  0  0  0
  2 16  1  0  0  0  0
  3 28  1  6  0  0  0
  3 14  1  0  0  0  0
  4 20  1  0  0  0  0
  6 33  1  6  0  0  0
  8 22  1  1  0  0  0
  8 19  1  0  0  0  0
  8  1  1  0  0  0  0
  9 20  1  0  0  0  0
 10 38  1  1  0  0  0
 11 27  1  0  0  0  0
 12 23  1  0  0  0  0
 12 19  1  0  0  0  0
 13 26  2  0  0  0  0
 14  5  1  0  0  0  0
 15  7  1  6  0  0  0
 15  9  1  0  0  0  0
 17 23  1  0  0  0  0
 20 13  2  0  0  0  0
 21 10  1  0  0  0  0
 21  6  1  0  0  0  0
 22 11  1  0  0  0  0
 24 18  1  6  0  0  0
 24 31  1  0  0  0  0
 24  5  1  0  0  0  0
 25 15  1  0  0  0  0
 25 16  1  1  0  0  0
 25  4  1  0  0  0  0
 26  6  1  0  0  0  0
 27 10  1  0  0  0  0
 28 30  1  0  0  0  0
 29  4  1  0  0  0  0
 30 24  1  0  0  0  0
 31 17  1  0  0  0  0
 31 35  1  1  0  0  0
 33 32  1  0  0  0  0
 35 34  2  0  0  0  0
 36 35  1  0  0  0  0
 36 37  1  0  0  0  0
 38 39  1  0  0  0  0
 39 40  1  0  0  0  0
 40 42  1  0  0  0  0
 42 41  2  0  0  0  0
 43 44  2  0  0  0  0
 44 42  1  0  0  0  0
 44 45  1  0  0  0  0
 46 51  1  0  0  0  0
 47 53  1  0  0  0  0
 48 51  1  0  0  0  0
 49 47  1  0  0  0  0
 49 52  1  0  0  0  0
 51 50  1  1  0  0  0
 52 54  1  0  0  0  0
 53 45  1  6  0  0  0
 53 54  1  0  0  0  0
 53 46  1  0  0  0  0
 54 48  1  1  0  0  0
M  END
>  <MODEL>
1

>  <REMARK>
 VINA RESULT:      -7.1      0.000      0.000
  Name = 
  9 active torsions:
  status: ('A' for Active; 'I' for Inactive)
    1  A    between atoms: N_1  and  C_45
    2  A    between atoms: C_2  and  C_18
    3  A    between atoms: C_2  and  C_45
    4  A    between atoms: C_8  and  C_36
    5  A    between atoms: C_13  and  C_50
    6  A    between atoms: C_38  and  C_39
    7  A    between atoms: C_39  and  C_41
    8  A    between atoms: C_41  and  C_48
    9  A    between atoms: C_50  and  C_53
                            x       y       z     vdW  Elec       q    Type
                         _______ _______ _______ _____ _____    ______ ____

>  <TORSDO>
F 9

$$$$
=
 OpenBabel11042411113D

 54 59  0  0  1  0  0  0  0  0999 V2000
  187.8550  176.9970  138.6820 C   0  0  0  0  0  2  0  0  0  0  0  0
  181.9570  177.9490  141.1800 N   0  0  0  0  0  2  0  0  0  0  0  0
  182.4610  177.5760  139.8620 C   0  0  1  0  0  3  0  0  0  0  0  0
  185.1620  178.5330  141.4470 N   0  0  0  0  0  0  0  0  0  0  0  0
  182.9110  175.6960  138.2900 C   0  0  0  0  0  2  0  0  0  0  0  0
  189.6640  177.4280  141.3860 C   0  0  2  0  0  3  0  0  0  0  0  0
  184.4500  180.5090  144.0540 C   0  0  0  0  0  1  0  0  0  0  0  0
  187.1880  177.8760  137.6160 C   0  0  2  0  0  3  0  0  0  0  0  0
  185.8510  178.5600  143.6870 N   0  0  0  0  0  2  0  0  0  0  0  0
  189.3870  177.1720  138.8080 C   0  0  2  0  0  0  0  0  0  0  0  0
  189.3540  179.1480  137.1630 C   0  0  0  0  0  2  0  0  0  0  0  0
  186.0020  177.5600  135.7470 C   0  0  0  0  0  2  0  0  0  0  0  0
  187.2850  177.6180  142.0500 C   0  0  0  0  0  0  0  0  0  0  0  0
  182.5350  176.0590  139.7220 C   0  0  0  0  0  2  0  0  0  0  0  0
  184.4760  179.0410  143.6740 C   0  0  2  0  0  3  0  0  0  0  0  0
  182.9930  177.7180  142.1820 C   0  0  0  0  0  2  0  0  0  0  0  0
  183.6420  176.9310  135.3600 C   0  0  0  0  0  2  0  0  0  0  0  0
  180.6730  175.9080  137.4320 O   0  0  0  0  0  1  0  0  0  0  0  0
  187.2060  177.2170  136.3780 O   0  0  0  0  0  0  0  0  0  0  0  0
  186.2300  178.3280  142.3480 C   0  0  0  0  0  0  0  0  0  0  0  0
  189.6920  178.0980  140.0030 C   0  0  0  0  0  2  0  0  0  0  0  0
  187.8670  179.2460  137.5230 C   0  0  0  0  0  2  0  0  0  0  0  0
  184.9370  176.5170  136.0380 C   0  0  0  0  0  2  0  0  0  0  0  0
  181.9780  176.4020  137.2870 C   0  0  1  0  0  0  0  0  0  0  0  0
  183.9800  178.8780  142.2260 C   0  0  2  0  0  3  0  0  0  0  0  0
  188.3260  176.8730  141.7840 C   0  0  0  0  0  3  0  0  0  0  0  0
  189.9870  177.8060  137.5420 C   0  0  0  0  0  2  0  0  0  0  0  0
  181.5120  178.1080  138.7950 C   0  0  0  0  0  2  0  0  0  0  0  0
  185.3700  179.0570  140.1080 C   0  0  0  0  0  1  0  0  0  0  0  0
  181.9950  177.8080  137.5020 O   0  0  0  0  0  0  0  0  0  0  0  0
  182.4280  176.1270  135.8370 C   0  0  2  0  0  3  0  0  0  0  0  0
  191.3560  177.5570  143.2780 C   0  0  0  0  0  1  0  0  0  0  0  0
  190.3030  178.3000  142.4680 C   0  0  0  0  0  2  0  0  0  0  0  0
  183.4320  173.9790  135.7190 O   0  0  0  0  0  0  0  0  0  0  0  0
  182.4690  174.6770  135.4380 C   0  0  0  0  0  0  0  0  0  0  0  0
  181.3150  174.0940  134.6870 C   0  0  0  0  0  2  0  0  0  0  0  0
  181.0400  172.6810  135.1660 C   0  0  0  0  0  1  0  0  0  0  0  0
  190.0620  175.8080  139.0110 C   0  0  0  0  0  2  0  0  0  0  0  0
  191.1790  175.5350  138.0070 C   0  0  0  0  0  2  0  0  0  0  0  0
  190.9610  174.2460  137.3680 N   0  0  0  0  0  2  0  0  0  0  0  0
  191.6300  172.5890  135.8940 O   0  0  0  0  0  0  0  0  0  0  0  0
  191.6620  173.8090  136.1970 C   0  0  0  0  0  0  0  0  0  0  0  0
  191.8470  175.7460  134.8260 O   0  0  0  0  0  0  0  0  0  0  0  0
  192.4160  174.7460  135.3390 C   0  0  0  0  0  0  0  0  0  0  0  0
  193.8720  174.5200  135.0650 C   0  0  0  0  0  2  0  0  0  0  0  0
  194.5960  174.8600  137.4580 C   0  0  0  0  0  2  0  0  0  0  0  0
  194.5330  176.7460  135.9120 N   0  0  0  0  0  2  0  0  0  0  0  0
  196.9330  174.5900  136.9330 C   0  0  0  0  0  2  0  0  0  0  0  0
  195.3740  177.2600  134.8420 C   0  0  0  0  0  2  0  0  0  0  0  0
  196.1890  174.3030  139.2830 C   0  0  0  0  0  1  0  0  0  0  0  0
  195.8320  174.0680  137.8290 C   0  0  1  0  0  3  0  0  0  0  0  0
  197.0140  176.5160  135.0040 S   0  0  0  0  0  0  0  0  0  0  0  0
  194.7860  175.3090  136.0130 C   0  0  2  0  0  0  0  0  0  0  0  0
  196.2390  175.0150  135.6550 C   0  0  2  0  0  3  0  0  0  0  0  0
  1 10  1  0  0  0  0
  2 16  1  0  0  0  0
  3 28  1  6  0  0  0
  3  2  1  0  0  0  0
  4 25  1  0  0  0  0
  4 20  1  0  0  0  0
  5 14  1  0  0  0  0
  6 26  1  0  0  0  0
  6 33  1  1  0  0  0
  8 22  1  6  0  0  0
  8  1  1  0  0  0  0
 10 38  1  1  0  0  0
 10 21  1  0  0  0  0
 11 22  1  0  0  0  0
 11 27  1  0  0  0  0
 12 23  1  0  0  0  0
 12 19  1  0  0  0  0
 13 20  2  0  0  0  0
 14  3  1  0  0  0  0
 15  9  1  0  0  0  0
 15  7  1  6  0  0  0
 17 31  1  0  0  0  0
 17 23  1  0  0  0  0
 19  8  1  0  0  0  0
 20  9  1  0  0  0  0
 21  6  1  0  0  0  0
 24 18  1  1  0  0  0
 24 30  1  0  0  0  0
 24  5  1  0  0  0  0
 25 16  1  1  0  0  0
 25 15  1  0  0  0  0
 26 13  2  0  0  0  0
 27 10  1  0  0  0  0
 29  4  1  0  0  0  0
 30 28  1  0  0  0  0
 31 35  1  1  0  0  0
 31 24  1  0  0  0  0
 33 32  1  0  0  0  0
 35 34  2  0  0  0  0
 36 37  1  0  0  0  0
 36 35  1  0  0  0  0
 39 38  1  0  0  0  0
 40 39  1  0  0  0  0
 41 42  2  0  0  0  0
 42 40  1  0  0  0  0
 43 44  2  0  0  0  0
 44 42  1  0  0  0  0
 45 44  1  0  0  0  0
 46 51  1  0  0  0  0
 47 53  1  0  0  0  0
 48 51  1  0  0  0  0
 49 52  1  0  0  0  0
 49 47  1  0  0  0  0
 51 50  1  1  0  0  0
 52 54  1  0  0  0  0
 53 45  1  6  0  0  0
 53 46  1  0  0  0  0
 54 53  1  0  0  0  0
 54 48  1  1  0  0  0
M  END
>  <MODEL>
2

>  <REMARK>
 VINA RESULT:      -6.4      3.531      8.912
  Name = 
  9 active torsions:
  status: ('A' for Active; 'I' for Inactive)
    1  A    between atoms: N_1  and  C_45
    2  A    between atoms: C_2  and  C_18
    3  A    between atoms: C_2  and  C_45
    4  A    between atoms: C_8  and  C_36
    5  A    between atoms: C_13  and  C_50
    6  A    between atoms: C_38  and  C_39
    7  A    between atoms: C_39  and  C_41
    8  A    between atoms: C_41  and  C_48
    9  A    between atoms: C_50  and  C_53
                            x       y       z     vdW  Elec       q    Type
                         _______ _______ _______ _____ _____    ______ ____

>  <TORSDO>
F 9

$$$$
=
 OpenBabel11042411113D

 54 59  0  0  1  0  0  0  0  0999 V2000
  184.3240  177.2070  139.7980 C   0  0  0  0  0  2  0  0  0  0  0  0
  190.7710  176.7770  140.2300 N   0  0  0  0  0  2  0  0  0  0  0  0
  189.7120  177.2060  141.1380 C   0  0  1  0  0  3  0  0  0  0  0  0
  188.1740  176.9850  138.2560 N   0  0  0  0  0  0  0  0  0  0  0  0
  188.2420  176.5470  143.0390 C   0  0  0  0  0  2  0  0  0  0  0  0
  183.8980  175.9480  136.7980 C   0  0  2  0  0  3  0  0  0  0  0  0
  190.3110  177.1410  135.6820 C   0  0  0  0  0  1  0  0  0  0  0  0
  184.7000  178.5620  140.4130 C   0  0  2  0  0  3  0  0  0  0  0  0
  188.4610  175.7010  136.3150 N   0  0  0  0  0  2  0  0  0  0  0  0
  183.0580  177.2210  138.9100 C   0  0  2  0  0  0  0  0  0  0  0  0
  182.9020  179.7830  139.0760 C   0  0  0  0  0  2  0  0  0  0  0  0
  184.9330  179.4140  142.4670 C   0  0  0  0  0  2  0  0  0  0  0  0
  186.3150  175.8120  137.3200 C   0  0  0  0  0  0  0  0  0  0  0  0
  189.2300  176.0400  141.9950 C   0  0  0  0  0  2  0  0  0  0  0  0
  189.7890  176.1540  136.7080 C   0  0  2  0  0  3  0  0  0  0  0  0
  190.1960  175.9770  139.1530 C   0  0  0  0  0  2  0  0  0  0  0  0
  186.7230  179.2070  144.1610 C   0  0  0  0  0  2  0  0  0  0  0  0
  189.9360  177.2940  144.5760 O   0  0  0  0  0  1  0  0  0  0  0  0
  184.0360  178.7280  141.6370 O   0  0  0  0  0  0  0  0  0  0  0  0
  187.5380  176.2630  137.2220 C   0  0  0  0  0  0  0  0  0  0  0  0
  183.4820  177.2870  137.4290 C   0  0  0  0  0  2  0  0  0  0  0  0
  184.3860  179.7130  139.4520 C   0  0  0  0  0  2  0  0  0  0  0  0
  185.7460  178.4330  143.2930 C   0  0  0  0  0  2  0  0  0  0  0  0
  188.8380  177.7340  143.8220 C   0  0  1  0  0  0  0  0  0  0  0  0
  189.6140  176.8660  138.0620 C   0  0  2  0  0  3  0  0  0  0  0  0
  185.1100  175.3150  137.4190 C   0  0  0  0  0  3  0  0  0  0  0  0
  182.1730  178.4420  139.2110 C   0  0  0  0  0  2  0  0  0  0  0  0
  190.2560  178.2880  142.0640 C   0  0  0  0  0  2  0  0  0  0  0  0
  187.5820  178.1720  138.8480 C   0  0  0  0  0  1  0  0  0  0  0  0
  189.2420  178.7620  142.9270 O   0  0  0  0  0  0  0  0  0  0  0  0
  187.7980  178.3200  144.7980 C   0  0  2  0  0  3  0  0  0  0  0  0
  183.7380  177.4260  134.7370 C   0  0  0  0  0  1  0  0  0  0  0  0
  183.9680  176.0200  135.2720 C   0  0  0  0  0  2  0  0  0  0  0  0
  186.1640  176.8370  145.6730 O   0  0  0  0  0  0  0  0  0  0  0  0
  187.2590  177.3590  145.8220 C   0  0  0  0  0  0  0  0  0  0  0  0
  188.0790  177.0460  147.0320 C   0  0  0  0  0  2  0  0  0  0  0  0
  187.9200  178.1430  148.0690 C   0  0  0  0  0  1  0  0  0  0  0  0
  182.2160  175.9620  139.1640 C   0  0  0  0  0  2  0  0  0  0  0  0
  180.7290  176.2590  139.3320 C   0  0  0  0  0  2  0  0  0  0  0  0
  180.1170  175.2400  140.1720 N   0  0  0  0  0  2  0  0  0  0  0  0
  179.3680  173.0700  140.4860 O   0  0  0  0  0  0  0  0  0  0  0  0
  179.6020  174.0000  139.6720 C   0  0  0  0  0  0  0  0  0  0  0  0
  179.0780  174.7550  137.4760 O   0  0  0  0  0  0  0  0  0  0  0  0
  179.3370  173.7830  138.2350 C   0  0  0  0  0  0  0  0  0  0  0  0
  179.3720  172.4000  137.6570 C   0  0  0  0  0  2  0  0  0  0  0  0
  181.6760  172.9160  136.7670 C   0  0  0  0  0  2  0  0  0  0  0  0
  179.7520  172.9040  135.2670 N   0  0  0  0  0  2  0  0  0  0  0  0
  182.0960  170.6260  136.1420 C   0  0  0  0  0  2  0  0  0  0  0  0
  178.9460  171.8980  134.5940 C   0  0  0  0  0  2  0  0  0  0  0  0
  184.0210  172.1690  136.4130 C   0  0  0  0  0  1  0  0  0  0  0  0
  182.6570  171.7760  136.9460 C   0  0  1  0  0  3  0  0  0  0  0  0
  179.8680  170.3420  134.5950 S   0  0  0  0  0  0  0  0  0  0  0  0
  180.3240  172.2800  136.4590 C   0  0  2  0  0  0  0  0  0  0  0  0
  180.5920  170.8030  136.1880 C   0  0  2  0  0  3  0  0  0  0  0  0
  1  8  1  0  0  0  0
  2  3  1  0  0  0  0
  3 14  1  1  0  0  0
  3 28  1  0  0  0  0
  4 29  1  0  0  0  0
  5 24  1  0  0  0  0
  6 33  1  6  0  0  0
  6 26  1  0  0  0  0
  6 21  1  0  0  0  0
  8 22  1  6  0  0  0
  8 19  1  0  0  0  0
  9 15  1  0  0  0  0
  9 20  1  0  0  0  0
 10 38  1  1  0  0  0
 10 27  1  0  0  0  0
 10  1  1  0  0  0  0
 11 27  1  0  0  0  0
 11 22  1  0  0  0  0
 12 23  1  0  0  0  0
 13 26  2  0  0  0  0
 14  5  1  0  0  0  0
 15  7  1  6  0  0  0
 15 25  1  0  0  0  0
 16  2  1  0  0  0  0
 17 31  1  0  0  0  0
 19 12  1  0  0  0  0
 20 13  2  0  0  0  0
 20  4  1  0  0  0  0
 21 10  1  0  0  0  0
 23 17  1  0  0  0  0
 24 18  1  1  0  0  0
 24 31  1  0  0  0  0
 25  4  1  0  0  0  0
 25 16  1  1  0  0  0
 28 30  1  0  0  0  0
 30 24  1  0  0  0  0
 31 35  1  6  0  0  0
 32 33  1  0  0  0  0
 34 35  2  0  0  0  0
 35 36  1  0  0  0  0
 36 37  1  0  0  0  0
 38 39  1  0  0  0  0
 39 40  1  0  0  0  0
 42 40  1  0  0  0  0
 42 41  2  0  0  0  0
 43 44  2  0  0  0  0
 44 42  1  0  0  0  0
 45 44  1  0  0  0  0
 46 51  1  0  0  0  0
 47 53  1  0  0  0  0
 48 51  1  0  0  0  0
 49 52  1  0  0  0  0
 49 47  1  0  0  0  0
 51 50  1  6  0  0  0
 52 54  1  0  0  0  0
 53 46  1  0  0  0  0
 53 45  1  1  0  0  0
 54 48  1  6  0  0  0
 54 53  1  0  0  0  0
M  END
>  <MODEL>
3

>  <REMARK>
 VINA RESULT:      -6.4      3.535      8.891
  Name = 
  9 active torsions:
  status: ('A' for Active; 'I' for Inactive)
    1  A    between atoms: N_1  and  C_45
    2  A    between atoms: C_2  and  C_18
    3  A    between atoms: C_2  and  C_45
    4  A    between atoms: C_8  and  C_36
    5  A    between atoms: C_13  and  C_50
    6  A    between atoms: C_38  and  C_39
    7  A    between atoms: C_39  and  C_41
    8  A    between atoms: C_41  and  C_48
    9  A    between atoms: C_50  and  C_53
                            x       y       z     vdW  Elec       q    Type
                         _______ _______ _______ _____ _____    ______ ____

>  <TORSDO>
F 9

$$$$
=
 OpenBabel11042411113D

 54 59  0  0  1  0  0  0  0  0999 V2000
  185.3370  178.4820  137.7420 C   0  0  0  0  0  2  0  0  0  0  0  0
  179.7280  176.7620  135.0000 N   0  0  0  0  0  2  0  0  0  0  0  0
  180.2150  177.9680  135.6630 C   0  0  1  0  0  3  0  0  0  0  0  0
  182.5260  175.7560  136.3560 N   0  0  0  0  0  0  0  0  0  0  0  0
  181.1640  180.2500  135.3430 C   0  0  0  0  0  2  0  0  0  0  0  0
  187.1030  175.7940  137.0920 C   0  0  2  0  0  3  0  0  0  0  0  0
  181.3890  172.6210  136.0540 C   0  0  0  0  0  1  0  0  0  0  0  0
  184.3100  178.9350  138.7890 C   0  0  2  0  0  3  0  0  0  0  0  0
  183.3530  173.8330  135.3000 N   0  0  0  0  0  2  0  0  0  0  0  0
  186.7110  178.0610  138.3130 C   0  0  2  0  0  0  0  0  0  0  0  0
  185.8340  178.2630  140.7230 C   0  0  0  0  0  2  0  0  0  0  0  0
  183.1560  180.7940  139.2450 C   0  0  0  0  0  2  0  0  0  0  0  0
  184.8800  175.4890  136.0430 C   0  0  0  0  0  0  0  0  0  0  0  0
  180.8110  178.9390  134.6490 C   0  0  0  0  0  2  0  0  0  0  0  0
  181.9010  173.7640  135.2000 C   0  0  2  0  0  3  0  0  0  0  0  0
  180.8620  175.9380  134.5940 C   0  0  0  0  0  2  0  0  0  0  0  0
  181.1490  181.8030  138.2120 C   0  0  0  0  0  2  0  0  0  0  0  0
  178.9310  181.1400  135.2460 O   0  0  0  0  0  1  0  0  0  0  0  0
  184.4530  180.3090  139.0300 O   0  0  0  0  0  0  0  0  0  0  0  0
  183.6720  174.9920  136.0380 C   0  0  0  0  0  0  0  0  0  0  0  0
  186.7690  176.5230  138.4040 C   0  0  0  0  0  2  0  0  0  0  0  0
  184.4470  178.1280  140.0840 C   0  0  0  0  0  2  0  0  0  0  0  0
  182.5610  181.3080  137.9470 C   0  0  0  0  0  2  0  0  0  0  0  0
  179.9570  180.7880  136.1360 C   0  0  1  0  0  0  0  0  0  0  0  0
  181.3710  175.0980  135.7580 C   0  0  2  0  0  3  0  0  0  0  0  0
  186.0900  175.9810  135.9990 C   0  0  0  0  0  3  0  0  0  0  0  0
  186.9340  178.6350  139.7230 C   0  0  0  0  0  2  0  0  0  0  0  0
  179.0480  178.6600  136.3590 C   0  0  0  0  0  2  0  0  0  0  0  0
  182.4160  176.5070  137.5940 C   0  0  0  0  0  1  0  0  0  0  0  0
  179.4920  179.8080  137.0540 O   0  0  0  0  0  0  0  0  0  0  0  0
  180.3460  182.0520  136.9300 C   0  0  2  0  0  3  0  0  0  0  0  0
  188.4540  173.8030  136.2750 C   0  0  0  0  0  1  0  0  0  0  0  0
  187.4830  174.3300  137.3200 C   0  0  0  0  0  2  0  0  0  0  0  0
  181.1070  183.0540  134.9160 O   0  0  0  0  0  0  0  0  0  0  0  0
  180.8650  183.1990  136.1050 C   0  0  0  0  0  0  0  0  0  0  0  0
  181.0850  184.5250  136.7580 C   0  0  0  0  0  2  0  0  0  0  0  0
  179.8360  184.9560  137.5030 C   0  0  0  0  0  1  0  0  0  0  0  0
  187.8420  178.5820  137.4150 C   0  0  0  0  0  2  0  0  0  0  0  0
  189.1920  178.6430  138.1240 C   0  0  0  0  0  2  0  0  0  0  0  0
  189.7950  177.3190  138.1470 N   0  0  0  0  0  2  0  0  0  0  0  0
  190.5970  175.4900  139.3220 O   0  0  0  0  0  0  0  0  0  0  0  0
  190.3730  176.7280  139.3180 C   0  0  0  0  0  0  0  0  0  0  0  0
  191.9000  177.8830  140.7310 O   0  0  0  0  0  0  0  0  0  0  0  0
  190.7120  177.5260  140.5140 C   0  0  0  0  0  0  0  0  0  0  0  0
  189.6450  177.9220  141.4890 C   0  0  0  0  0  2  0  0  0  0  0  0
  190.6330  175.9030  142.6360 C   0  0  0  0  0  2  0  0  0  0  0  0
  188.2190  176.2520  142.6220 N   0  0  0  0  0  2  0  0  0  0  0  0
  190.7140  176.9920  144.7840 C   0  0  0  0  0  2  0  0  0  0  0  0
  187.2700  177.0790  143.3500 C   0  0  0  0  0  2  0  0  0  0  0  0
  192.1380  174.9970  144.3950 C   0  0  0  0  0  1  0  0  0  0  0  0
  191.5660  176.2570  143.7750 C   0  0  1  0  0  3  0  0  0  0  0  0
  188.0750  177.6740  144.8560 S   0  0  0  0  0  0  0  0  0  0  0  0
  189.5110  176.9350  142.6580 C   0  0  2  0  0  0  0  0  0  0  0  0
  189.6530  177.7010  143.9690 C   0  0  2  0  0  3  0  0  0  0  0  0
  1 10  1  0  0  0  0
  2  3  1  0  0  0  0
  3 14  1  6  0  0  0
  3 28  1  0  0  0  0
  4 29  1  0  0  0  0
  5 24  1  0  0  0  0
  6 33  1  1  0  0  0
  6 21  1  0  0  0  0
  8  1  1  6  0  0  0
  8 19  1  0  0  0  0
  8 22  1  0  0  0  0
  9 20  1  0  0  0  0
 10 38  1  6  0  0  0
 10 21  1  0  0  0  0
 10 27  1  0  0  0  0
 14  5  1  0  0  0  0
 15  9  1  0  0  0  0
 15 25  1  0  0  0  0
 15  7  1  1  0  0  0
 16  2  1  0  0  0  0
 19 12  1  0  0  0  0
 20 13  2  0  0  0  0
 20  4  1  0  0  0  0
 22 11  1  0  0  0  0
 23 17  1  0  0  0  0
 23 12  1  0  0  0  0
 24 18  1  6  0  0  0
 24 31  1  0  0  0  0
 24 30  1  0  0  0  0
 25 16  1  6  0  0  0
 25  4  1  0  0  0  0
 26 13  2  0  0  0  0
 26  6  1  0  0  0  0
 27 11  1  0  0  0  0
 28 30  1  0  0  0  0
 31 35  1  6  0  0  0
 31 17  1  0  0  0  0
 32 33  1  0  0  0  0
 34 35  2  0  0  0  0
 35 36  1  0  0  0  0
 36 37  1  0  0  0  0
 38 39  1  0  0  0  0
 39 40  1  0  0  0  0
 40 42  1  0  0  0  0
 42 41  2  0  0  0  0
 42 44  1  0  0  0  0
 44 43  2  0  0  0  0
 44 45  1  0  0  0  0
 46 53  1  0  0  0  0
 46 51  1  0  0  0  0
 47 53  1  0  0  0  0
 47 49  1  0  0  0  0
 49 52  1  0  0  0  0
 51 50  1  1  0  0  0
 51 48  1  0  0  0  0
 53 45  1  6  0  0  0
 53 54  1  0  0  0  0
 54 48  1  1  0  0  0
 54 52  1  0  0  0  0
M  END
>  <MODEL>
4

>  <REMARK>
 VINA RESULT:      -6.0      3.063      6.870
  Name = 
  9 active torsions:
  status: ('A' for Active; 'I' for Inactive)
    1  A    between atoms: N_1  and  C_45
    2  A    between atoms: C_2  and  C_18
    3  A    between atoms: C_2  and  C_45
    4  A    between atoms: C_8  and  C_36
    5  A    between atoms: C_13  and  C_50
    6  A    between atoms: C_38  and  C_39
    7  A    between atoms: C_39  and  C_41
    8  A    between atoms: C_41  and  C_48
    9  A    between atoms: C_50  and  C_53
                            x       y       z     vdW  Elec       q    Type
                         _______ _______ _______ _____ _____    ______ ____

>  <TORSDO>
F 9

$$$$
=
 OpenBabel11042411113D

 54 59  0  0  1  0  0  0  0  0999 V2000
  187.9460  176.8850  138.5190 C   0  0  0  0  0  2  0  0  0  0  0  0
  182.2160  178.0200  141.3140 N   0  0  0  0  0  2  0  0  0  0  0  0
  182.6400  177.6300  139.9730 C   0  0  1  0  0  3  0  0  0  0  0  0
  185.4470  178.5040  141.4150 N   0  0  0  0  0  0  0  0  0  0  0  0
  182.9500  175.7370  138.3840 C   0  0  0  0  0  2  0  0  0  0  0  0
  189.9030  177.2610  141.1260 C   0  0  2  0  0  3  0  0  0  0  0  0
  184.9300  180.5030  144.0510 C   0  0  0  0  0  1  0  0  0  0  0  0
  187.2520  177.7840  137.4870 C   0  0  2  0  0  3  0  0  0  0  0  0
  186.2500  178.5110  143.6170 N   0  0  0  0  0  2  0  0  0  0  0  0
  189.4870  177.0120  138.5660 C   0  0  2  0  0  0  0  0  0  0  0  0
  189.4300  178.9880  136.9210 C   0  0  0  0  0  2  0  0  0  0  0  0
  185.9630  177.5030  135.6820 C   0  0  0  0  0  2  0  0  0  0  0  0
  187.5680  177.5240  141.9110 C   0  0  0  0  0  0  0  0  0  0  0  0
  182.6600  176.1120  139.8330 C   0  0  0  0  0  2  0  0  0  0  0  0
  184.8910  179.0350  143.6730 C   0  0  2  0  0  3  0  0  0  0  0  0
  183.2940  177.7580  142.2620 C   0  0  0  0  0  2  0  0  0  0  0  0
  183.5680  176.9480  135.4180 C   0  0  0  0  0  2  0  0  0  0  0  0
  180.6790  176.0180  137.6420 O   0  0  0  0  0  1  0  0  0  0  0  0
  187.1860  177.1240  136.2510 O   0  0  0  0  0  0  0  0  0  0  0  0
  186.5530  178.2680  142.2610 C   0  0  0  0  0  0  0  0  0  0  0  0
  189.8800  177.9300  139.7410 C   0  0  0  0  0  2  0  0  0  0  0  0
  187.9670  179.1320  137.3570 C   0  0  0  0  0  2  0  0  0  0  0  0
  184.8830  176.4940  136.0290 C   0  0  0  0  0  2  0  0  0  0  0  0
  181.9890  176.4710  137.4280 C   0  0  1  0  0  0  0  0  0  0  0  0
  184.3170  178.8860  142.2530 C   0  0  2  0  0  3  0  0  0  0  0  0
  188.5710  176.7480  141.5930 C   0  0  0  0  0  3  0  0  0  0  0  0
  190.0410  177.6270  137.2700 C   0  0  0  0  0  2  0  0  0  0  0  0
  181.6540  178.1920  138.9550 C   0  0  0  0  0  2  0  0  0  0  0  0
  185.6020  179.0210  140.0660 C   0  0  0  0  0  1  0  0  0  0  0  0
  182.0610  177.8750  137.6390 O   0  0  0  0  0  0  0  0  0  0  0  0
  182.3550  176.1820  135.9580 C   0  0  2  0  0  3  0  0  0  0  0  0
  191.4860  177.2860  143.1140 C   0  0  0  0  0  1  0  0  0  0  0  0
  190.6240  178.1130  142.1720 C   0  0  0  0  0  2  0  0  0  0  0  0
  183.3550  174.1610  135.2140 O   0  0  0  0  0  0  0  0  0  0  0  0
  182.3310  174.7310  135.5600 C   0  0  0  0  0  0  0  0  0  0  0  0
  181.0340  173.9880  135.5890 C   0  0  0  0  0  2  0  0  0  0  0  0
  181.0850  172.8110  134.6330 C   0  0  0  0  0  1  0  0  0  0  0  0
  190.1290  175.6280  138.7370 C   0  0  0  0  0  2  0  0  0  0  0  0
  191.4390  175.4750  137.9680 C   0  0  0  0  0  2  0  0  0  0  0  0
  191.3760  174.2940  137.1210 N   0  0  0  0  0  2  0  0  0  0  0  0
  192.4290  172.5890  135.9590 O   0  0  0  0  0  0  0  0  0  0  0  0
  192.5030  173.7580  136.4160 C   0  0  0  0  0  0  0  0  0  0  0  0
  194.0140  175.0260  135.0840 O   0  0  0  0  0  0  0  0  0  0  0  0
  193.7420  174.5360  136.2120 C   0  0  0  0  0  0  0  0  0  0  0  0
  194.6970  174.7540  137.3470 C   0  0  0  0  0  2  0  0  0  0  0  0
  195.4700  172.5350  138.2660 C   0  0  0  0  0  2  0  0  0  0  0  0
  197.0780  174.3210  137.8480 N   0  0  0  0  0  2  0  0  0  0  0  0
  195.9790  171.6530  136.0810 C   0  0  0  0  0  2  0  0  0  0  0  0
  197.7570  174.8780  136.6890 C   0  0  0  0  0  2  0  0  0  0  0  0
  195.6560  170.0740  137.9680 C   0  0  0  0  0  1  0  0  0  0  0  0
  195.1890  171.3710  137.3390 C   0  0  1  0  0  3  0  0  0  0  0  0
  197.6420  173.6820  135.3370 S   0  0  0  0  0  0  0  0  0  0  0  0
  195.8310  173.7200  137.3760 C   0  0  2  0  0  0  0  0  0  0  0  0
  196.0280  173.1630  135.9700 C   0  0  2  0  0  3  0  0  0  0  0  0
  1 10  1  0  0  0  0
  2 16  1  0  0  0  0
  3 28  1  6  0  0  0
  3  2  1  0  0  0  0
  4 25  1  0  0  0  0
  4 20  1  0  0  0  0
  5 14  1  0  0  0  0
  6 26  1  0  0  0  0
  6 33  1  1  0  0  0
  8 22  1  6  0  0  0
  8  1  1  0  0  0  0
  9 15  1  0  0  0  0
 10 38  1  1  0  0  0
 10 21  1  0  0  0  0
 11 27  1  0  0  0  0
 11 22  1  0  0  0  0
 12 23  1  0  0  0  0
 12 19  1  0  0  0  0
 13 20  2  0  0  0  0
 14  3  1  0  0  0  0
 15  7  1  6  0  0  0
 17 31  1  0  0  0  0
 17 23  1  0  0  0  0
 19  8  1  0  0  0  0
 20  9  1  0  0  0  0
 21  6  1  0  0  0  0
 24 30  1  0  0  0  0
 24 18  1  1  0  0  0
 24  5  1  0  0  0  0
 25 16  1  1  0  0  0
 25 15  1  0  0  0  0
 26 13  2  0  0  0  0
 27 10  1  0  0  0  0
 29  4  1  0  0  0  0
 30 28  1  0  0  0  0
 31 35  1  1  0  0  0
 31 24  1  0  0  0  0
 33 32  1  0  0  0  0
 34 35  2  0  0  0  0
 35 36  1  0  0  0  0
 37 36  1  0  0  0  0
 39 38  1  0  0  0  0
 40 39  1  0  0  0  0
 41 42  2  0  0  0  0
 42 40  1  0  0  0  0
 43 44  2  0  0  0  0
 44 42  1  0  0  0  0
 44 45  1  0  0  0  0
 48 51  1  0  0  0  0
 49 47  1  0  0  0  0
 51 50  1  1  0  0  0
 51 46  1  0  0  0  0
 52 54  1  0  0  0  0
 52 49  1  0  0  0  0
 53 45  1  1  0  0  0
 53 47  1  0  0  0  0
 53 46  1  0  0  0  0
 54 48  1  1  0  0  0
 54 53  1  0  0  0  0
M  END
>  <MODEL>
5

>  <REMARK>
 VINA RESULT:      -5.6      3.658      9.188
  Name = 
  9 active torsions:
  status: ('A' for Active; 'I' for Inactive)
    1  A    between atoms: N_1  and  C_45
    2  A    between atoms: C_2  and  C_18
    3  A    between atoms: C_2  and  C_45
    4  A    between atoms: C_8  and  C_36
    5  A    between atoms: C_13  and  C_50
    6  A    between atoms: C_38  and  C_39
    7  A    between atoms: C_39  and  C_41
    8  A    between atoms: C_41  and  C_48
    9  A    between atoms: C_50  and  C_53
                            x       y       z     vdW  Elec       q    Type
                         _______ _______ _______ _____ _____    ______ ____

>  <TORSDO>
F 9

$$$$
=
 OpenBabel11042411113D

 54 59  0  0  1  0  0  0  0  0999 V2000
  186.6770  176.9830  139.0570 C   0  0  0  0  0  2  0  0  0  0  0  0
  180.6320  175.1980  137.5750 N   0  0  0  0  0  2  0  0  0  0  0  0
  181.9500  174.8960  137.0270 C   0  0  1  0  0  3  0  0  0  0  0  0
  182.5450  177.3960  139.0560 N   0  0  0  0  0  0  0  0  0  0  0  0
  183.8300  173.2610  136.9750 C   0  0  0  0  0  2  0  0  0  0  0  0
  186.0680  178.7950  141.7230 C   0  0  2  0  0  3  0  0  0  0  0  0
  179.7800  179.1720  139.6970 C   0  0  0  0  0  1  0  0  0  0  0  0
  186.6480  177.1660  137.5340 C   0  0  2  0  0  3  0  0  0  0  0  0
  181.5650  178.2030  141.0270 N   0  0  0  0  0  2  0  0  0  0  0  0
  187.6230  177.9450  139.8130 C   0  0  2  0  0  0  0  0  0  0  0  0
  188.0990  179.2620  137.6560 C   0  0  0  0  0  2  0  0  0  0  0  0
  187.1200  175.9310  135.7310 C   0  0  0  0  0  2  0  0  0  0  0  0
  183.9090  177.8480  140.9650 C   0  0  0  0  0  0  0  0  0  0  0  0
  182.5300  173.6430  137.6750 C   0  0  0  0  0  2  0  0  0  0  0  0
  180.4680  177.8900  140.1210 C   0  0  2  0  0  3  0  0  0  0  0  0
  180.7760  175.7340  138.9260 C   0  0  0  0  0  2  0  0  0  0  0  0
  185.8920  174.1100  134.5940 C   0  0  0  0  0  2  0  0  0  0  0  0
  182.7520  172.1150  135.1550 O   0  0  0  0  0  1  0  0  0  0  0  0
  187.6550  176.3890  136.9420 O   0  0  0  0  0  0  0  0  0  0  0  0
  182.7680  177.9510  140.3360 C   0  0  0  0  0  0  0  0  0  0  0  0
  186.7940  179.1040  140.4030 C   0  0  0  0  0  2  0  0  0  0  0  0
  186.7910  178.6420  137.1510 C   0  0  0  0  0  2  0  0  0  0  0  0
  186.4820  174.5650  135.9170 C   0  0  0  0  0  2  0  0  0  0  0  0
  183.6220  173.1750  135.4500 C   0  0  1  0  0  0  0  0  0  0  0  0
  181.1070  177.2200  138.8910 C   0  0  2  0  0  3  0  0  0  0  0  0
  185.0280  177.7160  141.6270 C   0  0  0  0  0  3  0  0  0  0  0  0
  188.6850  178.5430  138.8760 C   0  0  0  0  0  2  0  0  0  0  0  0
  181.8220  174.6440  135.5290 C   0  0  0  0  0  2  0  0  0  0  0  0
  183.4100  177.6850  137.9260 C   0  0  0  0  0  1  0  0  0  0  0  0
  183.0900  174.3970  134.9550 O   0  0  0  0  0  0  0  0  0  0  0  0
  184.9600  172.9020  134.7320 C   0  0  2  0  0  3  0  0  0  0  0  0
  184.9290  179.7750  143.7730 C   0  0  0  0  0  1  0  0  0  0  0  0
  185.5640  180.0600  142.4200 C   0  0  0  0  0  2  0  0  0  0  0  0
  185.0610  170.7410  135.7110 O   0  0  0  0  0  0  0  0  0  0  0  0
  185.6660  171.6380  135.1410 C   0  0  0  0  0  0  0  0  0  0  0  0
  187.1230  171.4880  134.8460 C   0  0  0  0  0  2  0  0  0  0  0  0
  187.6330  170.1650  135.3880 C   0  0  0  0  0  1  0  0  0  0  0  0
  188.3590  177.1970  140.9340 C   0  0  0  0  0  2  0  0  0  0  0  0
  189.3700  178.0680  141.6740 C   0  0  0  0  0  2  0  0  0  0  0  0
  190.6620  177.3990  141.7090 N   0  0  0  0  0  2  0  0  0  0  0  0
  192.5160  176.6560  142.8830 O   0  0  0  0  0  0  0  0  0  0  0  0
  191.5750  177.4890  142.8090 C   0  0  0  0  0  0  0  0  0  0  0  0
  192.4290  179.2510  144.1620 O   0  0  0  0  0  0  0  0  0  0  0  0
  191.4460  178.5260  143.8530 C   0  0  0  0  0  0  0  0  0  0  0  0
  190.1420  178.7310  144.5620 C   0  0  0  0  0  2  0  0  0  0  0  0
  190.8930  176.5860  145.6590 C   0  0  0  0  0  2  0  0  0  0  0  0
  188.6660  176.7520  144.6770 N   0  0  0  0  0  2  0  0  0  0  0  0
  189.9280  177.1760  147.7880 C   0  0  0  0  0  2  0  0  0  0  0  0
  187.3860  177.3270  145.0590 C   0  0  0  0  0  2  0  0  0  0  0  0
  191.6860  175.4260  147.7110 C   0  0  0  0  0  1  0  0  0  0  0  0
  191.2190  176.7460  147.1290 C   0  0  1  0  0  3  0  0  0  0  0  0
  187.4110  177.6310  146.8420 S   0  0  0  0  0  0  0  0  0  0  0  0
  189.7080  177.5030  145.3760 C   0  0  2  0  0  0  0  0  0  0  0  0
  189.1860  177.9690  146.7310 C   0  0  2  0  0  3  0  0  0  0  0  0
  1 10  1  0  0  0  0
  2 16  1  0  0  0  0
  3 28  1  6  0  0  0
  3  2  1  0  0  0  0
  3 14  1  0  0  0  0
  4 20  1  0  0  0  0
  5 14  1  0  0  0  0
  6 33  1  6  0  0  0
  8 22  1  1  0  0  0
  8  1  1  0  0  0  0
 10 21  1  0  0  0  0
 10 38  1  1  0  0  0
 11 27  1  0  0  0  0
 12 23  1  0  0  0  0
 12 19  1  0  0  0  0
 13 26  2  0  0  0  0
 15  7  1  6  0  0  0
 15  9  1  0  0  0  0
 17 31  1  0  0  0  0
 17 23  1  0  0  0  0
 19  8  1  0  0  0  0
 20 13  2  0  0  0  0
 20  9  1  0  0  0  0
 21  6  1  0  0  0  0
 22 11  1  0  0  0  0
 24 18  1  6  0  0  0
 24  5  1  0  0  0  0
 25 16  1  1  0  0  0
 25  4  1  0  0  0  0
 25 15  1  0  0  0  0
 26  6  1  0  0  0  0
 27 10  1  0  0  0  0
 29  4  1  0  0  0  0
 30 24  1  0  0  0  0
 30 28  1  0  0  0  0
 31 35  1  1  0  0  0
 31 24  1  0  0  0  0
 33 32  1  0  0  0  0
 35 34  2  0  0  0  0
 36 35  1  0  0  0  0
 36 37  1  0  0  0  0
 38 39  1  0  0  0  0
 39 40  1  0  0  0  0
 40 42  1  0  0  0  0
 42 41  2  0  0  0  0
 42 44  1  0  0  0  0
 44 43  2  0  0  0  0
 44 45  1  0  0  0  0
 46 51  1  0  0  0  0
 47 49  1  0  0  0  0
 47 53  1  0  0  0  0
 49 52  1  0  0  0  0
 51 50  1  1  0  0  0
 51 48  1  0  0  0  0
 53 45  1  6  0  0  0
 53 46  1  0  0  0  0
 53 54  1  0  0  0  0
 54 52  1  0  0  0  0
 54 48  1  1  0  0  0
M  END
>  <MODEL>
6

>  <REMARK>
 VINA RESULT:      -5.4      2.508      5.243
  Name = 
  9 active torsions:
  status: ('A' for Active; 'I' for Inactive)
    1  A    between atoms: N_1  and  C_45
    2  A    between atoms: C_2  and  C_18
    3  A    between atoms: C_2  and  C_45
    4  A    between atoms: C_8  and  C_36
    5  A    between atoms: C_13  and  C_50
    6  A    between atoms: C_38  and  C_39
    7  A    between atoms: C_39  and  C_41
    8  A    between atoms: C_41  and  C_48
    9  A    between atoms: C_50  and  C_53
                            x       y       z     vdW  Elec       q    Type
                         _______ _______ _______ _____ _____    ______ ____

>  <TORSDO>
F 9

$$$$
=
 OpenBabel11042411113D

 54 59  0  0  1  0  0  0  0  0999 V2000
  188.0240  176.9520  138.1240 C   0  0  0  0  0  2  0  0  0  0  0  0
  187.1660  178.6270  144.3190 N   0  0  0  0  0  2  0  0  0  0  0  0
  186.3120  178.6130  143.1360 C   0  0  1  0  0  3  0  0  0  0  0  0
  189.3030  178.1250  141.8980 N   0  0  0  0  0  0  0  0  0  0  0  0
  184.5590  177.3640  141.8800 C   0  0  0  0  0  2  0  0  0  0  0  0
  191.1140  175.8590  138.2820 C   0  0  2  0  0  3  0  0  0  0  0  0
  191.7060  179.1710  143.9800 C   0  0  0  0  0  1  0  0  0  0  0  0
  187.3070  178.3030  137.9990 C   0  0  2  0  0  3  0  0  0  0  0  0
  191.2880  177.1600  142.6850 N   0  0  0  0  0  2  0  0  0  0  0  0
  188.9970  176.6190  136.9680 C   0  0  2  0  0  0  0  0  0  0  0  0
  188.6960  178.9670  135.9630 C   0  0  0  0  0  2  0  0  0  0  0  0
  185.1970  179.0230  137.8390 C   0  0  0  0  0  2  0  0  0  0  0  0
  190.4320  176.4820  140.5800 C   0  0  0  0  0  0  0  0  0  0  0  0
  185.5590  177.2910  143.0290 C   0  0  0  0  0  2  0  0  0  0  0  0
  190.7780  177.9910  143.7670 C   0  0  2  0  0  3  0  0  0  0  0  0
  188.3250  177.7690  144.0940 C   0  0  0  0  0  2  0  0  0  0  0  0
  183.3960  179.2840  139.5130 C   0  0  0  0  0  2  0  0  0  0  0  0
  182.8660  178.5040  143.1550 O   0  0  0  0  0  1  0  0  0  0  0  0
  186.1260  178.1470  137.2600 O   0  0  0  0  0  0  0  0  0  0  0  0
  190.4180  177.3160  141.5860 C   0  0  0  0  0  0  0  0  0  0  0  0
  190.4380  176.9350  137.4160 C   0  0  0  0  0  2  0  0  0  0  0  0
  188.2210  179.3580  137.3670 C   0  0  0  0  0  2  0  0  0  0  0  0
  184.3740  178.3020  138.8910 C   0  0  0  0  0  2  0  0  0  0  0  0
  183.6700  178.6160  142.0110 C   0  0  1  0  0  0  0  0  0  0  0  0
  189.4010  178.5000  143.3020 C   0  0  2  0  0  3  0  0  0  0  0  0
  190.4470  175.6120  139.6050 C   0  0  0  0  0  3  0  0  0  0  0  0
  188.6890  177.4550  135.7140 C   0  0  0  0  0  2  0  0  0  0  0  0
  185.2890  179.7390  143.2460 C   0  0  0  0  0  2  0  0  0  0  0  0
  188.6870  179.0020  140.9170 C   0  0  0  0  0  1  0  0  0  0  0  0
  184.4740  179.7860  142.0920 O   0  0  0  0  0  0  0  0  0  0  0  0
  182.7370  178.7520  140.7900 C   0  0  2  0  0  3  0  0  0  0  0  0
  193.3250  176.0620  137.0450 C   0  0  0  0  0  1  0  0  0  0  0  0
  192.6250  176.0680  138.3960 C   0  0  0  0  0  2  0  0  0  0  0  0
  182.2450  176.5110  140.1820 O   0  0  0  0  0  0  0  0  0  0  0  0
  181.8100  177.5910  140.5530 C   0  0  0  0  0  0  0  0  0  0  0  0
  180.3430  177.7710  140.7750 C   0  0  0  0  0  2  0  0  0  0  0  0
  179.6400  176.4270  140.7350 C   0  0  0  0  0  1  0  0  0  0  0  0
  188.8750  175.1380  136.5810 C   0  0  0  0  0  2  0  0  0  0  0  0
  187.7750  174.8740  135.5570 C   0  0  0  0  0  2  0  0  0  0  0  0
  187.4820  173.4490  135.5080 N   0  0  0  0  0  2  0  0  0  0  0  0
  186.0210  171.6800  135.8320 O   0  0  0  0  0  0  0  0  0  0  0  0
  186.3620  172.8440  136.1660 C   0  0  0  0  0  0  0  0  0  0  0  0
  185.4100  172.9990  138.3420 O   0  0  0  0  0  0  0  0  0  0  0  0
  185.6010  173.5420  137.2220 C   0  0  0  0  0  0  0  0  0  0  0  0
  185.0440  174.9120  136.9760 C   0  0  0  0  0  2  0  0  0  0  0  0
  183.0330  173.5380  136.3160 C   0  0  0  0  0  2  0  0  0  0  0  0
  183.9730  175.1680  134.7630 N   0  0  0  0  0  2  0  0  0  0  0  0
  181.4710  175.2240  137.0410 C   0  0  0  0  0  2  0  0  0  0  0  0
  183.9250  176.6110  134.5940 C   0  0  0  0  0  2  0  0  0  0  0  0
  180.6760  172.8890  136.7680 C   0  0  0  0  0  1  0  0  0  0  0  0
  181.8310  173.7660  137.2090 C   0  0  1  0  0  3  0  0  0  0  0  0
  182.5220  177.2460  135.5430 S   0  0  0  0  0  0  0  0  0  0  0  0
  183.7330  174.8860  136.1780 C   0  0  2  0  0  0  0  0  0  0  0  0
  182.7820  175.9290  136.7570 C   0  0  2  0  0  3  0  0  0  0  0  0
  3 14  1  1  0  0  0
  3 28  1  0  0  0  0
  3  2  1  0  0  0  0
  4 25  1  0  0  0  0
  5 24  1  0  0  0  0
  5 14  1  0  0  0  0
  6 33  1  1  0  0  0
  6 26  1  0  0  0  0
  8 22  1  6  0  0  0
  8  1  1  0  0  0  0
  9 15  1  0  0  0  0
 10 38  1  6  0  0  0
 10 21  1  0  0  0  0
 10  1  1  0  0  0  0
 11 22  1  0  0  0  0
 12 23  1  0  0  0  0
 13 20  2  0  0  0  0
 15  7  1  6  0  0  0
 16  2  1  0  0  0  0
 17 31  1  0  0  0  0
 19 12  1  0  0  0  0
 19  8  1  0  0  0  0
 20  4  1  0  0  0  0
 20  9  1  0  0  0  0
 21  6  1  0  0  0  0
 23 17  1  0  0  0  0
 24 30  1  0  0  0  0
 24 18  1  1  0  0  0
 25 15  1  0  0  0  0
 25 16  1  1  0  0  0
 26 13  2  0  0  0  0
 27 11  1  0  0  0  0
 27 10  1  0  0  0  0
 29  4  1  0  0  0  0
 30 28  1  0  0  0  0
 31 35  1  6  0  0  0
 31 24  1  0  0  0  0
 32 33  1  0  0  0  0
 34 35  2  0  0  0  0
 35 36  1  0  0  0  0
 37 36  1  0  0  0  0
 39 38  1  0  0  0  0
 40 39  1  0  0  0  0
 40 42  1  0  0  0  0
 41 42  2  0  0  0  0
 42 44  1  0  0  0  0
 44 43  2  0  0  0  0
 45 44  1  0  0  0  0
 46 51  1  0  0  0  0
 47 53  1  0  0  0  0
 48 51  1  0  0  0  0
 49 47  1  0  0  0  0
 49 52  1  0  0  0  0
 51 50  1  6  0  0  0
 52 54  1  0  0  0  0
 53 46  1  0  0  0  0
 53 54  1  0  0  0  0
 53 45  1  1  0  0  0
 54 48  1  6  0  0  0
M  END
>  <MODEL>
7

>  <REMARK>
 VINA RESULT:      -5.1      2.715      9.890
  Name = 
  9 active torsions:
  status: ('A' for Active; 'I' for Inactive)
    1  A    between atoms: N_1  and  C_45
    2  A    between atoms: C_2  and  C_18
    3  A    between atoms: C_2  and  C_45
    4  A    between atoms: C_8  and  C_36
    5  A    between atoms: C_13  and  C_50
    6  A    between atoms: C_38  and  C_39
    7  A    between atoms: C_39  and  C_41
    8  A    between atoms: C_41  and  C_48
    9  A    between atoms: C_50  and  C_53
                            x       y       z     vdW  Elec       q    Type
                         _______ _______ _______ _____ _____    ______ ____

>  <TORSDO>
F 9

$$$$
=
 OpenBabel11042411113D

 54 59  0  0  1  0  0  0  0  0999 V2000
  187.2110  177.2840  141.5150 C   0  0  0  0  0  2  0  0  0  0  0  0
  183.5430  177.4690  136.1820 N   0  0  0  0  0  2  0  0  0  0  0  0
  184.9060  177.0350  136.4710 C   0  0  1  0  0  3  0  0  0  0  0  0
  184.0460  178.6400  139.1920 N   0  0  0  0  0  0  0  0  0  0  0  0
  186.3850  175.0880  136.9560 C   0  0  0  0  0  2  0  0  0  0  0  0
  185.0220  178.3520  143.7140 C   0  0  2  0  0  3  0  0  0  0  0  0
  181.5110  180.7580  138.6470 C   0  0  0  0  0  1  0  0  0  0  0  0
  188.1680  177.8950  140.4830 C   0  0  2  0  0  3  0  0  0  0  0  0
  182.0250  179.0590  140.3030 N   0  0  0  0  0  2  0  0  0  0  0  0
  187.4440  177.7410  142.9740 C   0  0  2  0  0  0  0  0  0  0  0  0
  189.1920  179.4670  142.2140 C   0  0  0  0  0  2  0  0  0  0  0  0
  189.6930  177.1500  139.0290 C   0  0  0  0  0  2  0  0  0  0  0  0
  183.8610  178.1960  141.5320 C   0  0  0  0  0  0  0  0  0  0  0  0
  184.9380  175.5490  136.8160 C   0  0  0  0  0  2  0  0  0  0  0  0
  181.7690  179.2840  138.8870 C   0  0  2  0  0  3  0  0  0  0  0  0
  182.7820  177.5480  137.4250 C   0  0  0  0  0  2  0  0  0  0  0  0
  189.4920  176.0710  136.8130 C   0  0  0  0  0  2  0  0  0  0  0  0
  186.7350  174.7960  134.5940 O   0  0  0  0  0  1  0  0  0  0  0  0
  189.3220  177.1050  140.3790 O   0  0  0  0  0  0  0  0  0  0  0  0
  183.3920  178.7390  140.4400 C   0  0  0  0  0  0  0  0  0  0  0  0
  186.4250  178.8450  143.3250 C   0  0  0  0  0  2  0  0  0  0  0  0
  188.5180  179.3430  140.8420 C   0  0  0  0  0  2  0  0  0  0  0  0
  189.0900  175.9780  138.2750 C   0  0  0  0  0  2  0  0  0  0  0  0
  187.2070  175.4920  135.7160 C   0  0  1  0  0  0  0  0  0  0  0  0
  183.0530  178.8610  138.1480 C   0  0  2  0  0  3  0  0  0  0  0  0
  184.2920  177.6210  142.6240 C   0  0  0  0  0  3  0  0  0  0  0  0
  188.8580  178.3140  143.1660 C   0  0  0  0  0  2  0  0  0  0  0  0
  185.7730  177.2580  135.2370 C   0  0  0  0  0  2  0  0  0  0  0  0
  185.4350  179.0270  139.0140 C   0  0  0  0  0  1  0  0  0  0  0  0
  187.1140  176.8930  135.4970 O   0  0  0  0  0  0  0  0  0  0  0  0
  188.6940  175.1280  135.9060 C   0  0  2  0  0  3  0  0  0  0  0  0
  182.7490  179.0130  144.6400 C   0  0  0  0  0  1  0  0  0  0  0  0
  184.1830  179.4480  144.3740 C   0  0  0  0  0  2  0  0  0  0  0  0
  188.0620  172.8800  136.3340 O   0  0  0  0  0  0  0  0  0  0  0  0
  188.9760  173.6710  136.1530 C   0  0  0  0  0  0  0  0  0  0  0  0
  190.3930  173.1960  136.1780 C   0  0  0  0  0  2  0  0  0  0  0  0
  190.5740  172.0430  135.2080 C   0  0  0  0  0  1  0  0  0  0  0  0
  187.2890  176.5530  143.9350 C   0  0  0  0  0  2  0  0  0  0  0  0
  188.0080  176.7600  145.2650 C   0  0  0  0  0  2  0  0  0  0  0  0
  187.1170  177.4180  146.2090 N   0  0  0  0  0  2  0  0  0  0  0  0
  186.7800  178.8340  148.0110 O   0  0  0  0  0  0  0  0  0  0  0  0
  187.5600  178.0460  147.4180 C   0  0  0  0  0  0  0  0  0  0  0  0
  189.4440  178.6410  148.7450 O   0  0  0  0  0  0  0  0  0  0  0  0
  188.9010  177.7960  147.9850 C   0  0  0  0  0  0  0  0  0  0  0  0
  189.6370  176.5300  147.6650 C   0  0  0  0  0  2  0  0  0  0  0  0
  191.7820  177.4920  148.5800 C   0  0  0  0  0  2  0  0  0  0  0  0
  191.3470  177.5210  146.1800 N   0  0  0  0  0  2  0  0  0  0  0  0
  192.9980  175.4340  148.2700 C   0  0  0  0  0  2  0  0  0  0  0  0
  191.4140  176.5660  145.0860 C   0  0  0  0  0  2  0  0  0  0  0  0
  193.8900  177.1280  149.8490 C   0  0  0  0  0  1  0  0  0  0  0  0
  192.6350  176.4720  149.3060 C   0  0  1  0  0  3  0  0  0  0  0  0
  192.4310  175.1670  145.6160 S   0  0  0  0  0  0  0  0  0  0  0  0
  191.1330  176.7600  147.4110 C   0  0  2  0  0  0  0  0  0  0  0  0
  191.8290  175.4060  147.3060 C   0  0  2  0  0  3  0  0  0  0  0  0
  1 10  1  0  0  0  0
  2  3  1  0  0  0  0
  2 16  1  0  0  0  0
  3 28  1  6  0  0  0
  3 14  1  0  0  0  0
  4 20  1  0  0  0  0
  6 33  1  6  0  0  0
  8 22  1  1  0  0  0
  8  1  1  0  0  0  0
  9 20  1  0  0  0  0
 10 27  1  0  0  0  0
 10 21  1  0  0  0  0
 10 38  1  1  0  0  0
 11 27  1  0  0  0  0
 12 19  1  0  0  0  0
 13 26  2  0  0  0  0
 14  5  1  0  0  0  0
 15  7  1  1  0  0  0
 15  9  1  0  0  0  0
 17 23  1  0  0  0  0
 19  8  1  0  0  0  0
 20 13  2  0  0  0  0
 21  6  1  0  0  0  0
 22 11  1  0  0  0  0
 23 12  1  0  0  0  0
 24 18  1  6  0  0  0
 24 31  1  0  0  0  0
 24  5  1  0  0  0  0
 25 16  1  1  0  0  0
 25 15  1  0  0  0  0
 25  4  1  0  0  0  0
 26  6  1  0  0  0  0
 28 30  1  0  0  0  0
 29  4  1  0  0  0  0
 30 24  1  0  0  0  0
 31 35  1  1  0  0  0
 31 17  1  0  0  0  0
 33 32  1  0  0  0  0
 35 36  1  0  0  0  0
 35 34  2  0  0  0  0
 37 36  1  0  0  0  0
 38 39  1  0  0  0  0
 39 40  1  0  0  0  0
 40 42  1  0  0  0  0
 42 44  1  0  0  0  0
 42 41  2  0  0  0  0
 44 43  2  0  0  0  0
 45 44  1  0  0  0  0
 46 51  1  0  0  0  0
 47 53  1  0  0  0  0
 48 51  1  0  0  0  0
 49 52  1  0  0  0  0
 49 47  1  0  0  0  0
 51 50  1  6  0  0  0
 52 54  1  0  0  0  0
 53 45  1  1  0  0  0
 53 46  1  0  0  0  0
 54 53  1  0  0  0  0
 54 48  1  1  0  0  0
M  END
>  <MODEL>
8

>  <REMARK>
 VINA RESULT:      -4.3      2.670      4.861
  Name = 
  9 active torsions:
  status: ('A' for Active; 'I' for Inactive)
    1  A    between atoms: N_1  and  C_45
    2  A    between atoms: C_2  and  C_18
    3  A    between atoms: C_2  and  C_45
    4  A    between atoms: C_8  and  C_36
    5  A    between atoms: C_13  and  C_50
    6  A    between atoms: C_38  and  C_39
    7  A    between atoms: C_39  and  C_41
    8  A    between atoms: C_41  and  C_48
    9  A    between atoms: C_50  and  C_53
                            x       y       z     vdW  Elec       q    Type
                         _______ _______ _______ _____ _____    ______ ____

>  <TORSDO>
F 9

$$$$
=
 OpenBabel11042411113D

 54 59  0  0  1  0  0  0  0  0999 V2000
  188.0160  176.9290  138.1010 C   0  0  0  0  0  2  0  0  0  0  0  0
  187.1240  178.6040  144.2920 N   0  0  0  0  0  2  0  0  0  0  0  0
  186.2780  178.5970  143.1030 C   0  0  1  0  0  3  0  0  0  0  0  0
  189.2750  178.0890  141.8860 N   0  0  0  0  0  0  0  0  0  0  0  0
  184.5260  177.3620  141.8330 C   0  0  0  0  0  2  0  0  0  0  0  0
  191.0960  175.8140  138.2810 C   0  0  2  0  0  3  0  0  0  0  0  0
  191.6700  179.1160  143.9870 C   0  0  0  0  0  1  0  0  0  0  0  0
  187.3090  178.2860  137.9730 C   0  0  2  0  0  3  0  0  0  0  0  0
  191.2480  177.1090  142.6870 N   0  0  0  0  0  2  0  0  0  0  0  0
  188.9940  176.5910  136.9520 C   0  0  2  0  0  0  0  0  0  0  0  0
  188.7180  178.9420  135.9470 C   0  0  0  0  0  2  0  0  0  0  0  0
  185.2060  179.0210  137.7980 C   0  0  0  0  0  2  0  0  0  0  0  0
  190.4020  176.4400  140.5740 C   0  0  0  0  0  0  0  0  0  0  0  0
  185.5170  177.2810  142.9890 C   0  0  0  0  0  2  0  0  0  0  0  0
  190.7350  177.9430  143.7660 C   0  0  2  0  0  3  0  0  0  0  0  0
  188.2780  177.7370  144.0750 C   0  0  0  0  0  2  0  0  0  0  0  0
  183.3940  179.2930  139.4590 C   0  0  0  0  0  2  0  0  0  0  0  0
  182.8320  178.5120  143.0960 O   0  0  0  0  0  1  0  0  0  0  0  0
  186.1320  178.1390  137.2250 O   0  0  0  0  0  0  0  0  0  0  0  0
  190.3870  177.2720  141.5820 C   0  0  0  0  0  0  0  0  0  0  0  0
  190.4350  176.8960  137.4110 C   0  0  0  0  0  2  0  0  0  0  0  0
  188.2350  179.3350  137.3490 C   0  0  0  0  0  2  0  0  0  0  0  0
  184.3690  178.3040  138.8430 C   0  0  0  0  0  2  0  0  0  0  0  0
  183.6450  178.6200  141.9580 C   0  0  1  0  0  0  0  0  0  0  0  0
  189.3660  178.4620  143.2920 C   0  0  2  0  0  3  0  0  0  0  0  0
  190.4180  175.5710  139.5990 C   0  0  0  0  0  3  0  0  0  0  0  0
  188.7020  177.4300  135.6970 C   0  0  0  0  0  2  0  0  0  0  0  0
  185.2630  179.7300  143.2060 C   0  0  0  0  0  2  0  0  0  0  0  0
  188.6720  178.9720  140.9020 C   0  0  0  0  0  1  0  0  0  0  0  0
  184.4570  179.7850  142.0470 O   0  0  0  0  0  0  0  0  0  0  0  0
  182.7220  178.7640  140.7310 C   0  0  2  0  0  3  0  0  0  0  0  0
  193.2040  176.7620  137.2240 C   0  0  0  0  0  1  0  0  0  0  0  0
  192.6080  176.0130  138.4060 C   0  0  0  0  0  2  0  0  0  0  0  0
  182.2150  176.5370  140.0830 O   0  0  0  0  0  0  0  0  0  0  0  0
  181.7890  177.6100  140.4860 C   0  0  0  0  0  0  0  0  0  0  0  0
  180.3270  177.7870  140.7390 C   0  0  0  0  0  2  0  0  0  0  0  0
  179.5210  177.0960  139.6540 C   0  0  0  0  0  1  0  0  0  0  0  0
  188.8650  175.1110  136.5630 C   0  0  0  0  0  2  0  0  0  0  0  0
  188.7810  174.8930  135.0540 C   0  0  0  0  0  2  0  0  0  0  0  0
  189.0080  173.4890  134.7480 N   0  0  0  0  0  2  0  0  0  0  0  0
  190.2570  171.5510  134.9840 O   0  0  0  0  0  0  0  0  0  0  0  0
  190.2440  172.8090  135.0010 C   0  0  0  0  0  0  0  0  0  0  0  0
  191.8190  174.5470  134.5950 O   0  0  0  0  0  0  0  0  0  0  0  0
  191.4980  173.5390  135.2790 C   0  0  0  0  0  0  0  0  0  0  0  0
  192.4100  173.0890  136.3800 C   0  0  0  0  0  2  0  0  0  0  0  0
  194.6410  173.9120  135.5380 C   0  0  0  0  0  2  0  0  0  0  0  0
  193.7020  171.8250  134.6940 N   0  0  0  0  0  2  0  0  0  0  0  0
  195.8810  172.6250  137.1550 C   0  0  0  0  0  2  0  0  0  0  0  0
  193.5900  170.4540  135.1640 C   0  0  0  0  0  2  0  0  0  0  0  0
  196.9890  174.5510  136.0510 C   0  0  0  0  0  1  0  0  0  0  0  0
  195.6880  174.0280  136.6270 C   0  0  1  0  0  3  0  0  0  0  0  0
  194.7760  170.2170  136.5080 S   0  0  0  0  0  0  0  0  0  0  0  0
  193.8010  172.6840  135.8730 C   0  0  2  0  0  0  0  0  0  0  0  0
  194.5370  171.9460  136.9870 C   0  0  2  0  0  3  0  0  0  0  0  0
  3 14  1  1  0  0  0
  3 28  1  0  0  0  0
  3  2  1  0  0  0  0
  4 25  1  0  0  0  0
  5 24  1  0  0  0  0
  5 14  1  0  0  0  0
  6 33  1  1  0  0  0
  6 26  1  0  0  0  0
  8 22  1  6  0  0  0
  8  1  1  0  0  0  0
  9 15  1  0  0  0  0
 10 38  1  6  0  0  0
 10 21  1  0  0  0  0
 10  1  1  0  0  0  0
 11 22  1  0  0  0  0
 12 23  1  0  0  0  0
 13 20  2  0  0  0  0
 15  7  1  6  0  0  0
 16  2  1  0  0  0  0
 17 31  1  0  0  0  0
 19 12  1  0  0  0  0
 19  8  1  0  0  0  0
 20  4  1  0  0  0  0
 20  9  1  0  0  0  0
 21  6  1  0  0  0  0
 23 17  1  0  0  0  0
 24 30  1  0  0  0  0
 24 18  1  1  0  0  0
 25 15  1  0  0  0  0
 25 16  1  1  0  0  0
 26 13  2  0  0  0  0
 27 11  1  0  0  0  0
 27 10  1  0  0  0  0
 29  4  1  0  0  0  0
 30 28  1  0  0  0  0
 31 35  1  6  0  0  0
 31 24  1  0  0  0  0
 32 33  1  0  0  0  0
 34 35  2  0  0  0  0
 35 36  1  0  0  0  0
 37 36  1  0  0  0  0
 39 38  1  0  0  0  0
 40 42  1  0  0  0  0
 40 39  1  0  0  0  0
 41 42  2  0  0  0  0
 42 44  1  0  0  0  0
 43 44  2  0  0  0  0
 44 45  1  0  0  0  0
 46 53  1  0  0  0  0
 46 51  1  0  0  0  0
 47 49  1  0  0  0  0
 47 53  1  0  0  0  0
 49 52  1  0  0  0  0
 51 50  1  6  0  0  0
 51 48  1  0  0  0  0
 52 54  1  0  0  0  0
 53 45  1  1  0  0  0
 53 54  1  0  0  0  0
 54 48  1  6  0  0  0
M  END
>  <MODEL>
9

>  <REMARK>
 VINA RESULT:      -4.3      3.471     10.100
  Name = 
  9 active torsions:
  status: ('A' for Active; 'I' for Inactive)
    1  A    between atoms: N_1  and  C_45
    2  A    between atoms: C_2  and  C_18
    3  A    between atoms: C_2  and  C_45
    4  A    between atoms: C_8  and  C_36
    5  A    between atoms: C_13  and  C_50
    6  A    between atoms: C_38  and  C_39
    7  A    between atoms: C_39  and  C_41
    8  A    between atoms: C_41  and  C_48
    9  A    between atoms: C_50  and  C_53
                            x       y       z     vdW  Elec       q    Type
                         _______ _______ _______ _____ _____    ______ ____

>  <TORSDO>
F 9

$$$$
