=
 OpenBabel11042412173D

 34 37  0  0  0  0  0  0  0  0999 V2000
  188.2410  178.0530  140.6120 C   0  0  0  0  0  3  0  0  0  0  0  0
  187.1200  177.8580  138.6990 N   0  0  0  0  0  0  0  0  0  0  0  0
  187.0560  178.2930  139.9470 C   0  0  0  0  0  0  0  0  0  0  0  0
  189.0240  177.4240  139.6290 C   0  0  0  0  0  0  0  0  0  0  0  0
  184.9290  178.8920  139.2320 C   0  0  0  0  0  0  0  0  0  0  0  0
  185.8340  178.8920  140.3100 C   0  0  0  0  0  0  0  0  0  0  0  0
  188.3090  177.3110  138.4340 C   0  0  0  0  0  3  0  0  0  0  0  0
  185.6990  178.1610  137.9110 S   0  0  0  0  0  0  0  0  0  0  0  0
  190.8140  175.9290  139.2290 O   0  0  0  0  0  0  0  0  0  0  0  0
  191.2580  177.6470  140.6740 O   0  0  0  0  0  1  0  0  0  0  0  0
  190.4010  176.9570  139.8260 C   0  0  0  0  0  0  0  0  0  0  0  0
  185.5260  179.4490  141.5910 N   0  0  0  0  0  2  0  0  0  0  0  0
  184.7730  178.7390  142.6120 C   0  0  0  0  0  2  0  0  0  0  0  0
  184.6450  179.5990  143.8590 C   0  0  0  0  0  2  0  0  0  0  0  0
  183.7100  178.9610  144.8810 C   0  0  0  0  0  2  0  0  0  0  0  0
  184.4720  178.4640  146.1000 C   0  0  0  0  0  2  0  0  0  0  0  0
  185.9110  178.9380  146.0580 C   0  0  0  0  0  2  0  0  0  0  0  0
  186.7900  177.9460  146.7990 C   0  0  0  0  0  2  0  0  0  0  0  0
  187.8890  177.5160  145.9450 N   0  0  0  0  0  0  0  0  0  0  0  0
  187.6650  177.4630  144.5030 C   0  0  0  0  0  2  0  0  0  0  0  0
  189.2170  177.3500  146.4700 C   0  0  0  0  0  0  0  0  0  0  0  0
  190.2530  176.9700  145.6130 O   0  0  0  0  0  0  0  0  0  0  0  0
  188.6670  176.5270  143.8330 C   0  0  0  0  0  2  0  0  0  0  0  0
  189.4470  177.5000  147.6990 O   0  0  0  0  0  0  0  0  0  0  0  0
  190.0790  176.9690  144.1980 C   0  0  0  0  0  2  0  0  0  0  0  0
  183.5480  179.4590  139.2180 C   0  0  0  0  0  2  0  0  0  0  0  0
  181.5350  176.4960  139.9930 N   0  0  0  0  0  0  0  0  0  0  0  0
  182.6340  177.0710  139.4580 C   0  0  0  0  0  3  0  0  0  0  0  0
  179.5150  177.1990  141.1880 C   0  0  0  0  0  1  0  0  0  0  0  0
  181.3640  178.6400  140.3440 C   0  0  0  0  0  0  0  0  0  0  0  0
  182.5520  178.4400  139.6650 C   0  0  0  0  0  0  0  0  0  0  0  0
  180.7800  177.4460  140.5210 N   0  0  0  0  0  0  0  0  0  0  0  0
  180.8120  179.8440  140.8000 O   0  0  0  0  0  0  0  0  0  0  0  0
  180.0780  180.7260  139.9640 C   0  0  0  0  0  1  0  0  0  0  0  0
  2  3  1  0  0  0  0
  3  6  1  0  0  0  0
  3  1  2  0  0  0  0
  4 11  1  0  0  0  0
  4  1  1  0  0  0  0
  5  6  2  0  0  0  0
  6 12  1  0  0  0  0
  7  2  1  0  0  0  0
  7  4  2  0  0  0  0
  8  2  1  0  0  0  0
  8  5  1  0  0  0  0
  9 11  2  0  0  0  0
 11 10  1  0  0  0  0
 12 13  1  0  0  0  0
 13 14  1  0  0  0  0
 14 15  1  0  0  0  0
 15 16  1  0  0  0  0
 17 16  1  0  0  0  0
 17 18  1  0  0  0  0
 19 21  1  0  0  0  0
 19 18  1  0  0  0  0
 20 19  1  0  0  0  0
 21 24  2  0  0  0  0
 22 21  1  0  0  0  0
 23 25  1  0  0  0  0
 23 20  1  0  0  0  0
 25 22  1  0  0  0  0
 26  5  1  0  0  0  0
 26 31  1  0  0  0  0
 27 32  1  0  0  0  0
 28 31  1  0  0  0  0
 28 27  2  0  0  0  0
 30 32  1  0  0  0  0
 30 33  1  0  0  0  0
 31 30  2  0  0  0  0
 32 29  1  0  0  0  0
 34 33  1  0  0  0  0
M  END
>  <MODEL>
1

>  <REMARK>
 VINA RESULT:      -7.5      0.000      0.000
  Name = 
  12 active torsions:
  status: ('A' for Active; 'I' for Inactive)
    1  A    between atoms: N_1  and  C_14
    2  A    between atoms: O_7  and  C_25
    3  A    between atoms: C_9  and  C_12
    4  A    between atoms: C_10  and  N_13
    5  A    between atoms: C_10  and  C_22
    6  A    between atoms: N_13  and  C_30
    7  A    between atoms: C_14  and  C_15
    8  A    between atoms: C_15  and  C_29
    9  A    between atoms: C_20  and  C_21
   10  A    between atoms: C_20  and  C_26
   11  A    between atoms: C_22  and  C_33
   12  A    between atoms: C_29  and  C_33
                            x       y       z     vdW  Elec       q    Type
                         _______ _______ _______ _____ _____    ______ ____

>  <TORSDO>
F 12

$$$$
=
 OpenBabel11042412173D

 34 37  0  0  0  0  0  0  0  0999 V2000
  188.0460  178.1040  141.0530 C   0  0  0  0  0  3  0  0  0  0  0  0
  187.0740  178.0030  139.0530 N   0  0  0  0  0  0  0  0  0  0  0  0
  186.9060  178.3560  140.3170 C   0  0  0  0  0  0  0  0  0  0  0  0
  188.9170  177.5600  140.0940 C   0  0  0  0  0  0  0  0  0  0  0  0
  184.8200  178.9440  139.4820 C   0  0  0  0  0  0  0  0  0  0  0  0
  185.6430  178.8990  140.6220 C   0  0  0  0  0  0  0  0  0  0  0  0
  188.2960  177.5040  138.8450 C   0  0  0  0  0  3  0  0  0  0  0  0
  185.7060  178.3190  138.1800 S   0  0  0  0  0  0  0  0  0  0  0  0
  191.2570  177.6290  139.7430 O   0  0  0  0  0  0  0  0  0  0  0  0
  190.5290  176.1260  141.3090 O   0  0  0  0  0  1  0  0  0  0  0  0
  190.2900  177.1170  140.3650 C   0  0  0  0  0  0  0  0  0  0  0  0
  185.2250  179.3660  141.9090 N   0  0  0  0  0  2  0  0  0  0  0  0
  184.5430  178.5260  142.8810 C   0  0  0  0  0  2  0  0  0  0  0  0
  183.9580  179.3850  143.9920 C   0  0  0  0  0  2  0  0  0  0  0  0
  184.2120  178.7680  145.3630 C   0  0  0  0  0  2  0  0  0  0  0  0
  185.6270  179.0450  145.8460 C   0  0  0  0  0  2  0  0  0  0  0  0
  186.4510  177.7720  145.8380 C   0  0  0  0  0  2  0  0  0  0  0  0
  187.6130  177.9310  144.8740 C   0  0  0  0  0  2  0  0  0  0  0  0
  188.8670  177.6300  145.5500 N   0  0  0  0  0  0  0  0  0  0  0  0
  188.8120  176.9620  146.8470 C   0  0  0  0  0  2  0  0  0  0  0  0
  190.1300  177.7890  144.8800 C   0  0  0  0  0  0  0  0  0  0  0  0
  191.3110  177.4570  145.5480 O   0  0  0  0  0  0  0  0  0  0  0  0
  190.1000  177.1950  147.6330 C   0  0  0  0  0  2  0  0  0  0  0  0
  190.1850  178.2640  143.7150 O   0  0  0  0  0  0  0  0  0  0  0  0
  191.2850  176.7490  146.7860 C   0  0  0  0  0  2  0  0  0  0  0  0
  183.4270  179.4750  139.3990 C   0  0  0  0  0  2  0  0  0  0  0  0
  181.2510  176.5970  138.7540 N   0  0  0  0  0  0  0  0  0  0  0  0
  182.2540  177.4260  138.3900 C   0  0  0  0  0  3  0  0  0  0  0  0
  179.7240  176.3160  140.6500 C   0  0  0  0  0  1  0  0  0  0  0  0
  181.4970  178.0440  140.3660 C   0  0  0  0  0  0  0  0  0  0  0  0
  182.4330  178.3600  139.3990 C   0  0  0  0  0  0  0  0  0  0  0  0
  180.8040  176.9770  139.9400 N   0  0  0  0  0  0  0  0  0  0  0  0
  181.2640  178.6750  141.5940 O   0  0  0  0  0  0  0  0  0  0  0  0
  180.4130  179.8020  141.7380 C   0  0  0  0  0  1  0  0  0  0  0  0
  2  3  1  0  0  0  0
  3  6  1  0  0  0  0
  3  1  2  0  0  0  0
  4 11  1  0  0  0  0
  4  1  1  0  0  0  0
  5  6  2  0  0  0  0
  6 12  1  0  0  0  0
  7  2  1  0  0  0  0
  7  4  2  0  0  0  0
  8  2  1  0  0  0  0
  8  5  1  0  0  0  0
  9 11  2  0  0  0  0
 11 10  1  0  0  0  0
 12 13  1  0  0  0  0
 13 14  1  0  0  0  0
 14 15  1  0  0  0  0
 15 16  1  0  0  0  0
 17 16  1  0  0  0  0
 18 19  1  0  0  0  0
 18 17  1  0  0  0  0
 19 20  1  0  0  0  0
 20 23  1  0  0  0  0
 21 22  1  0  0  0  0
 21 19  1  0  0  0  0
 22 25  1  0  0  0  0
 24 21  2  0  0  0  0
 25 23  1  0  0  0  0
 26 31  1  0  0  0  0
 26  5  1  0  0  0  0
 27 32  1  0  0  0  0
 28 27  2  0  0  0  0
 28 31  1  0  0  0  0
 30 33  1  0  0  0  0
 31 30  2  0  0  0  0
 32 30  1  0  0  0  0
 32 29  1  0  0  0  0
 33 34  1  0  0  0  0
M  END
>  <MODEL>
2

>  <REMARK>
 VINA RESULT:      -7.4      1.037      1.574
  Name = 
  12 active torsions:
  status: ('A' for Active; 'I' for Inactive)
    1  A    between atoms: N_1  and  C_14
    2  A    between atoms: O_7  and  C_25
    3  A    between atoms: C_9  and  C_12
    4  A    between atoms: C_10  and  N_13
    5  A    between atoms: C_10  and  C_22
    6  A    between atoms: N_13  and  C_30
    7  A    between atoms: C_14  and  C_15
    8  A    between atoms: C_15  and  C_29
    9  A    between atoms: C_20  and  C_21
   10  A    between atoms: C_20  and  C_26
   11  A    between atoms: C_22  and  C_33
   12  A    between atoms: C_29  and  C_33
                            x       y       z     vdW  Elec       q    Type
                         _______ _______ _______ _____ _____    ______ ____

>  <TORSDO>
F 12

$$$$
=
 OpenBabel11042412173D

 34 37  0  0  0  0  0  0  0  0999 V2000
  188.8080  178.2280  141.8780 C   0  0  0  0  0  3  0  0  0  0  0  0
  189.0760  177.4640  139.8050 N   0  0  0  0  0  0  0  0  0  0  0  0
  188.2430  178.0820  140.6270 C   0  0  0  0  0  0  0  0  0  0  0  0
  190.0690  177.6300  141.7190 C   0  0  0  0  0  0  0  0  0  0  0  0
  186.9310  178.0610  138.7120 C   0  0  0  0  0  0  0  0  0  0  0  0
  187.0060  178.4470  140.0630 C   0  0  0  0  0  0  0  0  0  0  0  0
  190.2240  177.1580  140.4140 C   0  0  0  0  0  3  0  0  0  0  0  0
  188.3920  177.3040  138.3080 S   0  0  0  0  0  0  0  0  0  0  0  0
  191.5410  176.3950  143.1010 O   0  0  0  0  0  0  0  0  0  0  0  0
  191.5480  178.6620  143.4160 O   0  0  0  0  0  1  0  0  0  0  0  0
  191.0850  177.5210  142.7730 C   0  0  0  0  0  0  0  0  0  0  0  0
  185.9500  179.1330  140.7410 N   0  0  0  0  0  2  0  0  0  0  0  0
  185.0300  178.4780  141.6580 C   0  0  0  0  0  2  0  0  0  0  0  0
  185.1450  179.0970  143.0420 C   0  0  0  0  0  2  0  0  0  0  0  0
  183.8260  179.0050  143.8020 C   0  0  0  0  0  2  0  0  0  0  0  0
  184.0540  178.8350  145.2960 C   0  0  0  0  0  2  0  0  0  0  0  0
  185.4840  179.1870  145.6600 C   0  0  0  0  0  2  0  0  0  0  0  0
  185.9040  178.3880  146.8800 C   0  0  0  0  0  2  0  0  0  0  0  0
  187.2880  177.9560  146.7430 N   0  0  0  0  0  0  0  0  0  0  0  0
  187.8390  177.8150  145.3980 C   0  0  0  0  0  2  0  0  0  0  0  0
  188.1570  177.8720  147.8840 C   0  0  0  0  0  0  0  0  0  0  0  0
  189.4890  177.4870  147.7090 O   0  0  0  0  0  0  0  0  0  0  0  0
  189.0490  176.8850  145.4020 C   0  0  0  0  0  2  0  0  0  0  0  0
  187.7210  178.0980  149.0450 O   0  0  0  0  0  0  0  0  0  0  0  0
  190.0680  177.4020  146.4090 C   0  0  0  0  0  2  0  0  0  0  0  0
  185.7950  178.2960  137.7720 C   0  0  0  0  0  2  0  0  0  0  0  0
  183.9440  175.1490  137.4490 N   0  0  0  0  0  0  0  0  0  0  0  0
  185.0450  175.9020  137.2280 C   0  0  0  0  0  3  0  0  0  0  0  0
  181.7680  175.3930  138.5480 C   0  0  0  0  0  1  0  0  0  0  0  0
  183.5770  177.0950  138.3610 C   0  0  0  0  0  0  0  0  0  0  0  0
  184.8390  177.1500  137.7980 C   0  0  0  0  0  0  0  0  0  0  0  0
  183.0710  175.8750  138.1290 N   0  0  0  0  0  0  0  0  0  0  0  0
  182.8930  178.0930  139.0660 O   0  0  0  0  0  0  0  0  0  0  0  0
  182.1920  179.1510  138.4290 C   0  0  0  0  0  1  0  0  0  0  0  0
  2  7  1  0  0  0  0
  2  3  1  0  0  0  0
  3  1  2  0  0  0  0
  4  1  1  0  0  0  0
  4 11  1  0  0  0  0
  5  6  2  0  0  0  0
  6  3  1  0  0  0  0
  6 12  1  0  0  0  0
  7  4  2  0  0  0  0
  8  5  1  0  0  0  0
  8  2  1  0  0  0  0
 11  9  2  0  0  0  0
 11 10  1  0  0  0  0
 12 13  1  0  0  0  0
 13 14  1  0  0  0  0
 14 15  1  0  0  0  0
 15 16  1  0  0  0  0
 16 17  1  0  0  0  0
 17 18  1  0  0  0  0
 19 18  1  0  0  0  0
 19 21  1  0  0  0  0
 20 23  1  0  0  0  0
 20 19  1  0  0  0  0
 21 24  2  0  0  0  0
 22 21  1  0  0  0  0
 23 25  1  0  0  0  0
 25 22  1  0  0  0  0
 26 31  1  0  0  0  0
 26  5  1  0  0  0  0
 27 32  1  0  0  0  0
 28 27  2  0  0  0  0
 28 31  1  0  0  0  0
 30 33  1  0  0  0  0
 31 30  2  0  0  0  0
 32 30  1  0  0  0  0
 32 29  1  0  0  0  0
 34 33  1  0  0  0  0
M  END
>  <MODEL>
3

>  <REMARK>
 VINA RESULT:      -7.4      1.964      2.462
  Name = 
  12 active torsions:
  status: ('A' for Active; 'I' for Inactive)
    1  A    between atoms: N_1  and  C_14
    2  A    between atoms: O_7  and  C_25
    3  A    between atoms: C_9  and  C_12
    4  A    between atoms: C_10  and  N_13
    5  A    between atoms: C_10  and  C_22
    6  A    between atoms: N_13  and  C_30
    7  A    between atoms: C_14  and  C_15
    8  A    between atoms: C_15  and  C_29
    9  A    between atoms: C_20  and  C_21
   10  A    between atoms: C_20  and  C_26
   11  A    between atoms: C_22  and  C_33
   12  A    between atoms: C_29  and  C_33
                            x       y       z     vdW  Elec       q    Type
                         _______ _______ _______ _____ _____    ______ ____

>  <TORSDO>
F 12

$$$$
=
 OpenBabel11042412173D

 34 37  0  0  0  0  0  0  0  0999 V2000
  185.6560  178.8000  143.7600 C   0  0  0  0  0  3  0  0  0  0  0  0
  183.6310  178.8130  142.8360 N   0  0  0  0  0  0  0  0  0  0  0  0
  184.9300  178.8150  142.5860 C   0  0  0  0  0  0  0  0  0  0  0  0
  184.6520  178.7900  144.7430 C   0  0  0  0  0  0  0  0  0  0  0  0
  184.1290  178.8350  140.4070 C   0  0  0  0  0  0  0  0  0  0  0  0
  185.2770  178.8270  141.2220 C   0  0  0  0  0  0  0  0  0  0  0  0
  183.3870  178.7950  144.1490 C   0  0  0  0  0  3  0  0  0  0  0  0
  182.7740  178.8210  141.4230 S   0  0  0  0  0  0  0  0  0  0  0  0
  184.3930  177.8640  146.9060 O   0  0  0  0  0  1  0  0  0  0  0  0
  185.6790  179.7530  146.7790 O   0  0  0  0  0  0  0  0  0  0  0  0
  184.8940  178.7700  146.1900 C   0  0  0  0  0  0  0  0  0  0  0  0
  186.6090  178.8190  140.6990 N   0  0  0  0  0  2  0  0  0  0  0  0
  187.7670  178.3950  141.4690 C   0  0  0  0  0  2  0  0  0  0  0  0
  188.8290  177.8250  140.5420 C   0  0  0  0  0  2  0  0  0  0  0  0
  189.7290  176.8330  141.2720 C   0  0  0  0  0  2  0  0  0  0  0  0
  191.1060  177.4200  141.5390 C   0  0  0  0  0  2  0  0  0  0  0  0
  191.2090  177.9060  142.9720 C   0  0  0  0  0  2  0  0  0  0  0  0
  191.3200  176.7110  143.9010 C   0  0  0  0  0  2  0  0  0  0  0  0
  190.4690  176.9040  145.0680 N   0  0  0  0  0  0  0  0  0  0  0  0
  189.0280  177.0240  144.8610 C   0  0  0  0  0  2  0  0  0  0  0  0
  190.9920  176.7730  146.4000 C   0  0  0  0  0  0  0  0  0  0  0  0
  190.1380  176.9310  147.4940 O   0  0  0  0  0  0  0  0  0  0  0  0
  188.3670  177.7290  146.0420 C   0  0  0  0  0  2  0  0  0  0  0  0
  192.2190  176.5610  146.5930 O   0  0  0  0  0  0  0  0  0  0  0  0
  188.7230  176.9870  147.3250 C   0  0  0  0  0  2  0  0  0  0  0  0
  184.0870  178.8220  138.9140 C   0  0  0  0  0  2  0  0  0  0  0  0
  183.4460  175.3000  138.1250 N   0  0  0  0  0  0  0  0  0  0  0  0
  183.1630  176.4280  138.8130 C   0  0  0  0  0  3  0  0  0  0  0  0
  185.0320  174.5710  136.4050 C   0  0  0  0  0  1  0  0  0  0  0  0
  184.8410  176.8290  137.4410 C   0  0  0  0  0  0  0  0  0  0  0  0
  184.0380  177.4210  138.3980 C   0  0  0  0  0  0  0  0  0  0  0  0
  184.4540  175.5520  137.3050 N   0  0  0  0  0  0  0  0  0  0  0  0
  185.8830  177.4020  136.7010 O   0  0  0  0  0  0  0  0  0  0  0  0
  187.2150  177.5000  137.1850 C   0  0  0  0  0  1  0  0  0  0  0  0
  1  4  1  0  0  0  0
  2  7  1  0  0  0  0
  3  2  1  0  0  0  0
  3  1  2  0  0  0  0
  4 11  1  0  0  0  0
  5  6  2  0  0  0  0
  5  8  1  0  0  0  0
  6  3  1  0  0  0  0
  7  4  2  0  0  0  0
  8  2  1  0  0  0  0
 11 10  2  0  0  0  0
 11  9  1  0  0  0  0
 12  6  1  0  0  0  0
 12 13  1  0  0  0  0
 14 15  1  0  0  0  0
 14 13  1  0  0  0  0
 15 16  1  0  0  0  0
 16 17  1  0  0  0  0
 17 18  1  0  0  0  0
 18 19  1  0  0  0  0
 19 21  1  0  0  0  0
 20 19  1  0  0  0  0
 20 23  1  0  0  0  0
 21 24  2  0  0  0  0
 21 22  1  0  0  0  0
 23 25  1  0  0  0  0
 25 22  1  0  0  0  0
 26  5  1  0  0  0  0
 27 28  2  0  0  0  0
 29 32  1  0  0  0  0
 30 31  2  0  0  0  0
 31 28  1  0  0  0  0
 31 26  1  0  0  0  0
 32 30  1  0  0  0  0
 32 27  1  0  0  0  0
 33 34  1  0  0  0  0
 33 30  1  0  0  0  0
M  END
>  <MODEL>
4

>  <REMARK>
 VINA RESULT:      -7.1      2.767      5.322
  Name = 
  12 active torsions:
  status: ('A' for Active; 'I' for Inactive)
    1  A    between atoms: N_1  and  C_14
    2  A    between atoms: O_7  and  C_25
    3  A    between atoms: C_9  and  C_12
    4  A    between atoms: C_10  and  N_13
    5  A    between atoms: C_10  and  C_22
    6  A    between atoms: N_13  and  C_30
    7  A    between atoms: C_14  and  C_15
    8  A    between atoms: C_15  and  C_29
    9  A    between atoms: C_20  and  C_21
   10  A    between atoms: C_20  and  C_26
   11  A    between atoms: C_22  and  C_33
   12  A    between atoms: C_29  and  C_33
                            x       y       z     vdW  Elec       q    Type
                         _______ _______ _______ _____ _____    ______ ____

>  <TORSDO>
F 12

$$$$
=
 OpenBabel11042412173D

 34 37  0  0  0  0  0  0  0  0999 V2000
  189.1560  177.8570  141.7800 C   0  0  0  0  0  3  0  0  0  0  0  0
  189.8270  177.5230  139.6840 N   0  0  0  0  0  0  0  0  0  0  0  0
  188.8040  177.8750  140.4460 C   0  0  0  0  0  0  0  0  0  0  0  0
  190.5010  177.4550  141.7380 C   0  0  0  0  0  0  0  0  0  0  0  0
  187.7960  178.0470  138.3610 C   0  0  0  0  0  0  0  0  0  0  0  0
  187.6200  178.1860  139.7500 C   0  0  0  0  0  0  0  0  0  0  0  0
  190.9090  177.2510  140.4180 C   0  0  0  0  0  3  0  0  0  0  0  0
  189.3950  177.5590  138.0890 S   0  0  0  0  0  0  0  0  0  0  0  0
  191.8940  178.2760  143.4670 O   0  0  0  0  0  1  0  0  0  0  0  0
  191.5930  176.0070  143.4240 O   0  0  0  0  0  0  0  0  0  0  0  0
  191.3610  177.2780  142.9140 C   0  0  0  0  0  0  0  0  0  0  0  0
  186.3870  178.6040  140.3450 N   0  0  0  0  0  2  0  0  0  0  0  0
  186.3070  179.2560  141.6430 C   0  0  0  0  0  2  0  0  0  0  0  0
  185.3270  178.5150  142.5390 C   0  0  0  0  0  2  0  0  0  0  0  0
  184.6070  179.4700  143.4840 C   0  0  0  0  0  2  0  0  0  0  0  0
  184.4270  178.8600  144.8650 C   0  0  0  0  0  2  0  0  0  0  0  0
  185.7240  178.9230  145.6480 C   0  0  0  0  0  2  0  0  0  0  0  0
  186.1300  177.5210  146.0640 C   0  0  0  0  0  2  0  0  0  0  0  0
  187.4990  177.5220  146.5580 N   0  0  0  0  0  0  0  0  0  0  0  0
  187.7240  177.7950  147.9750 C   0  0  0  0  0  2  0  0  0  0  0  0
  188.5870  177.0640  145.7380 C   0  0  0  0  0  0  0  0  0  0  0  0
  189.8840  177.0460  146.2580 O   0  0  0  0  0  0  0  0  0  0  0  0
  189.1520  178.2770  148.2160 C   0  0  0  0  0  2  0  0  0  0  0  0
  188.3910  176.7190  144.5410 O   0  0  0  0  0  0  0  0  0  0  0  0
  190.1230  177.2490  147.6490 C   0  0  0  0  0  2  0  0  0  0  0  0
  186.7840  178.3120  137.2960 C   0  0  0  0  0  2  0  0  0  0  0  0
  185.4940  175.1410  135.9850 N   0  0  0  0  0  0  0  0  0  0  0  0
  186.4400  176.1040  136.0300 C   0  0  0  0  0  3  0  0  0  0  0  0
  183.3440  174.6560  137.0550 C   0  0  0  0  0  1  0  0  0  0  0  0
  184.8260  176.6220  137.4390 C   0  0  0  0  0  0  0  0  0  0  0  0
  186.0410  177.0640  136.9480 C   0  0  0  0  0  0  0  0  0  0  0  0
  184.5300  175.4620  136.8330 N   0  0  0  0  0  0  0  0  0  0  0  0
  184.0020  177.2230  138.3990 O   0  0  0  0  0  0  0  0  0  0  0  0
  183.1030  178.2790  138.0980 C   0  0  0  0  0  1  0  0  0  0  0  0
  2  7  1  0  0  0  0
  2  3  1  0  0  0  0
  3  1  2  0  0  0  0
  4  1  1  0  0  0  0
  4 11  1  0  0  0  0
  5  6  2  0  0  0  0
  6 12  1  0  0  0  0
  6  3  1  0  0  0  0
  7  4  2  0  0  0  0
  8  5  1  0  0  0  0
  8  2  1  0  0  0  0
 11 10  2  0  0  0  0
 11  9  1  0  0  0  0
 12 13  1  0  0  0  0
 13 14  1  0  0  0  0
 14 15  1  0  0  0  0
 15 16  1  0  0  0  0
 16 17  1  0  0  0  0
 17 18  1  0  0  0  0
 18 19  1  0  0  0  0
 19 20  1  0  0  0  0
 20 23  1  0  0  0  0
 21 22  1  0  0  0  0
 21 19  1  0  0  0  0
 22 25  1  0  0  0  0
 24 21  2  0  0  0  0
 25 23  1  0  0  0  0
 26  5  1  0  0  0  0
 27 28  2  0  0  0  0
 27 32  1  0  0  0  0
 28 31  1  0  0  0  0
 30 33  1  0  0  0  0
 31 26  1  0  0  0  0
 31 30  2  0  0  0  0
 32 29  1  0  0  0  0
 32 30  1  0  0  0  0
 34 33  1  0  0  0  0
M  END
>  <MODEL>
5

>  <REMARK>
 VINA RESULT:      -7.1      2.488      3.492
  Name = 
  12 active torsions:
  status: ('A' for Active; 'I' for Inactive)
    1  A    between atoms: N_1  and  C_14
    2  A    between atoms: O_7  and  C_25
    3  A    between atoms: C_9  and  C_12
    4  A    between atoms: C_10  and  N_13
    5  A    between atoms: C_10  and  C_22
    6  A    between atoms: N_13  and  C_30
    7  A    between atoms: C_14  and  C_15
    8  A    between atoms: C_15  and  C_29
    9  A    between atoms: C_20  and  C_21
   10  A    between atoms: C_20  and  C_26
   11  A    between atoms: C_22  and  C_33
   12  A    between atoms: C_29  and  C_33
                            x       y       z     vdW  Elec       q    Type
                         _______ _______ _______ _____ _____    ______ ____

>  <TORSDO>
F 12

$$$$
=
 OpenBabel11042412173D

 34 37  0  0  0  0  0  0  0  0999 V2000
  184.6900  178.7420  142.4270 C   0  0  0  0  0  3  0  0  0  0  0  0
  183.5040  178.6180  140.5470 N   0  0  0  0  0  0  0  0  0  0  0  0
  184.7270  178.6440  141.0510 C   0  0  0  0  0  0  0  0  0  0  0  0
  183.3110  178.7740  142.6950 C   0  0  0  0  0  0  0  0  0  0  0  0
  185.2540  178.4710  138.7960 C   0  0  0  0  0  0  0  0  0  0  0  0
  185.7660  178.5630  140.1030 C   0  0  0  0  0  0  0  0  0  0  0  0
  182.5800  178.6940  141.5080 C   0  0  0  0  0  3  0  0  0  0  0  0
  183.5630  178.4900  138.9000 S   0  0  0  0  0  0  0  0  0  0  0  0
  181.4870  178.6810  144.2010 O   0  0  0  0  0  0  0  0  0  0  0  0
  183.5190  179.1810  145.1300 O   0  0  0  0  0  1  0  0  0  0  0  0
  182.7200  178.8730  144.0350 C   0  0  0  0  0  0  0  0  0  0  0  0
  187.1660  178.5570  140.3980 N   0  0  0  0  0  2  0  0  0  0  0  0
  187.6980  178.4790  141.7500 C   0  0  0  0  0  2  0  0  0  0  0  0
  188.5070  177.2020  141.9180 C   0  0  0  0  0  2  0  0  0  0  0  0
  188.0390  176.4040  143.1300 C   0  0  0  0  0  2  0  0  0  0  0  0
  187.2130  177.2600  144.0770 C   0  0  0  0  0  2  0  0  0  0  0  0
  187.9230  177.4170  145.4090 C   0  0  0  0  0  2  0  0  0  0  0  0
  189.2750  178.0680  145.1840 C   0  0  0  0  0  2  0  0  0  0  0  0
  190.3170  177.3010  145.8520 N   0  0  0  0  0  0  0  0  0  0  0  0
  190.1980  177.0770  147.2900 C   0  0  0  0  0  2  0  0  0  0  0  0
  191.3240  176.6030  145.1010 C   0  0  0  0  0  0  0  0  0  0  0  0
  192.2880  175.8480  145.7750 O   0  0  0  0  0  0  0  0  0  0  0  0
  191.5570  176.7520  147.9040 C   0  0  0  0  0  2  0  0  0  0  0  0
  191.3740  176.6990  143.8450 O   0  0  0  0  0  0  0  0  0  0  0  0
  192.1620  175.5630  147.1660 C   0  0  0  0  0  2  0  0  0  0  0  0
  186.0370  178.3420  137.5310 C   0  0  0  0  0  2  0  0  0  0  0  0
  186.0200  174.7890  136.6290 N   0  0  0  0  0  0  0  0  0  0  0  0
  185.3900  175.9760  136.7720 C   0  0  0  0  0  3  0  0  0  0  0  0
  188.2740  173.8810  136.9410 C   0  0  0  0  0  1  0  0  0  0  0  0
  187.5070  176.2180  137.3360 C   0  0  0  0  0  0  0  0  0  0  0  0
  186.3130  176.9070  137.2230 C   0  0  0  0  0  0  0  0  0  0  0  0
  187.2890  174.9460  136.9710 N   0  0  0  0  0  0  0  0  0  0  0  0
  188.7570  176.7000  137.7450 O   0  0  0  0  0  0  0  0  0  0  0  0
  189.7280  177.2030  136.8400 C   0  0  0  0  0  1  0  0  0  0  0  0
  1  4  1  0  0  0  0
  2  3  1  0  0  0  0
  2  7  1  0  0  0  0
  3  1  2  0  0  0  0
  4 11  1  0  0  0  0
  5  8  1  0  0  0  0
  5  6  2  0  0  0  0
  6 12  1  0  0  0  0
  6  3  1  0  0  0  0
  7  4  2  0  0  0  0
  8  2  1  0  0  0  0
 11  9  2  0  0  0  0
 11 10  1  0  0  0  0
 12 13  1  0  0  0  0
 13 14  1  0  0  0  0
 14 15  1  0  0  0  0
 15 16  1  0  0  0  0
 16 17  1  0  0  0  0
 18 17  1  0  0  0  0
 18 19  1  0  0  0  0
 19 20  1  0  0  0  0
 20 23  1  0  0  0  0
 21 22  1  0  0  0  0
 21 19  1  0  0  0  0
 22 25  1  0  0  0  0
 24 21  2  0  0  0  0
 25 23  1  0  0  0  0
 26  5  1  0  0  0  0
 27 28  2  0  0  0  0
 27 32  1  0  0  0  0
 28 31  1  0  0  0  0
 29 32  1  0  0  0  0
 30 33  1  0  0  0  0
 31 30  2  0  0  0  0
 31 26  1  0  0  0  0
 32 30  1  0  0  0  0
 34 33  1  0  0  0  0
M  END
>  <MODEL>
6

>  <REMARK>
 VINA RESULT:      -6.9      2.371      5.699
  Name = 
  12 active torsions:
  status: ('A' for Active; 'I' for Inactive)
    1  A    between atoms: N_1  and  C_14
    2  A    between atoms: O_7  and  C_25
    3  A    between atoms: C_9  and  C_12
    4  A    between atoms: C_10  and  N_13
    5  A    between atoms: C_10  and  C_22
    6  A    between atoms: N_13  and  C_30
    7  A    between atoms: C_14  and  C_15
    8  A    between atoms: C_15  and  C_29
    9  A    between atoms: C_20  and  C_21
   10  A    between atoms: C_20  and  C_26
   11  A    between atoms: C_22  and  C_33
   12  A    between atoms: C_29  and  C_33
                            x       y       z     vdW  Elec       q    Type
                         _______ _______ _______ _____ _____    ______ ____

>  <TORSDO>
F 12

$$$$
=
 OpenBabel11042412173D

 34 37  0  0  0  0  0  0  0  0999 V2000
  191.5480  176.6200  138.3280 C   0  0  0  0  0  3  0  0  0  0  0  0
  190.4270  176.4040  136.4170 N   0  0  0  0  0  0  0  0  0  0  0  0
  190.4230  176.9750  137.6110 C   0  0  0  0  0  0  0  0  0  0  0  0
  192.2270  175.7730  137.4360 C   0  0  0  0  0  0  0  0  0  0  0  0
  188.4280  177.8260  136.7820 C   0  0  0  0  0  0  0  0  0  0  0  0
  189.3110  177.7970  137.8770 C   0  0  0  0  0  0  0  0  0  0  0  0
  191.5140  175.6480  136.2420 C   0  0  0  0  0  3  0  0  0  0  0  0
  189.0810  176.8450  135.5650 S   0  0  0  0  0  0  0  0  0  0  0  0
  193.6270  173.8700  137.5740 O   0  0  0  0  0  0  0  0  0  0  0  0
  194.5990  175.8630  138.1420 O   0  0  0  0  0  1  0  0  0  0  0  0
  193.5080  175.1140  137.7160 C   0  0  0  0  0  0  0  0  0  0  0  0
  189.0860  178.5300  139.0850 N   0  0  0  0  0  2  0  0  0  0  0  0
  188.3090  178.0150  140.2010 C   0  0  0  0  0  2  0  0  0  0  0  0
  189.1090  178.1270  141.4890 C   0  0  0  0  0  2  0  0  0  0  0  0
  189.6590  176.7730  141.9210 C   0  0  0  0  0  2  0  0  0  0  0  0
  189.3680  176.4930  143.3870 C   0  0  0  0  0  2  0  0  0  0  0  0
  187.8980  176.7140  143.6890 C   0  0  0  0  0  2  0  0  0  0  0  0
  187.7630  177.6020  144.9130 C   0  0  0  0  0  2  0  0  0  0  0  0
  186.4240  178.1720  144.9720 N   0  0  0  0  0  0  0  0  0  0  0  0
  185.6360  178.2190  143.7440 C   0  0  0  0  0  2  0  0  0  0  0  0
  185.8060  178.4890  146.2310 C   0  0  0  0  0  0  0  0  0  0  0  0
  184.5060  179.0020  146.2500 O   0  0  0  0  0  0  0  0  0  0  0  0
  184.5410  179.2770  143.8400 C   0  0  0  0  0  2  0  0  0  0  0  0
  186.4370  178.3500  147.3120 O   0  0  0  0  0  0  0  0  0  0  0  0
  183.6940  179.0010  145.0780 C   0  0  0  0  0  2  0  0  0  0  0  0
  187.1570  178.6030  136.6730 C   0  0  0  0  0  2  0  0  0  0  0  0
  184.5270  176.1150  137.2470 N   0  0  0  0  0  0  0  0  0  0  0  0
  185.6520  176.5230  136.6190 C   0  0  0  0  0  3  0  0  0  0  0  0
  182.9900  176.9660  138.9550 C   0  0  0  0  0  1  0  0  0  0  0  0
  185.0230  178.0820  138.0460 C   0  0  0  0  0  0  0  0  0  0  0  0
  185.9920  177.7760  137.1080 C   0  0  0  0  0  0  0  0  0  0  0  0
  184.1590  177.0570  138.1000 N   0  0  0  0  0  0  0  0  0  0  0  0
  184.9090  179.2310  138.8380 O   0  0  0  0  0  0  0  0  0  0  0  0
  184.8490  179.1920  140.2560 C   0  0  0  0  0  1  0  0  0  0  0  0
  2  3  1  0  0  0  0
  3  6  1  0  0  0  0
  3  1  2  0  0  0  0
  4 11  1  0  0  0  0
  4  1  1  0  0  0  0
  5  6  2  0  0  0  0
  6 12  1  0  0  0  0
  7  2  1  0  0  0  0
  7  4  2  0  0  0  0
  8  2  1  0  0  0  0
  8  5  1  0  0  0  0
  9 11  2  0  0  0  0
 11 10  1  0  0  0  0
 12 13  1  0  0  0  0
 13 14  1  0  0  0  0
 14 15  1  0  0  0  0
 15 16  1  0  0  0  0
 16 17  1  0  0  0  0
 17 18  1  0  0  0  0
 18 19  1  0  0  0  0
 19 21  1  0  0  0  0
 20 23  1  0  0  0  0
 20 19  1  0  0  0  0
 21 22  1  0  0  0  0
 21 24  2  0  0  0  0
 23 25  1  0  0  0  0
 25 22  1  0  0  0  0
 26  5  1  0  0  0  0
 26 31  1  0  0  0  0
 27 32  1  0  0  0  0
 28 31  1  0  0  0  0
 28 27  2  0  0  0  0
 30 32  1  0  0  0  0
 30 33  1  0  0  0  0
 31 30  2  0  0  0  0
 32 29  1  0  0  0  0
 33 34  1  0  0  0  0
M  END
>  <MODEL>
7

>  <REMARK>
 VINA RESULT:      -6.8      2.721      4.482
  Name = 
  12 active torsions:
  status: ('A' for Active; 'I' for Inactive)
    1  A    between atoms: N_1  and  C_14
    2  A    between atoms: O_7  and  C_25
    3  A    between atoms: C_9  and  C_12
    4  A    between atoms: C_10  and  N_13
    5  A    between atoms: C_10  and  C_22
    6  A    between atoms: N_13  and  C_30
    7  A    between atoms: C_14  and  C_15
    8  A    between atoms: C_15  and  C_29
    9  A    between atoms: C_20  and  C_21
   10  A    between atoms: C_20  and  C_26
   11  A    between atoms: C_22  and  C_33
   12  A    between atoms: C_29  and  C_33
                            x       y       z     vdW  Elec       q    Type
                         _______ _______ _______ _____ _____    ______ ____

>  <TORSDO>
F 12

$$$$
=
 OpenBabel11042412173D

 34 37  0  0  0  0  0  0  0  0999 V2000
  185.0000  178.8850  142.3560 C   0  0  0  0  0  3  0  0  0  0  0  0
  183.7320  178.4800  140.5710 N   0  0  0  0  0  0  0  0  0  0  0  0
  184.9710  178.6780  140.9910 C   0  0  0  0  0  0  0  0  0  0  0  0
  183.6430  178.7910  142.7090 C   0  0  0  0  0  0  0  0  0  0  0  0
  185.3860  178.3780  138.7270 C   0  0  0  0  0  0  0  0  0  0  0  0
  185.9570  178.6310  139.9880 C   0  0  0  0  0  0  0  0  0  0  0  0
  182.8600  178.5350  141.5820 C   0  0  0  0  0  3  0  0  0  0  0  0
  183.7130  178.2240  138.9380 S   0  0  0  0  0  0  0  0  0  0  0  0
  183.8720  179.3260  145.0040 O   0  0  0  0  0  1  0  0  0  0  0  0
  181.7900  178.6410  144.3450 O   0  0  0  0  0  0  0  0  0  0  0  0
  183.1200  178.9360  144.0730 C   0  0  0  0  0  0  0  0  0  0  0  0
  187.3630  178.8010  140.1910 N   0  0  0  0  0  2  0  0  0  0  0  0
  188.1820  177.8610  140.9410 C   0  0  0  0  0  2  0  0  0  0  0  0
  189.0640  178.6090  141.9280 C   0  0  0  0  0  2  0  0  0  0  0  0
  189.9750  177.6550  142.6920 C   0  0  0  0  0  2  0  0  0  0  0  0
  190.9400  178.4080  143.5950 C   0  0  0  0  0  2  0  0  0  0  0  0
  191.0130  177.7510  144.9600 C   0  0  0  0  0  2  0  0  0  0  0  0
  189.8760  176.7570  145.1010 C   0  0  0  0  0  2  0  0  0  0  0  0
  188.9220  177.2260  146.0970 N   0  0  0  0  0  0  0  0  0  0  0  0
  189.4270  177.6060  147.4140 C   0  0  0  0  0  2  0  0  0  0  0  0
  187.5570  177.5090  145.7450 C   0  0  0  0  0  0  0  0  0  0  0  0
  186.6800  177.9910  146.7200 O   0  0  0  0  0  0  0  0  0  0  0  0
  188.3150  177.5540  148.4580 C   0  0  0  0  0  2  0  0  0  0  0  0
  187.1330  177.2880  144.5800 O   0  0  0  0  0  0  0  0  0  0  0  0
  187.1560  178.4280  147.9910 C   0  0  0  0  0  2  0  0  0  0  0  0
  186.1070  178.2300  137.4280 C   0  0  0  0  0  2  0  0  0  0  0  0
  188.1800  175.2100  137.2670 N   0  0  0  0  0  0  0  0  0  0  0  0
  188.0370  176.5370  137.4840 C   0  0  0  0  0  3  0  0  0  0  0  0
  186.7620  173.3060  136.6640 C   0  0  0  0  0  1  0  0  0  0  0  0
  186.0710  175.6790  136.9740 C   0  0  0  0  0  0  0  0  0  0  0  0
  186.7020  176.8650  137.3040 C   0  0  0  0  0  0  0  0  0  0  0  0
  186.9950  174.7070  136.9610 N   0  0  0  0  0  0  0  0  0  0  0  0
  184.7160  175.4600  136.6980 O   0  0  0  0  0  0  0  0  0  0  0  0
  183.8410  174.7880  137.5920 C   0  0  0  0  0  1  0  0  0  0  0  0
  1  4  1  0  0  0  0
  2  3  1  0  0  0  0
  2  7  1  0  0  0  0
  3  1  2  0  0  0  0
  4 11  1  0  0  0  0
  5  8  1  0  0  0  0
  5  6  2  0  0  0  0
  6 12  1  0  0  0  0
  6  3  1  0  0  0  0
  7  4  2  0  0  0  0
  8  2  1  0  0  0  0
 11 10  2  0  0  0  0
 11  9  1  0  0  0  0
 12 13  1  0  0  0  0
 13 14  1  0  0  0  0
 14 15  1  0  0  0  0
 15 16  1  0  0  0  0
 16 17  1  0  0  0  0
 17 18  1  0  0  0  0
 18 19  1  0  0  0  0
 19 20  1  0  0  0  0
 20 23  1  0  0  0  0
 21 19  1  0  0  0  0
 21 22  1  0  0  0  0
 22 25  1  0  0  0  0
 24 21  2  0  0  0  0
 25 23  1  0  0  0  0
 26  5  1  0  0  0  0
 27 28  2  0  0  0  0
 29 32  1  0  0  0  0
 30 31  2  0  0  0  0
 31 26  1  0  0  0  0
 31 28  1  0  0  0  0
 32 30  1  0  0  0  0
 32 27  1  0  0  0  0
 33 30  1  0  0  0  0
 33 34  1  0  0  0  0
M  END
>  <MODEL>
8

>  <REMARK>
 VINA RESULT:      -6.7      2.593      5.659
  Name = 
  12 active torsions:
  status: ('A' for Active; 'I' for Inactive)
    1  A    between atoms: N_1  and  C_14
    2  A    between atoms: O_7  and  C_25
    3  A    between atoms: C_9  and  C_12
    4  A    between atoms: C_10  and  N_13
    5  A    between atoms: C_10  and  C_22
    6  A    between atoms: N_13  and  C_30
    7  A    between atoms: C_14  and  C_15
    8  A    between atoms: C_15  and  C_29
    9  A    between atoms: C_20  and  C_21
   10  A    between atoms: C_20  and  C_26
   11  A    between atoms: C_22  and  C_33
   12  A    between atoms: C_29  and  C_33
                            x       y       z     vdW  Elec       q    Type
                         _______ _______ _______ _____ _____    ______ ____

>  <TORSDO>
F 12

$$$$
=
 OpenBabel11042412173D

 34 37  0  0  0  0  0  0  0  0999 V2000
  185.3940  178.5630  144.1790 C   0  0  0  0  0  3  0  0  0  0  0  0
  183.1940  178.8910  144.0970 N   0  0  0  0  0  0  0  0  0  0  0  0
  184.2770  178.6580  143.3740 C   0  0  0  0  0  0  0  0  0  0  0  0
  184.8640  178.7650  145.4650 C   0  0  0  0  0  0  0  0  0  0  0  0
  182.6980  178.7330  141.6730 C   0  0  0  0  0  0  0  0  0  0  0  0
  184.0590  178.5580  141.9870 C   0  0  0  0  0  0  0  0  0  0  0  0
  183.4840  178.9670  145.3990 C   0  0  0  0  0  3  0  0  0  0  0  0
  181.8620  178.9930  143.1230 S   0  0  0  0  0  0  0  0  0  0  0  0
  185.6990  179.7860  147.4300 O   0  0  0  0  0  1  0  0  0  0  0  0
  186.3430  177.6170  147.0860 O   0  0  0  0  0  0  0  0  0  0  0  0
  185.6490  178.7590  146.7050 C   0  0  0  0  0  0  0  0  0  0  0  0
  185.0630  178.2980  141.0010 N   0  0  0  0  0  2  0  0  0  0  0  0
  186.3380  178.9960  140.9550 C   0  0  0  0  0  2  0  0  0  0  0  0
  187.4810  177.9940  140.9510 C   0  0  0  0  0  2  0  0  0  0  0  0
  188.2220  177.9910  142.2830 C   0  0  0  0  0  2  0  0  0  0  0  0
  188.2040  176.6140  142.9290 C   0  0  0  0  0  2  0  0  0  0  0  0
  189.6090  176.0500  143.0170 C   0  0  0  0  0  2  0  0  0  0  0  0
  190.5390  177.1040  143.5900 C   0  0  0  0  0  2  0  0  0  0  0  0
  190.8490  176.7960  144.9790 N   0  0  0  0  0  0  0  0  0  0  0  0
  192.0420  176.0040  145.2630 C   0  0  0  0  0  2  0  0  0  0  0  0
  190.1320  177.4210  146.0570 C   0  0  0  0  0  0  0  0  0  0  0  0
  190.4810  177.1270  147.3780 O   0  0  0  0  0  0  0  0  0  0  0  0
  191.9390  175.3380  146.6330 C   0  0  0  0  0  2  0  0  0  0  0  0
  189.1650  178.1950  145.8250 O   0  0  0  0  0  0  0  0  0  0  0  0
  191.6740  176.4090  147.6850 C   0  0  0  0  0  2  0  0  0  0  0  0
  182.0730  178.6690  140.3180 C   0  0  0  0  0  2  0  0  0  0  0  0
  179.1340  176.4810  140.4220 N   0  0  0  0  0  0  0  0  0  0  0  0
  179.7170  177.6880  140.5980 C   0  0  0  0  0  3  0  0  0  0  0  0
  179.7870  174.2390  139.6830 C   0  0  0  0  0  1  0  0  0  0  0  0
  181.2310  176.2610  139.8690 C   0  0  0  0  0  0  0  0  0  0  0  0
  181.0560  177.5780  140.2540 C   0  0  0  0  0  0  0  0  0  0  0  0
  180.0510  175.6340  139.9850 N   0  0  0  0  0  0  0  0  0  0  0  0
  182.3980  175.6310  139.4210 O   0  0  0  0  0  0  0  0  0  0  0  0
  182.9230  175.8090  138.1140 C   0  0  0  0  0  1  0  0  0  0  0  0
  1  4  1  0  0  0  0
  2  7  1  0  0  0  0
  3  2  1  0  0  0  0
  3  1  2  0  0  0  0
  4 11  1  0  0  0  0
  5  6  2  0  0  0  0
  5  8  1  0  0  0  0
  6  3  1  0  0  0  0
  7  4  2  0  0  0  0
  8  2  1  0  0  0  0
 11 10  2  0  0  0  0
 11  9  1  0  0  0  0
 12  6  1  0  0  0  0
 13 12  1  0  0  0  0
 14 13  1  0  0  0  0
 14 15  1  0  0  0  0
 15 16  1  0  0  0  0
 16 17  1  0  0  0  0
 17 18  1  0  0  0  0
 18 19  1  0  0  0  0
 19 20  1  0  0  0  0
 19 21  1  0  0  0  0
 20 23  1  0  0  0  0
 21 22  1  0  0  0  0
 22 25  1  0  0  0  0
 23 25  1  0  0  0  0
 24 21  2  0  0  0  0
 26  5  1  0  0  0  0
 27 28  2  0  0  0  0
 29 32  1  0  0  0  0
 30 32  1  0  0  0  0
 30 31  2  0  0  0  0
 31 26  1  0  0  0  0
 31 28  1  0  0  0  0
 32 27  1  0  0  0  0
 33 30  1  0  0  0  0
 34 33  1  0  0  0  0
M  END
>  <MODEL>
9

>  <REMARK>
 VINA RESULT:      -6.6      2.651      4.959
  Name = 
  12 active torsions:
  status: ('A' for Active; 'I' for Inactive)
    1  A    between atoms: N_1  and  C_14
    2  A    between atoms: O_7  and  C_25
    3  A    between atoms: C_9  and  C_12
    4  A    between atoms: C_10  and  N_13
    5  A    between atoms: C_10  and  C_22
    6  A    between atoms: N_13  and  C_30
    7  A    between atoms: C_14  and  C_15
    8  A    between atoms: C_15  and  C_29
    9  A    between atoms: C_20  and  C_21
   10  A    between atoms: C_20  and  C_26
   11  A    between atoms: C_22  and  C_33
   12  A    between atoms: C_29  and  C_33
                            x       y       z     vdW  Elec       q    Type
                         _______ _______ _______ _____ _____    ______ ____

>  <TORSDO>
F 12

$$$$
