=
 OpenBabel11042411593D

 28 29  0  0  1  0  0  0  0  0999 V2000
  187.3690  176.3450  143.6840 C   0  0  1  0  0  3  0  0  0  0  0  0
  186.4770  177.6060  145.6430 O   0  0  0  0  0  1  0  0  0  0  0  0
  188.6320  176.0020  143.1930 O   0  0  0  0  0  1  0  0  0  0  0  0
  187.4600  177.5220  144.6540 C   0  0  2  0  0  0  0  0  0  0  0  0
  186.9720  177.7580  143.2310 C   0  0  2  0  0  0  0  0  0  0  0  0
  185.2000  178.1110  143.0530 S   0  0  0  0  0  3  0  0  0  0  0  0
  185.0840  179.5800  143.4360 O   0  0  0  0  0  0  0  0  0  0  0  0
  187.8820  178.4700  142.4260 O   0  0  0  0  0  0  0  0  0  0  0  0
  187.3740  178.4490  141.1220 C   0  0  0  0  0  2  0  0  0  0  0  0
  188.5230  178.4130  140.1310 C   0  0  0  0  0  2  0  0  0  0  0  0
  188.0650  177.8120  138.8110 C   0  0  1  0  0  3  0  0  0  0  0  0
  186.6180  178.1780  138.5250 C   0  0  0  0  0  1  0  0  0  0  0  0
  189.8720  177.3120  137.0000 C   0  0  0  0  0  1  0  0  0  0  0  0
  188.9130  179.4880  137.3140 N   0  0  0  0  0  2  0  0  0  0  0  0
  188.9510  178.2650  137.6910 C   0  0  0  0  0  0  0  0  0  0  0  0
  188.7840  178.0810  144.9560 N   0  0  0  0  0  2  0  0  0  0  0  0
  189.6670  177.1600  145.6920 C   0  0  1  0  0  3  0  0  0  0  0  0
  191.7510  176.1710  143.1780 N   0  0  0  0  0  2  0  0  0  0  0  0
  191.8640  174.9910  145.1740 O   0  0  0  0  0  0  0  0  0  0  0  0
  191.4470  178.5830  144.6580 C   0  0  0  0  0  3  0  0  0  0  0  0
  191.1840  177.2920  145.4050 C   0  0  1  0  0  0  0  0  0  0  0  0
  191.6300  178.6560  143.3380 C   0  0  0  0  0  3  0  0  0  0  0  0
  191.9030  177.3320  146.6020 O   0  0  0  0  0  1  0  0  0  0  0  0
  191.6750  177.4380  142.5280 C   0  0  0  0  0  0  0  0  0  0  0  0
  191.6390  176.0900  144.6000 C   0  0  0  0  0  0  0  0  0  0  0  0
  191.7870  177.5150  141.2450 N   0  0  0  0  0  2  0  0  0  0  0  0
  189.2080  176.7920  147.1130 C   0  0  0  0  0  2  0  0  0  0  0  0
  189.0240  178.0020  148.0110 C   0  0  0  0  0  1  0  0  0  0  0  0
  1  3  1  6  0  0  0
  1  4  1  0  0  0  0
  4 16  1  0  0  0  0
  4  2  1  1  0  0  0
  5  8  1  6  0  0  0
  5  1  1  0  0  0  0
  5  4  1  0  0  0  0
  6  5  1  0  0  0  0
  6  7  2  0  0  0  0
  9  8  1  0  0  0  0
 10  9  1  0  0  0  0
 11 12  1  6  0  0  0
 11 10  1  0  0  0  0
 13 15  1  0  0  0  0
 14 15  2  0  0  0  0
 15 11  1  0  0  0  0
 16 17  1  0  0  0  0
 17 27  1  1  0  0  0
 18 25  1  0  0  0  0
 20 21  1  0  0  0  0
 21 17  1  0  0  0  0
 21 23  1  1  0  0  0
 22 20  2  0  0  0  0
 24 18  1  0  0  0  0
 24 22  1  0  0  0  0
 25 19  2  0  0  0  0
 25 21  1  0  0  0  0
 26 24  2  0  0  0  0
 27 28  1  0  0  0  0
M  END
>  <MODEL>
1

>  <REMARK>
 VINA RESULT:      -6.9      0.000      0.000
  Name = 
  10 active torsions:
  status: ('A' for Active; 'I' for Inactive)
    1  A    between atoms: C_2  and  O_9
    2  A    between atoms: C_2  and  C_24
    3  A    between atoms: C_3  and  C_24
    4  A    between atoms: C_3  and  C_27
    5  A    between atoms: C_5  and  C_20
    6  A    between atoms: O_9  and  C_28
    7  A    between atoms: S_10  and  C_28
    8  A    between atoms: C_12  and  C_20
    9  A    between atoms: N_15  and  C_20
   10  A    between atoms: N_15  and  C_23
                            x       y       z     vdW  Elec       q    Type
                         _______ _______ _______ _____ _____    ______ ____

>  <TORSDO>
F 10

$$$$
=
 OpenBabel11042411593D

 28 29  0  0  1  0  0  0  0  0999 V2000
  190.1300  176.1260  142.5770 C   0  0  1  0  0  3  0  0  0  0  0  0
  191.7600  177.6050  141.4030 O   0  0  0  0  0  1  0  0  0  0  0  0
  188.8280  175.6730  142.3450 O   0  0  0  0  0  1  0  0  0  0  0  0
  190.4270  177.3800  141.7560 C   0  0  2  0  0  0  0  0  0  0  0  0
  190.1160  177.5120  143.2400 C   0  0  2  0  0  0  0  0  0  0  0  0
  191.5220  177.9410  144.3060 S   0  0  0  0  0  3  0  0  0  0  0  0
  191.7060  179.4350  144.0750 O   0  0  0  0  0  0  0  0  0  0  0  0
  188.8650  178.0980  143.5120 O   0  0  0  0  0  0  0  0  0  0  0  0
  188.6350  177.9500  144.8840 C   0  0  0  0  0  2  0  0  0  0  0  0
  187.3160  177.2330  145.1030 C   0  0  0  0  0  2  0  0  0  0  0  0
  186.7380  177.5910  146.4630 C   0  0  1  0  0  3  0  0  0  0  0  0
  187.8460  177.9160  147.4520 C   0  0  0  0  0  1  0  0  0  0  0  0
  184.9560  178.9370  145.1170 C   0  0  0  0  0  1  0  0  0  0  0  0
  185.6850  179.5770  147.3120 N   0  0  0  0  0  2  0  0  0  0  0  0
  185.7890  178.7450  146.3440 C   0  0  0  0  0  0  0  0  0  0  0  0
  189.3860  177.8920  140.8550 N   0  0  0  0  0  2  0  0  0  0  0  0
  189.4530  177.3410  139.4910 C   0  0  1  0  0  3  0  0  0  0  0  0
  189.1660  178.0620  136.1690 N   0  0  0  0  0  2  0  0  0  0  0  0
  189.0060  179.8380  137.6560 O   0  0  0  0  0  0  0  0  0  0  0  0
  187.6680  176.4530  137.9780 C   0  0  0  0  0  3  0  0  0  0  0  0
  188.2840  177.7160  138.5440 C   0  0  1  0  0  0  0  0  0  0  0  0
  187.9330  175.9770  136.7600 C   0  0  0  0  0  3  0  0  0  0  0  0
  187.2920  178.4040  139.2460 O   0  0  0  0  0  1  0  0  0  0  0  0
  188.7970  176.7240  135.8440 C   0  0  0  0  0  0  0  0  0  0  0  0
  188.8150  178.6110  137.4410 C   0  0  0  0  0  0  0  0  0  0  0  0
  189.1020  176.2300  134.6920 N   0  0  0  0  0  2  0  0  0  0  0  0
  190.8660  177.1900  138.9040 C   0  0  0  0  0  2  0  0  0  0  0  0
  191.1740  175.7740  138.4510 C   0  0  0  0  0  1  0  0  0  0  0  0
  1  3  1  6  0  0  0
  1  5  1  0  0  0  0
  4  2  1  6  0  0  0
  4  1  1  0  0  0  0
  4  5  1  0  0  0  0
  5  8  1  1  0  0  0
  5  6  1  0  0  0  0
  7  6  2  0  0  0  0
  8  9  1  0  0  0  0
  9 10  1  0  0  0  0
 10 11  1  0  0  0  0
 11 12  1  1  0  0  0
 13 15  1  0  0  0  0
 15 11  1  0  0  0  0
 15 14  2  0  0  0  0
 16  4  1  0  0  0  0
 17 27  1  6  0  0  0
 17 16  1  0  0  0  0
 18 25  1  0  0  0  0
 20 21  1  0  0  0  0
 21 23  1  1  0  0  0
 21 17  1  0  0  0  0
 22 20  2  0  0  0  0
 24 18  1  0  0  0  0
 24 22  1  0  0  0  0
 25 19  2  0  0  0  0
 25 21  1  0  0  0  0
 26 24  2  0  0  0  0
 28 27  1  0  0  0  0
M  END
>  <MODEL>
2

>  <REMARK>
 VINA RESULT:      -6.8      2.731      7.195
  Name = 
  10 active torsions:
  status: ('A' for Active; 'I' for Inactive)
    1  A    between atoms: C_2  and  O_9
    2  A    between atoms: C_2  and  C_24
    3  A    between atoms: C_3  and  C_24
    4  A    between atoms: C_3  and  C_27
    5  A    between atoms: C_5  and  C_20
    6  A    between atoms: O_9  and  C_28
    7  A    between atoms: S_10  and  C_28
    8  A    between atoms: C_12  and  C_20
    9  A    between atoms: N_15  and  C_20
   10  A    between atoms: N_15  and  C_23
                            x       y       z     vdW  Elec       q    Type
                         _______ _______ _______ _____ _____    ______ ____

>  <TORSDO>
F 10

$$$$
=
 OpenBabel11042411593D

 28 29  0  0  1  0  0  0  0  0999 V2000
  191.3440  175.8420  143.3160 C   0  0  1  0  0  3  0  0  0  0  0  0
  191.9050  177.7410  141.8000 O   0  0  0  0  0  1  0  0  0  0  0  0
  190.7010  174.6070  143.1930 O   0  0  0  0  0  1  0  0  0  0  0  0
  190.9680  176.7720  142.1630 C   0  0  2  0  0  0  0  0  0  0  0  0
  190.3220  176.9700  143.5270 C   0  0  2  0  0  0  0  0  0  0  0  0
  190.8720  178.4310  144.4560 S   0  0  0  0  0  3  0  0  0  0  0  0
  191.6040  177.8420  145.6540 O   0  0  0  0  0  0  0  0  0  0  0  0
  188.9580  176.6220  143.5700 O   0  0  0  0  0  0  0  0  0  0  0  0
  188.3080  177.6160  144.3110 C   0  0  0  0  0  2  0  0  0  0  0  0
  186.8630  177.2120  144.5410 C   0  0  0  0  0  2  0  0  0  0  0  0
  186.4640  177.4730  145.9850 C   0  0  1  0  0  3  0  0  0  0  0  0
  187.6940  177.6610  146.8580 C   0  0  0  0  0  1  0  0  0  0  0  0
  184.6710  179.0530  144.9430 C   0  0  0  0  0  1  0  0  0  0  0  0
  185.5700  179.3790  147.1430 N   0  0  0  0  0  2  0  0  0  0  0  0
  185.5690  178.6720  146.0750 C   0  0  0  0  0  0  0  0  0  0  0  0
  190.0680  176.2660  141.1180 N   0  0  0  0  0  2  0  0  0  0  0  0
  189.5680  177.3080  140.2060 C   0  0  1  0  0  3  0  0  0  0  0  0
  188.5670  175.9350  137.2470 N   0  0  0  0  0  2  0  0  0  0  0  0
  190.3420  174.9150  138.3420 O   0  0  0  0  0  0  0  0  0  0  0  0
  189.6080  178.4770  137.9930 C   0  0  0  0  0  3  0  0  0  0  0  0
  190.1290  177.2790  138.7610 C   0  0  1  0  0  0  0  0  0  0  0  0
  188.5870  178.4250  137.1360 C   0  0  0  0  0  3  0  0  0  0  0  0
  191.5240  177.3510  138.7810 O   0  0  0  0  0  1  0  0  0  0  0  0
  187.9500  177.1460  136.8180 C   0  0  0  0  0  0  0  0  0  0  0  0
  189.7140  175.9800  138.0990 C   0  0  0  0  0  0  0  0  0  0  0  0
  186.9220  177.1090  136.0400 N   0  0  0  0  0  2  0  0  0  0  0  0
  188.1090  177.7410  140.4280 C   0  0  0  0  0  2  0  0  0  0  0  0
  187.9830  179.0120  141.2500 C   0  0  0  0  0  1  0  0  0  0  0  0
  1  3  1  6  0  0  0
  1  5  1  0  0  0  0
  4  2  1  6  0  0  0
  4  1  1  0  0  0  0
  4  5  1  0  0  0  0
  5  8  1  1  0  0  0
  5  6  1  0  0  0  0
  6  7  2  0  0  0  0
  8  9  1  0  0  0  0
  9 10  1  0  0  0  0
 10 11  1  0  0  0  0
 11 15  1  0  0  0  0
 11 12  1  1  0  0  0
 13 15  1  0  0  0  0
 15 14  2  0  0  0  0
 16  4  1  0  0  0  0
 17 27  1  6  0  0  0
 17 16  1  0  0  0  0
 18 25  1  0  0  0  0
 20 21  1  0  0  0  0
 21 23  1  1  0  0  0
 21 17  1  0  0  0  0
 22 20  2  0  0  0  0
 24 22  1  0  0  0  0
 24 18  1  0  0  0  0
 25 19  2  0  0  0  0
 25 21  1  0  0  0  0
 26 24  2  0  0  0  0
 27 28  1  0  0  0  0
M  END
>  <MODEL>
3

>  <REMARK>
 VINA RESULT:      -6.7      2.685      6.590
  Name = 
  10 active torsions:
  status: ('A' for Active; 'I' for Inactive)
    1  A    between atoms: C_2  and  O_9
    2  A    between atoms: C_2  and  C_24
    3  A    between atoms: C_3  and  C_24
    4  A    between atoms: C_3  and  C_27
    5  A    between atoms: C_5  and  C_20
    6  A    between atoms: O_9  and  C_28
    7  A    between atoms: S_10  and  C_28
    8  A    between atoms: C_12  and  C_20
    9  A    between atoms: N_15  and  C_20
   10  A    between atoms: N_15  and  C_23
                            x       y       z     vdW  Elec       q    Type
                         _______ _______ _______ _____ _____    ______ ____

>  <TORSDO>
F 10

$$$$
=
 OpenBabel11042411593D

 28 29  0  0  1  0  0  0  0  0999 V2000
  191.2340  177.8070  139.9210 C   0  0  1  0  0  3  0  0  0  0  0  0
  189.7040  177.1290  138.0720 O   0  0  0  0  0  1  0  0  0  0  0  0
  192.4840  177.4030  140.3970 O   0  0  0  0  0  1  0  0  0  0  0  0
  190.5960  176.7150  139.0640 C   0  0  2  0  0  0  0  0  0  0  0  0
  190.1180  176.9200  140.4940 C   0  0  2  0  0  0  0  0  0  0  0  0
  188.4720  177.6640  140.6790 S   0  0  0  0  0  3  0  0  0  0  0  0
  188.7050  178.8240  141.6370 O   0  0  0  0  0  0  0  0  0  0  0  0
  190.4890  175.8850  141.3740 O   0  0  0  0  0  0  0  0  0  0  0  0
  189.7500  176.0650  142.5490 C   0  0  0  0  0  2  0  0  0  0  0  0
  190.6950  176.3450  143.7040 C   0  0  0  0  0  2  0  0  0  0  0  0
  190.0520  177.3040  144.6930 C   0  0  1  0  0  3  0  0  0  0  0  0
  188.5370  177.1750  144.6620 C   0  0  0  0  0  1  0  0  0  0  0  0
  189.6450  177.0070  147.2510 C   0  0  0  0  0  1  0  0  0  0  0  0
  191.8250  176.8800  146.2580 N   0  0  0  0  0  2  0  0  0  0  0  0
  190.5690  177.0570  146.0780 C   0  0  0  0  0  0  0  0  0  0  0  0
  191.3480  175.4750  138.8320 N   0  0  0  0  0  2  0  0  0  0  0  0
  191.2800  174.9870  137.4440 C   0  0  1  0  0  3  0  0  0  0  0  0
  194.5900  175.1140  138.2630 N   0  0  0  0  0  2  0  0  0  0  0  0
  193.6360  177.0470  137.4000 O   0  0  0  0  0  0  0  0  0  0  0  0
  193.0710  173.5760  136.4110 C   0  0  0  0  0  3  0  0  0  0  0  0
  192.6100  175.0000  136.6480 C   0  0  1  0  0  0  0  0  0  0  0  0
  194.0110  172.9680  137.1350 C   0  0  0  0  0  3  0  0  0  0  0  0
  192.4250  175.6080  135.4040 O   0  0  0  0  0  1  0  0  0  0  0  0
  194.7330  173.6990  138.1780 C   0  0  0  0  0  0  0  0  0  0  0  0
  193.6430  175.7880  137.4310 C   0  0  0  0  0  0  0  0  0  0  0  0
  195.5950  173.0900  138.9200 N   0  0  0  0  0  2  0  0  0  0  0  0
  190.2710  173.8540  137.1880 C   0  0  0  0  0  2  0  0  0  0  0  0
  189.1740  174.2440  136.2130 C   0  0  0  0  0  1  0  0  0  0  0  0
  1  3  1  1  0  0  0
  1  5  1  0  0  0  0
  4  2  1  6  0  0  0
  4  1  1  0  0  0  0
  4  5  1  0  0  0  0
  5  6  1  1  0  0  0
  5  8  1  0  0  0  0
  6  7  2  0  0  0  0
  8  9  1  0  0  0  0
  9 10  1  0  0  0  0
 10 11  1  0  0  0  0
 11 12  1  1  0  0  0
 11 15  1  0  0  0  0
 15 14  2  0  0  0  0
 15 13  1  0  0  0  0
 16  4  1  0  0  0  0
 17 27  1  1  0  0  0
 17 16  1  0  0  0  0
 19 25  2  0  0  0  0
 20 21  1  0  0  0  0
 20 22  2  0  0  0  0
 21 23  1  6  0  0  0
 21 25  1  0  0  0  0
 21 17  1  0  0  0  0
 22 24  1  0  0  0  0
 24 18  1  0  0  0  0
 24 26  2  0  0  0  0
 25 18  1  0  0  0  0
 28 27  1  0  0  0  0
M  END
>  <MODEL>
4

>  <REMARK>
 VINA RESULT:      -6.4      4.128      7.639
  Name = 
  10 active torsions:
  status: ('A' for Active; 'I' for Inactive)
    1  A    between atoms: C_2  and  O_9
    2  A    between atoms: C_2  and  C_24
    3  A    between atoms: C_3  and  C_24
    4  A    between atoms: C_3  and  C_27
    5  A    between atoms: C_5  and  C_20
    6  A    between atoms: O_9  and  C_28
    7  A    between atoms: S_10  and  C_28
    8  A    between atoms: C_12  and  C_20
    9  A    between atoms: N_15  and  C_20
   10  A    between atoms: N_15  and  C_23
                            x       y       z     vdW  Elec       q    Type
                         _______ _______ _______ _____ _____    ______ ____

>  <TORSDO>
F 10

$$$$
=
 OpenBabel11042411593D

 28 29  0  0  1  0  0  0  0  0999 V2000
  183.4210  179.6110  138.9170 C   0  0  1  0  0  3  0  0  0  0  0  0
  183.0150  177.2180  138.3460 O   0  0  0  0  0  1  0  0  0  0  0  0
  184.5090  180.4870  138.8840 O   0  0  0  0  0  1  0  0  0  0  0  0
  183.8890  178.1570  138.8990 C   0  0  2  0  0  0  0  0  0  0  0  0
  183.4290  178.7800  140.2090 C   0  0  2  0  0  0  0  0  0  0  0  0
  181.8270  178.2010  140.8390 S   0  0  0  0  0  3  0  0  0  0  0  0
  181.1040  179.4860  141.2220 O   0  0  0  0  0  0  0  0  0  0  0  0
  184.4690  179.0060  141.1300 O   0  0  0  0  0  0  0  0  0  0  0  0
  184.2050  178.2060  142.2480 C   0  0  0  0  0  2  0  0  0  0  0  0
  185.3280  178.3580  143.2570 C   0  0  0  0  0  2  0  0  0  0  0  0
  184.8230  179.0570  144.5100 C   0  0  1  0  0  3  0  0  0  0  0  0
  183.3100  178.9560  144.6110 C   0  0  0  0  0  1  0  0  0  0  0  0
  186.8130  177.8290  145.6610 C   0  0  0  0  0  1  0  0  0  0  0  0
  184.8620  178.5480  146.8570 N   0  0  0  0  0  2  0  0  0  0  0  0
  185.4700  178.4790  145.7320 C   0  0  0  0  0  0  0  0  0  0  0  0
  185.3290  177.8830  138.8130 N   0  0  0  0  0  2  0  0  0  0  0  0
  185.8380  177.7900  137.4350 C   0  0  1  0  0  3  0  0  0  0  0  0
  188.8630  176.7740  138.6420 N   0  0  0  0  0  2  0  0  0  0  0  0
  188.0150  178.7770  139.4550 O   0  0  0  0  0  0  0  0  0  0  0  0
  187.8970  177.4540  136.0530 C   0  0  0  0  0  3  0  0  0  0  0  0
  187.3100  178.2240  137.2180 C   0  0  1  0  0  0  0  0  0  0  0  0
  188.6840  176.3850  136.1860 C   0  0  0  0  0  3  0  0  0  0  0  0
  187.3760  179.5850  136.9140 O   0  0  0  0  0  1  0  0  0  0  0  0
  189.1050  175.9370  137.5150 C   0  0  0  0  0  0  0  0  0  0  0  0
  188.0900  177.9680  138.4930 C   0  0  0  0  0  0  0  0  0  0  0  0
  189.8120  174.8650  137.6440 N   0  0  0  0  0  2  0  0  0  0  0  0
  185.2730  176.6320  136.5950 C   0  0  0  0  0  2  0  0  0  0  0  0
  184.5550  177.1010  135.3410 C   0  0  0  0  0  1  0  0  0  0  0  0
  1  3  1  1  0  0  0
  1  5  1  0  0  0  0
  4  2  1  6  0  0  0
  4  1  1  0  0  0  0
  4  5  1  0  0  0  0
  5  6  1  1  0  0  0
  5  8  1  0  0  0  0
  6  7  2  0  0  0  0
  8  9  1  0  0  0  0
  9 10  1  0  0  0  0
 10 11  1  0  0  0  0
 11 12  1  1  0  0  0
 11 15  1  0  0  0  0
 13 15  1  0  0  0  0
 15 14  2  0  0  0  0
 16  4  1  0  0  0  0
 17 27  1  1  0  0  0
 17 16  1  0  0  0  0
 20 22  2  0  0  0  0
 20 21  1  0  0  0  0
 21 23  1  6  0  0  0
 21 17  1  0  0  0  0
 21 25  1  0  0  0  0
 22 24  1  0  0  0  0
 24 26  2  0  0  0  0
 24 18  1  0  0  0  0
 25 18  1  0  0  0  0
 25 19  2  0  0  0  0
 28 27  1  0  0  0  0
M  END
>  <MODEL>
5

>  <REMARK>
 VINA RESULT:      -6.3      4.088      7.751
  Name = 
  10 active torsions:
  status: ('A' for Active; 'I' for Inactive)
    1  A    between atoms: C_2  and  O_9
    2  A    between atoms: C_2  and  C_24
    3  A    between atoms: C_3  and  C_24
    4  A    between atoms: C_3  and  C_27
    5  A    between atoms: C_5  and  C_20
    6  A    between atoms: O_9  and  C_28
    7  A    between atoms: S_10  and  C_28
    8  A    between atoms: C_12  and  C_20
    9  A    between atoms: N_15  and  C_20
   10  A    between atoms: N_15  and  C_23
                            x       y       z     vdW  Elec       q    Type
                         _______ _______ _______ _____ _____    ______ ____

>  <TORSDO>
F 10

$$$$
=
 OpenBabel11042411593D

 28 29  0  0  1  0  0  0  0  0999 V2000
  189.4370  178.1380  138.3690 C   0  0  1  0  0  3  0  0  0  0  0  0
  190.0790  176.0040  139.4890 O   0  0  0  0  0  1  0  0  0  0  0  0
  189.1660  179.4490  138.7710 O   0  0  0  0  0  1  0  0  0  0  0  0
  189.3080  177.1680  139.5420 C   0  0  2  0  0  0  0  0  0  0  0  0
  188.1890  177.2540  138.5140 C   0  0  2  0  0  0  0  0  0  0  0  0
  188.0370  175.8340  137.3910 S   0  0  0  0  0  3  0  0  0  0  0  0
  188.6120  176.3490  136.0780 O   0  0  0  0  0  0  0  0  0  0  0  0
  187.0110  177.8530  139.0000 O   0  0  0  0  0  0  0  0  0  0  0  0
  186.0530  177.7510  137.9840 C   0  0  0  0  0  2  0  0  0  0  0  0
  184.6660  177.9240  138.5760 C   0  0  0  0  0  2  0  0  0  0  0  0
  184.5770  179.2350  139.3410 C   0  0  1  0  0  3  0  0  0  0  0  0
  183.2940  179.9740  138.9970 C   0  0  0  0  0  1  0  0  0  0  0  0
  183.8240  177.9390  141.4740 C   0  0  0  0  0  1  0  0  0  0  0  0
  185.4630  179.6900  141.5270 N   0  0  0  0  0  2  0  0  0  0  0  0
  184.6590  178.9900  140.8170 C   0  0  0  0  0  0  0  0  0  0  0  0
  188.9760  177.7080  140.8660 N   0  0  0  0  0  2  0  0  0  0  0  0
  189.5220  176.9220  141.9860 C   0  0  1  0  0  3  0  0  0  0  0  0
  190.6790  178.1200  144.9630 N   0  0  0  0  0  2  0  0  0  0  0  0
  190.4680  179.6380  143.2190 O   0  0  0  0  0  0  0  0  0  0  0  0
  191.6280  176.1760  143.1130 C   0  0  0  0  0  3  0  0  0  0  0  0
  190.9020  177.3710  142.5280 C   0  0  1  0  0  0  0  0  0  0  0  0
  191.6850  175.9050  144.4180 C   0  0  0  0  0  3  0  0  0  0  0  0
  191.6860  177.8880  141.4940 O   0  0  0  0  0  1  0  0  0  0  0  0
  191.1020  176.8290  145.3930 C   0  0  0  0  0  0  0  0  0  0  0  0
  190.6920  178.4500  143.5720 C   0  0  0  0  0  0  0  0  0  0  0  0
  191.1020  176.5320  146.6490 N   0  0  0  0  0  2  0  0  0  0  0  0
  188.4830  176.3590  142.9700 C   0  0  0  0  0  2  0  0  0  0  0  0
  187.3220  177.3060  143.2180 C   0  0  0  0  0  1  0  0  0  0  0  0
  1  5  1  0  0  0  0
  1  3  1  1  0  0  0
  1  4  1  0  0  0  0
  4  2  1  6  0  0  0
  4 16  1  0  0  0  0
  5  6  1  6  0  0  0
  5  8  1  0  0  0  0
  5  4  1  0  0  0  0
  7  6  2  0  0  0  0
  9 10  1  0  0  0  0
  9  8  1  0  0  0  0
 10 11  1  0  0  0  0
 11 12  1  1  0  0  0
 11 15  1  0  0  0  0
 15 13  1  0  0  0  0
 15 14  2  0  0  0  0
 16 17  1  0  0  0  0
 17 21  1  0  0  0  0
 17 27  1  1  0  0  0
 18 24  1  0  0  0  0
 19 25  2  0  0  0  0
 20 22  2  0  0  0  0
 21 23  1  6  0  0  0
 21 20  1  0  0  0  0
 21 25  1  0  0  0  0
 22 24  1  0  0  0  0
 24 26  2  0  0  0  0
 25 18  1  0  0  0  0
 27 28  1  0  0  0  0
M  END
>  <MODEL>
6

>  <REMARK>
 VINA RESULT:      -6.2      3.093      4.975
  Name = 
  10 active torsions:
  status: ('A' for Active; 'I' for Inactive)
    1  A    between atoms: C_2  and  O_9
    2  A    between atoms: C_2  and  C_24
    3  A    between atoms: C_3  and  C_24
    4  A    between atoms: C_3  and  C_27
    5  A    between atoms: C_5  and  C_20
    6  A    between atoms: O_9  and  C_28
    7  A    between atoms: S_10  and  C_28
    8  A    between atoms: C_12  and  C_20
    9  A    between atoms: N_15  and  C_20
   10  A    between atoms: N_15  and  C_23
                            x       y       z     vdW  Elec       q    Type
                         _______ _______ _______ _____ _____    ______ ____

>  <TORSDO>
F 10

$$$$
=
 OpenBabel11042411593D

 28 29  0  0  1  0  0  0  0  0999 V2000
  191.0470  176.1030  142.8240 C   0  0  1  0  0  3  0  0  0  0  0  0
  191.9030  177.6670  141.0810 O   0  0  0  0  0  1  0  0  0  0  0  0
  190.2480  174.9560  142.8490 O   0  0  0  0  0  1  0  0  0  0  0  0
  190.8340  176.8910  141.5330 C   0  0  2  0  0  0  0  0  0  0  0  0
  190.1810  177.3710  142.8210 C   0  0  2  0  0  0  0  0  0  0  0  0
  190.8930  178.8710  143.5550 S   0  0  0  0  0  3  0  0  0  0  0  0
  191.7430  178.3420  144.7030 O   0  0  0  0  0  0  0  0  0  0  0  0
  188.7810  177.2120  142.8460 O   0  0  0  0  0  0  0  0  0  0  0  0
  188.3260  177.7950  144.0350 C   0  0  0  0  0  2  0  0  0  0  0  0
  186.8970  177.3600  144.2980 C   0  0  0  0  0  2  0  0  0  0  0  0
  186.5620  177.5080  145.7740 C   0  0  1  0  0  3  0  0  0  0  0  0
  187.8180  177.7670  146.5890 C   0  0  0  0  0  1  0  0  0  0  0  0
  184.5330  178.9210  144.9460 C   0  0  0  0  0  1  0  0  0  0  0  0
  185.6020  179.2940  147.0620 N   0  0  0  0  0  2  0  0  0  0  0  0
  185.5680  178.6100  145.9800 C   0  0  0  0  0  0  0  0  0  0  0  0
  189.9050  176.3540  140.5290 N   0  0  0  0  0  2  0  0  0  0  0  0
  190.0470  176.9680  139.1980 C   0  0  1  0  0  3  0  0  0  0  0  0
  191.8900  176.9060  136.3270 N   0  0  0  0  0  2  0  0  0  0  0  0
  189.6280  177.3860  136.1240 O   0  0  0  0  0  0  0  0  0  0  0  0
  191.2680  174.9690  138.3170 C   0  0  0  0  0  3  0  0  0  0  0  0
  190.1920  175.9890  138.0050 C   0  0  1  0  0  0  0  0  0  0  0  0
  192.5170  175.0380  137.8540 C   0  0  0  0  0  3  0  0  0  0  0  0
  188.9950  175.3030  137.7910 O   0  0  0  0  0  1  0  0  0  0  0  0
  192.9030  176.0950  136.9170 C   0  0  0  0  0  0  0  0  0  0  0  0
  190.5330  176.7810  136.7580 C   0  0  0  0  0  0  0  0  0  0  0  0
  194.1270  176.1970  136.5230 N   0  0  0  0  0  2  0  0  0  0  0  0
  189.2810  178.2860  138.9890 C   0  0  0  0  0  2  0  0  0  0  0  0
  187.9080  178.2850  139.6360 C   0  0  0  0  0  1  0  0  0  0  0  0
  1  3  1  6  0  0  0
  4  2  1  6  0  0  0
  4  5  1  0  0  0  0
  4  1  1  0  0  0  0
  5  1  1  0  0  0  0
  5  8  1  1  0  0  0
  5  6  1  0  0  0  0
  6  7  2  0  0  0  0
  8  9  1  0  0  0  0
  9 10  1  0  0  0  0
 10 11  1  0  0  0  0
 11 15  1  0  0  0  0
 11 12  1  1  0  0  0
 13 15  1  0  0  0  0
 15 14  2  0  0  0  0
 16  4  1  0  0  0  0
 17 27  1  6  0  0  0
 17 16  1  0  0  0  0
 18 25  1  0  0  0  0
 18 24  1  0  0  0  0
 19 25  2  0  0  0  0
 21 23  1  6  0  0  0
 21 20  1  0  0  0  0
 21 17  1  0  0  0  0
 22 20  2  0  0  0  0
 24 22  1  0  0  0  0
 25 21  1  0  0  0  0
 26 24  2  0  0  0  0
 27 28  1  0  0  0  0
M  END
>  <MODEL>
7

>  <REMARK>
 VINA RESULT:      -6.1      3.141      6.895
  Name = 
  10 active torsions:
  status: ('A' for Active; 'I' for Inactive)
    1  A    between atoms: C_2  and  O_9
    2  A    between atoms: C_2  and  C_24
    3  A    between atoms: C_3  and  C_24
    4  A    between atoms: C_3  and  C_27
    5  A    between atoms: C_5  and  C_20
    6  A    between atoms: O_9  and  C_28
    7  A    between atoms: S_10  and  C_28
    8  A    between atoms: C_12  and  C_20
    9  A    between atoms: N_15  and  C_20
   10  A    between atoms: N_15  and  C_23
                            x       y       z     vdW  Elec       q    Type
                         _______ _______ _______ _____ _____    ______ ____

>  <TORSDO>
F 10

$$$$
=
 OpenBabel11042411593D

 28 29  0  0  1  0  0  0  0  0999 V2000
  191.5790  178.4530  144.5460 C   0  0  1  0  0  3  0  0  0  0  0  0
  190.3850  176.7530  145.9250 O   0  0  0  0  0  1  0  0  0  0  0  0
  191.3320  179.7590  144.1140 O   0  0  0  0  0  1  0  0  0  0  0  0
  190.2830  177.7590  144.9620 C   0  0  2  0  0  0  0  0  0  0  0  0
  190.9080  177.4330  143.6130 C   0  0  2  0  0  0  0  0  0  0  0  0
  191.6790  175.7950  143.4750 S   0  0  0  0  0  3  0  0  0  0  0  0
  190.5030  174.8640  143.2080 O   0  0  0  0  0  0  0  0  0  0  0  0
  190.1820  177.9270  142.5120 O   0  0  0  0  0  0  0  0  0  0  0  0
  190.7670  177.3850  141.3620 C   0  0  0  0  0  2  0  0  0  0  0  0
  189.6800  176.9970  140.3760 C   0  0  0  0  0  2  0  0  0  0  0  0
  190.0100  177.5270  138.9890 C   0  0  1  0  0  3  0  0  0  0  0  0
  190.3900  176.3900  138.0540 C   0  0  0  0  0  1  0  0  0  0  0  0
  188.9590  179.0110  137.1210 C   0  0  0  0  0  1  0  0  0  0  0  0
  187.7540  178.3450  139.0860 N   0  0  0  0  0  2  0  0  0  0  0  0
  188.8540  178.2990  138.4310 C   0  0  0  0  0  0  0  0  0  0  0  0
  189.0280  178.5190  144.8970 N   0  0  0  0  0  2  0  0  0  0  0  0
  188.0760  178.1910  145.9720 C   0  0  1  0  0  3  0  0  0  0  0  0
  185.2680  179.3830  144.4430 N   0  0  0  0  0  2  0  0  0  0  0  0
  185.1290  178.9380  146.7180 O   0  0  0  0  0  0  0  0  0  0  0  0
  186.8540  177.0420  144.1150 C   0  0  0  0  0  3  0  0  0  0  0  0
  186.7240  177.5800  145.5260 C   0  0  1  0  0  0  0  0  0  0  0  0
  186.4280  177.6890  143.0290 C   0  0  0  0  0  3  0  0  0  0  0  0
  186.3710  176.5190  146.3620 O   0  0  0  0  0  1  0  0  0  0  0  0
  185.7100  178.9580  143.1560 C   0  0  0  0  0  0  0  0  0  0  0  0
  185.6510  178.6480  145.6080 C   0  0  0  0  0  0  0  0  0  0  0  0
  185.3570  179.6120  142.1020 N   0  0  0  0  0  2  0  0  0  0  0  0
  188.7040  177.7210  147.2950 C   0  0  0  0  0  2  0  0  0  0  0  0
  188.0920  178.3870  148.5150 C   0  0  0  0  0  1  0  0  0  0  0  0
  1  3  1  6  0  0  0
  1  4  1  0  0  0  0
  4  2  1  1  0  0  0
  5  8  1  6  0  0  0
  5  1  1  0  0  0  0
  5  4  1  0  0  0  0
  6  5  1  0  0  0  0
  7  6  2  0  0  0  0
  9  8  1  0  0  0  0
 10  9  1  0  0  0  0
 11 12  1  6  0  0  0
 11 10  1  0  0  0  0
 13 15  1  0  0  0  0
 15 11  1  0  0  0  0
 15 14  2  0  0  0  0
 16  4  1  0  0  0  0
 16 17  1  0  0  0  0
 17 27  1  1  0  0  0
 18 25  1  0  0  0  0
 20 21  1  0  0  0  0
 21 25  1  0  0  0  0
 21 17  1  0  0  0  0
 21 23  1  1  0  0  0
 22 24  1  0  0  0  0
 22 20  2  0  0  0  0
 24 18  1  0  0  0  0
 25 19  2  0  0  0  0
 26 24  2  0  0  0  0
 27 28  1  0  0  0  0
M  END
>  <MODEL>
8

>  <REMARK>
 VINA RESULT:      -6.0      2.343      4.600
  Name = 
  10 active torsions:
  status: ('A' for Active; 'I' for Inactive)
    1  A    between atoms: C_2  and  O_9
    2  A    between atoms: C_2  and  C_24
    3  A    between atoms: C_3  and  C_24
    4  A    between atoms: C_3  and  C_27
    5  A    between atoms: C_5  and  C_20
    6  A    between atoms: O_9  and  C_28
    7  A    between atoms: S_10  and  C_28
    8  A    between atoms: C_12  and  C_20
    9  A    between atoms: N_15  and  C_20
   10  A    between atoms: N_15  and  C_23
                            x       y       z     vdW  Elec       q    Type
                         _______ _______ _______ _____ _____    ______ ____

>  <TORSDO>
F 10

$$$$
=
 OpenBabel11042411593D

 28 29  0  0  1  0  0  0  0  0999 V2000
  190.3110  177.7030  138.7180 C   0  0  1  0  0  3  0  0  0  0  0  0
  192.0020  177.8000  140.5490 O   0  0  0  0  0  1  0  0  0  0  0  0
  188.9640  177.3480  138.6040 O   0  0  0  0  0  1  0  0  0  0  0  0
  190.9290  177.1070  139.9820 C   0  0  2  0  0  0  0  0  0  0  0  0
  191.2120  176.4620  138.6330 C   0  0  2  0  0  0  0  0  0  0  0  0
  192.8920  176.6920  137.9840 S   0  0  0  0  0  3  0  0  0  0  0  0
  193.7330  175.7270  138.8100 O   0  0  0  0  0  0  0  0  0  0  0  0
  190.5910  175.2100  138.4580 O   0  0  0  0  0  0  0  0  0  0  0  0
  190.9270  174.7650  137.1740 C   0  0  0  0  0  2  0  0  0  0  0  0
  189.8800  173.7800  136.6880 C   0  0  0  0  0  2  0  0  0  0  0  0
  188.4870  174.3690  136.8450 C   0  0  1  0  0  3  0  0  0  0  0  0
  188.2020  175.3790  135.7450 C   0  0  0  0  0  1  0  0  0  0  0  0
  187.8030  171.8860  136.4450 C   0  0  0  0  0  1  0  0  0  0  0  0
  186.2500  173.5590  137.1820 N   0  0  0  0  0  2  0  0  0  0  0  0
  187.4530  173.2840  136.8390 C   0  0  0  0  0  0  0  0  0  0  0  0
  190.0720  176.3210  140.8790 N   0  0  0  0  0  2  0  0  0  0  0  0
  190.2590  176.6320  142.3070 C   0  0  1  0  0  3  0  0  0  0  0  0
  188.3370  177.0720  145.0910 N   0  0  0  0  0  2  0  0  0  0  0  0
  187.2270  176.7510  143.0780 O   0  0  0  0  0  0  0  0  0  0  0  0
  190.2560  178.6830  143.7400 C   0  0  0  0  0  3  0  0  0  0  0  0
  189.3950  177.7860  142.8750 C   0  0  1  0  0  0  0  0  0  0  0  0
  190.2860  178.6270  145.0730 C   0  0  0  0  0  3  0  0  0  0  0  0
  188.8730  178.5590  141.8350 O   0  0  0  0  0  1  0  0  0  0  0  0
  189.3920  177.7210  145.7970 C   0  0  0  0  0  0  0  0  0  0  0  0
  188.2470  177.1950  143.6700 C   0  0  0  0  0  0  0  0  0  0  0  0
  189.4700  177.6220  147.0800 N   0  0  0  0  0  2  0  0  0  0  0  0
  190.5820  175.4300  143.2110 C   0  0  0  0  0  2  0  0  0  0  0  0
  191.8890  175.5880  143.9670 C   0  0  0  0  0  1  0  0  0  0  0  0
  1  3  1  1  0  0  0
  1  4  1  0  0  0  0
  4  2  1  1  0  0  0
  4 16  1  0  0  0  0
  5  6  1  6  0  0  0
  5  1  1  0  0  0  0
  5  4  1  0  0  0  0
  6  7  2  0  0  0  0
  8  5  1  0  0  0  0
  9  8  1  0  0  0  0
 10 11  1  0  0  0  0
 10  9  1  0  0  0  0
 11 12  1  6  0  0  0
 13 15  1  0  0  0  0
 15 11  1  0  0  0  0
 15 14  2  0  0  0  0
 16 17  1  0  0  0  0
 17 21  1  0  0  0  0
 17 27  1  1  0  0  0
 18 24  1  0  0  0  0
 19 25  2  0  0  0  0
 20 22  2  0  0  0  0
 21 23  1  6  0  0  0
 21 25  1  0  0  0  0
 21 20  1  0  0  0  0
 22 24  1  0  0  0  0
 24 26  2  0  0  0  0
 25 18  1  0  0  0  0
 27 28  1  0  0  0  0
M  END
>  <MODEL>
9

>  <REMARK>
 VINA RESULT:      -6.0      3.692      5.617
  Name = 
  10 active torsions:
  status: ('A' for Active; 'I' for Inactive)
    1  A    between atoms: C_2  and  O_9
    2  A    between atoms: C_2  and  C_24
    3  A    between atoms: C_3  and  C_24
    4  A    between atoms: C_3  and  C_27
    5  A    between atoms: C_5  and  C_20
    6  A    between atoms: O_9  and  C_28
    7  A    between atoms: S_10  and  C_28
    8  A    between atoms: C_12  and  C_20
    9  A    between atoms: N_15  and  C_20
   10  A    between atoms: N_15  and  C_23
                            x       y       z     vdW  Elec       q    Type
                         _______ _______ _______ _____ _____    ______ ____

>  <TORSDO>
F 10

$$$$
