=
 OpenBabel11032420063D

 60 64  0  0  1  0  0  0  0  0999 V2000
  187.3550  176.8730  144.7560 N   0  0  0  0  0  0  0  0  0  0  0  0
  187.6020  176.8170  143.3190 C   0  0  1  0  0  3  0  0  0  0  0  0
  184.4200  178.8180  144.2860 C   0  0  0  0  0  0  0  0  0  0  0  0
  183.5760  179.2520  143.2150 N   0  0  0  0  0  2  0  0  0  0  0  0
  186.4590  177.7380  145.0960 C   0  0  0  0  0  0  0  0  0  0  0  0
  184.7690  178.3310  146.6200 C   0  0  0  0  0  3  0  0  0  0  0  0
  183.9660  178.7770  145.5100 N   0  0  0  0  0  0  0  0  0  0  0  0
  186.2260  177.6930  142.4810 S   0  0  0  0  0  0  0  0  0  0  0  0
  185.9470  177.8180  146.4270 N   0  0  0  0  0  0  0  0  0  0  0  0
  185.8800  178.5790  144.0220 C   0  0  1  0  0  3  0  0  0  0  0  0
  190.4730  177.9730  141.2440 C   0  0  0  0  0  3  0  0  0  0  0  0
  189.6860  178.0960  143.9990 C   0  0  0  0  0  2  0  0  0  0  0  0
  188.8880  177.4230  142.9620 N   0  0  0  0  0  0  0  0  0  0  0  0
  191.1170  178.2910  143.5780 C   0  0  0  0  0  0  0  0  0  0  0  0
  192.1420  178.6240  144.6040 C   0  0  0  0  0  1  0  0  0  0  0  0
  189.2480  177.5650  141.5710 C   0  0  0  0  0  0  0  0  0  0  0  0
  191.4570  178.2910  142.2890 C   0  0  0  0  0  3  0  0  0  0  0  0
  188.2800  177.2400  140.4790 C   0  0  0  0  0  2  0  0  0  0  0  0
  188.2400  178.2050  138.1190 C   0  0  0  0  0  0  0  0  0  0  0  0
  188.1800  178.3520  139.5470 N   0  0  0  0  0  2  0  0  0  0  0  0
  187.6110  179.0280  137.4030 O   0  0  0  0  0  0  0  0  0  0  0  0
  189.1110  175.2260  136.0630 C   0  0  0  0  0  3  0  0  0  0  0  0
  191.1900  176.1930  136.8440 C   0  0  0  0  0  0  0  0  0  0  0  0
  190.5180  175.2070  136.0880 C   0  0  0  0  0  0  0  0  0  0  0  0
  189.0420  177.1500  137.4590 C   0  0  0  0  0  0  0  0  0  0  0  0
  190.4370  177.1590  137.5170 C   0  0  0  0  0  3  0  0  0  0  0  0
  188.4160  176.1850  136.7330 N   0  0  0  0  0  0  0  0  0  0  0  0
  191.2290  174.2200  135.3960 O   0  0  0  0  0  0  0  0  0  0  0  0
  191.0250  172.8270  135.6110 C   0  0  0  0  0  1  0  0  0  0  0  0
  192.5830  176.2750  136.9720 O   0  0  0  0  0  0  0  0  0  0  0  0
  193.4370  175.2920  137.5500 C   0  0  0  0  0  2  0  0  0  0  0  0
  194.2980  174.4160  135.4900 O   0  0  0  0  0  1  0  0  0  0  0  0
  194.6680  175.0420  136.6830 C   0  0  2  0  0  3  0  0  0  0  0  0
  195.6470  174.1440  137.4280 C   0  0  0  0  0  2  0  0  0  0  0  0
  196.4370  174.9310  138.3630 N   0  0  0  0  0  2  0  0  0  0  0  0
  198.6010  173.7720  137.7050 C   0  0  0  0  0  1  0  0  0  0  0  0
  197.8610  174.8300  138.4430 C   0  0  0  0  0  0  0  0  0  0  0  0
  198.5060  175.6520  139.1410 O   0  0  0  0  0  0  0  0  0  0  0  0
  182.2470  179.8180  143.4270 C   0  0  0  0  0  2  0  0  0  0  0  0
  181.1870  178.8380  143.1610 N   0  0  0  0  0  0  0  0  0  0  0  0
  180.5090  178.2380  144.2320 N   0  0  0  0  0  1  0  0  0  0  0  0
  179.0600  178.5850  141.5660 S   0  0  0  0  0  0  0  0  0  0  0  0
  180.6780  178.6570  141.8320 C   0  0  0  0  0  0  0  0  0  0  0  0
  181.5830  178.8590  140.6610 C   0  0  0  0  0  2  0  0  0  0  0  0
  180.8940  178.4930  139.3570 C   0  0  0  0  0  2  0  0  0  0  0  0
  181.8220  177.6630  138.4870 C   0  0  2  0  0  3  0  0  0  0  0  0
  181.7340  178.0840  137.1550 O   0  0  0  0  0  1  0  0  0  0  0  0
  181.4800  176.1800  138.6050 C   0  0  1  0  0  3  0  0  0  0  0  0
  180.1400  176.0120  138.9640 O   0  0  0  0  0  1  0  0  0  0  0  0
  181.7580  175.4760  137.2820 C   0  0  0  0  0  2  0  0  0  0  0  0
  182.6700  171.8740  137.0580 C   0  0  0  0  0  2  0  0  0  0  0  0
  183.9910  174.4680  137.2220 C   0  0  1  0  0  3  0  0  0  0  0  0
  182.0110  173.1950  136.6620 C   0  0  0  0  0  2  0  0  0  0  0  0
  184.1870  171.9730  136.9050 C   0  0  0  0  0  2  0  0  0  0  0  0
  182.5490  174.2690  137.4980 N   0  0  0  0  0  0  0  0  0  0  0  0
  184.7380  173.1950  137.6520 C   0  0  0  0  0  2  0  0  0  0  0  0
  185.6110  174.4160  135.4280 O   0  0  0  0  0  1  0  0  0  0  0  0
  184.3140  174.8230  135.7490 C   0  0  2  0  0  3  0  0  0  0  0  0
  185.0110  177.0850  136.5040 C   0  0  0  0  0  1  0  0  0  0  0  0
  184.2110  176.3130  135.4780 C   0  0  0  0  0  2  0  0  0  0  0  0
  1  5  2  0  0  0  0
  2 13  1  1  0  0  0
  2  1  1  0  0  0  0
  3  7  2  0  0  0  0
  4 39  1  0  0  0  0
  4  3  1  0  0  0  0
  5  9  1  0  0  0  0
  7  6  1  0  0  0  0
  8  2  1  0  0  0  0
  9  6  2  0  0  0  0
 10  8  1  6  0  0  0
 10  3  1  0  0  0  0
 10  5  1  0  0  0  0
 11 16  2  0  0  0  0
 11 17  1  0  0  0  0
 13 12  1  0  0  0  0
 14 12  1  0  0  0  0
 14 15  1  0  0  0  0
 16 13  1  0  0  0  0
 17 14  2  0  0  0  0
 18 16  1  0  0  0  0
 19 20  1  0  0  0  0
 20 18  1  0  0  0  0
 21 19  2  0  0  0  0
 22 24  2  0  0  0  0
 22 27  1  0  0  0  0
 23 30  1  0  0  0  0
 23 26  2  0  0  0  0
 24 23  1  0  0  0  0
 25 26  1  0  0  0  0
 25 19  1  0  0  0  0
 27 25  2  0  0  0  0
 28 29  1  0  0  0  0
 28 24  1  0  0  0  0
 30 31  1  0  0  0  0
 33 32  1  6  0  0  0
 33 34  1  0  0  0  0
 33 31  1  0  0  0  0
 34 35  1  0  0  0  0
 35 37  1  0  0  0  0
 36 37  1  0  0  0  0
 37 38  2  0  0  0  0
 40 39  1  0  0  0  0
 40 41  1  0  0  0  0
 42 43  2  0  0  0  0
 43 40  1  0  0  0  0
 44 43  1  0  0  0  0
 45 44  1  0  0  0  0
 46 47  1  6  0  0  0
 46 48  1  0  0  0  0
 46 45  1  0  0  0  0
 48 49  1  6  0  0  0
 50 55  1  0  0  0  0
 50 48  1  0  0  0  0
 52 58  1  6  0  0  0
 52 55  1  0  0  0  0
 52 56  1  0  0  0  0
 53 51  1  0  0  0  0
 53 55  1  0  0  0  0
 54 51  1  0  0  0  0
 54 56  1  0  0  0  0
 58 57  1  1  0  0  0
 60 58  1  0  0  0  0
 60 59  1  0  0  0  0
M  END
>  <MODEL>
1

>  <REMARK>
 VINA RESULT:      -6.3      0.000      0.000
  Name = 
  21 active torsions:
  status: ('A' for Active; 'I' for Inactive)
    1  A    between atoms: C_2  and  C_23
    2  A    between atoms: C_2  and  C_44
    3  A    between atoms: C_3  and  N_11
    4  A    between atoms: C_4  and  C_30
    5  A    between atoms: C_7  and  C_21
    6  A    between atoms: C_7  and  N_50
    7  A    between atoms: N_8  and  C_35
    8  A    between atoms: N_12  and  C_35
    9  A    between atoms: N_12  and  C_51
   10  A    between atoms: C_13  and  O_16
   11  A    between atoms: O_16  and  C_52
   12  A    between atoms: C_17  and  O_42
   13  A    between atoms: C_18  and  C_20
   14  A    between atoms: C_18  and  N_26
   15  A    between atoms: C_20  and  C_52
   16  A    between atoms: C_21  and  C_23
   17  A    between atoms: C_22  and  N_24
   18  A    between atoms: C_22  and  C_55
   19  A    between atoms: C_25  and  C_28
   20  A    between atoms: C_25  and  C_56
   21  A    between atoms: C_44  and  C_51
                            x       y       z     vdW  Elec       q    Type
                         _______ _______ _______ _____ _____    ______ ____

>  <TORSDO>
F 21

$$$$
=
 OpenBabel11032420063D

 60 64  0  0  1  0  0  0  0  0999 V2000
  187.3990  176.8280  144.7790 N   0  0  0  0  0  0  0  0  0  0  0  0
  187.5910  176.8670  143.3320 C   0  0  1  0  0  3  0  0  0  0  0  0
  184.5170  178.8930  144.5600 C   0  0  0  0  0  0  0  0  0  0  0  0
  183.6490  179.4290  143.5560 N   0  0  0  0  0  2  0  0  0  0  0  0
  186.5460  177.6940  145.2130 C   0  0  0  0  0  0  0  0  0  0  0  0
  184.9330  178.2300  146.8390 C   0  0  0  0  0  3  0  0  0  0  0  0
  184.1070  178.7800  145.7950 N   0  0  0  0  0  0  0  0  0  0  0  0
  186.2160  177.8440  142.6120 S   0  0  0  0  0  0  0  0  0  0  0  0
  186.0860  177.6950  146.5650 N   0  0  0  0  0  0  0  0  0  0  0  0
  185.9570  178.6280  144.2240 C   0  0  1  0  0  3  0  0  0  0  0  0
  190.5090  177.9040  141.2590 C   0  0  0  0  0  3  0  0  0  0  0  0
  189.6520  178.1990  143.9810 C   0  0  0  0  0  2  0  0  0  0  0  0
  188.8830  177.4560  142.9700 N   0  0  0  0  0  0  0  0  0  0  0  0
  191.0920  178.3750  143.5840 C   0  0  0  0  0  0  0  0  0  0  0  0
  192.0900  178.7790  144.6110 C   0  0  0  0  0  1  0  0  0  0  0  0
  189.2770  177.5110  141.5820 C   0  0  0  0  0  0  0  0  0  0  0  0
  191.4650  178.2950  142.3060 C   0  0  0  0  0  3  0  0  0  0  0  0
  188.3380  177.1120  140.4890 C   0  0  0  0  0  2  0  0  0  0  0  0
  188.0310  177.9360  138.0960 C   0  0  0  0  0  0  0  0  0  0  0  0
  188.2400  178.1710  139.4970 N   0  0  0  0  0  2  0  0  0  0  0  0
  187.4120  178.8050  137.4270 O   0  0  0  0  0  0  0  0  0  0  0  0
  188.1040  174.6560  136.3370 C   0  0  0  0  0  3  0  0  0  0  0  0
  190.3720  175.5030  136.3720 C   0  0  0  0  0  0  0  0  0  0  0  0
  189.4560  174.5020  135.9800 C   0  0  0  0  0  0  0  0  0  0  0  0
  188.5480  176.7340  137.4030 C   0  0  0  0  0  0  0  0  0  0  0  0
  189.9000  176.6140  137.0760 C   0  0  0  0  0  3  0  0  0  0  0  0
  187.6850  175.7530  137.0240 N   0  0  0  0  0  0  0  0  0  0  0  0
  189.8810  173.3720  135.2710 O   0  0  0  0  0  0  0  0  0  0  0  0
  188.9850  172.3610  134.8210 C   0  0  0  0  0  1  0  0  0  0  0  0
  191.7470  175.4620  136.1010 O   0  0  0  0  0  0  0  0  0  0  0  0
  192.6810  174.5180  136.6160 C   0  0  0  0  0  2  0  0  0  0  0  0
  194.1670  176.3200  137.1600 O   0  0  0  0  0  1  0  0  0  0  0  0
  193.5940  175.1490  137.6630 C   0  0  2  0  0  3  0  0  0  0  0  0
  194.7050  174.1740  138.0300 C   0  0  0  0  0  2  0  0  0  0  0  0
  195.6240  174.7920  138.9740 N   0  0  0  0  0  2  0  0  0  0  0  0
  197.6600  173.7470  137.8710 C   0  0  0  0  0  1  0  0  0  0  0  0
  197.0430  174.6730  138.8570 C   0  0  0  0  0  0  0  0  0  0  0  0
  197.7890  175.3660  139.5940 O   0  0  0  0  0  0  0  0  0  0  0  0
  182.3490  180.0200  143.8580 C   0  0  0  0  0  2  0  0  0  0  0  0
  181.2460  179.2190  143.3140 N   0  0  0  0  0  0  0  0  0  0  0  0
  180.6830  178.1940  144.0880 N   0  0  0  0  0  1  0  0  0  0  0  0
  179.2080  180.5100  142.1680 S   0  0  0  0  0  0  0  0  0  0  0  0
  180.5830  179.6160  142.1060 C   0  0  0  0  0  0  0  0  0  0  0  0
  181.2990  179.5040  140.8000 C   0  0  0  0  0  2  0  0  0  0  0  0
  180.6090  180.3140  139.7160 C   0  0  0  0  0  2  0  0  0  0  0  0
  181.5020  180.4240  138.4920 C   0  0  2  0  0  3  0  0  0  0  0  0
  182.0940  181.6910  138.4430 O   0  0  0  0  0  1  0  0  0  0  0  0
  180.7010  180.1560  137.2210 C   0  0  1  0  0  3  0  0  0  0  0  0
  180.9020  181.1780  136.2890 O   0  0  0  0  0  1  0  0  0  0  0  0
  181.1090  178.8160  136.6210 C   0  0  0  0  0  2  0  0  0  0  0  0
  180.8060  176.1320  139.1830 C   0  0  0  0  0  2  0  0  0  0  0  0
  182.7920  177.1790  137.3240 C   0  0  1  0  0  3  0  0  0  0  0  0
  180.4630  176.9420  137.9320 C   0  0  0  0  0  2  0  0  0  0  0  0
  182.1370  175.4070  138.9950 C   0  0  0  0  0  2  0  0  0  0  0  0
  181.5410  177.8950  137.6670 N   0  0  0  0  0  0  0  0  0  0  0  0
  183.2390  176.3820  138.5590 C   0  0  0  0  0  2  0  0  0  0  0  0
  183.2390  175.0060  136.3630 O   0  0  0  0  0  1  0  0  0  0  0  0
  182.6780  176.2550  136.0860 C   0  0  2  0  0  3  0  0  0  0  0  0
  184.8040  177.2140  135.2290 C   0  0  0  0  0  1  0  0  0  0  0  0
  183.3860  176.8260  134.8710 C   0  0  0  0  0  2  0  0  0  0  0  0
  1  5  2  0  0  0  0
  2 13  1  1  0  0  0
  2  1  1  0  0  0  0
  3  7  2  0  0  0  0
  4 39  1  0  0  0  0
  4  3  1  0  0  0  0
  5  9  1  0  0  0  0
  7  6  1  0  0  0  0
  8  2  1  0  0  0  0
  9  6  2  0  0  0  0
 10  8  1  6  0  0  0
 10  3  1  0  0  0  0
 10  5  1  0  0  0  0
 11 16  2  0  0  0  0
 11 17  1  0  0  0  0
 13 12  1  0  0  0  0
 14 12  1  0  0  0  0
 14 15  1  0  0  0  0
 16 13  1  0  0  0  0
 17 14  2  0  0  0  0
 18 16  1  0  0  0  0
 19 20  1  0  0  0  0
 20 18  1  0  0  0  0
 21 19  2  0  0  0  0
 22 27  1  0  0  0  0
 23 26  2  0  0  0  0
 24 22  2  0  0  0  0
 24 23  1  0  0  0  0
 25 19  1  0  0  0  0
 26 25  1  0  0  0  0
 27 25  2  0  0  0  0
 28 24  1  0  0  0  0
 29 28  1  0  0  0  0
 30 23  1  0  0  0  0
 30 31  1  0  0  0  0
 31 33  1  0  0  0  0
 33 32  1  6  0  0  0
 33 34  1  0  0  0  0
 34 35  1  0  0  0  0
 36 37  1  0  0  0  0
 37 35  1  0  0  0  0
 37 38  2  0  0  0  0
 40 39  1  0  0  0  0
 40 41  1  0  0  0  0
 43 42  2  0  0  0  0
 43 40  1  0  0  0  0
 44 43  1  0  0  0  0
 45 44  1  0  0  0  0
 46 47  1  6  0  0  0
 46 45  1  0  0  0  0
 48 49  1  6  0  0  0
 48 46  1  0  0  0  0
 50 48  1  0  0  0  0
 50 55  1  0  0  0  0
 52 58  1  6  0  0  0
 52 55  1  0  0  0  0
 52 56  1  0  0  0  0
 53 51  1  0  0  0  0
 54 51  1  0  0  0  0
 55 53  1  0  0  0  0
 56 54  1  0  0  0  0
 58 57  1  1  0  0  0
 60 59  1  0  0  0  0
 60 58  1  0  0  0  0
M  END
>  <MODEL>
2

>  <REMARK>
 VINA RESULT:      -6.2      1.669      2.020
  Name = 
  21 active torsions:
  status: ('A' for Active; 'I' for Inactive)
    1  A    between atoms: C_2  and  C_23
    2  A    between atoms: C_2  and  C_44
    3  A    between atoms: C_3  and  N_11
    4  A    between atoms: C_4  and  C_30
    5  A    between atoms: C_7  and  C_21
    6  A    between atoms: C_7  and  N_50
    7  A    between atoms: N_8  and  C_35
    8  A    between atoms: N_12  and  C_35
    9  A    between atoms: N_12  and  C_51
   10  A    between atoms: C_13  and  O_16
   11  A    between atoms: O_16  and  C_52
   12  A    between atoms: C_17  and  O_42
   13  A    between atoms: C_18  and  C_20
   14  A    between atoms: C_18  and  N_26
   15  A    between atoms: C_20  and  C_52
   16  A    between atoms: C_21  and  C_23
   17  A    between atoms: C_22  and  N_24
   18  A    between atoms: C_22  and  C_55
   19  A    between atoms: C_25  and  C_28
   20  A    between atoms: C_25  and  C_56
   21  A    between atoms: C_44  and  C_51
                            x       y       z     vdW  Elec       q    Type
                         _______ _______ _______ _____ _____    ______ ____

>  <TORSDO>
F 21

$$$$
=
 OpenBabel11032420063D

 60 64  0  0  1  0  0  0  0  0999 V2000
  187.4350  176.8550  144.9600 N   0  0  0  0  0  0  0  0  0  0  0  0
  187.6310  176.8280  143.5130 C   0  0  1  0  0  3  0  0  0  0  0  0
  184.4760  178.7920  144.6330 C   0  0  0  0  0  0  0  0  0  0  0  0
  183.5920  179.2420  143.6020 N   0  0  0  0  0  2  0  0  0  0  0  0
  186.5490  177.7080  145.3480 C   0  0  0  0  0  0  0  0  0  0  0  0
  184.9110  178.2630  146.9430 C   0  0  0  0  0  3  0  0  0  0  0  0
  184.0670  178.7260  145.8720 N   0  0  0  0  0  0  0  0  0  0  0  0
  186.2210  177.7120  142.7430 S   0  0  0  0  0  0  0  0  0  0  0  0
  186.0850  177.7600  146.6980 N   0  0  0  0  0  0  0  0  0  0  0  0
  185.9260  178.5670  144.3120 C   0  0  1  0  0  3  0  0  0  0  0  0
  190.4880  177.9130  141.3820 C   0  0  0  0  0  3  0  0  0  0  0  0
  189.6610  178.2290  144.1100 C   0  0  0  0  0  2  0  0  0  0  0  0
  188.9000  177.4480  143.1230 N   0  0  0  0  0  0  0  0  0  0  0  0
  191.0890  178.4390  143.6890 C   0  0  0  0  0  0  0  0  0  0  0  0
  192.0900  178.8900  144.6960 C   0  0  0  0  0  1  0  0  0  0  0  0
  189.2730  177.4900  141.7290 C   0  0  0  0  0  0  0  0  0  0  0  0
  191.4460  178.3480  142.4080 C   0  0  0  0  0  3  0  0  0  0  0  0
  188.3310  177.0450  140.6560 C   0  0  0  0  0  2  0  0  0  0  0  0
  187.7960  177.7740  138.2720 C   0  0  0  0  0  0  0  0  0  0  0  0
  188.2530  178.0490  139.6060 N   0  0  0  0  0  2  0  0  0  0  0  0
  187.2300  178.6980  137.6290 O   0  0  0  0  0  0  0  0  0  0  0  0
  187.0570  174.5450  136.5740 C   0  0  0  0  0  3  0  0  0  0  0  0
  189.4660  174.7850  136.6440 C   0  0  0  0  0  0  0  0  0  0  0  0
  188.3310  174.0420  136.2500 C   0  0  0  0  0  0  0  0  0  0  0  0
  188.0010  176.4640  137.6120 C   0  0  0  0  0  0  0  0  0  0  0  0
  189.2820  175.9950  137.3180 C   0  0  0  0  0  3  0  0  0  0  0  0
  186.9220  175.7280  137.2320 N   0  0  0  0  0  0  0  0  0  0  0  0
  188.4640  172.8250  135.5720 O   0  0  0  0  0  0  0  0  0  0  0  0
  187.3760  172.1850  134.9140 C   0  0  0  0  0  1  0  0  0  0  0  0
  190.7890  174.3880  136.4060 O   0  0  0  0  0  0  0  0  0  0  0  0
  191.8830  174.5130  137.3080 C   0  0  0  0  0  2  0  0  0  0  0  0
  192.5990  175.9320  135.5130 O   0  0  0  0  0  1  0  0  0  0  0  0
  192.8880  175.5560  136.8270 C   0  0  2  0  0  3  0  0  0  0  0  0
  194.2950  174.9740  136.8750 C   0  0  0  0  0  2  0  0  0  0  0  0
  194.8730  175.1670  138.1960 N   0  0  0  0  0  2  0  0  0  0  0  0
  195.8610  172.8270  138.2450 C   0  0  0  0  0  1  0  0  0  0  0  0
  195.7010  174.1870  138.8250 C   0  0  0  0  0  0  0  0  0  0  0  0
  196.3130  174.4740  139.8840 O   0  0  0  0  0  0  0  0  0  0  0  0
  182.2680  179.7970  143.8720 C   0  0  0  0  0  2  0  0  0  0  0  0
  181.2100  179.0380  143.1960 N   0  0  0  0  0  0  0  0  0  0  0  0
  180.2480  178.3560  143.9560 N   0  0  0  0  0  1  0  0  0  0  0  0
  179.8480  180.1800  141.2030 S   0  0  0  0  0  0  0  0  0  0  0  0
  181.0060  179.1710  141.7830 C   0  0  0  0  0  0  0  0  0  0  0  0
  182.0400  178.6580  140.8360 C   0  0  0  0  0  2  0  0  0  0  0  0
  181.4140  178.1550  139.5460 C   0  0  0  0  0  2  0  0  0  0  0  0
  182.3450  178.4120  138.3740 C   0  0  2  0  0  3  0  0  0  0  0  0
  182.0650  179.6580  137.8030 O   0  0  0  0  0  1  0  0  0  0  0  0
  182.2110  177.3030  137.3340 C   0  0  1  0  0  3  0  0  0  0  0  0
  183.1500  177.4720  136.3120 O   0  0  0  0  0  1  0  0  0  0  0  0
  182.4000  175.9430  137.9960 C   0  0  0  0  0  2  0  0  0  0  0  0
  183.7900  172.9600  136.2570 C   0  0  0  0  0  2  0  0  0  0  0  0
  181.2010  174.2070  136.7490 C   0  0  1  0  0  3  0  0  0  0  0  0
  183.5120  173.9270  137.4080 C   0  0  0  0  0  2  0  0  0  0  0  0
  182.5040  172.2450  135.8430 C   0  0  0  0  0  2  0  0  0  0  0  0
  182.4930  174.8900  136.9900 N   0  0  0  0  0  0  0  0  0  0  0  0
  181.3820  173.2530  135.5580 C   0  0  0  0  0  2  0  0  0  0  0  0
  179.7260  172.4770  137.5720 O   0  0  0  0  0  1  0  0  0  0  0  0
  180.6420  173.4490  137.9790 C   0  0  2  0  0  3  0  0  0  0  0  0
  178.9310  175.2320  138.2290 C   0  0  0  0  0  1  0  0  0  0  0  0
  179.9410  174.3730  138.9580 C   0  0  0  0  0  2  0  0  0  0  0  0
  1  5  2  0  0  0  0
  2 13  1  1  0  0  0
  2  1  1  0  0  0  0
  3  7  2  0  0  0  0
  4 39  1  0  0  0  0
  4  3  1  0  0  0  0
  5  9  1  0  0  0  0
  7  6  1  0  0  0  0
  8  2  1  0  0  0  0
  9  6  2  0  0  0  0
 10  8  1  6  0  0  0
 10  3  1  0  0  0  0
 10  5  1  0  0  0  0
 11 16  2  0  0  0  0
 11 17  1  0  0  0  0
 13 12  1  0  0  0  0
 14 12  1  0  0  0  0
 14 15  1  0  0  0  0
 16 13  1  0  0  0  0
 17 14  2  0  0  0  0
 18 16  1  0  0  0  0
 19 20  1  0  0  0  0
 20 18  1  0  0  0  0
 21 19  2  0  0  0  0
 22 27  1  0  0  0  0
 23 26  2  0  0  0  0
 24 22  2  0  0  0  0
 24 23  1  0  0  0  0
 25 19  1  0  0  0  0
 26 25  1  0  0  0  0
 27 25  2  0  0  0  0
 28 24  1  0  0  0  0
 29 28  1  0  0  0  0
 30 23  1  0  0  0  0
 30 31  1  0  0  0  0
 33 32  1  6  0  0  0
 33 34  1  0  0  0  0
 33 31  1  0  0  0  0
 34 35  1  0  0  0  0
 35 37  1  0  0  0  0
 36 37  1  0  0  0  0
 37 38  2  0  0  0  0
 40 39  1  0  0  0  0
 40 41  1  0  0  0  0
 42 43  2  0  0  0  0
 43 40  1  0  0  0  0
 44 43  1  0  0  0  0
 45 44  1  0  0  0  0
 46 47  1  6  0  0  0
 46 45  1  0  0  0  0
 48 49  1  6  0  0  0
 48 50  1  0  0  0  0
 48 46  1  0  0  0  0
 51 53  1  0  0  0  0
 52 55  1  0  0  0  0
 52 58  1  1  0  0  0
 54 51  1  0  0  0  0
 55 53  1  0  0  0  0
 55 50  1  0  0  0  0
 56 54  1  0  0  0  0
 56 52  1  0  0  0  0
 58 57  1  6  0  0  0
 58 60  1  0  0  0  0
 59 60  1  0  0  0  0
M  END
>  <MODEL>
3

>  <REMARK>
 VINA RESULT:      -6.1      1.422      2.239
  Name = 
  21 active torsions:
  status: ('A' for Active; 'I' for Inactive)
    1  A    between atoms: C_2  and  C_23
    2  A    between atoms: C_2  and  C_44
    3  A    between atoms: C_3  and  N_11
    4  A    between atoms: C_4  and  C_30
    5  A    between atoms: C_7  and  C_21
    6  A    between atoms: C_7  and  N_50
    7  A    between atoms: N_8  and  C_35
    8  A    between atoms: N_12  and  C_35
    9  A    between atoms: N_12  and  C_51
   10  A    between atoms: C_13  and  O_16
   11  A    between atoms: O_16  and  C_52
   12  A    between atoms: C_17  and  O_42
   13  A    between atoms: C_18  and  C_20
   14  A    between atoms: C_18  and  N_26
   15  A    between atoms: C_20  and  C_52
   16  A    between atoms: C_21  and  C_23
   17  A    between atoms: C_22  and  N_24
   18  A    between atoms: C_22  and  C_55
   19  A    between atoms: C_25  and  C_28
   20  A    between atoms: C_25  and  C_56
   21  A    between atoms: C_44  and  C_51
                            x       y       z     vdW  Elec       q    Type
                         _______ _______ _______ _____ _____    ______ ____

>  <TORSDO>
F 21

$$$$
=
 OpenBabel11032420063D

 60 64  0  0  1  0  0  0  0  0999 V2000
  190.0950  172.8910  134.7420 N   0  0  0  0  0  0  0  0  0  0  0  0
  190.4710  174.0860  135.4920 C   0  0  1  0  0  3  0  0  0  0  0  0
  187.0850  172.5430  136.5970 C   0  0  0  0  0  0  0  0  0  0  0  0
  186.3110  173.2860  137.5420 N   0  0  0  0  0  2  0  0  0  0  0  0
  189.1150  172.2350  135.2670 C   0  0  0  0  0  0  0  0  0  0  0  0
  187.2590  170.8360  134.9050 C   0  0  0  0  0  3  0  0  0  0  0  0
  186.5290  171.6010  135.8830 N   0  0  0  0  0  0  0  0  0  0  0  0
  189.1160  174.4530  136.6720 S   0  0  0  0  0  0  0  0  0  0  0  0
  188.4830  171.1450  134.5940 N   0  0  0  0  0  0  0  0  0  0  0  0
  188.5750  172.7290  136.5560 C   0  0  1  0  0  3  0  0  0  0  0  0
  193.3470  174.7900  137.7530 C   0  0  0  0  0  3  0  0  0  0  0  0
  192.4740  172.6380  136.0700 C   0  0  0  0  0  2  0  0  0  0  0  0
  191.7380  173.9060  136.2050 N   0  0  0  0  0  0  0  0  0  0  0  0
  193.9060  172.7630  136.5120 C   0  0  0  0  0  0  0  0  0  0  0  0
  194.8850  171.7090  136.1270 C   0  0  0  0  0  1  0  0  0  0  0  0
  192.1320  174.8630  137.2110 C   0  0  0  0  0  0  0  0  0  0  0  0
  194.2840  173.7340  137.3440 C   0  0  0  0  0  3  0  0  0  0  0  0
  191.2130  175.9590  137.6460 C   0  0  0  0  0  2  0  0  0  0  0  0
  190.9060  177.0840  139.9130 C   0  0  0  0  0  0  0  0  0  0  0  0
  191.7320  176.6090  138.8390 N   0  0  0  0  0  2  0  0  0  0  0  0
  191.3830  177.0950  141.0790 O   0  0  0  0  0  0  0  0  0  0  0  0
  187.7160  177.9700  138.2100 C   0  0  0  0  0  3  0  0  0  0  0  0
  187.4470  178.4970  140.5580 C   0  0  0  0  0  0  0  0  0  0  0  0
  186.9020  178.4390  139.2570 C   0  0  0  0  0  0  0  0  0  0  0  0
  189.5340  177.5980  139.6970 C   0  0  0  0  0  0  0  0  0  0  0  0
  188.7610  178.0660  140.7610 C   0  0  0  0  0  3  0  0  0  0  0  0
  188.9910  177.5610  138.4500 N   0  0  0  0  0  0  0  0  0  0  0  0
  185.5900  178.8570  139.0050 O   0  0  0  0  0  0  0  0  0  0  0  0
  184.4590  178.0190  139.2160 C   0  0  0  0  0  1  0  0  0  0  0  0
  186.7540  178.9640  141.6840 O   0  0  0  0  0  0  0  0  0  0  0  0
  186.1470  178.1640  142.6930 C   0  0  0  0  0  2  0  0  0  0  0  0
  184.7530  180.0680  143.1170 O   0  0  0  0  0  1  0  0  0  0  0  0
  184.7530  178.6730  143.0460 C   0  0  2  0  0  3  0  0  0  0  0  0
  184.3270  178.1110  144.3970 C   0  0  0  0  0  2  0  0  0  0  0  0
  184.6040  179.0750  145.4510 N   0  0  0  0  0  2  0  0  0  0  0  0
  186.3670  177.5900  146.5200 C   0  0  0  0  0  1  0  0  0  0  0  0
  185.6380  178.8820  146.4190 C   0  0  0  0  0  0  0  0  0  0  0  0
  185.9470  179.8200  147.1960 O   0  0  0  0  0  0  0  0  0  0  0  0
  184.9320  172.9500  137.8850 C   0  0  0  0  0  2  0  0  0  0  0  0
  183.9700  173.6260  137.0070 N   0  0  0  0  0  0  0  0  0  0  0  0
  184.3520  174.7900  136.3230 N   0  0  0  0  0  1  0  0  0  0  0  0
  182.7190  171.4670  136.0580 S   0  0  0  0  0  0  0  0  0  0  0  0
  182.7310  172.9940  136.6580 C   0  0  0  0  0  0  0  0  0  0  0  0
  181.4430  173.5810  137.1340 C   0  0  0  0  0  2  0  0  0  0  0  0
  180.7890  174.4330  136.0610 C   0  0  0  0  0  2  0  0  0  0  0  0
  180.0130  175.5750  136.6950 C   0  0  2  0  0  3  0  0  0  0  0  0
  179.2750  176.2530  135.7190 O   0  0  0  0  0  1  0  0  0  0  0  0
  180.9610  176.5320  137.4120 C   0  0  1  0  0  3  0  0  0  0  0  0
  181.8730  177.0880  136.5100 O   0  0  0  0  0  1  0  0  0  0  0  0
  180.1660  177.6360  138.0970 C   0  0  0  0  0  2  0  0  0  0  0  0
  180.4660  181.0010  136.5340 C   0  0  0  0  0  2  0  0  0  0  0  0
  181.1610  179.6710  139.0330 C   0  0  1  0  0  3  0  0  0  0  0  0
  179.7820  179.7330  137.0460 C   0  0  0  0  0  2  0  0  0  0  0  0
  181.0240  181.8100  137.7040 C   0  0  0  0  0  2  0  0  0  0  0  0
  180.7480  178.9430  137.8100 N   0  0  0  0  0  0  0  0  0  0  0  0
  181.9130  180.9390  138.6010 C   0  0  0  0  0  2  0  0  0  0  0  0
  180.0640  181.3680  140.3610 O   0  0  0  0  0  1  0  0  0  0  0  0
  179.9930  180.0240  139.9880 C   0  0  2  0  0  3  0  0  0  0  0  0
  181.2920  178.3890  141.3350 C   0  0  0  0  0  1  0  0  0  0  0  0
  180.0080  179.1860  141.2540 C   0  0  0  0  0  2  0  0  0  0  0  0
  1  5  2  0  0  0  0
  1  2  1  0  0  0  0
  2 13  1  1  0  0  0
  2  8  1  0  0  0  0
  3  4  1  0  0  0  0
  4 39  1  0  0  0  0
  6  7  1  0  0  0  0
  7  3  2  0  0  0  0
  9  6  2  0  0  0  0
  9  5  1  0  0  0  0
 10  5  1  6  0  0  0
 10  3  1  0  0  0  0
 10  8  1  0  0  0  0
 12 13  1  0  0  0  0
 12 14  1  0  0  0  0
 13 16  1  0  0  0  0
 14 17  2  0  0  0  0
 15 14  1  0  0  0  0
 16 18  1  0  0  0  0
 16 11  2  0  0  0  0
 17 11  1  0  0  0  0
 18 20  1  0  0  0  0
 19 21  2  0  0  0  0
 20 19  1  0  0  0  0
 22 27  2  0  0  0  0
 22 24  1  0  0  0  0
 23 26  1  0  0  0  0
 23 30  1  0  0  0  0
 24 23  2  0  0  0  0
 25 19  1  0  0  0  0
 25 26  2  0  0  0  0
 27 25  1  0  0  0  0
 28 29  1  0  0  0  0
 28 24  1  0  0  0  0
 30 31  1  0  0  0  0
 31 33  1  0  0  0  0
 33 32  1  1  0  0  0
 33 34  1  0  0  0  0
 34 35  1  0  0  0  0
 35 37  1  0  0  0  0
 37 36  1  0  0  0  0
 37 38  2  0  0  0  0
 40 39  1  0  0  0  0
 41 40  1  0  0  0  0
 42 43  2  0  0  0  0
 43 40  1  0  0  0  0
 43 44  1  0  0  0  0
 45 46  1  0  0  0  0
 45 44  1  0  0  0  0
 46 47  1  6  0  0  0
 46 48  1  0  0  0  0
 48 49  1  6  0  0  0
 48 50  1  0  0  0  0
 51 53  1  0  0  0  0
 51 54  1  0  0  0  0
 52 58  1  6  0  0  0
 53 55  1  0  0  0  0
 54 56  1  0  0  0  0
 55 50  1  0  0  0  0
 55 52  1  0  0  0  0
 56 52  1  0  0  0  0
 58 57  1  1  0  0  0
 58 60  1  0  0  0  0
 60 59  1  0  0  0  0
M  END
>  <MODEL>
4

>  <REMARK>
 VINA RESULT:      -5.9      3.336      8.936
  Name = 
  21 active torsions:
  status: ('A' for Active; 'I' for Inactive)
    1  A    between atoms: C_2  and  C_23
    2  A    between atoms: C_2  and  C_44
    3  A    between atoms: C_3  and  N_11
    4  A    between atoms: C_4  and  C_30
    5  A    between atoms: C_7  and  C_21
    6  A    between atoms: C_7  and  N_50
    7  A    between atoms: N_8  and  C_35
    8  A    between atoms: N_12  and  C_35
    9  A    between atoms: N_12  and  C_51
   10  A    between atoms: C_13  and  O_16
   11  A    between atoms: O_16  and  C_52
   12  A    between atoms: C_17  and  O_42
   13  A    between atoms: C_18  and  C_20
   14  A    between atoms: C_18  and  N_26
   15  A    between atoms: C_20  and  C_52
   16  A    between atoms: C_21  and  C_23
   17  A    between atoms: C_22  and  N_24
   18  A    between atoms: C_22  and  C_55
   19  A    between atoms: C_25  and  C_28
   20  A    between atoms: C_25  and  C_56
   21  A    between atoms: C_44  and  C_51
                            x       y       z     vdW  Elec       q    Type
                         _______ _______ _______ _____ _____    ______ ____

>  <TORSDO>
F 21

$$$$
=
 OpenBabel11032420063D

 60 64  0  0  1  0  0  0  0  0999 V2000
  186.5780  177.1200  144.8790 N   0  0  0  0  0  0  0  0  0  0  0  0
  187.2830  176.7400  143.6590 C   0  0  1  0  0  3  0  0  0  0  0  0
  184.1190  178.8990  143.0340 C   0  0  0  0  0  0  0  0  0  0  0  0
  183.7120  179.0760  141.6740 N   0  0  0  0  0  2  0  0  0  0  0  0
  185.6880  178.0370  144.7010 C   0  0  0  0  0  0  0  0  0  0  0  0
  183.6360  178.9560  145.3940 C   0  0  0  0  0  3  0  0  0  0  0  0
  183.2830  179.1360  144.0100 N   0  0  0  0  0  0  0  0  0  0  0  0
  186.3320  177.3990  142.2360 S   0  0  0  0  0  0  0  0  0  0  0  0
  184.7700  178.4150  145.7290 N   0  0  0  0  0  0  0  0  0  0  0  0
  185.5610  178.6100  143.3400 C   0  0  1  0  0  3  0  0  0  0  0  0
  190.5620  177.9220  142.3400 C   0  0  0  0  0  3  0  0  0  0  0  0
  189.3060  177.6370  144.9030 C   0  0  0  0  0  2  0  0  0  0  0  0
  188.6560  177.2530  143.6390 N   0  0  0  0  0  0  0  0  0  0  0  0
  190.7990  177.7440  144.7640 C   0  0  0  0  0  0  0  0  0  0  0  0
  191.6470  177.7730  145.9870 C   0  0  0  0  0  1  0  0  0  0  0  0
  189.2690  177.6000  142.3800 C   0  0  0  0  0  0  0  0  0  0  0  0
  191.3640  177.9370  143.5720 C   0  0  0  0  0  3  0  0  0  0  0  0
  188.4900  177.5860  141.1040 C   0  0  0  0  0  2  0  0  0  0  0  0
  189.0040  178.4440  138.7580 C   0  0  0  0  0  0  0  0  0  0  0  0
  189.0050  178.5910  140.1870 N   0  0  0  0  0  2  0  0  0  0  0  0
  188.9130  179.4800  138.0480 O   0  0  0  0  0  0  0  0  0  0  0  0
  188.1150  175.2830  137.0040 C   0  0  0  0  0  3  0  0  0  0  0  0
  190.5300  175.3680  137.1510 C   0  0  0  0  0  0  0  0  0  0  0  0
  189.3640  174.7030  136.7140 C   0  0  0  0  0  0  0  0  0  0  0  0
  189.1460  177.1290  138.0910 C   0  0  0  0  0  0  0  0  0  0  0  0
  190.4030  176.5820  137.8320 C   0  0  0  0  0  3  0  0  0  0  0  0
  188.0340  176.4670  137.6700 N   0  0  0  0  0  0  0  0  0  0  0  0
  189.4410  173.4860  136.0270 O   0  0  0  0  0  0  0  0  0  0  0  0
  188.5370  172.4110  136.2590 C   0  0  0  0  0  1  0  0  0  0  0  0
  191.8330  174.8900  136.9490 O   0  0  0  0  0  0  0  0  0  0  0  0
  193.0410  175.6120  137.1690 C   0  0  0  0  0  2  0  0  0  0  0  0
  194.8620  175.4020  138.7150 O   0  0  0  0  0  1  0  0  0  0  0  0
  194.1320  174.7130  137.7430 C   0  0  2  0  0  3  0  0  0  0  0  0
  195.0780  174.2790  136.6310 C   0  0  0  0  0  2  0  0  0  0  0  0
  196.2780  175.1010  136.6430 N   0  0  0  0  0  2  0  0  0  0  0  0
  197.7580  173.1540  137.3310 C   0  0  0  0  0  1  0  0  0  0  0  0
  197.5790  174.5620  136.8850 C   0  0  0  0  0  0  0  0  0  0  0  0
  198.5940  175.2820  136.7130 O   0  0  0  0  0  0  0  0  0  0  0  0
  182.4340  179.6710  141.2940 C   0  0  0  0  0  2  0  0  0  0  0  0
  181.4660  178.6560  140.8630 N   0  0  0  0  0  0  0  0  0  0  0  0
  180.6730  178.0010  141.8170 N   0  0  0  0  0  1  0  0  0  0  0  0
  180.1520  179.5490  138.7160 S   0  0  0  0  0  0  0  0  0  0  0  0
  181.1520  178.4910  139.4740 C   0  0  0  0  0  0  0  0  0  0  0  0
  181.9750  177.5670  138.6360 C   0  0  0  0  0  2  0  0  0  0  0  0
  182.9160  178.3330  137.7230 C   0  0  0  0  0  2  0  0  0  0  0  0
  184.2280  177.5820  137.5690 C   0  0  2  0  0  3  0  0  0  0  0  0
  185.2970  178.4010  137.9510 O   0  0  0  0  0  1  0  0  0  0  0  0
  184.4040  177.1060  136.1300 C   0  0  1  0  0  3  0  0  0  0  0  0
  185.6610  177.4740  135.6410 O   0  0  0  0  0  1  0  0  0  0  0  0
  184.2400  175.5930  136.0590 C   0  0  0  0  0  2  0  0  0  0  0  0
  180.6780  175.0860  135.1030 C   0  0  0  0  0  2  0  0  0  0  0  0
  182.6670  173.8970  136.8720 C   0  0  1  0  0  3  0  0  0  0  0  0
  182.1880  175.2360  134.9140 C   0  0  0  0  0  2  0  0  0  0  0  0
  180.3640  173.7900  135.8490 C   0  0  0  0  0  2  0  0  0  0  0  0
  182.8390  175.2190  136.2250 N   0  0  0  0  0  0  0  0  0  0  0  0
  181.1700  173.6950  137.1510 C   0  0  0  0  0  2  0  0  0  0  0  0
  182.2080  171.8560  135.6600 O   0  0  0  0  0  1  0  0  0  0  0  0
  183.2390  172.7100  136.0560 C   0  0  2  0  0  3  0  0  0  0  0  0
  185.0650  172.8030  137.7380 C   0  0  0  0  0  1  0  0  0  0  0  0
  184.2440  171.8950  136.8480 C   0  0  0  0  0  2  0  0  0  0  0  0
  2 13  1  1  0  0  0
  2  1  1  0  0  0  0
  3 10  1  0  0  0  0
  3  7  2  0  0  0  0
  4  3  1  0  0  0  0
  5  1  2  0  0  0  0
  5  9  1  0  0  0  0
  6  9  2  0  0  0  0
  7  6  1  0  0  0  0
  8  2  1  0  0  0  0
 10  8  1  6  0  0  0
 10  5  1  0  0  0  0
 11 16  2  0  0  0  0
 11 17  1  0  0  0  0
 13 12  1  0  0  0  0
 14 12  1  0  0  0  0
 14 15  1  0  0  0  0
 16 13  1  0  0  0  0
 17 14  2  0  0  0  0
 18 16  1  0  0  0  0
 19 20  1  0  0  0  0
 20 18  1  0  0  0  0
 21 19  2  0  0  0  0
 22 27  1  0  0  0  0
 23 26  2  0  0  0  0
 24 22  2  0  0  0  0
 24 23  1  0  0  0  0
 25 19  1  0  0  0  0
 26 25  1  0  0  0  0
 27 25  2  0  0  0  0
 28 29  1  0  0  0  0
 28 24  1  0  0  0  0
 30 23  1  0  0  0  0
 30 31  1  0  0  0  0
 31 33  1  0  0  0  0
 33 32  1  1  0  0  0
 34 35  1  0  0  0  0
 34 33  1  0  0  0  0
 35 37  1  0  0  0  0
 37 36  1  0  0  0  0
 38 37  2  0  0  0  0
 39  4  1  0  0  0  0
 40 39  1  0  0  0  0
 40 41  1  0  0  0  0
 42 43  2  0  0  0  0
 43 40  1  0  0  0  0
 44 43  1  0  0  0  0
 45 44  1  0  0  0  0
 46 45  1  0  0  0  0
 46 47  1  6  0  0  0
 48 49  1  1  0  0  0
 48 46  1  0  0  0  0
 50 48  1  0  0  0  0
 50 55  1  0  0  0  0
 51 54  1  0  0  0  0
 52 58  1  6  0  0  0
 52 56  1  0  0  0  0
 53 51  1  0  0  0  0
 53 55  1  0  0  0  0
 54 56  1  0  0  0  0
 55 52  1  0  0  0  0
 58 57  1  1  0  0  0
 58 60  1  0  0  0  0
 60 59  1  0  0  0  0
M  END
>  <MODEL>
5

>  <REMARK>
 VINA RESULT:      -5.5      1.657      2.370
  Name = 
  21 active torsions:
  status: ('A' for Active; 'I' for Inactive)
    1  A    between atoms: C_2  and  C_23
    2  A    between atoms: C_2  and  C_44
    3  A    between atoms: C_3  and  N_11
    4  A    between atoms: C_4  and  C_30
    5  A    between atoms: C_7  and  C_21
    6  A    between atoms: C_7  and  N_50
    7  A    between atoms: N_8  and  C_35
    8  A    between atoms: N_12  and  C_35
    9  A    between atoms: N_12  and  C_51
   10  A    between atoms: C_13  and  O_16
   11  A    between atoms: O_16  and  C_52
   12  A    between atoms: C_17  and  O_42
   13  A    between atoms: C_18  and  C_20
   14  A    between atoms: C_18  and  N_26
   15  A    between atoms: C_20  and  C_52
   16  A    between atoms: C_21  and  C_23
   17  A    between atoms: C_22  and  N_24
   18  A    between atoms: C_22  and  C_55
   19  A    between atoms: C_25  and  C_28
   20  A    between atoms: C_25  and  C_56
   21  A    between atoms: C_44  and  C_51
                            x       y       z     vdW  Elec       q    Type
                         _______ _______ _______ _____ _____    ______ ____

>  <TORSDO>
F 21

$$$$
=
 OpenBabel11032420063D

 60 64  0  0  1  0  0  0  0  0999 V2000
  189.0300  176.0700  137.1750 N   0  0  0  0  0  0  0  0  0  0  0  0
  189.2530  174.6320  137.2910 C   0  0  1  0  0  3  0  0  0  0  0  0
  185.9810  175.5660  135.4240 C   0  0  0  0  0  0  0  0  0  0  0  0
  185.0930  174.4940  135.0940 N   0  0  0  0  0  2  0  0  0  0  0  0
  188.0940  176.3850  136.3450 C   0  0  0  0  0  0  0  0  0  0  0  0
  186.4010  177.9140  135.7690 C   0  0  0  0  0  3  0  0  0  0  0  0
  185.5540  176.8010  135.4270 N   0  0  0  0  0  0  0  0  0  0  0  0
  187.8130  173.7820  136.5380 S   0  0  0  0  0  0  0  0  0  0  0  0
  187.6040  177.7220  136.2250 N   0  0  0  0  0  0  0  0  0  0  0  0
  187.4470  175.2830  135.5950 C   0  0  1  0  0  3  0  0  0  0  0  0
  192.6560  174.8350  135.7870 C   0  0  0  0  0  3  0  0  0  0  0  0
  190.7120  172.7950  136.3220 C   0  0  0  0  0  2  0  0  0  0  0  0
  190.4950  174.2170  136.6340 N   0  0  0  0  0  0  0  0  0  0  0  0
  191.8060  172.5960  135.3100 C   0  0  0  0  0  0  0  0  0  0  0  0
  191.9310  171.2850  134.6150 C   0  0  0  0  0  1  0  0  0  0  0  0
  191.5860  175.1550  136.5140 C   0  0  0  0  0  0  0  0  0  0  0  0
  192.7380  173.5300  135.1160 C   0  0  0  0  0  3  0  0  0  0  0  0
  191.5350  176.4960  137.1720 C   0  0  0  0  0  2  0  0  0  0  0  0
  193.0460  176.8190  139.2000 C   0  0  0  0  0  0  0  0  0  0  0  0
  192.8180  176.8080  137.7830 N   0  0  0  0  0  2  0  0  0  0  0  0
  194.1950  176.5310  139.6270 O   0  0  0  0  0  0  0  0  0  0  0  0
  189.6860  177.5050  140.6510 C   0  0  0  0  0  3  0  0  0  0  0  0
  191.3050  177.7610  142.4340 C   0  0  0  0  0  0  0  0  0  0  0  0
  189.9600  177.7730  142.0050 C   0  0  0  0  0  0  0  0  0  0  0  0
  191.9950  177.1930  140.1740 C   0  0  0  0  0  0  0  0  0  0  0  0
  192.3080  177.4630  141.5080 C   0  0  0  0  0  3  0  0  0  0  0  0
  190.6930  177.2200  139.7810 N   0  0  0  0  0  0  0  0  0  0  0  0
  188.9200  178.0630  142.8970 O   0  0  0  0  0  0  0  0  0  0  0  0
  187.9110  177.1190  143.2390 C   0  0  0  0  0  1  0  0  0  0  0  0
  191.7170  178.0320  143.7470 O   0  0  0  0  0  0  0  0  0  0  0  0
  190.9080  177.9620  144.9170 C   0  0  0  0  0  2  0  0  0  0  0  0
  191.5740  175.6910  145.3030 O   0  0  0  0  0  1  0  0  0  0  0  0
  191.4530  176.9430  145.9120 C   0  0  2  0  0  3  0  0  0  0  0  0
  190.5030  176.8240  147.0980 C   0  0  0  0  0  2  0  0  0  0  0  0
  189.1330  177.0610  146.6700 N   0  0  0  0  0  2  0  0  0  0  0  0
  188.4470  177.9720  148.9400 C   0  0  0  0  0  1  0  0  0  0  0  0
  188.1630  177.6930  147.5070 C   0  0  0  0  0  0  0  0  0  0  0  0
  187.0500  178.0280  147.0280 O   0  0  0  0  0  0  0  0  0  0  0  0
  183.7380  174.7060  134.5940 C   0  0  0  0  0  2  0  0  0  0  0  0
  182.7240  174.3170  135.5800 N   0  0  0  0  0  0  0  0  0  0  0  0
  181.4480  173.9250  135.1490 N   0  0  0  0  0  1  0  0  0  0  0  0
  184.2850  173.0610  137.3460 S   0  0  0  0  0  0  0  0  0  0  0  0
  183.0840  174.1080  136.9530 C   0  0  0  0  0  0  0  0  0  0  0  0
  182.6060  175.0650  137.9950 C   0  0  0  0  0  2  0  0  0  0  0  0
  181.2440  174.6650  138.5350 C   0  0  0  0  0  2  0  0  0  0  0  0
  180.3460  175.8840  138.6530 C   0  0  2  0  0  3  0  0  0  0  0  0
  179.2530  175.7600  137.7880 O   0  0  0  0  0  1  0  0  0  0  0  0
  181.1300  177.1570  138.3460 C   0  0  1  0  0  3  0  0  0  0  0  0
  180.4820  177.9080  137.3620 O   0  0  0  0  0  1  0  0  0  0  0  0
  181.2900  177.9870  139.6140 C   0  0  0  0  0  2  0  0  0  0  0  0
  184.8220  179.1620  139.6850 C   0  0  0  0  0  2  0  0  0  0  0  0
  182.8570  178.0010  141.4990 C   0  0  1  0  0  3  0  0  0  0  0  0
  183.3100  179.2310  139.4650 C   0  0  0  0  0  2  0  0  0  0  0  0
  185.1350  179.0360  141.1750 C   0  0  0  0  0  2  0  0  0  0  0  0
  182.6900  178.0310  140.0270 N   0  0  0  0  0  0  0  0  0  0  0  0
  184.3580  177.8710  141.8040 C   0  0  0  0  0  2  0  0  0  0  0  0
  182.9560  179.4750  143.4120 O   0  0  0  0  0  1  0  0  0  0  0  0
  182.2510  179.2220  142.2340 C   0  0  2  0  0  3  0  0  0  0  0  0
  180.6640  178.6880  144.0700 C   0  0  0  0  0  1  0  0  0  0  0  0
  180.7920  179.0120  142.5970 C   0  0  0  0  0  2  0  0  0  0  0  0
  1  2  1  0  0  0  0
  2 13  1  6  0  0  0
  3  7  2  0  0  0  0
  4  3  1  0  0  0  0
  5  1  2  0  0  0  0
  6  9  2  0  0  0  0
  7  6  1  0  0  0  0
  8  2  1  0  0  0  0
  9  5  1  0  0  0  0
 10  3  1  1  0  0  0
 10  5  1  0  0  0  0
 10  8  1  0  0  0  0
 11 16  2  0  0  0  0
 12 13  1  0  0  0  0
 14 12  1  0  0  0  0
 15 14  1  0  0  0  0
 16 13  1  0  0  0  0
 16 18  1  0  0  0  0
 17 14  2  0  0  0  0
 17 11  1  0  0  0  0
 18 20  1  0  0  0  0
 19 21  2  0  0  0  0
 19 25  1  0  0  0  0
 20 19  1  0  0  0  0
 22 24  1  0  0  0  0
 23 30  1  0  0  0  0
 24 23  2  0  0  0  0
 24 28  1  0  0  0  0
 25 26  2  0  0  0  0
 26 23  1  0  0  0  0
 27 25  1  0  0  0  0
 27 22  2  0  0  0  0
 28 29  1  0  0  0  0
 30 31  1  0  0  0  0
 31 33  1  0  0  0  0
 33 32  1  6  0  0  0
 33 34  1  0  0  0  0
 35 34  1  0  0  0  0
 35 37  1  0  0  0  0
 37 36  1  0  0  0  0
 38 37  2  0  0  0  0
 39  4  1  0  0  0  0
 39 40  1  0  0  0  0
 40 43  1  0  0  0  0
 41 40  1  0  0  0  0
 43 42  2  0  0  0  0
 43 44  1  0  0  0  0
 44 45  1  0  0  0  0
 45 46  1  0  0  0  0
 46 47  1  6  0  0  0
 48 49  1  6  0  0  0
 48 46  1  0  0  0  0
 48 50  1  0  0  0  0
 50 55  1  0  0  0  0
 51 54  1  0  0  0  0
 52 56  1  0  0  0  0
 52 58  1  1  0  0  0
 53 51  1  0  0  0  0
 53 55  1  0  0  0  0
 54 56  1  0  0  0  0
 55 52  1  0  0  0  0
 58 60  1  0  0  0  0
 58 57  1  1  0  0  0
 60 59  1  0  0  0  0
M  END
>  <MODEL>
6

>  <REMARK>
 VINA RESULT:      -5.3      3.250      8.284
  Name = 
  21 active torsions:
  status: ('A' for Active; 'I' for Inactive)
    1  A    between atoms: C_2  and  C_23
    2  A    between atoms: C_2  and  C_44
    3  A    between atoms: C_3  and  N_11
    4  A    between atoms: C_4  and  C_30
    5  A    between atoms: C_7  and  C_21
    6  A    between atoms: C_7  and  N_50
    7  A    between atoms: N_8  and  C_35
    8  A    between atoms: N_12  and  C_35
    9  A    between atoms: N_12  and  C_51
   10  A    between atoms: C_13  and  O_16
   11  A    between atoms: O_16  and  C_52
   12  A    between atoms: C_17  and  O_42
   13  A    between atoms: C_18  and  C_20
   14  A    between atoms: C_18  and  N_26
   15  A    between atoms: C_20  and  C_52
   16  A    between atoms: C_21  and  C_23
   17  A    between atoms: C_22  and  N_24
   18  A    between atoms: C_22  and  C_55
   19  A    between atoms: C_25  and  C_28
   20  A    between atoms: C_25  and  C_56
   21  A    between atoms: C_44  and  C_51
                            x       y       z     vdW  Elec       q    Type
                         _______ _______ _______ _____ _____    ______ ____

>  <TORSDO>
F 21

$$$$
=
 OpenBabel11032420063D

 60 64  0  0  1  0  0  0  0  0999 V2000
  182.8690  176.1030  139.8510 N   0  0  0  0  0  0  0  0  0  0  0  0
  183.4550  177.2120  140.5980 C   0  0  1  0  0  3  0  0  0  0  0  0
  184.7880  176.8880  136.9660 C   0  0  0  0  0  0  0  0  0  0  0  0
  185.8760  177.7390  136.5950 N   0  0  0  0  0  2  0  0  0  0  0  0
  183.1100  176.1440  138.5840 C   0  0  0  0  0  0  0  0  0  0  0  0
  183.4350  174.9280  136.5970 C   0  0  0  0  0  3  0  0  0  0  0  0
  184.5070  175.8270  136.2570 N   0  0  0  0  0  0  0  0  0  0  0  0
  184.6940  178.0220  139.5130 S   0  0  0  0  0  0  0  0  0  0  0  0
  182.7800  175.0620  137.7120 N   0  0  0  0  0  0  0  0  0  0  0  0
  183.8610  177.3140  138.0690 C   0  0  1  0  0  3  0  0  0  0  0  0
  181.4610  179.4420  142.8190 C   0  0  0  0  0  3  0  0  0  0  0  0
  181.5630  178.8030  140.0240 C   0  0  0  0  0  2  0  0  0  0  0  0
  182.4410  178.1780  141.0270 N   0  0  0  0  0  0  0  0  0  0  0  0
  180.3450  179.4290  140.6460 C   0  0  0  0  0  0  0  0  0  0  0  0
  179.1870  179.7920  139.7840 C   0  0  0  0  0  1  0  0  0  0  0  0
  182.4650  178.6840  142.3780 C   0  0  0  0  0  0  0  0  0  0  0  0
  180.3360  179.7760  141.9340 C   0  0  0  0  0  3  0  0  0  0  0  0
  183.5860  178.3580  143.3120 C   0  0  0  0  0  2  0  0  0  0  0  0
  186.1200  178.0950  143.2070 C   0  0  0  0  0  0  0  0  0  0  0  0
  184.8640  178.4840  142.6290 N   0  0  0  0  0  2  0  0  0  0  0  0
  187.0370  177.6980  142.4410 O   0  0  0  0  0  0  0  0  0  0  0  0
  185.7260  178.9650  146.8060 C   0  0  0  0  0  3  0  0  0  0  0  0
  187.6710  177.5330  146.6210 C   0  0  0  0  0  0  0  0  0  0  0  0
  186.7830  178.2760  147.4300 C   0  0  0  0  0  0  0  0  0  0  0  0
  186.3900  178.1820  144.6610 C   0  0  0  0  0  0  0  0  0  0  0  0
  187.4560  177.4920  145.2410 C   0  0  0  0  0  3  0  0  0  0  0  0
  185.5520  178.8990  145.4580 N   0  0  0  0  0  0  0  0  0  0  0  0
  186.9560  178.3450  148.8170 O   0  0  0  0  0  0  0  0  0  0  0  0
  187.4370  177.2510  149.5900 C   0  0  0  0  0  1  0  0  0  0  0  0
  188.7750  176.8210  147.1100 O   0  0  0  0  0  0  0  0  0  0  0  0
  190.1220  177.2800  147.1570 C   0  0  0  0  0  2  0  0  0  0  0  0
  192.2370  176.2440  147.6070 O   0  0  0  0  0  1  0  0  0  0  0  0
  191.1030  176.1690  146.7940 C   0  0  2  0  0  3  0  0  0  0  0  0
  191.5300  176.3160  145.3390 C   0  0  0  0  0  2  0  0  0  0  0  0
  191.1470  177.6250  144.8330 N   0  0  0  0  0  2  0  0  0  0  0  0
  191.1390  176.8290  142.4200 C   0  0  0  0  0  1  0  0  0  0  0  0
  190.8670  177.8650  143.4520 C   0  0  0  0  0  0  0  0  0  0  0  0
  190.3750  178.9660  143.0980 O   0  0  0  0  0  0  0  0  0  0  0  0
  186.6220  177.5840  135.3500 C   0  0  0  0  0  2  0  0  0  0  0  0
  187.7720  176.6880  135.5110 N   0  0  0  0  0  0  0  0  0  0  0  0
  187.7170  175.3850  134.9960 N   0  0  0  0  0  1  0  0  0  0  0  0
  189.0860  178.4940  136.9750 S   0  0  0  0  0  0  0  0  0  0  0  0
  189.0310  177.1940  135.9760 C   0  0  0  0  0  0  0  0  0  0  0  0
  190.2610  176.3590  135.8280 C   0  0  0  0  0  2  0  0  0  0  0  0
  191.0200  176.2490  137.1390 C   0  0  0  0  0  2  0  0  0  0  0  0
  192.5130  176.1530  136.8770 C   0  0  2  0  0  3  0  0  0  0  0  0
  192.7960  175.0060  136.1260 O   0  0  0  0  0  1  0  0  0  0  0  0
  193.2860  176.1360  138.1930 C   0  0  1  0  0  3  0  0  0  0  0  0
  192.4180  176.3040  139.2750 O   0  0  0  0  0  1  0  0  0  0  0  0
  194.0460  174.8230  138.3330 C   0  0  0  0  0  2  0  0  0  0  0  0
  197.4770  175.0990  139.7510 C   0  0  0  0  0  2  0  0  0  0  0  0
  196.1920  174.3730  137.2370 C   0  0  1  0  0  3  0  0  0  0  0  0
  196.0250  174.6350  139.6360 C   0  0  0  0  0  2  0  0  0  0  0  0
  198.3070  174.5280  138.6020 C   0  0  0  0  0  2  0  0  0  0  0  0
  195.4860  175.0600  138.3440 N   0  0  0  0  0  0  0  0  0  0  0  0
  197.6570  174.8360  137.2470 C   0  0  0  0  0  2  0  0  0  0  0  0
  197.3580  172.2640  137.0430 O   0  0  0  0  0  1  0  0  0  0  0  0
  196.1040  172.8270  137.2880 C   0  0  2  0  0  3  0  0  0  0  0  0
  195.4500  172.8200  134.8910 C   0  0  0  0  0  1  0  0  0  0  0  0
  195.1330  172.2690  136.2640 C   0  0  0  0  0  2  0  0  0  0  0  0
  1  2  1  0  0  0  0
  2 13  1  6  0  0  0
  4  3  1  0  0  0  0
  5  1  2  0  0  0  0
  6  9  2  0  0  0  0
  7  6  1  0  0  0  0
  7  3  2  0  0  0  0
  8  2  1  0  0  0  0
  9  5  1  0  0  0  0
 10  3  1  6  0  0  0
 10  5  1  0  0  0  0
 10  8  1  0  0  0  0
 12 14  1  0  0  0  0
 12 13  1  0  0  0  0
 13 16  1  0  0  0  0
 14 17  2  0  0  0  0
 15 14  1  0  0  0  0
 16 11  2  0  0  0  0
 16 18  1  0  0  0  0
 17 11  1  0  0  0  0
 19 25  1  0  0  0  0
 20 19  1  0  0  0  0
 20 18  1  0  0  0  0
 21 19  2  0  0  0  0
 22 24  1  0  0  0  0
 23 30  1  0  0  0  0
 23 24  2  0  0  0  0
 24 28  1  0  0  0  0
 25 26  2  0  0  0  0
 25 27  1  0  0  0  0
 26 23  1  0  0  0  0
 27 22  2  0  0  0  0
 28 29  1  0  0  0  0
 30 31  1  0  0  0  0
 33 31  1  0  0  0  0
 33 32  1  1  0  0  0
 34 33  1  0  0  0  0
 35 34  1  0  0  0  0
 36 37  1  0  0  0  0
 37 35  1  0  0  0  0
 38 37  2  0  0  0  0
 39 40  1  0  0  0  0
 39  4  1  0  0  0  0
 40 43  1  0  0  0  0
 41 40  1  0  0  0  0
 43 42  2  0  0  0  0
 44 43  1  0  0  0  0
 44 45  1  0  0  0  0
 46 47  1  1  0  0  0
 46 45  1  0  0  0  0
 46 48  1  0  0  0  0
 48 50  1  0  0  0  0
 48 49  1  1  0  0  0
 50 55  1  0  0  0  0
 52 56  1  0  0  0  0
 52 58  1  1  0  0  0
 52 55  1  0  0  0  0
 53 51  1  0  0  0  0
 54 51  1  0  0  0  0
 55 53  1  0  0  0  0
 56 54  1  0  0  0  0
 58 57  1  6  0  0  0
 59 60  1  0  0  0  0
 60 58  1  0  0  0  0
M  END
>  <MODEL>
7

>  <REMARK>
 VINA RESULT:      -5.2      3.326     10.464
  Name = 
  21 active torsions:
  status: ('A' for Active; 'I' for Inactive)
    1  A    between atoms: C_2  and  C_23
    2  A    between atoms: C_2  and  C_44
    3  A    between atoms: C_3  and  N_11
    4  A    between atoms: C_4  and  C_30
    5  A    between atoms: C_7  and  C_21
    6  A    between atoms: C_7  and  N_50
    7  A    between atoms: N_8  and  C_35
    8  A    between atoms: N_12  and  C_35
    9  A    between atoms: N_12  and  C_51
   10  A    between atoms: C_13  and  O_16
   11  A    between atoms: O_16  and  C_52
   12  A    between atoms: C_17  and  O_42
   13  A    between atoms: C_18  and  C_20
   14  A    between atoms: C_18  and  N_26
   15  A    between atoms: C_20  and  C_52
   16  A    between atoms: C_21  and  C_23
   17  A    between atoms: C_22  and  N_24
   18  A    between atoms: C_22  and  C_55
   19  A    between atoms: C_25  and  C_28
   20  A    between atoms: C_25  and  C_56
   21  A    between atoms: C_44  and  C_51
                            x       y       z     vdW  Elec       q    Type
                         _______ _______ _______ _____ _____    ______ ____

>  <TORSDO>
F 21

$$$$
=
 OpenBabel11032420063D

 60 64  0  0  1  0  0  0  0  0999 V2000
  189.5360  178.1420  137.5850 N   0  0  0  0  0  0  0  0  0  0  0  0
  188.4820  178.5230  138.5200 C   0  0  1  0  0  3  0  0  0  0  0  0
  187.3670  175.9060  135.8790 C   0  0  0  0  0  0  0  0  0  0  0  0
  185.9760  175.5720  135.8440 N   0  0  0  0  0  2  0  0  0  0  0  0
  189.2530  177.1000  136.8780 C   0  0  0  0  0  0  0  0  0  0  0  0
  189.5400  175.9610  134.8410 C   0  0  0  0  0  3  0  0  0  0  0  0
  188.1390  175.6300  134.8630 N   0  0  0  0  0  0  0  0  0  0  0  0
  186.9550  177.6330  138.0310 S   0  0  0  0  0  0  0  0  0  0  0  0
  190.0710  176.6770  135.7870 N   0  0  0  0  0  0  0  0  0  0  0  0
  187.9700  176.4130  137.1580 C   0  0  1  0  0  3  0  0  0  0  0  0
  188.3730  178.4840  142.2440 C   0  0  0  0  0  3  0  0  0  0  0  0
  189.9280  177.2520  140.1730 C   0  0  0  0  0  2  0  0  0  0  0  0
  188.8400  178.2050  139.9050 N   0  0  0  0  0  0  0  0  0  0  0  0
  190.4330  177.3480  141.5870 C   0  0  0  0  0  0  0  0  0  0  0  0
  191.7400  176.7300  141.9410 C   0  0  0  0  0  1  0  0  0  0  0  0
  187.9790  178.6360  140.9810 C   0  0  0  0  0  0  0  0  0  0  0  0
  189.6720  177.8690  142.5510 C   0  0  0  0  0  3  0  0  0  0  0  0
  186.6550  179.2760  140.7100 C   0  0  0  0  0  2  0  0  0  0  0  0
  184.5850  178.0780  141.5950 C   0  0  0  0  0  0  0  0  0  0  0  0
  185.6160  178.2620  140.6120 N   0  0  0  0  0  2  0  0  0  0  0  0
  183.4680  177.6360  141.2180 O   0  0  0  0  0  0  0  0  0  0  0  0
  183.9800  179.2570  145.0740 C   0  0  0  0  0  3  0  0  0  0  0  0
  186.0910  178.0710  145.0750 C   0  0  0  0  0  0  0  0  0  0  0  0
  185.0940  178.7750  145.7850 C   0  0  0  0  0  0  0  0  0  0  0  0
  184.7990  178.3470  143.0350 C   0  0  0  0  0  0  0  0  0  0  0  0
  185.9240  177.8610  143.7030 C   0  0  0  0  0  3  0  0  0  0  0  0
  183.8560  179.0320  143.7380 N   0  0  0  0  0  0  0  0  0  0  0  0
  185.2160  179.0090  147.1600 O   0  0  0  0  0  0  0  0  0  0  0  0
  186.0520  180.0280  147.6980 C   0  0  0  0  0  1  0  0  0  0  0  0
  187.2590  177.5580  145.6550 O   0  0  0  0  0  0  0  0  0  0  0  0
  187.4440  177.2250  147.0270 C   0  0  0  0  0  2  0  0  0  0  0  0
  189.2220  177.7790  148.5380 O   0  0  0  0  0  1  0  0  0  0  0  0
  188.9230  177.0720  147.3710 C   0  0  2  0  0  3  0  0  0  0  0  0
  189.7740  177.6180  146.2320 C   0  0  0  0  0  2  0  0  0  0  0  0
  190.7040  176.6010  145.7670 N   0  0  0  0  0  2  0  0  0  0  0  0
  192.0880  176.7150  147.8950 C   0  0  0  0  0  1  0  0  0  0  0  0
  191.7600  176.0920  146.5850 C   0  0  0  0  0  0  0  0  0  0  0  0
  192.4220  175.0960  146.1990 O   0  0  0  0  0  0  0  0  0  0  0  0
  185.3730  174.7780  134.7760 C   0  0  0  0  0  2  0  0  0  0  0  0
  183.9330  174.5900  134.9830 N   0  0  0  0  0  0  0  0  0  0  0  0
  183.0370  175.5990  134.5960 N   0  0  0  0  0  1  0  0  0  0  0  0
  184.4250  172.0630  135.6890 S   0  0  0  0  0  0  0  0  0  0  0  0
  183.4100  173.3080  135.3550 C   0  0  0  0  0  0  0  0  0  0  0  0
  181.9770  173.1840  135.7570 C   0  0  0  0  0  2  0  0  0  0  0  0
  181.7860  173.4720  137.2360 C   0  0  0  0  0  2  0  0  0  0  0  0
  180.3980  174.0350  137.4880 C   0  0  2  0  0  3  0  0  0  0  0  0
  179.4260  173.1420  137.0220 O   0  0  0  0  0  1  0  0  0  0  0  0
  180.2430  175.3960  136.8150 C   0  0  1  0  0  3  0  0  0  0  0  0
  179.2260  175.3580  135.8580 O   0  0  0  0  0  1  0  0  0  0  0  0
  179.9350  176.4610  137.8600 C   0  0  0  0  0  2  0  0  0  0  0  0
  180.5320  179.7940  136.3120 C   0  0  0  0  0  2  0  0  0  0  0  0
  181.1920  178.3620  138.7640 C   0  0  1  0  0  3  0  0  0  0  0  0
  179.7370  178.6010  136.8460 C   0  0  0  0  0  2  0  0  0  0  0  0
  181.2310  180.5210  137.4600 C   0  0  0  0  0  2  0  0  0  0  0  0
  180.6440  177.7000  137.5570 N   0  0  0  0  0  0  0  0  0  0  0  0
  182.0590  179.5450  138.3070 C   0  0  0  0  0  2  0  0  0  0  0  0
  180.6640  179.7520  140.6700 O   0  0  0  0  0  1  0  0  0  0  0  0
  180.1170  178.8280  139.7770 C   0  0  2  0  0  3  0  0  0  0  0  0
  180.0330  177.7550  142.0170 C   0  0  0  0  0  1  0  0  0  0  0  0
  179.5470  177.6770  140.5860 C   0  0  0  0  0  2  0  0  0  0  0  0
  1  2  1  0  0  0  0
  2 13  1  1  0  0  0
  4  3  1  0  0  0  0
  5 10  1  0  0  0  0
  5  1  2  0  0  0  0
  6  7  1  0  0  0  0
  6  9  2  0  0  0  0
  7  3  2  0  0  0  0
  8  2  1  0  0  0  0
  9  5  1  0  0  0  0
 10  3  1  6  0  0  0
 10  8  1  0  0  0  0
 11 17  1  0  0  0  0
 12 14  1  0  0  0  0
 13 12  1  0  0  0  0
 13 16  1  0  0  0  0
 14 15  1  0  0  0  0
 14 17  2  0  0  0  0
 16 11  2  0  0  0  0
 18 16  1  0  0  0  0
 19 25  1  0  0  0  0
 20 18  1  0  0  0  0
 20 19  1  0  0  0  0
 21 19  2  0  0  0  0
 22 24  1  0  0  0  0
 23 30  1  0  0  0  0
 23 24  2  0  0  0  0
 24 28  1  0  0  0  0
 25 26  2  0  0  0  0
 25 27  1  0  0  0  0
 26 23  1  0  0  0  0
 27 22  2  0  0  0  0
 28 29  1  0  0  0  0
 30 31  1  0  0  0  0
 31 33  1  0  0  0  0
 33 32  1  1  0  0  0
 34 33  1  0  0  0  0
 35 34  1  0  0  0  0
 35 37  1  0  0  0  0
 37 36  1  0  0  0  0
 38 37  2  0  0  0  0
 39 40  1  0  0  0  0
 39  4  1  0  0  0  0
 40 43  1  0  0  0  0
 41 40  1  0  0  0  0
 43 42  2  0  0  0  0
 43 44  1  0  0  0  0
 44 45  1  0  0  0  0
 45 46  1  0  0  0  0
 46 47  1  6  0  0  0
 48 49  1  6  0  0  0
 48 46  1  0  0  0  0
 48 50  1  0  0  0  0
 51 53  1  0  0  0  0
 51 54  1  0  0  0  0
 52 58  1  1  0  0  0
 53 55  1  0  0  0  0
 54 56  1  0  0  0  0
 55 50  1  0  0  0  0
 55 52  1  0  0  0  0
 56 52  1  0  0  0  0
 58 60  1  0  0  0  0
 58 57  1  1  0  0  0
 60 59  1  0  0  0  0
M  END
>  <MODEL>
8

>  <REMARK>
 VINA RESULT:      -5.1      4.170      8.407
  Name = 
  21 active torsions:
  status: ('A' for Active; 'I' for Inactive)
    1  A    between atoms: C_2  and  C_23
    2  A    between atoms: C_2  and  C_44
    3  A    between atoms: C_3  and  N_11
    4  A    between atoms: C_4  and  C_30
    5  A    between atoms: C_7  and  C_21
    6  A    between atoms: C_7  and  N_50
    7  A    between atoms: N_8  and  C_35
    8  A    between atoms: N_12  and  C_35
    9  A    between atoms: N_12  and  C_51
   10  A    between atoms: C_13  and  O_16
   11  A    between atoms: O_16  and  C_52
   12  A    between atoms: C_17  and  O_42
   13  A    between atoms: C_18  and  C_20
   14  A    between atoms: C_18  and  N_26
   15  A    between atoms: C_20  and  C_52
   16  A    between atoms: C_21  and  C_23
   17  A    between atoms: C_22  and  N_24
   18  A    between atoms: C_22  and  C_55
   19  A    between atoms: C_25  and  C_28
   20  A    between atoms: C_25  and  C_56
   21  A    between atoms: C_44  and  C_51
                            x       y       z     vdW  Elec       q    Type
                         _______ _______ _______ _____ _____    ______ ____

>  <TORSDO>
F 21

$$$$
=
 OpenBabel11032420063D

 60 64  0  0  1  0  0  0  0  0999 V2000
  186.6570  177.1970  145.3490 N   0  0  0  0  0  0  0  0  0  0  0  0
  187.5290  176.4420  144.4540 C   0  0  1  0  0  3  0  0  0  0  0  0
  185.0570  178.8030  142.6150 C   0  0  0  0  0  0  0  0  0  0  0  0
  185.0040  178.7030  141.1890 N   0  0  0  0  0  2  0  0  0  0  0  0
  186.0220  178.1580  144.7680 C   0  0  0  0  0  0  0  0  0  0  0  0
  184.0840  179.4890  144.7090 C   0  0  0  0  0  3  0  0  0  0  0  0
  184.0880  179.3790  143.2730 N   0  0  0  0  0  0  0  0  0  0  0  0
  187.0610  176.8660  142.7320 S   0  0  0  0  0  0  0  0  0  0  0  0
  184.9900  178.8940  145.4270 N   0  0  0  0  0  0  0  0  0  0  0  0
  186.3130  178.4000  143.3350 C   0  0  1  0  0  3  0  0  0  0  0  0
  191.1610  176.9420  143.7870 C   0  0  0  0  0  3  0  0  0  0  0  0
  189.3790  177.1930  146.0210 C   0  0  0  0  0  2  0  0  0  0  0  0
  188.9440  176.7410  144.6900 N   0  0  0  0  0  0  0  0  0  0  0  0
  190.8650  177.0610  146.2080 C   0  0  0  0  0  0  0  0  0  0  0  0
  191.4380  177.1310  147.5810 C   0  0  0  0  0  1  0  0  0  0  0  0
  189.8510  176.8210  143.5700 C   0  0  0  0  0  0  0  0  0  0  0  0
  191.6860  177.0060  145.1590 C   0  0  0  0  0  3  0  0  0  0  0  0
  189.3580  176.7480  142.1610 C   0  0  0  0  0  2  0  0  0  0  0  0
  189.0580  178.3110  140.1680 C   0  0  0  0  0  0  0  0  0  0  0  0
  189.4730  178.0480  141.5180 N   0  0  0  0  0  2  0  0  0  0  0  0
  188.6570  179.4690  139.8780 O   0  0  0  0  0  0  0  0  0  0  0  0
  187.9740  175.8740  137.5710 C   0  0  0  0  0  3  0  0  0  0  0  0
  190.3940  175.9540  137.5160 C   0  0  0  0  0  0  0  0  0  0  0  0
  189.1840  175.4440  136.9950 C   0  0  0  0  0  0  0  0  0  0  0  0
  189.1230  177.2870  139.1000 C   0  0  0  0  0  0  0  0  0  0  0  0
  190.3440  176.8790  138.5630 C   0  0  0  0  0  3  0  0  0  0  0  0
  187.9700  176.7760  138.5900 N   0  0  0  0  0  0  0  0  0  0  0  0
  189.1830  174.5180  135.9460 O   0  0  0  0  0  0  0  0  0  0  0  0
  189.4680  174.8780  134.5980 C   0  0  0  0  0  1  0  0  0  0  0  0
  191.6670  175.5930  137.0510 O   0  0  0  0  0  0  0  0  0  0  0  0
  192.3910  174.4180  137.4000 C   0  0  0  0  0  2  0  0  0  0  0  0
  193.3110  172.5800  136.1660 O   0  0  0  0  0  1  0  0  0  0  0  0
  193.3130  173.9730  136.2700 C   0  0  2  0  0  3  0  0  0  0  0  0
  194.7350  174.4450  136.5510 C   0  0  0  0  0  2  0  0  0  0  0  0
  194.8100  175.0510  137.8710 N   0  0  0  0  0  2  0  0  0  0  0  0
  196.5430  173.3780  138.6790 C   0  0  0  0  0  1  0  0  0  0  0  0
  195.7340  174.6120  138.8690 C   0  0  0  0  0  0  0  0  0  0  0  0
  195.8760  175.2790  139.9240 O   0  0  0  0  0  0  0  0  0  0  0  0
  183.9810  179.3600  140.3810 C   0  0  0  0  0  2  0  0  0  0  0  0
  182.7550  178.5590  140.2940 N   0  0  0  0  0  0  0  0  0  0  0  0
  181.7600  178.7010  141.2720 N   0  0  0  0  0  1  0  0  0  0  0  0
  182.0180  178.5770  137.7270 S   0  0  0  0  0  0  0  0  0  0  0  0
  182.4570  177.8080  139.1090 C   0  0  0  0  0  0  0  0  0  0  0  0
  182.8520  176.3700  139.0270 C   0  0  0  0  0  2  0  0  0  0  0  0
  183.9570  176.1540  138.0070 C   0  0  0  0  0  2  0  0  0  0  0  0
  183.7470  174.8410  137.2730 C   0  0  2  0  0  3  0  0  0  0  0  0
  184.9280  174.0910  137.2830 O   0  0  0  0  0  1  0  0  0  0  0  0
  183.2870  175.0980  135.8400 C   0  0  1  0  0  3  0  0  0  0  0  0
  184.3790  175.3820  135.0170 O   0  0  0  0  0  1  0  0  0  0  0  0
  182.5370  173.8820  135.3100 C   0  0  0  0  0  2  0  0  0  0  0  0
  179.0710  173.6940  136.6550 C   0  0  0  0  0  2  0  0  0  0  0  0
  181.4850  172.0620  136.5700 C   0  0  1  0  0  3  0  0  0  0  0  0
  180.1800  173.8620  135.6160 C   0  0  0  0  0  2  0  0  0  0  0  0
  179.0430  172.2560  137.1720 C   0  0  0  0  0  2  0  0  0  0  0  0
  181.4620  173.5020  136.2210 N   0  0  0  0  0  0  0  0  0  0  0  0
  180.4300  171.8200  137.6610 C   0  0  0  0  0  2  0  0  0  0  0  0
  180.2710  170.1730  135.6740 O   0  0  0  0  0  1  0  0  0  0  0  0
  181.2590  171.1120  135.3680 C   0  0  2  0  0  3  0  0  0  0  0  0
  183.4780  170.3140  136.1510 C   0  0  0  0  0  1  0  0  0  0  0  0
  182.5180  170.3580  134.9820 C   0  0  0  0  0  2  0  0  0  0  0  0
  2 13  1  1  0  0  0
  2  1  1  0  0  0  0
  3  7  2  0  0  0  0
  4  3  1  0  0  0  0
  5  1  2  0  0  0  0
  5  9  1  0  0  0  0
  6  9  2  0  0  0  0
  7  6  1  0  0  0  0
  8 10  1  0  0  0  0
  8  2  1  0  0  0  0
 10  3  1  6  0  0  0
 10  5  1  0  0  0  0
 11 17  1  0  0  0  0
 12 14  1  0  0  0  0
 13 12  1  0  0  0  0
 14 15  1  0  0  0  0
 16 11  2  0  0  0  0
 16 13  1  0  0  0  0
 17 14  2  0  0  0  0
 18 16  1  0  0  0  0
 19 20  1  0  0  0  0
 20 18  1  0  0  0  0
 21 19  2  0  0  0  0
 22 27  1  0  0  0  0
 23 26  2  0  0  0  0
 24 23  1  0  0  0  0
 24 22  2  0  0  0  0
 25 19  1  0  0  0  0
 26 25  1  0  0  0  0
 27 25  2  0  0  0  0
 28 24  1  0  0  0  0
 29 28  1  0  0  0  0
 30 31  1  0  0  0  0
 30 23  1  0  0  0  0
 33 32  1  1  0  0  0
 33 34  1  0  0  0  0
 33 31  1  0  0  0  0
 34 35  1  0  0  0  0
 35 37  1  0  0  0  0
 36 37  1  0  0  0  0
 37 38  2  0  0  0  0
 39  4  1  0  0  0  0
 40 39  1  0  0  0  0
 40 41  1  0  0  0  0
 42 43  2  0  0  0  0
 43 40  1  0  0  0  0
 44 43  1  0  0  0  0
 45 44  1  0  0  0  0
 46 47  1  6  0  0  0
 46 45  1  0  0  0  0
 48 49  1  6  0  0  0
 48 46  1  0  0  0  0
 50 48  1  0  0  0  0
 50 55  1  0  0  0  0
 51 54  1  0  0  0  0
 52 58  1  6  0  0  0
 52 56  1  0  0  0  0
 53 55  1  0  0  0  0
 53 51  1  0  0  0  0
 54 56  1  0  0  0  0
 55 52  1  0  0  0  0
 58 57  1  1  0  0  0
 60 58  1  0  0  0  0
 60 59  1  0  0  0  0
M  END
>  <MODEL>
9

>  <REMARK>
 VINA RESULT:      -5.1      2.095      3.143
  Name = 
  21 active torsions:
  status: ('A' for Active; 'I' for Inactive)
    1  A    between atoms: C_2  and  C_23
    2  A    between atoms: C_2  and  C_44
    3  A    between atoms: C_3  and  N_11
    4  A    between atoms: C_4  and  C_30
    5  A    between atoms: C_7  and  C_21
    6  A    between atoms: C_7  and  N_50
    7  A    between atoms: N_8  and  C_35
    8  A    between atoms: N_12  and  C_35
    9  A    between atoms: N_12  and  C_51
   10  A    between atoms: C_13  and  O_16
   11  A    between atoms: O_16  and  C_52
   12  A    between atoms: C_17  and  O_42
   13  A    between atoms: C_18  and  C_20
   14  A    between atoms: C_18  and  N_26
   15  A    between atoms: C_20  and  C_52
   16  A    between atoms: C_21  and  C_23
   17  A    between atoms: C_22  and  N_24
   18  A    between atoms: C_22  and  C_55
   19  A    between atoms: C_25  and  C_28
   20  A    between atoms: C_25  and  C_56
   21  A    between atoms: C_44  and  C_51
                            x       y       z     vdW  Elec       q    Type
                         _______ _______ _______ _____ _____    ______ ____

>  <TORSDO>
F 21

$$$$
