=
 OpenBabel11042410593D

 29 32  0  0  1  0  0  0  0  0999 V2000
  191.7380  176.7340  143.1220 C   0  0  0  0  0  3  0  0  0  0  0  0
  189.9030  176.9930  141.9800 C   0  0  2  0  0  3  0  0  0  0  0  0
  187.6950  177.9310  141.9480 C   0  0  0  0  0  0  0  0  0  0  0  0
  188.8360  177.7130  141.2650 C   0  0  0  0  0  0  0  0  0  0  0  0
  187.5840  177.5060  143.3870 C   0  0  0  0  0  0  0  0  0  0  0  0
  189.5440  176.0980  143.1050 C   0  0  2  0  0  3  0  0  0  0  0  0
  188.4970  176.7300  143.9100 N   0  0  0  0  0  0  0  0  0  0  0  0
  186.6360  178.5850  141.3260 O   0  0  0  0  0  1  0  0  0  0  0  0
  191.1390  177.3570  141.9930 N   0  0  0  0  0  2  0  0  0  0  0  0
  190.8500  176.0330  143.8190 C   0  0  0  0  0  3  0  0  0  0  0  0
  190.1250  177.6440  139.1430 N   0  0  1  0  0  0  0  0  0  0  0  0
  189.0200  178.2850  139.8770 C   0  0  1  0  0  3  0  0  0  0  0  0
  189.8190  176.2250  138.8640 C   0  0  1  0  0  3  0  0  0  0  0  0
  189.5410  177.2370  137.8460 C   0  0  1  0  0  3  0  0  0  0  0  0
  188.1050  177.6460  137.8820 C   0  0  0  0  0  3  0  0  0  0  0  0
  187.8020  178.2460  139.0170 C   0  0  0  0  0  3  0  0  0  0  0  0
  191.0000  175.5540  138.5510 O   0  0  0  0  0  0  0  0  0  0  0  0
  191.9230  176.5700  138.2980 C   0  0  0  0  0  1  0  0  0  0  0  0
  186.5550  178.0870  144.3210 C   0  0  1  0  0  3  0  0  0  0  0  0
  185.2070  177.9720  143.7620 N   0  0  0  0  0  2  0  0  0  0  0  0
  184.2760  179.0490  143.6040 C   0  0  0  0  0  0  0  0  0  0  0  0
  184.6020  180.2320  143.8800 O   0  0  0  0  0  0  0  0  0  0  0  0
  182.9690  178.7770  143.1140 N   0  0  0  0  0  1  0  0  0  0  0  0
  186.6460  177.6180  145.7830 C   0  0  2  0  0  3  0  0  0  0  0  0
  185.6190  179.4020  147.0040 O   0  0  0  0  0  1  0  0  0  0  0  0
  185.4410  178.0800  146.5970 C   0  0  0  0  0  2  0  0  0  0  0  0
  187.9610  178.0380  146.4550 C   0  0  0  0  0  2  0  0  0  0  0  0
  188.3170  177.1910  147.6730 C   0  0  0  0  0  2  0  0  0  0  0  0
  188.2950  177.9720  148.8280 O   0  0  0  0  0  1  0  0  0  0  0  0
  1 10  2  0  0  0  0
  2  4  1  1  0  0  0
  2  9  1  0  0  0  0
  2  6  1  0  0  0  0
  3  5  1  0  0  0  0
  4  3  2  0  0  0  0
  5  7  2  0  0  0  0
  5 19  1  0  0  0  0
  6 10  1  1  0  0  0
  6  7  1  0  0  0  0
  8  3  1  0  0  0  0
  9  1  1  0  0  0  0
 11 12  1  0  0  0  0
 12  4  1  0  0  0  0
 13 11  1  0  0  0  0
 14 15  1  0  0  0  0
 14 13  1  0  0  0  0
 14 11  1  0  0  0  0
 15 16  2  0  0  0  0
 16 12  1  0  0  0  0
 17 13  1  0  0  0  0
 18 17  1  0  0  0  0
 19 24  1  0  0  0  0
 20 19  1  0  0  0  0
 21 20  1  0  0  0  0
 21 22  2  0  0  0  0
 23 21  1  0  0  0  0
 24 27  1  0  0  0  0
 24 26  1  0  0  0  0
 26 25  1  0  0  0  0
 27 28  1  0  0  0  0
 28 29  1  0  0  0  0
M  END
>  <MODEL>
1

>  <REMARK>
 VINA RESULT:      -7.8      0.000      0.000
  Name = 
  8 active torsions:
  status: ('A' for Active; 'I' for Inactive)
    1  A    between atoms: N_3  and  C_24
    2  A    between atoms: O_4  and  C_15
    3  A    between atoms: C_5  and  C_17
    4  A    between atoms: C_8  and  C_9
    5  A    between atoms: C_11  and  C_29
    6  A    between atoms: C_12  and  C_24
    7  A    between atoms: C_17  and  C_29
    8  A    between atoms: C_24  and  C_29
                            x       y       z     vdW  Elec       q    Type
                         _______ _______ _______ _____ _____    ______ ____

>  <TORSDO>
F 8

$$$$
=
 OpenBabel11042410593D

 29 32  0  0  1  0  0  0  0  0999 V2000
  191.3570  176.3310  144.1700 C   0  0  0  0  0  3  0  0  0  0  0  0
  189.4550  177.3570  143.9070 C   0  0  2  0  0  3  0  0  0  0  0  0
  187.6140  177.7880  142.4310 C   0  0  0  0  0  0  0  0  0  0  0  0
  188.0060  177.5010  143.6870 C   0  0  0  0  0  0  0  0  0  0  0  0
  188.6300  177.8790  141.3260 C   0  0  0  0  0  0  0  0  0  0  0  0
  190.3980  178.0320  142.9860 C   0  0  2  0  0  3  0  0  0  0  0  0
  189.9060  177.9050  141.6120 N   0  0  0  0  0  0  0  0  0  0  0  0
  186.2610  177.9610  142.1560 O   0  0  0  0  0  1  0  0  0  0  0  0
  189.9940  176.3930  144.5710 N   0  0  0  0  0  2  0  0  0  0  0  0
  191.6280  177.2270  143.2270 C   0  0  0  0  0  3  0  0  0  0  0  0
  187.5900  177.1210  146.1070 N   0  0  1  0  0  0  0  0  0  0  0  0
  186.9820  177.2400  144.7700 C   0  0  1  0  0  3  0  0  0  0  0  0
  188.1820  178.4070  146.5330 C   0  0  1  0  0  3  0  0  0  0  0  0
  186.8280  178.0580  146.9610 C   0  0  1  0  0  3  0  0  0  0  0  0
  185.8100  178.7030  146.0790 C   0  0  0  0  0  3  0  0  0  0  0  0
  185.8810  178.2430  144.8440 C   0  0  0  0  0  3  0  0  0  0  0  0
  189.0800  178.1750  147.5740 O   0  0  0  0  0  0  0  0  0  0  0  0
  188.2740  177.8400  148.6630 C   0  0  0  0  0  1  0  0  0  0  0  0
  188.2530  177.7550  139.8720 C   0  0  1  0  0  3  0  0  0  0  0  0
  187.1040  178.6020  139.5500 N   0  0  0  0  0  2  0  0  0  0  0  0
  186.0730  178.2830  138.6070 C   0  0  0  0  0  0  0  0  0  0  0  0
  186.0510  177.1690  138.0250 O   0  0  0  0  0  0  0  0  0  0  0  0
  185.0530  179.2360  138.3380 N   0  0  0  0  0  1  0  0  0  0  0  0
  189.4110  177.9000  138.8710 C   0  0  2  0  0  3  0  0  0  0  0  0
  189.0450  178.4830  136.5790 O   0  0  0  0  0  1  0  0  0  0  0  0
  189.1470  179.0160  137.8650 C   0  0  0  0  0  2  0  0  0  0  0  0
  189.7440  176.5810  138.1600 C   0  0  0  0  0  2  0  0  0  0  0  0
  191.1320  176.0440  138.4930 C   0  0  0  0  0  2  0  0  0  0  0  0
  191.2330  174.7030  138.1240 O   0  0  0  0  0  1  0  0  0  0  0  0
  1  9  1  0  0  0  0
  2  4  1  6  0  0  0
  2  9  1  0  0  0  0
  3  4  2  0  0  0  0
  4 12  1  0  0  0  0
  5  7  2  0  0  0  0
  5  3  1  0  0  0  0
  6 10  1  6  0  0  0
  6  2  1  0  0  0  0
  7  6  1  0  0  0  0
  8  3  1  0  0  0  0
 10  1  2  0  0  0  0
 11 13  1  0  0  0  0
 11 14  1  0  0  0  0
 12 16  1  0  0  0  0
 12 11  1  0  0  0  0
 13 14  1  0  0  0  0
 13 17  1  0  0  0  0
 15 14  1  0  0  0  0
 16 15  2  0  0  0  0
 17 18  1  0  0  0  0
 19  5  1  0  0  0  0
 20 19  1  0  0  0  0
 21 20  1  0  0  0  0
 22 21  2  0  0  0  0
 23 21  1  0  0  0  0
 24 19  1  0  0  0  0
 25 26  1  0  0  0  0
 26 24  1  0  0  0  0
 27 28  1  0  0  0  0
 27 24  1  0  0  0  0
 29 28  1  0  0  0  0
M  END
>  <MODEL>
2

>  <REMARK>
 VINA RESULT:      -7.5      1.890      6.763
  Name = 
  8 active torsions:
  status: ('A' for Active; 'I' for Inactive)
    1  A    between atoms: N_3  and  C_24
    2  A    between atoms: O_4  and  C_15
    3  A    between atoms: C_5  and  C_17
    4  A    between atoms: C_8  and  C_9
    5  A    between atoms: C_11  and  C_29
    6  A    between atoms: C_12  and  C_24
    7  A    between atoms: C_17  and  C_29
    8  A    between atoms: C_24  and  C_29
                            x       y       z     vdW  Elec       q    Type
                         _______ _______ _______ _____ _____    ______ ____

>  <TORSDO>
F 8

$$$$
=
 OpenBabel11042410593D

 29 32  0  0  1  0  0  0  0  0999 V2000
  189.3590  177.1940  140.6840 C   0  0  0  0  0  3  0  0  0  0  0  0
  187.9690  177.7940  142.2490 C   0  0  2  0  0  3  0  0  0  0  0  0
  185.6690  177.9690  142.9060 C   0  0  0  0  0  0  0  0  0  0  0  0
  186.9220  177.6350  143.2720 C   0  0  0  0  0  0  0  0  0  0  0  0
  185.3860  178.4080  141.4960 C   0  0  0  0  0  0  0  0  0  0  0  0
  187.7640  178.7630  141.1470 C   0  0  2  0  0  3  0  0  0  0  0  0
  186.3760  178.6860  140.6880 N   0  0  0  0  0  0  0  0  0  0  0  0
  184.6330  177.8660  143.8310 O   0  0  0  0  0  1  0  0  0  0  0  0
  188.8640  176.9050  141.9860 N   0  0  0  0  0  2  0  0  0  0  0  0
  188.7260  178.2300  140.1420 C   0  0  0  0  0  3  0  0  0  0  0  0
  188.6280  176.9140  144.9270 N   0  0  1  0  0  0  0  0  0  0  0  0
  187.1890  177.0310  144.6330 C   0  0  1  0  0  3  0  0  0  0  0  0
  189.2530  178.2480  145.0430 C   0  0  1  0  0  3  0  0  0  0  0  0
  188.8050  177.5530  146.2490 C   0  0  1  0  0  3  0  0  0  0  0  0
  187.4560  178.0360  146.6690 C   0  0  0  0  0  3  0  0  0  0  0  0
  186.5350  177.7390  145.7710 C   0  0  0  0  0  3  0  0  0  0  0  0
  190.6350  178.1200  144.9110 O   0  0  0  0  0  0  0  0  0  0  0  0
  190.9950  179.1170  144.0040 C   0  0  0  0  0  1  0  0  0  0  0  0
  184.0020  178.3690  140.9030 C   0  0  1  0  0  3  0  0  0  0  0  0
  183.0740  179.2040  141.6670 N   0  0  0  0  0  2  0  0  0  0  0  0
  181.6780  178.9450  141.8510 C   0  0  0  0  0  0  0  0  0  0  0  0
  181.1520  177.8910  141.4070 O   0  0  0  0  0  0  0  0  0  0  0  0
  180.8780  179.8840  142.5570 N   0  0  0  0  0  1  0  0  0  0  0  0
  183.9230  178.6110  139.3860 C   0  0  2  0  0  3  0  0  0  0  0  0
  184.0570  180.9190  138.7670 O   0  0  0  0  0  1  0  0  0  0  0  0
  183.1600  179.8910  139.0590 C   0  0  0  0  0  2  0  0  0  0  0  0
  183.3380  177.4100  138.6280 C   0  0  0  0  0  2  0  0  0  0  0  0
  184.2410  176.8990  137.5100 C   0  0  0  0  0  2  0  0  0  0  0  0
  185.4520  177.5910  137.5120 O   0  0  0  0  0  1  0  0  0  0  0  0
  1  9  1  0  0  0  0
  2  9  1  6  0  0  0
  2  4  1  0  0  0  0
  3  4  2  0  0  0  0
  3  8  1  0  0  0  0
  4 12  1  0  0  0  0
  5  3  1  0  0  0  0
  6 10  1  6  0  0  0
  6  2  1  0  0  0  0
  7  6  1  0  0  0  0
  7  5  2  0  0  0  0
 10  1  2  0  0  0  0
 11 13  1  0  0  0  0
 11 14  1  0  0  0  0
 12 11  1  0  0  0  0
 12 16  1  0  0  0  0
 13 14  1  0  0  0  0
 14 15  1  0  0  0  0
 16 15  2  0  0  0  0
 17 13  1  0  0  0  0
 18 17  1  0  0  0  0
 19  5  1  0  0  0  0
 19 20  1  0  0  0  0
 20 21  1  0  0  0  0
 21 23  1  0  0  0  0
 22 21  2  0  0  0  0
 24 19  1  0  0  0  0
 25 26  1  0  0  0  0
 26 24  1  0  0  0  0
 27 24  1  0  0  0  0
 28 29  1  0  0  0  0
 28 27  1  0  0  0  0
M  END
>  <MODEL>
3

>  <REMARK>
 VINA RESULT:      -7.4      2.799      6.143
  Name = 
  8 active torsions:
  status: ('A' for Active; 'I' for Inactive)
    1  A    between atoms: N_3  and  C_24
    2  A    between atoms: O_4  and  C_15
    3  A    between atoms: C_5  and  C_17
    4  A    between atoms: C_8  and  C_9
    5  A    between atoms: C_11  and  C_29
    6  A    between atoms: C_12  and  C_24
    7  A    between atoms: C_17  and  C_29
    8  A    between atoms: C_24  and  C_29
                            x       y       z     vdW  Elec       q    Type
                         _______ _______ _______ _____ _____    ______ ____

>  <TORSDO>
F 8

$$$$
=
 OpenBabel11042410593D

 29 32  0  0  1  0  0  0  0  0999 V2000
  186.3750  178.2900  144.6520 C   0  0  0  0  0  3  0  0  0  0  0  0
  188.3450  177.4240  144.3180 C   0  0  2  0  0  3  0  0  0  0  0  0
  190.2260  177.2710  142.8380 C   0  0  0  0  0  0  0  0  0  0  0  0
  189.8020  177.3990  144.1100 C   0  0  0  0  0  0  0  0  0  0  0  0
  189.2300  177.2300  141.7120 C   0  0  0  0  0  0  0  0  0  0  0  0
  187.4590  176.7880  143.3150 C   0  0  2  0  0  3  0  0  0  0  0  0
  187.9560  177.0900  141.9720 N   0  0  0  0  0  0  0  0  0  0  0  0
  191.5910  177.2180  142.5700 O   0  0  0  0  0  1  0  0  0  0  0  0
  187.7350  178.2760  145.0690 N   0  0  0  0  0  2  0  0  0  0  0  0
  186.1750  177.4810  143.6170 C   0  0  0  0  0  3  0  0  0  0  0  0
  190.1400  177.8100  146.5370 N   0  0  1  0  0  0  0  0  0  0  0  0
  190.7950  177.6130  145.2320 C   0  0  1  0  0  3  0  0  0  0  0  0
  189.4360  176.5830  146.9640 C   0  0  1  0  0  3  0  0  0  0  0  0
  190.7920  176.8430  147.4450 C   0  0  1  0  0  3  0  0  0  0  0  0
  191.7970  176.1030  146.6250 C   0  0  0  0  0  3  0  0  0  0  0  0
  191.8150  176.5350  145.3780 C   0  0  0  0  0  3  0  0  0  0  0  0
  188.5130  176.9060  147.9580 O   0  0  0  0  0  0  0  0  0  0  0  0
  188.9460  178.1380  148.4500 C   0  0  0  0  0  1  0  0  0  0  0  0
  189.6140  177.5300  140.2860 C   0  0  1  0  0  3  0  0  0  0  0  0
  189.9000  176.3000  139.5450 N   0  0  0  0  0  2  0  0  0  0  0  0
  191.1070  176.0230  138.8270 C   0  0  0  0  0  0  0  0  0  0  0  0
  192.0750  176.8270  138.8520 O   0  0  0  0  0  0  0  0  0  0  0  0
  191.2190  174.8130  138.0870 N   0  0  0  0  0  1  0  0  0  0  0  0
  188.6730  178.4850  139.5320 C   0  0  2  0  0  3  0  0  0  0  0  0
  186.2850  178.6340  139.4870 O   0  0  0  0  0  1  0  0  0  0  0  0
  187.3580  177.8040  139.1640 C   0  0  0  0  0  2  0  0  0  0  0  0
  189.3360  179.1110  138.2970 C   0  0  0  0  0  2  0  0  0  0  0  0
  188.6730  178.7090  136.9830 C   0  0  0  0  0  2  0  0  0  0  0  0
  189.4540  177.7650  136.3170 O   0  0  0  0  0  1  0  0  0  0  0  0
  1  9  1  0  0  0  0
  2  4  1  6  0  0  0
  2  9  1  0  0  0  0
  3  4  2  0  0  0  0
  4 12  1  0  0  0  0
  5  7  2  0  0  0  0
  5  3  1  0  0  0  0
  6 10  1  6  0  0  0
  6  2  1  0  0  0  0
  7  6  1  0  0  0  0
  8  3  1  0  0  0  0
 10  1  2  0  0  0  0
 11 13  1  0  0  0  0
 11 14  1  0  0  0  0
 12 16  1  0  0  0  0
 12 11  1  0  0  0  0
 13 14  1  0  0  0  0
 13 17  1  0  0  0  0
 15 14  1  0  0  0  0
 16 15  2  0  0  0  0
 17 18  1  0  0  0  0
 19  5  1  0  0  0  0
 20 19  1  0  0  0  0
 21 22  2  0  0  0  0
 21 20  1  0  0  0  0
 23 21  1  0  0  0  0
 24 19  1  0  0  0  0
 26 25  1  0  0  0  0
 26 24  1  0  0  0  0
 27 24  1  0  0  0  0
 28 27  1  0  0  0  0
 29 28  1  0  0  0  0
M  END
>  <MODEL>
4

>  <REMARK>
 VINA RESULT:      -7.3      2.190      7.451
  Name = 
  8 active torsions:
  status: ('A' for Active; 'I' for Inactive)
    1  A    between atoms: N_3  and  C_24
    2  A    between atoms: O_4  and  C_15
    3  A    between atoms: C_5  and  C_17
    4  A    between atoms: C_8  and  C_9
    5  A    between atoms: C_11  and  C_29
    6  A    between atoms: C_12  and  C_24
    7  A    between atoms: C_17  and  C_29
    8  A    between atoms: C_24  and  C_29
                            x       y       z     vdW  Elec       q    Type
                         _______ _______ _______ _____ _____    ______ ____

>  <TORSDO>
F 8

$$$$
=
 OpenBabel11042410593D

 29 32  0  0  1  0  0  0  0  0999 V2000
  189.4620  176.3690  142.2080 C   0  0  0  0  0  3  0  0  0  0  0  0
  187.7860  177.6750  142.6850 C   0  0  2  0  0  3  0  0  0  0  0  0
  185.6860  178.5680  141.9470 C   0  0  0  0  0  0  0  0  0  0  0  0
  186.3910  178.0490  142.9710 C   0  0  0  0  0  0  0  0  0  0  0  0
  186.3080  178.6790  140.5820 C   0  0  0  0  0  0  0  0  0  0  0  0
  188.5010  178.3420  141.5720 C   0  0  2  0  0  3  0  0  0  0  0  0
  187.5930  178.4860  140.4330 N   0  0  0  0  0  0  0  0  0  0  0  0
  184.3680  178.9650  142.1510 O   0  0  0  0  0  1  0  0  0  0  0  0
  188.3240  176.5590  143.0400 N   0  0  0  0  0  2  0  0  0  0  0  0
  189.5810  177.3480  141.3170 C   0  0  0  0  0  3  0  0  0  0  0  0
  186.6380  177.1540  145.2750 N   0  0  1  0  0  0  0  0  0  0  0  0
  185.7240  177.7750  144.3010 C   0  0  1  0  0  3  0  0  0  0  0  0
  187.7230  178.0850  145.6480 C   0  0  1  0  0  3  0  0  0  0  0  0
  186.5320  177.9890  146.4900 C   0  0  1  0  0  3  0  0  0  0  0  0
  185.5660  179.0820  146.1700 C   0  0  0  0  0  3  0  0  0  0  0  0
  185.0970  178.9670  144.9420 C   0  0  0  0  0  3  0  0  0  0  0  0
  188.7680  177.3640  146.2250 O   0  0  0  0  0  0  0  0  0  0  0  0
  188.6600  177.6240  147.5920 C   0  0  0  0  0  1  0  0  0  0  0  0
  185.4830  178.8220  139.3300 C   0  0  1  0  0  3  0  0  0  0  0  0
  185.9420  177.9060  138.2850 N   0  0  0  0  0  2  0  0  0  0  0  0
  186.7800  178.2590  137.1770 C   0  0  0  0  0  0  0  0  0  0  0  0
  187.2580  179.4170  137.0710 O   0  0  0  0  0  0  0  0  0  0  0  0
  187.0880  177.2790  136.1940 N   0  0  0  0  0  1  0  0  0  0  0  0
  183.9590  178.7930  139.5320 C   0  0  2  0  0  3  0  0  0  0  0  0
  182.9460  176.6850  140.0440 O   0  0  0  0  0  1  0  0  0  0  0  0
  183.3440  177.5060  138.9890 C   0  0  0  0  0  2  0  0  0  0  0  0
  183.2620  180.0280  138.9450 C   0  0  0  0  0  2  0  0  0  0  0  0
  181.7470  180.0130  139.1220 C   0  0  0  0  0  2  0  0  0  0  0  0
  181.2000  181.2280  138.7100 O   0  0  0  0  0  1  0  0  0  0  0  0
  1  9  1  0  0  0  0
  2  4  1  6  0  0  0
  2  9  1  0  0  0  0
  3  8  1  0  0  0  0
  3  4  2  0  0  0  0
  4 12  1  0  0  0  0
  5  3  1  0  0  0  0
  6 10  1  6  0  0  0
  6  2  1  0  0  0  0
  7  5  2  0  0  0  0
  7  6  1  0  0  0  0
 10  1  2  0  0  0  0
 11 13  1  0  0  0  0
 11 14  1  0  0  0  0
 12 16  1  0  0  0  0
 12 11  1  0  0  0  0
 13 17  1  0  0  0  0
 13 14  1  0  0  0  0
 15 14  1  0  0  0  0
 16 15  2  0  0  0  0
 17 18  1  0  0  0  0
 19 24  1  0  0  0  0
 19  5  1  0  0  0  0
 20 19  1  0  0  0  0
 21 20  1  0  0  0  0
 22 21  2  0  0  0  0
 23 21  1  0  0  0  0
 26 24  1  0  0  0  0
 26 25  1  0  0  0  0
 27 28  1  0  0  0  0
 27 24  1  0  0  0  0
 29 28  1  0  0  0  0
M  END
>  <MODEL>
5

>  <REMARK>
 VINA RESULT:      -7.0      2.964      6.847
  Name = 
  8 active torsions:
  status: ('A' for Active; 'I' for Inactive)
    1  A    between atoms: N_3  and  C_24
    2  A    between atoms: O_4  and  C_15
    3  A    between atoms: C_5  and  C_17
    4  A    between atoms: C_8  and  C_9
    5  A    between atoms: C_11  and  C_29
    6  A    between atoms: C_12  and  C_24
    7  A    between atoms: C_17  and  C_29
    8  A    between atoms: C_24  and  C_29
                            x       y       z     vdW  Elec       q    Type
                         _______ _______ _______ _____ _____    ______ ____

>  <TORSDO>
F 8

$$$$
=
 OpenBabel11042410593D

 29 32  0  0  1  0  0  0  0  0999 V2000
  189.9550  176.2160  142.5970 C   0  0  0  0  0  3  0  0  0  0  0  0
  188.1920  177.4480  142.9380 C   0  0  2  0  0  3  0  0  0  0  0  0
  186.0740  178.1720  142.0770 C   0  0  0  0  0  0  0  0  0  0  0  0
  186.7690  177.7550  143.1530 C   0  0  0  0  0  0  0  0  0  0  0  0
  186.7400  178.2380  140.7290 C   0  0  0  0  0  0  0  0  0  0  0  0
  188.9100  178.0890  141.8120 C   0  0  2  0  0  3  0  0  0  0  0  0
  188.0380  178.1130  140.6350 N   0  0  0  0  0  0  0  0  0  0  0  0
  184.7290  178.5020  142.2120 O   0  0  0  0  0  1  0  0  0  0  0  0
  188.7790  176.3880  143.3780 N   0  0  0  0  0  2  0  0  0  0  0  0
  190.0530  177.1460  141.6540 C   0  0  0  0  0  3  0  0  0  0  0  0
  187.0030  177.1440  145.5500 N   0  0  1  0  0  0  0  0  0  0  0  0
  186.0690  177.5220  144.4740 C   0  0  1  0  0  3  0  0  0  0  0  0
  187.9200  178.2590  145.8680 C   0  0  1  0  0  3  0  0  0  0  0  0
  186.7060  178.0730  146.6610 C   0  0  1  0  0  3  0  0  0  0  0  0
  185.6140  178.9720  146.1820 C   0  0  0  0  0  3  0  0  0  0  0  0
  185.2410  178.6650  144.9540 C   0  0  0  0  0  3  0  0  0  0  0  0
  189.0200  177.7630  146.5660 O   0  0  0  0  0  0  0  0  0  0  0  0
  188.4670  177.0460  147.6270 C   0  0  0  0  0  1  0  0  0  0  0  0
  185.9540  178.2600  139.4440 C   0  0  1  0  0  3  0  0  0  0  0  0
  185.1800  179.4960  139.3170 N   0  0  0  0  0  2  0  0  0  0  0  0
  183.7850  179.5760  139.0030 C   0  0  0  0  0  0  0  0  0  0  0  0
  183.0880  178.5360  138.8850 O   0  0  0  0  0  0  0  0  0  0  0  0
  183.1780  180.8510  138.8370 N   0  0  0  0  0  1  0  0  0  0  0  0
  186.7500  177.9120  138.1740 C   0  0  2  0  0  3  0  0  0  0  0  0
  188.4830  179.2130  137.1590 O   0  0  0  0  0  1  0  0  0  0  0  0
  187.1050  179.1610  137.3740 C   0  0  0  0  0  2  0  0  0  0  0  0
  186.0330  176.8770  137.2950 C   0  0  0  0  0  2  0  0  0  0  0  0
  186.7540  175.5350  137.2270 C   0  0  0  0  0  2  0  0  0  0  0  0
  188.0890  175.6830  137.6020 O   0  0  0  0  0  1  0  0  0  0  0  0
  1  9  1  0  0  0  0
  2  4  1  6  0  0  0
  2  9  1  0  0  0  0
  3  8  1  0  0  0  0
  3  4  2  0  0  0  0
  4 12  1  0  0  0  0
  5  3  1  0  0  0  0
  6 10  1  6  0  0  0
  6  2  1  0  0  0  0
  7  5  2  0  0  0  0
  7  6  1  0  0  0  0
 10  1  2  0  0  0  0
 11 13  1  0  0  0  0
 11 14  1  0  0  0  0
 12 16  1  0  0  0  0
 12 11  1  0  0  0  0
 13 17  1  0  0  0  0
 13 14  1  0  0  0  0
 15 14  1  0  0  0  0
 16 15  2  0  0  0  0
 17 18  1  0  0  0  0
 19  5  1  0  0  0  0
 20 19  1  0  0  0  0
 21 20  1  0  0  0  0
 22 21  2  0  0  0  0
 23 21  1  0  0  0  0
 24 19  1  0  0  0  0
 25 26  1  0  0  0  0
 26 24  1  0  0  0  0
 27 24  1  0  0  0  0
 28 27  1  0  0  0  0
 28 29  1  0  0  0  0
M  END
>  <MODEL>
6

>  <REMARK>
 VINA RESULT:      -7.0      2.393      6.665
  Name = 
  8 active torsions:
  status: ('A' for Active; 'I' for Inactive)
    1  A    between atoms: N_3  and  C_24
    2  A    between atoms: O_4  and  C_15
    3  A    between atoms: C_5  and  C_17
    4  A    between atoms: C_8  and  C_9
    5  A    between atoms: C_11  and  C_29
    6  A    between atoms: C_12  and  C_24
    7  A    between atoms: C_17  and  C_29
    8  A    between atoms: C_24  and  C_29
                            x       y       z     vdW  Elec       q    Type
                         _______ _______ _______ _____ _____    ______ ____

>  <TORSDO>
F 8

$$$$
=
 OpenBabel11042410593D

 29 32  0  0  1  0  0  0  0  0999 V2000
  188.2360  178.4270  140.3660 C   0  0  0  0  0  3  0  0  0  0  0  0
  186.9610  178.1580  142.1100 C   0  0  2  0  0  3  0  0  0  0  0  0
  186.8230  178.2260  144.5040 C   0  0  0  0  0  0  0  0  0  0  0  0
  186.2320  178.5340  143.3330 C   0  0  0  0  0  0  0  0  0  0  0  0
  188.1890  177.5960  144.5170 C   0  0  0  0  0  0  0  0  0  0  0  0
  187.9400  177.0480  142.1630 C   0  0  2  0  0  3  0  0  0  0  0  0
  188.7080  177.1400  143.4070 N   0  0  0  0  0  0  0  0  0  0  0  0
  186.1790  178.5310  145.6990 O   0  0  0  0  0  1  0  0  0  0  0  0
  187.1310  178.9400  141.1000 N   0  0  0  0  0  2  0  0  0  0  0  0
  188.7640  177.3630  140.9620 C   0  0  0  0  0  3  0  0  0  0  0  0
  184.2510  179.2370  142.0090 N   0  0  1  0  0  0  0  0  0  0  0  0
  184.9390  179.3190  143.3090 C   0  0  1  0  0  3  0  0  0  0  0  0
  183.7900  177.8570  141.7430 C   0  0  1  0  0  3  0  0  0  0  0  0
  182.8670  178.8270  142.3310 C   0  0  1  0  0  3  0  0  0  0  0  0
  182.8060  178.6700  143.8140 C   0  0  0  0  0  3  0  0  0  0  0  0
  183.9650  178.9540  144.3780 C   0  0  0  0  0  3  0  0  0  0  0  0
  183.5230  177.7180  140.3810 O   0  0  0  0  0  0  0  0  0  0  0  0
  183.7560  178.9860  139.8470 C   0  0  0  0  0  1  0  0  0  0  0  0
  189.0800  177.6300  145.7310 C   0  0  1  0  0  3  0  0  0  0  0  0
  188.4070  177.0550  146.8970 N   0  0  0  0  0  2  0  0  0  0  0  0
  188.2300  177.7050  148.1610 C   0  0  0  0  0  0  0  0  0  0  0  0
  188.5920  178.8980  148.3320 O   0  0  0  0  0  0  0  0  0  0  0  0
  187.6210  176.9960  149.2330 N   0  0  0  0  0  1  0  0  0  0  0  0
  190.5040  177.0870  145.5250 C   0  0  2  0  0  3  0  0  0  0  0  0
  192.2140  175.7780  146.5690 O   0  0  0  0  0  1  0  0  0  0  0  0
  191.1100  176.5880  146.8330 C   0  0  0  0  0  2  0  0  0  0  0  0
  191.4280  178.1030  144.8400 C   0  0  0  0  0  2  0  0  0  0  0  0
  191.7800  177.7310  143.4030 C   0  0  0  0  0  2  0  0  0  0  0  0
  191.8730  176.3450  143.2710 O   0  0  0  0  0  1  0  0  0  0  0  0
  1 10  2  0  0  0  0
  1  9  1  0  0  0  0
  2  9  1  1  0  0  0
  2  6  1  0  0  0  0
  2  4  1  0  0  0  0
  3  5  1  0  0  0  0
  3  8  1  0  0  0  0
  4  3  2  0  0  0  0
  5 19  1  0  0  0  0
  6 10  1  6  0  0  0
  6  7  1  0  0  0  0
  7  5  2  0  0  0  0
 11 14  1  0  0  0  0
 11 12  1  0  0  0  0
 12  4  1  0  0  0  0
 12 16  1  0  0  0  0
 13 11  1  0  0  0  0
 13 14  1  0  0  0  0
 14 15  1  0  0  0  0
 15 16  2  0  0  0  0
 17 13  1  0  0  0  0
 18 17  1  0  0  0  0
 19 20  1  0  0  0  0
 20 21  1  0  0  0  0
 21 22  2  0  0  0  0
 21 23  1  0  0  0  0
 24 19  1  0  0  0  0
 24 26  1  0  0  0  0
 25 26  1  0  0  0  0
 27 24  1  0  0  0  0
 28 27  1  0  0  0  0
 29 28  1  0  0  0  0
M  END
>  <MODEL>
7

>  <REMARK>
 VINA RESULT:      -6.9      2.433      5.611
  Name = 
  8 active torsions:
  status: ('A' for Active; 'I' for Inactive)
    1  A    between atoms: N_3  and  C_24
    2  A    between atoms: O_4  and  C_15
    3  A    between atoms: C_5  and  C_17
    4  A    between atoms: C_8  and  C_9
    5  A    between atoms: C_11  and  C_29
    6  A    between atoms: C_12  and  C_24
    7  A    between atoms: C_17  and  C_29
    8  A    between atoms: C_24  and  C_29
                            x       y       z     vdW  Elec       q    Type
                         _______ _______ _______ _____ _____    ______ ____

>  <TORSDO>
F 8

$$$$
=
 OpenBabel11042410593D

 29 32  0  0  1  0  0  0  0  0999 V2000
  188.3250  178.0280  135.6930 C   0  0  0  0  0  3  0  0  0  0  0  0
  189.6900  177.6010  137.3340 C   0  0  2  0  0  3  0  0  0  0  0  0
  189.8940  177.0260  139.6540 C   0  0  0  0  0  0  0  0  0  0  0  0
  190.3330  176.8130  138.3980 C   0  0  0  0  0  0  0  0  0  0  0  0
  188.7560  177.9770  139.9030 C   0  0  0  0  0  0  0  0  0  0  0  0
  189.0570  178.8960  137.6750 C   0  0  2  0  0  3  0  0  0  0  0  0
  188.3410  178.7650  138.9450 N   0  0  0  0  0  0  0  0  0  0  0  0
  190.4740  176.3320  140.7120 O   0  0  0  0  0  1  0  0  0  0  0  0
  189.2730  177.1080  136.2190 N   0  0  0  0  0  2  0  0  0  0  0  0
  188.1340  179.0540  136.5150 C   0  0  0  0  0  3  0  0  0  0  0  0
  190.7480  174.4050  137.9470 N   0  0  1  0  0  0  0  0  0  0  0  0
  191.3580  175.7360  138.1160 C   0  0  1  0  0  3  0  0  0  0  0  0
  189.9010  174.3640  136.7360 C   0  0  1  0  0  3  0  0  0  0  0  0
  191.2850  173.8960  136.6660 C   0  0  1  0  0  3  0  0  0  0  0  0
  192.1800  174.9630  136.1280 C   0  0  0  0  0  3  0  0  0  0  0  0
  192.2360  176.0010  136.9400 C   0  0  0  0  0  3  0  0  0  0  0  0
  189.0380  173.2720  136.8180 O   0  0  0  0  0  0  0  0  0  0  0  0
  187.7620  173.8360  136.8540 C   0  0  0  0  0  1  0  0  0  0  0  0
  187.9370  177.9390  141.1670 C   0  0  1  0  0  3  0  0  0  0  0  0
  188.7420  178.3100  142.3320 N   0  0  0  0  0  2  0  0  0  0  0  0
  188.9430  177.5030  143.4970 C   0  0  0  0  0  0  0  0  0  0  0  0
  188.4790  176.3350  143.5630 O   0  0  0  0  0  0  0  0  0  0  0  0
  189.6910  178.0230  144.5880 N   0  0  0  0  0  1  0  0  0  0  0  0
  186.5870  178.6730  141.1060 C   0  0  2  0  0  3  0  0  0  0  0  0
  185.2450  179.6180  142.8470 O   0  0  0  0  0  1  0  0  0  0  0  0
  185.7490  178.4150  142.3540 C   0  0  0  0  0  2  0  0  0  0  0  0
  185.7960  178.3450  139.8310 C   0  0  0  0  0  2  0  0  0  0  0  0
  184.4350  179.0310  139.7690 C   0  0  0  0  0  2  0  0  0  0  0  0
  184.5330  180.2390  139.0780 O   0  0  0  0  0  1  0  0  0  0  0  0
  1  9  1  0  0  0  0
  1 10  2  0  0  0  0
  2  9  1  1  0  0  0
  2  6  1  0  0  0  0
  2  4  1  0  0  0  0
  3  5  1  0  0  0  0
  3  8  1  0  0  0  0
  4  3  2  0  0  0  0
  5 19  1  0  0  0  0
  6 10  1  6  0  0  0
  6  7  1  0  0  0  0
  7  5  2  0  0  0  0
 11 12  1  0  0  0  0
 12  4  1  0  0  0  0
 13 17  1  0  0  0  0
 13 11  1  0  0  0  0
 14 13  1  0  0  0  0
 14 11  1  0  0  0  0
 15 14  1  0  0  0  0
 15 16  2  0  0  0  0
 16 12  1  0  0  0  0
 17 18  1  0  0  0  0
 19 20  1  0  0  0  0
 20 21  1  0  0  0  0
 21 22  2  0  0  0  0
 21 23  1  0  0  0  0
 24 19  1  0  0  0  0
 24 26  1  0  0  0  0
 26 25  1  0  0  0  0
 27 24  1  0  0  0  0
 28 27  1  0  0  0  0
 29 28  1  0  0  0  0
M  END
>  <MODEL>
8

>  <REMARK>
 VINA RESULT:      -6.6      2.755      5.562
  Name = 
  8 active torsions:
  status: ('A' for Active; 'I' for Inactive)
    1  A    between atoms: N_3  and  C_24
    2  A    between atoms: O_4  and  C_15
    3  A    between atoms: C_5  and  C_17
    4  A    between atoms: C_8  and  C_9
    5  A    between atoms: C_11  and  C_29
    6  A    between atoms: C_12  and  C_24
    7  A    between atoms: C_17  and  C_29
    8  A    between atoms: C_24  and  C_29
                            x       y       z     vdW  Elec       q    Type
                         _______ _______ _______ _____ _____    ______ ____

>  <TORSDO>
F 8

$$$$
=
 OpenBabel11042410593D

 29 32  0  0  1  0  0  0  0  0999 V2000
  187.1620  177.2380  136.3390 C   0  0  0  0  0  3  0  0  0  0  0  0
  189.0460  177.4420  137.4120 C   0  0  2  0  0  3  0  0  0  0  0  0
  190.1300  177.4130  139.5510 C   0  0  0  0  0  0  0  0  0  0  0  0
  190.1800  177.0360  138.2580 C   0  0  0  0  0  0  0  0  0  0  0  0
  188.9280  178.1470  140.0770 C   0  0  0  0  0  0  0  0  0  0  0  0
  188.2430  178.6260  137.7960 C   0  0  2  0  0  3  0  0  0  0  0  0
  188.0370  178.6200  139.2450 N   0  0  0  0  0  0  0  0  0  0  0  0
  191.1800  177.0830  140.4030 O   0  0  0  0  0  1  0  0  0  0  0  0
  188.4340  176.6550  136.5940 N   0  0  0  0  0  2  0  0  0  0  0  0
  186.9880  178.3520  137.0410 C   0  0  0  0  0  3  0  0  0  0  0  0
  191.0170  174.7180  137.9480 N   0  0  1  0  0  0  0  0  0  0  0  0
  191.3010  176.1510  137.7590 C   0  0  1  0  0  3  0  0  0  0  0  0
  189.8770  174.2910  137.1090 C   0  0  1  0  0  3  0  0  0  0  0  0
  191.2430  174.1020  136.6220 C   0  0  1  0  0  3  0  0  0  0  0  0
  191.6370  175.2110  135.7020 C   0  0  0  0  0  3  0  0  0  0  0  0
  191.6820  176.3690  136.3340 C   0  0  0  0  0  3  0  0  0  0  0  0
  189.3790  173.0830  137.5940 O   0  0  0  0  0  0  0  0  0  0  0  0
  188.3620  172.7400  136.7010 C   0  0  0  0  0  1  0  0  0  0  0  0
  188.6010  178.2090  141.5460 C   0  0  1  0  0  3  0  0  0  0  0  0
  187.2530  177.7030  141.8100 N   0  0  0  0  0  2  0  0  0  0  0  0
  186.0830  178.5080  141.9940 C   0  0  0  0  0  0  0  0  0  0  0  0
  186.1290  179.7580  141.8580 O   0  0  0  0  0  0  0  0  0  0  0  0
  184.8480  177.8830  142.3190 N   0  0  0  0  0  1  0  0  0  0  0  0
  189.6640  177.6180  142.4880 C   0  0  2  0  0  3  0  0  0  0  0  0
  190.1680  175.3060  142.8460 O   0  0  0  0  0  1  0  0  0  0  0  0
  189.2090  176.2900  143.0860 C   0  0  0  0  0  2  0  0  0  0  0  0
  190.0890  178.6010  143.5870 C   0  0  0  0  0  2  0  0  0  0  0  0
  191.5600  178.4800  143.9740 C   0  0  0  0  0  2  0  0  0  0  0  0
  191.6980  177.6740  145.1040 O   0  0  0  0  0  1  0  0  0  0  0  0
  1  9  1  0  0  0  0
  1 10  2  0  0  0  0
  2  9  1  1  0  0  0
  2  6  1  0  0  0  0
  2  4  1  0  0  0  0
  3  5  1  0  0  0  0
  3  8  1  0  0  0  0
  4  3  2  0  0  0  0
  5 19  1  0  0  0  0
  6 10  1  6  0  0  0
  6  7  1  0  0  0  0
  7  5  2  0  0  0  0
 12 11  1  0  0  0  0
 12  4  1  0  0  0  0
 13 17  1  0  0  0  0
 13 11  1  0  0  0  0
 14 13  1  0  0  0  0
 14 11  1  0  0  0  0
 15 16  2  0  0  0  0
 15 14  1  0  0  0  0
 16 12  1  0  0  0  0
 18 17  1  0  0  0  0
 19 20  1  0  0  0  0
 19 24  1  0  0  0  0
 20 21  1  0  0  0  0
 21 23  1  0  0  0  0
 22 21  2  0  0  0  0
 24 26  1  0  0  0  0
 24 27  1  0  0  0  0
 25 26  1  0  0  0  0
 27 28  1  0  0  0  0
 28 29  1  0  0  0  0
M  END
>  <MODEL>
9

>  <REMARK>
 VINA RESULT:      -6.6      2.656      4.754
  Name = 
  8 active torsions:
  status: ('A' for Active; 'I' for Inactive)
    1  A    between atoms: N_3  and  C_24
    2  A    between atoms: O_4  and  C_15
    3  A    between atoms: C_5  and  C_17
    4  A    between atoms: C_8  and  C_9
    5  A    between atoms: C_11  and  C_29
    6  A    between atoms: C_12  and  C_24
    7  A    between atoms: C_17  and  C_29
    8  A    between atoms: C_24  and  C_29
                            x       y       z     vdW  Elec       q    Type
                         _______ _______ _______ _____ _____    ______ ____

>  <TORSDO>
F 8

$$$$
