=
 OpenBabel11042411083D

 68 74  0  0  1  0  0  0  0  0999 V2000
  187.0390  177.8210  138.3390 C   0  0  0  0  0  0  0  0  0  0  0  0
  185.7170  177.9350  142.4490 C   0  0  0  0  0  2  0  0  0  0  0  0
  187.5140  177.3700  144.9690 C   0  0  0  0  0  0  0  0  0  0  0  0
  189.4860  176.1840  141.4150 O   0  0  0  0  0  0  0  0  0  0  0  0
  185.6960  179.1130  141.4910 C   0  0  0  0  0  2  0  0  0  0  0  0
  190.6290  176.7050  141.3130 C   0  0  0  0  0  0  0  0  0  0  0  0
  188.6110  178.1300  144.9710 C   0  0  0  0  0  3  0  0  0  0  0  0
  189.4850  178.3520  143.7790 C   0  0  0  0  0  2  0  0  0  0  0  0
  190.6120  177.3180  143.7660 C   0  0  1  0  0  3  0  0  0  0  0  0
  189.2140  176.9030  138.8060 N   0  0  0  0  0  2  0  0  0  0  0  0
  191.3380  176.7120  140.0180 C   0  0  0  0  0  0  0  0  0  0  0  0
  191.3880  176.7790  137.5900 C   0  0  0  0  0  0  0  0  0  0  0  0
  191.2550  177.2790  142.4610 N   0  0  0  0  0  2  0  0  0  0  0  0
  193.4250  176.7180  138.8760 C   0  0  0  0  0  3  0  0  0  0  0  0
  186.9970  176.7730  143.7690 N   0  0  0  0  0  2  0  0  0  0  0  0
  188.4360  177.6590  137.8360 C   0  0  0  0  0  2  0  0  0  0  0  0
  186.8640  178.4160  139.4770 N   0  0  0  0  0  0  0  0  0  0  0  0
  185.5500  178.6330  140.0610 C   0  0  0  0  0  2  0  0  0  0  0  0
  190.6420  176.7800  138.7900 C   0  0  0  0  0  0  0  0  0  0  0  0
  190.7440  176.7620  136.2450 C   0  0  0  0  0  1  0  0  0  0  0  0
  192.7810  176.7470  137.6410 C   0  0  0  0  0  3  0  0  0  0  0  0
  192.6990  176.7020  140.0210 N   0  0  0  0  0  0  0  0  0  0  0  0
  187.0090  177.4160  142.5750 O   0  0  0  0  0  0  0  0  0  0  0  0
  187.8150  177.0010  147.4920 C   0  0  0  0  0  2  0  0  0  0  0  0
  188.6470  178.2580  147.7840 C   0  0  2  0  0  3  0  0  0  0  0  0
  185.8260  179.3300  146.9120 C   0  0  0  0  0  2  0  0  0  0  0  0
  189.2280  178.1400  149.0470 O   0  0  0  0  0  1  0  0  0  0  0  0
  187.8720  179.5760  147.7030 C   0  0  0  0  0  2  0  0  0  0  0  0
  186.5430  179.4140  148.1090 O   0  0  0  0  0  0  0  0  0  0  0  0
  185.5740  177.8710  146.5490 C   0  0  0  0  0  2  0  0  0  0  0  0
  186.8650  177.0850  146.2900 C   0  0  1  0  0  3  0  0  0  0  0  0
  191.7170  176.8420  145.9970 N   0  0  0  0  0  1  0  0  0  0  0  0
  191.6300  177.6300  144.8150 C   0  0  0  0  0  0  0  0  0  0  0  0
  192.4240  178.5910  144.6450 O   0  0  0  0  0  0  0  0  0  0  0  0
  185.9330  177.3190  137.6270 O   0  0  0  0  0  0  0  0  0  0  0  0
  185.8740  176.0450  137.0890 N   0  0  0  0  0  0  0  0  0  0  0  0
  186.2760  174.3980  135.8230 C   0  0  0  0  0  0  0  0  0  0  0  0
  186.6310  175.6700  136.0680 N   0  0  0  0  0  2  0  0  0  0  0  0
  185.0660  175.0810  137.5130 N   0  0  0  0  0  0  0  0  0  0  0  0
  185.3140  174.0130  136.7340 C   0  0  0  0  0  0  0  0  0  0  0  0
  186.7450  173.7040  134.8850 O   0  0  0  0  0  0  0  0  0  0  0  0
  184.6820  172.0060  135.5990 O   0  0  0  0  0  1  0  0  0  0  0  0
  184.5190  172.7360  136.7790 C   0  0  2  0  0  3  0  0  0  0  0  0
  183.0990  172.9600  137.0510 N   0  0  0  0  0  2  0  0  0  0  0  0
  182.4930  173.5070  135.9060 N   0  0  0  0  0  2  0  0  0  0  0  0
  181.0730  173.6620  136.2050 C   0  0  2  0  0  3  0  0  0  0  0  0
  180.6240  175.1070  136.0160 C   0  0  2  0  0  3  0  0  0  0  0  0
  181.7660  175.9110  135.4320 C   0  0  0  0  0  2  0  0  0  0  0  0
  181.4430  176.0290  136.9090 C   0  0  1  0  0  3  0  0  0  0  0  0
  179.1220  181.9030  137.7080 C   0  0  0  0  0  1  0  0  0  0  0  0
  180.1970  176.2790  139.5670 C   0  0  0  0  0  2  0  0  0  0  0  0
  180.1370  177.4490  138.5970 C   0  0  0  0  0  0  0  0  0  0  0  0
  179.7830  177.7100  136.2180 O   0  0  0  0  0  0  0  0  0  0  0  0
  180.3000  181.4900  135.2560 S   0  0  0  0  0  0  0  0  0  0  0  0
  181.2990  180.6480  139.1840 C   0  0  0  0  0  2  0  0  0  0  0  0
  178.9370  176.5360  138.7610 C   0  0  0  0  0  2  0  0  0  0  0  0
  181.0920  179.2130  139.6450 C   0  0  2  0  0  3  0  0  0  0  0  0
  180.3460  178.7600  135.4880 C   0  0  0  0  0  2  0  0  0  0  0  0
  180.4930  181.7870  137.0510 C   0  0  2  0  0  3  0  0  0  0  0  0
  179.3770  179.9240  135.4290 C   0  0  0  0  0  2  0  0  0  0  0  0
  180.7490  177.3800  137.1830 C   0  0  2  0  0  3  0  0  0  0  0  0
  181.3620  180.6890  137.6650 C   0  0  0  0  0  2  0  0  0  0  0  0
  179.8730  178.7150  139.1500 O   0  0  0  0  0  0  0  0  0  0  0  0
  181.1030  179.1680  141.1410 C   0  0  0  0  0  0  0  0  0  0  0  0
  179.9470  179.4730  141.8460 O   0  0  0  0  0  1  0  0  0  0  0  0
  182.1420  178.8200  141.7620 O   0  0  0  0  0  0  0  0  0  0  0  0
  179.4480  173.2240  137.6100 O   0  0  0  0  0  1  0  0  0  0  0  0
  180.7640  173.1910  137.4970 O   0  0  0  0  0  0  0  0  0  0  0  0
  1 17  2  0  0  0  0
  2 23  1  0  0  0  0
  3  7  2  0  0  0  0
  5  2  1  0  0  0  0
  6  4  2  0  0  0  0
  6 13  1  0  0  0  0
  8  7  1  0  0  0  0
  9  8  1  0  0  0  0
  9 33  1  1  0  0  0
 11 22  1  0  0  0  0
 11  6  1  0  0  0  0
 12 21  2  0  0  0  0
 12 19  1  0  0  0  0
 13  9  1  0  0  0  0
 14 22  2  0  0  0  0
 15  3  1  0  0  0  0
 16  1  1  0  0  0  0
 16 10  1  0  0  0  0
 17 18  1  0  0  0  0
 18  5  1  0  0  0  0
 19 10  1  0  0  0  0
 19 11  2  0  0  0  0
 20 12  1  0  0  0  0
 21 14  1  0  0  0  0
 23 15  1  0  0  0  0
 24 25  1  0  0  0  0
 25 27  1  1  0  0  0
 26 29  1  0  0  0  0
 28 25  1  0  0  0  0
 28 29  1  0  0  0  0
 30 26  1  0  0  0  0
 31  3  1  6  0  0  0
 31 30  1  0  0  0  0
 31 24  1  0  0  0  0
 33 32  1  0  0  0  0
 34 33  2  0  0  0  0
 35  1  1  0  0  0  0
 36 39  1  0  0  0  0
 36 35  1  0  0  0  0
 37 38  1  0  0  0  0
 37 40  1  0  0  0  0
 38 36  1  0  0  0  0
 40 43  1  0  0  0  0
 40 39  2  0  0  0  0
 41 37  2  0  0  0  0
 43 42  1  6  0  0  0
 43 44  1  0  0  0  0
 45 44  1  0  0  0  0
 46 45  1  1  0  0  0
 46 68  1  0  0  0  0
 47 46  1  1  0  0  0
 47 49  1  0  0  0  0
 48 47  1  0  0  0  0
 49 48  1  6  0  0  0
 49 61  1  0  0  0  0
 52 56  1  0  0  0  0
 52 63  1  0  0  0  0
 52 51  1  0  0  0  0
 54 60  1  0  0  0  0
 54 59  1  0  0  0  0
 55 57  1  0  0  0  0
 56 51  1  0  0  0  0
 57 64  1  1  0  0  0
 58 53  1  0  0  0  0
 59 62  1  0  0  0  0
 59 50  1  1  0  0  0
 60 58  1  0  0  0  0
 61 53  1  6  0  0  0
 61 52  1  0  0  0  0
 62 55  1  0  0  0  0
 63 57  1  0  0  0  0
 64 66  2  0  0  0  0
 64 65  1  0  0  0  0
 68 67  1  0  0  0  0
M  END
>  <MODEL>
1

>  <REMARK>
 VINA RESULT:      -7.5      0.000      0.000
  Name = 
  12 active torsions:
  status: ('A' for Active; 'I' for Inactive)
    1  A    between atoms: N_2  and  C_56
    2  A    between atoms: N_2  and  N_68
    3  A    between atoms: C_3  and  C_30
    4  A    between atoms: N_5  and  O_53
    5  A    between atoms: C_6  and  O_53
    6  A    between atoms: C_9  and  C_66
    7  A    between atoms: C_11  and  C_60
    8  A    between atoms: C_25  and  C_34
    9  A    between atoms: C_48  and  C_56
   10  A    between atoms: C_51  and  C_61
   11  A    between atoms: O_63  and  C_66
   12  A    between atoms: C_66  and  N_68
                            x       y       z     vdW  Elec       q    Type
                         _______ _______ _______ _____ _____    ______ ____

>  <TORSDO>
F 12

$$$$
=
 OpenBabel11042411083D

 68 74  0  0  1  0  0  0  0  0999 V2000
  186.9660  175.5490  136.3480 C   0  0  0  0  0  0  0  0  0  0  0  0
  183.7070  178.1340  137.5110 C   0  0  0  0  0  2  0  0  0  0  0  0
  180.6740  177.3090  137.6520 C   0  0  0  0  0  0  0  0  0  0  0  0
  182.9400  174.3730  135.6110 O   0  0  0  0  0  0  0  0  0  0  0  0
  184.8800  177.7530  138.3970 C   0  0  0  0  0  2  0  0  0  0  0  0
  182.7810  173.2250  136.1050 C   0  0  0  0  0  0  0  0  0  0  0  0
  180.4950  176.2210  138.4040 C   0  0  0  0  0  3  0  0  0  0  0  0
  181.3400  174.9910  138.3210 C   0  0  0  0  0  2  0  0  0  0  0  0
  180.7130  174.0010  137.3380 C   0  0  1  0  0  3  0  0  0  0  0  0
  185.5810  173.7210  135.6190 N   0  0  0  0  0  2  0  0  0  0  0  0
  183.7200  172.1320  135.7840 C   0  0  0  0  0  0  0  0  0  0  0  0
  185.9240  171.2830  135.2160 C   0  0  0  0  0  0  0  0  0  0  0  0
  181.6720  172.9700  136.9690 N   0  0  0  0  0  2  0  0  0  0  0  0
  184.0570  169.7910  135.5260 C   0  0  0  0  0  3  0  0  0  0  0  0
  181.7870  177.4460  136.7540 N   0  0  0  0  0  2  0  0  0  0  0  0
  186.9120  174.0800  136.0820 C   0  0  0  0  0  2  0  0  0  0  0  0
  186.1410  176.0430  137.2170 N   0  0  0  0  0  0  0  0  0  0  0  0
  186.1070  177.4560  137.5570 C   0  0  0  0  0  2  0  0  0  0  0  0
  185.0850  172.3790  135.5180 C   0  0  0  0  0  0  0  0  0  0  0  0
  187.3570  171.4500  134.8380 C   0  0  0  0  0  1  0  0  0  0  0  0
  185.4020  169.9910  135.2210 C   0  0  0  0  0  3  0  0  0  0  0  0
  183.2580  170.8520  135.7980 N   0  0  0  0  0  0  0  0  0  0  0  0
  183.0280  176.9970  137.0640 O   0  0  0  0  0  0  0  0  0  0  0  0
  179.2470  178.8580  139.1200 C   0  0  0  0  0  2  0  0  0  0  0  0
  180.3880  179.4580  139.9550 C   0  0  2  0  0  3  0  0  0  0  0  0
  180.8940  180.4760  137.0260 C   0  0  0  0  0  2  0  0  0  0  0  0
  179.8510  180.1070  141.0660 O   0  0  0  0  0  1  0  0  0  0  0  0
  181.3010  180.4240  139.1950 C   0  0  0  0  0  2  0  0  0  0  0  0
  180.5950  181.1380  138.2210 O   0  0  0  0  0  0  0  0  0  0  0  0
  179.7840  179.4920  136.6760 C   0  0  0  0  0  2  0  0  0  0  0  0
  179.6220  178.3750  137.7130 C   0  0  1  0  0  3  0  0  0  0  0  0
  178.9680  173.8240  139.1680 N   0  0  0  0  0  1  0  0  0  0  0  0
  179.4970  173.3630  137.9300 C   0  0  0  0  0  0  0  0  0  0  0  0
  178.9320  172.4180  137.3220 O   0  0  0  0  0  0  0  0  0  0  0  0
  187.8570  176.3930  135.6590 O   0  0  0  0  0  0  0  0  0  0  0  0
  189.2330  176.3400  135.7950 N   0  0  0  0  0  0  0  0  0  0  0  0
  191.2830  176.2690  135.2780 C   0  0  0  0  0  0  0  0  0  0  0  0
  190.0510  176.3580  134.7520 N   0  0  0  0  0  2  0  0  0  0  0  0
  189.8760  176.2560  136.9540 N   0  0  0  0  0  0  0  0  0  0  0  0
  191.1880  176.2270  136.6540 C   0  0  0  0  0  0  0  0  0  0  0  0
  192.3380  176.2080  134.5940 O   0  0  0  0  0  0  0  0  0  0  0  0
  192.1870  174.7110  138.2090 O   0  0  0  0  0  1  0  0  0  0  0  0
  192.2770  175.9960  137.6660 C   0  0  2  0  0  3  0  0  0  0  0  0
  192.2890  177.0020  138.7280 N   0  0  0  0  0  2  0  0  0  0  0  0
  190.9640  177.2890  139.1020 N   0  0  0  0  0  2  0  0  0  0  0  0
  190.8670  177.0690  140.5420 C   0  0  2  0  0  3  0  0  0  0  0  0
  189.4130  177.0170  140.9960 C   0  0  2  0  0  3  0  0  0  0  0  0
  188.6780  178.2230  140.4510 C   0  0  0  0  0  2  0  0  0  0  0  0
  189.1070  178.2000  141.9050 C   0  0  1  0  0  3  0  0  0  0  0  0
  183.9230  177.9380  145.5920 C   0  0  0  0  0  1  0  0  0  0  0  0
  189.4900  176.2290  144.0620 C   0  0  0  0  0  2  0  0  0  0  0  0
  188.1520  176.9410  143.9240 C   0  0  0  0  0  0  0  0  0  0  0  0
  186.7250  177.6060  142.0870 O   0  0  0  0  0  0  0  0  0  0  0  0
  183.7210  179.7170  143.5020 S   0  0  0  0  0  0  0  0  0  0  0  0
  186.5890  178.8340  146.3530 C   0  0  0  0  0  2  0  0  0  0  0  0
  188.3190  175.5300  143.3940 C   0  0  0  0  0  2  0  0  0  0  0  0
  187.7680  177.9880  145.8930 C   0  0  2  0  0  3  0  0  0  0  0  0
  185.8900  178.7250  142.1540 C   0  0  0  0  0  2  0  0  0  0  0  0
  184.3920  179.3220  145.1580 C   0  0  2  0  0  3  0  0  0  0  0  0
  184.5170  178.3150  142.6450 C   0  0  0  0  0  2  0  0  0  0  0  0
  187.8760  177.9680  142.8060 C   0  0  2  0  0  3  0  0  0  0  0  0
  185.9140  179.4640  145.1460 C   0  0  0  0  0  2  0  0  0  0  0  0
  187.3210  176.9480  145.0590 O   0  0  0  0  0  0  0  0  0  0  0  0
  188.4710  177.4290  147.0890 C   0  0  0  0  0  0  0  0  0  0  0  0
  187.7380  177.0680  148.2120 O   0  0  0  0  0  1  0  0  0  0  0  0
  189.7190  177.2500  147.0710 O   0  0  0  0  0  0  0  0  0  0  0  0
  192.1980  177.4010  142.2520 O   0  0  0  0  0  1  0  0  0  0  0  0
  191.5970  178.0360  141.2620 O   0  0  0  0  0  0  0  0  0  0  0  0
  1 17  2  0  0  0  0
  2  5  1  0  0  0  0
  3  7  2  0  0  0  0
  4  6  2  0  0  0  0
  6 13  1  0  0  0  0
  8  7  1  0  0  0  0
  9 33  1  1  0  0  0
  9  8  1  0  0  0  0
 10 16  1  0  0  0  0
 11 22  1  0  0  0  0
 11  6  1  0  0  0  0
 12 21  2  0  0  0  0
 12 19  1  0  0  0  0
 13  9  1  0  0  0  0
 14 22  2  0  0  0  0
 15 23  1  0  0  0  0
 15  3  1  0  0  0  0
 16  1  1  0  0  0  0
 17 18  1  0  0  0  0
 18  5  1  0  0  0  0
 19 10  1  0  0  0  0
 19 11  2  0  0  0  0
 20 12  1  0  0  0  0
 21 14  1  0  0  0  0
 23  2  1  0  0  0  0
 24 25  1  0  0  0  0
 25 27  1  1  0  0  0
 26 29  1  0  0  0  0
 28 25  1  0  0  0  0
 29 28  1  0  0  0  0
 30 26  1  0  0  0  0
 30 31  1  0  0  0  0
 31  3  1  1  0  0  0
 31 24  1  0  0  0  0
 33 32  1  0  0  0  0
 34 33  2  0  0  0  0
 35 36  1  0  0  0  0
 35  1  1  0  0  0  0
 36 39  1  0  0  0  0
 37 40  1  0  0  0  0
 38 37  1  0  0  0  0
 38 36  1  0  0  0  0
 40 39  2  0  0  0  0
 40 43  1  0  0  0  0
 41 37  2  0  0  0  0
 43 42  1  1  0  0  0
 43 44  1  0  0  0  0
 44 45  1  0  0  0  0
 46 45  1  6  0  0  0
 46 68  1  0  0  0  0
 47 46  1  6  0  0  0
 47 49  1  0  0  0  0
 48 47  1  0  0  0  0
 49 48  1  6  0  0  0
 49 61  1  0  0  0  0
 52 51  1  0  0  0  0
 52 63  1  0  0  0  0
 53 58  1  0  0  0  0
 54 59  1  0  0  0  0
 56 52  1  0  0  0  0
 56 51  1  0  0  0  0
 57 55  1  0  0  0  0
 57 64  1  1  0  0  0
 58 60  1  0  0  0  0
 59 50  1  6  0  0  0
 60 54  1  0  0  0  0
 61 53  1  6  0  0  0
 61 52  1  0  0  0  0
 62 59  1  0  0  0  0
 62 55  1  0  0  0  0
 63 57  1  0  0  0  0
 64 65  1  0  0  0  0
 66 64  2  0  0  0  0
 68 67  1  0  0  0  0
M  END
>  <MODEL>
2

>  <REMARK>
 VINA RESULT:      -6.8      2.487      9.597
  Name = 
  12 active torsions:
  status: ('A' for Active; 'I' for Inactive)
    1  A    between atoms: N_2  and  C_56
    2  A    between atoms: N_2  and  N_68
    3  A    between atoms: C_3  and  C_30
    4  A    between atoms: N_5  and  O_53
    5  A    between atoms: C_6  and  O_53
    6  A    between atoms: C_9  and  C_66
    7  A    between atoms: C_11  and  C_60
    8  A    between atoms: C_25  and  C_34
    9  A    between atoms: C_48  and  C_56
   10  A    between atoms: C_51  and  C_61
   11  A    between atoms: O_63  and  C_66
   12  A    between atoms: C_66  and  N_68
                            x       y       z     vdW  Elec       q    Type
                         _______ _______ _______ _____ _____    ______ ____

>  <TORSDO>
F 12

$$$$
=
 OpenBabel11042411083D

 68 74  0  0  1  0  0  0  0  0999 V2000
  185.4080  177.9090  137.3560 C   0  0  0  0  0  0  0  0  0  0  0  0
  189.6610  177.1830  137.5390 C   0  0  0  0  0  2  0  0  0  0  0  0
  191.0690  174.4070  137.0820 C   0  0  0  0  0  0  0  0  0  0  0  0
  186.8880  173.9200  137.5370 O   0  0  0  0  0  0  0  0  0  0  0  0
  188.9760  178.1190  136.5600 C   0  0  0  0  0  2  0  0  0  0  0  0
  186.3800  173.2800  136.5780 C   0  0  0  0  0  0  0  0  0  0  0  0
  190.7070  173.8570  135.9220 C   0  0  0  0  0  3  0  0  0  0  0  0
  189.2990  173.7860  135.4250 C   0  0  0  0  0  2  0  0  0  0  0  0
  188.6640  172.4650  135.8610 C   0  0  1  0  0  3  0  0  0  0  0  0
  184.7710  175.5940  137.1950 N   0  0  0  0  0  2  0  0  0  0  0  0
  184.9200  173.2950  136.3540 C   0  0  0  0  0  0  0  0  0  0  0  0
  182.7380  174.3580  136.4440 C   0  0  0  0  0  0  0  0  0  0  0  0
  187.2170  172.5170  135.7080 N   0  0  0  0  0  2  0  0  0  0  0  0
  183.0090  172.1500  135.5180 C   0  0  0  0  0  3  0  0  0  0  0  0
  190.1350  175.0960  137.9290 N   0  0  0  0  0  2  0  0  0  0  0  0
  184.3400  176.9570  136.9270 C   0  0  0  0  0  2  0  0  0  0  0  0
  186.5810  177.7930  136.8170 N   0  0  0  0  0  0  0  0  0  0  0  0
  187.6940  178.6660  137.1550 C   0  0  0  0  0  2  0  0  0  0  0  0
  184.1300  174.4180  136.6840 C   0  0  0  0  0  0  0  0  0  0  0  0
  181.8090  175.4570  136.8350 C   0  0  0  0  0  1  0  0  0  0  0  0
  182.1850  173.2190  135.8600 C   0  0  0  0  0  3  0  0  0  0  0  0
  184.3410  172.2110  135.7680 N   0  0  0  0  0  0  0  0  0  0  0  0
  189.1520  175.8860  137.4310 O   0  0  0  0  0  0  0  0  0  0  0  0
  193.3130  173.2190  136.7040 C   0  0  0  0  0  2  0  0  0  0  0  0
  193.4640  173.5390  135.2090 C   0  0  2  0  0  3  0  0  0  0  0  0
  193.6450  176.3180  136.6630 C   0  0  0  0  0  2  0  0  0  0  0  0
  194.4590  172.7270  134.6650 O   0  0  0  0  0  1  0  0  0  0  0  0
  193.7750  175.0040  134.8940 C   0  0  0  0  0  2  0  0  0  0  0  0
  194.5580  175.5890  135.8940 O   0  0  0  0  0  0  0  0  0  0  0  0
  193.2240  175.5120  137.8860 C   0  0  0  0  0  2  0  0  0  0  0  0
  192.4870  174.2160  137.5270 C   0  0  1  0  0  3  0  0  0  0  0  0
  188.4170  170.1690  134.8150 N   0  0  0  0  0  1  0  0  0  0  0  0
  189.2100  171.3250  135.0620 C   0  0  0  0  0  0  0  0  0  0  0  0
  190.3760  171.3940  134.5950 O   0  0  0  0  0  0  0  0  0  0  0  0
  185.1750  178.8880  138.3390 O   0  0  0  0  0  0  0  0  0  0  0  0
  183.9520  179.0890  138.9550 N   0  0  0  0  0  0  0  0  0  0  0  0
  182.0720  179.9410  139.4170 C   0  0  0  0  0  0  0  0  0  0  0  0
  183.1180  180.0500  138.5830 N   0  0  0  0  0  2  0  0  0  0  0  0
  183.4890  178.3690  139.9700 N   0  0  0  0  0  0  0  0  0  0  0  0
  182.2820  178.8810  140.2730 C   0  0  0  0  0  0  0  0  0  0  0  0
  181.0820  180.7190  139.4090 O   0  0  0  0  0  0  0  0  0  0  0  0
  180.6260  179.4870  141.8870 O   0  0  0  0  0  1  0  0  0  0  0  0
  181.4610  178.4510  141.4580 C   0  0  2  0  0  3  0  0  0  0  0  0
  182.2760  177.9580  142.5670 N   0  0  0  0  0  2  0  0  0  0  0  0
  182.9760  179.0360  143.1380 N   0  0  0  0  0  2  0  0  0  0  0  0
  184.3840  178.8660  142.7920 C   0  0  2  0  0  3  0  0  0  0  0  0
  185.1490  178.1810  143.9190 C   0  0  2  0  0  3  0  0  0  0  0  0
  185.2450  179.1230  145.1000 C   0  0  0  0  0  2  0  0  0  0  0  0
  186.4480  178.9270  144.1970 C   0  0  1  0  0  3  0  0  0  0  0  0
  191.0060  175.9390  147.4860 C   0  0  0  0  0  1  0  0  0  0  0  0
  187.7420  176.8840  142.5160 C   0  0  0  0  0  2  0  0  0  0  0  0
  188.1530  177.0270  143.9740 C   0  0  0  0  0  0  0  0  0  0  0  0
  187.0040  177.4250  146.0650 O   0  0  0  0  0  0  0  0  0  0  0  0
  189.6710  177.8690  148.9240 S   0  0  0  0  0  0  0  0  0  0  0  0
  191.3430  177.6400  145.1440 C   0  0  0  0  0  2  0  0  0  0  0  0
  187.1940  175.9270  143.5600 C   0  0  0  0  0  2  0  0  0  0  0  0
  190.3790  177.4310  143.9860 C   0  0  2  0  0  3  0  0  0  0  0  0
  187.6070  178.0910  147.1360 C   0  0  0  0  0  2  0  0  0  0  0  0
  190.9170  177.4520  147.6490 C   0  0  2  0  0  3  0  0  0  0  0  0
  188.2630  177.0880  148.0630 C   0  0  0  0  0  2  0  0  0  0  0  0
  187.5020  178.0600  144.9160 C   0  0  2  0  0  3  0  0  0  0  0  0
  190.5840  178.1780  146.3460 C   0  0  0  0  0  2  0  0  0  0  0  0
  189.4000  176.4840  144.3350 O   0  0  0  0  0  0  0  0  0  0  0  0
  191.1430  176.9700  142.7850 C   0  0  0  0  0  0  0  0  0  0  0  0
  190.9880  175.6670  142.3300 O   0  0  0  0  0  1  0  0  0  0  0  0
  191.8970  177.7650  142.1620 O   0  0  0  0  0  0  0  0  0  0  0  0
  185.9240  179.8170  141.5550 O   0  0  0  0  0  1  0  0  0  0  0  0
  184.9790  180.0930  142.4360 O   0  0  0  0  0  0  0  0  0  0  0  0
  1 35  1  0  0  0  0
  3 15  1  0  0  0  0
  5 18  1  0  0  0  0
  5  2  1  0  0  0  0
  6  4  2  0  0  0  0
  7  3  2  0  0  0  0
  8  9  1  0  0  0  0
  8  7  1  0  0  0  0
  9 33  1  6  0  0  0
 11  6  1  0  0  0  0
 11 19  1  0  0  0  0
 12 19  2  0  0  0  0
 12 20  1  0  0  0  0
 13  9  1  0  0  0  0
 13  6  1  0  0  0  0
 14 22  1  0  0  0  0
 14 21  2  0  0  0  0
 16 10  1  0  0  0  0
 16  1  1  0  0  0  0
 17 18  1  0  0  0  0
 17  1  2  0  0  0  0
 19 10  1  0  0  0  0
 21 12  1  0  0  0  0
 22 11  2  0  0  0  0
 23  2  1  0  0  0  0
 23 15  1  0  0  0  0
 24 31  1  0  0  0  0
 25 27  1  1  0  0  0
 25 24  1  0  0  0  0
 26 30  1  0  0  0  0
 28 25  1  0  0  0  0
 28 29  1  0  0  0  0
 29 26  1  0  0  0  0
 31  3  1  6  0  0  0
 31 30  1  0  0  0  0
 32 33  1  0  0  0  0
 34 33  2  0  0  0  0
 35 36  1  0  0  0  0
 36 39  1  0  0  0  0
 37 40  1  0  0  0  0
 38 36  1  0  0  0  0
 38 37  1  0  0  0  0
 39 40  2  0  0  0  0
 40 43  1  0  0  0  0
 41 37  2  0  0  0  0
 43 42  1  1  0  0  0
 43 44  1  0  0  0  0
 44 45  1  0  0  0  0
 46 68  1  1  0  0  0
 46 45  1  0  0  0  0
 47 46  1  6  0  0  0
 47 49  1  0  0  0  0
 47 48  1  0  0  0  0
 49 61  1  0  0  0  0
 49 48  1  1  0  0  0
 51 56  1  0  0  0  0
 51 52  1  0  0  0  0
 52 63  1  0  0  0  0
 52 61  1  0  0  0  0
 53 58  1  0  0  0  0
 55 62  1  0  0  0  0
 56 52  1  0  0  0  0
 57 64  1  6  0  0  0
 57 63  1  0  0  0  0
 57 55  1  0  0  0  0
 58 60  1  0  0  0  0
 59 50  1  6  0  0  0
 59 54  1  0  0  0  0
 60 54  1  0  0  0  0
 61 53  1  1  0  0  0
 62 59  1  0  0  0  0
 65 64  1  0  0  0  0
 66 64  2  0  0  0  0
 67 68  1  0  0  0  0
M  END
>  <MODEL>
3

>  <REMARK>
 VINA RESULT:      -6.0      3.493     10.285
  Name = 
  12 active torsions:
  status: ('A' for Active; 'I' for Inactive)
    1  A    between atoms: N_2  and  C_56
    2  A    between atoms: N_2  and  N_68
    3  A    between atoms: C_3  and  C_30
    4  A    between atoms: N_5  and  O_53
    5  A    between atoms: C_6  and  O_53
    6  A    between atoms: C_9  and  C_66
    7  A    between atoms: C_11  and  C_60
    8  A    between atoms: C_25  and  C_34
    9  A    between atoms: C_48  and  C_56
   10  A    between atoms: C_51  and  C_61
   11  A    between atoms: O_63  and  C_66
   12  A    between atoms: C_66  and  N_68
                            x       y       z     vdW  Elec       q    Type
                         _______ _______ _______ _____ _____    ______ ____

>  <TORSDO>
F 12

$$$$
=
 OpenBabel11042411083D

 68 74  0  0  1  0  0  0  0  0999 V2000
  187.7740  175.5430  136.3440 C   0  0  0  0  0  0  0  0  0  0  0  0
  184.4410  178.1050  137.3300 C   0  0  0  0  0  2  0  0  0  0  0  0
  181.4050  177.2920  137.2070 C   0  0  0  0  0  0  0  0  0  0  0  0
  183.8170  174.4110  135.2560 O   0  0  0  0  0  0  0  0  0  0  0  0
  185.5390  177.6910  138.2930 C   0  0  0  0  0  2  0  0  0  0  0  0
  183.6160  173.2480  135.7000 C   0  0  0  0  0  0  0  0  0  0  0  0
  181.1640  176.1810  137.9070 C   0  0  0  0  0  3  0  0  0  0  0  0
  182.0090  174.9500  137.8510 C   0  0  0  0  0  2  0  0  0  0  0  0
  181.4600  173.9950  136.7910 C   0  0  1  0  0  3  0  0  0  0  0  0
  186.4470  173.7450  135.4510 N   0  0  0  0  0  2  0  0  0  0  0  0
  184.5750  172.1610  135.4190 C   0  0  0  0  0  0  0  0  0  0  0  0
  186.8150  171.3200  134.9980 C   0  0  0  0  0  0  0  0  0  0  0  0
  182.4430  172.9710  136.4660 N   0  0  0  0  0  2  0  0  0  0  0  0
  184.9260  169.8280  135.1120 C   0  0  0  0  0  3  0  0  0  0  0  0
  182.5840  177.4520  136.4040 N   0  0  0  0  0  2  0  0  0  0  0  0
  187.7390  174.0830  136.0280 C   0  0  0  0  0  2  0  0  0  0  0  0
  186.8850  176.0130  137.1610 N   0  0  0  0  0  0  0  0  0  0  0  0
  186.8280  177.4150  137.5430 C   0  0  0  0  0  2  0  0  0  0  0  0
  185.9570  172.4100  135.2690 C   0  0  0  0  0  0  0  0  0  0  0  0
  188.2730  171.4910  134.7400 C   0  0  0  0  0  1  0  0  0  0  0  0
  186.2910  170.0310  134.9210 C   0  0  0  0  0  3  0  0  0  0  0  0
  184.1100  170.8840  135.3550 N   0  0  0  0  0  0  0  0  0  0  0  0
  183.7970  176.9860  136.7950 O   0  0  0  0  0  0  0  0  0  0  0  0
  179.4350  178.3750  138.4490 C   0  0  0  0  0  2  0  0  0  0  0  0
  180.1280  178.5630  139.8060 C   0  0  2  0  0  3  0  0  0  0  0  0
  181.6730  180.4550  137.8300 C   0  0  0  0  0  2  0  0  0  0  0  0
  179.1670  178.8450  140.7760 O   0  0  0  0  0  1  0  0  0  0  0  0
  181.2090  179.6470  139.8320 C   0  0  0  0  0  2  0  0  0  0  0  0
  180.8970  180.7010  138.9680 O   0  0  0  0  0  0  0  0  0  0  0  0
  180.8410  179.7420  136.7700 C   0  0  0  0  0  2  0  0  0  0  0  0
  180.3530  178.3600  137.2190 C   0  0  1  0  0  3  0  0  0  0  0  0
  180.2430  172.1030  137.9610 N   0  0  0  0  0  1  0  0  0  0  0  0
  180.2000  173.3440  137.2650 C   0  0  0  0  0  0  0  0  0  0  0  0
  179.0930  173.9050  137.0560 O   0  0  0  0  0  0  0  0  0  0  0  0
  188.7190  176.4040  135.7550 O   0  0  0  0  0  0  0  0  0  0  0  0
  190.0890  176.2320  135.8540 N   0  0  0  0  0  0  0  0  0  0  0  0
  192.0590  175.6300  135.3750 C   0  0  0  0  0  0  0  0  0  0  0  0
  190.7970  175.6200  134.9160 N   0  0  0  0  0  2  0  0  0  0  0  0
  190.8310  176.6410  136.8760 N   0  0  0  0  0  0  0  0  0  0  0  0
  192.0960  176.2850  136.5880 C   0  0  0  0  0  0  0  0  0  0  0  0
  193.0290  175.0930  134.7790 O   0  0  0  0  0  0  0  0  0  0  0  0
  193.5860  175.2020  138.1120 O   0  0  0  0  0  1  0  0  0  0  0  0
  193.2490  176.4340  137.5430 C   0  0  2  0  0  3  0  0  0  0  0  0
  193.0000  177.4290  138.5850 N   0  0  0  0  0  2  0  0  0  0  0  0
  192.6410  176.7690  139.7740 N   0  0  0  0  0  2  0  0  0  0  0  0
  191.2110  176.9850  139.9690 C   0  0  2  0  0  3  0  0  0  0  0  0
  190.9130  177.4600  141.3870 C   0  0  2  0  0  3  0  0  0  0  0  0
  191.1640  176.3250  142.3560 C   0  0  0  0  0  2  0  0  0  0  0  0
  189.7420  176.6780  141.9660 C   0  0  1  0  0  3  0  0  0  0  0  0
  186.8510  179.0550  147.1150 C   0  0  0  0  0  1  0  0  0  0  0  0
  187.7600  178.7090  141.1740 C   0  0  0  0  0  2  0  0  0  0  0  0
  188.0090  178.4390  142.6500 C   0  0  0  0  0  0  0  0  0  0  0  0
  189.9500  178.0060  144.0280 O   0  0  0  0  0  0  0  0  0  0  0  0
  188.7610  177.1570  147.6810 S   0  0  0  0  0  0  0  0  0  0  0  0
  185.6430  177.4860  144.9780 C   0  0  0  0  0  2  0  0  0  0  0  0
  188.6490  179.6400  141.9800 C   0  0  0  0  0  2  0  0  0  0  0  0
  186.0180  177.8490  143.5480 C   0  0  2  0  0  3  0  0  0  0  0  0
  189.8880  177.2240  145.1850 C   0  0  0  0  0  2  0  0  0  0  0  0
  187.0760  177.5480  147.0840 C   0  0  2  0  0  3  0  0  0  0  0  0
  189.6350  178.1070  146.3900 C   0  0  0  0  0  2  0  0  0  0  0  0
  189.0470  177.4060  143.1350 C   0  0  2  0  0  3  0  0  0  0  0  0
  186.8640  176.9370  145.6990 C   0  0  0  0  0  2  0  0  0  0  0  0
  187.0060  178.8500  143.5460 O   0  0  0  0  0  0  0  0  0  0  0  0
  184.7980  178.3200  142.8220 C   0  0  0  0  0  0  0  0  0  0  0  0
  184.4240  177.7050  141.6350 O   0  0  0  0  0  0  0  0  0  0  0  0
  184.0880  179.2460  143.2980 O   0  0  0  0  0  1  0  0  0  0  0  0
  189.2450  176.2380  139.3480 O   0  0  0  0  0  1  0  0  0  0  0  0
  190.4670  175.8320  139.6460 O   0  0  0  0  0  0  0  0  0  0  0  0
  1 17  2  0  0  0  0
  2  5  1  0  0  0  0
  3  7  2  0  0  0  0
  4  6  2  0  0  0  0
  6 13  1  0  0  0  0
  8  7  1  0  0  0  0
  9 33  1  1  0  0  0
  9  8  1  0  0  0  0
 10 16  1  0  0  0  0
 11  6  1  0  0  0  0
 12 19  1  0  0  0  0
 13  9  1  0  0  0  0
 14 22  2  0  0  0  0
 15 23  1  0  0  0  0
 15  3  1  0  0  0  0
 16  1  1  0  0  0  0
 17 18  1  0  0  0  0
 18  5  1  0  0  0  0
 19 11  2  0  0  0  0
 19 10  1  0  0  0  0
 20 12  1  0  0  0  0
 21 12  2  0  0  0  0
 21 14  1  0  0  0  0
 22 11  1  0  0  0  0
 23  2  1  0  0  0  0
 24 25  1  0  0  0  0
 25 28  1  0  0  0  0
 25 27  1  1  0  0  0
 26 29  1  0  0  0  0
 29 28  1  0  0  0  0
 30 31  1  0  0  0  0
 30 26  1  0  0  0  0
 31  3  1  1  0  0  0
 31 24  1  0  0  0  0
 33 32  1  0  0  0  0
 34 33  2  0  0  0  0
 35 36  1  0  0  0  0
 35  1  1  0  0  0  0
 36 39  1  0  0  0  0
 37 40  1  0  0  0  0
 38 37  1  0  0  0  0
 38 36  1  0  0  0  0
 40 39  2  0  0  0  0
 40 43  1  0  0  0  0
 41 37  2  0  0  0  0
 43 42  1  1  0  0  0
 43 44  1  0  0  0  0
 44 45  1  0  0  0  0
 45 46  1  0  0  0  0
 46 68  1  1  0  0  0
 47 46  1  6  0  0  0
 47 49  1  0  0  0  0
 47 48  1  0  0  0  0
 49 48  1  1  0  0  0
 49 61  1  0  0  0  0
 51 56  1  0  0  0  0
 51 52  1  0  0  0  0
 52 61  1  0  0  0  0
 52 63  1  0  0  0  0
 53 58  1  0  0  0  0
 55 62  1  0  0  0  0
 56 52  1  0  0  0  0
 57 64  1  6  0  0  0
 57 55  1  0  0  0  0
 58 60  1  0  0  0  0
 59 50  1  6  0  0  0
 59 54  1  0  0  0  0
 60 54  1  0  0  0  0
 61 53  1  6  0  0  0
 62 59  1  0  0  0  0
 63 57  1  0  0  0  0
 64 66  1  0  0  0  0
 65 64  2  0  0  0  0
 67 68  1  0  0  0  0
M  END
>  <MODEL>
4

>  <REMARK>
 VINA RESULT:      -5.8      2.915      9.770
  Name = 
  12 active torsions:
  status: ('A' for Active; 'I' for Inactive)
    1  A    between atoms: N_2  and  C_56
    2  A    between atoms: N_2  and  N_68
    3  A    between atoms: C_3  and  C_30
    4  A    between atoms: N_5  and  O_53
    5  A    between atoms: C_6  and  O_53
    6  A    between atoms: C_9  and  C_66
    7  A    between atoms: C_11  and  C_60
    8  A    between atoms: C_25  and  C_34
    9  A    between atoms: C_48  and  C_56
   10  A    between atoms: C_51  and  C_61
   11  A    between atoms: O_63  and  C_66
   12  A    between atoms: C_66  and  N_68
                            x       y       z     vdW  Elec       q    Type
                         _______ _______ _______ _____ _____    ______ ____

>  <TORSDO>
F 12

$$$$
=
 OpenBabel11042411083D

 68 74  0  0  1  0  0  0  0  0999 V2000
  185.6350  179.0580  140.7550 C   0  0  0  0  0  0  0  0  0  0  0  0
  186.7280  176.7640  137.2640 C   0  0  0  0  0  2  0  0  0  0  0  0
  184.8330  174.8070  135.6890 C   0  0  0  0  0  0  0  0  0  0  0  0
  183.1210  175.8980  139.4040 O   0  0  0  0  0  0  0  0  0  0  0  0
  186.7350  178.2790  137.3510 C   0  0  0  0  0  2  0  0  0  0  0  0
  181.9580  176.3660  139.2690 C   0  0  0  0  0  0  0  0  0  0  0  0
  183.6980  175.4070  135.3270 C   0  0  0  0  0  3  0  0  0  0  0  0
  182.8770  176.2730  136.2280 C   0  0  0  0  0  2  0  0  0  0  0  0
  181.8110  175.4280  136.9250 C   0  0  1  0  0  3  0  0  0  0  0  0
  183.4920  178.0130  141.0760 N   0  0  0  0  0  2  0  0  0  0  0  0
  181.3200  177.1190  140.3670 C   0  0  0  0  0  0  0  0  0  0  0  0
  181.3950  178.5940  142.2960 C   0  0  0  0  0  0  0  0  0  0  0  0
  181.2420  176.1510  138.0530 N   0  0  0  0  0  2  0  0  0  0  0  0
  179.2990  177.7650  141.4440 C   0  0  0  0  0  3  0  0  0  0  0  0
  185.4450  175.0320  136.9690 N   0  0  0  0  0  2  0  0  0  0  0  0
  184.2770  179.2020  141.3620 C   0  0  0  0  0  2  0  0  0  0  0  0
  185.7160  178.8780  139.4740 N   0  0  0  0  0  0  0  0  0  0  0  0
  186.9830  178.7290  138.7770 C   0  0  0  0  0  2  0  0  0  0  0  0
  182.0750  177.9020  141.2680 C   0  0  0  0  0  0  0  0  0  0  0  0
  182.1100  179.3760  143.3450 C   0  0  0  0  0  1  0  0  0  0  0  0
  180.0050  178.5200  142.3770 C   0  0  0  0  0  3  0  0  0  0  0  0
  179.9630  177.0920  140.4720 N   0  0  0  0  0  0  0  0  0  0  0  0
  185.4620  176.2520  137.5610 O   0  0  0  0  0  0  0  0  0  0  0  0
  186.9500  173.6490  134.8120 C   0  0  0  0  0  2  0  0  0  0  0  0
  187.5160  173.2030  136.1670 C   0  0  2  0  0  3  0  0  0  0  0  0
  184.8520  171.5750  135.8170 C   0  0  0  0  0  2  0  0  0  0  0  0
  188.8470  172.8200  136.0050 O   0  0  0  0  0  1  0  0  0  0  0  0
  186.7410  172.0700  136.8460 C   0  0  0  0  0  2  0  0  0  0  0  0
  186.1940  171.1900  135.9080 O   0  0  0  0  0  0  0  0  0  0  0  0
  184.6470  172.4970  134.6210 C   0  0  0  0  0  2  0  0  0  0  0  0
  185.4260  173.8130  134.7370 C   0  0  1  0  0  3  0  0  0  0  0  0
  180.1390  173.7560  136.0110 N   0  0  0  0  0  1  0  0  0  0  0  0
  180.7230  175.0530  135.9710 C   0  0  0  0  0  0  0  0  0  0  0  0
  180.3120  175.8970  135.1330 O   0  0  0  0  0  0  0  0  0  0  0  0
  186.8020  179.0830  141.5410 O   0  0  0  0  0  0  0  0  0  0  0  0
  187.8360  178.1710  141.4180 N   0  0  0  0  0  0  0  0  0  0  0  0
  189.0870  176.5130  141.8200 C   0  0  0  0  0  0  0  0  0  0  0  0
  187.9760  177.1400  142.2390 N   0  0  0  0  0  2  0  0  0  0  0  0
  188.7890  178.2280  140.4940 N   0  0  0  0  0  0  0  0  0  0  0  0
  189.5910  177.1710  140.7170 C   0  0  0  0  0  0  0  0  0  0  0  0
  189.5810  175.5020  142.3840 O   0  0  0  0  0  0  0  0  0  0  0  0
  191.8970  177.7540  140.4730 O   0  0  0  0  0  1  0  0  0  0  0  0
  190.8820  176.9260  139.9840 C   0  0  2  0  0  3  0  0  0  0  0  0
  190.7510  177.0780  138.5350 N   0  0  0  0  0  2  0  0  0  0  0  0
  190.2200  175.8920  137.9960 N   0  0  0  0  0  2  0  0  0  0  0  0
  190.2710  176.0210  136.5430 C   0  0  2  0  0  3  0  0  0  0  0  0
  191.6540  175.6670  136.0060 C   0  0  2  0  0  3  0  0  0  0  0  0
  191.5140  174.6130  134.9280 C   0  0  0  0  0  2  0  0  0  0  0  0
  191.9770  174.2110  136.3150 C   0  0  1  0  0  3  0  0  0  0  0  0
  198.0540  172.3190  136.4500 C   0  0  0  0  0  1  0  0  0  0  0  0
  193.7050  176.4040  137.2540 C   0  0  0  0  0  2  0  0  0  0  0  0
  194.3330  175.0900  136.8140 C   0  0  0  0  0  0  0  0  0  0  0  0
  193.9520  173.5010  135.0300 O   0  0  0  0  0  0  0  0  0  0  0  0
  196.3010  170.3900  135.5660 S   0  0  0  0  0  0  0  0  0  0  0  0
  196.3870  173.0710  138.7190 C   0  0  0  0  0  2  0  0  0  0  0  0
  194.3210  176.2780  135.8710 C   0  0  0  0  0  2  0  0  0  0  0  0
  195.5320  174.3210  138.5720 C   0  0  2  0  0  3  0  0  0  0  0  0
  194.2290  172.1380  135.1690 C   0  0  0  0  0  2  0  0  0  0  0  0
  197.0120  171.3320  136.9650 C   0  0  2  0  0  3  0  0  0  0  0  0
  195.6350  171.8470  134.6880 C   0  0  0  0  0  2  0  0  0  0  0  0
  193.4890  173.9080  136.2920 C   0  0  2  0  0  3  0  0  0  0  0  0
  195.8910  172.0010  137.7590 C   0  0  0  0  0  2  0  0  0  0  0  0
  195.6390  174.8310  137.2650 O   0  0  0  0  0  0  0  0  0  0  0  0
  195.9780  175.3450  139.5680 C   0  0  0  0  0  0  0  0  0  0  0  0
  195.0420  175.9540  140.3930 O   0  0  0  0  0  1  0  0  0  0  0  0
  197.1990  175.6310  139.6870 O   0  0  0  0  0  0  0  0  0  0  0  0
  189.3330  177.1680  134.9270 O   0  0  0  0  0  1  0  0  0  0  0  0
  189.8710  177.3070  136.1250 O   0  0  0  0  0  0  0  0  0  0  0  0
  1 16  1  0  0  0  0
  1 35  1  0  0  0  0
  2  5  1  0  0  0  0
  2 23  1  0  0  0  0
  3 15  1  0  0  0  0
  5 18  1  0  0  0  0
  6  4  2  0  0  0  0
  6 11  1  0  0  0  0
  7  3  2  0  0  0  0
  7  8  1  0  0  0  0
  8  9  1  0  0  0  0
  9 33  1  6  0  0  0
  9 13  1  0  0  0  0
 10 19  1  0  0  0  0
 10 16  1  0  0  0  0
 11 22  2  0  0  0  0
 11 19  1  0  0  0  0
 12 21  1  0  0  0  0
 12 20  1  0  0  0  0
 13  6  1  0  0  0  0
 14 21  2  0  0  0  0
 15 23  1  0  0  0  0
 17  1  2  0  0  0  0
 18 17  1  0  0  0  0
 19 12  2  0  0  0  0
 22 14  1  0  0  0  0
 24 25  1  0  0  0  0
 25 27  1  6  0  0  0
 25 28  1  0  0  0  0
 26 29  1  0  0  0  0
 29 28  1  0  0  0  0
 30 31  1  0  0  0  0
 30 26  1  0  0  0  0
 31 24  1  0  0  0  0
 31  3  1  1  0  0  0
 33 32  1  0  0  0  0
 34 33  2  0  0  0  0
 36 35  1  0  0  0  0
 36 38  1  0  0  0  0
 37 38  1  0  0  0  0
 37 41  2  0  0  0  0
 39 40  2  0  0  0  0
 39 36  1  0  0  0  0
 40 37  1  0  0  0  0
 43 42  1  1  0  0  0
 43 40  1  0  0  0  0
 44 43  1  0  0  0  0
 45 44  1  0  0  0  0
 46 68  1  1  0  0  0
 46 45  1  0  0  0  0
 47 49  1  0  0  0  0
 47 46  1  1  0  0  0
 48 47  1  0  0  0  0
 49 48  1  6  0  0  0
 52 51  1  0  0  0  0
 52 63  1  0  0  0  0
 53 58  1  0  0  0  0
 54 59  1  0  0  0  0
 56 52  1  0  0  0  0
 56 51  1  0  0  0  0
 57 55  1  0  0  0  0
 57 64  1  1  0  0  0
 59 50  1  6  0  0  0
 59 62  1  0  0  0  0
 60 58  1  0  0  0  0
 60 54  1  0  0  0  0
 61 53  1  6  0  0  0
 61 49  1  0  0  0  0
 61 52  1  0  0  0  0
 62 55  1  0  0  0  0
 63 57  1  0  0  0  0
 64 66  2  0  0  0  0
 64 65  1  0  0  0  0
 67 68  1  0  0  0  0
M  END
>  <MODEL>
5

>  <REMARK>
 VINA RESULT:      -5.4      4.063     12.065
  Name = 
  12 active torsions:
  status: ('A' for Active; 'I' for Inactive)
    1  A    between atoms: N_2  and  C_56
    2  A    between atoms: N_2  and  N_68
    3  A    between atoms: C_3  and  C_30
    4  A    between atoms: N_5  and  O_53
    5  A    between atoms: C_6  and  O_53
    6  A    between atoms: C_9  and  C_66
    7  A    between atoms: C_11  and  C_60
    8  A    between atoms: C_25  and  C_34
    9  A    between atoms: C_48  and  C_56
   10  A    between atoms: C_51  and  C_61
   11  A    between atoms: O_63  and  C_66
   12  A    between atoms: C_66  and  N_68
                            x       y       z     vdW  Elec       q    Type
                         _______ _______ _______ _____ _____    ______ ____

>  <TORSDO>
F 12

$$$$
=
 OpenBabel11042411083D

 68 74  0  0  1  0  0  0  0  0999 V2000
  186.0440  178.7130  141.2700 C   0  0  0  0  0  0  0  0  0  0  0  0
  186.0210  176.7010  137.4500 C   0  0  0  0  0  2  0  0  0  0  0  0
  183.4970  175.4430  136.0560 C   0  0  0  0  0  0  0  0  0  0  0  0
  182.6660  176.4040  140.0940 O   0  0  0  0  0  0  0  0  0  0  0  0
  186.4100  178.1520  137.6710 C   0  0  0  0  0  2  0  0  0  0  0  0
  181.6450  177.1360  140.2050 C   0  0  0  0  0  0  0  0  0  0  0  0
  182.5020  176.3250  135.9510 C   0  0  0  0  0  3  0  0  0  0  0  0
  182.0580  177.2310  137.0550 C   0  0  0  0  0  2  0  0  0  0  0  0
  180.9320  176.5650  137.8470 C   0  0  1  0  0  3  0  0  0  0  0  0
  183.7820  178.1460  141.8610 N   0  0  0  0  0  2  0  0  0  0  0  0
  181.3780  177.8660  141.4600 C   0  0  0  0  0  0  0  0  0  0  0  0
  182.0920  179.0240  143.4730 C   0  0  0  0  0  0  0  0  0  0  0  0
  180.7280  177.2470  139.1170 N   0  0  0  0  0  2  0  0  0  0  0  0
  179.7560  178.8070  142.9240 C   0  0  0  0  0  3  0  0  0  0  0  0
  184.3260  175.3560  137.2250 N   0  0  0  0  0  2  0  0  0  0  0  0
  184.8670  179.0810  142.1130 C   0  0  0  0  0  2  0  0  0  0  0  0
  185.8900  178.6860  139.9840 N   0  0  0  0  0  0  0  0  0  0  0  0
  186.9670  178.3460  139.0680 C   0  0  0  0  0  2  0  0  0  0  0  0
  182.4250  178.3350  142.2840 C   0  0  0  0  0  0  0  0  0  0  0  0
  183.1220  179.4830  144.4490 C   0  0  0  0  0  1  0  0  0  0  0  0
  180.7540  179.2560  143.7860 C   0  0  0  0  0  3  0  0  0  0  0  0
  180.0860  178.1320  141.7950 N   0  0  0  0  0  0  0  0  0  0  0  0
  184.7260  176.4540  137.9140 O   0  0  0  0  0  0  0  0  0  0  0  0
  184.9990  173.6810  134.9460 C   0  0  0  0  0  2  0  0  0  0  0  0
  185.2520  172.8150  136.1880 C   0  0  2  0  0  3  0  0  0  0  0  0
  182.1790  172.5230  135.6000 C   0  0  0  0  0  2  0  0  0  0  0  0
  186.3160  171.9500  135.9350 O   0  0  0  0  0  1  0  0  0  0  0  0
  184.0420  172.0070  136.6670 C   0  0  0  0  0  2  0  0  0  0  0  0
  183.2370  171.6080  135.5950 O   0  0  0  0  0  0  0  0  0  0  0  0
  182.4410  173.6370  134.5940 C   0  0  0  0  0  2  0  0  0  0  0  0
  183.6830  174.4710  134.9300 C   0  0  1  0  0  3  0  0  0  0  0  0
  178.9330  177.7820  136.8740 N   0  0  0  0  0  1  0  0  0  0  0  0
  179.6580  176.5730  137.0650 C   0  0  0  0  0  0  0  0  0  0  0  0
  179.2290  175.5020  136.5630 O   0  0  0  0  0  0  0  0  0  0  0  0
  187.2840  178.3720  141.8410 O   0  0  0  0  0  0  0  0  0  0  0  0
  187.4530  178.0120  143.1670 N   0  0  0  0  0  0  0  0  0  0  0  0
  186.9960  177.5940  145.1900 C   0  0  0  0  0  0  0  0  0  0  0  0
  186.4410  177.9490  144.0200 N   0  0  0  0  0  2  0  0  0  0  0  0
  188.6180  177.7050  143.7260 N   0  0  0  0  0  0  0  0  0  0  0  0
  188.3530  177.4170  145.0130 C   0  0  0  0  0  0  0  0  0  0  0  0
  186.3560  177.4760  146.2670 O   0  0  0  0  0  0  0  0  0  0  0  0
  189.3150  178.0630  147.1030 O   0  0  0  0  0  1  0  0  0  0  0  0
  189.4100  177.1500  146.0490 C   0  0  2  0  0  3  0  0  0  0  0  0
  190.7630  177.1470  145.4940 N   0  0  0  0  0  2  0  0  0  0  0  0
  190.6990  177.4670  144.1260 N   0  0  0  0  0  2  0  0  0  0  0  0
  191.7340  176.6880  143.4540 C   0  0  2  0  0  3  0  0  0  0  0  0
  191.9280  177.1540  142.0150 C   0  0  2  0  0  3  0  0  0  0  0  0
  190.7150  177.9490  141.5810 C   0  0  0  0  0  2  0  0  0  0  0  0
  190.8790  176.5160  141.1130 C   0  0  1  0  0  3  0  0  0  0  0  0
  192.0910  175.9390  134.8900 C   0  0  0  0  0  1  0  0  0  0  0  0
  193.7710  176.7670  140.6120 C   0  0  0  0  0  2  0  0  0  0  0  0
  192.8170  176.6130  139.4370 C   0  0  0  0  0  0  0  0  0  0  0  0
  190.6300  177.4730  138.8590 O   0  0  0  0  0  0  0  0  0  0  0  0
  189.4210  175.7580  135.5320 S   0  0  0  0  0  0  0  0  0  0  0  0
  192.9270  174.1430  137.0270 C   0  0  0  0  0  2  0  0  0  0  0  0
  193.3500  177.9840  139.8080 C   0  0  0  0  0  2  0  0  0  0  0  0
  193.4810  174.7770  138.2940 C   0  0  2  0  0  3  0  0  0  0  0  0
  189.7310  176.7590  138.0630 C   0  0  0  0  0  2  0  0  0  0  0  0
  191.0740  174.9740  135.4870 C   0  0  2  0  0  3  0  0  0  0  0  0
  189.9090  177.1480  136.6090 C   0  0  0  0  0  2  0  0  0  0  0  0
  191.2900  176.4990  139.6260 C   0  0  2  0  0  3  0  0  0  0  0  0
  191.4540  174.4910  136.8870 C   0  0  0  0  0  2  0  0  0  0  0  0
  193.3750  176.1780  138.2220 O   0  0  0  0  0  0  0  0  0  0  0  0
  194.9120  174.3730  138.4640 C   0  0  0  0  0  0  0  0  0  0  0  0
  195.2160  173.0880  138.8920 O   0  0  0  0  0  1  0  0  0  0  0  0
  195.8410  175.1780  138.1880 O   0  0  0  0  0  0  0  0  0  0  0  0
  192.4230  174.7590  144.2340 O   0  0  0  0  0  1  0  0  0  0  0  0
  191.4600  175.3060  143.5150 O   0  0  0  0  0  0  0  0  0  0  0  0
  1 35  1  0  0  0  0
  1 16  1  0  0  0  0
  2  5  1  0  0  0  0
  2 23  1  0  0  0  0
  3 15  1  0  0  0  0
  4  6  2  0  0  0  0
  5 18  1  0  0  0  0
  6 11  1  0  0  0  0
  7  3  2  0  0  0  0
  7  8  1  0  0  0  0
  8  9  1  0  0  0  0
  9 33  1  6  0  0  0
  9 13  1  0  0  0  0
 10 16  1  0  0  0  0
 10 19  1  0  0  0  0
 11 22  2  0  0  0  0
 11 19  1  0  0  0  0
 12 21  1  0  0  0  0
 12 20  1  0  0  0  0
 13  6  1  0  0  0  0
 14 21  2  0  0  0  0
 15 23  1  0  0  0  0
 17  1  2  0  0  0  0
 18 17  1  0  0  0  0
 19 12  2  0  0  0  0
 22 14  1  0  0  0  0
 24 25  1  0  0  0  0
 25 27  1  6  0  0  0
 25 28  1  0  0  0  0
 29 26  1  0  0  0  0
 29 28  1  0  0  0  0
 30 31  1  0  0  0  0
 30 26  1  0  0  0  0
 31 24  1  0  0  0  0
 31  3  1  1  0  0  0
 32 33  1  0  0  0  0
 34 33  2  0  0  0  0
 35 36  1  0  0  0  0
 36 39  1  0  0  0  0
 36 38  1  0  0  0  0
 37 41  2  0  0  0  0
 38 37  1  0  0  0  0
 39 40  2  0  0  0  0
 40 37  1  0  0  0  0
 40 43  1  0  0  0  0
 43 42  1  1  0  0  0
 44 43  1  0  0  0  0
 45 44  1  0  0  0  0
 46 68  1  6  0  0  0
 46 45  1  0  0  0  0
 47 46  1  1  0  0  0
 48 47  1  0  0  0  0
 49 48  1  6  0  0  0
 49 47  1  0  0  0  0
 52 61  1  0  0  0  0
 52 56  1  0  0  0  0
 52 51  1  0  0  0  0
 54 60  1  0  0  0  0
 55 57  1  0  0  0  0
 56 51  1  0  0  0  0
 57 64  1  6  0  0  0
 58 53  1  0  0  0  0
 59 50  1  1  0  0  0
 59 54  1  0  0  0  0
 59 62  1  0  0  0  0
 60 58  1  0  0  0  0
 61 53  1  6  0  0  0
 61 49  1  0  0  0  0
 62 55  1  0  0  0  0
 63 57  1  0  0  0  0
 63 52  1  0  0  0  0
 64 65  1  0  0  0  0
 66 64  2  0  0  0  0
 68 67  1  0  0  0  0
M  END
>  <MODEL>
6

>  <REMARK>
 VINA RESULT:      -5.1      2.904     11.577
  Name = 
  12 active torsions:
  status: ('A' for Active; 'I' for Inactive)
    1  A    between atoms: N_2  and  C_56
    2  A    between atoms: N_2  and  N_68
    3  A    between atoms: C_3  and  C_30
    4  A    between atoms: N_5  and  O_53
    5  A    between atoms: C_6  and  O_53
    6  A    between atoms: C_9  and  C_66
    7  A    between atoms: C_11  and  C_60
    8  A    between atoms: C_25  and  C_34
    9  A    between atoms: C_48  and  C_56
   10  A    between atoms: C_51  and  C_61
   11  A    between atoms: O_63  and  C_66
   12  A    between atoms: C_66  and  N_68
                            x       y       z     vdW  Elec       q    Type
                         _______ _______ _______ _____ _____    ______ ____

>  <TORSDO>
F 12

$$$$
