=
 OpenBabel11042413173D

 61 65  0  0  1  0  0  0  0  0999 V2000
  188.2060  176.1640  137.0080 C   0  0  0  0  0  0  0  0  0  0  0  0
  191.3760  173.7560  137.1220 O   0  0  0  0  0  0  0  0  0  0  0  0
  192.7170  175.5060  137.9420 N   0  0  0  0  0  2  0  0  0  0  0  0
  191.9930  177.2060  139.4470 N   0  0  0  0  0  0  0  0  0  0  0  0
  189.5670  175.8230  137.1470 C   0  0  0  0  0  3  0  0  0  0  0  0
  189.7000  177.2330  139.1040 C   0  0  0  0  0  0  0  0  0  0  0  0
  188.3610  177.6100  138.9820 C   0  0  0  0  0  3  0  0  0  0  0  0
  191.7100  176.3680  138.4960 C   0  0  0  0  0  0  0  0  0  0  0  0
  190.7710  177.8370  139.9540 C   0  0  1  0  0  3  0  0  0  0  0  0
  192.5330  174.2050  137.3650 C   0  0  0  0  0  0  0  0  0  0  0  0
  187.6060  177.0510  137.9340 C   0  0  0  0  0  3  0  0  0  0  0  0
  190.2800  176.3540  138.2230 C   0  0  0  0  0  0  0  0  0  0  0  0
  189.5230  178.0760  142.1430 C   0  0  0  0  0  0  0  0  0  0  0  0
  190.6190  177.5490  141.4330 C   0  0  0  0  0  0  0  0  0  0  0  0
  191.6670  176.9640  142.1540 C   0  0  0  0  0  3  0  0  0  0  0  0
  191.6220  176.9310  143.5510 C   0  0  0  0  0  3  0  0  0  0  0  0
  188.4290  178.8130  141.4350 C   0  0  0  0  0  1  0  0  0  0  0  0
  189.4990  178.0290  143.5040 N   0  0  0  0  0  0  0  0  0  0  0  0
  190.5340  177.4990  144.2130 C   0  0  0  0  0  0  0  0  0  0  0  0
  190.5360  177.5630  145.7080 C   0  0  0  0  0  2  0  0  0  0  0  0
  189.5310  176.6580  146.2530 N   0  0  0  0  0  0  0  0  0  0  0  0
  190.1660  175.8380  147.1270 O   0  0  0  0  0  1  0  0  0  0  0  0
  186.8020  177.9900  146.0920 C   0  0  1  0  0  0  0  0  0  0  0  0
  188.5380  177.4700  146.9620 C   0  0  1  0  0  3  0  0  0  0  0  0
  188.1110  178.5110  146.1050 O   0  0  0  0  0  0  0  0  0  0  0  0
  187.1570  176.8360  146.9960 C   0  0  0  0  0  2  0  0  0  0  0  0
  184.6150  178.3800  147.0310 O   0  0  0  0  0  1  0  0  0  0  0  0
  185.8510  178.9760  146.7650 C   0  0  0  0  0  2  0  0  0  0  0  0
  186.3150  177.6080  144.6880 C   0  0  0  0  0  2  0  0  0  0  0  0
  185.6300  178.7430  143.9200 C   0  0  0  0  0  2  0  0  0  0  0  0
  185.0550  178.2380  142.6060 C   0  0  0  0  0  2  0  0  0  0  0  0
  183.6000  178.2710  142.6500 N   0  0  0  0  0  2  0  0  0  0  0  0
  183.2610  179.3520  143.3880 O   0  0  0  0  0  1  0  0  0  0  0  0
  187.7230  176.1770  134.6730 O   0  0  0  0  0  1  0  0  0  0  0  0
  187.3670  175.6010  135.8990 C   0  0  2  0  0  3  0  0  0  0  0  0
  185.2560  176.7860  135.8240 C   0  0  0  0  0  3  0  0  0  0  0  0
  183.7840  177.0180  135.9300 C   0  0  0  0  0  2  0  0  0  0  0  0
  184.0930  174.6040  137.5970 C   0  0  0  0  0  3  0  0  0  0  0  0
  185.8750  175.6470  136.1670 C   0  0  0  0  0  0  0  0  0  0  0  0
  183.4320  175.8410  138.0590 C   0  0  0  0  0  3  0  0  0  0  0  0
  183.3180  176.9650  137.3550 C   0  0  0  0  0  0  0  0  0  0  0  0
  185.1410  174.4780  136.7560 C   0  0  0  0  0  0  0  0  0  0  0  0
  182.6430  178.1130  139.3090 O   0  0  0  0  0  0  0  0  0  0  0  0
  183.0750  180.8590  139.1280 O   0  0  0  0  0  0  0  0  0  0  0  0
  182.5180  178.0830  137.9660 C   0  0  0  0  0  2  0  0  0  0  0  0
  185.0780  179.0520  138.9000 O   0  0  0  0  0  0  0  0  0  0  0  0
  183.6300  179.3610  138.5910 P   0  0  0  0  0  0  0  0  0  0  0  0
  184.4640  172.2650  136.2450 O   0  0  0  0  0  1  0  0  0  0  0  0
  185.5840  173.0790  136.4230 C   0  0  2  0  0  3  0  0  0  0  0  0
  186.4830  172.4900  137.5040 C   0  0  0  0  0  2  0  0  0  0  0  0
  187.9050  172.2740  137.0040 C   0  0  0  0  0  2  0  0  0  0  0  0
  188.9320  172.5620  134.7400 C   0  0  0  0  0  1  0  0  0  0  0  0
  187.8850  171.8190  135.5530 C   0  0  0  0  0  3  0  0  0  0  0  0
  188.1480  170.3330  135.4720 C   0  0  0  0  0  1  0  0  0  0  0  0
  193.7230  173.3130  137.1830 C   0  0  0  0  0  2  0  0  0  0  0  0
  194.2600  174.0660  134.9860 O   0  0  0  0  0  0  0  0  0  0  0  0
  194.6720  173.8470  136.1620 C   0  0  0  0  0  0  0  0  0  0  0  0
  196.7340  173.8590  137.7070 C   0  0  0  0  0  0  0  0  0  0  0  0
  196.0330  174.1840  136.4940 N   0  0  0  0  0  2  0  0  0  0  0  0
  198.0770  174.4530  137.9520 C   0  0  0  0  0  1  0  0  0  0  0  0
  196.2350  173.0470  138.5790 N   0  0  0  0  0  2  0  0  0  0  0  0
  1  5  2  0  0  0  0
  1 11  1  0  0  0  0
  2 10  2  0  0  0  0
  3  8  1  0  0  0  0
  4  9  1  0  0  0  0
  5 12  1  0  0  0  0
  6  9  1  0  0  0  0
  7  6  1  0  0  0  0
  8  4  2  0  0  0  0
  9 14  1  1  0  0  0
 10  3  1  0  0  0  0
 11  7  2  0  0  0  0
 12  8  1  0  0  0  0
 12  6  2  0  0  0  0
 13 18  1  0  0  0  0
 14 13  2  0  0  0  0
 14 15  1  0  0  0  0
 15 16  2  0  0  0  0
 16 19  1  0  0  0  0
 17 13  1  0  0  0  0
 18 19  2  0  0  0  0
 19 20  1  0  0  0  0
 20 21  1  0  0  0  0
 21 22  1  0  0  0  0
 23 29  1  6  0  0  0
 23 25  1  0  0  0  0
 23 28  1  0  0  0  0
 23 26  1  0  0  0  0
 24 21  1  6  0  0  0
 24 26  1  0  0  0  0
 25 24  1  0  0  0  0
 28 27  1  0  0  0  0
 30 29  1  0  0  0  0
 31 32  1  0  0  0  0
 31 30  1  0  0  0  0
 32 33  1  0  0  0  0
 35 34  1  6  0  0  0
 35 39  1  0  0  0  0
 35  1  1  0  0  0  0
 36 37  1  0  0  0  0
 36 39  2  0  0  0  0
 37 41  1  0  0  0  0
 38 40  1  0  0  0  0
 39 42  1  0  0  0  0
 41 45  1  0  0  0  0
 41 40  2  0  0  0  0
 42 38  2  0  0  0  0
 45 43  1  0  0  0  0
 47 46  2  0  0  0  0
 47 44  2  0  0  0  0
 47 43  1  0  0  0  0
 49 48  1  1  0  0  0
 49 42  1  0  0  0  0
 49 50  1  0  0  0  0
 51 50  1  0  0  0  0
 52 53  1  0  0  0  0
 53 51  1  0  0  0  0
 54 53  1  0  0  0  0
 55 10  1  0  0  0  0
 56 57  2  0  0  0  0
 57 59  1  0  0  0  0
 57 55  1  0  0  0  0
 58 60  1  0  0  0  0
 58 61  2  0  0  0  0
 59 58  1  0  0  0  0
M  END
>  <MODEL>
1

>  <REMARK>
 VINA RESULT:      -7.4      0.000      0.000
  Name = 
  18 active torsions:
  status: ('A' for Active; 'I' for Inactive)
    1  A    between atoms: C_2  and  C_40
    2  A    between atoms: C_7  and  C_30
    3  A    between atoms: C_7  and  C_49
    4  A    between atoms: N_11  and  C_36
    5  A    between atoms: C_15  and  C_18
    6  A    between atoms: C_17  and  C_41
    7  A    between atoms: C_18  and  C_48
    8  A    between atoms: C_20  and  C_40
    9  A    between atoms: C_21  and  C_22
   10  A    between atoms: C_21  and  C_53
   11  A    between atoms: C_22  and  C_46
   12  A    between atoms: C_23  and  C_30
   13  A    between atoms: N_24  and  C_38
   14  A    between atoms: N_24  and  C_43
   15  A    between atoms: C_32  and  C_44
   16  A    between atoms: C_36  and  C_49
   17  A    between atoms: C_38  and  C_58
   18  A    between atoms: C_42  and  C_53
                            x       y       z     vdW  Elec       q    Type
                         _______ _______ _______ _____ _____    ______ ____

>  <TORSDO>
F 18

$$$$
=
 OpenBabel11042413173D

 61 65  0  0  1  0  0  0  0  0999 V2000
  187.8910  175.6240  136.9010 C   0  0  0  0  0  0  0  0  0  0  0  0
  191.2290  173.4520  136.9520 O   0  0  0  0  0  0  0  0  0  0  0  0
  192.4900  175.3440  137.5530 N   0  0  0  0  0  2  0  0  0  0  0  0
  191.7460  177.0970  138.9850 N   0  0  0  0  0  0  0  0  0  0  0  0
  189.2790  175.3870  136.9650 C   0  0  0  0  0  3  0  0  0  0  0  0
  189.4400  176.9420  138.8070 C   0  0  0  0  0  0  0  0  0  0  0  0
  188.0720  177.2180  138.7550 C   0  0  0  0  0  3  0  0  0  0  0  0
  191.4630  176.1740  138.1160 C   0  0  0  0  0  0  0  0  0  0  0  0
  190.5180  177.6790  139.5340 C   0  0  1  0  0  3  0  0  0  0  0  0
  192.3640  173.9950  137.0810 C   0  0  0  0  0  0  0  0  0  0  0  0
  187.2920  176.5340  137.8040 C   0  0  0  0  0  3  0  0  0  0  0  0
  190.0230  176.0430  137.9480 C   0  0  0  0  0  0  0  0  0  0  0  0
  189.5170  178.1590  141.8080 C   0  0  0  0  0  0  0  0  0  0  0  0
  190.4860  177.4910  141.0370 C   0  0  0  0  0  0  0  0  0  0  0  0
  191.5430  176.8500  141.6940 C   0  0  0  0  0  3  0  0  0  0  0  0
  191.6320  176.9000  143.0890 C   0  0  0  0  0  3  0  0  0  0  0  0
  188.4300  178.9570  141.1580 C   0  0  0  0  0  1  0  0  0  0  0  0
  189.6220  178.1920  143.1660 N   0  0  0  0  0  0  0  0  0  0  0  0
  190.6700  177.6060  143.8100 C   0  0  0  0  0  0  0  0  0  0  0  0
  190.8240  177.7530  145.2900 C   0  0  0  0  0  2  0  0  0  0  0  0
  189.9000  176.8640  145.9850 N   0  0  0  0  0  0  0  0  0  0  0  0
  190.6510  176.0000  146.7130 O   0  0  0  0  0  1  0  0  0  0  0  0
  187.1230  177.9810  146.5220 C   0  0  1  0  0  0  0  0  0  0  0  0
  189.0790  177.6860  146.8790 C   0  0  1  0  0  3  0  0  0  0  0  0
  188.3210  178.5870  146.0960 O   0  0  0  0  0  0  0  0  0  0  0  0
  187.8370  176.9680  147.3820 C   0  0  0  0  0  2  0  0  0  0  0  0
  184.9630  178.6140  147.3910 O   0  0  0  0  0  1  0  0  0  0  0  0
  186.3140  178.9720  147.3530 C   0  0  0  0  0  2  0  0  0  0  0  0
  186.2910  177.4030  145.3690 C   0  0  0  0  0  2  0  0  0  0  0  0
  186.4800  178.1160  144.0260 C   0  0  0  0  0  2  0  0  0  0  0  0
  185.2020  178.8210  143.6030 C   0  0  0  0  0  2  0  0  0  0  0  0
  184.0470  178.1720  144.2100 N   0  0  0  0  0  2  0  0  0  0  0  0
  182.9940  178.9970  144.0120 O   0  0  0  0  0  1  0  0  0  0  0  0
  187.4110  175.2640  134.5940 O   0  0  0  0  0  1  0  0  0  0  0  0
  187.0240  174.9250  135.8960 C   0  0  2  0  0  3  0  0  0  0  0  0
  184.9310  176.0410  135.4050 C   0  0  0  0  0  3  0  0  0  0  0  0
  183.4640  176.3250  135.4280 C   0  0  0  0  0  2  0  0  0  0  0  0
  183.7570  174.6830  137.8620 C   0  0  0  0  0  3  0  0  0  0  0  0
  185.5360  175.0960  136.1380 C   0  0  0  0  0  0  0  0  0  0  0  0
  183.1220  176.0170  137.8430 C   0  0  0  0  0  3  0  0  0  0  0  0
  183.0170  176.8060  136.7770 C   0  0  0  0  0  0  0  0  0  0  0  0
  184.7910  174.2380  137.1190 C   0  0  0  0  0  0  0  0  0  0  0  0
  181.6150  178.4430  135.8010 O   0  0  0  0  0  0  0  0  0  0  0  0
  179.3150  178.9010  137.3040 O   0  0  0  0  0  0  0  0  0  0  0  0
  182.2420  178.0860  136.9410 C   0  0  0  0  0  2  0  0  0  0  0  0
  179.9360  176.4650  136.2980 O   0  0  0  0  0  0  0  0  0  0  0  0
  180.4700  177.7380  136.9160 P   0  0  0  0  0  0  0  0  0  0  0  0
  186.5990  172.7260  137.3680 O   0  0  0  0  0  1  0  0  0  0  0  0
  185.2070  172.8050  137.3190 C   0  0  2  0  0  3  0  0  0  0  0  0
  184.6780  171.8950  136.2170 C   0  0  0  0  0  2  0  0  0  0  0  0
  183.7100  172.6250  135.2940 C   0  0  0  0  0  2  0  0  0  0  0  0
  181.9150  171.6480  136.7390 C   0  0  0  0  0  1  0  0  0  0  0  0
  182.3530  171.9390  135.3130 C   0  0  0  0  0  3  0  0  0  0  0  0
  181.3210  172.8120  134.6380 C   0  0  0  0  0  1  0  0  0  0  0  0
  193.6010  173.1750  136.8750 C   0  0  0  0  0  2  0  0  0  0  0  0
  194.8020  174.4070  135.2250 O   0  0  0  0  0  0  0  0  0  0  0  0
  194.7550  174.0070  136.4250 C   0  0  0  0  0  0  0  0  0  0  0  0
  196.0110  173.9470  138.6730 C   0  0  0  0  0  0  0  0  0  0  0  0
  195.7920  174.4240  137.3350 N   0  0  0  0  0  2  0  0  0  0  0  0
  197.0170  174.6300  139.5330 C   0  0  0  0  0  1  0  0  0  0  0  0
  195.3720  172.9260  139.1400 N   0  0  0  0  0  2  0  0  0  0  0  0
  1  5  2  0  0  0  0
  1 11  1  0  0  0  0
  2 10  2  0  0  0  0
  3  8  1  0  0  0  0
  4  9  1  0  0  0  0
  5 12  1  0  0  0  0
  6  9  1  0  0  0  0
  7  6  1  0  0  0  0
  8  4  2  0  0  0  0
  9 14  1  1  0  0  0
 10  3  1  0  0  0  0
 11  7  2  0  0  0  0
 12  8  1  0  0  0  0
 12  6  2  0  0  0  0
 13 18  1  0  0  0  0
 14 15  1  0  0  0  0
 14 13  2  0  0  0  0
 15 16  2  0  0  0  0
 16 19  1  0  0  0  0
 17 13  1  0  0  0  0
 18 19  2  0  0  0  0
 19 20  1  0  0  0  0
 20 21  1  0  0  0  0
 21 22  1  0  0  0  0
 23 29  1  6  0  0  0
 23 28  1  0  0  0  0
 23 26  1  0  0  0  0
 24 21  1  6  0  0  0
 24 26  1  0  0  0  0
 25 23  1  0  0  0  0
 25 24  1  0  0  0  0
 28 27  1  0  0  0  0
 30 29  1  0  0  0  0
 31 30  1  0  0  0  0
 31 32  1  0  0  0  0
 33 32  1  0  0  0  0
 35 34  1  6  0  0  0
 35 39  1  0  0  0  0
 35  1  1  0  0  0  0
 36 37  1  0  0  0  0
 36 39  2  0  0  0  0
 37 41  1  0  0  0  0
 39 42  1  0  0  0  0
 40 38  1  0  0  0  0
 41 45  1  0  0  0  0
 41 40  2  0  0  0  0
 42 49  1  0  0  0  0
 42 38  2  0  0  0  0
 43 47  1  0  0  0  0
 43 45  1  0  0  0  0
 46 47  2  0  0  0  0
 47 44  2  0  0  0  0
 49 48  1  6  0  0  0
 50 49  1  0  0  0  0
 51 53  1  0  0  0  0
 51 50  1  0  0  0  0
 53 52  1  0  0  0  0
 54 53  1  0  0  0  0
 55 10  1  0  0  0  0
 56 57  2  0  0  0  0
 57 55  1  0  0  0  0
 57 59  1  0  0  0  0
 58 61  2  0  0  0  0
 58 60  1  0  0  0  0
 59 58  1  0  0  0  0
M  END
>  <MODEL>
2

>  <REMARK>
 VINA RESULT:      -6.5      1.572      2.175
  Name = 
  18 active torsions:
  status: ('A' for Active; 'I' for Inactive)
    1  A    between atoms: C_2  and  C_40
    2  A    between atoms: C_7  and  C_30
    3  A    between atoms: C_7  and  C_49
    4  A    between atoms: N_11  and  C_36
    5  A    between atoms: C_15  and  C_18
    6  A    between atoms: C_17  and  C_41
    7  A    between atoms: C_18  and  C_48
    8  A    between atoms: C_20  and  C_40
    9  A    between atoms: C_21  and  C_22
   10  A    between atoms: C_21  and  C_53
   11  A    between atoms: C_22  and  C_46
   12  A    between atoms: C_23  and  C_30
   13  A    between atoms: N_24  and  C_38
   14  A    between atoms: N_24  and  C_43
   15  A    between atoms: C_32  and  C_44
   16  A    between atoms: C_36  and  C_49
   17  A    between atoms: C_38  and  C_58
   18  A    between atoms: C_42  and  C_53
                            x       y       z     vdW  Elec       q    Type
                         _______ _______ _______ _____ _____    ______ ____

>  <TORSDO>
F 18

$$$$
=
 OpenBabel11042413173D

 61 65  0  0  1  0  0  0  0  0999 V2000
  188.0580  177.9070  140.3400 C   0  0  0  0  0  0  0  0  0  0  0  0
  185.5570  176.9590  137.3890 O   0  0  0  0  0  0  0  0  0  0  0  0
  187.2170  177.4240  135.7880 N   0  0  0  0  0  2  0  0  0  0  0  0
  189.5460  177.0000  136.0580 N   0  0  0  0  0  0  0  0  0  0  0  0
  187.6100  177.8020  139.0070 C   0  0  0  0  0  3  0  0  0  0  0  0
  189.7840  176.9690  138.3630 C   0  0  0  0  0  0  0  0  0  0  0  0
  190.2670  177.0830  139.6690 C   0  0  0  0  0  3  0  0  0  0  0  0
  188.3990  177.2900  136.5930 C   0  0  0  0  0  0  0  0  0  0  0  0
  190.5480  176.7480  137.0970 C   0  0  1  0  0  3  0  0  0  0  0  0
  185.8600  177.1680  136.1790 C   0  0  0  0  0  0  0  0  0  0  0  0
  189.3840  177.5380  140.6660 C   0  0  0  0  0  3  0  0  0  0  0  0
  188.4910  177.3040  138.0450 C   0  0  0  0  0  0  0  0  0  0  0  0
  192.4160  175.0620  137.3680 C   0  0  0  0  0  0  0  0  0  0  0  0
  191.1020  175.3460  136.9490 C   0  0  0  0  0  0  0  0  0  0  0  0
  190.4160  174.3870  136.1940 C   0  0  0  0  0  3  0  0  0  0  0  0
  191.0440  173.1860  135.8520 C   0  0  0  0  0  3  0  0  0  0  0  0
  193.2380  176.0920  138.0780 C   0  0  0  0  0  1  0  0  0  0  0  0
  193.0060  173.8830  137.0260 N   0  0  0  0  0  0  0  0  0  0  0  0
  192.3600  172.9640  136.2560 C   0  0  0  0  0  0  0  0  0  0  0  0
  193.0690  171.7290  135.7990 C   0  0  0  0  0  2  0  0  0  0  0  0
  193.9180  172.0290  134.6520 N   0  0  0  0  0  0  0  0  0  0  0  0
  194.1360  173.3680  134.6590 O   0  0  0  0  0  1  0  0  0  0  0  0
  196.2890  171.5680  136.4980 C   0  0  1  0  0  0  0  0  0  0  0  0
  195.1860  171.3170  134.8370 C   0  0  1  0  0  3  0  0  0  0  0  0
  196.1640  172.2420  135.2680 O   0  0  0  0  0  0  0  0  0  0  0  0
  195.2490  170.5360  136.1390 C   0  0  0  0  0  2  0  0  0  0  0  0
  197.7150  169.9400  137.5650 O   0  0  0  0  0  1  0  0  0  0  0  0
  197.6850  170.9630  136.6120 C   0  0  0  0  0  2  0  0  0  0  0  0
  195.9580  172.4500  137.7100 C   0  0  0  0  0  2  0  0  0  0  0  0
  196.3390  173.9250  137.5490 C   0  0  0  0  0  2  0  0  0  0  0  0
  197.4460  174.3060  138.5190 C   0  0  0  0  0  2  0  0  0  0  0  0
  198.2810  175.3510  137.9410 N   0  0  0  0  0  2  0  0  0  0  0  0
  197.6420  175.7840  136.8310 O   0  0  0  0  0  1  0  0  0  0  0  0
  186.6250  179.6530  141.1040 O   0  0  0  0  0  1  0  0  0  0  0  0
  187.1540  178.3990  141.4320 C   0  0  2  0  0  3  0  0  0  0  0  0
  189.1120  178.4720  142.8560 C   0  0  0  0  0  3  0  0  0  0  0  0
  189.9210  178.5320  144.1110 C   0  0  0  0  0  2  0  0  0  0  0  0
  187.3420  177.5500  145.1520 C   0  0  0  0  0  3  0  0  0  0  0  0
  187.7770  178.3580  142.8150 C   0  0  0  0  0  0  0  0  0  0  0  0
  188.6340  176.8770  145.3940 C   0  0  0  0  0  3  0  0  0  0  0  0
  189.8090  177.2620  144.9010 C   0  0  0  0  0  0  0  0  0  0  0  0
  186.9420  178.2240  144.0540 C   0  0  0  0  0  0  0  0  0  0  0  0
  191.9820  177.3230  145.8330 O   0  0  0  0  0  0  0  0  0  0  0  0
  192.2530  175.6010  148.0050 O   0  0  0  0  0  0  0  0  0  0  0  0
  191.0280  176.5010  145.3490 C   0  0  0  0  0  2  0  0  0  0  0  0
  190.4360  177.6070  147.9550 O   0  0  0  0  0  0  0  0  0  0  0  0
  191.1460  176.5420  147.1510 P   0  0  0  0  0  0  0  0  0  0  0  0
  185.1830  179.0220  145.4280 O   0  0  0  0  0  1  0  0  0  0  0  0
  185.5730  178.8500  144.1000 C   0  0  2  0  0  3  0  0  0  0  0  0
  184.5360  178.0120  143.3620 C   0  0  0  0  0  2  0  0  0  0  0  0
  183.1830  178.7100  143.2980 C   0  0  0  0  0  2  0  0  0  0  0  0
  183.4410  177.8910  140.9470 C   0  0  0  0  0  1  0  0  0  0  0  0
  182.7680  178.9110  141.8490 C   0  0  0  0  0  3  0  0  0  0  0  0
  181.2680  178.7860  141.7180 C   0  0  0  0  0  1  0  0  0  0  0  0
  184.8140  177.0050  135.1180 C   0  0  0  0  0  2  0  0  0  0  0  0
  184.6080  174.6690  134.6850 O   0  0  0  0  0  0  0  0  0  0  0  0
  184.1050  175.6960  135.2280 C   0  0  0  0  0  0  0  0  0  0  0  0
  182.0790  176.6080  136.5320 C   0  0  0  0  0  0  0  0  0  0  0  0
  182.8900  175.5530  135.9900 N   0  0  0  0  0  2  0  0  0  0  0  0
  180.9620  176.2660  137.4540 C   0  0  0  0  0  1  0  0  0  0  0  0
  182.2830  177.8460  136.2200 N   0  0  0  0  0  2  0  0  0  0  0  0
  1 11  1  0  0  0  0
  1 35  1  0  0  0  0
  3 10  1  0  0  0  0
  3  8  1  0  0  0  0
  4  8  2  0  0  0  0
  4  9  1  0  0  0  0
  5  1  2  0  0  0  0
  6  7  1  0  0  0  0
  7 11  2  0  0  0  0
  8 12  1  0  0  0  0
  9 14  1  1  0  0  0
  9  6  1  0  0  0  0
 10  2  2  0  0  0  0
 12  6  2  0  0  0  0
 12  5  1  0  0  0  0
 13 17  1  0  0  0  0
 14 13  2  0  0  0  0
 15 14  1  0  0  0  0
 16 15  2  0  0  0  0
 16 19  1  0  0  0  0
 18 13  1  0  0  0  0
 19 18  2  0  0  0  0
 20 19  1  0  0  0  0
 21 22  1  0  0  0  0
 21 20  1  0  0  0  0
 23 28  1  1  0  0  0
 23 29  1  0  0  0  0
 24 21  1  1  0  0  0
 24 25  1  0  0  0  0
 24 26  1  0  0  0  0
 25 23  1  0  0  0  0
 26 23  1  0  0  0  0
 28 27  1  0  0  0  0
 30 29  1  0  0  0  0
 30 31  1  0  0  0  0
 32 31  1  0  0  0  0
 33 32  1  0  0  0  0
 35 34  1  6  0  0  0
 35 39  1  0  0  0  0
 36 37  1  0  0  0  0
 37 41  1  0  0  0  0
 38 40  1  0  0  0  0
 39 36  2  0  0  0  0
 39 42  1  0  0  0  0
 41 45  1  0  0  0  0
 41 40  2  0  0  0  0
 42 49  1  0  0  0  0
 42 38  2  0  0  0  0
 43 47  1  0  0  0  0
 45 43  1  0  0  0  0
 47 46  2  0  0  0  0
 47 44  2  0  0  0  0
 49 48  1  1  0  0  0
 50 49  1  0  0  0  0
 51 50  1  0  0  0  0
 52 53  1  0  0  0  0
 53 51  1  0  0  0  0
 54 53  1  0  0  0  0
 55 57  1  0  0  0  0
 55 10  1  0  0  0  0
 56 57  2  0  0  0  0
 57 59  1  0  0  0  0
 58 60  1  0  0  0  0
 59 58  1  0  0  0  0
 61 58  2  0  0  0  0
M  END
>  <MODEL>
3

>  <REMARK>
 VINA RESULT:      -6.4      3.246     10.728
  Name = 
  18 active torsions:
  status: ('A' for Active; 'I' for Inactive)
    1  A    between atoms: C_2  and  C_40
    2  A    between atoms: C_7  and  C_30
    3  A    between atoms: C_7  and  C_49
    4  A    between atoms: N_11  and  C_36
    5  A    between atoms: C_15  and  C_18
    6  A    between atoms: C_17  and  C_41
    7  A    between atoms: C_18  and  C_48
    8  A    between atoms: C_20  and  C_40
    9  A    between atoms: C_21  and  C_22
   10  A    between atoms: C_21  and  C_53
   11  A    between atoms: C_22  and  C_46
   12  A    between atoms: C_23  and  C_30
   13  A    between atoms: N_24  and  C_38
   14  A    between atoms: N_24  and  C_43
   15  A    between atoms: C_32  and  C_44
   16  A    between atoms: C_36  and  C_49
   17  A    between atoms: C_38  and  C_58
   18  A    between atoms: C_42  and  C_53
                            x       y       z     vdW  Elec       q    Type
                         _______ _______ _______ _____ _____    ______ ____

>  <TORSDO>
F 18

$$$$
=
 OpenBabel11042413173D

 61 65  0  0  1  0  0  0  0  0999 V2000
  185.7440  178.1190  138.6340 C   0  0  0  0  0  0  0  0  0  0  0  0
  183.3560  175.1100  137.5860 O   0  0  0  0  0  0  0  0  0  0  0  0
  184.1030  175.2480  135.3600 N   0  0  0  0  0  2  0  0  0  0  0  0
  186.3240  175.7870  134.6840 N   0  0  0  0  0  0  0  0  0  0  0  0
  185.0780  177.2430  137.7530 C   0  0  0  0  0  3  0  0  0  0  0  0
  187.1320  176.9570  136.5150 C   0  0  0  0  0  0  0  0  0  0  0  0
  187.8160  177.8390  137.3540 C   0  0  0  0  0  3  0  0  0  0  0  0
  185.3620  175.9110  135.5490 C   0  0  0  0  0  0  0  0  0  0  0  0
  187.5510  176.4100  135.1880 C   0  0  1  0  0  3  0  0  0  0  0  0
  183.1950  174.7900  136.3730 C   0  0  0  0  0  0  0  0  0  0  0  0
  187.1160  178.4070  138.4340 C   0  0  0  0  0  3  0  0  0  0  0  0
  185.8080  176.6560  136.7170 C   0  0  0  0  0  0  0  0  0  0  0  0
  189.9830  175.7460  134.9730 C   0  0  0  0  0  0  0  0  0  0  0  0
  188.6570  175.3780  135.2680 C   0  0  0  0  0  0  0  0  0  0  0  0
  188.3510  174.0190  135.4030 C   0  0  0  0  0  3  0  0  0  0  0  0
  189.3490  173.0570  135.2240 C   0  0  0  0  0  3  0  0  0  0  0  0
  190.3460  177.1730  134.7050 C   0  0  0  0  0  1  0  0  0  0  0  0
  190.9400  174.7910  134.8070 N   0  0  0  0  0  0  0  0  0  0  0  0
  190.6410  173.4650  134.8960 C   0  0  0  0  0  0  0  0  0  0  0  0
  191.6830  172.4340  134.5970 C   0  0  0  0  0  2  0  0  0  0  0  0
  192.9650  172.8320  135.1680 N   0  0  0  0  0  0  0  0  0  0  0  0
  192.8200  172.8200  136.5170 O   0  0  0  0  0  1  0  0  0  0  0  0
  195.6320  171.5360  135.8410 C   0  0  1  0  0  0  0  0  0  0  0  0
  193.9600  171.8340  134.7650 C   0  0  1  0  0  3  0  0  0  0  0  0
  195.2420  172.4270  134.8220 O   0  0  0  0  0  0  0  0  0  0  0  0
  194.2930  170.8410  135.8670 C   0  0  0  0  0  2  0  0  0  0  0  0
  197.8080  170.5710  136.2320 O   0  0  0  0  0  1  0  0  0  0  0  0
  196.7430  170.6250  135.3280 C   0  0  0  0  0  2  0  0  0  0  0  0
  196.0390  172.2420  137.1420 C   0  0  0  0  0  2  0  0  0  0  0  0
  196.2940  173.7460  136.9990 C   0  0  0  0  0  2  0  0  0  0  0  0
  197.0790  174.2760  138.1870 C   0  0  0  0  0  2  0  0  0  0  0  0
  198.0370  175.2810  137.7460 N   0  0  0  0  0  2  0  0  0  0  0  0
  197.6470  175.6700  136.5120 O   0  0  0  0  0  1  0  0  0  0  0  0
  184.6780  180.0750  139.4830 O   0  0  0  0  0  1  0  0  0  0  0  0
  185.0330  178.7560  139.7910 C   0  0  2  0  0  3  0  0  0  0  0  0
  187.1040  178.6260  141.0390 C   0  0  0  0  0  3  0  0  0  0  0  0
  188.0200  178.5870  142.2190 C   0  0  0  0  0  2  0  0  0  0  0  0
  185.4620  177.8090  143.4670 C   0  0  0  0  0  3  0  0  0  0  0  0
  185.7650  178.6290  141.1130 C   0  0  0  0  0  0  0  0  0  0  0  0
  186.7060  177.0210  143.5850 C   0  0  0  0  0  3  0  0  0  0  0  0
  187.8640  177.3130  142.9960 C   0  0  0  0  0  0  0  0  0  0  0  0
  185.0310  178.5410  142.4190 C   0  0  0  0  0  0  0  0  0  0  0  0
  190.0960  176.6930  142.5190 O   0  0  0  0  0  0  0  0  0  0  0  0
  191.7170  176.7420  144.7840 O   0  0  0  0  0  0  0  0  0  0  0  0
  189.0440  176.4390  143.3250 C   0  0  0  0  0  2  0  0  0  0  0  0
  190.3980  178.9310  143.8900 O   0  0  0  0  0  0  0  0  0  0  0  0
  190.3500  177.4320  144.0810 P   0  0  0  0  0  0  0  0  0  0  0  0
  183.5910  179.6670  143.9270 O   0  0  0  0  0  1  0  0  0  0  0  0
  183.7330  179.2820  142.5930 C   0  0  2  0  0  3  0  0  0  0  0  0
  182.5330  178.4440  142.1680 C   0  0  0  0  0  2  0  0  0  0  0  0
  181.6710  179.1670  141.1400 C   0  0  0  0  0  2  0  0  0  0  0  0
  180.4400  177.1210  140.3890 C   0  0  0  0  0  1  0  0  0  0  0  0
  180.3130  178.4920  141.0320 C   0  0  0  0  0  3  0  0  0  0  0  0
  179.6940  178.3490  142.4030 C   0  0  0  0  0  1  0  0  0  0  0  0
  182.1270  173.8050  136.0050 C   0  0  0  0  0  2  0  0  0  0  0  0
  182.6930  171.7930  137.1510 O   0  0  0  0  0  0  0  0  0  0  0  0
  181.9130  172.7860  137.0740 C   0  0  0  0  0  0  0  0  0  0  0  0
  179.7980  173.8820  138.0540 C   0  0  0  0  0  0  0  0  0  0  0  0
  180.8770  172.9330  138.0650 N   0  0  0  0  0  2  0  0  0  0  0  0
  178.9310  174.0120  139.2580 C   0  0  0  0  0  1  0  0  0  0  0  0
  179.5480  174.6110  137.0170 N   0  0  0  0  0  2  0  0  0  0  0  0
  1 35  1  0  0  0  0
  3  8  1  0  0  0  0
  3 10  1  0  0  0  0
  4  9  1  0  0  0  0
  4  8  2  0  0  0  0
  5  1  2  0  0  0  0
  6 12  2  0  0  0  0
  6  7  1  0  0  0  0
  7 11  2  0  0  0  0
  8 12  1  0  0  0  0
  9 14  1  1  0  0  0
  9  6  1  0  0  0  0
 10  2  2  0  0  0  0
 11  1  1  0  0  0  0
 12  5  1  0  0  0  0
 13 14  1  0  0  0  0
 14 15  2  0  0  0  0
 16 15  1  0  0  0  0
 17 13  1  0  0  0  0
 18 19  1  0  0  0  0
 18 13  2  0  0  0  0
 19 16  2  0  0  0  0
 20 19  1  0  0  0  0
 20 21  1  0  0  0  0
 21 22  1  0  0  0  0
 23 28  1  6  0  0  0
 23 26  1  0  0  0  0
 23 29  1  0  0  0  0
 24 25  1  0  0  0  0
 24 21  1  1  0  0  0
 24 26  1  0  0  0  0
 25 23  1  0  0  0  0
 28 27  1  0  0  0  0
 30 29  1  0  0  0  0
 30 31  1  0  0  0  0
 32 31  1  0  0  0  0
 33 32  1  0  0  0  0
 35 34  1  6  0  0  0
 35 39  1  0  0  0  0
 36 39  2  0  0  0  0
 36 37  1  0  0  0  0
 37 41  1  0  0  0  0
 38 40  1  0  0  0  0
 39 42  1  0  0  0  0
 41 45  1  0  0  0  0
 41 40  2  0  0  0  0
 42 49  1  0  0  0  0
 42 38  2  0  0  0  0
 43 45  1  0  0  0  0
 43 47  1  0  0  0  0
 46 47  2  0  0  0  0
 47 44  2  0  0  0  0
 49 48  1  1  0  0  0
 50 49  1  0  0  0  0
 51 50  1  0  0  0  0
 52 53  1  0  0  0  0
 53 51  1  0  0  0  0
 53 54  1  0  0  0  0
 55 10  1  0  0  0  0
 55 57  1  0  0  0  0
 57 56  2  0  0  0  0
 57 59  1  0  0  0  0
 58 59  1  0  0  0  0
 58 60  1  0  0  0  0
 61 58  2  0  0  0  0
M  END
>  <MODEL>
4

>  <REMARK>
 VINA RESULT:      -5.8      3.467     10.859
  Name = 
  18 active torsions:
  status: ('A' for Active; 'I' for Inactive)
    1  A    between atoms: C_2  and  C_40
    2  A    between atoms: C_7  and  C_30
    3  A    between atoms: C_7  and  C_49
    4  A    between atoms: N_11  and  C_36
    5  A    between atoms: C_15  and  C_18
    6  A    between atoms: C_17  and  C_41
    7  A    between atoms: C_18  and  C_48
    8  A    between atoms: C_20  and  C_40
    9  A    between atoms: C_21  and  C_22
   10  A    between atoms: C_21  and  C_53
   11  A    between atoms: C_22  and  C_46
   12  A    between atoms: C_23  and  C_30
   13  A    between atoms: N_24  and  C_38
   14  A    between atoms: N_24  and  C_43
   15  A    between atoms: C_32  and  C_44
   16  A    between atoms: C_36  and  C_49
   17  A    between atoms: C_38  and  C_58
   18  A    between atoms: C_42  and  C_53
                            x       y       z     vdW  Elec       q    Type
                         _______ _______ _______ _____ _____    ______ ____

>  <TORSDO>
F 18

$$$$
=
 OpenBabel11042413173D

 61 65  0  0  1  0  0  0  0  0999 V2000
  186.1750  178.0270  137.9420 C   0  0  0  0  0  0  0  0  0  0  0  0
  188.2630  178.9680  141.1990 O   0  0  0  0  0  0  0  0  0  0  0  0
  189.3450  176.8800  141.1490 N   0  0  0  0  0  2  0  0  0  0  0  0
  189.9770  175.7040  139.1760 N   0  0  0  0  0  0  0  0  0  0  0  0
  187.0330  177.8030  139.0370 C   0  0  0  0  0  3  0  0  0  0  0  0
  188.5290  176.5760  137.5900 C   0  0  0  0  0  0  0  0  0  0  0  0
  187.6890  176.7590  136.4890 C   0  0  0  0  0  3  0  0  0  0  0  0
  189.1660  176.5270  139.7690 C   0  0  0  0  0  0  0  0  0  0  0  0
  189.6880  175.6450  137.7400 C   0  0  1  0  0  3  0  0  0  0  0  0
  188.9770  178.1090  141.7930 C   0  0  0  0  0  0  0  0  0  0  0  0
  186.5120  177.5100  136.6680 C   0  0  0  0  0  3  0  0  0  0  0  0
  188.2170  177.0950  138.8220 C   0  0  0  0  0  0  0  0  0  0  0  0
  191.0950  175.5880  135.6370 C   0  0  0  0  0  0  0  0  0  0  0  0
  190.9140  176.0580  136.9520 C   0  0  0  0  0  0  0  0  0  0  0  0
  191.9810  176.7060  137.5860 C   0  0  0  0  0  3  0  0  0  0  0  0
  193.2020  176.8570  136.9220 C   0  0  0  0  0  3  0  0  0  0  0  0
  190.0310  174.7890  134.9510 C   0  0  0  0  0  1  0  0  0  0  0  0
  192.2920  175.7510  135.0080 N   0  0  0  0  0  0  0  0  0  0  0  0
  193.3470  176.3430  135.6330 C   0  0  0  0  0  0  0  0  0  0  0  0
  194.6830  176.4070  134.9640 C   0  0  0  0  0  2  0  0  0  0  0  0
  195.6810  175.7020  135.7600 N   0  0  0  0  0  0  0  0  0  0  0  0
  195.2080  175.6440  137.0300 O   0  0  0  0  0  1  0  0  0  0  0  0
  196.8570  172.9300  136.1810 C   0  0  1  0  0  0  0  0  0  0  0  0
  195.8100  174.3470  135.2140 C   0  0  1  0  0  3  0  0  0  0  0  0
  197.1690  173.9630  135.2770 O   0  0  0  0  0  0  0  0  0  0  0  0
  195.3860  173.2640  136.1920 C   0  0  0  0  0  2  0  0  0  0  0  0
  197.7960  170.7200  136.4120 O   0  0  0  0  0  1  0  0  0  0  0  0
  197.1340  171.5770  135.5290 C   0  0  0  0  0  2  0  0  0  0  0  0
  197.5780  173.0620  137.5290 C   0  0  0  0  0  2  0  0  0  0  0  0
  198.4820  174.2930  137.6490 C   0  0  0  0  0  2  0  0  0  0  0  0
  198.2950  174.9720  138.9970 C   0  0  0  0  0  2  0  0  0  0  0  0
  196.9280  174.7900  139.4640 N   0  0  0  0  0  2  0  0  0  0  0  0
  196.8030  175.5320  140.5870 O   0  0  0  0  0  1  0  0  0  0  0  0
  184.9970  179.6950  139.1720 O   0  0  0  0  0  1  0  0  0  0  0  0
  184.9040  178.8120  138.0900 C   0  0  2  0  0  3  0  0  0  0  0  0
  183.7520  176.8010  138.7920 C   0  0  0  0  0  3  0  0  0  0  0  0
  182.6230  175.8460  139.0140 C   0  0  0  0  0  2  0  0  0  0  0  0
  181.5060  177.5530  136.8830 C   0  0  0  0  0  3  0  0  0  0  0  0
  183.6510  177.9580  138.1230 C   0  0  0  0  0  0  0  0  0  0  0  0
  181.5750  176.0800  136.8030 C   0  0  0  0  0  3  0  0  0  0  0  0
  182.1170  175.2820  137.7200 C   0  0  0  0  0  0  0  0  0  0  0  0
  182.3750  178.4010  137.4690 C   0  0  0  0  0  0  0  0  0  0  0  0
  181.8360  173.4950  136.1950 O   0  0  0  0  0  0  0  0  0  0  0  0
  183.7890  171.5310  136.4920 O   0  0  0  0  0  0  0  0  0  0  0  0
  181.9960  173.7970  137.5000 C   0  0  0  0  0  2  0  0  0  0  0  0
  184.3900  174.1060  135.9070 O   0  0  0  0  0  0  0  0  0  0  0  0
  183.4830  173.1770  136.6820 P   0  0  0  0  0  0  0  0  0  0  0  0
  181.8640  180.3370  138.7370 O   0  0  0  0  0  1  0  0  0  0  0  0
  182.0270  179.8660  137.4350 C   0  0  2  0  0  3  0  0  0  0  0  0
  180.7630  180.1350  136.6270 C   0  0  0  0  0  2  0  0  0  0  0  0
  180.7820  181.5170  135.9870 C   0  0  0  0  0  2  0  0  0  0  0  0
  178.9310  181.6350  137.6670 C   0  0  0  0  0  1  0  0  0  0  0  0
  179.7510  182.4150  136.6530 C   0  0  0  0  0  3  0  0  0  0  0  0
  180.4400  183.5690  137.3450 C   0  0  0  0  0  1  0  0  0  0  0  0
  189.5680  178.4380  143.1300 C   0  0  0  0  0  2  0  0  0  0  0  0
  187.6770  177.5000  144.2380 O   0  0  0  0  0  0  0  0  0  0  0  0
  188.9330  177.6550  144.2300 C   0  0  0  0  0  0  0  0  0  0  0  0
  191.1170  177.2000  145.5180 C   0  0  0  0  0  0  0  0  0  0  0  0
  189.7170  177.0120  145.2540 N   0  0  0  0  0  2  0  0  0  0  0  0
  191.8000  176.3080  146.4960 C   0  0  0  0  0  1  0  0  0  0  0  0
  191.7940  178.1380  144.9420 N   0  0  0  0  0  2  0  0  0  0  0  0
  1 35  1  0  0  0  0
  1  5  1  0  0  0  0
  2 10  2  0  0  0  0
  3 10  1  0  0  0  0
  4  8  2  0  0  0  0
  6  9  1  0  0  0  0
  6 12  1  0  0  0  0
  7 11  1  0  0  0  0
  7  6  2  0  0  0  0
  8  3  1  0  0  0  0
  9 14  1  6  0  0  0
  9  4  1  0  0  0  0
 10 55  1  0  0  0  0
 11  1  2  0  0  0  0
 12  5  2  0  0  0  0
 12  8  1  0  0  0  0
 13 14  1  0  0  0  0
 14 15  2  0  0  0  0
 16 15  1  0  0  0  0
 17 13  1  0  0  0  0
 18 19  1  0  0  0  0
 18 13  2  0  0  0  0
 19 16  2  0  0  0  0
 20 19  1  0  0  0  0
 20 21  1  0  0  0  0
 21 22  1  0  0  0  0
 23 28  1  6  0  0  0
 23 26  1  0  0  0  0
 23 29  1  0  0  0  0
 24 25  1  0  0  0  0
 24 21  1  1  0  0  0
 24 26  1  0  0  0  0
 25 23  1  0  0  0  0
 28 27  1  0  0  0  0
 29 30  1  0  0  0  0
 30 31  1  0  0  0  0
 31 32  1  0  0  0  0
 32 33  1  0  0  0  0
 35 39  1  0  0  0  0
 35 34  1  1  0  0  0
 36 37  1  0  0  0  0
 38 42  2  0  0  0  0
 39 36  2  0  0  0  0
 40 38  1  0  0  0  0
 40 41  2  0  0  0  0
 41 37  1  0  0  0  0
 42 39  1  0  0  0  0
 43 47  1  0  0  0  0
 43 45  1  0  0  0  0
 44 47  2  0  0  0  0
 45 41  1  0  0  0  0
 46 47  2  0  0  0  0
 49 42  1  0  0  0  0
 49 48  1  1  0  0  0
 50 49  1  0  0  0  0
 51 50  1  0  0  0  0
 51 53  1  0  0  0  0
 53 54  1  0  0  0  0
 53 52  1  0  0  0  0
 55 57  1  0  0  0  0
 57 56  2  0  0  0  0
 57 59  1  0  0  0  0
 58 60  1  0  0  0  0
 59 58  1  0  0  0  0
 61 58  2  0  0  0  0
M  END
>  <MODEL>
5

>  <REMARK>
 VINA RESULT:      -5.7      2.771      9.584
  Name = 
  18 active torsions:
  status: ('A' for Active; 'I' for Inactive)
    1  A    between atoms: C_2  and  C_40
    2  A    between atoms: C_7  and  C_30
    3  A    between atoms: C_7  and  C_49
    4  A    between atoms: N_11  and  C_36
    5  A    between atoms: C_15  and  C_18
    6  A    between atoms: C_17  and  C_41
    7  A    between atoms: C_18  and  C_48
    8  A    between atoms: C_20  and  C_40
    9  A    between atoms: C_21  and  C_22
   10  A    between atoms: C_21  and  C_53
   11  A    between atoms: C_22  and  C_46
   12  A    between atoms: C_23  and  C_30
   13  A    between atoms: N_24  and  C_38
   14  A    between atoms: N_24  and  C_43
   15  A    between atoms: C_32  and  C_44
   16  A    between atoms: C_36  and  C_49
   17  A    between atoms: C_38  and  C_58
   18  A    between atoms: C_42  and  C_53
                            x       y       z     vdW  Elec       q    Type
                         _______ _______ _______ _____ _____    ______ ____

>  <TORSDO>
F 18

$$$$
=
 OpenBabel11042413173D

 61 65  0  0  1  0  0  0  0  0999 V2000
  186.7800  178.0440  139.4340 C   0  0  0  0  0  0  0  0  0  0  0  0
  184.5300  175.4500  137.4170 O   0  0  0  0  0  0  0  0  0  0  0  0
  185.7210  175.9040  135.4400 N   0  0  0  0  0  2  0  0  0  0  0  0
  188.0540  176.3740  135.3150 N   0  0  0  0  0  0  0  0  0  0  0  0
  186.2710  177.3840  138.2970 C   0  0  0  0  0  3  0  0  0  0  0  0
  188.5210  177.1510  137.4490 C   0  0  0  0  0  0  0  0  0  0  0  0
  189.0560  177.8230  138.5500 C   0  0  0  0  0  3  0  0  0  0  0  0
  186.9430  176.4260  135.9860 C   0  0  0  0  0  0  0  0  0  0  0  0
  189.1780  176.8060  136.1510 C   0  0  1  0  0  3  0  0  0  0  0  0
  184.6070  175.3540  136.1580 C   0  0  0  0  0  0  0  0  0  0  0  0
  188.1740  178.2530  139.5590 C   0  0  0  0  0  3  0  0  0  0  0  0
  187.1710  176.9260  137.3340 C   0  0  0  0  0  0  0  0  0  0  0  0
  191.3610  175.7280  135.4600 C   0  0  0  0  0  0  0  0  0  0  0  0
  190.1990  175.6920  136.2560 C   0  0  0  0  0  0  0  0  0  0  0  0
  189.8990  174.5170  136.9540 C   0  0  0  0  0  3  0  0  0  0  0  0
  190.7340  173.4020  136.8380 C   0  0  0  0  0  3  0  0  0  0  0  0
  191.6710  176.9140  134.6030 C   0  0  0  0  0  1  0  0  0  0  0  0
  192.1610  174.6290  135.3660 N   0  0  0  0  0  0  0  0  0  0  0  0
  191.8530  173.4700  136.0100 C   0  0  0  0  0  0  0  0  0  0  0  0
  192.6850  172.2450  135.7990 C   0  0  0  0  0  2  0  0  0  0  0  0
  194.0470  172.4720  136.2680 N   0  0  0  0  0  0  0  0  0  0  0  0
  194.1260  171.9620  137.5220 O   0  0  0  0  0  1  0  0  0  0  0  0
  196.9380  171.7290  135.6910 C   0  0  1  0  0  0  0  0  0  0  0  0
  194.9530  171.7430  135.3760 C   0  0  1  0  0  3  0  0  0  0  0  0
  196.0340  172.5910  135.0400 O   0  0  0  0  0  0  0  0  0  0  0  0
  195.8560  170.7640  136.1080 C   0  0  0  0  0  2  0  0  0  0  0  0
  199.0500  170.6360  135.2840 O   0  0  0  0  0  1  0  0  0  0  0  0
  197.8910  171.1170  134.6680 C   0  0  0  0  0  2  0  0  0  0  0  0
  197.7030  172.4040  136.8380 C   0  0  0  0  0  2  0  0  0  0  0  0
  198.7810  173.3950  136.3890 C   0  0  0  0  0  2  0  0  0  0  0  0
  198.1710  174.7510  136.0720 C   0  0  0  0  0  2  0  0  0  0  0  0
  197.6600  175.3680  137.2890 N   0  0  0  0  0  2  0  0  0  0  0  0
  198.6320  175.2430  138.2210 O   0  0  0  0  0  1  0  0  0  0  0  0
  185.2900  179.7520  140.1740 O   0  0  0  0  0  1  0  0  0  0  0  0
  185.8750  178.5300  140.5280 C   0  0  2  0  0  3  0  0  0  0  0  0
  187.8610  178.5510  141.9130 C   0  0  0  0  0  3  0  0  0  0  0  0
  188.6980  178.6470  143.1470 C   0  0  0  0  0  2  0  0  0  0  0  0
  186.0650  177.9890  144.3050 C   0  0  0  0  0  3  0  0  0  0  0  0
  186.5200  178.5520  141.9000 C   0  0  0  0  0  0  0  0  0  0  0  0
  187.2990  177.2280  144.5870 C   0  0  0  0  0  3  0  0  0  0  0  0
  188.4920  177.4640  144.0460 C   0  0  0  0  0  0  0  0  0  0  0  0
  185.7030  178.5990  143.1580 C   0  0  0  0  0  0  0  0  0  0  0  0
  190.7490  177.3930  144.7530 O   0  0  0  0  0  0  0  0  0  0  0  0
  191.0490  176.1270  147.2160 O   0  0  0  0  0  0  0  0  0  0  0  0
  189.6500  176.6390  144.5430 C   0  0  0  0  0  2  0  0  0  0  0  0
  189.5040  178.3260  146.8870 O   0  0  0  0  0  0  0  0  0  0  0  0
  189.9780  177.0270  146.2760 P   0  0  0  0  0  0  0  0  0  0  0  0
  184.3140  180.1320  144.3160 O   0  0  0  0  0  1  0  0  0  0  0  0
  184.3950  179.3450  143.1670 C   0  0  2  0  0  3  0  0  0  0  0  0
  183.1980  178.4040  143.1010 C   0  0  0  0  0  2  0  0  0  0  0  0
  181.8980  179.1560  142.8460 C   0  0  0  0  0  2  0  0  0  0  0  0
  179.7560  179.1480  141.5520 C   0  0  0  0  0  1  0  0  0  0  0  0
  181.0750  178.4330  141.7910 C   0  0  0  0  0  3  0  0  0  0  0  0
  181.8480  178.3580  140.4940 C   0  0  0  0  0  1  0  0  0  0  0  0
  183.5960  174.5320  135.4170 C   0  0  0  0  0  2  0  0  0  0  0  0
  182.0700  173.7950  137.0940 O   0  0  0  0  0  0  0  0  0  0  0  0
  182.9890  173.4790  136.2830 C   0  0  0  0  0  0  0  0  0  0  0  0
  184.4970  171.5610  135.4560 C   0  0  0  0  0  0  0  0  0  0  0  0
  183.3750  172.0940  136.1790 N   0  0  0  0  0  2  0  0  0  0  0  0
  184.6300  170.0860  135.3040 C   0  0  0  0  0  1  0  0  0  0  0  0
  185.4040  172.3310  134.9520 N   0  0  0  0  0  2  0  0  0  0  0  0
  1 11  1  0  0  0  0
  1 35  1  0  0  0  0
  3  8  1  0  0  0  0
  3 10  1  0  0  0  0
  4  8  2  0  0  0  0
  4  9  1  0  0  0  0
  5  1  2  0  0  0  0
  6  7  1  0  0  0  0
  7 11  2  0  0  0  0
  8 12  1  0  0  0  0
  9 14  1  1  0  0  0
  9  6  1  0  0  0  0
 10  2  2  0  0  0  0
 12  6  2  0  0  0  0
 12  5  1  0  0  0  0
 13 14  1  0  0  0  0
 14 15  2  0  0  0  0
 16 15  1  0  0  0  0
 17 13  1  0  0  0  0
 18 13  2  0  0  0  0
 18 19  1  0  0  0  0
 19 16  2  0  0  0  0
 20 19  1  0  0  0  0
 20 21  1  0  0  0  0
 21 22  1  0  0  0  0
 23 28  1  6  0  0  0
 23 26  1  0  0  0  0
 23 29  1  0  0  0  0
 24 26  1  0  0  0  0
 24 21  1  1  0  0  0
 25 24  1  0  0  0  0
 25 23  1  0  0  0  0
 28 27  1  0  0  0  0
 30 29  1  0  0  0  0
 31 30  1  0  0  0  0
 31 32  1  0  0  0  0
 32 33  1  0  0  0  0
 35 34  1  6  0  0  0
 35 39  1  0  0  0  0
 36 37  1  0  0  0  0
 37 41  1  0  0  0  0
 38 40  1  0  0  0  0
 39 36  2  0  0  0  0
 39 42  1  0  0  0  0
 41 45  1  0  0  0  0
 41 40  2  0  0  0  0
 42 49  1  0  0  0  0
 42 38  2  0  0  0  0
 43 47  1  0  0  0  0
 45 43  1  0  0  0  0
 47 46  2  0  0  0  0
 47 44  2  0  0  0  0
 49 48  1  1  0  0  0
 50 49  1  0  0  0  0
 51 50  1  0  0  0  0
 52 53  1  0  0  0  0
 53 51  1  0  0  0  0
 54 53  1  0  0  0  0
 55 10  1  0  0  0  0
 55 57  1  0  0  0  0
 57 56  2  0  0  0  0
 58 59  1  0  0  0  0
 59 57  1  0  0  0  0
 60 58  1  0  0  0  0
 61 58  2  0  0  0  0
M  END
>  <MODEL>
6

>  <REMARK>
 VINA RESULT:      -5.2      3.347     10.648
  Name = 
  18 active torsions:
  status: ('A' for Active; 'I' for Inactive)
    1  A    between atoms: C_2  and  C_40
    2  A    between atoms: C_7  and  C_30
    3  A    between atoms: C_7  and  C_49
    4  A    between atoms: N_11  and  C_36
    5  A    between atoms: C_15  and  C_18
    6  A    between atoms: C_17  and  C_41
    7  A    between atoms: C_18  and  C_48
    8  A    between atoms: C_20  and  C_40
    9  A    between atoms: C_21  and  C_22
   10  A    between atoms: C_21  and  C_53
   11  A    between atoms: C_22  and  C_46
   12  A    between atoms: C_23  and  C_30
   13  A    between atoms: N_24  and  C_38
   14  A    between atoms: N_24  and  C_43
   15  A    between atoms: C_32  and  C_44
   16  A    between atoms: C_36  and  C_49
   17  A    between atoms: C_38  and  C_58
   18  A    between atoms: C_42  and  C_53
                            x       y       z     vdW  Elec       q    Type
                         _______ _______ _______ _____ _____    ______ ____

>  <TORSDO>
F 18

$$$$
=
 OpenBabel11042413173D

 61 65  0  0  1  0  0  0  0  0999 V2000
  186.7670  178.2990  141.1230 C   0  0  0  0  0  0  0  0  0  0  0  0
  183.9950  176.5810  138.8380 O   0  0  0  0  0  0  0  0  0  0  0  0
  184.8860  177.6150  136.9220 N   0  0  0  0  0  2  0  0  0  0  0  0
  187.2010  178.0220  136.5280 N   0  0  0  0  0  0  0  0  0  0  0  0
  186.0230  178.0630  139.9490 C   0  0  0  0  0  3  0  0  0  0  0  0
  188.0750  178.0450  138.6740 C   0  0  0  0  0  0  0  0  0  0  0  0
  188.8410  178.3030  139.8140 C   0  0  0  0  0  3  0  0  0  0  0  0
  186.2220  177.8890  137.3720 C   0  0  0  0  0  0  0  0  0  0  0  0
  188.4800  178.1200  137.2370 C   0  0  1  0  0  3  0  0  0  0  0  0
  183.8580  176.8980  137.6210 C   0  0  0  0  0  0  0  0  0  0  0  0
  188.1770  178.4090  141.0510 C   0  0  0  0  0  3  0  0  0  0  0  0
  186.7100  177.9140  138.7430 C   0  0  0  0  0  0  0  0  0  0  0  0
  189.9660  177.0220  135.5090 C   0  0  0  0  0  0  0  0  0  0  0  0
  189.3990  177.0000  136.7970 C   0  0  0  0  0  0  0  0  0  0  0  0
  189.5100  175.8320  137.5600 C   0  0  0  0  0  3  0  0  0  0  0  0
  190.1550  174.7100  137.0320 C   0  0  0  0  0  3  0  0  0  0  0  0
  189.7800  178.2000  134.6050 C   0  0  0  0  0  1  0  0  0  0  0  0
  190.5930  175.9170  135.0160 N   0  0  0  0  0  0  0  0  0  0  0  0
  190.6680  174.7640  135.7360 C   0  0  0  0  0  0  0  0  0  0  0  0
  191.2600  173.5320  135.1290 C   0  0  0  0  0  2  0  0  0  0  0  0
  192.4420  173.1180  135.8770 N   0  0  0  0  0  0  0  0  0  0  0  0
  192.4540  171.7610  135.8820 O   0  0  0  0  0  1  0  0  0  0  0  0
  195.0840  174.6000  136.1360 C   0  0  1  0  0  0  0  0  0  0  0  0
  193.6190  173.6240  135.1650 C   0  0  1  0  0  3  0  0  0  0  0  0
  193.8480  174.9610  135.5650 O   0  0  0  0  0  0  0  0  0  0  0  0
  194.9320  173.1460  135.7630 C   0  0  0  0  0  2  0  0  0  0  0  0
  196.9790  176.0910  136.2130 O   0  0  0  0  0  1  0  0  0  0  0  0
  196.2190  175.2740  135.3700 C   0  0  0  0  0  2  0  0  0  0  0  0
  195.1680  174.8940  137.6400 C   0  0  0  0  0  2  0  0  0  0  0  0
  195.9570  173.8590  138.4480 C   0  0  0  0  0  2  0  0  0  0  0  0
  197.1860  174.4910  139.0820 C   0  0  0  0  0  2  0  0  0  0  0  0
  196.7950  175.3230  140.2120 N   0  0  0  0  0  2  0  0  0  0  0  0
  197.8140  175.2710  141.0990 O   0  0  0  0  0  1  0  0  0  0  0  0
  186.6960  177.5750  143.3930 O   0  0  0  0  0  1  0  0  0  0  0  0
  186.0990  178.4310  142.4600 C   0  0  2  0  0  3  0  0  0  0  0  0
  184.0800  177.8510  141.2560 C   0  0  0  0  0  3  0  0  0  0  0  0
  182.6300  177.5770  141.0170 C   0  0  0  0  0  2  0  0  0  0  0  0
  182.4980  179.1760  143.4920 C   0  0  0  0  0  3  0  0  0  0  0  0
  184.5890  178.3020  142.4120 C   0  0  0  0  0  0  0  0  0  0  0  0
  181.7360  179.4950  142.2670 C   0  0  0  0  0  3  0  0  0  0  0  0
  181.8080  178.8280  141.1180 C   0  0  0  0  0  0  0  0  0  0  0  0
  183.7290  178.6340  143.5960 C   0  0  0  0  0  0  0  0  0  0  0  0
  180.7570  180.5920  139.9440 O   0  0  0  0  0  0  0  0  0  0  0  0
  181.1190  180.3950  137.1890 O   0  0  0  0  0  0  0  0  0  0  0  0
  180.8740  179.2500  140.0160 C   0  0  0  0  0  2  0  0  0  0  0  0
  183.1920  180.5860  138.9200 O   0  0  0  0  0  0  0  0  0  0  0  0
  181.8130  180.0160  138.6770 P   0  0  0  0  0  0  0  0  0  0  0  0
  183.4120  178.9990  145.9160 O   0  0  0  0  0  1  0  0  0  0  0  0
  184.2460  178.3770  144.9860 C   0  0  2  0  0  3  0  0  0  0  0  0
  185.6770  178.8710  145.1650 C   0  0  0  0  0  2  0  0  0  0  0  0
  186.0560  178.9920  146.6350 C   0  0  0  0  0  2  0  0  0  0  0  0
  188.1960  177.8900  145.9490 C   0  0  0  0  0  1  0  0  0  0  0  0
  187.0940  177.9400  146.9940 C   0  0  0  0  0  3  0  0  0  0  0  0
  187.6960  178.2470  148.3460 C   0  0  0  0  0  1  0  0  0  0  0  0
  182.6700  176.3960  136.8570 C   0  0  0  0  0  2  0  0  0  0  0  0
  183.8150  174.5300  135.9120 O   0  0  0  0  0  0  0  0  0  0  0  0
  182.7890  174.9460  136.5270 C   0  0  0  0  0  0  0  0  0  0  0  0
  180.4990  174.2710  137.4950 C   0  0  0  0  0  0  0  0  0  0  0  0
  181.7970  173.9880  136.9450 N   0  0  0  0  0  2  0  0  0  0  0  0
  179.6830  173.1540  138.0460 C   0  0  0  0  0  1  0  0  0  0  0  0
  180.0150  175.4690  137.5030 N   0  0  0  0  0  2  0  0  0  0  0  0
  1 35  1  0  0  0  0
  3  8  1  0  0  0  0
  3 10  1  0  0  0  0
  4  9  1  0  0  0  0
  4  8  2  0  0  0  0
  5  1  2  0  0  0  0
  6 12  2  0  0  0  0
  6  7  1  0  0  0  0
  7 11  2  0  0  0  0
  8 12  1  0  0  0  0
  9 14  1  6  0  0  0
  9  6  1  0  0  0  0
 10  2  2  0  0  0  0
 11  1  1  0  0  0  0
 12  5  1  0  0  0  0
 13 14  1  0  0  0  0
 14 15  2  0  0  0  0
 16 15  1  0  0  0  0
 17 13  1  0  0  0  0
 18 13  2  0  0  0  0
 18 19  1  0  0  0  0
 19 16  2  0  0  0  0
 20 19  1  0  0  0  0
 20 21  1  0  0  0  0
 21 22  1  0  0  0  0
 23 28  1  6  0  0  0
 23 29  1  0  0  0  0
 24 25  1  0  0  0  0
 24 26  1  0  0  0  0
 24 21  1  1  0  0  0
 25 23  1  0  0  0  0
 26 23  1  0  0  0  0
 28 27  1  0  0  0  0
 29 30  1  0  0  0  0
 30 31  1  0  0  0  0
 31 32  1  0  0  0  0
 32 33  1  0  0  0  0
 35 34  1  1  0  0  0
 36 39  2  0  0  0  0
 37 41  1  0  0  0  0
 37 36  1  0  0  0  0
 38 42  2  0  0  0  0
 39 35  1  0  0  0  0
 39 42  1  0  0  0  0
 40 38  1  0  0  0  0
 41 40  2  0  0  0  0
 42 49  1  0  0  0  0
 43 45  1  0  0  0  0
 44 47  2  0  0  0  0
 45 41  1  0  0  0  0
 47 46  2  0  0  0  0
 47 43  1  0  0  0  0
 49 50  1  0  0  0  0
 49 48  1  1  0  0  0
 50 51  1  0  0  0  0
 51 53  1  0  0  0  0
 52 53  1  0  0  0  0
 53 54  1  0  0  0  0
 55 10  1  0  0  0  0
 56 57  2  0  0  0  0
 57 55  1  0  0  0  0
 57 59  1  0  0  0  0
 58 61  2  0  0  0  0
 58 60  1  0  0  0  0
 59 58  1  0  0  0  0
M  END
>  <MODEL>
7

>  <REMARK>
 VINA RESULT:      -5.0      2.990     10.095
  Name = 
  18 active torsions:
  status: ('A' for Active; 'I' for Inactive)
    1  A    between atoms: C_2  and  C_40
    2  A    between atoms: C_7  and  C_30
    3  A    between atoms: C_7  and  C_49
    4  A    between atoms: N_11  and  C_36
    5  A    between atoms: C_15  and  C_18
    6  A    between atoms: C_17  and  C_41
    7  A    between atoms: C_18  and  C_48
    8  A    between atoms: C_20  and  C_40
    9  A    between atoms: C_21  and  C_22
   10  A    between atoms: C_21  and  C_53
   11  A    between atoms: C_22  and  C_46
   12  A    between atoms: C_23  and  C_30
   13  A    between atoms: N_24  and  C_38
   14  A    between atoms: N_24  and  C_43
   15  A    between atoms: C_32  and  C_44
   16  A    between atoms: C_36  and  C_49
   17  A    between atoms: C_38  and  C_58
   18  A    between atoms: C_42  and  C_53
                            x       y       z     vdW  Elec       q    Type
                         _______ _______ _______ _____ _____    ______ ____

>  <TORSDO>
F 18

$$$$
=
 OpenBabel11042413173D

 61 65  0  0  1  0  0  0  0  0999 V2000
  187.8550  175.5430  137.1370 C   0  0  0  0  0  0  0  0  0  0  0  0
  191.3810  173.7010  136.9490 O   0  0  0  0  0  0  0  0  0  0  0  0
  192.4810  175.6670  137.6240 N   0  0  0  0  0  2  0  0  0  0  0  0
  191.6310  177.2550  139.1850 N   0  0  0  0  0  0  0  0  0  0  0  0
  189.2610  175.4370  137.1420 C   0  0  0  0  0  3  0  0  0  0  0  0
  189.3440  176.8910  139.0700 C   0  0  0  0  0  0  0  0  0  0  0  0
  187.9550  177.0370  139.0780 C   0  0  0  0  0  3  0  0  0  0  0  0
  191.4020  176.3610  138.2700 C   0  0  0  0  0  0  0  0  0  0  0  0
  190.3750  177.6840  139.8070 C   0  0  1  0  0  3  0  0  0  0  0  0
  192.4640  174.3410  137.0740 C   0  0  0  0  0  0  0  0  0  0  0  0
  187.2070  176.3380  138.1130 C   0  0  0  0  0  3  0  0  0  0  0  0
  189.9760  176.1030  138.1400 C   0  0  0  0  0  0  0  0  0  0  0  0
  189.4050  177.9130  142.1330 C   0  0  0  0  0  0  0  0  0  0  0  0
  190.4170  177.4060  141.2950 C   0  0  0  0  0  0  0  0  0  0  0  0
  191.5620  176.8540  141.8820 C   0  0  0  0  0  3  0  0  0  0  0  0
  191.6930  176.8330  143.2740 C   0  0  0  0  0  3  0  0  0  0  0  0
  188.2140  178.6160  141.5630 C   0  0  0  0  0  1  0  0  0  0  0  0
  189.5540  177.8780  143.4870 N   0  0  0  0  0  0  0  0  0  0  0  0
  190.6830  177.3810  144.0640 C   0  0  0  0  0  0  0  0  0  0  0  0
  190.8700  177.4580  145.5460 C   0  0  0  0  0  2  0  0  0  0  0  0
  189.8850  176.6250  146.2240 N   0  0  0  0  0  0  0  0  0  0  0  0
  190.5690  175.7840  147.0390 O   0  0  0  0  0  1  0  0  0  0  0  0
  187.2020  178.0480  146.3840 C   0  0  1  0  0  0  0  0  0  0  0  0
  189.0290  177.5080  147.0230 C   0  0  1  0  0  3  0  0  0  0  0  0
  188.5130  178.5200  146.1810 O   0  0  0  0  0  0  0  0  0  0  0  0
  187.6500  176.9270  147.2890 C   0  0  0  0  0  2  0  0  0  0  0  0
  185.2460  178.5360  147.7090 O   0  0  0  0  0  1  0  0  0  0  0  0
  186.3880  179.1000  147.1320 C   0  0  0  0  0  2  0  0  0  0  0  0
  186.5050  177.6150  145.0870 C   0  0  0  0  0  2  0  0  0  0  0  0
  185.7010  178.7210  144.3960 C   0  0  0  0  0  2  0  0  0  0  0  0
  184.7040  178.1300  143.4120 C   0  0  0  0  0  2  0  0  0  0  0  0
  183.4990  178.9460  143.3680 N   0  0  0  0  0  2  0  0  0  0  0  0
  183.8820  180.2130  143.6450 O   0  0  0  0  0  1  0  0  0  0  0  0
  187.3820  175.2150  134.8230 O   0  0  0  0  0  1  0  0  0  0  0  0
  187.0200  174.8250  136.1180 C   0  0  2  0  0  3  0  0  0  0  0  0
  185.0090  173.9460  137.1430 C   0  0  0  0  0  3  0  0  0  0  0  0
  183.5810  173.8800  137.5790 C   0  0  0  0  0  2  0  0  0  0  0  0
  183.4150  175.8720  135.4090 C   0  0  0  0  0  3  0  0  0  0  0  0
  185.5270  174.9120  136.3710 C   0  0  0  0  0  0  0  0  0  0  0  0
  182.5740  174.6600  135.4770 C   0  0  0  0  0  3  0  0  0  0  0  0
  182.6550  173.7150  136.4110 C   0  0  0  0  0  0  0  0  0  0  0  0
  184.6930  176.0270  135.8100 C   0  0  0  0  0  0  0  0  0  0  0  0
  181.2500  172.3380  135.0970 O   0  0  0  0  0  0  0  0  0  0  0  0
  181.6020  169.6310  135.6490 O   0  0  0  0  0  0  0  0  0  0  0  0
  181.6370  172.6070  136.3610 C   0  0  0  0  0  2  0  0  0  0  0  0
  183.6190  171.2150  134.7820 O   0  0  0  0  0  0  0  0  0  0  0  0
  182.3810  171.1260  135.6440 P   0  0  0  0  0  0  0  0  0  0  0  0
  186.6270  177.2850  135.2670 O   0  0  0  0  0  1  0  0  0  0  0  0
  185.2930  177.4000  135.6590 C   0  0  2  0  0  3  0  0  0  0  0  0
  185.2020  178.2100  136.9470 C   0  0  0  0  0  2  0  0  0  0  0  0
  183.7580  178.4210  137.3840 C   0  0  0  0  0  2  0  0  0  0  0  0
  182.5920  179.4100  139.3650 C   0  0  0  0  0  1  0  0  0  0  0  0
  183.6710  178.4460  138.9020 C   0  0  0  0  0  3  0  0  0  0  0  0
  183.3670  177.0610  139.4260 C   0  0  0  0  0  1  0  0  0  0  0  0
  193.7640  173.6570  136.7800 C   0  0  0  0  0  2  0  0  0  0  0  0
  194.9430  175.2290  135.4300 O   0  0  0  0  0  0  0  0  0  0  0  0
  194.8690  174.6320  136.5430 C   0  0  0  0  0  0  0  0  0  0  0  0
  196.0120  174.2860  138.8260 C   0  0  0  0  0  0  0  0  0  0  0  0
  195.8220  174.9630  137.5720 N   0  0  0  0  0  2  0  0  0  0  0  0
  196.9160  174.8860  139.8460 C   0  0  0  0  0  1  0  0  0  0  0  0
  195.4340  173.1590  139.0800 N   0  0  0  0  0  2  0  0  0  0  0  0
  1  5  2  0  0  0  0
  1 11  1  0  0  0  0
  2 10  2  0  0  0  0
  3  8  1  0  0  0  0
  4  9  1  0  0  0  0
  5 12  1  0  0  0  0
  6  7  1  0  0  0  0
  6  9  1  0  0  0  0
  8  4  2  0  0  0  0
  9 14  1  1  0  0  0
 10  3  1  0  0  0  0
 11  7  2  0  0  0  0
 12  8  1  0  0  0  0
 12  6  2  0  0  0  0
 13 18  1  0  0  0  0
 14 15  1  0  0  0  0
 14 13  2  0  0  0  0
 15 16  2  0  0  0  0
 16 19  1  0  0  0  0
 17 13  1  0  0  0  0
 18 19  2  0  0  0  0
 19 20  1  0  0  0  0
 20 21  1  0  0  0  0
 21 22  1  0  0  0  0
 23 29  1  6  0  0  0
 23 28  1  0  0  0  0
 23 26  1  0  0  0  0
 24 21  1  6  0  0  0
 24 26  1  0  0  0  0
 25 23  1  0  0  0  0
 25 24  1  0  0  0  0
 28 27  1  0  0  0  0
 30 29  1  0  0  0  0
 31 30  1  0  0  0  0
 32 31  1  0  0  0  0
 32 33  1  0  0  0  0
 35 34  1  6  0  0  0
 35 39  1  0  0  0  0
 35  1  1  0  0  0  0
 36 37  1  0  0  0  0
 38 40  1  0  0  0  0
 38 42  2  0  0  0  0
 39 36  2  0  0  0  0
 40 41  2  0  0  0  0
 41 37  1  0  0  0  0
 42 39  1  0  0  0  0
 43 47  1  0  0  0  0
 43 45  1  0  0  0  0
 45 41  1  0  0  0  0
 46 47  2  0  0  0  0
 47 44  2  0  0  0  0
 49 48  1  1  0  0  0
 49 42  1  0  0  0  0
 49 50  1  0  0  0  0
 50 51  1  0  0  0  0
 51 53  1  0  0  0  0
 53 52  1  0  0  0  0
 53 54  1  0  0  0  0
 55 10  1  0  0  0  0
 56 57  2  0  0  0  0
 57 55  1  0  0  0  0
 57 59  1  0  0  0  0
 58 61  2  0  0  0  0
 58 60  1  0  0  0  0
 59 58  1  0  0  0  0
M  END
>  <MODEL>
8

>  <REMARK>
 VINA RESULT:      -4.7      1.984      3.775
  Name = 
  18 active torsions:
  status: ('A' for Active; 'I' for Inactive)
    1  A    between atoms: C_2  and  C_40
    2  A    between atoms: C_7  and  C_30
    3  A    between atoms: C_7  and  C_49
    4  A    between atoms: N_11  and  C_36
    5  A    between atoms: C_15  and  C_18
    6  A    between atoms: C_17  and  C_41
    7  A    between atoms: C_18  and  C_48
    8  A    between atoms: C_20  and  C_40
    9  A    between atoms: C_21  and  C_22
   10  A    between atoms: C_21  and  C_53
   11  A    between atoms: C_22  and  C_46
   12  A    between atoms: C_23  and  C_30
   13  A    between atoms: N_24  and  C_38
   14  A    between atoms: N_24  and  C_43
   15  A    between atoms: C_32  and  C_44
   16  A    between atoms: C_36  and  C_49
   17  A    between atoms: C_38  and  C_58
   18  A    between atoms: C_42  and  C_53
                            x       y       z     vdW  Elec       q    Type
                         _______ _______ _______ _____ _____    ______ ____

>  <TORSDO>
F 18

$$$$
=
 OpenBabel11042413173D

 61 65  0  0  1  0  0  0  0  0999 V2000
  187.0020  177.8360  136.7470 C   0  0  0  0  0  0  0  0  0  0  0  0
  188.8260  178.6370  140.1950 O   0  0  0  0  0  0  0  0  0  0  0  0
  189.7060  176.4570  140.2740 N   0  0  0  0  0  2  0  0  0  0  0  0
  190.4230  175.1920  138.3850 N   0  0  0  0  0  0  0  0  0  0  0  0
  187.7190  177.5520  137.9270 C   0  0  0  0  0  3  0  0  0  0  0  0
  189.2320  176.1670  136.6520 C   0  0  0  0  0  0  0  0  0  0  0  0
  188.5300  176.4070  135.4680 C   0  0  0  0  0  3  0  0  0  0  0  0
  189.6370  176.0970  138.8850 C   0  0  0  0  0  0  0  0  0  0  0  0
  190.2780  175.1350  136.9280 C   0  0  1  0  0  3  0  0  0  0  0  0
  189.3930  177.7260  140.8660 C   0  0  0  0  0  0  0  0  0  0  0  0
  187.4170  177.2670  135.5190 C   0  0  0  0  0  3  0  0  0  0  0  0
  188.8470  176.7340  137.8410 C   0  0  0  0  0  0  0  0  0  0  0  0
  192.1470  174.4980  135.3440 C   0  0  0  0  0  0  0  0  0  0  0  0
  191.6110  175.4180  136.2670 C   0  0  0  0  0  0  0  0  0  0  0  0
  192.4260  176.4580  136.7290 C   0  0  0  0  0  3  0  0  0  0  0  0
  193.7500  176.5570  136.2910 C   0  0  0  0  0  3  0  0  0  0  0  0
  191.3620  173.3030  134.9040 C   0  0  0  0  0  1  0  0  0  0  0  0
  193.4390  174.6170  134.9280 N   0  0  0  0  0  0  0  0  0  0  0  0
  194.2490  175.6020  135.4050 C   0  0  0  0  0  0  0  0  0  0  0  0
  195.6940  175.6420  135.0210 C   0  0  0  0  0  2  0  0  0  0  0  0
  196.3820  174.4570  135.5180 N   0  0  0  0  0  0  0  0  0  0  0  0
  197.3210  174.1260  134.5960 O   0  0  0  0  0  1  0  0  0  0  0  0
  196.4340  174.0120  138.5250 C   0  0  1  0  0  0  0  0  0  0  0  0
  197.0310  174.8150  136.7830 C   0  0  1  0  0  3  0  0  0  0  0  0
  196.0290  175.1060  137.7370 O   0  0  0  0  0  0  0  0  0  0  0  0
  197.5260  173.6100  137.5650 C   0  0  0  0  0  2  0  0  0  0  0  0
  196.4520  175.7600  140.1870 O   0  0  0  0  0  1  0  0  0  0  0  0
  196.9920  174.5140  139.8540 C   0  0  0  0  0  2  0  0  0  0  0  0
  195.3230  172.9730  138.7380 C   0  0  0  0  0  2  0  0  0  0  0  0
  195.5310  171.6550  137.9860 C   0  0  0  0  0  2  0  0  0  0  0  0
  194.5490  171.5310  136.8320 C   0  0  0  0  0  2  0  0  0  0  0  0
  195.1660  170.8130  135.7240 N   0  0  0  0  0  2  0  0  0  0  0  0
  196.4990  170.8270  135.9510 O   0  0  0  0  0  1  0  0  0  0  0  0
  186.1950  180.0770  136.6560 O   0  0  0  0  0  1  0  0  0  0  0  0
  185.8020  178.7370  136.7580 C   0  0  2  0  0  3  0  0  0  0  0  0
  184.8610  179.3950  138.8890 C   0  0  0  0  0  3  0  0  0  0  0  0
  183.9510  179.3800  140.0750 C   0  0  0  0  0  2  0  0  0  0  0  0
  183.5820  176.6380  139.0510 C   0  0  0  0  0  3  0  0  0  0  0  0
  184.8470  178.4820  137.9070 C   0  0  0  0  0  0  0  0  0  0  0  0
  183.9560  176.9500  140.4460 C   0  0  0  0  0  3  0  0  0  0  0  0
  184.1800  178.1690  140.9310 C   0  0  0  0  0  0  0  0  0  0  0  0
  183.9290  177.2950  137.9250 C   0  0  0  0  0  0  0  0  0  0  0  0
  184.3430  179.5590  142.8380 O   0  0  0  0  0  0  0  0  0  0  0  0
  182.8040  178.6270  144.9640 O   0  0  0  0  0  0  0  0  0  0  0  0
  184.4500  178.2850  142.4070 C   0  0  0  0  0  2  0  0  0  0  0  0
  181.7330  179.2640  142.5600 O   0  0  0  0  0  0  0  0  0  0  0  0
  182.9150  178.6580  143.2830 P   0  0  0  0  0  0  0  0  0  0  0  0
  182.0230  176.4340  136.8110 O   0  0  0  0  0  1  0  0  0  0  0  0
  183.3630  176.7740  136.6310 C   0  0  2  0  0  3  0  0  0  0  0  0
  184.1370  175.5680  136.1110 C   0  0  0  0  0  2  0  0  0  0  0  0
  183.3480  174.2740  136.2750 C   0  0  0  0  0  2  0  0  0  0  0  0
  184.9940  172.8220  137.4770 C   0  0  0  0  0  1  0  0  0  0  0  0
  184.2790  173.0770  136.1610 C   0  0  0  0  0  3  0  0  0  0  0  0
  183.4940  171.8470  135.7680 C   0  0  0  0  0  1  0  0  0  0  0  0
  189.8730  178.0220  142.2540 C   0  0  0  0  0  2  0  0  0  0  0  0
  192.0910  177.5200  141.5400 O   0  0  0  0  0  0  0  0  0  0  0  0
  191.2550  177.5100  142.4890 C   0  0  0  0  0  0  0  0  0  0  0  0
  190.8590  176.8130  144.9380 C   0  0  0  0  0  0  0  0  0  0  0  0
  191.6860  177.0600  143.7890 N   0  0  0  0  0  2  0  0  0  0  0  0
  191.5020  176.5340  146.2510 C   0  0  0  0  0  1  0  0  0  0  0  0
  189.5690  176.8070  144.8530 N   0  0  0  0  0  2  0  0  0  0  0  0
  1 35  1  0  0  0  0
  1  5  1  0  0  0  0
  2 10  2  0  0  0  0
  3 10  1  0  0  0  0
  4  8  2  0  0  0  0
  6  9  1  0  0  0  0
  6 12  1  0  0  0  0
  7 11  1  0  0  0  0
  7  6  2  0  0  0  0
  8  3  1  0  0  0  0
  9 14  1  6  0  0  0
  9  4  1  0  0  0  0
 10 55  1  0  0  0  0
 11  1  2  0  0  0  0
 12  5  2  0  0  0  0
 12  8  1  0  0  0  0
 13 14  1  0  0  0  0
 14 15  2  0  0  0  0
 16 15  1  0  0  0  0
 17 13  1  0  0  0  0
 18 13  2  0  0  0  0
 18 19  1  0  0  0  0
 19 16  2  0  0  0  0
 20 19  1  0  0  0  0
 20 21  1  0  0  0  0
 22 21  1  0  0  0  0
 23 29  1  1  0  0  0
 23 28  1  0  0  0  0
 24 21  1  6  0  0  0
 24 26  1  0  0  0  0
 24 25  1  0  0  0  0
 25 23  1  0  0  0  0
 26 23  1  0  0  0  0
 28 27  1  0  0  0  0
 30 29  1  0  0  0  0
 31 30  1  0  0  0  0
 32 33  1  0  0  0  0
 32 31  1  0  0  0  0
 35 34  1  1  0  0  0
 35 39  1  0  0  0  0
 36 37  1  0  0  0  0
 37 41  1  0  0  0  0
 38 40  1  0  0  0  0
 39 42  1  0  0  0  0
 39 36  2  0  0  0  0
 40 41  2  0  0  0  0
 41 45  1  0  0  0  0
 42 38  2  0  0  0  0
 43 47  1  0  0  0  0
 45 43  1  0  0  0  0
 46 47  2  0  0  0  0
 47 44  2  0  0  0  0
 49 48  1  1  0  0  0
 49 42  1  0  0  0  0
 50 51  1  0  0  0  0
 50 49  1  0  0  0  0
 53 51  1  0  0  0  0
 53 52  1  0  0  0  0
 54 53  1  0  0  0  0
 55 57  1  0  0  0  0
 56 57  2  0  0  0  0
 57 59  1  0  0  0  0
 58 60  1  0  0  0  0
 59 58  1  0  0  0  0
 61 58  2  0  0  0  0
M  END
>  <MODEL>
9

>  <REMARK>
 VINA RESULT:      -4.7      2.764      8.335
  Name = 
  18 active torsions:
  status: ('A' for Active; 'I' for Inactive)
    1  A    between atoms: C_2  and  C_40
    2  A    between atoms: C_7  and  C_30
    3  A    between atoms: C_7  and  C_49
    4  A    between atoms: N_11  and  C_36
    5  A    between atoms: C_15  and  C_18
    6  A    between atoms: C_17  and  C_41
    7  A    between atoms: C_18  and  C_48
    8  A    between atoms: C_20  and  C_40
    9  A    between atoms: C_21  and  C_22
   10  A    between atoms: C_21  and  C_53
   11  A    between atoms: C_22  and  C_46
   12  A    between atoms: C_23  and  C_30
   13  A    between atoms: N_24  and  C_38
   14  A    between atoms: N_24  and  C_43
   15  A    between atoms: C_32  and  C_44
   16  A    between atoms: C_36  and  C_49
   17  A    between atoms: C_38  and  C_58
   18  A    between atoms: C_42  and  C_53
                            x       y       z     vdW  Elec       q    Type
                         _______ _______ _______ _____ _____    ______ ____

>  <TORSDO>
F 18

$$$$
