=
 OpenBabel11042411563D

 37 41  0  0  1  0  0  0  0  0999 V2000
  186.5050  178.6310  147.6830 C   0  0  0  0  0  3  0  0  0  0  0  0
  184.5140  178.3350  143.4930 C   0  0  0  0  0  3  0  0  0  0  0  0
  185.4120  178.6560  139.6980 C   0  0  1  0  0  3  0  0  0  0  0  0
  189.2240  177.5260  141.6290 C   0  0  1  0  0  3  0  0  0  0  0  0
  186.7520  178.4690  146.3220 C   0  0  0  0  0  0  0  0  0  0  0  0
  186.6470  178.0100  139.5950 O   0  0  0  0  0  0  0  0  0  0  0  0
  187.2220  177.9360  148.6020 N   0  0  0  0  0  0  0  0  0  0  0  0
  188.4760  176.8890  146.9060 N   0  0  0  0  0  0  0  0  0  0  0  0
  187.7790  177.5430  145.9390 C   0  0  0  0  0  0  0  0  0  0  0  0
  184.6610  178.3710  138.5560 O   0  0  0  0  0  1  0  0  0  0  0  0
  189.9550  177.7650  142.9410 C   0  0  0  0  0  2  0  0  0  0  0  0
  187.5440  178.8820  140.2180 C   0  0  0  0  0  2  0  0  0  0  0  0
  184.7340  178.7010  144.7850 C   0  0  0  0  0  3  0  0  0  0  0  0
  185.4500  178.4870  142.2690 C   0  0  1  0  0  3  0  0  0  0  0  0
  188.0750  177.2450  144.5180 C   0  0  1  0  0  3  0  0  0  0  0  0
  188.2030  177.0770  148.2220 C   0  0  0  0  0  3  0  0  0  0  0  0
  187.0450  177.4220  143.7270 C   0  0  0  0  0  2  0  0  0  0  0  0
  186.7580  177.6140  142.2970 C   0  0  2  0  0  3  0  0  0  0  0  0
  189.4330  176.8420  144.0320 C   0  0  0  0  0  2  0  0  0  0  0  0
  184.6520  178.2210  140.9640 C   0  0  1  0  0  3  0  0  0  0  0  0
  187.9250  178.3630  141.6090 C   0  0  1  0  0  3  0  0  0  0  0  0
  185.9850  179.3540  145.3420 C   0  0  0  0  0  2  0  0  0  0  0  0
  190.2010  177.8300  140.4930 C   0  0  0  0  0  2  0  0  0  0  0  0
  190.5840  176.5710  139.7120 C   0  0  0  0  0  2  0  0  0  0  0  0
  190.3910  176.6930  138.1960 C   0  0  1  0  0  3  0  0  0  0  0  0
  191.3710  174.5180  138.0110 O   0  0  0  0  0  1  0  0  0  0  0  0
  191.3220  175.7780  137.4140 C   0  0  0  0  0  2  0  0  0  0  0  0
  189.0090  176.4310  137.8270 N   0  0  0  0  0  2  0  0  0  0  0  0
  188.7440  177.1720  136.6070 C   0  0  0  0  0  2  0  0  0  0  0  0
  188.9470  178.6510  136.8610 C   0  0  0  0  0  1  0  0  0  0  0  0
  183.3010  178.9370  140.9840 C   0  0  0  0  0  2  0  0  0  0  0  0
  179.9770  176.5500  139.7940 N   0  0  0  0  0  2  0  0  0  0  0  0
  182.4190  176.7510  139.9010 C   0  0  0  0  0  2  0  0  0  0  0  0
  182.1850  177.9650  140.7710 C   0  0  0  0  0  0  0  0  0  0  0  0
  179.8070  177.3200  141.0260 C   0  0  0  0  0  2  0  0  0  0  0  0
  181.2230  175.7950  139.9120 C   0  0  0  0  0  2  0  0  0  0  0  0
  180.9600  178.2640  141.2300 C   0  0  0  0  0  3  0  0  0  0  0  0
  1  7  1  0  0  0  0
  2 13  2  0  0  0  0
  3 10  1  6  0  0  0
  3 20  1  0  0  0  0
  4 23  1  6  0  0  0
  4 11  1  0  0  0  0
  5  1  2  0  0  0  0
  6  3  1  0  0  0  0
  6 12  1  0  0  0  0
  8 16  1  0  0  0  0
  9  5  1  0  0  0  0
  9  8  2  0  0  0  0
 11 19  1  0  0  0  0
 13 22  1  0  0  0  0
 14 18  1  0  0  0  0
 14  2  1  1  0  0  0
 15 17  1  6  0  0  0
 15  9  1  0  0  0  0
 16  7  2  0  0  0  0
 18 17  1  1  0  0  0
 19 15  1  0  0  0  0
 20 31  1  1  0  0  0
 20 14  1  0  0  0  0
 21 12  1  6  0  0  0
 21  4  1  0  0  0  0
 21 18  1  0  0  0  0
 22  5  1  0  0  0  0
 24 23  1  0  0  0  0
 25 27  1  6  0  0  0
 25 24  1  0  0  0  0
 27 26  1  0  0  0  0
 28 25  1  0  0  0  0
 29 30  1  0  0  0  0
 29 28  1  0  0  0  0
 32 36  1  0  0  0  0
 32 35  1  0  0  0  0
 33 36  1  0  0  0  0
 33 34  1  0  0  0  0
 34 31  1  0  0  0  0
 34 37  2  0  0  0  0
 35 37  1  0  0  0  0
M  END
>  <MODEL>
1

>  <REMARK>
 VINA RESULT:      -7.8      0.000      0.000
  Name = 
  8 active torsions:
  status: ('A' for Active; 'I' for Inactive)
    1  A    between atoms: N_3  and  C_9
    2  A    between atoms: N_3  and  CA_14
    3  A    between atoms: C_5  and  C_20
    4  A    between atoms: C_6  and  CA_14
    5  A    between atoms: C_6  and  C_20
    6  A    between atoms: CA_14  and  C_30
    7  A    between atoms: C_22  and  C_29
    8  A    between atoms: C_29  and  C_34
                            x       y       z     vdW  Elec       q    Type
                         _______ _______ _______ _____ _____    ______ ____

>  <TORSDO>
F 8

$$$$
=
 OpenBabel11042411563D

 37 41  0  0  1  0  0  0  0  0999 V2000
  188.4100  176.6080  136.8100 C   0  0  0  0  0  3  0  0  0  0  0  0
  184.2770  178.4520  137.8710 C   0  0  0  0  0  3  0  0  0  0  0  0
  181.8550  178.8760  140.9160 C   0  0  1  0  0  3  0  0  0  0  0  0
  185.8550  178.4620  142.7510 C   0  0  1  0  0  3  0  0  0  0  0  0
  187.5970  177.0390  137.8570 C   0  0  0  0  0  0  0  0  0  0  0  0
  182.7110  179.1860  141.9770 O   0  0  0  0  0  0  0  0  0  0  0  0
  189.7460  176.8410  136.8330 N   0  0  0  0  0  0  0  0  0  0  0  0
  189.5730  177.9200  138.9190 N   0  0  0  0  0  0  0  0  0  0  0  0
  188.2270  177.7340  138.9430 C   0  0  0  0  0  0  0  0  0  0  0  0
  180.6840  179.6240  141.0510 O   0  0  0  0  0  1  0  0  0  0  0  0
  187.1580  177.7200  142.4960 C   0  0  0  0  0  2  0  0  0  0  0  0
  183.3700  177.9850  142.2490 C   0  0  0  0  0  2  0  0  0  0  0  0
  185.2290  177.7290  137.2220 C   0  0  0  0  0  3  0  0  0  0  0  0
  183.8450  178.3770  139.3560 C   0  0  1  0  0  3  0  0  0  0  0  0
  187.4470  178.2930  140.0720 C   0  0  1  0  0  3  0  0  0  0  0  0
  190.3280  177.4840  137.8780 C   0  0  0  0  0  3  0  0  0  0  0  0
  186.2120  178.5920  139.7490 C   0  0  0  0  0  2  0  0  0  0  0  0
  184.9200  178.8470  140.4040 C   0  0  2  0  0  3  0  0  0  0  0  0
  188.0010  178.4410  141.4550 C   0  0  0  0  0  2  0  0  0  0  0  0
  182.5190  179.1600  139.5560 C   0  0  1  0  0  3  0  0  0  0  0  0
  184.8040  178.0210  141.7070 C   0  0  1  0  0  3  0  0  0  0  0  0
  186.1190  176.6570  137.8230 C   0  0  0  0  0  2  0  0  0  0  0  0
  185.4580  178.2130  144.2060 C   0  0  0  0  0  2  0  0  0  0  0  0
  186.5740  177.5270  144.9980 C   0  0  0  0  0  2  0  0  0  0  0  0
  186.9400  178.2380  146.3060 C   0  0  1  0  0  3  0  0  0  0  0  0
  185.8510  179.8900  147.6500 O   0  0  0  0  0  1  0  0  0  0  0  0
  185.7170  178.6010  147.1350 C   0  0  0  0  0  2  0  0  0  0  0  0
  187.8560  177.4300  147.0950 N   0  0  0  0  0  2  0  0  0  0  0  0
  189.0230  177.1770  146.2700 C   0  0  0  0  0  2  0  0  0  0  0  0
  190.2010  176.8310  147.1560 C   0  0  0  0  0  1  0  0  0  0  0  0
  181.5110  178.8350  138.4520 C   0  0  0  0  0  2  0  0  0  0  0  0
  180.7470  182.3480  136.1630 N   0  0  0  0  0  2  0  0  0  0  0  0
  180.2030  179.9850  136.5300 C   0  0  0  0  0  2  0  0  0  0  0  0
  181.0360  180.0860  137.7860 C   0  0  0  0  0  0  0  0  0  0  0  0
  181.0370  182.5550  137.5810 C   0  0  0  0  0  2  0  0  0  0  0  0
  179.6840  181.3500  136.0700 C   0  0  0  0  0  2  0  0  0  0  0  0
  181.4810  181.2720  138.2300 C   0  0  0  0  0  3  0  0  0  0  0  0
  1  7  2  0  0  0  0
  1  5  1  0  0  0  0
  3 10  1  1  0  0  0
  3  6  1  0  0  0  0
  4 23  1  1  0  0  0
  5  9  2  0  0  0  0
  6 12  1  0  0  0  0
  7 16  1  0  0  0  0
  8  9  1  0  0  0  0
  9 15  1  0  0  0  0
 11  4  1  0  0  0  0
 13 22  1  0  0  0  0
 13  2  2  0  0  0  0
 14  2  1  6  0  0  0
 14 20  1  0  0  0  0
 14 18  1  0  0  0  0
 15 17  1  1  0  0  0
 15 19  1  0  0  0  0
 16  8  2  0  0  0  0
 18 17  1  6  0  0  0
 18 21  1  0  0  0  0
 19 11  1  0  0  0  0
 20 31  1  6  0  0  0
 20  3  1  0  0  0  0
 21 12  1  1  0  0  0
 21  4  1  0  0  0  0
 22  5  1  0  0  0  0
 23 24  1  0  0  0  0
 25 24  1  6  0  0  0
 25 28  1  0  0  0  0
 25 27  1  0  0  0  0
 27 26  1  0  0  0  0
 29 28  1  0  0  0  0
 29 30  1  0  0  0  0
 32 35  1  0  0  0  0
 33 34  1  0  0  0  0
 34 37  2  0  0  0  0
 34 31  1  0  0  0  0
 35 37  1  0  0  0  0
 36 32  1  0  0  0  0
 36 33  1  0  0  0  0
M  END
>  <MODEL>
2

>  <REMARK>
 VINA RESULT:      -7.2      3.046      7.098
  Name = 
  8 active torsions:
  status: ('A' for Active; 'I' for Inactive)
    1  A    between atoms: N_3  and  C_9
    2  A    between atoms: N_3  and  CA_14
    3  A    between atoms: C_5  and  C_20
    4  A    between atoms: C_6  and  CA_14
    5  A    between atoms: C_6  and  C_20
    6  A    between atoms: CA_14  and  C_30
    7  A    between atoms: C_22  and  C_29
    8  A    between atoms: C_29  and  C_34
                            x       y       z     vdW  Elec       q    Type
                         _______ _______ _______ _____ _____    ______ ____

>  <TORSDO>
F 8

$$$$
=
 OpenBabel11042411563D

 37 41  0  0  1  0  0  0  0  0999 V2000
  191.2110  175.5330  136.4880 C   0  0  0  0  0  3  0  0  0  0  0  0
  187.4420  177.9730  137.6920 C   0  0  0  0  0  3  0  0  0  0  0  0
  185.2430  178.7740  140.8290 C   0  0  1  0  0  3  0  0  0  0  0  0
  189.2150  177.7930  142.5020 C   0  0  1  0  0  3  0  0  0  0  0  0
  190.5170  176.0880  137.5610 C   0  0  0  0  0  0  0  0  0  0  0  0
  186.1800  178.9640  141.8480 O   0  0  0  0  0  0  0  0  0  0  0  0
  192.5670  175.5680  136.4520 N   0  0  0  0  0  0  0  0  0  0  0  0
  192.6440  176.6790  138.5270 N   0  0  0  0  0  0  0  0  0  0  0  0
  191.2870  176.6920  138.6090 C   0  0  0  0  0  0  0  0  0  0  0  0
  184.2000  179.6870  141.0020 O   0  0  0  0  0  1  0  0  0  0  0  0
  190.3830  176.8660  142.2040 C   0  0  0  0  0  2  0  0  0  0  0  0
  186.6680  177.6820  142.1110 C   0  0  0  0  0  2  0  0  0  0  0  0
  188.2500  177.1130  137.0150 C   0  0  0  0  0  3  0  0  0  0  0  0
  187.0690  177.9750  139.1950 C   0  0  1  0  0  3  0  0  0  0  0  0
  190.6480  177.3700  139.7620 C   0  0  1  0  0  3  0  0  0  0  0  0
  193.2810  176.1280  137.4620 C   0  0  0  0  0  3  0  0  0  0  0  0
  189.4570  177.8440  139.4860 C   0  0  0  0  0  2  0  0  0  0  0  0
  188.2450  178.2910  140.1900 C   0  0  2  0  0  3  0  0  0  0  0  0
  191.2770  177.4470  141.1180 C   0  0  0  0  0  2  0  0  0  0  0  0
  185.8810  178.9460  139.4390 C   0  0  1  0  0  3  0  0  0  0  0  0
  188.0660  177.5020  141.5100 C   0  0  1  0  0  3  0  0  0  0  0  0
  188.9980  175.9270  137.5950 C   0  0  0  0  0  2  0  0  0  0  0  0
  188.8490  177.6180  143.9760 C   0  0  0  0  0  2  0  0  0  0  0  0
  189.9980  178.0160  144.9050 C   0  0  0  0  0  2  0  0  0  0  0  0
  190.3080  176.9830  145.9950 C   0  0  1  0  0  3  0  0  0  0  0  0
  192.0390  175.7470  147.0900 O   0  0  0  0  0  1  0  0  0  0  0  0
  191.7560  176.5160  145.9620 C   0  0  0  0  0  2  0  0  0  0  0  0
  189.9820  177.5060  147.3120 N   0  0  0  0  0  2  0  0  0  0  0  0
  188.6480  177.0370  147.6400 C   0  0  0  0  0  2  0  0  0  0  0  0
  188.0670  177.9000  148.7390 C   0  0  0  0  0  1  0  0  0  0  0  0
  184.7900  178.7620  138.3820 C   0  0  0  0  0  2  0  0  0  0  0  0
  182.5550  175.1370  138.2310 N   0  0  0  0  0  2  0  0  0  0  0  0
  184.5520  176.3440  137.4750 C   0  0  0  0  0  2  0  0  0  0  0  0
  184.1780  177.4020  138.4870 C   0  0  0  0  0  0  0  0  0  0  0  0
  182.5490  175.8420  139.5120 C   0  0  0  0  0  2  0  0  0  0  0  0
  183.9490  174.9790  137.8190 C   0  0  0  0  0  2  0  0  0  0  0  0
  183.2000  177.1930  139.3820 C   0  0  0  0  0  3  0  0  0  0  0  0
  1  5  1  0  0  0  0
  3 10  1  1  0  0  0
  3  6  1  0  0  0  0
  4 23  1  1  0  0  0
  5 22  1  0  0  0  0
  5  9  2  0  0  0  0
  6 12  1  0  0  0  0
  7  1  2  0  0  0  0
  7 16  1  0  0  0  0
  8  9  1  0  0  0  0
  9 15  1  0  0  0  0
 11  4  1  0  0  0  0
 13 22  1  0  0  0  0
 13  2  2  0  0  0  0
 14  2  1  6  0  0  0
 14 20  1  0  0  0  0
 14 18  1  0  0  0  0
 15 17  1  1  0  0  0
 15 19  1  0  0  0  0
 16  8  2  0  0  0  0
 18 17  1  6  0  0  0
 18 21  1  0  0  0  0
 19 11  1  0  0  0  0
 20 31  1  6  0  0  0
 20  3  1  0  0  0  0
 21 12  1  1  0  0  0
 21  4  1  0  0  0  0
 23 24  1  0  0  0  0
 25 24  1  6  0  0  0
 25 28  1  0  0  0  0
 27 25  1  0  0  0  0
 27 26  1  0  0  0  0
 28 29  1  0  0  0  0
 29 30  1  0  0  0  0
 31 34  1  0  0  0  0
 32 35  1  0  0  0  0
 33 36  1  0  0  0  0
 33 34  1  0  0  0  0
 34 37  2  0  0  0  0
 36 32  1  0  0  0  0
 37 35  1  0  0  0  0
M  END
>  <MODEL>
3

>  <REMARK>
 VINA RESULT:      -7.0      2.402      6.853
  Name = 
  8 active torsions:
  status: ('A' for Active; 'I' for Inactive)
    1  A    between atoms: N_3  and  C_9
    2  A    between atoms: N_3  and  CA_14
    3  A    between atoms: C_5  and  C_20
    4  A    between atoms: C_6  and  CA_14
    5  A    between atoms: C_6  and  C_20
    6  A    between atoms: CA_14  and  C_30
    7  A    between atoms: C_22  and  C_29
    8  A    between atoms: C_29  and  C_34
                            x       y       z     vdW  Elec       q    Type
                         _______ _______ _______ _____ _____    ______ ____

>  <TORSDO>
F 8

$$$$
=
 OpenBabel11042411563D

 37 41  0  0  1  0  0  0  0  0999 V2000
  187.9720  177.0630  145.7090 C   0  0  0  0  0  3  0  0  0  0  0  0
  188.7280  178.3080  141.2940 C   0  0  0  0  0  3  0  0  0  0  0  0
  186.8680  178.5100  137.8570 C   0  0  1  0  0  3  0  0  0  0  0  0
  183.6410  178.8010  140.8630 C   0  0  1  0  0  3  0  0  0  0  0  0
  187.3550  177.4170  144.5110 C   0  0  0  0  0  0  0  0  0  0  0  0
  185.6030  178.9990  138.1950 O   0  0  0  0  0  0  0  0  0  0  0  0
  187.4770  177.4970  146.8950 N   0  0  0  0  0  0  0  0  0  0  0  0
  185.7310  178.6400  145.8040 N   0  0  0  0  0  0  0  0  0  0  0  0
  186.1920  178.2530  144.5850 C   0  0  0  0  0  0  0  0  0  0  0  0
  187.2580  179.0770  136.6420 O   0  0  0  0  0  1  0  0  0  0  0  0
  183.3130  178.2540  142.2440 C   0  0  0  0  0  2  0  0  0  0  0  0
  184.9810  177.9270  138.8400 C   0  0  0  0  0  2  0  0  0  0  0  0
  188.8960  177.7070  142.5030 C   0  0  0  0  0  3  0  0  0  0  0  0
  187.5120  178.2430  140.3380 C   0  0  1  0  0  3  0  0  0  0  0  0
  185.5000  178.7430  143.3700 C   0  0  1  0  0  3  0  0  0  0  0  0
  186.3640  178.2730  146.9470 C   0  0  0  0  0  3  0  0  0  0  0  0
  186.2890  178.8340  142.3270 C   0  0  0  0  0  2  0  0  0  0  0  0
  186.1940  178.9220  140.8620 C   0  0  2  0  0  3  0  0  0  0  0  0
  184.0330  179.0420  143.3280 C   0  0  0  0  0  2  0  0  0  0  0  0
  187.9040  178.8230  138.9520 C   0  0  1  0  0  3  0  0  0  0  0  0
  184.9490  178.1540  140.3560 C   0  0  1  0  0  3  0  0  0  0  0  0
  187.8980  176.8130  143.2170 C   0  0  0  0  0  2  0  0  0  0  0  0
  182.4220  178.5670  139.9710 C   0  0  0  0  0  2  0  0  0  0  0  0
  181.1140  178.9390  140.6750 C   0  0  0  0  0  2  0  0  0  0  0  0
  180.0500  177.8360  140.6410 C   0  0  1  0  0  3  0  0  0  0  0  0
  179.7710  175.4830  140.3110 O   0  0  0  0  0  1  0  0  0  0  0  0
  180.5280  176.5860  139.9160 C   0  0  0  0  0  2  0  0  0  0  0  0
  179.6130  177.4970  141.9850 N   0  0  0  0  0  2  0  0  0  0  0  0
  179.6930  178.7100  142.7800 C   0  0  0  0  0  2  0  0  0  0  0  0
  180.0540  178.3540  144.2060 C   0  0  0  0  0  1  0  0  0  0  0  0
  189.2640  178.2940  138.4940 C   0  0  0  0  0  2  0  0  0  0  0  0
  189.3380  174.7390  136.1450 N   0  0  0  0  0  2  0  0  0  0  0  0
  188.2590  175.9590  137.9790 C   0  0  0  0  0  2  0  0  0  0  0  0
  189.0930  177.1450  137.5530 C   0  0  0  0  0  0  0  0  0  0  0  0
  189.6680  175.9790  135.4440 C   0  0  0  0  0  2  0  0  0  0  0  0
  188.0710  174.9490  136.8440 C   0  0  0  0  0  2  0  0  0  0  0  0
  189.8010  177.1220  136.4130 C   0  0  0  0  0  3  0  0  0  0  0  0
  1  7  1  0  0  0  0
  2 13  2  0  0  0  0
  3 10  1  6  0  0  0
  3  6  1  0  0  0  0
  3 20  1  0  0  0  0
  4 23  1  6  0  0  0
  4 11  1  0  0  0  0
  5  9  1  0  0  0  0
  5  1  2  0  0  0  0
  6 12  1  0  0  0  0
  7 16  2  0  0  0  0
  8 16  1  0  0  0  0
  9  8  2  0  0  0  0
 11 19  1  0  0  0  0
 13 22  1  0  0  0  0
 14 18  1  0  0  0  0
 14  2  1  1  0  0  0
 15 17  1  6  0  0  0
 15  9  1  0  0  0  0
 18 17  1  1  0  0  0
 19 15  1  0  0  0  0
 20 31  1  6  0  0  0
 20 14  1  0  0  0  0
 21 12  1  6  0  0  0
 21 18  1  0  0  0  0
 21  4  1  0  0  0  0
 22  5  1  0  0  0  0
 23 24  1  0  0  0  0
 25 27  1  1  0  0  0
 25 24  1  0  0  0  0
 25 28  1  0  0  0  0
 27 26  1  0  0  0  0
 28 29  1  0  0  0  0
 29 30  1  0  0  0  0
 32 36  1  0  0  0  0
 34 33  1  0  0  0  0
 34 31  1  0  0  0  0
 35 32  1  0  0  0  0
 35 37  1  0  0  0  0
 36 33  1  0  0  0  0
 37 34  2  0  0  0  0
M  END
>  <MODEL>
4

>  <REMARK>
 VINA RESULT:      -6.6      1.862      6.832
  Name = 
  8 active torsions:
  status: ('A' for Active; 'I' for Inactive)
    1  A    between atoms: N_3  and  C_9
    2  A    between atoms: N_3  and  CA_14
    3  A    between atoms: C_5  and  C_20
    4  A    between atoms: C_6  and  CA_14
    5  A    between atoms: C_6  and  C_20
    6  A    between atoms: CA_14  and  C_30
    7  A    between atoms: C_22  and  C_29
    8  A    between atoms: C_29  and  C_34
                            x       y       z     vdW  Elec       q    Type
                         _______ _______ _______ _____ _____    ______ ____

>  <TORSDO>
F 8

$$$$
=
 OpenBabel11042411563D

 37 41  0  0  1  0  0  0  0  0999 V2000
  193.7100  174.7730  137.3640 C   0  0  0  0  0  3  0  0  0  0  0  0
  190.2130  176.8390  139.6270 C   0  0  0  0  0  3  0  0  0  0  0  0
  186.7320  178.4890  138.9390 C   0  0  1  0  0  3  0  0  0  0  0  0
  187.2820  175.6610  135.5870 C   0  0  1  0  0  3  0  0  0  0  0  0
  192.3690  175.1460  137.2800 C   0  0  0  0  0  0  0  0  0  0  0  0
  186.1460  177.6410  137.9950 O   0  0  0  0  0  0  0  0  0  0  0  0
  194.1290  173.5880  136.8550 N   0  0  0  0  0  0  0  0  0  0  0  0
  191.9490  173.0670  136.1350 N   0  0  0  0  0  0  0  0  0  0  0  0
  191.4650  174.2320  136.6430 C   0  0  0  0  0  0  0  0  0  0  0  0
  185.7430  178.9310  139.8190 O   0  0  0  0  0  1  0  0  0  0  0  0
  188.4110  175.1110  134.7290 C   0  0  0  0  0  2  0  0  0  0  0  0
  186.8620  177.8860  136.8200 C   0  0  0  0  0  2  0  0  0  0  0  0
  191.4750  176.5450  139.2110 C   0  0  0  0  0  3  0  0  0  0  0  0
  188.9800  177.2380  138.7810 C   0  0  1  0  0  3  0  0  0  0  0  0
  190.0100  174.4990  136.5610 C   0  0  1  0  0  3  0  0  0  0  0  0
  193.2630  172.7430  136.2400 C   0  0  0  0  0  3  0  0  0  0  0  0
  189.5700  175.2670  137.5270 C   0  0  0  0  0  2  0  0  0  0  0  0
  188.4100  176.1190  137.8340 C   0  0  2  0  0  3  0  0  0  0  0  0
  189.1470  173.9900  135.4480 C   0  0  0  0  0  2  0  0  0  0  0  0
  187.8600  177.7790  139.7100 C   0  0  1  0  0  3  0  0  0  0  0  0
  187.8430  176.7430  136.5360 C   0  0  1  0  0  3  0  0  0  0  0  0
  191.9770  176.5350  137.7790 C   0  0  0  0  0  2  0  0  0  0  0  0
  186.1780  176.1420  134.6450 C   0  0  0  0  0  2  0  0  0  0  0  0
  184.8990  175.3140  134.7870 C   0  0  0  0  0  2  0  0  0  0  0  0
  184.5700  174.9110  136.2300 C   0  0  1  0  0  3  0  0  0  0  0  0
  183.2350  176.8870  136.0500 O   0  0  0  0  0  1  0  0  0  0  0  0
  183.4530  175.7510  136.8300 C   0  0  0  0  0  2  0  0  0  0  0  0
  184.2310  173.5000  136.3080 N   0  0  0  0  0  2  0  0  0  0  0  0
  184.6970  173.0190  137.5970 C   0  0  0  0  0  2  0  0  0  0  0  0
  186.2020  172.8680  137.5640 C   0  0  0  0  0  1  0  0  0  0  0  0
  188.4220  178.7540  140.7460 C   0  0  0  0  0  2  0  0  0  0  0  0
  188.0750  177.7750  144.8790 N   0  0  0  0  0  2  0  0  0  0  0  0
  186.9710  177.8340  142.6900 C   0  0  0  0  0  2  0  0  0  0  0  0
  188.3290  178.1750  142.1210 C   0  0  0  0  0  0  0  0  0  0  0  0
  189.3840  177.5420  144.2710 C   0  0  0  0  0  2  0  0  0  0  0  0
  187.0740  177.1190  144.0390 C   0  0  0  0  0  2  0  0  0  0  0  0
  189.4360  178.1070  142.8780 C   0  0  0  0  0  3  0  0  0  0  0  0
  3 20  1  0  0  0  0
  3 10  1  1  0  0  0
  4 23  1  6  0  0  0
  4 21  1  0  0  0  0
  5  1  1  0  0  0  0
  5 22  1  0  0  0  0
  6  3  1  0  0  0  0
  7  1  2  0  0  0  0
  8 16  2  0  0  0  0
  8  9  1  0  0  0  0
  9  5  2  0  0  0  0
 11 19  1  0  0  0  0
 11  4  1  0  0  0  0
 12  6  1  0  0  0  0
 13  2  2  0  0  0  0
 14  2  1  1  0  0  0
 14 20  1  0  0  0  0
 15 19  1  6  0  0  0
 15  9  1  0  0  0  0
 15 17  1  0  0  0  0
 16  7  1  0  0  0  0
 18 17  1  6  0  0  0
 18 14  1  0  0  0  0
 20 31  1  1  0  0  0
 21 12  1  1  0  0  0
 21 18  1  0  0  0  0
 22 13  1  0  0  0  0
 23 24  1  0  0  0  0
 25 24  1  6  0  0  0
 25 28  1  0  0  0  0
 25 27  1  0  0  0  0
 26 27  1  0  0  0  0
 28 29  1  0  0  0  0
 30 29  1  0  0  0  0
 31 34  1  0  0  0  0
 33 36  1  0  0  0  0
 34 33  1  0  0  0  0
 34 37  2  0  0  0  0
 35 32  1  0  0  0  0
 36 32  1  0  0  0  0
 37 35  1  0  0  0  0
M  END
>  <MODEL>
5

>  <REMARK>
 VINA RESULT:      -6.6      3.083      8.110
  Name = 
  8 active torsions:
  status: ('A' for Active; 'I' for Inactive)
    1  A    between atoms: N_3  and  C_9
    2  A    between atoms: N_3  and  CA_14
    3  A    between atoms: C_5  and  C_20
    4  A    between atoms: C_6  and  CA_14
    5  A    between atoms: C_6  and  C_20
    6  A    between atoms: CA_14  and  C_30
    7  A    between atoms: C_22  and  C_29
    8  A    between atoms: C_29  and  C_34
                            x       y       z     vdW  Elec       q    Type
                         _______ _______ _______ _____ _____    ______ ____

>  <TORSDO>
F 8

$$$$
=
 OpenBabel11042411563D

 37 41  0  0  1  0  0  0  0  0999 V2000
  192.9710  173.9670  136.5860 C   0  0  0  0  0  3  0  0  0  0  0  0
  189.0590  176.4700  136.3720 C   0  0  0  0  0  3  0  0  0  0  0  0
  186.4080  178.1290  138.7240 C   0  0  1  0  0  3  0  0  0  0  0  0
  190.0810  177.9470  141.1770 C   0  0  1  0  0  3  0  0  0  0  0  0
  192.1210  174.8030  137.3080 C   0  0  0  0  0  0  0  0  0  0  0  0
  187.1790  178.6870  139.7480 O   0  0  0  0  0  0  0  0  0  0  0  0
  194.3160  174.0580  136.7360 N   0  0  0  0  0  0  0  0  0  0  0  0
  194.0760  175.7830  138.3200 N   0  0  0  0  0  0  0  0  0  0  0  0
  192.7220  175.7530  138.1990 C   0  0  0  0  0  0  0  0  0  0  0  0
  185.3500  178.9940  138.4380 O   0  0  0  0  0  1  0  0  0  0  0  0
  191.2820  177.0350  141.3690 C   0  0  0  0  0  2  0  0  0  0  0  0
  187.6230  177.5850  140.4830 C   0  0  0  0  0  2  0  0  0  0  0  0
  189.9620  175.4790  136.1370 C   0  0  0  0  0  3  0  0  0  0  0  0
  188.4620  176.9390  137.7220 C   0  0  1  0  0  3  0  0  0  0  0  0
  191.9140  176.7330  138.9610 C   0  0  1  0  0  3  0  0  0  0  0  0
  194.8680  174.9500  137.5970 C   0  0  0  0  0  3  0  0  0  0  0  0
  190.7780  177.0320  138.3780 C   0  0  0  0  0  2  0  0  0  0  0  0
  189.4730  177.6200  138.7160 C   0  0  2  0  0  3  0  0  0  0  0  0
  192.3300  177.2770  140.2930 C   0  0  0  0  0  2  0  0  0  0  0  0
  187.2500  177.8740  137.4610 C   0  0  1  0  0  3  0  0  0  0  0  0
  189.0970  177.2930  140.1810 C   0  0  1  0  0  3  0  0  0  0  0  0
  190.6150  174.5840  137.1740 C   0  0  0  0  0  2  0  0  0  0  0  0
  189.4960  178.2400  142.5580 C   0  0  0  0  0  2  0  0  0  0  0  0
  190.5620  178.7230  143.5440 C   0  0  0  0  0  2  0  0  0  0  0  0
  190.4270  178.1290  144.9520 C   0  0  1  0  0  3  0  0  0  0  0  0
  188.2400  177.6310  145.7820 O   0  0  0  0  0  1  0  0  0  0  0  0
  189.3040  177.1070  145.0480 C   0  0  0  0  0  2  0  0  0  0  0  0
  191.6820  177.5350  145.3850 N   0  0  0  0  0  2  0  0  0  0  0  0
  191.3840  176.1860  145.8320 C   0  0  0  0  0  2  0  0  0  0  0  0
  191.8500  176.0150  147.2620 C   0  0  0  0  0  1  0  0  0  0  0  0
  186.3320  177.3030  136.3780 C   0  0  0  0  0  2  0  0  0  0  0  0
  184.0490  173.7890  137.1550 N   0  0  0  0  0  2  0  0  0  0  0  0
  186.2860  174.7640  136.9070 C   0  0  0  0  0  2  0  0  0  0  0  0
  185.5950  176.1080  136.8890 C   0  0  0  0  0  0  0  0  0  0  0  0
  183.5070  175.0390  137.6870 C   0  0  0  0  0  2  0  0  0  0  0  0
  185.4400  173.6890  137.5940 C   0  0  0  0  0  2  0  0  0  0  0  0
  184.2890  176.2200  137.1810 C   0  0  0  0  0  3  0  0  0  0  0  0
  1  7  2  0  0  0  0
  1  5  1  0  0  0  0
  3 10  1  6  0  0  0
  3  6  1  0  0  0  0
  4 11  1  0  0  0  0
  4 23  1  1  0  0  0
  5  9  2  0  0  0  0
  6 12  1  0  0  0  0
  7 16  1  0  0  0  0
  9  8  1  0  0  0  0
  9 15  1  0  0  0  0
 13  2  2  0  0  0  0
 13 22  1  0  0  0  0
 14  2  1  6  0  0  0
 14 18  1  0  0  0  0
 15 17  1  1  0  0  0
 15 19  1  0  0  0  0
 16  8  2  0  0  0  0
 18 17  1  6  0  0  0
 18 21  1  0  0  0  0
 19 11  1  0  0  0  0
 20 31  1  6  0  0  0
 20 14  1  0  0  0  0
 20  3  1  0  0  0  0
 21 12  1  1  0  0  0
 21  4  1  0  0  0  0
 22  5  1  0  0  0  0
 23 24  1  0  0  0  0
 25 24  1  6  0  0  0
 25 27  1  0  0  0  0
 25 28  1  0  0  0  0
 27 26  1  0  0  0  0
 28 29  1  0  0  0  0
 29 30  1  0  0  0  0
 31 34  1  0  0  0  0
 32 36  1  0  0  0  0
 32 35  1  0  0  0  0
 33 36  1  0  0  0  0
 34 33  1  0  0  0  0
 34 37  2  0  0  0  0
 37 35  1  0  0  0  0
M  END
>  <MODEL>
6

>  <REMARK>
 VINA RESULT:      -6.6      3.300      7.495
  Name = 
  8 active torsions:
  status: ('A' for Active; 'I' for Inactive)
    1  A    between atoms: N_3  and  C_9
    2  A    between atoms: N_3  and  CA_14
    3  A    between atoms: C_5  and  C_20
    4  A    between atoms: C_6  and  CA_14
    5  A    between atoms: C_6  and  C_20
    6  A    between atoms: CA_14  and  C_30
    7  A    between atoms: C_22  and  C_29
    8  A    between atoms: C_29  and  C_34
                            x       y       z     vdW  Elec       q    Type
                         _______ _______ _______ _____ _____    ______ ____

>  <TORSDO>
F 8

$$$$
=
 OpenBabel11042411563D

 37 41  0  0  1  0  0  0  0  0999 V2000
  187.8650  177.1040  145.7480 C   0  0  0  0  0  3  0  0  0  0  0  0
  188.6650  178.3130  141.3320 C   0  0  0  0  0  3  0  0  0  0  0  0
  186.8340  178.5030  137.8780 C   0  0  1  0  0  3  0  0  0  0  0  0
  183.5850  178.8360  140.8550 C   0  0  1  0  0  3  0  0  0  0  0  0
  187.2600  177.4540  144.5430 C   0  0  0  0  0  0  0  0  0  0  0  0
  185.5700  179.0030  138.2020 O   0  0  0  0  0  0  0  0  0  0  0  0
  187.3620  177.5500  146.9270 N   0  0  0  0  0  0  0  0  0  0  0  0
  185.6330  178.6970  145.8140 N   0  0  0  0  0  0  0  0  0  0  0  0
  186.1010  178.2980  144.6020 C   0  0  0  0  0  0  0  0  0  0  0  0
  187.2380  179.0590  136.6620 O   0  0  0  0  0  1  0  0  0  0  0  0
  183.2420  178.3010  142.2370 C   0  0  0  0  0  2  0  0  0  0  0  0
  184.9360  177.9400  138.8500 C   0  0  0  0  0  2  0  0  0  0  0  0
  188.8190  177.7200  142.5460 C   0  0  0  0  0  3  0  0  0  0  0  0
  187.4560  178.2490  140.3660 C   0  0  1  0  0  3  0  0  0  0  0  0
  185.4220  178.7840  143.3780 C   0  0  1  0  0  3  0  0  0  0  0  0
  186.2540  178.3330  146.9650 C   0  0  0  0  0  3  0  0  0  0  0  0
  186.2210  178.8630  142.3410 C   0  0  0  0  0  2  0  0  0  0  0  0
  186.1390  178.9400  140.8740 C   0  0  2  0  0  3  0  0  0  0  0  0
  183.9580  179.0920  143.3220 C   0  0  0  0  0  2  0  0  0  0  0  0
  187.8630  178.8180  138.9790 C   0  0  1  0  0  3  0  0  0  0  0  0
  184.8930  178.1770  140.3640 C   0  0  1  0  0  3  0  0  0  0  0  0
  187.8090  176.8380  143.2580 C   0  0  0  0  0  2  0  0  0  0  0  0
  182.3710  178.6040  139.9550 C   0  0  0  0  0  2  0  0  0  0  0  0
  181.0710  178.5080  140.7560 C   0  0  0  0  0  2  0  0  0  0  0  0
  179.9680  179.4590  140.2760 C   0  0  1  0  0  3  0  0  0  0  0  0
  180.3020  180.3210  142.4820 O   0  0  0  0  0  1  0  0  0  0  0  0
  179.7250  180.6060  141.2460 C   0  0  0  0  0  2  0  0  0  0  0  0
  180.2730  179.9790  138.9530 N   0  0  0  0  0  2  0  0  0  0  0  0
  180.3360  181.4250  139.0670 C   0  0  0  0  0  2  0  0  0  0  0  0
  181.5580  181.9350  138.3330 C   0  0  0  0  0  1  0  0  0  0  0  0
  189.2230  178.2760  138.5360 C   0  0  0  0  0  2  0  0  0  0  0  0
  189.2830  174.7510  136.1420 N   0  0  0  0  0  2  0  0  0  0  0  0
  188.1840  175.9690  137.9640 C   0  0  0  0  0  2  0  0  0  0  0  0
  189.0520  177.1430  137.5750 C   0  0  0  0  0  0  0  0  0  0  0  0
  189.6560  175.9930  135.4660 C   0  0  0  0  0  2  0  0  0  0  0  0
  188.0040  174.9780  136.8120 C   0  0  0  0  0  2  0  0  0  0  0  0
  189.7890  177.1200  136.4530 C   0  0  0  0  0  3  0  0  0  0  0  0
  1  7  1  0  0  0  0
  2 13  2  0  0  0  0
  3 10  1  6  0  0  0
  3  6  1  0  0  0  0
  3 20  1  0  0  0  0
  4 23  1  6  0  0  0
  4 11  1  0  0  0  0
  5  9  1  0  0  0  0
  5  1  2  0  0  0  0
  6 12  1  0  0  0  0
  7 16  2  0  0  0  0
  8 16  1  0  0  0  0
  9  8  2  0  0  0  0
 11 19  1  0  0  0  0
 13 22  1  0  0  0  0
 14 18  1  0  0  0  0
 14  2  1  1  0  0  0
 15 17  1  6  0  0  0
 15  9  1  0  0  0  0
 18 17  1  1  0  0  0
 19 15  1  0  0  0  0
 20 31  1  6  0  0  0
 20 14  1  0  0  0  0
 21 12  1  6  0  0  0
 21  4  1  0  0  0  0
 21 18  1  0  0  0  0
 22  5  1  0  0  0  0
 23 24  1  0  0  0  0
 25 24  1  1  0  0  0
 25 27  1  0  0  0  0
 27 26  1  0  0  0  0
 28 29  1  0  0  0  0
 28 25  1  0  0  0  0
 30 29  1  0  0  0  0
 32 36  1  0  0  0  0
 34 33  1  0  0  0  0
 34 31  1  0  0  0  0
 35 32  1  0  0  0  0
 35 37  1  0  0  0  0
 36 33  1  0  0  0  0
 37 34  2  0  0  0  0
M  END
>  <MODEL>
7

>  <REMARK>
 VINA RESULT:      -6.6      2.119      6.787
  Name = 
  8 active torsions:
  status: ('A' for Active; 'I' for Inactive)
    1  A    between atoms: N_3  and  C_9
    2  A    between atoms: N_3  and  CA_14
    3  A    between atoms: C_5  and  C_20
    4  A    between atoms: C_6  and  CA_14
    5  A    between atoms: C_6  and  C_20
    6  A    between atoms: CA_14  and  C_30
    7  A    between atoms: C_22  and  C_29
    8  A    between atoms: C_29  and  C_34
                            x       y       z     vdW  Elec       q    Type
                         _______ _______ _______ _____ _____    ______ ____

>  <TORSDO>
F 8

$$$$
=
 OpenBabel11042411563D

 37 41  0  0  1  0  0  0  0  0999 V2000
  189.9200  176.3210  136.9670 C   0  0  0  0  0  3  0  0  0  0  0  0
  186.3670  178.6310  138.8790 C   0  0  0  0  0  3  0  0  0  0  0  0
  184.4040  178.8870  142.2550 C   0  0  1  0  0  3  0  0  0  0  0  0
  188.4070  177.4270  143.4290 C   0  0  1  0  0  3  0  0  0  0  0  0
  189.3210  176.6810  138.1730 C   0  0  0  0  0  0  0  0  0  0  0  0
  185.4080  178.8320  143.2250 O   0  0  0  0  0  0  0  0  0  0  0  0
  191.2710  176.3050  136.8460 N   0  0  0  0  0  0  0  0  0  0  0  0
  191.5310  176.9790  139.0880 N   0  0  0  0  0  0  0  0  0  0  0  0
  190.1840  177.0330  139.2640 C   0  0  0  0  0  0  0  0  0  0  0  0
  183.4250  179.7900  142.6740 O   0  0  0  0  0  1  0  0  0  0  0  0
  189.5030  176.5290  142.8770 C   0  0  0  0  0  2  0  0  0  0  0  0
  185.8400  177.5030  143.1990 C   0  0  0  0  0  2  0  0  0  0  0  0
  187.0850  177.8890  137.9940 C   0  0  0  0  0  3  0  0  0  0  0  0
  186.0840  178.3510  140.3760 C   0  0  1  0  0  3  0  0  0  0  0  0
  189.6510  177.4950  140.5670 C   0  0  1  0  0  3  0  0  0  0  0  0
  192.0730  176.6240  137.8940 C   0  0  0  0  0  3  0  0  0  0  0  0
  188.4740  178.0640  140.4720 C   0  0  0  0  0  2  0  0  0  0  0  0
  187.3320  178.4140  141.3300 C   0  0  2  0  0  3  0  0  0  0  0  0
  190.3620  177.2750  141.8660 C   0  0  0  0  0  2  0  0  0  0  0  0
  184.9680  179.3030  140.8840 C   0  0  1  0  0  3  0  0  0  0  0  0
  187.1890  177.3870  142.4800 C   0  0  1  0  0  3  0  0  0  0  0  0
  187.8010  176.5800  138.2780 C   0  0  0  0  0  2  0  0  0  0  0  0
  188.1200  176.9790  144.8620 C   0  0  0  0  0  2  0  0  0  0  0  0
  188.1870  178.1430  145.8540 C   0  0  0  0  0  2  0  0  0  0  0  0
  189.1360  177.9050  147.0340 C   0  0  1  0  0  3  0  0  0  0  0  0
  187.9260  176.7060  148.7130 O   0  0  0  0  0  1  0  0  0  0  0  0
  188.4230  177.9650  148.3770 C   0  0  0  0  0  2  0  0  0  0  0  0
  189.8300  176.6360  146.8930 N   0  0  0  0  0  2  0  0  0  0  0  0
  191.2510  176.9110  147.0030 C   0  0  0  0  0  2  0  0  0  0  0  0
  191.9910  175.6260  147.3100 C   0  0  0  0  0  1  0  0  0  0  0  0
  183.8080  179.3790  139.8900 C   0  0  0  0  0  2  0  0  0  0  0  0
  181.1140  176.0990  139.5110 N   0  0  0  0  0  2  0  0  0  0  0  0
  183.4260  176.8860  139.2850 C   0  0  0  0  0  2  0  0  0  0  0  0
  182.9620  178.1490  139.9720 C   0  0  0  0  0  0  0  0  0  0  0  0
  180.8530  177.0200  140.6160 C   0  0  0  0  0  2  0  0  0  0  0  0
  182.5160  175.6940  139.5950 C   0  0  0  0  0  2  0  0  0  0  0  0
  181.7410  178.2310  140.5240 C   0  0  0  0  0  3  0  0  0  0  0  0
  1  5  1  0  0  0  0
  3 10  1  1  0  0  0
  3  6  1  0  0  0  0
  4 23  1  1  0  0  0
  5 22  1  0  0  0  0
  5  9  2  0  0  0  0
  7  1  2  0  0  0  0
  7 16  1  0  0  0  0
  8  9  1  0  0  0  0
  9 15  1  0  0  0  0
 11  4  1  0  0  0  0
 12  6  1  0  0  0  0
 13 22  1  0  0  0  0
 13  2  2  0  0  0  0
 14  2  1  6  0  0  0
 14 20  1  0  0  0  0
 14 18  1  0  0  0  0
 15 17  1  1  0  0  0
 15 19  1  0  0  0  0
 16  8  2  0  0  0  0
 18 17  1  6  0  0  0
 18 21  1  0  0  0  0
 19 11  1  0  0  0  0
 20 31  1  6  0  0  0
 20  3  1  0  0  0  0
 21 12  1  1  0  0  0
 21  4  1  0  0  0  0
 23 24  1  0  0  0  0
 25 24  1  6  0  0  0
 25 27  1  0  0  0  0
 27 26  1  0  0  0  0
 28 29  1  0  0  0  0
 28 25  1  0  0  0  0
 29 30  1  0  0  0  0
 31 34  1  0  0  0  0
 32 36  1  0  0  0  0
 32 35  1  0  0  0  0
 33 36  1  0  0  0  0
 33 34  1  0  0  0  0
 34 37  2  0  0  0  0
 37 35  1  0  0  0  0
M  END
>  <MODEL>
8

>  <REMARK>
 VINA RESULT:      -6.5      2.371      6.589
  Name = 
  8 active torsions:
  status: ('A' for Active; 'I' for Inactive)
    1  A    between atoms: N_3  and  C_9
    2  A    between atoms: N_3  and  CA_14
    3  A    between atoms: C_5  and  C_20
    4  A    between atoms: C_6  and  CA_14
    5  A    between atoms: C_6  and  C_20
    6  A    between atoms: CA_14  and  C_30
    7  A    between atoms: C_22  and  C_29
    8  A    between atoms: C_29  and  C_34
                            x       y       z     vdW  Elec       q    Type
                         _______ _______ _______ _____ _____    ______ ____

>  <TORSDO>
F 8

$$$$
=
 OpenBabel11042411563D

 37 41  0  0  1  0  0  0  0  0999 V2000
  179.4000  179.8870  141.5650 C   0  0  0  0  0  3  0  0  0  0  0  0
  181.8910  177.7450  138.2760 C   0  0  0  0  0  3  0  0  0  0  0  0
  185.5830  177.4240  137.0180 C   0  0  1  0  0  3  0  0  0  0  0  0
  185.9750  178.4840  141.2920 C   0  0  1  0  0  3  0  0  0  0  0  0
  180.6850  179.4970  141.1920 C   0  0  0  0  0  0  0  0  0  0  0  0
  186.3270  177.3370  138.1980 O   0  0  0  0  0  0  0  0  0  0  0  0
  179.0040  179.8040  142.8600 N   0  0  0  0  0  0  0  0  0  0  0  0
  181.1090  178.9670  143.5040 N   0  0  0  0  0  0  0  0  0  0  0  0
  181.5560  179.0080  142.2210 C   0  0  0  0  0  0  0  0  0  0  0  0
  186.1510  176.5760  136.0660 O   0  0  0  0  0  1  0  0  0  0  0  0
  185.2520  179.3270  142.3310 C   0  0  0  0  0  2  0  0  0  0  0  0
  186.2760  178.6260  138.7340 C   0  0  0  0  0  2  0  0  0  0  0  0
  180.9130  178.4840  138.8660 C   0  0  0  0  0  3  0  0  0  0  0  0
  183.4260  177.9470  138.3270 C   0  0  1  0  0  3  0  0  0  0  0  0
  182.9180  178.5050  141.9220 C   0  0  1  0  0  3  0  0  0  0  0  0
  179.8480  179.3560  143.8240 C   0  0  0  0  0  3  0  0  0  0  0  0
  183.0400  178.0380  140.7030 C   0  0  0  0  0  2  0  0  0  0  0  0
  184.0980  177.7240  139.7310 C   0  0  2  0  0  3  0  0  0  0  0  0
  184.0510  178.5830  142.8970 C   0  0  0  0  0  2  0  0  0  0  0  0
  184.1080  177.0550  137.2540 C   0  0  1  0  0  3  0  0  0  0  0  0
  185.3000  178.6810  139.9150 C   0  0  1  0  0  3  0  0  0  0  0  0
  181.1060  179.7100  139.7390 C   0  0  0  0  0  2  0  0  0  0  0  0
  187.4560  178.8590  141.3410 C   0  0  0  0  0  2  0  0  0  0  0  0
  188.3640  177.6340  141.2110 C   0  0  0  0  0  2  0  0  0  0  0  0
  188.8430  177.0660  142.5530 C   0  0  1  0  0  3  0  0  0  0  0  0
  190.3320  175.2170  142.8470 O   0  0  0  0  0  1  0  0  0  0  0  0
  190.2790  176.5650  142.4940 C   0  0  0  0  0  2  0  0  0  0  0  0
  188.7010  178.0510  143.6120 N   0  0  0  0  0  2  0  0  0  0  0  0
  188.3370  177.3310  144.8190 C   0  0  0  0  0  2  0  0  0  0  0  0
  186.8770  177.5780  145.1320 C   0  0  0  0  0  1  0  0  0  0  0  0
  183.3710  177.1360  135.9160 C   0  0  0  0  0  2  0  0  0  0  0  0
  181.0320  173.5770  135.7620 N   0  0  0  0  0  2  0  0  0  0  0  0
  181.2580  175.9110  135.0420 C   0  0  0  0  0  2  0  0  0  0  0  0
  182.6480  175.8590  135.6340 C   0  0  0  0  0  0  0  0  0  0  0  0
  182.4820  173.3920  135.7960 C   0  0  0  0  0  2  0  0  0  0  0  0
  180.7300  174.5190  134.6850 C   0  0  0  0  0  2  0  0  0  0  0  0
  183.1830  174.6990  136.0480 C   0  0  0  0  0  3  0  0  0  0  0  0
  1  7  1  0  0  0  0
  2 13  2  0  0  0  0
  3 10  1  6  0  0  0
  3 20  1  0  0  0  0
  3  6  1  0  0  0  0
  4 23  1  6  0  0  0
  4 11  1  0  0  0  0
  5  1  2  0  0  0  0
  5  9  1  0  0  0  0
  6 12  1  0  0  0  0
  7 16  2  0  0  0  0
  8 16  1  0  0  0  0
  9  8  2  0  0  0  0
 11 19  1  0  0  0  0
 13 22  1  0  0  0  0
 14  2  1  1  0  0  0
 14 18  1  0  0  0  0
 15 17  1  6  0  0  0
 15  9  1  0  0  0  0
 15 19  1  0  0  0  0
 18 21  1  0  0  0  0
 18 17  1  1  0  0  0
 20 31  1  6  0  0  0
 20 14  1  0  0  0  0
 21 12  1  6  0  0  0
 21  4  1  0  0  0  0
 22  5  1  0  0  0  0
 24 23  1  0  0  0  0
 25 24  1  6  0  0  0
 25 28  1  0  0  0  0
 27 25  1  0  0  0  0
 27 26  1  0  0  0  0
 28 29  1  0  0  0  0
 29 30  1  0  0  0  0
 32 35  1  0  0  0  0
 33 34  1  0  0  0  0
 34 31  1  0  0  0  0
 34 37  2  0  0  0  0
 35 37  1  0  0  0  0
 36 33  1  0  0  0  0
 36 32  1  0  0  0  0
M  END
>  <MODEL>
9

>  <REMARK>
 VINA RESULT:      -6.4      2.949      6.011
  Name = 
  8 active torsions:
  status: ('A' for Active; 'I' for Inactive)
    1  A    between atoms: N_3  and  C_9
    2  A    between atoms: N_3  and  CA_14
    3  A    between atoms: C_5  and  C_20
    4  A    between atoms: C_6  and  CA_14
    5  A    between atoms: C_6  and  C_20
    6  A    between atoms: CA_14  and  C_30
    7  A    between atoms: C_22  and  C_29
    8  A    between atoms: C_29  and  C_34
                            x       y       z     vdW  Elec       q    Type
                         _______ _______ _______ _____ _____    ______ ____

>  <TORSDO>
F 8

$$$$
