=
 OpenBabel11042412263D

 26 30  0  0  1  0  0  0  0  0999 V2000
  181.4340  178.2030  140.0080 C   0  0  1  0  0  3  0  0  0  0  0  0
  182.3020  180.0100  138.2950 C   0  0  0  0  0  1  0  0  0  0  0  0
  181.8440  178.0450  141.4650 C   0  0  1  0  0  3  0  0  0  0  0  0
  183.5740  179.3590  140.3610 C   0  0  1  0  0  3  0  0  0  0  0  0
  183.1330  178.7160  141.5900 N   0  0  0  0  0  0  0  0  0  0  0  0
  183.9780  178.3150  139.3290 C   0  0  0  0  0  2  0  0  0  0  0  0
  182.5860  178.9160  139.3030 C   0  0  1  0  0  0  0  0  0  0  0  0
  185.6100  178.4130  145.0300 C   0  0  0  0  0  0  0  0  0  0  0  0
  183.5400  179.1190  143.9910 C   0  0  0  0  0  3  0  0  0  0  0  0
  186.3990  178.3160  146.1260 F   0  0  0  0  0  0  0  0  0  0  0  0
  186.0510  177.9060  143.8050 C   0  0  0  0  0  3  0  0  0  0  0  0
  184.3550  179.0200  145.1220 C   0  0  0  0  0  3  0  0  0  0  0  0
  183.9730  178.6130  142.7550 C   0  0  0  0  0  0  0  0  0  0  0  0
  185.2370  178.0060  142.6730 C   0  0  0  0  0  3  0  0  0  0  0  0
  180.3010  179.9260  142.0470 C   0  0  0  0  0  3  0  0  0  0  0  0
  180.8180  178.6670  142.3630 C   0  0  0  0  0  0  0  0  0  0  0  0
  179.3760  180.5100  142.8570 N   0  0  0  0  0  0  0  0  0  0  0  0
  179.4240  178.6390  144.3430 C   0  0  0  0  0  3  0  0  0  0  0  0
  180.3740  178.0250  143.5270 C   0  0  0  0  0  3  0  0  0  0  0  0
  178.9310  179.8960  143.9870 C   0  0  0  0  0  3  0  0  0  0  0  0
  180.4160  175.8730  139.9970 C   0  0  0  0  0  3  0  0  0  0  0  0
  181.1390  176.8790  139.3850 C   0  0  0  0  0  0  0  0  0  0  0  0
  181.1030  175.3100  137.9240 C   0  0  0  0  0  3  0  0  0  0  0  0
  179.7890  173.6150  139.1760 N   0  0  0  0  0  1  0  0  0  0  0  0
  180.4130  174.8850  139.0370 C   0  0  0  0  0  0  0  0  0  0  0  0
  181.5260  176.5260  138.1790 O   0  0  0  0  0  0  0  0  0  0  0  0
  1 22  1  6  0  0  0
  1  3  1  0  0  0  0
  3  5  1  0  0  0  0
  3 16  1  1  0  0  0
  4  6  1  6  0  0  0
  4  5  1  0  0  0  0
  5 13  1  0  0  0  0
  7  2  1  6  0  0  0
  7  6  1  0  0  0  0
  7  1  1  0  0  0  0
  7  4  1  0  0  0  0
  8 12  1  0  0  0  0
  8 10  1  0  0  0  0
  9 12  2  0  0  0  0
 11  8  2  0  0  0  0
 13  9  1  0  0  0  0
 14 13  2  0  0  0  0
 14 11  1  0  0  0  0
 15 16  2  0  0  0  0
 15 17  1  0  0  0  0
 16 19  1  0  0  0  0
 17 20  2  0  0  0  0
 19 18  2  0  0  0  0
 20 18  1  0  0  0  0
 22 21  2  0  0  0  0
 23 26  1  0  0  0  0
 23 25  2  0  0  0  0
 25 24  1  0  0  0  0
 25 21  1  0  0  0  0
 26 22  1  0  0  0  0
M  END
>  <MODEL>
1

>  <REMARK>
 VINA RESULT:      -6.7      0.000      0.000
  Name = 
  3 active torsions:
  status: ('A' for Active; 'I' for Inactive)
    1  A    between atoms: C_2  and  C_5
    2  A    between atoms: C_4  and  C_13
    3  A    between atoms: C_15  and  N_23
                            x       y       z     vdW  Elec       q    Type
                         _______ _______ _______ _____ _____    ______ ____

>  <TORSDO>
F 3

$$$$
=
 OpenBabel11042412263D

 26 30  0  0  1  0  0  0  0  0999 V2000
  181.0730  179.2770  139.1540 C   0  0  1  0  0  3  0  0  0  0  0  0
  179.0450  177.6450  139.5750 C   0  0  0  0  0  1  0  0  0  0  0  0
  182.4010  179.3050  139.8950 C   0  0  1  0  0  3  0  0  0  0  0  0
  180.8070  178.1150  141.3030 C   0  0  1  0  0  3  0  0  0  0  0  0
  182.1590  178.6380  141.1690 N   0  0  0  0  0  0  0  0  0  0  0  0
  179.8090  179.2540  141.4670 C   0  0  0  0  0  2  0  0  0  0  0  0
  180.0550  178.6440  140.1010 C   0  0  1  0  0  0  0  0  0  0  0  0
  184.9300  178.6490  144.3910 C   0  0  0  0  0  0  0  0  0  0  0  0
  182.7070  179.0800  143.5340 C   0  0  0  0  0  3  0  0  0  0  0  0
  185.8120  178.6520  145.4180 F   0  0  0  0  0  0  0  0  0  0  0  0
  185.3320  178.2110  143.1260 C   0  0  0  0  0  3  0  0  0  0  0  0
  183.6180  179.0840  144.5950 C   0  0  0  0  0  3  0  0  0  0  0  0
  183.0990  178.6420  142.2600 C   0  0  0  0  0  0  0  0  0  0  0  0
  184.4200  178.2070  142.0660 C   0  0  0  0  0  3  0  0  0  0  0  0
  184.6890  179.2090  138.8880 C   0  0  0  0  0  3  0  0  0  0  0  0
  183.4540  178.5930  139.1000 C   0  0  0  0  0  0  0  0  0  0  0  0
  185.6530  178.5800  138.1610 N   0  0  0  0  0  0  0  0  0  0  0  0
  184.2230  176.6990  137.8020 C   0  0  0  0  0  3  0  0  0  0  0  0
  183.2230  177.3280  138.5440 C   0  0  0  0  0  3  0  0  0  0  0  0
  185.4460  177.3490  137.6200 C   0  0  0  0  0  3  0  0  0  0  0  0
  181.5250  181.6090  138.2470 C   0  0  0  0  0  3  0  0  0  0  0  0
  180.6600  180.6510  138.7370 C   0  0  0  0  0  0  0  0  0  0  0  0
  179.3920  182.3330  138.3410 C   0  0  0  0  0  3  0  0  0  0  0  0
  181.0870  183.9330  137.4850 N   0  0  0  0  0  1  0  0  0  0  0  0
  180.6820  182.6720  138.0050 C   0  0  0  0  0  0  0  0  0  0  0  0
  179.4240  181.0970  138.7810 O   0  0  0  0  0  0  0  0  0  0  0  0
  1 22  1  1  0  0  0
  1  3  1  0  0  0  0
  1  7  1  0  0  0  0
  3 16  1  6  0  0  0
  3  5  1  0  0  0  0
  4  6  1  1  0  0  0
  5  4  1  0  0  0  0
  5 13  1  0  0  0  0
  7  2  1  6  0  0  0
  7  4  1  0  0  0  0
  7  6  1  0  0  0  0
  8 12  1  0  0  0  0
  8 10  1  0  0  0  0
  9 12  2  0  0  0  0
 11  8  2  0  0  0  0
 13  9  1  0  0  0  0
 14 13  2  0  0  0  0
 14 11  1  0  0  0  0
 15 16  1  0  0  0  0
 17 15  2  0  0  0  0
 18 19  1  0  0  0  0
 19 16  2  0  0  0  0
 20 18  2  0  0  0  0
 20 17  1  0  0  0  0
 21 22  2  0  0  0  0
 22 26  1  0  0  0  0
 23 26  1  0  0  0  0
 24 25  1  0  0  0  0
 25 21  1  0  0  0  0
 25 23  2  0  0  0  0
M  END
>  <MODEL>
2

>  <REMARK>
 VINA RESULT:      -6.6      2.408      5.114
  Name = 
  3 active torsions:
  status: ('A' for Active; 'I' for Inactive)
    1  A    between atoms: C_2  and  C_5
    2  A    between atoms: C_4  and  C_13
    3  A    between atoms: C_15  and  N_23
                            x       y       z     vdW  Elec       q    Type
                         _______ _______ _______ _____ _____    ______ ____

>  <TORSDO>
F 3

$$$$
=
 OpenBabel11042412263D

 26 30  0  0  1  0  0  0  0  0999 V2000
  189.9460  177.3650  138.6720 C   0  0  1  0  0  3  0  0  0  0  0  0
  189.0550  179.3780  137.2220 C   0  0  0  0  0  1  0  0  0  0  0  0
  190.1200  175.9190  138.2320 C   0  0  1  0  0  3  0  0  0  0  0  0
  188.5740  176.9750  136.6710 C   0  0  1  0  0  3  0  0  0  0  0  0
  189.2520  175.7510  137.0720 N   0  0  0  0  0  0  0  0  0  0  0  0
  187.5020  177.3480  137.6860 C   0  0  0  0  0  2  0  0  0  0  0  0
  188.8800  177.9760  137.7650 C   0  0  1  0  0  0  0  0  0  0  0  0
  188.3720  171.9780  135.3260 C   0  0  0  0  0  0  0  0  0  0  0  0
  189.3560  174.1840  135.1680 C   0  0  0  0  0  3  0  0  0  0  0  0
  188.0930  170.7750  134.7700 F   0  0  0  0  0  0  0  0  0  0  0  0
  187.9660  172.2530  136.6350 C   0  0  0  0  0  3  0  0  0  0  0  0
  189.0670  172.9430  134.5940 C   0  0  0  0  0  3  0  0  0  0  0  0
  188.9530  174.4720  136.4810 C   0  0  0  0  0  0  0  0  0  0  0  0
  188.2550  173.4950  137.2090 C   0  0  0  0  0  3  0  0  0  0  0  0
  192.4570  176.7170  137.8290 C   0  0  0  0  0  3  0  0  0  0  0  0
  191.5530  175.6530  137.8810 C   0  0  0  0  0  0  0  0  0  0  0  0
  193.7590  176.4940  137.5030 N   0  0  0  0  0  0  0  0  0  0  0  0
  193.3470  174.1530  137.2540 C   0  0  0  0  0  3  0  0  0  0  0  0
  192.0080  174.3610  137.5850 C   0  0  0  0  0  3  0  0  0  0  0  0
  194.2180  175.2440  137.2180 C   0  0  0  0  0  3  0  0  0  0  0  0
  190.1800  176.7430  141.1270 C   0  0  0  0  0  3  0  0  0  0  0  0
  189.5590  177.4460  140.1120 C   0  0  0  0  0  0  0  0  0  0  0  0
  188.5080  178.0570  141.8780 C   0  0  0  0  0  3  0  0  0  0  0  0
  189.7330  176.7140  143.5700 N   0  0  0  0  0  1  0  0  0  0  0  0
  189.4820  177.1550  142.2410 C   0  0  0  0  0  0  0  0  0  0  0  0
  188.5900  178.2040  140.5770 O   0  0  0  0  0  0  0  0  0  0  0  0
  1 22  1  1  0  0  0
  3 16  1  6  0  0  0
  3  1  1  0  0  0  0
  4  5  1  0  0  0  0
  4  6  1  1  0  0  0
  4  7  1  0  0  0  0
  5  3  1  0  0  0  0
  6  7  1  0  0  0  0
  7  2  1  6  0  0  0
  7  1  1  0  0  0  0
  8 11  1  0  0  0  0
  9 13  2  0  0  0  0
 10  8  1  0  0  0  0
 11 14  2  0  0  0  0
 12  9  1  0  0  0  0
 12  8  2  0  0  0  0
 13  5  1  0  0  0  0
 13 14  1  0  0  0  0
 15 16  1  0  0  0  0
 17 15  2  0  0  0  0
 18 19  1  0  0  0  0
 19 16  2  0  0  0  0
 20 18  2  0  0  0  0
 20 17  1  0  0  0  0
 21 25  1  0  0  0  0
 22 26  1  0  0  0  0
 22 21  2  0  0  0  0
 23 25  2  0  0  0  0
 25 24  1  0  0  0  0
 26 23  1  0  0  0  0
M  END
>  <MODEL>
3

>  <REMARK>
 VINA RESULT:      -6.0      7.788     10.908
  Name = 
  3 active torsions:
  status: ('A' for Active; 'I' for Inactive)
    1  A    between atoms: C_2  and  C_5
    2  A    between atoms: C_4  and  C_13
    3  A    between atoms: C_15  and  N_23
                            x       y       z     vdW  Elec       q    Type
                         _______ _______ _______ _____ _____    ______ ____

>  <TORSDO>
F 3

$$$$
=
 OpenBabel11042412263D

 26 30  0  0  1  0  0  0  0  0999 V2000
  181.0450  177.8650  140.4840 C   0  0  1  0  0  3  0  0  0  0  0  0
  180.4400  179.0280  142.7720 C   0  0  0  0  0  1  0  0  0  0  0  0
  181.4240  178.5460  139.1770 C   0  0  1  0  0  3  0  0  0  0  0  0
  180.2830  180.2010  140.5560 C   0  0  1  0  0  3  0  0  0  0  0  0
  180.9090  179.9070  139.2750 N   0  0  0  0  0  0  0  0  0  0  0  0
  178.9580  179.4620  140.6830 C   0  0  0  0  0  2  0  0  0  0  0  0
  180.2200  178.8740  141.2810 C   0  0  1  0  0  0  0  0  0  0  0  0
  180.7750  182.6070  135.9970 C   0  0  0  0  0  0  0  0  0  0  0  0
  181.1720  182.1780  138.3460 C   0  0  0  0  0  3  0  0  0  0  0  0
  180.7330  183.4680  134.9520 F   0  0  0  0  0  0  0  0  0  0  0  0
  180.4640  181.2580  135.8030 C   0  0  0  0  0  3  0  0  0  0  0  0
  181.1280  183.0660  137.2670 C   0  0  0  0  0  3  0  0  0  0  0  0
  180.8630  180.8210  138.1630 C   0  0  0  0  0  0  0  0  0  0  0  0
  180.5080  180.3700  136.8810 C   0  0  0  0  0  3  0  0  0  0  0  0
  183.7040  179.3450  139.8260 C   0  0  0  0  0  3  0  0  0  0  0  0
  182.9130  178.5400  139.0030 C   0  0  0  0  0  0  0  0  0  0  0  0
  185.0570  179.3590  139.6750 N   0  0  0  0  0  0  0  0  0  0  0  0
  184.9220  177.7860  137.8820 C   0  0  0  0  0  3  0  0  0  0  0  0
  183.5340  177.7590  138.0200 C   0  0  0  0  0  3  0  0  0  0  0  0
  185.6750  178.6010  138.7290 C   0  0  0  0  0  3  0  0  0  0  0  0
  180.2870  175.9180  139.0340 C   0  0  0  0  0  3  0  0  0  0  0  0
  180.2840  176.6040  140.2330 C   0  0  0  0  0  0  0  0  0  0  0  0
  179.0110  174.9190  140.6020 C   0  0  0  0  0  3  0  0  0  0  0  0
  179.1270  173.8220  138.3780 N   0  0  0  0  0  1  0  0  0  0  0  0
  179.4620  174.8480  139.3040 C   0  0  0  0  0  0  0  0  0  0  0  0
  179.5350  176.0010  141.1290 O   0  0  0  0  0  0  0  0  0  0  0  0
  1 22  1  6  0  0  0
  1  7  1  0  0  0  0
  3 16  1  1  0  0  0
  3  5  1  0  0  0  0
  3  1  1  0  0  0  0
  4  6  1  6  0  0  0
  4  7  1  0  0  0  0
  5  4  1  0  0  0  0
  6  7  1  0  0  0  0
  7  2  1  1  0  0  0
  8 12  1  0  0  0  0
 10  8  1  0  0  0  0
 11  8  2  0  0  0  0
 11 14  1  0  0  0  0
 12  9  2  0  0  0  0
 13  9  1  0  0  0  0
 13  5  1  0  0  0  0
 14 13  2  0  0  0  0
 16 15  2  0  0  0  0
 17 15  1  0  0  0  0
 18 19  2  0  0  0  0
 18 20  1  0  0  0  0
 19 16  1  0  0  0  0
 20 17  2  0  0  0  0
 21 25  1  0  0  0  0
 21 22  2  0  0  0  0
 22 26  1  0  0  0  0
 23 26  1  0  0  0  0
 24 25  1  0  0  0  0
 25 23  2  0  0  0  0
M  END
>  <MODEL>
4

>  <REMARK>
 VINA RESULT:      -5.8      3.685      6.295
  Name = 
  3 active torsions:
  status: ('A' for Active; 'I' for Inactive)
    1  A    between atoms: C_2  and  C_5
    2  A    between atoms: C_4  and  C_13
    3  A    between atoms: C_15  and  N_23
                            x       y       z     vdW  Elec       q    Type
                         _______ _______ _______ _____ _____    ______ ____

>  <TORSDO>
F 3

$$$$
=
 OpenBabel11042412263D

 26 30  0  0  1  0  0  0  0  0999 V2000
  182.5840  176.2860  139.2260 C   0  0  1  0  0  3  0  0  0  0  0  0
  180.5910  174.8730  140.2180 C   0  0  0  0  0  1  0  0  0  0  0  0
  182.6930  177.8020  139.1600 C   0  0  1  0  0  3  0  0  0  0  0  0
  180.3370  177.2550  139.4630 C   0  0  1  0  0  3  0  0  0  0  0  0
  181.3280  178.3040  139.2650 N   0  0  0  0  0  0  0  0  0  0  0  0
  180.1660  176.4380  138.1890 C   0  0  0  0  0  2  0  0  0  0  0  0
  181.0940  175.9550  139.2870 C   0  0  1  0  0  0  0  0  0  0  0  0
  180.2530  182.3550  138.5650 C   0  0  0  0  0  0  0  0  0  0  0  0
  180.0340  180.3200  139.8570 C   0  0  0  0  0  3  0  0  0  0  0  0
  179.9110  183.6460  138.3430 F   0  0  0  0  0  0  0  0  0  0  0  0
  181.1810  181.7240  137.7310 C   0  0  0  0  0  3  0  0  0  0  0  0
  179.6800  181.6520  139.6280 C   0  0  0  0  0  3  0  0  0  0  0  0
  180.9640  179.6760  139.0260 C   0  0  0  0  0  0  0  0  0  0  0  0
  181.5340  180.3920  137.9610 C   0  0  0  0  0  3  0  0  0  0  0  0
  184.7700  178.9190  139.9940 C   0  0  0  0  0  3  0  0  0  0  0  0
  183.5470  178.3100  140.2820 C   0  0  0  0  0  0  0  0  0  0  0  0
  185.5620  179.3780  141.0010 N   0  0  0  0  0  0  0  0  0  0  0  0
  183.9830  178.6490  142.6400 C   0  0  0  0  0  3  0  0  0  0  0  0
  183.1580  178.1720  141.6210 C   0  0  0  0  0  3  0  0  0  0  0  0
  185.1950  179.2570  142.3060 C   0  0  0  0  0  3  0  0  0  0  0  0
  184.0700  176.3100  137.1640 C   0  0  0  0  0  3  0  0  0  0  0  0
  183.2450  175.6460  138.0500 C   0  0  0  0  0  0  0  0  0  0  0  0
  183.8300  174.1260  136.6560 C   0  0  0  0  0  3  0  0  0  0  0  0
  185.2810  175.4770  135.1610 N   0  0  0  0  0  1  0  0  0  0  0  0
  184.4260  175.3100  136.2850 C   0  0  0  0  0  0  0  0  0  0  0  0
  183.1230  174.3760  137.7330 O   0  0  0  0  0  0  0  0  0  0  0  0
  1 22  1  6  0  0  0
  1  7  1  0  0  0  0
  3  1  1  0  0  0  0
  3  5  1  0  0  0  0
  3 16  1  1  0  0  0
  4  6  1  6  0  0  0
  5  4  1  0  0  0  0
  6  7  1  0  0  0  0
  7  4  1  0  0  0  0
  7  2  1  1  0  0  0
  8 12  1  0  0  0  0
 10  8  1  0  0  0  0
 11 14  1  0  0  0  0
 11  8  2  0  0  0  0
 12  9  2  0  0  0  0
 13  5  1  0  0  0  0
 13  9  1  0  0  0  0
 14 13  2  0  0  0  0
 15 16  2  0  0  0  0
 15 17  1  0  0  0  0
 16 19  1  0  0  0  0
 17 20  2  0  0  0  0
 19 18  2  0  0  0  0
 20 18  1  0  0  0  0
 21 22  2  0  0  0  0
 23 26  1  0  0  0  0
 24 25  1  0  0  0  0
 25 23  2  0  0  0  0
 25 21  1  0  0  0  0
 26 22  1  0  0  0  0
M  END
>  <MODEL>
5

>  <REMARK>
 VINA RESULT:      -5.8      3.347      5.636
  Name = 
  3 active torsions:
  status: ('A' for Active; 'I' for Inactive)
    1  A    between atoms: C_2  and  C_5
    2  A    between atoms: C_4  and  C_13
    3  A    between atoms: C_15  and  N_23
                            x       y       z     vdW  Elec       q    Type
                         _______ _______ _______ _____ _____    ______ ____

>  <TORSDO>
F 3

$$$$
=
 OpenBabel11042412263D

 26 30  0  0  1  0  0  0  0  0999 V2000
  188.5240  177.4180  137.9010 C   0  0  1  0  0  3  0  0  0  0  0  0
  187.5030  179.3800  136.4650 C   0  0  0  0  0  1  0  0  0  0  0  0
  188.3770  175.9240  137.6540 C   0  0  1  0  0  3  0  0  0  0  0  0
  186.5840  177.0420  136.4390 C   0  0  1  0  0  3  0  0  0  0  0  0
  187.1910  175.7740  136.8180 N   0  0  0  0  0  0  0  0  0  0  0  0
  185.9150  177.6930  137.6420 C   0  0  0  0  0  2  0  0  0  0  0  0
  187.3220  178.0920  137.2410 C   0  0  1  0  0  0  0  0  0  0  0  0
  185.3660  172.0290  135.9840 C   0  0  0  0  0  0  0  0  0  0  0  0
  185.7940  173.8600  137.5080 C   0  0  0  0  0  3  0  0  0  0  0  0
  184.7830  170.8350  135.7180 F   0  0  0  0  0  0  0  0  0  0  0  0
  186.1390  172.6610  135.0070 C   0  0  0  0  0  3  0  0  0  0  0  0
  185.1930  172.6280  137.2340 C   0  0  0  0  0  3  0  0  0  0  0  0
  186.5740  174.5050  136.5340 C   0  0  0  0  0  0  0  0  0  0  0  0
  186.7400  173.8930  135.2810 C   0  0  0  0  0  3  0  0  0  0  0  0
  190.2660  176.1890  136.0340 C   0  0  0  0  0  3  0  0  0  0  0  0
  189.5980  175.3900  136.9650 C   0  0  0  0  0  0  0  0  0  0  0  0
  191.3700  175.7160  135.3930 N   0  0  0  0  0  0  0  0  0  0  0  0
  191.2110  173.6320  136.5520 C   0  0  0  0  0  3  0  0  0  0  0  0
  190.0770  174.0980  137.2180 C   0  0  0  0  0  3  0  0  0  0  0  0
  191.8510  174.4660  135.6320 C   0  0  0  0  0  3  0  0  0  0  0  0
  189.4790  177.1210  140.2390 C   0  0  0  0  0  3  0  0  0  0  0  0
  188.5930  177.7180  139.3620 C   0  0  0  0  0  0  0  0  0  0  0  0
  188.1390  178.6270  141.2490 C   0  0  0  0  0  3  0  0  0  0  0  0
  189.7940  177.4520  142.6800 N   0  0  0  0  0  1  0  0  0  0  0  0
  189.1600  177.7240  141.4360 C   0  0  0  0  0  0  0  0  0  0  0  0
  187.8260  178.5910  139.9750 O   0  0  0  0  0  0  0  0  0  0  0  0
  1 22  1  1  0  0  0
  3 16  1  6  0  0  0
  3  1  1  0  0  0  0
  4  5  1  0  0  0  0
  4  7  1  0  0  0  0
  4  6  1  1  0  0  0
  5  3  1  0  0  0  0
  7  2  1  6  0  0  0
  7  6  1  0  0  0  0
  7  1  1  0  0  0  0
  8 12  1  0  0  0  0
 10  8  1  0  0  0  0
 11 14  1  0  0  0  0
 11  8  2  0  0  0  0
 12  9  2  0  0  0  0
 13  5  1  0  0  0  0
 13  9  1  0  0  0  0
 14 13  2  0  0  0  0
 15 16  1  0  0  0  0
 16 19  2  0  0  0  0
 17 20  1  0  0  0  0
 17 15  2  0  0  0  0
 18 19  1  0  0  0  0
 20 18  2  0  0  0  0
 21 25  1  0  0  0  0
 22 26  1  0  0  0  0
 22 21  2  0  0  0  0
 23 25  2  0  0  0  0
 25 24  1  0  0  0  0
 26 23  1  0  0  0  0
M  END
>  <MODEL>
6

>  <REMARK>
 VINA RESULT:      -5.7      6.651      9.951
  Name = 
  3 active torsions:
  status: ('A' for Active; 'I' for Inactive)
    1  A    between atoms: C_2  and  C_5
    2  A    between atoms: C_4  and  C_13
    3  A    between atoms: C_15  and  N_23
                            x       y       z     vdW  Elec       q    Type
                         _______ _______ _______ _____ _____    ______ ____

>  <TORSDO>
F 3

$$$$
=
 OpenBabel11042412263D

 26 30  0  0  1  0  0  0  0  0999 V2000
  180.5800  178.1150  139.6470 C   0  0  1  0  0  3  0  0  0  0  0  0
  179.3070  175.9040  138.9810 C   0  0  0  0  0  1  0  0  0  0  0  0
  181.8360  178.6830  139.0040 C   0  0  1  0  0  3  0  0  0  0  0  0
  181.7160  176.3230  138.4060 C   0  0  1  0  0  3  0  0  0  0  0  0
  182.4750  177.5630  138.3230 N   0  0  0  0  0  0  0  0  0  0  0  0
  181.7610  175.7650  139.8220 C   0  0  0  0  0  2  0  0  0  0  0  0
  180.5870  176.6120  139.3720 C   0  0  1  0  0  0  0  0  0  0  0  0
  186.3970  177.7360  136.6970 C   0  0  0  0  0  0  0  0  0  0  0  0
  184.8530  178.1960  138.5040 C   0  0  0  0  0  3  0  0  0  0  0  0
  187.6470  177.7910  136.1800 F   0  0  0  0  0  0  0  0  0  0  0  0
  185.3590  177.1620  135.9570 C   0  0  0  0  0  3  0  0  0  0  0  0
  186.1440  178.2520  137.9700 C   0  0  0  0  0  3  0  0  0  0  0  0
  183.8030  177.6210  137.7710 C   0  0  0  0  0  0  0  0  0  0  0  0
  184.0690  177.1050  136.4920 C   0  0  0  0  0  3  0  0  0  0  0  0
  181.5140  181.1040  138.4580 C   0  0  0  0  0  3  0  0  0  0  0  0
  181.4760  179.7720  138.0380 C   0  0  0  0  0  0  0  0  0  0  0  0
  181.1820  182.1040  137.5970 N   0  0  0  0  0  0  0  0  0  0  0  0
  180.7460  180.5260  135.8560 C   0  0  0  0  0  3  0  0  0  0  0  0
  181.0820  179.4870  136.7240 C   0  0  0  0  0  3  0  0  0  0  0  0
  180.8030  181.8430  136.3160 C   0  0  0  0  0  3  0  0  0  0  0  0
  179.4340  178.2340  141.9140 C   0  0  0  0  0  3  0  0  0  0  0  0
  180.5440  178.4090  141.1110 C   0  0  0  0  0  0  0  0  0  0  0  0
  181.2190  179.0040  143.0570 C   0  0  0  0  0  3  0  0  0  0  0  0
  179.1300  178.6350  144.3470 N   0  0  0  0  0  1  0  0  0  0  0  0
  179.9000  178.6250  143.1500 C   0  0  0  0  0  0  0  0  0  0  0  0
  181.5700  178.8570  141.8010 O   0  0  0  0  0  0  0  0  0  0  0  0
  1 22  1  1  0  0  0
  3 16  1  6  0  0  0
  3  1  1  0  0  0  0
  4  7  1  0  0  0  0
  4  6  1  1  0  0  0
  5  4  1  0  0  0  0
  5  3  1  0  0  0  0
  7  2  1  6  0  0  0
  7  1  1  0  0  0  0
  7  6  1  0  0  0  0
  8 12  1  0  0  0  0
 10  8  1  0  0  0  0
 11 14  1  0  0  0  0
 11  8  2  0  0  0  0
 12  9  2  0  0  0  0
 13  5  1  0  0  0  0
 13  9  1  0  0  0  0
 14 13  2  0  0  0  0
 16 15  1  0  0  0  0
 17 15  2  0  0  0  0
 18 20  2  0  0  0  0
 18 19  1  0  0  0  0
 19 16  2  0  0  0  0
 20 17  1  0  0  0  0
 21 25  1  0  0  0  0
 22 26  1  0  0  0  0
 22 21  2  0  0  0  0
 23 25  2  0  0  0  0
 25 24  1  0  0  0  0
 26 23  1  0  0  0  0
M  END
>  <MODEL>
7

>  <REMARK>
 VINA RESULT:      -5.7      3.285      5.855
  Name = 
  3 active torsions:
  status: ('A' for Active; 'I' for Inactive)
    1  A    between atoms: C_2  and  C_5
    2  A    between atoms: C_4  and  C_13
    3  A    between atoms: C_15  and  N_23
                            x       y       z     vdW  Elec       q    Type
                         _______ _______ _______ _____ _____    ______ ____

>  <TORSDO>
F 3

$$$$
=
 OpenBabel11042412263D

 26 30  0  0  1  0  0  0  0  0999 V2000
  180.9730  177.6000  139.3150 C   0  0  1  0  0  3  0  0  0  0  0  0
  182.5060  177.9520  137.2000 C   0  0  0  0  0  1  0  0  0  0  0  0
  181.2240  178.1040  140.7290 C   0  0  1  0  0  3  0  0  0  0  0  0
  183.3600  178.1310  139.5550 C   0  0  1  0  0  3  0  0  0  0  0  0
  182.6580  178.3600  140.8100 N   0  0  0  0  0  0  0  0  0  0  0  0
  183.4270  176.6420  139.2460 C   0  0  0  0  0  2  0  0  0  0  0  0
  182.3370  177.5010  138.6350 C   0  0  1  0  0  0  0  0  0  0  0  0
  184.6880  179.1900  144.4490 C   0  0  0  0  0  0  0  0  0  0  0  0
  182.6320  178.7610  143.2450 C   0  0  0  0  0  3  0  0  0  0  0  0
  185.3350  179.4530  145.6100 F   0  0  0  0  0  0  0  0  0  0  0  0
  185.4100  179.0730  143.2580 C   0  0  0  0  0  3  0  0  0  0  0  0
  183.3000  179.0340  144.4420 C   0  0  0  0  0  3  0  0  0  0  0  0
  183.3470  178.6410  142.0420 C   0  0  0  0  0  0  0  0  0  0  0  0
  184.7420  178.8000  142.0610 C   0  0  0  0  0  3  0  0  0  0  0  0
  179.7560  179.5040  142.1930 C   0  0  0  0  0  3  0  0  0  0  0  0
  180.4350  179.3540  140.9810 C   0  0  0  0  0  0  0  0  0  0  0  0
  179.0270  180.6280  142.4350 N   0  0  0  0  0  0  0  0  0  0  0  0
  179.5920  181.5150  140.2890 C   0  0  0  0  0  3  0  0  0  0  0  0
  180.3440  180.3710  140.0220 C   0  0  0  0  0  3  0  0  0  0  0  0
  178.9340  181.6270  141.5160 C   0  0  0  0  0  3  0  0  0  0  0  0
  180.3300  175.3530  138.3130 C   0  0  0  0  0  3  0  0  0  0  0  0
  180.2660  176.2850  139.3310 C   0  0  0  0  0  0  0  0  0  0  0  0
  179.0440  174.6700  140.0340 C   0  0  0  0  0  3  0  0  0  0  0  0
  179.2680  173.1170  138.1090 N   0  0  0  0  0  1  0  0  0  0  0  0
  179.5370  174.3350  138.7940 C   0  0  0  0  0  0  0  0  0  0  0  0
  179.5120  175.8610  140.3220 O   0  0  0  0  0  0  0  0  0  0  0  0
  1 22  1  1  0  0  0
  1  3  1  0  0  0  0
  3  5  1  0  0  0  0
  3 16  1  6  0  0  0
  4  6  1  1  0  0  0
  4  5  1  0  0  0  0
  5 13  1  0  0  0  0
  7  2  1  6  0  0  0
  7  6  1  0  0  0  0
  7  1  1  0  0  0  0
  7  4  1  0  0  0  0
  8 10  1  0  0  0  0
  9 12  2  0  0  0  0
 11  8  2  0  0  0  0
 12  8  1  0  0  0  0
 13 14  2  0  0  0  0
 13  9  1  0  0  0  0
 14 11  1  0  0  0  0
 15 17  1  0  0  0  0
 16 15  2  0  0  0  0
 18 20  1  0  0  0  0
 19 18  2  0  0  0  0
 19 16  1  0  0  0  0
 20 17  2  0  0  0  0
 21 25  1  0  0  0  0
 21 22  2  0  0  0  0
 22 26  1  0  0  0  0
 23 26  1  0  0  0  0
 24 25  1  0  0  0  0
 25 23  2  0  0  0  0
M  END
>  <MODEL>
8

>  <REMARK>
 VINA RESULT:      -5.6      1.467      2.040
  Name = 
  3 active torsions:
  status: ('A' for Active; 'I' for Inactive)
    1  A    between atoms: C_2  and  C_5
    2  A    between atoms: C_4  and  C_13
    3  A    between atoms: C_15  and  N_23
                            x       y       z     vdW  Elec       q    Type
                         _______ _______ _______ _____ _____    ______ ____

>  <TORSDO>
F 3

$$$$
=
 OpenBabel11042412263D

 26 30  0  0  1  0  0  0  0  0999 V2000
  183.9320  178.2100  138.6460 C   0  0  1  0  0  3  0  0  0  0  0  0
  181.6140  179.2910  138.0050 C   0  0  0  0  0  1  0  0  0  0  0  0
  184.4860  176.8740  138.1730 C   0  0  1  0  0  3  0  0  0  0  0  0
  182.0760  176.8290  137.8140 C   0  0  1  0  0  3  0  0  0  0  0  0
  183.3320  176.0980  137.7340 N   0  0  0  0  0  0  0  0  0  0  0  0
  181.6630  177.0210  139.2670 C   0  0  0  0  0  2  0  0  0  0  0  0
  182.4110  178.1180  138.5350 C   0  0  1  0  0  0  0  0  0  0  0  0
  183.5120  171.9570  136.7990 C   0  0  0  0  0  0  0  0  0  0  0  0
  184.5850  173.9760  137.5930 C   0  0  0  0  0  3  0  0  0  0  0  0
  183.5690  170.6370  136.5020 F   0  0  0  0  0  0  0  0  0  0  0  0
  182.3190  172.6620  136.6190 C   0  0  0  0  0  3  0  0  0  0  0  0
  184.6440  172.6140  137.2860 C   0  0  0  0  0  3  0  0  0  0  0  0
  183.3920  174.6950  137.4170 C   0  0  0  0  0  0  0  0  0  0  0  0
  182.2590  174.0240  136.9260 C   0  0  0  0  0  3  0  0  0  0  0  0
  186.8210  177.1960  137.3350 C   0  0  0  0  0  3  0  0  0  0  0  0
  185.4580  177.0850  137.0510 C   0  0  0  0  0  0  0  0  0  0  0  0
  187.7160  177.3970  136.3300 N   0  0  0  0  0  0  0  0  0  0  0  0
  185.9650  177.3960  134.7050 C   0  0  0  0  0  3  0  0  0  0  0  0
  185.0320  177.1920  135.7210 C   0  0  0  0  0  3  0  0  0  0  0  0
  187.3190  177.4970  135.0320 C   0  0  0  0  0  3  0  0  0  0  0  0
  183.8120  177.9360  141.1710 C   0  0  0  0  0  3  0  0  0  0  0  0
  184.3660  178.5090  140.0430 C   0  0  0  0  0  0  0  0  0  0  0  0
  185.4750  179.3790  141.6590 C   0  0  0  0  0  3  0  0  0  0  0  0
  184.3600  178.2570  143.5730 N   0  0  0  0  0  1  0  0  0  0  0  0
  184.5430  178.5150  142.1860 C   0  0  0  0  0  0  0  0  0  0  0  0
  185.3330  179.3450  140.3540 O   0  0  0  0  0  0  0  0  0  0  0  0
  1 22  1  1  0  0  0
  3 16  1  6  0  0  0
  3  1  1  0  0  0  0
  4  7  1  0  0  0  0
  4  6  1  1  0  0  0
  5  4  1  0  0  0  0
  5  3  1  0  0  0  0
  7  2  1  6  0  0  0
  7  1  1  0  0  0  0
  7  6  1  0  0  0  0
  8 12  1  0  0  0  0
 10  8  1  0  0  0  0
 11  8  2  0  0  0  0
 11 14  1  0  0  0  0
 12  9  2  0  0  0  0
 13  9  1  0  0  0  0
 13  5  1  0  0  0  0
 14 13  2  0  0  0  0
 16 15  1  0  0  0  0
 17 15  2  0  0  0  0
 18 20  2  0  0  0  0
 18 19  1  0  0  0  0
 19 16  2  0  0  0  0
 20 17  1  0  0  0  0
 21 25  1  0  0  0  0
 22 26  1  0  0  0  0
 22 21  2  0  0  0  0
 23 25  2  0  0  0  0
 25 24  1  0  0  0  0
 26 23  1  0  0  0  0
M  END
>  <MODEL>
9

>  <REMARK>
 VINA RESULT:      -5.4      4.148      7.710
  Name = 
  3 active torsions:
  status: ('A' for Active; 'I' for Inactive)
    1  A    between atoms: C_2  and  C_5
    2  A    between atoms: C_4  and  C_13
    3  A    between atoms: C_15  and  N_23
                            x       y       z     vdW  Elec       q    Type
                         _______ _______ _______ _____ _____    ______ ____

>  <TORSDO>
F 3

$$$$
