=
 OpenBabel11042409513D

 33 36  0  0  1  0  0  0  0  0999 V2000
  186.0190  178.0320  143.9640 C   0  0  0  0  0  0  0  0  0  0  0  0
  187.6310  178.1540  147.8180 C   0  0  0  0  0  3  0  0  0  0  0  0
  189.2600  177.1630  145.7510 C   0  0  0  0  0  0  0  0  0  0  0  0
  185.8590  178.5090  146.3040 N   0  0  0  0  0  0  0  0  0  0  0  0
  183.9690  178.9290  144.9260 C   0  0  0  0  0  3  0  0  0  0  0  0
  191.8680  176.3000  146.4250 C   0  0  0  0  0  3  0  0  0  0  0  0
  185.3990  178.0260  142.7030 C   0  0  0  0  0  3  0  0  0  0  0  0
  185.2870  178.4890  145.0790 C   0  0  0  0  0  0  0  0  0  0  0  0
  183.3610  178.9190  143.6680 C   0  0  0  0  0  0  0  0  0  0  0  0
  184.0810  178.4650  142.5560 C   0  0  0  0  0  3  0  0  0  0  0  0
  191.0280  176.8140  147.4120 C   0  0  0  0  0  3  0  0  0  0  0  0
  187.3510  177.5940  144.1370 C   0  0  0  0  0  0  0  0  0  0  0  0
  187.1310  178.0930  146.5180 C   0  0  0  0  0  0  0  0  0  0  0  0
  191.4180  176.2090  145.1080 C   0  0  0  0  0  3  0  0  0  0  0  0
  188.9230  177.7330  148.1020 C   0  0  0  0  0  3  0  0  0  0  0  0
  189.7360  177.2390  147.0890 C   0  0  0  0  0  0  0  0  0  0  0  0
  190.1290  176.6340  144.7810 C   0  0  0  0  0  3  0  0  0  0  0  0
  187.9330  177.6080  145.4460 C   0  0  0  0  0  0  0  0  0  0  0  0
  188.1180  177.1680  142.9150 C   0  0  0  0  0  2  0  0  0  0  0  0
  188.6800  178.3850  142.1980 C   0  0  0  0  0  2  0  0  0  0  0  0
  189.1080  178.0140  140.7900 C   0  0  0  0  0  2  0  0  0  0  0  0
  187.9640  178.2350  139.8150 C   0  0  0  0  0  2  0  0  0  0  0  0
  188.9460  179.7090  137.5720 O   0  0  0  0  0  0  0  0  0  0  0  0
  188.2990  177.6710  138.5160 N   0  0  0  0  0  2  0  0  0  0  0  0
  189.1410  177.8180  136.1460 C   0  0  0  0  0  1  0  0  0  0  0  0
  188.7970  178.4650  137.4390 C   0  0  0  0  0  0  0  0  0  0  0  0
  182.0110  179.3730  143.5430 N   0  0  0  0  0  2  0  0  0  0  0  0
  180.8630  178.5180  143.8050 C   0  0  0  0  0  2  0  0  0  0  0  0
  179.4170  177.2810  142.3480 O   0  0  0  0  0  1  0  0  0  0  0  0
  179.9060  178.5600  142.6250 C   0  0  2  0  0  3  0  0  0  0  0  0
  180.5800  179.1530  141.3910 C   0  0  0  0  0  2  0  0  0  0  0  0
  179.8630  180.3990  140.8920 C   0  0  0  0  0  2  0  0  0  0  0  0
  179.5030  181.1930  141.9790 O   0  0  0  0  0  1  0  0  0  0  0  0
  1 12  2  0  0  0  0
  1  8  1  0  0  0  0
  2 15  1  0  0  0  0
  3 16  1  0  0  0  0
  4 13  1  0  0  0  0
  5  8  1  0  0  0  0
  6 11  2  0  0  0  0
  7  1  1  0  0  0  0
  8  4  2  0  0  0  0
  9  5  2  0  0  0  0
 10  7  2  0  0  0  0
 10  9  1  0  0  0  0
 12 18  1  0  0  0  0
 13  2  2  0  0  0  0
 14  6  1  0  0  0  0
 16 11  1  0  0  0  0
 16 15  2  0  0  0  0
 17 14  2  0  0  0  0
 17  3  1  0  0  0  0
 18  3  2  0  0  0  0
 18 13  1  0  0  0  0
 19 12  1  0  0  0  0
 20 19  1  0  0  0  0
 21 20  1  0  0  0  0
 22 21  1  0  0  0  0
 24 22  1  0  0  0  0
 25 26  1  0  0  0  0
 26 23  2  0  0  0  0
 26 24  1  0  0  0  0
 27  9  1  0  0  0  0
 27 28  1  0  0  0  0
 30 29  1  6  0  0  0
 30 28  1  0  0  0  0
 31 30  1  0  0  0  0
 32 31  1  0  0  0  0
 32 33  1  0  0  0  0
M  END
>  <MODEL>
1

>  <REMARK>
 VINA RESULT:     -10.0      0.000      0.000
  Name = 
  10 active torsions:
  status: ('A' for Active; 'I' for Inactive)
    1  A    between atoms: C_1  and  C_19
    2  A    between atoms: C_1  and  C_26
    3  A    between atoms: C_2  and  C_12
    4  A    between atoms: C_5  and  N_24
    5  A    between atoms: C_5  and  C_30
    6  A    between atoms: N_6  and  C_25
    7  A    between atoms: C_12  and  C_30
    8  A    between atoms: C_14  and  C_19
    9  A    between atoms: C_14  and  C_25
   10  A    between atoms: C_18  and  N_24
                            x       y       z     vdW  Elec       q    Type
                         _______ _______ _______ _____ _____    ______ ____

>  <TORSDO>
F 10

$$$$
=
 OpenBabel11042409513D

 33 36  0  0  1  0  0  0  0  0999 V2000
  185.7320  178.0470  143.9480 C   0  0  0  0  0  0  0  0  0  0  0  0
  187.5230  178.2400  147.7190 C   0  0  0  0  0  3  0  0  0  0  0  0
  189.0720  177.2630  145.5860 C   0  0  0  0  0  0  0  0  0  0  0  0
  185.6730  178.5450  146.2880 N   0  0  0  0  0  0  0  0  0  0  0  0
  183.7120  178.9120  144.9990 C   0  0  0  0  0  3  0  0  0  0  0  0
  191.7260  176.4610  146.1420 C   0  0  0  0  0  3  0  0  0  0  0  0
  185.0530  178.0160  142.7180 C   0  0  0  0  0  3  0  0  0  0  0  0
  185.0450  178.5010  145.0930 C   0  0  0  0  0  0  0  0  0  0  0  0
  183.0450  178.8770  143.7720 C   0  0  0  0  0  0  0  0  0  0  0  0
  183.7200  178.4260  142.6300 C   0  0  0  0  0  3  0  0  0  0  0  0
  190.9240  176.9670  147.1630 C   0  0  0  0  0  3  0  0  0  0  0  0
  187.0800  177.6390  144.0610 C   0  0  0  0  0  0  0  0  0  0  0  0
  186.9620  178.1560  146.4450 C   0  0  0  0  0  0  0  0  0  0  0  0
  191.2160  176.3470  144.8490 C   0  0  0  0  0  3  0  0  0  0  0  0
  188.8350  177.8500  147.9450 C   0  0  0  0  0  3  0  0  0  0  0  0
  189.6090  177.3630  146.8980 C   0  0  0  0  0  0  0  0  0  0  0  0
  189.9050  176.7420  144.5790 C   0  0  0  0  0  3  0  0  0  0  0  0
  187.7230  177.6770  145.3400 C   0  0  0  0  0  0  0  0  0  0  0  0
  187.7970  177.2160  142.8080 C   0  0  0  0  0  2  0  0  0  0  0  0
  187.9770  178.4070  141.8800 C   0  0  0  0  0  2  0  0  0  0  0  0
  188.9090  178.0480  140.7380 C   0  0  0  0  0  2  0  0  0  0  0  0
  188.1680  178.1110  139.4120 C   0  0  0  0  0  2  0  0  0  0  0  0
  185.9680  177.7110  137.6320 O   0  0  0  0  0  0  0  0  0  0  0  0
  186.8150  178.6040  139.6190 N   0  0  0  0  0  2  0  0  0  0  0  0
  184.3930  178.8740  138.9800 C   0  0  0  0  0  1  0  0  0  0  0  0
  185.7570  178.3580  138.6920 C   0  0  0  0  0  0  0  0  0  0  0  0
  181.6810  179.3020  143.7070 N   0  0  0  0  0  2  0  0  0  0  0  0
  180.9290  179.3550  142.4630 C   0  0  0  0  0  2  0  0  0  0  0  0
  179.7230  177.7430  143.7620 O   0  0  0  0  0  1  0  0  0  0  0  0
  179.7320  178.4210  142.5410 C   0  0  2  0  0  3  0  0  0  0  0  0
  179.7280  177.4330  141.3800 C   0  0  0  0  0  2  0  0  0  0  0  0
  180.7030  177.8350  140.2830 C   0  0  0  0  0  2  0  0  0  0  0  0
  181.6120  176.8000  140.0700 O   0  0  0  0  0  1  0  0  0  0  0  0
  1 12  2  0  0  0  0
  1  8  1  0  0  0  0
  2 15  1  0  0  0  0
  3 16  1  0  0  0  0
  4 13  1  0  0  0  0
  5  8  1  0  0  0  0
  6 11  2  0  0  0  0
  7  1  1  0  0  0  0
  8  4  2  0  0  0  0
  9  5  2  0  0  0  0
 10  7  2  0  0  0  0
 10  9  1  0  0  0  0
 12 18  1  0  0  0  0
 13  2  2  0  0  0  0
 14  6  1  0  0  0  0
 16 11  1  0  0  0  0
 16 15  2  0  0  0  0
 17 14  2  0  0  0  0
 17  3  1  0  0  0  0
 18  3  2  0  0  0  0
 18 13  1  0  0  0  0
 19 12  1  0  0  0  0
 20 19  1  0  0  0  0
 21 20  1  0  0  0  0
 22 24  1  0  0  0  0
 22 21  1  0  0  0  0
 23 26  2  0  0  0  0
 26 25  1  0  0  0  0
 26 24  1  0  0  0  0
 27  9  1  0  0  0  0
 28 30  1  0  0  0  0
 28 27  1  0  0  0  0
 30 29  1  1  0  0  0
 31 30  1  0  0  0  0
 32 31  1  0  0  0  0
 33 32  1  0  0  0  0
M  END
>  <MODEL>
2

>  <REMARK>
 VINA RESULT:      -9.9      1.369      1.791
  Name = 
  10 active torsions:
  status: ('A' for Active; 'I' for Inactive)
    1  A    between atoms: C_1  and  C_19
    2  A    between atoms: C_1  and  C_26
    3  A    between atoms: C_2  and  C_12
    4  A    between atoms: C_5  and  N_24
    5  A    between atoms: C_5  and  C_30
    6  A    between atoms: N_6  and  C_25
    7  A    between atoms: C_12  and  C_30
    8  A    between atoms: C_14  and  C_19
    9  A    between atoms: C_14  and  C_25
   10  A    between atoms: C_18  and  N_24
                            x       y       z     vdW  Elec       q    Type
                         _______ _______ _______ _____ _____    ______ ____

>  <TORSDO>
F 10

$$$$
=
 OpenBabel11042409513D

 33 36  0  0  1  0  0  0  0  0999 V2000
  185.6730  178.1070  143.8790 C   0  0  0  0  0  0  0  0  0  0  0  0
  187.3960  178.1810  147.6850 C   0  0  0  0  0  3  0  0  0  0  0  0
  188.9930  177.3010  145.5450 C   0  0  0  0  0  0  0  0  0  0  0  0
  185.5680  178.5170  146.2340 N   0  0  0  0  0  0  0  0  0  0  0  0
  183.6250  178.9080  144.9240 C   0  0  0  0  0  3  0  0  0  0  0  0
  191.6470  176.5100  146.1180 C   0  0  0  0  0  3  0  0  0  0  0  0
  185.0160  178.1130  142.6360 C   0  0  0  0  0  3  0  0  0  0  0  0
  184.9610  178.5090  145.0260 C   0  0  0  0  0  0  0  0  0  0  0  0
  182.9790  178.9110  143.6850 C   0  0  0  0  0  0  0  0  0  0  0  0
  183.6800  178.5110  142.5400 C   0  0  0  0  0  3  0  0  0  0  0  0
  190.8220  176.9690  147.1430 C   0  0  0  0  0  3  0  0  0  0  0  0
  187.0230  177.7100  144.0000 C   0  0  0  0  0  0  0  0  0  0  0  0
  186.8590  178.1380  146.3990 C   0  0  0  0  0  0  0  0  0  0  0  0
  191.1610  176.4380  144.8130 C   0  0  0  0  0  3  0  0  0  0  0  0
  188.7090  177.7980  147.9200 C   0  0  0  0  0  3  0  0  0  0  0  0
  189.5070  177.3580  146.8690 C   0  0  0  0  0  0  0  0  0  0  0  0
  189.8500  176.8270  144.5350 C   0  0  0  0  0  3  0  0  0  0  0  0
  187.6440  177.7090  145.2910 C   0  0  0  0  0  0  0  0  0  0  0  0
  187.7670  177.3420  142.7450 C   0  0  0  0  0  2  0  0  0  0  0  0
  188.2480  178.5970  142.0340 C   0  0  0  0  0  2  0  0  0  0  0  0
  187.8170  178.5750  140.5790 C   0  0  0  0  0  2  0  0  0  0  0  0
  188.5730  177.4970  139.8200 C   0  0  0  0  0  2  0  0  0  0  0  0
  190.6620  176.1090  141.1920 O   0  0  0  0  0  0  0  0  0  0  0  0
  189.9880  177.8290  139.7580 N   0  0  0  0  0  2  0  0  0  0  0  0
  192.4140  177.4670  140.3350 C   0  0  0  0  0  1  0  0  0  0  0  0
  190.9840  177.0840  140.4630 C   0  0  0  0  0  0  0  0  0  0  0  0
  181.6120  179.3220  143.6120 N   0  0  0  0  0  2  0  0  0  0  0  0
  180.8670  179.3680  142.3630 C   0  0  0  0  0  2  0  0  0  0  0  0
  179.6490  177.7680  143.6670 O   0  0  0  0  0  1  0  0  0  0  0  0
  179.7040  178.3910  142.4180 C   0  0  2  0  0  3  0  0  0  0  0  0
  179.8050  177.3520  141.3060 C   0  0  0  0  0  2  0  0  0  0  0  0
  180.7720  177.7780  140.2110 C   0  0  0  0  0  2  0  0  0  0  0  0
  181.7040  176.7640  139.9960 O   0  0  0  0  0  1  0  0  0  0  0  0
  1 12  2  0  0  0  0
  1  8  1  0  0  0  0
  2 15  1  0  0  0  0
  3 16  1  0  0  0  0
  4 13  1  0  0  0  0
  5  8  1  0  0  0  0
  6 11  2  0  0  0  0
  7  1  1  0  0  0  0
  8  4  2  0  0  0  0
  9  5  2  0  0  0  0
 10  7  2  0  0  0  0
 10  9  1  0  0  0  0
 12 18  1  0  0  0  0
 13  2  2  0  0  0  0
 14  6  1  0  0  0  0
 16 11  1  0  0  0  0
 16 15  2  0  0  0  0
 17 14  2  0  0  0  0
 17  3  1  0  0  0  0
 18  3  2  0  0  0  0
 18 13  1  0  0  0  0
 19 12  1  0  0  0  0
 20 19  1  0  0  0  0
 21 20  1  0  0  0  0
 22 21  1  0  0  0  0
 24 22  1  0  0  0  0
 24 26  1  0  0  0  0
 25 26  1  0  0  0  0
 26 23  2  0  0  0  0
 27  9  1  0  0  0  0
 28 30  1  0  0  0  0
 28 27  1  0  0  0  0
 30 29  1  1  0  0  0
 31 30  1  0  0  0  0
 32 31  1  0  0  0  0
 33 32  1  0  0  0  0
M  END
>  <MODEL>
3

>  <REMARK>
 VINA RESULT:      -9.8      1.596      1.977
  Name = 
  10 active torsions:
  status: ('A' for Active; 'I' for Inactive)
    1  A    between atoms: C_1  and  C_19
    2  A    between atoms: C_1  and  C_26
    3  A    between atoms: C_2  and  C_12
    4  A    between atoms: C_5  and  N_24
    5  A    between atoms: C_5  and  C_30
    6  A    between atoms: N_6  and  C_25
    7  A    between atoms: C_12  and  C_30
    8  A    between atoms: C_14  and  C_19
    9  A    between atoms: C_14  and  C_25
   10  A    between atoms: C_18  and  N_24
                            x       y       z     vdW  Elec       q    Type
                         _______ _______ _______ _____ _____    ______ ____

>  <TORSDO>
F 10

$$$$
=
 OpenBabel11042409513D

 33 36  0  0  1  0  0  0  0  0999 V2000
  188.9220  177.3940  141.4390 C   0  0  0  0  0  0  0  0  0  0  0  0
  185.1600  179.2090  141.5600 C   0  0  0  0  0  3  0  0  0  0  0  0
  186.2200  178.2370  143.9760 C   0  0  0  0  0  0  0  0  0  0  0  0
  187.0690  178.4780  140.3840 N   0  0  0  0  0  0  0  0  0  0  0  0
  188.9090  177.8060  139.0390 C   0  0  0  0  0  3  0  0  0  0  0  0
  184.6610  178.5380  146.3170 C   0  0  0  0  0  3  0  0  0  0  0  0
  190.1890  176.7990  141.3080 C   0  0  0  0  0  3  0  0  0  0  0  0
  188.2860  177.8980  140.2870 C   0  0  0  0  0  0  0  0  0  0  0  0
  190.1680  177.2130  138.9180 C   0  0  0  0  0  0  0  0  0  0  0  0
  190.8070  176.7080  140.0580 C   0  0  0  0  0  3  0  0  0  0  0  0
  184.1850  179.0180  145.0970 C   0  0  0  0  0  3  0  0  0  0  0  0
  188.2790  177.4970  142.6930 C   0  0  0  0  0  0  0  0  0  0  0  0
  186.4110  178.5930  141.5630 C   0  0  0  0  0  0  0  0  0  0  0  0
  185.9020  177.9060  146.3780 C   0  0  0  0  0  3  0  0  0  0  0  0
  184.4350  179.3490  142.7350 C   0  0  0  0  0  3  0  0  0  0  0  0
  184.9480  178.8700  143.9350 C   0  0  0  0  0  0  0  0  0  0  0  0
  186.6680  177.7580  145.2210 C   0  0  0  0  0  3  0  0  0  0  0  0
  186.9830  178.1010  142.7720 C   0  0  0  0  0  0  0  0  0  0  0  0
  189.0150  177.0000  143.9070 C   0  0  0  0  0  2  0  0  0  0  0  0
  190.0160  178.0440  144.3780 C   0  0  0  0  0  2  0  0  0  0  0  0
  191.3390  177.3860  144.7230 C   0  0  0  0  0  2  0  0  0  0  0  0
  191.2730  176.7600  146.1060 C   0  0  0  0  0  2  0  0  0  0  0  0
  188.8530  176.1680  147.5070 O   0  0  0  0  0  0  0  0  0  0  0  0
  190.5910  177.6560  147.0270 N   0  0  0  0  0  2  0  0  0  0  0  0
  188.7570  178.2500  148.6490 C   0  0  0  0  0  1  0  0  0  0  0  0
  189.3870  177.2920  147.7050 C   0  0  0  0  0  0  0  0  0  0  0  0
  190.7790  177.1320  137.6280 N   0  0  0  0  0  2  0  0  0  0  0  0
  190.3450  176.1910  136.6060 C   0  0  0  0  0  2  0  0  0  0  0  0
  191.0440  174.1290  137.6050 O   0  0  0  0  0  1  0  0  0  0  0  0
  191.2990  175.0100  136.5520 C   0  0  2  0  0  3  0  0  0  0  0  0
  192.7520  175.4730  136.5810 C   0  0  0  0  0  2  0  0  0  0  0  0
  193.5140  174.8920  137.7630 C   0  0  0  0  0  2  0  0  0  0  0  0
  194.2200  175.9090  138.4040 O   0  0  0  0  0  1  0  0  0  0  0  0
  1 12  2  0  0  0  0
  2 13  2  0  0  0  0
  2 15  1  0  0  0  0
  3 17  1  0  0  0  0
  4 13  1  0  0  0  0
  5  8  1  0  0  0  0
  6 14  1  0  0  0  0
  7  1  1  0  0  0  0
  8  4  2  0  0  0  0
  8  1  1  0  0  0  0
  9  5  2  0  0  0  0
  9 10  1  0  0  0  0
 10  7  2  0  0  0  0
 11  6  2  0  0  0  0
 12 18  1  0  0  0  0
 12 19  1  0  0  0  0
 13 18  1  0  0  0  0
 15 16  2  0  0  0  0
 16  3  1  0  0  0  0
 16 11  1  0  0  0  0
 17 14  2  0  0  0  0
 18  3  2  0  0  0  0
 19 20  1  0  0  0  0
 20 21  1  0  0  0  0
 21 22  1  0  0  0  0
 22 24  1  0  0  0  0
 23 26  2  0  0  0  0
 24 26  1  0  0  0  0
 26 25  1  0  0  0  0
 27  9  1  0  0  0  0
 28 27  1  0  0  0  0
 30 31  1  0  0  0  0
 30 28  1  0  0  0  0
 30 29  1  1  0  0  0
 31 32  1  0  0  0  0
 32 33  1  0  0  0  0
M  END
>  <MODEL>
4

>  <REMARK>
 VINA RESULT:      -9.3      3.780      8.629
  Name = 
  10 active torsions:
  status: ('A' for Active; 'I' for Inactive)
    1  A    between atoms: C_1  and  C_19
    2  A    between atoms: C_1  and  C_26
    3  A    between atoms: C_2  and  C_12
    4  A    between atoms: C_5  and  N_24
    5  A    between atoms: C_5  and  C_30
    6  A    between atoms: N_6  and  C_25
    7  A    between atoms: C_12  and  C_30
    8  A    between atoms: C_14  and  C_19
    9  A    between atoms: C_14  and  C_25
   10  A    between atoms: C_18  and  N_24
                            x       y       z     vdW  Elec       q    Type
                         _______ _______ _______ _____ _____    ______ ____

>  <TORSDO>
F 10

$$$$
=
 OpenBabel11042409513D

 33 36  0  0  1  0  0  0  0  0999 V2000
  188.5620  177.7480  141.1410 C   0  0  0  0  0  0  0  0  0  0  0  0
  184.6750  179.1070  141.8550 C   0  0  0  0  0  3  0  0  0  0  0  0
  186.1820  178.2390  144.0650 C   0  0  0  0  0  0  0  0  0  0  0  0
  186.4620  178.6190  140.3950 N   0  0  0  0  0  0  0  0  0  0  0  0
  188.1490  178.1840  138.7810 C   0  0  0  0  0  3  0  0  0  0  0  0
  184.9580  178.3270  146.6130 C   0  0  0  0  0  3  0  0  0  0  0  0
  189.8550  177.3080  140.8120 C   0  0  0  0  0  3  0  0  0  0  0  0
  187.7090  178.1870  140.1080 C   0  0  0  0  0  0  0  0  0  0  0  0
  189.4370  177.7440  138.4630 C   0  0  0  0  0  0  0  0  0  0  0  0
  190.2890  177.3050  139.4840 C   0  0  0  0  0  3  0  0  0  0  0  0
  184.2570  178.7620  145.4890 C   0  0  0  0  0  3  0  0  0  0  0  0
  188.1020  177.7610  142.4770 C   0  0  0  0  0  0  0  0  0  0  0  0
  185.9750  178.6430  141.6600 C   0  0  0  0  0  0  0  0  0  0  0  0
  186.2600  177.8460  146.4770 C   0  0  0  0  0  3  0  0  0  0  0  0
  184.1180  179.1470  143.1260 C   0  0  0  0  0  3  0  0  0  0  0  0
  184.8530  178.7180  144.2250 C   0  0  0  0  0  0  0  0  0  0  0  0
  186.8590  177.8010  145.2170 C   0  0  0  0  0  3  0  0  0  0  0  0
  186.7700  178.2070  142.7590 C   0  0  0  0  0  0  0  0  0  0  0  0
  189.0600  177.3400  143.5580 C   0  0  0  0  0  2  0  0  0  0  0  0
  190.0930  178.4290  143.7970 C   0  0  0  0  0  2  0  0  0  0  0  0
  191.4470  177.8140  144.0950 C   0  0  0  0  0  2  0  0  0  0  0  0
  191.2990  176.3320  144.3990 C   0  0  0  0  0  2  0  0  0  0  0  0
  190.5090  176.7140  147.1190 O   0  0  0  0  0  0  0  0  0  0  0  0
  192.0940  175.9800  145.5650 N   0  0  0  0  0  2  0  0  0  0  0  0
  192.4890  175.7830  148.0460 C   0  0  0  0  0  1  0  0  0  0  0  0
  191.6330  176.1890  146.9010 C   0  0  0  0  0  0  0  0  0  0  0  0
  189.8580  177.7510  137.0960 N   0  0  0  0  0  2  0  0  0  0  0  0
  188.9550  177.4630  135.9910 C   0  0  0  0  0  2  0  0  0  0  0  0
  188.1290  175.2160  136.0990 O   0  0  0  0  0  1  0  0  0  0  0  0
  189.1280  176.0200  135.5450 C   0  0  2  0  0  3  0  0  0  0  0  0
  190.5090  175.4900  135.9160 C   0  0  0  0  0  2  0  0  0  0  0  0
  190.4350  174.1490  136.6300 C   0  0  0  0  0  2  0  0  0  0  0  0
  190.9960  174.2680  137.9000 O   0  0  0  0  0  1  0  0  0  0  0  0
  1 12  2  0  0  0  0
  2 15  1  0  0  0  0
  3 16  1  0  0  0  0
  3 17  1  0  0  0  0
  4 13  1  0  0  0  0
  5  8  1  0  0  0  0
  7  1  1  0  0  0  0
  8  4  2  0  0  0  0
  8  1  1  0  0  0  0
  9  5  2  0  0  0  0
  9 10  1  0  0  0  0
 10  7  2  0  0  0  0
 11  6  2  0  0  0  0
 12 18  1  0  0  0  0
 12 19  1  0  0  0  0
 13  2  2  0  0  0  0
 13 18  1  0  0  0  0
 14  6  1  0  0  0  0
 15 16  2  0  0  0  0
 16 11  1  0  0  0  0
 17 14  2  0  0  0  0
 18  3  2  0  0  0  0
 19 20  1  0  0  0  0
 20 21  1  0  0  0  0
 21 22  1  0  0  0  0
 22 24  1  0  0  0  0
 24 26  1  0  0  0  0
 26 23  2  0  0  0  0
 26 25  1  0  0  0  0
 27  9  1  0  0  0  0
 28 27  1  0  0  0  0
 30 31  1  0  0  0  0
 30 28  1  0  0  0  0
 30 29  1  1  0  0  0
 31 32  1  0  0  0  0
 32 33  1  0  0  0  0
M  END
>  <MODEL>
5

>  <REMARK>
 VINA RESULT:      -9.2      3.759      7.964
  Name = 
  10 active torsions:
  status: ('A' for Active; 'I' for Inactive)
    1  A    between atoms: C_1  and  C_19
    2  A    between atoms: C_1  and  C_26
    3  A    between atoms: C_2  and  C_12
    4  A    between atoms: C_5  and  N_24
    5  A    between atoms: C_5  and  C_30
    6  A    between atoms: N_6  and  C_25
    7  A    between atoms: C_12  and  C_30
    8  A    between atoms: C_14  and  C_19
    9  A    between atoms: C_14  and  C_25
   10  A    between atoms: C_18  and  N_24
                            x       y       z     vdW  Elec       q    Type
                         _______ _______ _______ _____ _____    ______ ____

>  <TORSDO>
F 10

$$$$
=
 OpenBabel11042409513D

 33 36  0  0  1  0  0  0  0  0999 V2000
  184.6970  178.2550  143.3290 C   0  0  0  0  0  0  0  0  0  0  0  0
  185.6770  178.8080  147.3530 C   0  0  0  0  0  3  0  0  0  0  0  0
  187.6610  177.7620  145.6580 C   0  0  0  0  0  0  0  0  0  0  0  0
  184.1470  178.9140  145.5630 N   0  0  0  0  0  0  0  0  0  0  0  0
  182.4760  179.0870  143.8830 C   0  0  0  0  0  3  0  0  0  0  0  0
  190.1750  177.1390  146.7950 C   0  0  0  0  0  3  0  0  0  0  0  0
  184.2830  178.1010  141.9950 C   0  0  0  0  0  3  0  0  0  0  0  0
  183.7760  178.7520  144.2730 C   0  0  0  0  0  0  0  0  0  0  0  0
  182.0740  178.9300  142.5540 C   0  0  0  0  0  0  0  0  0  0  0  0
  182.9820  178.4350  141.6100 C   0  0  0  0  0  3  0  0  0  0  0  0
  189.1640  177.6740  147.5920 C   0  0  0  0  0  3  0  0  0  0  0  0
  186.0080  177.9250  143.7410 C   0  0  0  0  0  0  0  0  0  0  0  0
  185.3900  178.6040  146.0040 C   0  0  0  0  0  0  0  0  0  0  0  0
  189.9420  176.9070  145.4400 C   0  0  0  0  0  3  0  0  0  0  0  0
  186.9300  178.5020  147.8680 C   0  0  0  0  0  3  0  0  0  0  0  0
  187.9170  177.9820  147.0390 C   0  0  0  0  0  0  0  0  0  0  0  0
  188.6990  177.2140  144.8830 C   0  0  0  0  0  3  0  0  0  0  0  0
  186.3760  178.0870  145.1150 C   0  0  0  0  0  0  0  0  0  0  0  0
  186.9780  177.4510  142.6940 C   0  0  0  0  0  2  0  0  0  0  0  0
  187.5900  178.6400  141.9700 C   0  0  0  0  0  2  0  0  0  0  0  0
  187.6200  178.3870  140.4750 C   0  0  0  0  0  2  0  0  0  0  0  0
  188.7680  177.4570  140.1190 C   0  0  0  0  0  2  0  0  0  0  0  0
  190.2400  175.8790  141.9940 O   0  0  0  0  0  0  0  0  0  0  0  0
  189.9810  177.8760  140.8050 N   0  0  0  0  0  2  0  0  0  0  0  0
  191.9210  177.5160  142.3720 C   0  0  0  0  0  1  0  0  0  0  0  0
  190.6750  177.0300  141.7240 C   0  0  0  0  0  0  0  0  0  0  0  0
  180.7370  179.2790  142.1850 N   0  0  0  0  0  2  0  0  0  0  0  0
  180.4290  180.1340  141.0480 C   0  0  0  0  0  2  0  0  0  0  0  0
  179.7750  178.1530  139.8700 O   0  0  0  0  0  1  0  0  0  0  0  0
  179.3920  179.4640  140.1620 C   0  0  2  0  0  3  0  0  0  0  0  0
  179.1720  180.2560  138.8770 C   0  0  0  0  0  2  0  0  0  0  0  0
  180.3320  181.1930  138.5760 C   0  0  0  0  0  2  0  0  0  0  0  0
  181.1700  180.6040  137.6310 O   0  0  0  0  0  1  0  0  0  0  0  0
  1 12  2  0  0  0  0
  1  8  1  0  0  0  0
  2 15  1  0  0  0  0
  3 16  1  0  0  0  0
  4 13  1  0  0  0  0
  5  8  1  0  0  0  0
  6 11  2  0  0  0  0
  7  1  1  0  0  0  0
  8  4  2  0  0  0  0
  9  5  2  0  0  0  0
 10  7  2  0  0  0  0
 10  9  1  0  0  0  0
 12 18  1  0  0  0  0
 13  2  2  0  0  0  0
 14  6  1  0  0  0  0
 16 11  1  0  0  0  0
 16 15  2  0  0  0  0
 17 14  2  0  0  0  0
 17  3  1  0  0  0  0
 18  3  2  0  0  0  0
 18 13  1  0  0  0  0
 19 12  1  0  0  0  0
 20 19  1  0  0  0  0
 21 20  1  0  0  0  0
 22 21  1  0  0  0  0
 22 24  1  0  0  0  0
 24 26  1  0  0  0  0
 26 23  2  0  0  0  0
 26 25  1  0  0  0  0
 27  9  1  0  0  0  0
 28 27  1  0  0  0  0
 30 29  1  6  0  0  0
 30 28  1  0  0  0  0
 31 30  1  0  0  0  0
 32 31  1  0  0  0  0
 33 32  1  0  0  0  0
M  END
>  <MODEL>
6

>  <REMARK>
 VINA RESULT:      -9.0      1.970      2.715
  Name = 
  10 active torsions:
  status: ('A' for Active; 'I' for Inactive)
    1  A    between atoms: C_1  and  C_19
    2  A    between atoms: C_1  and  C_26
    3  A    between atoms: C_2  and  C_12
    4  A    between atoms: C_5  and  N_24
    5  A    between atoms: C_5  and  C_30
    6  A    between atoms: N_6  and  C_25
    7  A    between atoms: C_12  and  C_30
    8  A    between atoms: C_14  and  C_19
    9  A    between atoms: C_14  and  C_25
   10  A    between atoms: C_18  and  N_24
                            x       y       z     vdW  Elec       q    Type
                         _______ _______ _______ _____ _____    ______ ____

>  <TORSDO>
F 10

$$$$
=
 OpenBabel11042409513D

 33 36  0  0  1  0  0  0  0  0999 V2000
  189.1570  177.2760  141.6650 C   0  0  0  0  0  0  0  0  0  0  0  0
  191.4490  177.0390  145.1510 C   0  0  0  0  0  3  0  0  0  0  0  0
  188.6920  177.5180  145.4300 C   0  0  0  0  0  0  0  0  0  0  0  0
  191.2430  176.9900  142.8030 N   0  0  0  0  0  0  0  0  0  0  0  0
  191.2230  176.9130  140.4290 C   0  0  0  0  0  3  0  0  0  0  0  0
  187.6650  177.8260  148.0470 C   0  0  0  0  0  3  0  0  0  0  0  0
  188.4630  177.3410  140.4440 C   0  0  0  0  0  3  0  0  0  0  0  0
  190.5500  177.0600  141.6450 C   0  0  0  0  0  0  0  0  0  0  0  0
  190.5250  176.9790  139.2200 C   0  0  0  0  0  0  0  0  0  0  0  0
  189.1410  177.1950  139.2320 C   0  0  0  0  0  3  0  0  0  0  0  0
  189.0220  177.5710  147.8580 C   0  0  0  0  0  3  0  0  0  0  0  0
  188.4920  177.4200  142.9040 C   0  0  0  0  0  0  0  0  0  0  0  0
  190.6490  177.1290  144.0130 C   0  0  0  0  0  0  0  0  0  0  0  0
  186.8180  177.9330  146.9450 C   0  0  0  0  0  3  0  0  0  0  0  0
  190.9010  177.1820  146.4180 C   0  0  0  0  0  3  0  0  0  0  0  0
  189.5400  177.4210  146.5680 C   0  0  0  0  0  0  0  0  0  0  0  0
  187.3290  177.7830  145.6550 C   0  0  0  0  0  3  0  0  0  0  0  0
  189.2460  177.3590  144.1190 C   0  0  0  0  0  0  0  0  0  0  0  0
  186.9980  177.5910  142.8870 C   0  0  0  0  0  2  0  0  0  0  0  0
  186.6210  178.8420  142.1080 C   0  0  0  0  0  2  0  0  0  0  0  0
  185.2780  179.3690  142.5770 C   0  0  0  0  0  2  0  0  0  0  0  0
  184.1600  178.8030  141.7180 C   0  0  0  0  0  2  0  0  0  0  0  0
  184.3910  180.1350  139.1990 O   0  0  0  0  0  0  0  0  0  0  0  0
  184.7090  178.2200  140.5030 N   0  0  0  0  0  2  0  0  0  0  0  0
  185.3990  178.2960  138.0810 C   0  0  0  0  0  1  0  0  0  0  0  0
  184.8060  178.9480  139.2770 C   0  0  0  0  0  0  0  0  0  0  0  0
  191.2420  176.8260  137.9920 N   0  0  0  0  0  2  0  0  0  0  0  0
  191.9570  175.6080  137.6410 C   0  0  0  0  0  2  0  0  0  0  0  0
  193.9430  176.8480  137.1320 O   0  0  0  0  0  1  0  0  0  0  0  0
  193.4440  175.7890  137.8950 C   0  0  2  0  0  3  0  0  0  0  0  0
  194.2140  174.5060  137.5980 C   0  0  0  0  0  2  0  0  0  0  0  0
  195.3380  174.2690  138.5950 C   0  0  0  0  0  2  0  0  0  0  0  0
  195.3610  172.9240  138.9570 O   0  0  0  0  0  1  0  0  0  0  0  0
  1 12  2  0  0  0  0
  2 15  1  0  0  0  0
  3 17  1  0  0  0  0
  3 16  1  0  0  0  0
  4 13  1  0  0  0  0
  5  8  1  0  0  0  0
  7  1  1  0  0  0  0
  8  1  1  0  0  0  0
  8  4  2  0  0  0  0
  9 10  1  0  0  0  0
  9  5  2  0  0  0  0
 10  7  2  0  0  0  0
 11  6  2  0  0  0  0
 12 18  1  0  0  0  0
 13 18  1  0  0  0  0
 13  2  2  0  0  0  0
 14  6  1  0  0  0  0
 15 16  2  0  0  0  0
 16 11  1  0  0  0  0
 17 14  2  0  0  0  0
 18  3  2  0  0  0  0
 19 12  1  0  0  0  0
 20 21  1  0  0  0  0
 20 19  1  0  0  0  0
 22 21  1  0  0  0  0
 23 26  2  0  0  0  0
 24 22  1  0  0  0  0
 25 26  1  0  0  0  0
 26 24  1  0  0  0  0
 27  9  1  0  0  0  0
 28 30  1  0  0  0  0
 28 27  1  0  0  0  0
 30 29  1  6  0  0  0
 31 30  1  0  0  0  0
 31 32  1  0  0  0  0
 32 33  1  0  0  0  0
M  END
>  <MODEL>
7

>  <REMARK>
 VINA RESULT:      -8.8      3.441      8.028
  Name = 
  10 active torsions:
  status: ('A' for Active; 'I' for Inactive)
    1  A    between atoms: C_1  and  C_19
    2  A    between atoms: C_1  and  C_26
    3  A    between atoms: C_2  and  C_12
    4  A    between atoms: C_5  and  N_24
    5  A    between atoms: C_5  and  C_30
    6  A    between atoms: N_6  and  C_25
    7  A    between atoms: C_12  and  C_30
    8  A    between atoms: C_14  and  C_19
    9  A    between atoms: C_14  and  C_25
   10  A    between atoms: C_18  and  N_24
                            x       y       z     vdW  Elec       q    Type
                         _______ _______ _______ _____ _____    ______ ____

>  <TORSDO>
F 10

$$$$
=
 OpenBabel11042409513D

 33 36  0  0  1  0  0  0  0  0999 V2000
  186.3960  178.3700  142.3650 C   0  0  0  0  0  0  0  0  0  0  0  0
  186.3810  177.8120  146.5060 C   0  0  0  0  0  3  0  0  0  0  0  0
  188.8470  177.6190  145.1710 C   0  0  0  0  0  0  0  0  0  0  0  0
  185.2680  178.2390  144.4710 N   0  0  0  0  0  0  0  0  0  0  0  0
  183.9840  178.6750  142.5210 C   0  0  0  0  0  3  0  0  0  0  0  0
  191.1440  177.0410  146.7180 C   0  0  0  0  0  3  0  0  0  0  0  0
  186.3100  178.5710  140.9760 C   0  0  0  0  0  3  0  0  0  0  0  0
  185.2150  178.4240  143.1340 C   0  0  0  0  0  0  0  0  0  0  0  0
  183.9080  178.8730  141.1390 C   0  0  0  0  0  0  0  0  0  0  0  0
  185.0760  178.8190  140.3680 C   0  0  0  0  0  3  0  0  0  0  0  0
  189.9000  177.1620  147.3370 C   0  0  0  0  0  3  0  0  0  0  0  0
  187.6310  178.1190  143.0020 C   0  0  0  0  0  0  0  0  0  0  0  0
  186.4290  177.9880  145.1240 C   0  0  0  0  0  0  0  0  0  0  0  0
  191.2510  177.2000  145.3370 C   0  0  0  0  0  3  0  0  0  0  0  0
  187.5350  177.5450  147.2290 C   0  0  0  0  0  3  0  0  0  0  0  0
  188.7590  177.4440  146.5790 C   0  0  0  0  0  0  0  0  0  0  0  0
  190.1150  177.4820  144.5770 C   0  0  0  0  0  3  0  0  0  0  0  0
  187.6640  177.9090  144.4180 C   0  0  0  0  0  0  0  0  0  0  0  0
  188.8760  178.1270  142.1560 C   0  0  0  0  0  2  0  0  0  0  0  0
  189.0900  176.7600  141.5260 C   0  0  0  0  0  2  0  0  0  0  0  0
  190.2900  176.7900  140.5980 C   0  0  0  0  0  2  0  0  0  0  0  0
  190.0310  177.7270  139.4300 C   0  0  0  0  0  2  0  0  0  0  0  0
  188.6170  179.3230  137.5260 O   0  0  0  0  0  0  0  0  0  0  0  0
  188.8190  177.3290  138.7300 N   0  0  0  0  0  2  0  0  0  0  0  0
  186.9450  177.6920  137.0860 C   0  0  0  0  0  1  0  0  0  0  0  0
  188.1680  178.1740  137.7800 C   0  0  0  0  0  0  0  0  0  0  0  0
  182.6350  179.1250  140.5400 N   0  0  0  0  0  2  0  0  0  0  0  0
  181.5570  178.1470  140.5360 C   0  0  0  0  0  2  0  0  0  0  0  0
  180.5390  180.0770  141.5270 O   0  0  0  0  0  1  0  0  0  0  0  0
  180.3120  178.7450  141.1690 C   0  0  2  0  0  3  0  0  0  0  0  0
  179.8680  177.9340  142.3830 C   0  0  0  0  0  2  0  0  0  0  0  0
  180.2050  178.6320  143.6920 C   0  0  0  0  0  2  0  0  0  0  0  0
  179.3000  178.2370  144.6750 O   0  0  0  0  0  1  0  0  0  0  0  0
  1 12  2  0  0  0  0
  1  8  1  0  0  0  0
  2 15  1  0  0  0  0
  3 16  1  0  0  0  0
  4 13  1  0  0  0  0
  5  8  1  0  0  0  0
  6 11  2  0  0  0  0
  7  1  1  0  0  0  0
  8  4  2  0  0  0  0
  9  5  2  0  0  0  0
 10  7  2  0  0  0  0
 10  9  1  0  0  0  0
 12 18  1  0  0  0  0
 13  2  2  0  0  0  0
 14  6  1  0  0  0  0
 16 15  2  0  0  0  0
 16 11  1  0  0  0  0
 17  3  1  0  0  0  0
 17 14  2  0  0  0  0
 18 13  1  0  0  0  0
 18  3  2  0  0  0  0
 19 12  1  0  0  0  0
 20 19  1  0  0  0  0
 21 20  1  0  0  0  0
 22 21  1  0  0  0  0
 23 26  2  0  0  0  0
 24 22  1  0  0  0  0
 25 26  1  0  0  0  0
 26 24  1  0  0  0  0
 27  9  1  0  0  0  0
 28 27  1  0  0  0  0
 28 30  1  0  0  0  0
 30 29  1  1  0  0  0
 30 31  1  0  0  0  0
 31 32  1  0  0  0  0
 32 33  1  0  0  0  0
M  END
>  <MODEL>
8

>  <REMARK>
 VINA RESULT:      -8.8      1.368      2.012
  Name = 
  10 active torsions:
  status: ('A' for Active; 'I' for Inactive)
    1  A    between atoms: C_1  and  C_19
    2  A    between atoms: C_1  and  C_26
    3  A    between atoms: C_2  and  C_12
    4  A    between atoms: C_5  and  N_24
    5  A    between atoms: C_5  and  C_30
    6  A    between atoms: N_6  and  C_25
    7  A    between atoms: C_12  and  C_30
    8  A    between atoms: C_14  and  C_19
    9  A    between atoms: C_14  and  C_25
   10  A    between atoms: C_18  and  N_24
                            x       y       z     vdW  Elec       q    Type
                         _______ _______ _______ _____ _____    ______ ____

>  <TORSDO>
F 10

$$$$
=
 OpenBabel11042409513D

 33 36  0  0  1  0  0  0  0  0999 V2000
  189.3650  177.2630  141.5900 C   0  0  0  0  0  0  0  0  0  0  0  0
  191.4540  176.9590  145.1970 C   0  0  0  0  0  3  0  0  0  0  0  0
  188.7040  177.5310  145.3240 C   0  0  0  0  0  0  0  0  0  0  0  0
  191.3740  176.9100  142.8410 N   0  0  0  0  0  0  0  0  0  0  0  0
  191.4820  176.8270  140.4690 C   0  0  0  0  0  3  0  0  0  0  0  0
  187.5460  177.8800  147.8810 C   0  0  0  0  0  3  0  0  0  0  0  0
  188.7410  177.3480  140.3340 C   0  0  0  0  0  3  0  0  0  0  0  0
  190.7490  177.0000  141.6460 C   0  0  0  0  0  0  0  0  0  0  0  0
  190.8540  176.9130  139.2240 C   0  0  0  0  0  0  0  0  0  0  0  0
  189.4790  177.1760  139.1600 C   0  0  0  0  0  3  0  0  0  0  0  0
  188.9020  177.5790  147.7670 C   0  0  0  0  0  3  0  0  0  0  0  0
  188.6390  177.4330  142.7900 C   0  0  0  0  0  0  0  0  0  0  0  0
  190.7200  177.0720  144.0170 C   0  0  0  0  0  0  0  0  0  0  0  0
  186.7650  178.0130  146.7340 C   0  0  0  0  0  3  0  0  0  0  0  0
  190.8420  177.1230  146.4320 C   0  0  0  0  0  3  0  0  0  0  0  0
  189.4840  177.4090  146.5060 C   0  0  0  0  0  0  0  0  0  0  0  0
  187.3400  177.8420  145.4740 C   0  0  0  0  0  3  0  0  0  0  0  0
  189.3230  177.3490  144.0460 C   0  0  0  0  0  0  0  0  0  0  0  0
  187.1540  177.6540  142.6920 C   0  0  0  0  0  2  0  0  0  0  0  0
  186.8660  178.9860  142.0180 C   0  0  0  0  0  2  0  0  0  0  0  0
  185.4600  178.9930  141.4470 C   0  0  0  0  0  2  0  0  0  0  0  0
  184.5150  178.2310  142.3610 C   0  0  0  0  0  2  0  0  0  0  0  0
  182.5610  178.7570  144.3810 O   0  0  0  0  0  0  0  0  0  0  0  0
  183.1420  178.6480  142.1190 N   0  0  0  0  0  2  0  0  0  0  0  0
  180.8370  179.3500  142.8560 C   0  0  0  0  0  1  0  0  0  0  0  0
  182.2180  178.9050  143.1780 C   0  0  0  0  0  0  0  0  0  0  0  0
  191.6310  176.7330  138.0370 N   0  0  0  0  0  2  0  0  0  0  0  0
  192.2930  175.4790  137.7100 C   0  0  0  0  0  2  0  0  0  0  0  0
  194.2090  176.6320  136.8470 O   0  0  0  0  0  1  0  0  0  0  0  0
  193.8010  175.6610  137.7650 C   0  0  2  0  0  3  0  0  0  0  0  0
  194.5240  174.3430  137.5060 C   0  0  0  0  0  2  0  0  0  0  0  0
  195.3780  173.9160  138.6910 C   0  0  0  0  0  2  0  0  0  0  0  0
  195.8590  175.0480  139.3470 O   0  0  0  0  0  1  0  0  0  0  0  0
  1  8  1  0  0  0  0
  1 12  2  0  0  0  0
  2 15  1  0  0  0  0
  3 17  1  0  0  0  0
  3 16  1  0  0  0  0
  4 13  1  0  0  0  0
  5  8  1  0  0  0  0
  7  1  1  0  0  0  0
  8  4  2  0  0  0  0
  9  5  2  0  0  0  0
 10  9  1  0  0  0  0
 10  7  2  0  0  0  0
 11  6  2  0  0  0  0
 12 18  1  0  0  0  0
 13 18  1  0  0  0  0
 13  2  2  0  0  0  0
 14  6  1  0  0  0  0
 15 16  2  0  0  0  0
 16 11  1  0  0  0  0
 17 14  2  0  0  0  0
 18  3  2  0  0  0  0
 19 12  1  0  0  0  0
 20 19  1  0  0  0  0
 21 20  1  0  0  0  0
 21 22  1  0  0  0  0
 24 22  1  0  0  0  0
 24 26  1  0  0  0  0
 25 26  1  0  0  0  0
 26 23  2  0  0  0  0
 27  9  1  0  0  0  0
 28 30  1  0  0  0  0
 28 27  1  0  0  0  0
 30 29  1  6  0  0  0
 31 30  1  0  0  0  0
 31 32  1  0  0  0  0
 32 33  1  0  0  0  0
M  END
>  <MODEL>
9

>  <REMARK>
 VINA RESULT:      -8.7      3.316      8.570
  Name = 
  10 active torsions:
  status: ('A' for Active; 'I' for Inactive)
    1  A    between atoms: C_1  and  C_19
    2  A    between atoms: C_1  and  C_26
    3  A    between atoms: C_2  and  C_12
    4  A    between atoms: C_5  and  N_24
    5  A    between atoms: C_5  and  C_30
    6  A    between atoms: N_6  and  C_25
    7  A    between atoms: C_12  and  C_30
    8  A    between atoms: C_14  and  C_19
    9  A    between atoms: C_14  and  C_25
   10  A    between atoms: C_18  and  N_24
                            x       y       z     vdW  Elec       q    Type
                         _______ _______ _______ _____ _____    ______ ____

>  <TORSDO>
F 10

$$$$
