=
 OpenBabel11042411453D

 25 28  0  0  1  0  0  0  0  0999 V2000
  184.5000  178.5950  144.8450 C   0  0  0  0  0  0  0  0  0  0  0  0
  184.1940  178.8050  146.1560 N   0  0  0  0  0  2  0  0  0  0  0  0
  187.9490  177.8130  144.9080 C   0  0  0  0  0  0  0  0  0  0  0  0
  186.4120  178.3780  146.9110 C   0  0  0  0  0  0  0  0  0  0  0  0
  183.4510  178.7220  143.7960 C   0  0  0  0  0  1  0  0  0  0  0  0
  190.2350  177.2310  144.4110 C   0  0  0  0  0  0  0  0  0  0  0  0
  186.3250  178.0110  143.3100 N   0  0  0  0  0  0  0  0  0  0  0  0
  185.1040  178.7020  147.1360 N   0  0  0  0  0  0  0  0  0  0  0  0
  186.7900  178.1500  145.5800 C   0  0  0  0  0  0  0  0  0  0  0  0
  189.8990  177.1600  143.0320 C   0  0  0  0  0  0  0  0  0  0  0  0
  187.6260  177.7410  143.5620 C   0  0  0  0  0  0  0  0  0  0  0  0
  189.2410  177.5590  145.3570 C   0  0  0  0  0  3  0  0  0  0  0  0
  185.8080  178.2630  144.5310 C   0  0  0  0  0  0  0  0  0  0  0  0
  188.5820  177.4130  142.6070 C   0  0  0  0  0  3  0  0  0  0  0  0
  191.8230  177.2350  146.2250 O   0  0  0  0  0  0  0  0  0  0  0  0
  192.0490  175.8800  146.5220 C   0  0  0  0  0  2  0  0  0  0  0  0
  191.6410  176.9290  144.8660 C   0  0  1  0  0  3  0  0  0  0  0  0
  191.8450  175.4560  145.0930 C   0  0  0  0  0  2  0  0  0  0  0  0
  187.3110  178.2970  148.0730 C   0  0  0  0  0  3  0  0  0  0  0  0
  187.8790  177.2330  148.4280 O   0  0  0  0  0  0  0  0  0  0  0  0
  190.9140  176.7820  142.0060 C   0  0  0  0  0  2  0  0  0  0  0  0
  190.2480  176.3290  140.7970 N   0  0  0  0  0  2  0  0  0  0  0  0
  190.8100  177.0920  139.6990 C   0  0  0  0  0  2  0  0  0  0  0  0
  189.1090  178.5150  138.9940 C   0  0  0  0  0  1  0  0  0  0  0  0
  189.8020  177.2810  138.6750 N   0  0  0  0  0  2  0  0  0  0  0  0
  1  2  1  0  0  0  0
  2  8  1  0  0  0  0
  3 12  1  0  0  0  0
  3  9  2  0  0  0  0
  4  8  2  0  0  0  0
  4 19  1  0  0  0  0
  5  1  1  0  0  0  0
  6 12  2  0  0  0  0
  7 11  2  0  0  0  0
  7 13  1  0  0  0  0
  9  4  1  0  0  0  0
 10  6  1  0  0  0  0
 11  3  1  0  0  0  0
 13  1  2  0  0  0  0
 13  9  1  0  0  0  0
 14 10  2  0  0  0  0
 14 11  1  0  0  0  0
 15 16  1  0  0  0  0
 17  6  1  1  0  0  0
 17 18  1  0  0  0  0
 17 15  1  0  0  0  0
 18 16  1  0  0  0  0
 19 20  2  0  0  0  0
 21 10  1  0  0  0  0
 22 21  1  0  0  0  0
 23 22  1  0  0  0  0
 25 24  1  0  0  0  0
 25 23  1  0  0  0  0
M  END
>  <MODEL>
1

>  <REMARK>
 VINA RESULT:      -8.6      0.000      0.000
  Name = 
  6 active torsions:
  status: ('A' for Active; 'I' for Inactive)
    1  A    between atoms: C_6  and  N_11
    2  A    between atoms: C_6  and  C_18
    3  A    between atoms: C_7  and  C_8
    4  A    between atoms: N_11  and  C_16
    5  A    between atoms: C_12  and  C_20
    6  A    between atoms: C_16  and  N_24
                            x       y       z     vdW  Elec       q    Type
                         _______ _______ _______ _____ _____    ______ ____

>  <TORSDO>
F 6

$$$$
=
 OpenBabel11042411453D

 25 28  0  0  1  0  0  0  0  0999 V2000
  189.2070  177.8280  140.1310 C   0  0  0  0  0  0  0  0  0  0  0  0
  190.5370  177.5500  140.0340 N   0  0  0  0  0  0  0  0  0  0  0  0
  188.5430  177.5390  143.5930 C   0  0  0  0  0  0  0  0  0  0  0  0
  190.8000  177.2000  142.3750 C   0  0  0  0  0  0  0  0  0  0  0  0
  188.4140  178.1540  138.9140 C   0  0  0  0  0  1  0  0  0  0  0  0
  187.5830  177.4770  145.8040 C   0  0  0  0  0  0  0  0  0  0  0  0
  187.3410  178.0390  141.7130 N   0  0  0  0  0  0  0  0  0  0  0  0
  191.2920  177.2520  141.1020 N   0  0  0  0  0  0  0  0  0  0  0  0
  189.4350  177.4760  142.5410 C   0  0  0  0  0  0  0  0  0  0  0  0
  186.3230  177.8230  145.2470 C   0  0  0  0  0  0  0  0  0  0  0  0
  187.3120  177.8770  143.0550 C   0  0  2  0  0  3  0  0  0  0  0  0
  188.7060  177.3390  144.9600 C   0  0  0  0  0  3  0  0  0  0  0  0
  188.6290  177.7960  141.3890 C   0  0  0  0  0  0  0  0  0  0  0  0
  186.1890  178.0280  143.8620 C   0  0  0  0  0  3  0  0  0  0  0  0
  189.0300  176.8830  147.6390 O   0  0  0  0  0  0  0  0  0  0  0  0
  189.2360  178.0780  148.3500 C   0  0  0  0  0  2  0  0  0  0  0  0
  187.7300  177.2880  147.2930 C   0  0  1  0  0  3  0  0  0  0  0  0
  187.8680  178.6050  148.0080 C   0  0  0  0  0  2  0  0  0  0  0  0
  191.7340  176.8600  143.4600 C   0  0  0  0  0  3  0  0  0  0  0  0
  191.7590  175.7320  144.0150 O   0  0  0  0  0  0  0  0  0  0  0  0
  185.1210  178.0130  146.1110 C   0  0  0  0  0  2  0  0  0  0  0  0
  184.4280  179.2320  145.7300 N   0  0  0  0  0  2  0  0  0  0  0  0
  183.2090  178.8260  145.0570 C   0  0  0  0  0  2  0  0  0  0  0  0
  182.0110  178.9500  143.0650 C   0  0  0  0  0  1  0  0  0  0  0  0
  183.0450  179.6040  143.8440 N   0  0  0  0  0  2  0  0  0  0  0  0
  1 13  1  0  0  0  0
  2  1  2  0  0  0  0
  2  8  1  0  0  0  0
  3 12  1  0  0  0  0
  4  9  1  0  0  0  0
  4 19  1  0  0  0  0
  5  1  1  0  0  0  0
  7 11  1  0  0  0  0
  8  4  2  0  0  0  0
  9  3  2  0  0  0  0
 10  6  1  0  0  0  0
 10 21  1  0  0  0  0
 11  3  1  0  0  0  0
 11 14  1  1  0  0  0
 12  6  2  0  0  0  0
 13  7  2  0  0  0  0
 13  9  1  0  0  0  0
 14 10  2  0  0  0  0
 15 16  1  0  0  0  0
 17  6  1  6  0  0  0
 17 15  1  0  0  0  0
 17 18  1  0  0  0  0
 18 16  1  0  0  0  0
 19 20  2  0  0  0  0
 22 21  1  0  0  0  0
 23 22  1  0  0  0  0
 24 25  1  0  0  0  0
 25 23  1  0  0  0  0
M  END
>  <MODEL>
2

>  <REMARK>
 VINA RESULT:      -7.9      1.479      5.938
  Name = 
  6 active torsions:
  status: ('A' for Active; 'I' for Inactive)
    1  A    between atoms: C_6  and  N_11
    2  A    between atoms: C_6  and  C_18
    3  A    between atoms: C_7  and  C_8
    4  A    between atoms: N_11  and  C_16
    5  A    between atoms: C_12  and  C_20
    6  A    between atoms: C_16  and  N_24
                            x       y       z     vdW  Elec       q    Type
                         _______ _______ _______ _____ _____    ______ ____

>  <TORSDO>
F 6

$$$$
=
 OpenBabel11042411453D

 25 28  0  0  1  0  0  0  0  0999 V2000
  188.0550  177.5250  146.7500 C   0  0  0  0  0  0  0  0  0  0  0  0
  189.1950  177.1010  146.1350 N   0  0  0  0  0  2  0  0  0  0  0  0
  185.8420  178.1580  144.0650 C   0  0  0  0  0  0  0  0  0  0  0  0
  188.2830  177.3090  143.9450 C   0  0  0  0  0  0  0  0  0  0  0  0
  187.9900  177.6200  148.2350 C   0  0  0  0  0  1  0  0  0  0  0  0
  183.9870  178.7230  142.6330 C   0  0  0  0  0  0  0  0  0  0  0  0
  185.7590  178.2960  146.3460 N   0  0  0  0  0  0  0  0  0  0  0  0
  189.3010  177.0000  144.8020 N   0  0  0  0  0  0  0  0  0  0  0  0
  187.0820  177.7520  144.5180 C   0  0  0  0  0  0  0  0  0  0  0  0
  183.2190  179.0440  143.7850 C   0  0  0  0  0  0  0  0  0  0  0  0
  185.0890  178.4710  145.1850 C   0  0  0  0  0  0  0  0  0  0  0  0
  185.3150  178.2710  142.7820 C   0  0  0  0  0  3  0  0  0  0  0  0
  186.9740  177.8600  145.9510 C   0  0  0  0  0  0  0  0  0  0  0  0
  183.7750  178.9120  145.0700 C   0  0  0  0  0  3  0  0  0  0  0  0
  184.2710  179.4160  140.3410 O   0  0  0  0  0  0  0  0  0  0  0  0
  184.3130  178.2250  139.5970 C   0  0  0  0  0  2  0  0  0  0  0  0
  183.3770  178.8370  141.2580 C   0  0  1  0  0  3  0  0  0  0  0  0
  183.3800  177.5150  140.5400 C   0  0  0  0  0  2  0  0  0  0  0  0
  188.5280  177.1540  142.5020 C   0  0  0  0  0  3  0  0  0  0  0  0
  188.7340  178.1270  141.7330 O   0  0  0  0  0  0  0  0  0  0  0  0
  181.8000  179.4910  143.6690 C   0  0  0  0  0  2  0  0  0  0  0  0
  180.9090  178.3900  143.9910 N   0  0  0  0  0  2  0  0  0  0  0  0
  179.6880  178.6060  143.2370 C   0  0  0  0  0  2  0  0  0  0  0  0
  179.5760  178.2710  140.9370 C   0  0  0  0  0  1  0  0  0  0  0  0
  179.5650  177.5850  142.2140 N   0  0  0  0  0  2  0  0  0  0  0  0
  1  5  1  0  0  0  0
  2  1  1  0  0  0  0
  3  9  2  0  0  0  0
  3 11  1  0  0  0  0
  4  9  1  0  0  0  0
  4  8  2  0  0  0  0
  6 12  2  0  0  0  0
  6 10  1  0  0  0  0
  8  2  1  0  0  0  0
  9 13  1  0  0  0  0
 10 14  2  0  0  0  0
 11  7  2  0  0  0  0
 12  3  1  0  0  0  0
 13  7  1  0  0  0  0
 13  1  2  0  0  0  0
 14 11  1  0  0  0  0
 15 17  1  0  0  0  0
 16 15  1  0  0  0  0
 16 18  1  0  0  0  0
 17  6  1  1  0  0  0
 18 17  1  0  0  0  0
 19  4  1  0  0  0  0
 20 19  2  0  0  0  0
 21 10  1  0  0  0  0
 21 22  1  0  0  0  0
 23 22  1  0  0  0  0
 24 25  1  0  0  0  0
 25 23  1  0  0  0  0
M  END
>  <MODEL>
3

>  <REMARK>
 VINA RESULT:      -7.9      3.399      7.266
  Name = 
  6 active torsions:
  status: ('A' for Active; 'I' for Inactive)
    1  A    between atoms: C_6  and  N_11
    2  A    between atoms: C_6  and  C_18
    3  A    between atoms: C_7  and  C_8
    4  A    between atoms: N_11  and  C_16
    5  A    between atoms: C_12  and  C_20
    6  A    between atoms: C_16  and  N_24
                            x       y       z     vdW  Elec       q    Type
                         _______ _______ _______ _____ _____    ______ ____

>  <TORSDO>
F 6

$$$$
=
 OpenBabel11042411453D

 25 28  0  0  1  0  0  0  0  0999 V2000
  188.5200  178.1980  139.4320 C   0  0  0  0  0  0  0  0  0  0  0  0
  187.3980  178.5750  138.7560 N   0  0  0  0  0  0  0  0  0  0  0  0
  187.4360  177.9850  142.7930 C   0  0  0  0  0  0  0  0  0  0  0  0
  186.0410  178.6330  140.7120 C   0  0  0  0  0  0  0  0  0  0  0  0
  189.8010  177.9820  138.7070 C   0  0  0  0  0  1  0  0  0  0  0  0
  187.2150  177.6930  145.1750 C   0  0  0  0  0  0  0  0  0  0  0  0
  189.3960  177.6570  141.6610 N   0  0  0  0  0  0  0  0  0  0  0  0
  186.2220  178.7820  139.3660 N   0  0  0  0  0  0  0  0  0  0  0  0
  187.1590  178.2460  141.4650 C   0  0  0  0  0  0  0  0  0  0  0  0
  188.5890  177.3390  145.2420 C   0  0  0  0  0  0  0  0  0  0  0  0
  188.7760  177.6390  142.8620 C   0  0  2  0  0  3  0  0  0  0  0  0
  186.6350  178.0160  143.9300 C   0  0  0  0  0  3  0  0  0  0  0  0
  188.4210  178.0260  140.8030 C   0  0  0  0  0  0  0  0  0  0  0  0
  189.3730  177.3080  144.0750 C   0  0  0  0  0  3  0  0  0  0  0  0
  186.8540  178.6070  147.3770 O   0  0  0  0  0  0  0  0  0  0  0  0
  185.6810  179.3730  147.2730 C   0  0  0  0  0  2  0  0  0  0  0  0
  186.3690  177.6950  146.4250 C   0  0  1  0  0  3  0  0  0  0  0  0
  185.0920  178.4650  146.2280 C   0  0  0  0  0  2  0  0  0  0  0  0
  184.7000  178.8900  141.2580 C   0  0  0  0  0  3  0  0  0  0  0  0
  183.8640  177.9780  141.4830 O   0  0  0  0  0  0  0  0  0  0  0  0
  189.2280  176.9560  146.5350 C   0  0  0  0  0  2  0  0  0  0  0  0
  190.6620  176.8100  146.3520 N   0  0  0  0  0  2  0  0  0  0  0  0
  191.2680  176.9650  147.6600 C   0  0  0  0  0  2  0  0  0  0  0  0
  192.4310  175.2530  146.5940 C   0  0  0  0  0  1  0  0  0  0  0  0
  192.4560  176.1370  147.7440 N   0  0  0  0  0  2  0  0  0  0  0  0
  1 13  1  0  0  0  0
  2  8  1  0  0  0  0
  2  1  2  0  0  0  0
  3 11  1  0  0  0  0
  3 12  1  0  0  0  0
  4 19  1  0  0  0  0
  4  9  1  0  0  0  0
  5  1  1  0  0  0  0
  6 10  1  0  0  0  0
  7 11  1  0  0  0  0
  8  4  2  0  0  0  0
  9  3  2  0  0  0  0
 10 21  1  0  0  0  0
 11 14  1  6  0  0  0
 12  6  2  0  0  0  0
 13  9  1  0  0  0  0
 13  7  2  0  0  0  0
 14 10  2  0  0  0  0
 16 15  1  0  0  0  0
 17  6  1  6  0  0  0
 17 15  1  0  0  0  0
 18 17  1  0  0  0  0
 18 16  1  0  0  0  0
 19 20  2  0  0  0  0
 22 21  1  0  0  0  0
 22 23  1  0  0  0  0
 23 25  1  0  0  0  0
 24 25  1  0  0  0  0
M  END
>  <MODEL>
4

>  <REMARK>
 VINA RESULT:      -7.9      2.968      6.124
  Name = 
  6 active torsions:
  status: ('A' for Active; 'I' for Inactive)
    1  A    between atoms: C_6  and  N_11
    2  A    between atoms: C_6  and  C_18
    3  A    between atoms: C_7  and  C_8
    4  A    between atoms: N_11  and  C_16
    5  A    between atoms: C_12  and  C_20
    6  A    between atoms: C_16  and  N_24
                            x       y       z     vdW  Elec       q    Type
                         _______ _______ _______ _____ _____    ______ ____

>  <TORSDO>
F 6

$$$$
=
 OpenBabel11042411453D

 25 28  0  0  1  0  0  0  0  0999 V2000
  190.0720  176.8780  146.6680 C   0  0  0  0  0  0  0  0  0  0  0  0
  189.4120  177.0250  147.8510 N   0  0  0  0  0  2  0  0  0  0  0  0
  187.6860  177.8690  144.2520 C   0  0  0  0  0  0  0  0  0  0  0  0
  187.4050  177.7900  146.8230 C   0  0  0  0  0  0  0  0  0  0  0  0
  191.4790  176.3940  146.6440 C   0  0  0  0  0  1  0  0  0  0  0  0
  186.4620  178.4350  142.2540 C   0  0  0  0  0  0  0  0  0  0  0  0
  189.8480  177.1250  144.2350 N   0  0  0  0  0  0  0  0  0  0  0  0
  188.1440  177.4580  147.9220 N   0  0  0  0  0  0  0  0  0  0  0  0
  188.0290  177.6600  145.5740 C   0  0  0  0  0  0  0  0  0  0  0  0
  187.6040  178.0950  141.4800 C   0  0  0  0  0  0  0  0  0  0  0  0
  188.7970  177.5390  143.4930 C   0  0  0  0  0  0  0  0  0  0  0  0
  186.5110  178.3220  143.6590 C   0  0  0  0  0  3  0  0  0  0  0  0
  189.3910  177.1930  145.5030 C   0  0  0  0  0  0  0  0  0  0  0  0
  188.7810  177.6480  142.1060 C   0  0  0  0  0  3  0  0  0  0  0  0
  184.4080  177.8890  141.1140 O   0  0  0  0  0  0  0  0  0  0  0  0
  183.3830  178.2460  142.0060 C   0  0  0  0  0  2  0  0  0  0  0  0
  185.2110  178.9440  141.5800 C   0  0  1  0  0  3  0  0  0  0  0  0
  184.1810  179.3830  142.5850 C   0  0  0  0  0  2  0  0  0  0  0  0
  186.0240  178.2520  147.0370 C   0  0  0  0  0  3  0  0  0  0  0  0
  185.6860  179.4610  146.9640 O   0  0  0  0  0  0  0  0  0  0  0  0
  187.6010  178.2350  139.9940 C   0  0  0  0  0  2  0  0  0  0  0  0
  188.8440  178.8460  139.5550 N   0  0  0  0  0  2  0  0  0  0  0  0
  189.0470  178.4370  138.1780 C   0  0  0  0  0  2  0  0  0  0  0  0
  187.6230  178.5200  136.3390 C   0  0  0  0  0  1  0  0  0  0  0  0
  188.3400  179.3430  137.2940 N   0  0  0  0  0  2  0  0  0  0  0  0
  1  2  1  0  0  0  0
  2  8  1  0  0  0  0
  3  9  2  0  0  0  0
  4 19  1  0  0  0  0
  4  8  2  0  0  0  0
  5  1  1  0  0  0  0
  6 12  2  0  0  0  0
  7 13  1  0  0  0  0
  9  4  1  0  0  0  0
 10 14  2  0  0  0  0
 10  6  1  0  0  0  0
 11  7  2  0  0  0  0
 11  3  1  0  0  0  0
 12  3  1  0  0  0  0
 13  9  1  0  0  0  0
 13  1  2  0  0  0  0
 14 11  1  0  0  0  0
 15 17  1  0  0  0  0
 15 16  1  0  0  0  0
 16 18  1  0  0  0  0
 17  6  1  1  0  0  0
 17 18  1  0  0  0  0
 20 19  2  0  0  0  0
 21 10  1  0  0  0  0
 22 21  1  0  0  0  0
 23 22  1  0  0  0  0
 24 25  1  0  0  0  0
 25 23  1  0  0  0  0
M  END
>  <MODEL>
5

>  <REMARK>
 VINA RESULT:      -7.6      2.670      4.979
  Name = 
  6 active torsions:
  status: ('A' for Active; 'I' for Inactive)
    1  A    between atoms: C_6  and  N_11
    2  A    between atoms: C_6  and  C_18
    3  A    between atoms: C_7  and  C_8
    4  A    between atoms: N_11  and  C_16
    5  A    between atoms: C_12  and  C_20
    6  A    between atoms: C_16  and  N_24
                            x       y       z     vdW  Elec       q    Type
                         _______ _______ _______ _____ _____    ______ ____

>  <TORSDO>
F 6

$$$$
=
 OpenBabel11042411453D

 25 28  0  0  1  0  0  0  0  0999 V2000
  189.3210  178.0820  139.3340 C   0  0  0  0  0  0  0  0  0  0  0  0
  190.5480  177.5210  139.5250 N   0  0  0  0  0  0  0  0  0  0  0  0
  187.7730  177.8070  142.5020 C   0  0  0  0  0  0  0  0  0  0  0  0
  190.1430  177.0270  141.8190 C   0  0  0  0  0  0  0  0  0  0  0  0
  188.9390  178.6240  138.0010 C   0  0  0  0  0  1  0  0  0  0  0  0
  186.3020  177.8690  144.4110 C   0  0  0  0  0  0  0  0  0  0  0  0
  187.2040  178.6360  140.4480 N   0  0  0  0  0  0  0  0  0  0  0  0
  190.9360  177.0200  140.7070 N   0  0  0  0  0  0  0  0  0  0  0  0
  188.8660  177.5910  141.6860 C   0  0  0  0  0  0  0  0  0  0  0  0
  185.3180  178.5070  143.6100 C   0  0  0  0  0  0  0  0  0  0  0  0
  186.8100  178.4300  141.7250 C   0  0  0  0  0  0  0  0  0  0  0  0
  187.5460  177.5200  143.8450 C   0  0  0  0  0  2  0  0  0  0  0  0
  188.4540  178.1280  140.4130 C   0  0  0  0  0  0  0  0  0  0  0  0
  185.5770  178.7930  142.2580 C   0  0  0  0  0  3  0  0  0  0  0  0
  187.1790  177.1170  146.5280 O   0  0  0  0  0  0  0  0  0  0  0  0
  187.2110  178.2610  147.3430 C   0  0  0  0  0  2  0  0  0  0  0  0
  186.0320  177.5920  145.8700 C   0  0  1  0  0  3  0  0  0  0  0  0
  186.0010  178.8600  146.6780 C   0  0  0  0  0  2  0  0  0  0  0  0
  190.6880  176.4450  143.0560 C   0  0  0  0  0  3  0  0  0  0  0  0
  191.6800  176.9250  143.6600 O   0  0  0  0  0  0  0  0  0  0  0  0
  184.0040  178.9230  144.1830 C   0  0  0  0  0  2  0  0  0  0  0  0
  183.0090  179.0020  143.1280 N   0  0  0  0  0  2  0  0  0  0  0  0
  181.7110  179.0030  143.7760 C   0  0  0  0  0  2  0  0  0  0  0  0
  180.8890  178.8760  141.6020 C   0  0  0  0  0  1  0  0  0  0  0  0
  180.7200  179.5540  142.8730 N   0  0  0  0  0  2  0  0  0  0  0  0
  1  2  2  0  0  0  0
  1 13  1  0  0  0  0
  2  8  1  0  0  0  0
  3 12  1  0  0  0  0
  4 19  1  0  0  0  0
  5  1  1  0  0  0  0
  7 11  1  0  0  0  0
  8  4  2  0  0  0  0
  9  4  1  0  0  0  0
  9  3  2  0  0  0  0
 10 21  1  0  0  0  0
 10  6  2  0  0  0  0
 11 14  2  0  0  0  0
 11  3  1  0  0  0  0
 12  6  1  0  0  0  0
 13  7  2  0  0  0  0
 13  9  1  0  0  0  0
 14 10  1  0  0  0  0
 15 16  1  0  0  0  0
 17  6  1  6  0  0  0
 17 15  1  0  0  0  0
 17 18  1  0  0  0  0
 18 16  1  0  0  0  0
 19 20  2  0  0  0  0
 22 23  1  0  0  0  0
 22 21  1  0  0  0  0
 24 25  1  0  0  0  0
 25 23  1  0  0  0  0
M  END
>  <MODEL>
6

>  <REMARK>
 VINA RESULT:      -7.6      1.980      6.502
  Name = 
  6 active torsions:
  status: ('A' for Active; 'I' for Inactive)
    1  A    between atoms: C_6  and  N_11
    2  A    between atoms: C_6  and  C_18
    3  A    between atoms: C_7  and  C_8
    4  A    between atoms: N_11  and  C_16
    5  A    between atoms: C_12  and  C_20
    6  A    between atoms: C_16  and  N_24
                            x       y       z     vdW  Elec       q    Type
                         _______ _______ _______ _____ _____    ______ ____

>  <TORSDO>
F 6

$$$$
=
 OpenBabel11042411453D

 25 28  0  0  1  0  0  0  0  0999 V2000
  191.0010  176.9950  142.2550 C   0  0  0  0  0  0  0  0  0  0  0  0
  191.6850  177.0820  141.0790 N   0  0  0  0  0  0  0  0  0  0  0  0
  187.7330  178.0460  141.4010 C   0  0  0  0  0  0  0  0  0  0  0  0
  189.7960  177.8560  139.8520 C   0  0  0  0  0  0  0  0  0  0  0  0
  191.6860  176.5340  143.4930 C   0  0  0  0  0  1  0  0  0  0  0  0
  185.4040  178.6640  141.3450 C   0  0  0  0  0  0  0  0  0  0  0  0
  188.8020  177.3340  143.2930 N   0  0  0  0  0  0  0  0  0  0  0  0
  191.1100  177.4920  139.9380 N   0  0  0  0  0  0  0  0  0  0  0  0
  189.0390  177.7880  141.0290 C   0  0  0  0  0  0  0  0  0  0  0  0
  185.3120  178.3720  142.7330 C   0  0  0  0  0  0  0  0  0  0  0  0
  187.6380  177.7620  142.7530 C   0  0  2  0  0  3  0  0  0  0  0  0
  186.6340  178.4930  140.6750 C   0  0  0  0  0  3  0  0  0  0  0  0
  189.6610  177.3480  142.2520 C   0  0  0  0  0  0  0  0  0  0  0  0
  186.4380  177.9140  143.4400 C   0  0  0  0  0  3  0  0  0  0  0  0
  184.5380  179.8940  139.4600 O   0  0  0  0  0  0  0  0  0  0  0  0
  183.9980  178.9220  138.6010 C   0  0  0  0  0  2  0  0  0  0  0  0
  184.1860  179.1260  140.5840 C   0  0  1  0  0  3  0  0  0  0  0  0
  183.6080  178.0220  139.7410 C   0  0  0  0  0  2  0  0  0  0  0  0
  189.2880  178.2880  138.5400 C   0  0  0  0  0  3  0  0  0  0  0  0
  188.9790  179.4790  138.2820 O   0  0  0  0  0  0  0  0  0  0  0  0
  184.0200  178.5070  143.4680 C   0  0  0  0  0  2  0  0  0  0  0  0
  184.1510  179.5050  144.5160 N   0  0  0  0  0  2  0  0  0  0  0  0
  184.1310  178.7900  145.7780 C   0  0  0  0  0  2  0  0  0  0  0  0
  186.0940  178.2410  146.9020 C   0  0  0  0  0  1  0  0  0  0  0  0
  185.1590  179.3210  146.6510 N   0  0  0  0  0  2  0  0  0  0  0  0
  1  5  1  0  0  0  0
  2  1  2  0  0  0  0
  3 11  1  0  0  0  0
  4  8  2  0  0  0  0
  4  9  1  0  0  0  0
  6 10  1  0  0  0  0
  8  2  1  0  0  0  0
  9  3  2  0  0  0  0
  9 13  1  0  0  0  0
 10 14  2  0  0  0  0
 10 21  1  0  0  0  0
 11  7  1  0  0  0  0
 11 14  1  6  0  0  0
 12  6  2  0  0  0  0
 12  3  1  0  0  0  0
 13  1  1  0  0  0  0
 13  7  2  0  0  0  0
 15 17  1  0  0  0  0
 16 15  1  0  0  0  0
 16 18  1  0  0  0  0
 17  6  1  6  0  0  0
 18 17  1  0  0  0  0
 19  4  1  0  0  0  0
 20 19  2  0  0  0  0
 21 22  1  0  0  0  0
 22 23  1  0  0  0  0
 23 25  1  0  0  0  0
 25 24  1  0  0  0  0
M  END
>  <MODEL>
7

>  <REMARK>
 VINA RESULT:      -7.3      3.354      7.763
  Name = 
  6 active torsions:
  status: ('A' for Active; 'I' for Inactive)
    1  A    between atoms: C_6  and  N_11
    2  A    between atoms: C_6  and  C_18
    3  A    between atoms: C_7  and  C_8
    4  A    between atoms: N_11  and  C_16
    5  A    between atoms: C_12  and  C_20
    6  A    between atoms: C_16  and  N_24
                            x       y       z     vdW  Elec       q    Type
                         _______ _______ _______ _____ _____    ______ ____

>  <TORSDO>
F 6

$$$$
=
 OpenBabel11042411453D

 25 28  0  0  1  0  0  0  0  0999 V2000
  190.6130  176.4950  144.8110 C   0  0  0  0  0  0  0  0  0  0  0  0
  190.7650  176.4740  146.1650 N   0  0  0  0  0  2  0  0  0  0  0  0
  187.4070  177.9170  144.3510 C   0  0  0  0  0  0  0  0  0  0  0  0
  188.6300  177.4450  146.5810 C   0  0  0  0  0  0  0  0  0  0  0  0
  191.6920  175.9810  143.9230 C   0  0  0  0  0  1  0  0  0  0  0  0
  185.3380  178.8220  143.5080 C   0  0  0  0  0  0  0  0  0  0  0  0
  189.0760  177.1250  143.0030 N   0  0  0  0  0  0  0  0  0  0  0  0
  189.8210  176.9250  147.0040 N   0  0  0  0  0  0  0  0  0  0  0  0
  188.4140  177.4940  145.1970 C   0  0  0  0  0  0  0  0  0  0  0  0
  185.7900  178.5750  142.1840 C   0  0  0  0  0  0  0  0  0  0  0  0
  187.8440  177.6790  143.0580 C   0  0  0  0  0  0  0  0  0  0  0  0
  186.1640  178.4890  144.6030 C   0  0  0  0  0  3  0  0  0  0  0  0
  189.4320  177.0070  144.2990 C   0  0  0  0  0  0  0  0  0  0  0  0
  187.0550  178.0030  141.9590 C   0  0  0  0  0  3  0  0  0  0  0  0
  182.9790  178.8300  143.0070 O   0  0  0  0  0  0  0  0  0  0  0  0
  182.3480  178.4140  144.1910 C   0  0  0  0  0  2  0  0  0  0  0  0
  183.9930  179.4640  143.7450 C   0  0  1  0  0  3  0  0  0  0  0  0
  183.4020  179.0410  145.0630 C   0  0  0  0  0  2  0  0  0  0  0  0
  187.6790  177.9060  147.6050 C   0  0  0  0  0  3  0  0  0  0  0  0
  187.7810  177.6060  148.8210 O   0  0  0  0  0  0  0  0  0  0  0  0
  184.9590  178.9460  141.0010 C   0  0  0  0  0  2  0  0  0  0  0  0
  185.7720  178.9110  139.7980 N   0  0  0  0  0  2  0  0  0  0  0  0
  184.8800  178.5870  138.7000 C   0  0  0  0  0  2  0  0  0  0  0  0
  186.7670  178.2470  137.3790 C   0  0  0  0  0  1  0  0  0  0  0  0
  185.5260  177.6360  137.8170 N   0  0  0  0  0  2  0  0  0  0  0  0
  1  2  1  0  0  0  0
  2  8  1  0  0  0  0
  3 12  1  0  0  0  0
  3  9  2  0  0  0  0
  4  8  2  0  0  0  0
  4 19  1  0  0  0  0
  5  1  1  0  0  0  0
  6 12  2  0  0  0  0
  7 11  2  0  0  0  0
  7 13  1  0  0  0  0
  9  4  1  0  0  0  0
 10  6  1  0  0  0  0
 11  3  1  0  0  0  0
 13  1  2  0  0  0  0
 13  9  1  0  0  0  0
 14 10  2  0  0  0  0
 14 11  1  0  0  0  0
 15 17  1  0  0  0  0
 15 16  1  0  0  0  0
 16 18  1  0  0  0  0
 17  6  1  6  0  0  0
 17 18  1  0  0  0  0
 19 20  2  0  0  0  0
 21 10  1  0  0  0  0
 22 21  1  0  0  0  0
 23 22  1  0  0  0  0
 24 25  1  0  0  0  0
 25 23  1  0  0  0  0
M  END
>  <MODEL>
8

>  <REMARK>
 VINA RESULT:      -7.3      2.881      5.543
  Name = 
  6 active torsions:
  status: ('A' for Active; 'I' for Inactive)
    1  A    between atoms: C_6  and  N_11
    2  A    between atoms: C_6  and  C_18
    3  A    between atoms: C_7  and  C_8
    4  A    between atoms: N_11  and  C_16
    5  A    between atoms: C_12  and  C_20
    6  A    between atoms: C_16  and  N_24
                            x       y       z     vdW  Elec       q    Type
                         _______ _______ _______ _____ _____    ______ ____

>  <TORSDO>
F 6

$$$$
=
 OpenBabel11042411453D

 25 28  0  0  1  0  0  0  0  0999 V2000
  186.1440  178.1530  146.2220 C   0  0  0  0  0  0  0  0  0  0  0  0
  184.9430  178.4700  146.7830 N   0  0  0  0  0  2  0  0  0  0  0  0
  185.5720  178.5300  142.7530 C   0  0  0  0  0  0  0  0  0  0  0  0
  183.8960  178.9020  144.6880 C   0  0  0  0  0  0  0  0  0  0  0  0
  187.2980  177.7660  147.0800 C   0  0  0  0  0  1  0  0  0  0  0  0
  185.7070  178.6420  140.3480 C   0  0  0  0  0  0  0  0  0  0  0  0
  187.3340  177.9380  144.0850 N   0  0  0  0  0  0  0  0  0  0  0  0
  183.8760  178.8240  146.0520 N   0  0  0  0  0  0  0  0  0  0  0  0
  185.1050  178.5880  144.0510 C   0  0  0  0  0  0  0  0  0  0  0  0
  187.0680  178.2420  140.4230 C   0  0  0  0  0  0  0  0  0  0  0  0
  186.9000  178.1410  142.8210 C   0  0  0  0  0  0  0  0  0  0  0  0
  184.9550  178.7900  141.5330 C   0  0  0  0  0  3  0  0  0  0  0  0
  186.2490  178.2060  144.8420 C   0  0  0  0  0  0  0  0  0  0  0  0
  187.6690  177.9950  141.6700 C   0  0  0  0  0  3  0  0  0  0  0  0
  184.5040  177.7860  138.4420 O   0  0  0  0  0  0  0  0  0  0  0  0
  183.2210  178.3530  138.5280 C   0  0  0  0  0  2  0  0  0  0  0  0
  185.0740  178.9370  139.0100 C   0  0  1  0  0  3  0  0  0  0  0  0
  183.7390  179.6130  139.1660 C   0  0  0  0  0  2  0  0  0  0  0  0
  182.6570  179.3040  144.0040 C   0  0  0  0  0  3  0  0  0  0  0  0
  181.5890  178.6450  144.0760 O   0  0  0  0  0  0  0  0  0  0  0  0
  187.9050  178.1100  139.1940 C   0  0  0  0  0  2  0  0  0  0  0  0
  189.3090  178.2480  139.5380 N   0  0  0  0  0  2  0  0  0  0  0  0
  190.0050  177.1440  138.9030 C   0  0  0  0  0  2  0  0  0  0  0  0
  191.2250  177.2810  140.8810 C   0  0  0  0  0  1  0  0  0  0  0  0
  191.3400  177.0310  139.4570 N   0  0  0  0  0  2  0  0  0  0  0  0
  1  2  1  0  0  0  0
  1  5  1  0  0  0  0
  3 11  1  0  0  0  0
  3  9  2  0  0  0  0
  4  8  2  0  0  0  0
  6 10  1  0  0  0  0
  6 12  2  0  0  0  0
  7 13  1  0  0  0  0
  8  2  1  0  0  0  0
  9  4  1  0  0  0  0
  9 13  1  0  0  0  0
 10 14  2  0  0  0  0
 11  7  2  0  0  0  0
 12  3  1  0  0  0  0
 13  1  2  0  0  0  0
 14 11  1  0  0  0  0
 15 16  1  0  0  0  0
 15 17  1  0  0  0  0
 16 18  1  0  0  0  0
 17 18  1  0  0  0  0
 17  6  1  1  0  0  0
 19 20  2  0  0  0  0
 19  4  1  0  0  0  0
 21 22  1  0  0  0  0
 21 10  1  0  0  0  0
 23 25  1  0  0  0  0
 23 22  1  0  0  0  0
 25 24  1  0  0  0  0
M  END
>  <MODEL>
9

>  <REMARK>
 VINA RESULT:      -7.2      3.395      5.506
  Name = 
  6 active torsions:
  status: ('A' for Active; 'I' for Inactive)
    1  A    between atoms: C_6  and  N_11
    2  A    between atoms: C_6  and  C_18
    3  A    between atoms: C_7  and  C_8
    4  A    between atoms: N_11  and  C_16
    5  A    between atoms: C_12  and  C_20
    6  A    between atoms: C_16  and  N_24
                            x       y       z     vdW  Elec       q    Type
                         _______ _______ _______ _____ _____    ______ ____

>  <TORSDO>
F 6

$$$$
