=
 OpenBabel11042410203D

 48 53  0  0  1  0  0  0  0  0999 V2000
  186.4700  178.2650  139.2120 C   0  0  0  0  0  2  0  0  0  0  0  0
  187.7520  178.2540  139.8910 N   0  0  0  0  0  0  0  0  0  0  0  0
  184.7340  179.7400  139.9570 O   0  0  0  0  0  0  0  0  0  0  0  0
  186.0640  180.0520  142.1550 F   0  0  0  0  0  0  0  0  0  0  0  0
  185.7280  177.8450  142.5560 F   0  0  0  0  0  0  0  0  0  0  0  0
  186.1980  178.7720  141.6450 C   0  0  0  0  0  0  0  0  0  0  0  0
  185.4940  178.6090  140.3080 C   0  0  2  0  0  0  0  0  0  0  0  0
  184.0100  178.5510  140.1930 C   0  0  2  0  0  3  0  0  0  0  0  0
  187.6610  178.4910  141.3300 C   0  0  0  0  0  2  0  0  0  0  0  0
  192.2900  176.2560  137.2210 O   0  0  0  0  0  1  0  0  0  0  0  0
  190.0200  177.2090  139.9820 C   0  0  0  0  0  0  0  0  0  0  0  0
  191.1900  176.7700  137.8920 C   0  0  0  0  0  0  0  0  0  0  0  0
  191.1220  176.6940  139.2840 C   0  0  0  0  0  3  0  0  0  0  0  0
  188.9520  177.7930  139.2500 C   0  0  0  0  0  0  0  0  0  0  0  0
  190.1560  177.3710  137.1770 C   0  0  0  0  0  3  0  0  0  0  0  0
  189.0450  177.8770  137.8520 C   0  0  0  0  0  3  0  0  0  0  0  0
  190.7100  178.1780  143.5760 C   0  0  0  0  0  3  0  0  0  0  0  0
  190.1710  177.0860  144.2750 C   0  0  0  0  0  0  0  0  0  0  0  0
  189.5280  176.0850  142.1570 C   0  0  0  0  0  3  0  0  0  0  0  0
  190.0560  177.1820  141.4610 C   0  0  0  0  0  0  0  0  0  0  0  0
  189.5800  176.0430  143.5530 C   0  0  0  0  0  3  0  0  0  0  0  0
  190.6600  178.2210  142.1820 C   0  0  0  0  0  3  0  0  0  0  0  0
  190.1720  177.0100  145.6760 O   0  0  0  0  0  0  0  0  0  0  0  0
  187.9240  177.6970  146.0380 N   0  0  0  0  0  0  0  0  0  0  0  0
  186.8930  178.1230  146.8180 C   0  0  0  0  0  0  0  0  0  0  0  0
  189.3930  177.6560  147.9170 C   0  0  0  0  0  3  0  0  0  0  0  0
  187.0910  178.3320  148.1840 C   0  0  0  0  0  3  0  0  0  0  0  0
  189.1670  177.4640  146.5450 C   0  0  0  0  0  0  0  0  0  0  0  0
  188.3500  178.0940  148.7340 C   0  0  0  0  0  3  0  0  0  0  0  0
  185.4900  179.6850  145.7510 F   0  0  0  0  0  0  0  0  0  0  0  0
  184.5670  178.1790  147.1620 F   0  0  0  0  0  0  0  0  0  0  0  0
  185.5550  178.3840  146.2170 C   0  0  0  0  0  3  0  0  0  0  0  0
  183.2560  178.6750  137.9370 O   0  0  0  0  0  0  0  0  0  0  0  0
  183.5090  176.5080  138.7690 N   0  0  0  0  0  2  0  0  0  0  0  0
  183.5770  177.9300  138.9010 C   0  0  0  0  0  0  0  0  0  0  0  0
  182.8770  175.8580  137.6290 C   0  0  2  0  0  3  0  0  0  0  0  0
  179.6100  174.0990  137.1220 C   0  0  0  0  0  0  0  0  0  0  0  0
  181.1120  174.0470  137.3320 C   0  0  0  0  0  2  0  0  0  0  0  0
  178.9310  173.0370  137.9610 C   0  0  0  0  0  1  0  0  0  0  0  0
  181.4890  175.3410  138.0310 C   0  0  2  0  0  3  0  0  0  0  0  0
  180.3870  176.3260  137.7170 C   0  0  0  0  0  2  0  0  0  0  0  0
  179.2900  173.8770  135.6570 C   0  0  0  0  0  1  0  0  0  0  0  0
  179.1430  175.4800  137.5530 C   0  0  0  0  0  2  0  0  0  0  0  0
  186.9560  174.0560  135.2570 C   0  0  0  0  0  1  0  0  0  0  0  0
  184.9690  175.0030  136.4800 C   0  0  0  0  0  0  0  0  0  0  0  0
  185.4050  176.1770  136.3270 O   0  0  0  0  0  0  0  0  0  0  0  0
  183.7320  174.7740  137.1570 N   0  0  0  0  0  2  0  0  0  0  0  0
  185.7080  173.8890  135.9810 N   0  0  0  0  0  2  0  0  0  0  0  0
  1  2  1  0  0  0  0
  2  9  1  0  0  0  0
  3  8  1  0  0  0  0
  3  7  1  0  0  0  0
  6  4  1  0  0  0  0
  6  5  1  0  0  0  0
  7  1  1  6  0  0  0
  7  6  1  0  0  0  0
  8 35  1  6  0  0  0
  8  7  1  0  0  0  0
  9  6  1  0  0  0  0
 10 12  1  0  0  0  0
 11 20  1  0  0  0  0
 12 13  2  0  0  0  0
 13 11  1  0  0  0  0
 14  2  1  0  0  0  0
 14 11  2  0  0  0  0
 15 16  2  0  0  0  0
 15 12  1  0  0  0  0
 16 14  1  0  0  0  0
 17 18  1  0  0  0  0
 18 23  1  0  0  0  0
 19 21  1  0  0  0  0
 20 19  2  0  0  0  0
 20 22  1  0  0  0  0
 21 18  2  0  0  0  0
 22 17  2  0  0  0  0
 23 28  1  0  0  0  0
 24 28  2  0  0  0  0
 24 25  1  0  0  0  0
 25 27  2  0  0  0  0
 26 29  2  0  0  0  0
 27 29  1  0  0  0  0
 28 26  1  0  0  0  0
 30 32  1  0  0  0  0
 32 25  1  0  0  0  0
 32 31  1  0  0  0  0
 33 35  2  0  0  0  0
 34 35  1  0  0  0  0
 36 47  1  1  0  0  0
 36 34  1  0  0  0  0
 37 38  1  0  0  0  0
 37 43  1  0  0  0  0
 37 39  1  0  0  0  0
 38 40  1  0  0  0  0
 40 36  1  6  0  0  0
 41 40  1  0  0  0  0
 42 37  1  0  0  0  0
 43 41  1  0  0  0  0
 44 48  1  0  0  0  0
 45 47  1  0  0  0  0
 46 45  2  0  0  0  0
 48 45  1  0  0  0  0
M  END
>  <MODEL>
1

>  <REMARK>
 VINA RESULT:      -9.5      0.000      0.000
  Name = 
  9 active torsions:
  status: ('A' for Active; 'I' for Inactive)
    1  A    between atoms: O_3  and  C_16
    2  A    between atoms: O_3  and  C_29
    3  A    between atoms: N_7  and  C_38
    4  A    between atoms: C_12  and  C_30
    5  A    between atoms: C_15  and  C_20
    6  A    between atoms: C_26  and  C_46
    7  A    between atoms: C_33  and  N_35
    8  A    between atoms: C_33  and  C_36
    9  A    between atoms: C_33  and  N_44
                            x       y       z     vdW  Elec       q    Type
                         _______ _______ _______ _____ _____    ______ ____

>  <TORSDO>
F 9

$$$$
=
 OpenBabel11042410203D

 48 53  0  0  1  0  0  0  0  0999 V2000
  187.1160  176.5770  138.3970 C   0  0  0  0  0  2  0  0  0  0  0  0
  186.6090  176.1300  137.1140 N   0  0  0  0  0  0  0  0  0  0  0  0
  187.5760  178.9030  138.7560 O   0  0  0  0  0  0  0  0  0  0  0  0
  187.4840  179.2270  136.1900 F   0  0  0  0  0  0  0  0  0  0  0  0
  189.2960  177.8690  136.0530 F   0  0  0  0  0  0  0  0  0  0  0  0
  188.0080  177.9930  136.5390 C   0  0  0  0  0  0  0  0  0  0  0  0
  187.9810  177.7600  138.0410 C   0  0  2  0  0  0  0  0  0  0  0  0
  188.9030  178.4680  138.9710 C   0  0  2  0  0  3  0  0  0  0  0  0
  187.1330  176.8810  135.9750 C   0  0  0  0  0  2  0  0  0  0  0  0
  183.8740  171.2780  136.2800 O   0  0  0  0  0  1  0  0  0  0  0  0
  184.4570  174.8770  136.9090 C   0  0  0  0  0  0  0  0  0  0  0  0
  184.5350  172.4750  136.5140 C   0  0  0  0  0  0  0  0  0  0  0  0
  183.8080  173.6560  136.6700 C   0  0  0  0  0  3  0  0  0  0  0  0
  185.8760  174.9030  136.9670 C   0  0  0  0  0  0  0  0  0  0  0  0
  185.9250  172.4970  136.6030 C   0  0  0  0  0  3  0  0  0  0  0  0
  186.5900  173.7030  136.8260 C   0  0  0  0  0  3  0  0  0  0  0  0
  182.3780  177.9890  136.3410 C   0  0  0  0  0  3  0  0  0  0  0  0
  182.0860  178.3810  137.6570 C   0  0  0  0  0  0  0  0  0  0  0  0
  183.3410  176.4700  138.4750 C   0  0  0  0  0  3  0  0  0  0  0  0
  183.6230  176.0720  137.1600 C   0  0  0  0  0  0  0  0  0  0  0  0
  182.5730  177.6120  138.7190 C   0  0  0  0  0  3  0  0  0  0  0  0
  183.1460  176.8500  136.0960 C   0  0  0  0  0  3  0  0  0  0  0  0
  181.2950  179.5020  137.9540 O   0  0  0  0  0  0  0  0  0  0  0  0
  181.2740  181.8400  137.5210 N   0  0  0  0  0  0  0  0  0  0  0  0
  181.0320  182.9310  136.7430 C   0  0  0  0  0  0  0  0  0  0  0  0
  180.4600  180.3840  135.8160 C   0  0  0  0  0  3  0  0  0  0  0  0
  180.4870  182.7720  135.4670 C   0  0  0  0  0  3  0  0  0  0  0  0
  180.9990  180.5750  137.0980 C   0  0  0  0  0  0  0  0  0  0  0  0
  180.2030  181.4880  135.0030 C   0  0  0  0  0  3  0  0  0  0  0  0
  181.2980  185.2100  136.2150 F   0  0  0  0  0  0  0  0  0  0  0  0
  182.5780  184.3160  137.8490 F   0  0  0  0  0  0  0  0  0  0  0  0
  181.3300  184.2980  137.2540 C   0  0  0  0  0  3  0  0  0  0  0  0
  189.8720  176.8380  140.4120 O   0  0  0  0  0  0  0  0  0  0  0  0
  188.1610  178.1040  141.3740 N   0  0  0  0  0  2  0  0  0  0  0  0
  189.0200  177.7580  140.2840 C   0  0  0  0  0  0  0  0  0  0  0  0
  188.0690  177.2980  142.5830 C   0  0  2  0  0  3  0  0  0  0  0  0
  184.8380  178.8770  143.6280 C   0  0  0  0  0  0  0  0  0  0  0  0
  185.8010  178.4550  142.5340 C   0  0  0  0  0  2  0  0  0  0  0  0
  183.4160  178.5540  143.2220 C   0  0  0  0  0  1  0  0  0  0  0  0
  186.6280  177.3180  143.1100 C   0  0  2  0  0  3  0  0  0  0  0  0
  186.5590  177.4670  144.6130 C   0  0  0  0  0  2  0  0  0  0  0  0
  184.9730  180.3650  143.8830 C   0  0  0  0  0  1  0  0  0  0  0  0
  185.2100  178.1000  144.8810 C   0  0  0  0  0  2  0  0  0  0  0  0
  191.8540  176.7750  145.8870 C   0  0  0  0  0  1  0  0  0  0  0  0
  190.0100  176.9980  144.1860 C   0  0  0  0  0  0  0  0  0  0  0  0
  190.1670  175.8000  143.8240 O   0  0  0  0  0  0  0  0  0  0  0  0
  189.0060  177.8110  143.5770 N   0  0  0  0  0  2  0  0  0  0  0  0
  190.8360  177.5570  145.2070 N   0  0  0  0  0  2  0  0  0  0  0  0
  2  1  1  0  0  0  0
  3  8  1  0  0  0  0
  4  6  1  0  0  0  0
  5  6  1  0  0  0  0
  6  7  1  0  0  0  0
  7  1  1  1  0  0  0
  7  3  1  0  0  0  0
  7  8  1  0  0  0  0
  8 35  1  1  0  0  0
  9  6  1  0  0  0  0
  9  2  1  0  0  0  0
 10 12  1  0  0  0  0
 11 14  1  0  0  0  0
 11 20  1  0  0  0  0
 12 15  2  0  0  0  0
 12 13  1  0  0  0  0
 13 11  2  0  0  0  0
 14  2  1  0  0  0  0
 15 16  1  0  0  0  0
 16 14  2  0  0  0  0
 17 18  1  0  0  0  0
 18 23  1  0  0  0  0
 18 21  2  0  0  0  0
 19 21  1  0  0  0  0
 20 19  2  0  0  0  0
 22 17  2  0  0  0  0
 22 20  1  0  0  0  0
 25 32  1  0  0  0  0
 25 24  1  0  0  0  0
 26 28  1  0  0  0  0
 27 25  2  0  0  0  0
 28 24  2  0  0  0  0
 28 23  1  0  0  0  0
 29 27  1  0  0  0  0
 29 26  2  0  0  0  0
 30 32  1  0  0  0  0
 32 31  1  0  0  0  0
 35 33  2  0  0  0  0
 35 34  1  0  0  0  0
 36 34  1  6  0  0  0
 36 47  1  0  0  0  0
 37 42  1  0  0  0  0
 37 43  1  0  0  0  0
 38 40  1  0  0  0  0
 38 37  1  0  0  0  0
 39 37  1  0  0  0  0
 40 36  1  6  0  0  0
 40 41  1  0  0  0  0
 41 43  1  0  0  0  0
 45 48  1  0  0  0  0
 46 45  2  0  0  0  0
 47 45  1  0  0  0  0
 48 44  1  0  0  0  0
M  END
>  <MODEL>
2

>  <REMARK>
 VINA RESULT:      -9.4      3.671      9.284
  Name = 
  9 active torsions:
  status: ('A' for Active; 'I' for Inactive)
    1  A    between atoms: O_3  and  C_16
    2  A    between atoms: O_3  and  C_29
    3  A    between atoms: N_7  and  C_38
    4  A    between atoms: C_12  and  C_30
    5  A    between atoms: C_15  and  C_20
    6  A    between atoms: C_26  and  C_46
    7  A    between atoms: C_33  and  N_35
    8  A    between atoms: C_33  and  C_36
    9  A    between atoms: C_33  and  N_44
                            x       y       z     vdW  Elec       q    Type
                         _______ _______ _______ _____ _____    ______ ____

>  <TORSDO>
F 9

$$$$
=
 OpenBabel11042410203D

 48 53  0  0  1  0  0  0  0  0999 V2000
  187.7860  176.3890  138.2810 C   0  0  0  0  0  2  0  0  0  0  0  0
  187.7190  175.9370  136.9050 N   0  0  0  0  0  0  0  0  0  0  0  0
  187.2570  178.6640  138.8210 O   0  0  0  0  0  0  0  0  0  0  0  0
  187.4940  179.2230  136.3050 F   0  0  0  0  0  0  0  0  0  0  0  0
  189.6810  178.6470  136.4840 F   0  0  0  0  0  0  0  0  0  0  0  0
  188.3790  178.2360  136.7030 C   0  0  0  0  0  0  0  0  0  0  0  0
  188.1830  177.8380  138.1570 C   0  0  2  0  0  0  0  0  0  0  0  0
  188.5890  178.7230  139.2840 C   0  0  2  0  0  3  0  0  0  0  0  0
  188.1050  176.9530  135.9280 C   0  0  0  0  0  2  0  0  0  0  0  0
  187.1980  170.5600  135.3150 O   0  0  0  0  0  1  0  0  0  0  0  0
  186.2610  173.9840  136.3560 C   0  0  0  0  0  0  0  0  0  0  0  0
  187.3130  171.8770  135.7340 C   0  0  0  0  0  0  0  0  0  0  0  0
  186.1680  172.6500  135.9320 C   0  0  0  0  0  3  0  0  0  0  0  0
  187.5450  174.5530  136.5620 C   0  0  0  0  0  0  0  0  0  0  0  0
  188.5710  172.4270  135.9670 C   0  0  0  0  0  3  0  0  0  0  0  0
  188.6860  173.7560  136.3760 C   0  0  0  0  0  3  0  0  0  0  0  0
  183.4380  176.4950  136.1220 C   0  0  0  0  0  3  0  0  0  0  0  0
  182.6450  176.1370  137.2240 C   0  0  0  0  0  0  0  0  0  0  0  0
  184.2210  174.3650  137.7460 C   0  0  0  0  0  3  0  0  0  0  0  0
  185.0060  174.7150  136.6380 C   0  0  0  0  0  0  0  0  0  0  0  0
  183.0470  175.0670  138.0310 C   0  0  0  0  0  3  0  0  0  0  0  0
  184.6110  175.7960  135.8370 C   0  0  0  0  0  3  0  0  0  0  0  0
  181.4430  176.7910  137.5350 O   0  0  0  0  0  0  0  0  0  0  0  0
  181.3140  179.1260  137.9660 N   0  0  0  0  0  0  0  0  0  0  0  0
  181.1400  180.2070  138.7760 C   0  0  0  0  0  0  0  0  0  0  0  0
  181.0250  177.6370  139.8060 C   0  0  0  0  0  3  0  0  0  0  0  0
  180.9040  180.0240  140.1400 C   0  0  0  0  0  3  0  0  0  0  0  0
  181.2700  177.8510  138.4400 C   0  0  0  0  0  0  0  0  0  0  0  0
  180.8450  178.7300  140.6550 C   0  0  0  0  0  3  0  0  0  0  0  0
  181.0940  181.5450  136.8400 F   0  0  0  0  0  0  0  0  0  0  0  0
  182.4230  182.1660  138.5600 F   0  0  0  0  0  0  0  0  0  0  0  0
  181.2160  181.5850  138.2170 C   0  0  0  0  0  3  0  0  0  0  0  0
  189.6480  177.0910  140.6590 O   0  0  0  0  0  0  0  0  0  0  0  0
  187.8490  178.1970  141.6570 N   0  0  0  0  0  2  0  0  0  0  0  0
  188.7400  177.9590  140.5620 C   0  0  0  0  0  0  0  0  0  0  0  0
  187.7980  177.3300  142.8260 C   0  0  2  0  0  3  0  0  0  0  0  0
  184.6160  178.9150  144.0030 C   0  0  0  0  0  0  0  0  0  0  0  0
  185.5240  178.4750  142.8700 C   0  0  0  0  0  2  0  0  0  0  0  0
  183.1760  178.5770  143.6780 C   0  0  0  0  0  1  0  0  0  0  0  0
  186.3860  177.3550  143.4260 C   0  0  2  0  0  3  0  0  0  0  0  0
  186.3930  177.5350  144.9260 C   0  0  0  0  0  2  0  0  0  0  0  0
  184.7550  180.4090  144.2190 C   0  0  0  0  0  1  0  0  0  0  0  0
  185.0560  178.1670  145.2510 C   0  0  0  0  0  2  0  0  0  0  0  0
  191.8440  176.5950  145.7580 C   0  0  0  0  0  1  0  0  0  0  0  0
  189.8670  176.9320  144.2350 C   0  0  0  0  0  0  0  0  0  0  0  0
  190.0280  175.7850  143.7350 O   0  0  0  0  0  0  0  0  0  0  0  0
  188.7960  177.7690  143.7950 N   0  0  0  0  0  2  0  0  0  0  0  0
  190.7550  177.4080  145.2450 N   0  0  0  0  0  2  0  0  0  0  0  0
  2  1  1  0  0  0  0
  3  8  1  0  0  0  0
  4  6  1  0  0  0  0
  5  6  1  0  0  0  0
  6  7  1  0  0  0  0
  7  1  1  1  0  0  0
  7  3  1  0  0  0  0
  7  8  1  0  0  0  0
  8 35  1  1  0  0  0
  9  6  1  0  0  0  0
  9  2  1  0  0  0  0
 10 12  1  0  0  0  0
 11 14  1  0  0  0  0
 11 20  1  0  0  0  0
 12 13  1  0  0  0  0
 12 15  2  0  0  0  0
 13 11  2  0  0  0  0
 14  2  1  0  0  0  0
 15 16  1  0  0  0  0
 16 14  2  0  0  0  0
 17 18  1  0  0  0  0
 18 23  1  0  0  0  0
 18 21  2  0  0  0  0
 19 21  1  0  0  0  0
 20 19  2  0  0  0  0
 22 17  2  0  0  0  0
 22 20  1  0  0  0  0
 23 28  1  0  0  0  0
 24 28  2  0  0  0  0
 24 25  1  0  0  0  0
 25 27  2  0  0  0  0
 26 29  2  0  0  0  0
 27 29  1  0  0  0  0
 28 26  1  0  0  0  0
 30 32  1  0  0  0  0
 32 31  1  0  0  0  0
 32 25  1  0  0  0  0
 35 33  2  0  0  0  0
 35 34  1  0  0  0  0
 36 34  1  6  0  0  0
 36 47  1  0  0  0  0
 37 42  1  0  0  0  0
 37 43  1  0  0  0  0
 38 40  1  0  0  0  0
 38 37  1  0  0  0  0
 39 37  1  0  0  0  0
 40 36  1  6  0  0  0
 40 41  1  0  0  0  0
 41 43  1  0  0  0  0
 45 48  1  0  0  0  0
 46 45  2  0  0  0  0
 47 45  1  0  0  0  0
 48 44  1  0  0  0  0
M  END
>  <MODEL>
3

>  <REMARK>
 VINA RESULT:      -9.2      3.379      8.425
  Name = 
  9 active torsions:
  status: ('A' for Active; 'I' for Inactive)
    1  A    between atoms: O_3  and  C_16
    2  A    between atoms: O_3  and  C_29
    3  A    between atoms: N_7  and  C_38
    4  A    between atoms: C_12  and  C_30
    5  A    between atoms: C_15  and  C_20
    6  A    between atoms: C_26  and  C_46
    7  A    between atoms: C_33  and  N_35
    8  A    between atoms: C_33  and  C_36
    9  A    between atoms: C_33  and  N_44
                            x       y       z     vdW  Elec       q    Type
                         _______ _______ _______ _____ _____    ______ ____

>  <TORSDO>
F 9

$$$$
=
 OpenBabel11042410203D

 48 53  0  0  1  0  0  0  0  0999 V2000
  186.5170  178.2520  139.2210 C   0  0  0  0  0  2  0  0  0  0  0  0
  187.7990  178.2650  139.8980 N   0  0  0  0  0  0  0  0  0  0  0  0
  184.7790  179.7470  139.9220 O   0  0  0  0  0  0  0  0  0  0  0  0
  186.1120  180.1310  142.1070 F   0  0  0  0  0  0  0  0  0  0  0  0
  185.7800  177.9370  142.5780 F   0  0  0  0  0  0  0  0  0  0  0  0
  186.2470  178.8350  141.6370 C   0  0  0  0  0  0  0  0  0  0  0  0
  185.5410  178.6280  140.3070 C   0  0  2  0  0  0  0  0  0  0  0  0
  184.0580  178.5640  140.1970 C   0  0  2  0  0  3  0  0  0  0  0  0
  187.7110  178.5470  141.3290 C   0  0  0  0  0  2  0  0  0  0  0  0
  192.3360  176.1950  137.2820 O   0  0  0  0  0  1  0  0  0  0  0  0
  190.0600  177.2070  140.0170 C   0  0  0  0  0  0  0  0  0  0  0  0
  191.2370  176.7270  137.9390 C   0  0  0  0  0  0  0  0  0  0  0  0
  191.1620  176.6740  139.3320 C   0  0  0  0  0  3  0  0  0  0  0  0
  189.0000  177.7860  139.2710 C   0  0  0  0  0  0  0  0  0  0  0  0
  190.2100  177.3230  137.2100 C   0  0  0  0  0  3  0  0  0  0  0  0
  189.1000  177.8470  137.8720 C   0  0  0  0  0  3  0  0  0  0  0  0
  190.7660  178.2130  143.5980 C   0  0  0  0  0  3  0  0  0  0  0  0
  190.1900  177.1500  144.3110 C   0  0  0  0  0  0  0  0  0  0  0  0
  189.5240  176.1360  142.2080 C   0  0  0  0  0  3  0  0  0  0  0  0
  190.0890  177.2030  141.4960 C   0  0  0  0  0  0  0  0  0  0  0  0
  189.5690  176.1150  143.6050 C   0  0  0  0  0  3  0  0  0  0  0  0
  190.7230  178.2350  142.2030 C   0  0  0  0  0  3  0  0  0  0  0  0
  190.1820  177.0980  145.7140 O   0  0  0  0  0  0  0  0  0  0  0  0
  187.9300  177.7800  146.0530 N   0  0  0  0  0  0  0  0  0  0  0  0
  186.8930  178.2170  146.8200 C   0  0  0  0  0  0  0  0  0  0  0  0
  189.3910  177.7880  147.9370 C   0  0  0  0  0  3  0  0  0  0  0  0
  187.0850  178.4560  148.1820 C   0  0  0  0  0  3  0  0  0  0  0  0
  189.1710  177.5650  146.5690 C   0  0  0  0  0  0  0  0  0  0  0  0
  188.3430  178.2370  148.7410 C   0  0  0  0  0  3  0  0  0  0  0  0
  185.4810  179.7530  145.7280 F   0  0  0  0  0  0  0  0  0  0  0  0
  184.5650  178.2520  147.1500 F   0  0  0  0  0  0  0  0  0  0  0  0
  185.5560  178.4580  146.2080 C   0  0  0  0  0  3  0  0  0  0  0  0
  184.0380  178.3520  137.8240 O   0  0  0  0  0  0  0  0  0  0  0  0
  182.7330  176.7830  138.9610 N   0  0  0  0  0  2  0  0  0  0  0  0
  183.6240  177.9020  138.9260 C   0  0  0  0  0  0  0  0  0  0  0  0
  182.0980  176.2530  137.7620 C   0  0  2  0  0  3  0  0  0  0  0  0
  180.0320  179.2360  136.8360 C   0  0  0  0  0  0  0  0  0  0  0  0
  180.9740  178.1140  136.4370 C   0  0  0  0  0  2  0  0  0  0  0  0
  178.9320  179.3810  135.8050 C   0  0  0  0  0  1  0  0  0  0  0  0
  180.8010  177.0230  137.4800 C   0  0  2  0  0  3  0  0  0  0  0  0
  180.2470  177.7020  138.7110 C   0  0  0  0  0  2  0  0  0  0  0  0
  180.8030  180.5350  136.9490 C   0  0  0  0  0  1  0  0  0  0  0  0
  179.4350  178.8660  138.1840 C   0  0  0  0  0  2  0  0  0  0  0  0
  181.8130  171.4900  136.1050 C   0  0  0  0  0  1  0  0  0  0  0  0
  182.0260  173.8700  136.8990 C   0  0  0  0  0  0  0  0  0  0  0  0
  182.4950  174.2250  135.7830 O   0  0  0  0  0  0  0  0  0  0  0  0
  181.8410  174.8280  137.9430 N   0  0  0  0  0  2  0  0  0  0  0  0
  181.6780  172.5070  137.1340 N   0  0  0  0  0  2  0  0  0  0  0  0
  1  2  1  0  0  0  0
  2  9  1  0  0  0  0
  3  8  1  0  0  0  0
  3  7  1  0  0  0  0
  6  4  1  0  0  0  0
  6  5  1  0  0  0  0
  7  1  1  6  0  0  0
  7  6  1  0  0  0  0
  8 35  1  6  0  0  0
  8  7  1  0  0  0  0
  9  6  1  0  0  0  0
 10 12  1  0  0  0  0
 11 20  1  0  0  0  0
 12 13  2  0  0  0  0
 13 11  1  0  0  0  0
 14  2  1  0  0  0  0
 14 11  2  0  0  0  0
 15 16  2  0  0  0  0
 15 12  1  0  0  0  0
 16 14  1  0  0  0  0
 17 18  1  0  0  0  0
 18 23  1  0  0  0  0
 19 21  1  0  0  0  0
 20 22  1  0  0  0  0
 20 19  2  0  0  0  0
 21 18  2  0  0  0  0
 22 17  2  0  0  0  0
 23 28  1  0  0  0  0
 24 28  2  0  0  0  0
 24 25  1  0  0  0  0
 25 27  2  0  0  0  0
 26 29  2  0  0  0  0
 27 29  1  0  0  0  0
 28 26  1  0  0  0  0
 30 32  1  0  0  0  0
 32 25  1  0  0  0  0
 32 31  1  0  0  0  0
 33 35  2  0  0  0  0
 35 34  1  0  0  0  0
 36 47  1  1  0  0  0
 36 34  1  0  0  0  0
 37 42  1  0  0  0  0
 37 43  1  0  0  0  0
 38 37  1  0  0  0  0
 38 40  1  0  0  0  0
 39 37  1  0  0  0  0
 40 36  1  1  0  0  0
 40 41  1  0  0  0  0
 43 41  1  0  0  0  0
 44 48  1  0  0  0  0
 45 48  1  0  0  0  0
 45 47  1  0  0  0  0
 46 45  2  0  0  0  0
M  END
>  <MODEL>
4

>  <REMARK>
 VINA RESULT:      -9.0      1.477      2.228
  Name = 
  9 active torsions:
  status: ('A' for Active; 'I' for Inactive)
    1  A    between atoms: O_3  and  C_16
    2  A    between atoms: O_3  and  C_29
    3  A    between atoms: N_7  and  C_38
    4  A    between atoms: C_12  and  C_30
    5  A    between atoms: C_15  and  C_20
    6  A    between atoms: C_26  and  C_46
    7  A    between atoms: C_33  and  N_35
    8  A    between atoms: C_33  and  C_36
    9  A    between atoms: C_33  and  N_44
                            x       y       z     vdW  Elec       q    Type
                         _______ _______ _______ _____ _____    ______ ____

>  <TORSDO>
F 9

$$$$
=
 OpenBabel11042410203D

 48 53  0  0  1  0  0  0  0  0999 V2000
  186.4850  178.2590  139.1850 C   0  0  0  0  0  2  0  0  0  0  0  0
  187.7680  178.2650  139.8620 N   0  0  0  0  0  0  0  0  0  0  0  0
  184.7490  179.7500  139.8990 O   0  0  0  0  0  0  0  0  0  0  0  0
  186.0830  180.1150  142.0860 F   0  0  0  0  0  0  0  0  0  0  0  0
  185.7500  177.9180  142.5410 F   0  0  0  0  0  0  0  0  0  0  0  0
  186.2170  178.8230  141.6060 C   0  0  0  0  0  0  0  0  0  0  0  0
  185.5110  178.6270  140.2750 C   0  0  2  0  0  0  0  0  0  0  0  0
  184.0270  178.5660  140.1650 C   0  0  2  0  0  3  0  0  0  0  0  0
  187.6810  178.5360  141.2950 C   0  0  0  0  0  2  0  0  0  0  0  0
  192.3010  176.2120  137.2260 O   0  0  0  0  0  1  0  0  0  0  0  0
  190.0270  177.2020  139.9700 C   0  0  0  0  0  0  0  0  0  0  0  0
  191.2030  176.7390  137.8880 C   0  0  0  0  0  0  0  0  0  0  0  0
  191.1280  176.6730  139.2800 C   0  0  0  0  0  3  0  0  0  0  0  0
  188.9670  177.7900  139.2300 C   0  0  0  0  0  0  0  0  0  0  0  0
  190.1770  177.3440  137.1650 C   0  0  0  0  0  3  0  0  0  0  0  0
  189.0670  177.8640  137.8320 C   0  0  0  0  0  3  0  0  0  0  0  0
  190.7190  178.1830  143.5610 C   0  0  0  0  0  3  0  0  0  0  0  0
  190.1570  177.1050  144.2640 C   0  0  0  0  0  0  0  0  0  0  0  0
  189.5050  176.1030  142.1510 C   0  0  0  0  0  3  0  0  0  0  0  0
  190.0560  177.1840  141.4490 C   0  0  0  0  0  0  0  0  0  0  0  0
  189.5500  176.0690  143.5470 C   0  0  0  0  0  3  0  0  0  0  0  0
  190.6760  178.2170  142.1660 C   0  0  0  0  0  3  0  0  0  0  0  0
  190.1510  177.0390  145.6660 O   0  0  0  0  0  0  0  0  0  0  0  0
  187.9070  177.7430  146.0180 N   0  0  0  0  0  0  0  0  0  0  0  0
  186.8790  178.1910  146.7910 C   0  0  0  0  0  0  0  0  0  0  0  0
  189.3790  177.7370  147.8940 C   0  0  0  0  0  3  0  0  0  0  0  0
  187.0810  178.4280  148.1520 C   0  0  0  0  0  3  0  0  0  0  0  0
  189.1490  177.5160  146.5270 C   0  0  0  0  0  0  0  0  0  0  0  0
  188.3410  178.1970  148.7040 C   0  0  0  0  0  3  0  0  0  0  0  0
  185.4770  179.7380  145.7020 F   0  0  0  0  0  0  0  0  0  0  0  0
  184.5530  178.2550  147.1370 F   0  0  0  0  0  0  0  0  0  0  0  0
  185.5410  178.4440  146.1880 C   0  0  0  0  0  3  0  0  0  0  0  0
  183.8920  178.4510  137.7890 O   0  0  0  0  0  0  0  0  0  0  0  0
  182.8270  176.7050  138.9180 N   0  0  0  0  0  2  0  0  0  0  0  0
  183.5920  177.9140  138.8890 C   0  0  0  0  0  0  0  0  0  0  0  0
  182.1820  176.1600  137.7320 C   0  0  2  0  0  3  0  0  0  0  0  0
  185.3790  174.3570  136.9900 C   0  0  0  0  0  0  0  0  0  0  0  0
  184.2870  174.7470  137.9680 C   0  0  0  0  0  2  0  0  0  0  0  0
  185.7440  172.8990  137.1720 C   0  0  0  0  0  1  0  0  0  0  0  0
  183.0550  175.0490  137.1330 C   0  0  2  0  0  3  0  0  0  0  0  0
  183.5580  175.3870  135.7480 C   0  0  0  0  0  2  0  0  0  0  0  0
  186.6020  175.2240  137.2170 C   0  0  0  0  0  1  0  0  0  0  0  0
  184.8320  174.5850  135.5900 C   0  0  0  0  0  2  0  0  0  0  0  0
  179.3240  179.7080  135.5510 C   0  0  0  0  0  1  0  0  0  0  0  0
  180.7290  177.9670  136.7080 C   0  0  0  0  0  0  0  0  0  0  0  0
  179.8120  177.7530  137.5480 O   0  0  0  0  0  0  0  0  0  0  0  0
  181.9530  177.2330  136.7710 N   0  0  0  0  0  2  0  0  0  0  0  0
  180.5550  178.9490  135.6880 N   0  0  0  0  0  2  0  0  0  0  0  0
  1  2  1  0  0  0  0
  2  9  1  0  0  0  0
  3  8  1  0  0  0  0
  3  7  1  0  0  0  0
  6  4  1  0  0  0  0
  6  5  1  0  0  0  0
  7  1  1  6  0  0  0
  7  6  1  0  0  0  0
  8 35  1  6  0  0  0
  8  7  1  0  0  0  0
  9  6  1  0  0  0  0
 10 12  1  0  0  0  0
 11 20  1  0  0  0  0
 12 13  2  0  0  0  0
 13 11  1  0  0  0  0
 14  2  1  0  0  0  0
 14 11  2  0  0  0  0
 15 16  2  0  0  0  0
 15 12  1  0  0  0  0
 16 14  1  0  0  0  0
 17 18  1  0  0  0  0
 18 23  1  0  0  0  0
 19 21  1  0  0  0  0
 20 19  2  0  0  0  0
 20 22  1  0  0  0  0
 21 18  2  0  0  0  0
 22 17  2  0  0  0  0
 23 28  1  0  0  0  0
 24 28  2  0  0  0  0
 24 25  1  0  0  0  0
 25 27  2  0  0  0  0
 26 29  2  0  0  0  0
 27 29  1  0  0  0  0
 28 26  1  0  0  0  0
 30 32  1  0  0  0  0
 32 25  1  0  0  0  0
 32 31  1  0  0  0  0
 33 35  2  0  0  0  0
 35 34  1  0  0  0  0
 36 47  1  6  0  0  0
 36 34  1  0  0  0  0
 37 39  1  0  0  0  0
 37 42  1  0  0  0  0
 37 38  1  0  0  0  0
 40 36  1  1  0  0  0
 40 38  1  0  0  0  0
 41 40  1  0  0  0  0
 43 41  1  0  0  0  0
 43 37  1  0  0  0  0
 44 48  1  0  0  0  0
 45 47  1  0  0  0  0
 45 46  2  0  0  0  0
 48 45  1  0  0  0  0
M  END
>  <MODEL>
5

>  <REMARK>
 VINA RESULT:      -8.8      1.565      2.958
  Name = 
  9 active torsions:
  status: ('A' for Active; 'I' for Inactive)
    1  A    between atoms: O_3  and  C_16
    2  A    between atoms: O_3  and  C_29
    3  A    between atoms: N_7  and  C_38
    4  A    between atoms: C_12  and  C_30
    5  A    between atoms: C_15  and  C_20
    6  A    between atoms: C_26  and  C_46
    7  A    between atoms: C_33  and  N_35
    8  A    between atoms: C_33  and  C_36
    9  A    between atoms: C_33  and  N_44
                            x       y       z     vdW  Elec       q    Type
                         _______ _______ _______ _____ _____    ______ ____

>  <TORSDO>
F 9

$$$$
=
 OpenBabel11042410203D

 48 53  0  0  1  0  0  0  0  0999 V2000
  187.6680  176.3780  138.0640 C   0  0  0  0  0  2  0  0  0  0  0  0
  187.5390  175.9730  136.6780 N   0  0  0  0  0  0  0  0  0  0  0  0
  187.2550  178.6560  138.6880 O   0  0  0  0  0  0  0  0  0  0  0  0
  187.4380  179.2830  136.1840 F   0  0  0  0  0  0  0  0  0  0  0  0
  189.6020  178.6080  136.2740 F   0  0  0  0  0  0  0  0  0  0  0  0
  188.2920  178.2460  136.5230 C   0  0  0  0  0  0  0  0  0  0  0  0
  188.1240  177.8130  137.9700 C   0  0  2  0  0  0  0  0  0  0  0  0
  188.6030  178.6440  139.1090 C   0  0  2  0  0  3  0  0  0  0  0  0
  187.9380  177.0010  135.7200 C   0  0  0  0  0  2  0  0  0  0  0  0
  186.4330  170.5870  135.4580 O   0  0  0  0  0  1  0  0  0  0  0  0
  188.3520  173.6910  136.0660 C   0  0  0  0  0  0  0  0  0  0  0  0
  186.7180  171.9170  135.7300 C   0  0  0  0  0  0  0  0  0  0  0  0
  188.0430  172.3500  135.7940 C   0  0  0  0  0  3  0  0  0  0  0  0
  187.2950  174.6080  136.3010 C   0  0  0  0  0  0  0  0  0  0  0  0
  185.6800  172.8250  135.9290 C   0  0  0  0  0  3  0  0  0  0  0  0
  185.9670  174.1600  136.2140 C   0  0  0  0  0  3  0  0  0  0  0  0
  191.9850  174.1570  137.0260 C   0  0  0  0  0  3  0  0  0  0  0  0
  192.4620  174.9410  135.9630 C   0  0  0  0  0  0  0  0  0  0  0  0
  190.2470  174.8930  134.9700 C   0  0  0  0  0  3  0  0  0  0  0  0
  189.7730  174.1010  136.0250 C   0  0  0  0  0  0  0  0  0  0  0  0
  191.5830  175.3020  134.9380 C   0  0  0  0  0  3  0  0  0  0  0  0
  190.6510  173.7480  137.0600 C   0  0  0  0  0  3  0  0  0  0  0  0
  193.8010  175.3520  135.8700 O   0  0  0  0  0  0  0  0  0  0  0  0
  195.1820  174.9570  137.7650 N   0  0  0  0  0  0  0  0  0  0  0  0
  196.2350  174.3750  138.4030 C   0  0  0  0  0  0  0  0  0  0  0  0
  195.7450  173.8540  135.7260 C   0  0  0  0  0  3  0  0  0  0  0  0
  197.0820  173.5100  137.7070 C   0  0  0  0  0  3  0  0  0  0  0  0
  194.9170  174.7270  136.4490 C   0  0  0  0  0  0  0  0  0  0  0  0
  196.8310  173.2490  136.3600 C   0  0  0  0  0  3  0  0  0  0  0  0
  195.6220  175.6400  140.2920 F   0  0  0  0  0  0  0  0  0  0  0  0
  197.8000  175.1120  139.9970 F   0  0  0  0  0  0  0  0  0  0  0  0
  196.4990  174.6710  139.8390 C   0  0  0  0  0  3  0  0  0  0  0  0
  189.5720  176.8720  140.3720 O   0  0  0  0  0  0  0  0  0  0  0  0
  187.9810  178.1390  141.5200 N   0  0  0  0  0  2  0  0  0  0  0  0
  188.7590  177.8350  140.3590 C   0  0  0  0  0  0  0  0  0  0  0  0
  187.9180  177.2520  142.6730 C   0  0  2  0  0  3  0  0  0  0  0  0
  184.8010  178.9420  143.8790 C   0  0  0  0  0  0  0  0  0  0  0  0
  185.6700  178.4470  142.7370 C   0  0  0  0  0  2  0  0  0  0  0  0
  183.3470  178.6250  143.6000 C   0  0  0  0  0  1  0  0  0  0  0  0
  186.5230  177.3260  143.3080 C   0  0  2  0  0  3  0  0  0  0  0  0
  186.5730  177.5540  144.8010 C   0  0  0  0  0  2  0  0  0  0  0  0
  184.9770  180.4390  144.0430 C   0  0  0  0  0  1  0  0  0  0  0  0
  185.2580  178.2240  145.1380 C   0  0  0  0  0  2  0  0  0  0  0  0
  192.0500  176.3140  145.4230 C   0  0  0  0  0  1  0  0  0  0  0  0
  190.0270  176.7540  143.9890 C   0  0  0  0  0  0  0  0  0  0  0  0
  190.1500  175.6300  143.4290 O   0  0  0  0  0  0  0  0  0  0  0  0
  188.9560  177.6280  143.6270 N   0  0  0  0  0  2  0  0  0  0  0  0
  190.9580  177.1670  144.9880 N   0  0  0  0  0  2  0  0  0  0  0  0
  2  1  1  0  0  0  0
  3  8  1  0  0  0  0
  4  6  1  0  0  0  0
  5  6  1  0  0  0  0
  6  7  1  0  0  0  0
  7  1  1  1  0  0  0
  7  3  1  0  0  0  0
  7  8  1  0  0  0  0
  8 35  1  1  0  0  0
  9  6  1  0  0  0  0
  9  2  1  0  0  0  0
 10 12  1  0  0  0  0
 11 14  1  0  0  0  0
 12 13  1  0  0  0  0
 12 15  2  0  0  0  0
 13 11  2  0  0  0  0
 14  2  1  0  0  0  0
 15 16  1  0  0  0  0
 16 14  2  0  0  0  0
 17 22  1  0  0  0  0
 18 17  2  0  0  0  0
 19 20  1  0  0  0  0
 20 11  1  0  0  0  0
 20 22  2  0  0  0  0
 21 19  2  0  0  0  0
 21 18  1  0  0  0  0
 23 18  1  0  0  0  0
 23 28  1  0  0  0  0
 24 25  1  0  0  0  0
 25 32  1  0  0  0  0
 26 29  2  0  0  0  0
 26 28  1  0  0  0  0
 27 25  2  0  0  0  0
 28 24  2  0  0  0  0
 29 27  1  0  0  0  0
 32 31  1  0  0  0  0
 32 30  1  0  0  0  0
 35 33  2  0  0  0  0
 35 34  1  0  0  0  0
 36 34  1  6  0  0  0
 36 47  1  0  0  0  0
 37 42  1  0  0  0  0
 37 43  1  0  0  0  0
 38 40  1  0  0  0  0
 38 37  1  0  0  0  0
 39 37  1  0  0  0  0
 40 36  1  6  0  0  0
 40 41  1  0  0  0  0
 41 43  1  0  0  0  0
 45 48  1  0  0  0  0
 46 45  2  0  0  0  0
 47 45  1  0  0  0  0
 48 44  1  0  0  0  0
M  END
>  <MODEL>
6

>  <REMARK>
 VINA RESULT:      -8.7      4.275      9.075
  Name = 
  9 active torsions:
  status: ('A' for Active; 'I' for Inactive)
    1  A    between atoms: O_3  and  C_16
    2  A    between atoms: O_3  and  C_29
    3  A    between atoms: N_7  and  C_38
    4  A    between atoms: C_12  and  C_30
    5  A    between atoms: C_15  and  C_20
    6  A    between atoms: C_26  and  C_46
    7  A    between atoms: C_33  and  N_35
    8  A    between atoms: C_33  and  C_36
    9  A    between atoms: C_33  and  N_44
                            x       y       z     vdW  Elec       q    Type
                         _______ _______ _______ _____ _____    ______ ____

>  <TORSDO>
F 9

$$$$
=
 OpenBabel11042410203D

 48 53  0  0  1  0  0  0  0  0999 V2000
  181.3310  177.0670  137.2400 C   0  0  0  0  0  2  0  0  0  0  0  0
  180.4290  177.8260  138.0840 N   0  0  0  0  0  0  0  0  0  0  0  0
  180.8690  174.7630  136.7630 O   0  0  0  0  0  0  0  0  0  0  0  0
  179.1880  174.7850  138.7310 F   0  0  0  0  0  0  0  0  0  0  0  0
  180.9510  175.1770  140.1030 F   0  0  0  0  0  0  0  0  0  0  0  0
  180.2800  175.6020  138.9720 C   0  0  0  0  0  0  0  0  0  0  0  0
  181.2260  175.6650  137.7840 C   0  0  2  0  0  0  0  0  0  0  0  0
  182.1030  174.5220  137.4050 C   0  0  2  0  0  3  0  0  0  0  0  0
  179.8190  177.0420  139.1550 C   0  0  0  0  0  2  0  0  0  0  0  0
  180.1630  183.4280  137.5680 O   0  0  0  0  0  1  0  0  0  0  0  0
  181.3240  180.0880  138.6560 C   0  0  0  0  0  0  0  0  0  0  0  0
  180.2230  182.0510  137.7260 C   0  0  0  0  0  0  0  0  0  0  0  0
  181.2450  181.4790  138.4830 C   0  0  0  0  0  3  0  0  0  0  0  0
  180.3560  179.2600  138.0290 C   0  0  0  0  0  0  0  0  0  0  0  0
  179.2550  181.2390  137.1370 C   0  0  0  0  0  3  0  0  0  0  0  0
  179.3240  179.8540  137.2860 C   0  0  0  0  0  3  0  0  0  0  0  0
  184.7020  179.0030  139.9760 C   0  0  0  0  0  3  0  0  0  0  0  0
  184.3620  178.4800  141.2340 C   0  0  0  0  0  0  0  0  0  0  0  0
  182.0360  179.0230  140.8000 C   0  0  0  0  0  3  0  0  0  0  0  0
  182.3770  179.5550  139.5480 C   0  0  0  0  0  0  0  0  0  0  0  0
  183.0230  178.4970  141.6370 C   0  0  0  0  0  3  0  0  0  0  0  0
  183.7170  179.5280  139.1380 C   0  0  0  0  0  3  0  0  0  0  0  0
  185.3200  177.9680  142.1240 O   0  0  0  0  0  0  0  0  0  0  0  0
  186.5340  177.8590  144.1650 N   0  0  0  0  0  0  0  0  0  0  0  0
  186.6870  178.0630  145.5030 C   0  0  0  0  0  0  0  0  0  0  0  0
  184.3370  178.7850  144.2240 C   0  0  0  0  0  3  0  0  0  0  0  0
  185.6520  178.6380  146.2430 C   0  0  0  0  0  3  0  0  0  0  0  0
  185.3910  178.1960  143.5070 C   0  0  0  0  0  0  0  0  0  0  0  0
  184.4710  179.0020  145.5960 C   0  0  0  0  0  3  0  0  0  0  0  0
  187.9990  178.2120  147.4520 F   0  0  0  0  0  0  0  0  0  0  0  0
  189.0380  178.0880  145.4480 F   0  0  0  0  0  0  0  0  0  0  0  0
  187.9480  177.6610  146.1850 C   0  0  0  0  0  3  0  0  0  0  0  0
  183.1750  174.7880  135.2950 O   0  0  0  0  0  0  0  0  0  0  0  0
  184.4080  175.5530  137.1250 N   0  0  0  0  0  2  0  0  0  0  0  0
  183.2440  174.9610  136.5410 C   0  0  0  0  0  0  0  0  0  0  0  0
  185.6320  175.7810  136.3690 C   0  0  2  0  0  3  0  0  0  0  0  0
  188.1130  172.9900  136.0820 C   0  0  0  0  0  0  0  0  0  0  0  0
  187.0460  173.7240  136.8740 C   0  0  0  0  0  2  0  0  0  0  0  0
  187.9210  171.4940  136.2160 C   0  0  0  0  0  1  0  0  0  0  0  0
  186.1790  174.4420  135.8550 C   0  0  2  0  0  3  0  0  0  0  0  0
  187.0280  174.5980  134.6140 C   0  0  0  0  0  2  0  0  0  0  0  0
  189.4860  173.3780  136.5930 C   0  0  0  0  0  1  0  0  0  0  0  0
  187.9610  173.4060  134.6280 C   0  0  0  0  0  2  0  0  0  0  0  0
  189.0560  179.3770  137.2940 C   0  0  0  0  0  1  0  0  0  0  0  0
  187.2990  177.6390  136.8080 C   0  0  0  0  0  0  0  0  0  0  0  0
  187.0370  178.1810  135.6990 O   0  0  0  0  0  0  0  0  0  0  0  0
  186.6030  176.4610  137.2180 N   0  0  0  0  0  2  0  0  0  0  0  0
  188.2920  178.1990  137.6660 N   0  0  0  0  0  2  0  0  0  0  0  0
  1  2  1  0  0  0  0
  2  9  1  0  0  0  0
  3  8  1  0  0  0  0
  3  7  1  0  0  0  0
  4  6  1  0  0  0  0
  6  9  1  0  0  0  0
  6  5  1  0  0  0  0
  7  1  1  6  0  0  0
  7  6  1  0  0  0  0
  8 35  1  6  0  0  0
  8  7  1  0  0  0  0
 10 12  1  0  0  0  0
 11 20  1  0  0  0  0
 12 13  2  0  0  0  0
 13 11  1  0  0  0  0
 14  2  1  0  0  0  0
 14 11  2  0  0  0  0
 15 16  2  0  0  0  0
 15 12  1  0  0  0  0
 16 14  1  0  0  0  0
 17 18  1  0  0  0  0
 18 21  2  0  0  0  0
 18 23  1  0  0  0  0
 19 21  1  0  0  0  0
 20 19  2  0  0  0  0
 22 20  1  0  0  0  0
 22 17  2  0  0  0  0
 23 28  1  0  0  0  0
 24 25  1  0  0  0  0
 25 32  1  0  0  0  0
 25 27  2  0  0  0  0
 26 29  2  0  0  0  0
 28 24  2  0  0  0  0
 28 26  1  0  0  0  0
 29 27  1  0  0  0  0
 31 32  1  0  0  0  0
 32 30  1  0  0  0  0
 33 35  2  0  0  0  0
 35 34  1  0  0  0  0
 36 34  1  1  0  0  0
 36 47  1  0  0  0  0
 37 39  1  0  0  0  0
 37 42  1  0  0  0  0
 37 38  1  0  0  0  0
 40 36  1  1  0  0  0
 40 38  1  0  0  0  0
 41 43  1  0  0  0  0
 41 40  1  0  0  0  0
 43 37  1  0  0  0  0
 44 48  1  0  0  0  0
 45 47  1  0  0  0  0
 45 48  1  0  0  0  0
 46 45  2  0  0  0  0
M  END
>  <MODEL>
7

>  <REMARK>
 VINA RESULT:      -8.6      2.994      7.146
  Name = 
  9 active torsions:
  status: ('A' for Active; 'I' for Inactive)
    1  A    between atoms: O_3  and  C_16
    2  A    between atoms: O_3  and  C_29
    3  A    between atoms: N_7  and  C_38
    4  A    between atoms: C_12  and  C_30
    5  A    between atoms: C_15  and  C_20
    6  A    between atoms: C_26  and  C_46
    7  A    between atoms: C_33  and  N_35
    8  A    between atoms: C_33  and  C_36
    9  A    between atoms: C_33  and  N_44
                            x       y       z     vdW  Elec       q    Type
                         _______ _______ _______ _____ _____    ______ ____

>  <TORSDO>
F 9

$$$$
=
 OpenBabel11042410203D

 48 53  0  0  1  0  0  0  0  0999 V2000
  186.6490  176.7200  137.7240 C   0  0  0  0  0  2  0  0  0  0  0  0
  186.0090  176.0120  136.6320 N   0  0  0  0  0  0  0  0  0  0  0  0
  187.3320  179.0000  137.4350 O   0  0  0  0  0  0  0  0  0  0  0  0
  187.0710  178.6610  134.8820 F   0  0  0  0  0  0  0  0  0  0  0  0
  188.7450  177.1350  135.0140 F   0  0  0  0  0  0  0  0  0  0  0  0
  187.5130  177.5120  135.5160 C   0  0  0  0  0  0  0  0  0  0  0  0
  187.5810  177.6770  137.0250 C   0  0  2  0  0  0  0  0  0  0  0  0
  188.6290  178.5020  137.6880 C   0  0  2  0  0  3  0  0  0  0  0  0
  186.5060  176.3880  135.3110 C   0  0  0  0  0  2  0  0  0  0  0  0
  182.7700  171.4430  137.2190 O   0  0  0  0  0  1  0  0  0  0  0  0
  183.7740  175.0010  137.1090 C   0  0  0  0  0  0  0  0  0  0  0  0
  183.5630  172.5750  137.1050 C   0  0  0  0  0  0  0  0  0  0  0  0
  182.9910  173.8430  137.2200 C   0  0  0  0  0  3  0  0  0  0  0  0
  185.1640  174.8710  136.8520 C   0  0  0  0  0  0  0  0  0  0  0  0
  184.9320  172.4480  136.8850 C   0  0  0  0  0  3  0  0  0  0  0  0
  185.7260  173.5880  136.7570 C   0  0  0  0  0  3  0  0  0  0  0  0
  181.9810  178.2770  136.4840 C   0  0  0  0  0  3  0  0  0  0  0  0
  181.9350  178.8270  137.7750 C   0  0  0  0  0  0  0  0  0  0  0  0
  183.0850  176.8640  138.6230 C   0  0  0  0  0  3  0  0  0  0  0  0
  183.1210  176.3090  137.3360 C   0  0  0  0  0  0  0  0  0  0  0  0
  182.4900  178.1100  138.8400 C   0  0  0  0  0  3  0  0  0  0  0  0
  182.5760  177.0330  136.2660 C   0  0  0  0  0  3  0  0  0  0  0  0
  181.3220  180.0600  138.0500 O   0  0  0  0  0  0  0  0  0  0  0  0
  181.1780  182.3790  137.5460 N   0  0  0  0  0  0  0  0  0  0  0  0
  180.9480  183.4320  136.7120 C   0  0  0  0  0  0  0  0  0  0  0  0
  180.6840  180.8280  135.8030 C   0  0  0  0  0  3  0  0  0  0  0  0
  180.5730  183.2030  135.3870 C   0  0  0  0  0  3  0  0  0  0  0  0
  181.0510  181.0880  137.1330 C   0  0  0  0  0  0  0  0  0  0  0  0
  180.4430  181.8910  134.9320 C   0  0  0  0  0  3  0  0  0  0  0  0
  182.3160  185.0040  137.8080 F   0  0  0  0  0  0  0  0  0  0  0  0
  180.0800  185.0950  138.1310 F   0  0  0  0  0  0  0  0  0  0  0  0
  181.0800  184.8280  137.2130 C   0  0  0  0  0  3  0  0  0  0  0  0
  189.3130  177.0420  139.4410 O   0  0  0  0  0  0  0  0  0  0  0  0
  188.3230  179.0340  140.1530 N   0  0  0  0  0  2  0  0  0  0  0  0
  188.7850  178.1440  139.1330 C   0  0  0  0  0  0  0  0  0  0  0  0
  188.2340  178.6410  141.5530 C   0  0  2  0  0  3  0  0  0  0  0  0
  190.3660  176.5390  143.8020 C   0  0  0  0  0  0  0  0  0  0  0  0
  189.1060  176.7180  142.9760 C   0  0  0  0  0  2  0  0  0  0  0  0
  190.9290  175.1480  143.5970 C   0  0  0  0  0  1  0  0  0  0  0  0
  189.4350  177.7570  141.9180 C   0  0  2  0  0  3  0  0  0  0  0  0
  190.6010  178.5520  142.4580 C   0  0  0  0  0  2  0  0  0  0  0  0
  190.0520  176.7530  145.2690 C   0  0  0  0  0  1  0  0  0  0  0  0
  191.3680  177.5800  143.3280 C   0  0  0  0  0  2  0  0  0  0  0  0
  183.2730  178.5170  142.4930 C   0  0  0  0  0  1  0  0  0  0  0  0
  185.7330  178.6300  141.9670 C   0  0  0  0  0  0  0  0  0  0  0  0
  185.6780  179.8870  141.8710 O   0  0  0  0  0  0  0  0  0  0  0  0
  186.9730  177.9450  141.7790 N   0  0  0  0  0  2  0  0  0  0  0  0
  184.5570  177.8780  142.2610 N   0  0  0  0  0  2  0  0  0  0  0  0
  2 14  1  0  0  0  0
  2  1  1  0  0  0  0
  3  8  1  0  0  0  0
  4  6  1  0  0  0  0
  5  6  1  0  0  0  0
  6  7  1  0  0  0  0
  7  3  1  0  0  0  0
  7  8  1  0  0  0  0
  7  1  1  1  0  0  0
  8 35  1  1  0  0  0
  9  6  1  0  0  0  0
  9  2  1  0  0  0  0
 11 13  1  0  0  0  0
 11 20  1  0  0  0  0
 12 10  1  0  0  0  0
 12 13  2  0  0  0  0
 14 11  2  0  0  0  0
 15 12  1  0  0  0  0
 16 14  1  0  0  0  0
 16 15  2  0  0  0  0
 17 18  1  0  0  0  0
 18 23  1  0  0  0  0
 18 21  2  0  0  0  0
 19 21  1  0  0  0  0
 20 19  2  0  0  0  0
 22 17  2  0  0  0  0
 22 20  1  0  0  0  0
 25 32  1  0  0  0  0
 25 24  1  0  0  0  0
 26 28  1  0  0  0  0
 27 25  2  0  0  0  0
 28 24  2  0  0  0  0
 28 23  1  0  0  0  0
 29 27  1  0  0  0  0
 29 26  2  0  0  0  0
 32 30  1  0  0  0  0
 32 31  1  0  0  0  0
 35 33  2  0  0  0  0
 35 34  1  0  0  0  0
 36 34  1  6  0  0  0
 36 47  1  0  0  0  0
 37 42  1  0  0  0  0
 38 37  1  0  0  0  0
 39 37  1  0  0  0  0
 40 36  1  1  0  0  0
 40 41  1  0  0  0  0
 40 38  1  0  0  0  0
 41 43  1  0  0  0  0
 43 37  1  0  0  0  0
 45 48  1  0  0  0  0
 46 45  2  0  0  0  0
 47 45  1  0  0  0  0
 48 44  1  0  0  0  0
M  END
>  <MODEL>
8

>  <REMARK>
 VINA RESULT:      -8.4      3.818      9.674
  Name = 
  9 active torsions:
  status: ('A' for Active; 'I' for Inactive)
    1  A    between atoms: O_3  and  C_16
    2  A    between atoms: O_3  and  C_29
    3  A    between atoms: N_7  and  C_38
    4  A    between atoms: C_12  and  C_30
    5  A    between atoms: C_15  and  C_20
    6  A    between atoms: C_26  and  C_46
    7  A    between atoms: C_33  and  N_35
    8  A    between atoms: C_33  and  C_36
    9  A    between atoms: C_33  and  N_44
                            x       y       z     vdW  Elec       q    Type
                         _______ _______ _______ _____ _____    ______ ____

>  <TORSDO>
F 9

$$$$
=
 OpenBabel11042410203D

 48 53  0  0  1  0  0  0  0  0999 V2000
  186.8810  176.4940  137.8590 C   0  0  0  0  0  2  0  0  0  0  0  0
  186.3390  175.8940  136.6550 N   0  0  0  0  0  0  0  0  0  0  0  0
  187.3450  178.8460  137.9200 O   0  0  0  0  0  0  0  0  0  0  0  0
  187.1780  178.8560  135.3380 F   0  0  0  0  0  0  0  0  0  0  0  0
  188.9890  177.4900  135.3140 F   0  0  0  0  0  0  0  0  0  0  0  0
  187.7160  177.6730  135.8180 C   0  0  0  0  0  0  0  0  0  0  0  0
  187.7320  177.6240  137.3380 C   0  0  2  0  0  0  0  0  0  0  0  0
  188.6780  178.4400  138.1480 C   0  0  2  0  0  3  0  0  0  0  0  0
  186.8280  176.5010  135.4200 C   0  0  0  0  0  2  0  0  0  0  0  0
  183.5910  170.9820  136.4930 O   0  0  0  0  0  1  0  0  0  0  0  0
  184.1860  174.6280  136.6880 C   0  0  0  0  0  0  0  0  0  0  0  0
  184.2570  172.1960  136.5610 C   0  0  0  0  0  0  0  0  0  0  0  0
  183.5320  173.3880  136.6160 C   0  0  0  0  0  3  0  0  0  0  0  0
  185.6050  174.6600  136.6800 C   0  0  0  0  0  0  0  0  0  0  0  0
  185.6490  172.2280  136.5860 C   0  0  0  0  0  3  0  0  0  0  0  0
  186.3180  173.4510  136.6430 C   0  0  0  0  0  3  0  0  0  0  0  0
  182.2370  177.7700  135.8740 C   0  0  0  0  0  3  0  0  0  0  0  0
  181.8320  178.1930  137.1500 C   0  0  0  0  0  0  0  0  0  0  0  0
  182.9640  176.2730  138.1140 C   0  0  0  0  0  3  0  0  0  0  0  0
  183.3580  175.8440  136.8390 C   0  0  0  0  0  0  0  0  0  0  0  0
  182.2010  177.4350  138.2650 C   0  0  0  0  0  3  0  0  0  0  0  0
  183.0000  176.6110  135.7210 C   0  0  0  0  0  3  0  0  0  0  0  0
  181.0410  179.3350  137.3520 O   0  0  0  0  0  0  0  0  0  0  0  0
  180.9850  179.2190  139.7260 N   0  0  0  0  0  0  0  0  0  0  0  0
  180.5850  179.6470  140.9560 C   0  0  0  0  0  0  0  0  0  0  0  0
  179.7150  180.9360  138.6640 C   0  0  0  0  0  3  0  0  0  0  0  0
  179.7270  180.7420  141.0700 C   0  0  0  0  0  3  0  0  0  0  0  0
  180.5710  179.8260  138.5800 C   0  0  0  0  0  0  0  0  0  0  0  0
  179.2920  181.3900  139.9140 C   0  0  0  0  0  3  0  0  0  0  0  0
  181.2800  179.8520  143.1970 F   0  0  0  0  0  0  0  0  0  0  0  0
  182.2100  178.2400  141.9130 F   0  0  0  0  0  0  0  0  0  0  0  0
  181.0480  178.9400  142.1830 C   0  0  0  0  0  3  0  0  0  0  0  0
  189.6260  176.9330  139.7310 O   0  0  0  0  0  0  0  0  0  0  0  0
  188.0800  178.4420  140.6180 N   0  0  0  0  0  2  0  0  0  0  0  0
  188.8350  177.8940  139.5330 C   0  0  0  0  0  0  0  0  0  0  0  0
  188.0150  177.8060  141.9260 C   0  0  2  0  0  3  0  0  0  0  0  0
  185.8490  178.2980  144.9410 C   0  0  0  0  0  0  0  0  0  0  0  0
  187.2150  178.3500  144.2810 C   0  0  0  0  0  2  0  0  0  0  0  0
  185.6450  179.5230  145.8080 C   0  0  0  0  0  1  0  0  0  0  0  0
  186.9620  178.5100  142.7920 C   0  0  2  0  0  3  0  0  0  0  0  0
  185.5640  177.9940  142.5450 C   0  0  0  0  0  2  0  0  0  0  0  0
  185.7370  177.0460  145.7880 C   0  0  0  0  0  1  0  0  0  0  0  0
  184.8130  178.2700  143.8300 C   0  0  0  0  0  2  0  0  0  0  0  0
  191.9070  175.7060  144.3670 C   0  0  0  0  0  1  0  0  0  0  0  0
  189.9690  176.6940  143.0980 C   0  0  0  0  0  0  0  0  0  0  0  0
  189.4270  175.5590  142.9950 O   0  0  0  0  0  0  0  0  0  0  0  0
  189.3330  177.8500  142.5500 N   0  0  0  0  0  2  0  0  0  0  0  0
  191.2240  176.8370  143.7610 N   0  0  0  0  0  2  0  0  0  0  0  0
  2 14  1  0  0  0  0
  2  1  1  0  0  0  0
  3  8  1  0  0  0  0
  4  6  1  0  0  0  0
  5  6  1  0  0  0  0
  6  7  1  0  0  0  0
  7  1  1  1  0  0  0
  7  3  1  0  0  0  0
  7  8  1  0  0  0  0
  8 35  1  1  0  0  0
  9  6  1  0  0  0  0
  9  2  1  0  0  0  0
 10 12  1  0  0  0  0
 11 20  1  0  0  0  0
 12 15  2  0  0  0  0
 12 13  1  0  0  0  0
 13 11  2  0  0  0  0
 14 11  1  0  0  0  0
 15 16  1  0  0  0  0
 16 14  2  0  0  0  0
 17 18  1  0  0  0  0
 18 23  1  0  0  0  0
 18 21  2  0  0  0  0
 19 21  1  0  0  0  0
 20 19  2  0  0  0  0
 22 17  2  0  0  0  0
 22 20  1  0  0  0  0
 23 28  1  0  0  0  0
 24 25  1  0  0  0  0
 25 27  2  0  0  0  0
 25 32  1  0  0  0  0
 26 29  2  0  0  0  0
 28 26  1  0  0  0  0
 28 24  2  0  0  0  0
 29 27  1  0  0  0  0
 31 32  1  0  0  0  0
 32 30  1  0  0  0  0
 35 33  2  0  0  0  0
 35 34  1  0  0  0  0
 36 34  1  6  0  0  0
 36 47  1  0  0  0  0
 37 42  1  0  0  0  0
 37 39  1  0  0  0  0
 38 37  1  0  0  0  0
 40 36  1  6  0  0  0
 40 38  1  0  0  0  0
 41 40  1  0  0  0  0
 41 43  1  0  0  0  0
 43 37  1  0  0  0  0
 45 48  1  0  0  0  0
 46 45  2  0  0  0  0
 47 45  1  0  0  0  0
 48 44  1  0  0  0  0
M  END
>  <MODEL>
9

>  <REMARK>
 VINA RESULT:      -8.0      3.147      8.606
  Name = 
  9 active torsions:
  status: ('A' for Active; 'I' for Inactive)
    1  A    between atoms: O_3  and  C_16
    2  A    between atoms: O_3  and  C_29
    3  A    between atoms: N_7  and  C_38
    4  A    between atoms: C_12  and  C_30
    5  A    between atoms: C_15  and  C_20
    6  A    between atoms: C_26  and  C_46
    7  A    between atoms: C_33  and  N_35
    8  A    between atoms: C_33  and  C_36
    9  A    between atoms: C_33  and  N_44
                            x       y       z     vdW  Elec       q    Type
                         _______ _______ _______ _____ _____    ______ ____

>  <TORSDO>
F 9

$$$$
