=
 OpenBabel11042410133D

 65 71  0  0  1  0  0  0  0  0999 V2000
  191.5220  177.0250  138.9070 C   0  0  0  0  0  3  0  0  0  0  0  0
  189.5920  175.9150  138.1050 C   0  0  0  0  0  0  0  0  0  0  0  0
  191.7000  174.8590  137.5040 C   0  0  0  0  0  0  0  0  0  0  0  0
  193.0870  174.8560  137.5310 O   0  0  0  0  0  1  0  0  0  0  0  0
  189.0330  177.0730  138.8530 C   0  0  1  0  0  3  0  0  0  0  0  0
  190.9690  175.8890  138.1370 C   0  0  0  0  0  0  0  0  0  0  0  0
  189.6040  173.8730  136.8460 C   0  0  0  0  0  0  0  0  0  0  0  0
  187.4570  173.5910  136.6350 C   0  0  0  0  0  0  0  0  0  0  0  0
  187.6280  174.7050  137.3260 O   0  0  0  0  0  0  0  0  0  0  0  0
  191.0030  173.8250  136.8420 C   0  0  0  0  0  3  0  0  0  0  0  0
  188.6860  173.0080  136.2940 C   0  0  0  0  0  3  0  0  0  0  0  0
  188.9150  174.8840  137.4590 C   0  0  0  0  0  0  0  0  0  0  0  0
  190.2810  177.7430  139.4600 C   0  0  0  0  0  3  0  0  0  0  0  0
  186.0980  173.0750  136.2500 C   0  0  2  0  0  3  0  0  0  0  0  0
  186.2290  171.7850  135.4560 C   0  0  0  0  0  1  0  0  0  0  0  0
  185.2840  174.0860  135.4480 C   0  0  0  0  0  2  0  0  0  0  0  0
  182.9260  173.8210  136.2670 C   0  0  0  0  0  0  0  0  0  0  0  0
  184.1520  174.5670  136.2450 N   0  0  0  0  0  0  0  0  0  0  0  0
  181.8680  174.2130  137.1460 N   0  0  0  0  0  2  0  0  0  0  0  0
  182.7780  172.8190  135.5130 O   0  0  0  0  0  0  0  0  0  0  0  0
  180.6520  175.9980  139.3290 C   0  0  0  0  0  2  0  0  0  0  0  0
  179.6440  174.1310  138.2670 C   0  0  0  0  0  2  0  0  0  0  0  0
  180.6550  177.5130  139.5950 C   0  0  1  0  0  3  0  0  0  0  0  0
  179.6020  177.8450  137.3000 C   0  0  1  0  0  3  0  0  0  0  0  0
  180.5710  173.5440  137.1880 C   0  0  1  0  0  3  0  0  0  0  0  0
  179.6060  175.6020  138.3820 N   0  0  2  0  0  0  0  0  0  0  0  0
  179.7400  174.8580  135.1430 C   0  0  0  0  0  2  0  0  0  0  0  0
  179.8130  176.3370  137.1180 C   0  0  1  0  0  3  0  0  0  0  0  0
  179.8920  173.4940  135.8140 C   0  0  0  0  0  2  0  0  0  0  0  0
  178.9310  175.8240  135.9920 C   0  0  0  0  0  2  0  0  0  0  0  0
  179.7310  179.6380  138.9150 O   0  0  0  0  0  1  0  0  0  0  0  0
  179.5820  178.2550  138.7840 C   0  0  2  0  0  3  0  0  0  0  0  0
  180.6060  178.5320  136.6100 O   0  0  0  0  0  1  0  0  0  0  0  0
  180.5030  177.7800  141.0590 C   0  0  0  0  0  0  0  0  0  0  0  0
  181.2230  179.0300  143.1270 C   0  0  0  0  0  1  0  0  0  0  0  0
  181.3320  178.7510  141.7040 N   0  0  0  0  0  2  0  0  0  0  0  0
  179.6600  177.1170  141.7220 O   0  0  0  0  0  0  0  0  0  0  0  0
  183.9460  176.9620  136.5640 C   0  0  0  0  0  2  0  0  0  0  0  0
  184.2550  175.7610  137.0380 C   0  0  0  0  0  3  0  0  0  0  0  0
  188.9090  179.3020  137.9500 O   0  0  0  0  0  1  0  0  0  0  0  0
  188.2650  178.0640  137.9650 C   0  0  2  0  0  3  0  0  0  0  0  0
  186.8020  178.2300  138.3700 C   0  0  0  0  0  2  0  0  0  0  0  0
  186.6590  178.2520  139.8840 C   0  0  0  0  0  2  0  0  0  0  0  0
  185.1950  178.3600  140.3170 C   0  0  0  0  0  2  0  0  0  0  0  0
  184.9890  178.9690  141.7050 C   0  0  2  0  0  3  0  0  0  0  0  0
  186.1400  179.8830  142.0870 C   0  0  0  0  0  1  0  0  0  0  0  0
  184.7970  177.9390  142.7150 N   0  0  0  0  0  2  0  0  0  0  0  0
  187.9680  177.8510  147.3140 C   0  0  0  0  0  1  0  0  0  0  0  0
  183.7140  177.9430  145.1580 F   0  0  0  0  0  0  0  0  0  0  0  0
  185.6970  178.2340  143.8200 C   0  0  2  0  0  3  0  0  0  0  0  0
  186.5200  177.1230  144.0870 O   0  0  0  0  0  0  0  0  0  0  0  0
  184.9130  178.6310  145.0790 C   0  0  2  0  0  3  0  0  0  0  0  0
  185.7220  178.3520  146.3480 C   0  0  1  0  0  3  0  0  0  0  0  0
  187.2350  178.3820  146.0980 C   0  0  2  0  0  3  0  0  0  0  0  0
  185.3770  179.2770  147.3340 O   0  0  0  0  0  1  0  0  0  0  0  0
  187.6380  177.5680  144.8440 C   0  0  2  0  0  3  0  0  0  0  0  0
  191.8460  176.8510  143.1120 C   0  0  0  0  0  1  0  0  0  0  0  0
  190.4620  177.6820  145.6350 C   0  0  0  0  0  2  0  0  0  0  0  0
  189.8230  178.7340  144.7120 C   0  0  0  0  0  2  0  0  0  0  0  0
  191.0920  174.5490  143.4780 C   0  0  0  0  0  1  0  0  0  0  0  0
  190.4490  176.2290  145.1430 C   0  0  0  0  0  2  0  0  0  0  0  0
  188.6000  178.3200  144.0110 N   0  0  1  0  0  0  0  0  0  0  0  0
  190.7000  176.0020  143.6510 C   0  0  0  0  0  0  0  0  0  0  0  0
  189.4060  176.2160  142.8670 C   0  0  0  0  0  2  0  0  0  0  0  0
  188.9610  177.6780  142.7390 C   0  0  0  0  0  2  0  0  0  0  0  0
  1 13  2  0  0  0  0
  2  6  1  0  0  0  0
  2  5  1  0  0  0  0
  3  4  1  0  0  0  0
  3  6  2  0  0  0  0
  5 41  1  6  0  0  0
  5 13  1  0  0  0  0
  6  1  1  0  0  0  0
  7 12  1  0  0  0  0
  8  9  1  0  0  0  0
  9 12  1  0  0  0  0
 10  7  2  0  0  0  0
 10  3  1  0  0  0  0
 11  8  2  0  0  0  0
 11  7  1  0  0  0  0
 12  2  2  0  0  0  0
 14 15  1  6  0  0  0
 14  8  1  0  0  0  0
 16 18  1  0  0  0  0
 16 14  1  0  0  0  0
 17 19  1  0  0  0  0
 18 17  1  0  0  0  0
 18 39  1  0  0  0  0
 20 17  2  0  0  0  0
 21 23  1  0  0  0  0
 23 34  1  1  0  0  0
 24 33  1  6  0  0  0
 24 32  1  0  0  0  0
 25 19  1  6  0  0  0
 25 22  1  0  0  0  0
 26 22  1  6  0  0  0
 26 21  1  0  0  0  0
 27 29  1  0  0  0  0
 27 30  1  0  0  0  0
 28 30  1  6  0  0  0
 28 24  1  0  0  0  0
 28 26  1  0  0  0  0
 29 25  1  0  0  0  0
 32 31  1  6  0  0  0
 32 23  1  0  0  0  0
 34 36  1  0  0  0  0
 34 37  2  0  0  0  0
 36 35  1  0  0  0  0
 38 39  2  0  0  0  0
 41 40  1  1  0  0  0
 41 42  1  0  0  0  0
 42 43  1  0  0  0  0
 43 44  1  0  0  0  0
 44 45  1  0  0  0  0
 45 46  1  1  0  0  0
 45 47  1  0  0  0  0
 50 47  1  6  0  0  0
 50 51  1  0  0  0  0
 50 52  1  0  0  0  0
 52 49  1  1  0  0  0
 52 53  1  0  0  0  0
 53 55  1  1  0  0  0
 54 53  1  0  0  0  0
 54 48  1  1  0  0  0
 56 51  1  6  0  0  0
 56 54  1  0  0  0  0
 57 63  1  0  0  0  0
 59 58  1  0  0  0  0
 60 63  1  0  0  0  0
 61 58  1  0  0  0  0
 62 65  1  6  0  0  0
 62 59  1  0  0  0  0
 62 56  1  0  0  0  0
 63 61  1  0  0  0  0
 64 63  1  0  0  0  0
 65 64  1  0  0  0  0
M  END
>  <MODEL>
1

>  <REMARK>
 VINA RESULT:      -8.2      0.000      0.000
  Name = 
  14 active torsions:
  status: ('A' for Active; 'I' for Inactive)
    1  A    between atoms: C_3  and  C_17
    2  A    between atoms: N_11  and  C_24
    3  A    between atoms: N_11  and  C_50
    4  A    between atoms: N_13  and  C_43
    5  A    between atoms: N_19  and  C_65
    6  A    between atoms: C_23  and  C_31
    7  A    between atoms: C_23  and  C_36
    8  A    between atoms: C_24  and  C_25
    9  A    between atoms: C_25  and  C_42
   10  A    between atoms: C_28  and  N_45
   11  A    between atoms: C_29  and  C_35
   12  A    between atoms: C_29  and  C_36
   13  A    between atoms: C_31  and  C_32
   14  A    between atoms: C_35  and  N_45
                            x       y       z     vdW  Elec       q    Type
                         _______ _______ _______ _____ _____    ______ ____

>  <TORSDO>
F 14

$$$$
=
 OpenBabel11042410133D

 65 71  0  0  1  0  0  0  0  0999 V2000
  191.4030  177.1400  144.9500 C   0  0  0  0  0  3  0  0  0  0  0  0
  189.2010  177.7020  144.2890 C   0  0  0  0  0  0  0  0  0  0  0  0
  189.4600  177.2060  146.6570 C   0  0  0  0  0  0  0  0  0  0  0  0
  190.2690  176.8220  147.7180 O   0  0  0  0  0  1  0  0  0  0  0  0
  189.9730  177.8000  143.0220 C   0  0  1  0  0  3  0  0  0  0  0  0
  189.9940  177.3370  145.3560 C   0  0  0  0  0  0  0  0  0  0  0  0
  187.3200  177.8600  145.7710 C   0  0  0  0  0  0  0  0  0  0  0  0
  185.8090  178.4830  144.3350 C   0  0  0  0  0  0  0  0  0  0  0  0
  186.9390  178.3480  143.6620 O   0  0  0  0  0  0  0  0  0  0  0  0
  188.0910  177.4740  146.8730 C   0  0  0  0  0  3  0  0  0  0  0  0
  185.9830  178.1830  145.6940 C   0  0  0  0  0  3  0  0  0  0  0  0
  187.8540  177.9740  144.5150 C   0  0  0  0  0  0  0  0  0  0  0  0
  191.4240  177.5320  143.4640 C   0  0  0  0  0  3  0  0  0  0  0  0
  184.5140  178.8710  143.6760 C   0  0  2  0  0  3  0  0  0  0  0  0
  183.4100  178.9950  144.7140 C   0  0  0  0  0  1  0  0  0  0  0  0
  184.0820  177.8890  142.5900 C   0  0  0  0  0  2  0  0  0  0  0  0
  183.2210  179.1890  140.6220 C   0  0  0  0  0  0  0  0  0  0  0  0
  182.9640  178.4450  141.8240 N   0  0  0  0  0  0  0  0  0  0  0  0
  182.1310  179.6170  139.8010 N   0  0  0  0  0  2  0  0  0  0  0  0
  184.4070  179.4650  140.2870 O   0  0  0  0  0  0  0  0  0  0  0  0
  182.5630  177.2560  137.8860 C   0  0  0  0  0  2  0  0  0  0  0  0
  182.6260  179.5680  137.3610 C   0  0  0  0  0  2  0  0  0  0  0  0
  181.8840  175.8870  137.7070 C   0  0  1  0  0  3  0  0  0  0  0  0
  179.6800  177.1090  137.3410 C   0  0  1  0  0  3  0  0  0  0  0  0
  182.3030  180.4250  138.5980 C   0  0  1  0  0  3  0  0  0  0  0  0
  181.8470  178.3270  137.1890 N   0  0  2  0  0  0  0  0  0  0  0  0
  179.7630  180.6670  138.3030 C   0  0  0  0  0  2  0  0  0  0  0  0
  180.4620  178.3790  137.7000 C   0  0  1  0  0  3  0  0  0  0  0  0
  181.1200  181.3680  138.3490 C   0  0  0  0  0  2  0  0  0  0  0  0
  179.7060  179.6050  137.2180 C   0  0  0  0  0  2  0  0  0  0  0  0
  179.9230  174.7510  136.8740 O   0  0  0  0  0  1  0  0  0  0  0  0
  180.6020  175.9720  136.8650 C   0  0  2  0  0  3  0  0  0  0  0  0
  178.9310  176.7070  138.4520 O   0  0  0  0  0  1  0  0  0  0  0  0
  182.8490  174.9060  137.1210 C   0  0  0  0  0  0  0  0  0  0  0  0
  184.3400  172.8910  137.4000 C   0  0  0  0  0  1  0  0  0  0  0  0
  183.3900  173.8580  137.9290 N   0  0  0  0  0  2  0  0  0  0  0  0
  183.2020  175.0330  135.9180 O   0  0  0  0  0  0  0  0  0  0  0  0
  180.8750  179.1800  142.8110 C   0  0  0  0  0  2  0  0  0  0  0  0
  181.6040  178.2320  142.2330 C   0  0  0  0  0  3  0  0  0  0  0  0
  189.2080  175.5650  142.5550 O   0  0  0  0  0  1  0  0  0  0  0  0
  189.5350  176.7830  141.9570 C   0  0  2  0  0  3  0  0  0  0  0  0
  190.5740  176.5740  140.8580 C   0  0  0  0  0  2  0  0  0  0  0  0
  190.3620  177.5580  139.7170 C   0  0  0  0  0  2  0  0  0  0  0  0
  188.9870  177.3880  139.0660 C   0  0  0  0  0  2  0  0  0  0  0  0
  188.9880  177.5210  137.5420 C   0  0  2  0  0  3  0  0  0  0  0  0
  188.8680  178.9720  137.1110 C   0  0  0  0  0  1  0  0  0  0  0  0
  187.9350  176.7190  136.9380 N   0  0  0  0  0  2  0  0  0  0  0  0
  190.0500  172.0860  134.6400 C   0  0  0  0  0  1  0  0  0  0  0  0
  186.4310  175.0870  135.4480 F   0  0  0  0  0  0  0  0  0  0  0  0
  188.4890  175.4020  136.6610 C   0  0  2  0  0  3  0  0  0  0  0  0
  189.5080  175.4980  135.6920 O   0  0  0  0  0  0  0  0  0  0  0  0
  187.3970  174.4310  136.1920 C   0  0  2  0  0  3  0  0  0  0  0  0
  187.9860  173.3020  135.3410 C   0  0  1  0  0  3  0  0  0  0  0  0
  189.4560  173.0210  135.6760 C   0  0  2  0  0  3  0  0  0  0  0  0
  187.2230  172.1460  135.5080 O   0  0  0  0  0  1  0  0  0  0  0  0
  190.2980  174.3180  135.7570 C   0  0  2  0  0  3  0  0  0  0  0  0
  194.7240  175.2070  136.6740 C   0  0  0  0  0  1  0  0  0  0  0  0
  192.9390  173.0490  135.6100 C   0  0  0  0  0  2  0  0  0  0  0  0
  192.2040  173.2630  136.9430 C   0  0  0  0  0  2  0  0  0  0  0  0
  194.4150  176.4630  134.5940 C   0  0  0  0  0  1  0  0  0  0  0  0
  193.2720  174.3040  134.7920 C   0  0  0  0  0  2  0  0  0  0  0  0
  191.1710  174.3080  136.9500 N   0  0  1  0  0  0  0  0  0  0  0  0
  193.7220  175.5390  135.5730 C   0  0  0  0  0  0  0  0  0  0  0  0
  192.5020  176.2860  136.1120 C   0  0  0  0  0  2  0  0  0  0  0  0
  191.7880  175.6010  137.2830 C   0  0  0  0  0  2  0  0  0  0  0  0
  1  6  1  0  0  0  0
  2 12  2  0  0  0  0
  2  6  1  0  0  0  0
  3 10  1  0  0  0  0
  3  4  1  0  0  0  0
  5 41  1  6  0  0  0
  5 13  1  0  0  0  0
  5  2  1  0  0  0  0
  6  3  2  0  0  0  0
  7 10  2  0  0  0  0
  8 11  2  0  0  0  0
  9  8  1  0  0  0  0
  9 12  1  0  0  0  0
 11  7  1  0  0  0  0
 12  7  1  0  0  0  0
 13  1  2  0  0  0  0
 14  8  1  0  0  0  0
 14 15  1  1  0  0  0
 16 14  1  0  0  0  0
 17 18  1  0  0  0  0
 18 39  1  0  0  0  0
 18 16  1  0  0  0  0
 19 17  1  0  0  0  0
 20 17  2  0  0  0  0
 22 25  1  0  0  0  0
 23 34  1  6  0  0  0
 23 21  1  0  0  0  0
 24 28  1  0  0  0  0
 24 33  1  1  0  0  0
 25 19  1  1  0  0  0
 26 22  1  1  0  0  0
 26 28  1  0  0  0  0
 26 21  1  0  0  0  0
 27 29  1  0  0  0  0
 28 30  1  6  0  0  0
 29 25  1  0  0  0  0
 30 27  1  0  0  0  0
 32 31  1  1  0  0  0
 32 24  1  0  0  0  0
 32 23  1  0  0  0  0
 34 36  1  0  0  0  0
 35 36  1  0  0  0  0
 37 34  2  0  0  0  0
 39 38  2  0  0  0  0
 41 40  1  1  0  0  0
 42 41  1  0  0  0  0
 43 42  1  0  0  0  0
 44 43  1  0  0  0  0
 45 46  1  1  0  0  0
 45 44  1  0  0  0  0
 47 45  1  0  0  0  0
 50 47  1  6  0  0  0
 51 50  1  0  0  0  0
 52 49  1  6  0  0  0
 52 50  1  0  0  0  0
 53 55  1  1  0  0  0
 53 54  1  0  0  0  0
 53 52  1  0  0  0  0
 54 48  1  6  0  0  0
 54 56  1  0  0  0  0
 56 51  1  1  0  0  0
 56 62  1  0  0  0  0
 58 59  1  0  0  0  0
 60 63  1  0  0  0  0
 61 63  1  0  0  0  0
 61 58  1  0  0  0  0
 62 59  1  6  0  0  0
 62 65  1  0  0  0  0
 63 64  1  0  0  0  0
 63 57  1  0  0  0  0
 64 65  1  0  0  0  0
M  END
>  <MODEL>
2

>  <REMARK>
 VINA RESULT:      -8.2      2.703      7.975
  Name = 
  14 active torsions:
  status: ('A' for Active; 'I' for Inactive)
    1  A    between atoms: C_3  and  C_17
    2  A    between atoms: N_11  and  C_24
    3  A    between atoms: N_11  and  C_50
    4  A    between atoms: N_13  and  C_43
    5  A    between atoms: N_19  and  C_65
    6  A    between atoms: C_23  and  C_31
    7  A    between atoms: C_23  and  C_36
    8  A    between atoms: C_24  and  C_25
    9  A    between atoms: C_25  and  C_42
   10  A    between atoms: C_28  and  N_45
   11  A    between atoms: C_29  and  C_35
   12  A    between atoms: C_29  and  C_36
   13  A    between atoms: C_31  and  C_32
   14  A    between atoms: C_35  and  N_45
                            x       y       z     vdW  Elec       q    Type
                         _______ _______ _______ _____ _____    ______ ____

>  <TORSDO>
F 14

$$$$
=
 OpenBabel11042410133D

 65 71  0  0  1  0  0  0  0  0999 V2000
  192.4550  175.1690  137.3480 C   0  0  0  0  0  3  0  0  0  0  0  0
  190.1640  174.6030  137.1740 C   0  0  0  0  0  0  0  0  0  0  0  0
  191.6410  173.3390  135.7120 C   0  0  0  0  0  0  0  0  0  0  0  0
  192.9170  173.0860  135.2280 O   0  0  0  0  0  1  0  0  0  0  0  0
  190.1750  175.6640  138.2160 C   0  0  1  0  0  3  0  0  0  0  0  0
  191.4270  174.3300  136.6950 C   0  0  0  0  0  0  0  0  0  0  0  0
  189.2760  172.8910  135.7470 C   0  0  0  0  0  0  0  0  0  0  0  0
  187.1780  173.0390  136.3040 C   0  0  0  0  0  0  0  0  0  0  0  0
  187.8260  173.9410  137.0210 O   0  0  0  0  0  0  0  0  0  0  0  0
  190.5410  172.5990  135.2240 C   0  0  0  0  0  3  0  0  0  0  0  0
  188.0500  172.3310  135.4640 C   0  0  0  0  0  3  0  0  0  0  0  0
  189.0880  173.8610  136.6950 C   0  0  0  0  0  0  0  0  0  0  0  0
  191.6740  175.9660  138.4040 C   0  0  0  0  0  3  0  0  0  0  0  0
  185.6870  172.8600  136.3820 C   0  0  2  0  0  3  0  0  0  0  0  0
  185.0150  173.4940  135.1740 C   0  0  0  0  0  1  0  0  0  0  0  0
  185.0850  173.4360  137.6600 C   0  0  0  0  0  2  0  0  0  0  0  0
  182.6710  173.8540  137.1090 C   0  0  0  0  0  0  0  0  0  0  0  0
  183.9970  174.3600  137.3320 N   0  0  0  0  0  0  0  0  0  0  0  0
  181.5820  174.7620  136.9220 N   0  0  0  0  0  2  0  0  0  0  0  0
  182.4640  172.6090  137.0800 O   0  0  0  0  0  0  0  0  0  0  0  0
  180.2610  176.2930  139.2320 C   0  0  0  0  0  2  0  0  0  0  0  0
  179.2070  174.8560  137.6670 C   0  0  0  0  0  2  0  0  0  0  0  0
  180.4280  177.7100  139.8090 C   0  0  1  0  0  3  0  0  0  0  0  0
  179.8510  178.6360  137.5070 C   0  0  1  0  0  3  0  0  0  0  0  0
  180.2180  174.3290  136.6340 C   0  0  1  0  0  3  0  0  0  0  0  0
  179.3540  176.2650  138.0820 N   0  0  2  0  0  0  0  0  0  0  0  0
  179.9510  176.1220  134.8130 C   0  0  0  0  0  2  0  0  0  0  0  0
  179.8800  177.1740  137.0440 C   0  0  1  0  0  3  0  0  0  0  0  0
  179.7910  174.6510  135.1960 C   0  0  0  0  0  2  0  0  0  0  0  0
  179.1470  177.0370  135.7200 C   0  0  0  0  0  2  0  0  0  0  0  0
  179.9420  180.0510  139.4640 O   0  0  0  0  0  1  0  0  0  0  0  0
  179.6280  178.7620  139.0250 C   0  0  2  0  0  3  0  0  0  0  0  0
  181.0470  179.2560  137.1300 O   0  0  0  0  0  1  0  0  0  0  0  0
  180.0590  177.7240  141.2580 C   0  0  0  0  0  0  0  0  0  0  0  0
  180.4360  178.6090  143.5890 C   0  0  0  0  0  1  0  0  0  0  0  0
  180.7570  178.5760  142.1700 N   0  0  0  0  0  2  0  0  0  0  0  0
  179.1500  176.9540  141.6700 O   0  0  0  0  0  0  0  0  0  0  0  0
  185.4370  176.3060  137.1900 C   0  0  0  0  0  2  0  0  0  0  0  0
  184.2210  175.7780  137.2600 C   0  0  0  0  0  3  0  0  0  0  0  0
  189.6280  177.2130  136.4570 O   0  0  0  0  0  1  0  0  0  0  0  0
  189.4140  176.9340  137.8070 C   0  0  2  0  0  3  0  0  0  0  0  0
  189.7620  178.1500  138.6630 C   0  0  0  0  0  2  0  0  0  0  0  0
  188.6960  178.3910  139.7200 C   0  0  0  0  0  2  0  0  0  0  0  0
  188.6540  177.2650  140.7560 C   0  0  0  0  0  2  0  0  0  0  0  0
  189.9390  177.1080  141.5720 C   0  0  2  0  0  3  0  0  0  0  0  0
  189.9510  175.7990  142.3420 C   0  0  0  0  0  1  0  0  0  0  0  0
  190.1370  178.2330  142.4740 N   0  0  0  0  0  2  0  0  0  0  0  0
  189.3070  177.6830  147.9710 C   0  0  0  0  0  1  0  0  0  0  0  0
  192.1350  178.5300  144.2250 F   0  0  0  0  0  0  0  0  0  0  0  0
  189.8860  177.7610  143.8280 C   0  0  2  0  0  3  0  0  0  0  0  0
  189.0360  178.6570  144.5050 O   0  0  0  0  0  0  0  0  0  0  0  0
  191.1990  177.5820  144.6020 C   0  0  2  0  0  3  0  0  0  0  0  0
  190.9720  177.6930  146.1130 C   0  0  1  0  0  3  0  0  0  0  0  0
  189.5450  177.3100  146.5210 C   0  0  2  0  0  3  0  0  0  0  0  0
  191.8980  176.8930  146.7830 O   0  0  0  0  0  1  0  0  0  0  0  0
  188.4770  177.9830  145.6240 C   0  0  2  0  0  3  0  0  0  0  0  0
  184.0050  178.1220  144.5260 C   0  0  0  0  0  1  0  0  0  0  0  0
  185.8340  178.0630  146.8970 C   0  0  0  0  0  2  0  0  0  0  0  0
  186.3770  176.8000  146.2080 C   0  0  0  0  0  2  0  0  0  0  0  0
  184.6650  180.4420  144.0980 C   0  0  0  0  0  1  0  0  0  0  0  0
  185.6760  179.3160  146.0250 C   0  0  0  0  0  2  0  0  0  0  0  0
  187.4400  177.0120  145.2150 N   0  0  1  0  0  0  0  0  0  0  0  0
  185.1690  179.1050  144.5980 C   0  0  0  0  0  0  0  0  0  0  0  0
  186.3280  178.6920  143.6910 C   0  0  0  0  0  2  0  0  0  0  0  0
  186.8350  177.2600  143.8990 C   0  0  0  0  0  2  0  0  0  0  0  0
  1 13  2  0  0  0  0
  2  5  1  0  0  0  0
  3  6  2  0  0  0  0
  4  3  1  0  0  0  0
  5 41  1  6  0  0  0
  5 13  1  0  0  0  0
  6  2  1  0  0  0  0
  6  1  1  0  0  0  0
  7 12  1  0  0  0  0
  8 14  1  0  0  0  0
  8  9  1  0  0  0  0
 10  3  1  0  0  0  0
 10  7  2  0  0  0  0
 11  7  1  0  0  0  0
 11  8  2  0  0  0  0
 12  9  1  0  0  0  0
 12  2  2  0  0  0  0
 14 15  1  6  0  0  0
 14 16  1  0  0  0  0
 17 18  1  0  0  0  0
 18 16  1  0  0  0  0
 19 17  1  0  0  0  0
 20 17  2  0  0  0  0
 21 23  1  0  0  0  0
 23 34  1  1  0  0  0
 24 33  1  1  0  0  0
 24 32  1  0  0  0  0
 25 19  1  1  0  0  0
 25 22  1  0  0  0  0
 26 22  1  6  0  0  0
 26 21  1  0  0  0  0
 27 29  1  0  0  0  0
 27 30  1  0  0  0  0
 28 30  1  6  0  0  0
 28 24  1  0  0  0  0
 28 26  1  0  0  0  0
 29 25  1  0  0  0  0
 32 31  1  1  0  0  0
 32 23  1  0  0  0  0
 34 37  2  0  0  0  0
 34 36  1  0  0  0  0
 36 35  1  0  0  0  0
 38 39  2  0  0  0  0
 39 18  1  0  0  0  0
 41 40  1  6  0  0  0
 41 42  1  0  0  0  0
 42 43  1  0  0  0  0
 43 44  1  0  0  0  0
 44 45  1  0  0  0  0
 45 46  1  1  0  0  0
 45 47  1  0  0  0  0
 50 47  1  6  0  0  0
 50 51  1  0  0  0  0
 50 52  1  0  0  0  0
 52 49  1  6  0  0  0
 52 53  1  0  0  0  0
 53 54  1  0  0  0  0
 53 55  1  1  0  0  0
 54 48  1  1  0  0  0
 56 51  1  6  0  0  0
 56 54  1  0  0  0  0
 57 63  1  0  0  0  0
 59 58  1  0  0  0  0
 60 63  1  0  0  0  0
 61 58  1  0  0  0  0
 62 65  1  6  0  0  0
 62 56  1  0  0  0  0
 62 59  1  0  0  0  0
 63 61  1  0  0  0  0
 64 65  1  0  0  0  0
 64 63  1  0  0  0  0
M  END
>  <MODEL>
3

>  <REMARK>
 VINA RESULT:      -7.5      1.871      3.317
  Name = 
  14 active torsions:
  status: ('A' for Active; 'I' for Inactive)
    1  A    between atoms: C_3  and  C_17
    2  A    between atoms: N_11  and  C_24
    3  A    between atoms: N_11  and  C_50
    4  A    between atoms: N_13  and  C_43
    5  A    between atoms: N_19  and  C_65
    6  A    between atoms: C_23  and  C_31
    7  A    between atoms: C_23  and  C_36
    8  A    between atoms: C_24  and  C_25
    9  A    between atoms: C_25  and  C_42
   10  A    between atoms: C_28  and  N_45
   11  A    between atoms: C_29  and  C_35
   12  A    between atoms: C_29  and  C_36
   13  A    between atoms: C_31  and  C_32
   14  A    between atoms: C_35  and  N_45
                            x       y       z     vdW  Elec       q    Type
                         _______ _______ _______ _____ _____    ______ ____

>  <TORSDO>
F 14

$$$$
=
 OpenBabel11042410133D

 65 71  0  0  1  0  0  0  0  0999 V2000
  192.0390  174.6250  136.6450 C   0  0  0  0  0  3  0  0  0  0  0  0
  189.7010  174.2660  136.6650 C   0  0  0  0  0  0  0  0  0  0  0  0
  190.9620  172.6980  135.2980 C   0  0  0  0  0  0  0  0  0  0  0  0
  192.1770  172.2670  134.7840 O   0  0  0  0  0  1  0  0  0  0  0  0
  189.8730  175.4390  137.5630 C   0  0  1  0  0  3  0  0  0  0  0  0
  190.9010  173.8160  136.1580 C   0  0  0  0  0  0  0  0  0  0  0  0
  188.5730  172.4870  135.5150 C   0  0  0  0  0  0  0  0  0  0  0  0
  186.5370  172.9040  136.1570 C   0  0  0  0  0  0  0  0  0  0  0  0
  187.3080  173.8190  136.7190 O   0  0  0  0  0  0  0  0  0  0  0  0
  189.7720  172.0150  134.9670 C   0  0  0  0  0  3  0  0  0  0  0  0
  187.2870  172.0190  135.3690 C   0  0  0  0  0  3  0  0  0  0  0  0
  188.5340  173.5780  136.3410 C   0  0  0  0  0  0  0  0  0  0  0  0
  191.4020  175.6160  137.6320 C   0  0  0  0  0  3  0  0  0  0  0  0
  185.0440  172.8800  136.3350 C   0  0  2  0  0  3  0  0  0  0  0  0
  184.3690  173.6840  135.2360 C   0  0  0  0  0  1  0  0  0  0  0  0
  184.6000  173.4070  137.6970 C   0  0  0  0  0  2  0  0  0  0  0  0
  182.2230  174.1800  137.4550 C   0  0  0  0  0  0  0  0  0  0  0  0
  183.6250  174.4870  137.5250 N   0  0  0  0  0  0  0  0  0  0  0  0
  181.2620  175.2380  137.4230 N   0  0  0  0  0  2  0  0  0  0  0  0
  181.8370  172.9780  137.4240 O   0  0  0  0  0  0  0  0  0  0  0  0
  180.4240  177.2260  139.6080 C   0  0  0  0  0  2  0  0  0  0  0  0
  179.0130  175.8180  138.3230 C   0  0  0  0  0  2  0  0  0  0  0  0
  180.8680  178.6510  139.9830 C   0  0  1  0  0  3  0  0  0  0  0  0
  180.2320  179.3910  137.6300 C   0  0  1  0  0  3  0  0  0  0  0  0
  179.8250  175.0120  137.2940 C   0  0  1  0  0  3  0  0  0  0  0  0
  179.4200  177.2200  138.5410 N   0  0  2  0  0  0  0  0  0  0  0  0
  179.6760  176.6030  135.2830 C   0  0  0  0  0  2  0  0  0  0  0  0
  179.9840  177.9020  137.3590 C   0  0  1  0  0  3  0  0  0  0  0  0
  179.3220  175.2340  135.8630 C   0  0  0  0  0  2  0  0  0  0  0  0
  179.1170  177.7400  136.1210 C   0  0  0  0  0  2  0  0  0  0  0  0
  180.7300  180.9850  139.3770 O   0  0  0  0  0  1  0  0  0  0  0  0
  180.1750  179.7260  139.1320 C   0  0  2  0  0  3  0  0  0  0  0  0
  181.4700  179.7520  137.0890 O   0  0  0  0  0  1  0  0  0  0  0  0
  180.6440  178.8930  141.4420 C   0  0  0  0  0  0  0  0  0  0  0  0
  179.0670  179.0390  143.4050 C   0  0  0  0  0  1  0  0  0  0  0  0
  179.3280  178.7990  141.9940 N   0  0  0  0  0  2  0  0  0  0  0  0
  181.6210  179.2120  142.1710 O   0  0  0  0  0  0  0  0  0  0  0  0
  185.3000  176.2150  137.2360 C   0  0  0  0  0  2  0  0  0  0  0  0
  184.0400  175.8600  137.4570 C   0  0  0  0  0  3  0  0  0  0  0  0
  189.6090  176.9730  135.7270 O   0  0  0  0  0  1  0  0  0  0  0  0
  189.2040  176.7180  137.0370 C   0  0  2  0  0  3  0  0  0  0  0  0
  189.4560  177.9380  137.9190 C   0  0  0  0  0  2  0  0  0  0  0  0
  189.4250  177.5590  139.3910 C   0  0  0  0  0  2  0  0  0  0  0  0
  188.6220  178.5620  140.2220 C   0  0  0  0  0  2  0  0  0  0  0  0
  188.6660  178.3120  141.7310 C   0  0  2  0  0  3  0  0  0  0  0  0
  190.0020  177.7320  142.1600 C   0  0  0  0  0  1  0  0  0  0  0  0
  187.5730  177.4500  142.1590 N   0  0  0  0  0  2  0  0  0  0  0  0
  185.1470  178.2940  147.1200 C   0  0  0  0  0  1  0  0  0  0  0  0
  184.9150  177.4460  142.4320 F   0  0  0  0  0  0  0  0  0  0  0  0
  187.0510  177.9880  143.4060 C   0  0  2  0  0  3  0  0  0  0  0  0
  187.2520  177.0690  144.4540 O   0  0  0  0  0  0  0  0  0  0  0  0
  185.5600  178.3330  143.2770 C   0  0  2  0  0  3  0  0  0  0  0  0
  184.8640  178.3040  144.6410 C   0  0  1  0  0  3  0  0  0  0  0  0
  185.8290  178.5880  145.7980 C   0  0  2  0  0  3  0  0  0  0  0  0
  183.8160  179.2250  144.6480 O   0  0  0  0  0  1  0  0  0  0  0  0
  187.1370  177.7660  145.6870 C   0  0  2  0  0  3  0  0  0  0  0  0
  191.1760  177.3010  147.8540 C   0  0  0  0  0  1  0  0  0  0  0  0
  188.2810  177.8610  148.3880 C   0  0  0  0  0  2  0  0  0  0  0  0
  188.5050  178.9830  147.3600 C   0  0  0  0  0  2  0  0  0  0  0  0
  190.6190  174.9610  147.3930 C   0  0  0  0  0  1  0  0  0  0  0  0
  188.7810  176.4600  148.0060 C   0  0  0  0  0  2  0  0  0  0  0  0
  188.3190  178.6130  145.9500 N   0  0  1  0  0  0  0  0  0  0  0  0
  190.1130  176.3820  147.2600 C   0  0  0  0  0  0  0  0  0  0  0  0
  189.8920  176.6440  145.7710 C   0  0  0  0  0  2  0  0  0  0  0  0
  189.5870  178.1030  145.4090 C   0  0  0  0  0  2  0  0  0  0  0  0
  1 13  2  0  0  0  0
  2  5  1  0  0  0  0
  3  6  1  0  0  0  0
  4  3  1  0  0  0  0
  5 41  1  6  0  0  0
  5 13  1  0  0  0  0
  6  1  1  0  0  0  0
  6  2  2  0  0  0  0
  7 12  2  0  0  0  0
  8 14  1  0  0  0  0
  8  9  1  0  0  0  0
 10  3  2  0  0  0  0
 10  7  1  0  0  0  0
 11  7  1  0  0  0  0
 11  8  2  0  0  0  0
 12  2  1  0  0  0  0
 12  9  1  0  0  0  0
 14 15  1  6  0  0  0
 14 16  1  0  0  0  0
 17 18  1  0  0  0  0
 18 16  1  0  0  0  0
 19 17  1  0  0  0  0
 20 17  2  0  0  0  0
 21 23  1  0  0  0  0
 23 34  1  1  0  0  0
 24 33  1  1  0  0  0
 24 32  1  0  0  0  0
 25 19  1  6  0  0  0
 25 22  1  0  0  0  0
 26 22  1  6  0  0  0
 26 21  1  0  0  0  0
 27 29  1  0  0  0  0
 27 30  1  0  0  0  0
 28 30  1  6  0  0  0
 28 24  1  0  0  0  0
 28 26  1  0  0  0  0
 29 25  1  0  0  0  0
 32 31  1  6  0  0  0
 32 23  1  0  0  0  0
 34 36  1  0  0  0  0
 34 37  2  0  0  0  0
 36 35  1  0  0  0  0
 38 39  2  0  0  0  0
 39 18  1  0  0  0  0
 41 40  1  6  0  0  0
 41 42  1  0  0  0  0
 42 43  1  0  0  0  0
 43 44  1  0  0  0  0
 44 45  1  0  0  0  0
 45 47  1  0  0  0  0
 45 46  1  6  0  0  0
 50 47  1  6  0  0  0
 50 51  1  0  0  0  0
 52 49  1  6  0  0  0
 52 50  1  0  0  0  0
 52 53  1  0  0  0  0
 53 55  1  6  0  0  0
 53 54  1  0  0  0  0
 54 48  1  1  0  0  0
 56 51  1  6  0  0  0
 56 54  1  0  0  0  0
 56 62  1  0  0  0  0
 59 58  1  0  0  0  0
 61 58  1  0  0  0  0
 62 65  1  1  0  0  0
 62 59  1  0  0  0  0
 63 60  1  0  0  0  0
 63 57  1  0  0  0  0
 63 61  1  0  0  0  0
 64 63  1  0  0  0  0
 65 64  1  0  0  0  0
M  END
>  <MODEL>
4

>  <REMARK>
 VINA RESULT:      -6.6      1.691      2.470
  Name = 
  14 active torsions:
  status: ('A' for Active; 'I' for Inactive)
    1  A    between atoms: C_3  and  C_17
    2  A    between atoms: N_11  and  C_24
    3  A    between atoms: N_11  and  C_50
    4  A    between atoms: N_13  and  C_43
    5  A    between atoms: N_19  and  C_65
    6  A    between atoms: C_23  and  C_31
    7  A    between atoms: C_23  and  C_36
    8  A    between atoms: C_24  and  C_25
    9  A    between atoms: C_25  and  C_42
   10  A    between atoms: C_28  and  N_45
   11  A    between atoms: C_29  and  C_35
   12  A    between atoms: C_29  and  C_36
   13  A    between atoms: C_31  and  C_32
   14  A    between atoms: C_35  and  N_45
                            x       y       z     vdW  Elec       q    Type
                         _______ _______ _______ _____ _____    ______ ____

>  <TORSDO>
F 14

$$$$
=
 OpenBabel11042410133D

 65 71  0  0  1  0  0  0  0  0999 V2000
  190.6900  177.7590  146.3110 C   0  0  0  0  0  3  0  0  0  0  0  0
  189.1840  177.8000  144.4860 C   0  0  0  0  0  0  0  0  0  0  0  0
  188.1310  177.8310  146.6800 C   0  0  0  0  0  0  0  0  0  0  0  0
  188.2450  177.8060  148.0630 O   0  0  0  0  0  1  0  0  0  0  0  0
  190.5170  177.7750  143.8280 C   0  0  1  0  0  3  0  0  0  0  0  0
  189.2810  177.7910  145.8610 C   0  0  0  0  0  0  0  0  0  0  0  0
  186.7960  177.9270  144.6780 C   0  0  0  0  0  0  0  0  0  0  0  0
  186.2880  177.9910  142.5640 C   0  0  0  0  0  0  0  0  0  0  0  0
  187.6060  177.9180  142.6360 O   0  0  0  0  0  0  0  0  0  0  0  0
  186.8560  177.9010  146.0770 C   0  0  0  0  0  3  0  0  0  0  0  0
  185.7060  177.9980  143.8400 C   0  0  0  0  0  3  0  0  0  0  0  0
  187.9230  177.8800  143.9020 C   0  0  0  0  0  0  0  0  0  0  0  0
  191.5030  177.8480  145.0100 C   0  0  0  0  0  3  0  0  0  0  0  0
  185.5480  178.0170  141.2550 C   0  0  2  0  0  3  0  0  0  0  0  0
  186.4350  178.5840  140.1580 C   0  0  0  0  0  1  0  0  0  0  0  0
  184.2490  178.8170  141.3230 C   0  0  0  0  0  2  0  0  0  0  0  0
  181.9250  178.4520  140.4460 C   0  0  0  0  0  0  0  0  0  0  0  0
  183.3470  178.4030  140.2460 N   0  0  0  0  0  0  0  0  0  0  0  0
  181.0410  178.1790  139.3550 N   0  0  0  0  0  2  0  0  0  0  0  0
  181.4530  178.7380  141.5810 O   0  0  0  0  0  0  0  0  0  0  0  0
  180.5810  181.0850  138.4770 C   0  0  0  0  0  2  0  0  0  0  0  0
  178.9480  179.5190  139.1880 C   0  0  0  0  0  2  0  0  0  0  0  0
  181.1540  181.9650  137.3520 C   0  0  1  0  0  3  0  0  0  0  0  0
  180.3100  180.2440  135.6750 C   0  0  1  0  0  3  0  0  0  0  0  0
  179.5880  178.1520  139.4890 C   0  0  1  0  0  3  0  0  0  0  0  0
  179.4660  180.2520  138.0170 N   0  0  2  0  0  0  0  0  0  0  0  0
  179.3190  177.0340  137.1920 C   0  0  0  0  0  2  0  0  0  0  0  0
  179.9380  179.4050  136.9040 C   0  0  1  0  0  3  0  0  0  0  0  0
  178.9440  177.0250  138.6730 C   0  0  0  0  0  2  0  0  0  0  0  0
  178.9310  178.3370  136.5140 C   0  0  0  0  0  2  0  0  0  0  0  0
  181.1010  182.4200  134.9810 O   0  0  0  0  0  1  0  0  0  0  0  0
  180.4420  181.7410  136.0090 C   0  0  2  0  0  3  0  0  0  0  0  0
  181.5010  179.7520  135.1310 O   0  0  0  0  0  1  0  0  0  0  0  0
  181.1100  183.4050  137.7510 C   0  0  0  0  0  0  0  0  0  0  0  0
  179.7750  185.4990  138.1920 C   0  0  0  0  0  1  0  0  0  0  0  0
  179.8590  184.0950  137.8200 N   0  0  0  0  0  2  0  0  0  0  0  0
  182.1880  184.0110  137.9950 O   0  0  0  0  0  0  0  0  0  0  0  0
  183.6760  178.6790  137.8590 C   0  0  0  0  0  2  0  0  0  0  0  0
  183.8560  177.9770  138.9710 C   0  0  0  0  0  3  0  0  0  0  0  0
  192.0750  176.0610  143.1720 O   0  0  0  0  0  1  0  0  0  0  0  0
  190.7660  176.5090  142.9940 C   0  0  2  0  0  3  0  0  0  0  0  0
  190.4650  176.6960  141.5080 C   0  0  0  0  0  2  0  0  0  0  0  0
  189.6260  177.9440  141.2780 C   0  0  0  0  0  2  0  0  0  0  0  0
  189.3380  178.1720  139.7930 C   0  0  0  0  0  2  0  0  0  0  0  0
  190.4460  177.6920  138.8520 C   0  0  2  0  0  3  0  0  0  0  0  0
  190.0730  177.9120  137.3970 C   0  0  0  0  0  1  0  0  0  0  0  0
  190.7770  176.2950  139.0900 N   0  0  0  0  0  2  0  0  0  0  0  0
  190.8600  172.6340  134.8700 C   0  0  0  0  0  1  0  0  0  0  0  0
  192.9620  174.8630  138.5250 F   0  0  0  0  0  0  0  0  0  0  0  0
  190.7940  175.6220  137.7990 C   0  0  2  0  0  3  0  0  0  0  0  0
  189.9500  174.4940  137.8280 O   0  0  0  0  0  0  0  0  0  0  0  0
  192.2210  175.2110  137.4090 C   0  0  2  0  0  3  0  0  0  0  0  0
  192.2120  174.0260  136.4390 C   0  0  1  0  0  3  0  0  0  0  0  0
  190.9210  173.9540  135.6140 C   0  0  2  0  0  3  0  0  0  0  0  0
  193.3210  174.1050  135.5970 O   0  0  0  0  0  1  0  0  0  0  0  0
  189.6550  174.1230  136.4890 C   0  0  2  0  0  3  0  0  0  0  0  0
  185.0940  174.3380  135.8740 C   0  0  0  0  0  1  0  0  0  0  0  0
  187.5560  173.0800  134.7220 C   0  0  0  0  0  2  0  0  0  0  0  0
  188.0390  174.5390  134.6540 C   0  0  0  0  0  2  0  0  0  0  0  0
  185.2370  172.8200  137.7910 C   0  0  0  0  0  1  0  0  0  0  0  0
  186.9520  172.6110  136.0530 C   0  0  0  0  0  2  0  0  0  0  0  0
  188.6980  175.0590  135.8600 N   0  0  1  0  0  0  0  0  0  0  0  0
  186.0640  173.6090  136.7980 C   0  0  0  0  0  0  0  0  0  0  0  0
  186.9320  174.5770  137.6020 C   0  0  0  0  0  2  0  0  0  0  0  0
  187.6850  175.6190  136.7650 C   0  0  0  0  0  2  0  0  0  0  0  0
  2  6  1  0  0  0  0
  3  4  1  0  0  0  0
  5 41  1  1  0  0  0
  5  2  1  0  0  0  0
  5 13  1  0  0  0  0
  6  1  1  0  0  0  0
  6  3  2  0  0  0  0
  7 10  2  0  0  0  0
  8  9  1  0  0  0  0
  8 11  2  0  0  0  0
  9 12  1  0  0  0  0
 10  3  1  0  0  0  0
 11  7  1  0  0  0  0
 12  2  2  0  0  0  0
 12  7  1  0  0  0  0
 13  1  2  0  0  0  0
 14 15  1  6  0  0  0
 14 16  1  0  0  0  0
 14  8  1  0  0  0  0
 17 20  2  0  0  0  0
 18 17  1  0  0  0  0
 18 16  1  0  0  0  0
 19 17  1  0  0  0  0
 22 25  1  0  0  0  0
 23 34  1  1  0  0  0
 23 21  1  0  0  0  0
 24 33  1  1  0  0  0
 24 32  1  0  0  0  0
 24 28  1  0  0  0  0
 25 19  1  6  0  0  0
 26 21  1  1  0  0  0
 26 22  1  0  0  0  0
 27 29  1  0  0  0  0
 28 30  1  6  0  0  0
 28 26  1  0  0  0  0
 29 25  1  0  0  0  0
 30 27  1  0  0  0  0
 32 31  1  6  0  0  0
 32 23  1  0  0  0  0
 34 36  1  0  0  0  0
 34 37  2  0  0  0  0
 36 35  1  0  0  0  0
 38 39  2  0  0  0  0
 39 18  1  0  0  0  0
 41 40  1  6  0  0  0
 42 41  1  0  0  0  0
 43 42  1  0  0  0  0
 44 43  1  0  0  0  0
 45 46  1  6  0  0  0
 45 47  1  0  0  0  0
 45 44  1  0  0  0  0
 50 51  1  0  0  0  0
 50 47  1  1  0  0  0
 52 50  1  0  0  0  0
 52 49  1  1  0  0  0
 53 55  1  6  0  0  0
 53 52  1  0  0  0  0
 54 48  1  1  0  0  0
 54 53  1  0  0  0  0
 54 56  1  0  0  0  0
 56 51  1  1  0  0  0
 57 63  1  0  0  0  0
 58 61  1  0  0  0  0
 59 58  1  0  0  0  0
 61 63  1  0  0  0  0
 62 59  1  6  0  0  0
 62 56  1  0  0  0  0
 62 65  1  0  0  0  0
 63 64  1  0  0  0  0
 63 60  1  0  0  0  0
 65 64  1  0  0  0  0
M  END
>  <MODEL>
5

>  <REMARK>
 VINA RESULT:      -5.9      3.021      7.825
  Name = 
  14 active torsions:
  status: ('A' for Active; 'I' for Inactive)
    1  A    between atoms: C_3  and  C_17
    2  A    between atoms: N_11  and  C_24
    3  A    between atoms: N_11  and  C_50
    4  A    between atoms: N_13  and  C_43
    5  A    between atoms: N_19  and  C_65
    6  A    between atoms: C_23  and  C_31
    7  A    between atoms: C_23  and  C_36
    8  A    between atoms: C_24  and  C_25
    9  A    between atoms: C_25  and  C_42
   10  A    between atoms: C_28  and  N_45
   11  A    between atoms: C_29  and  C_35
   12  A    between atoms: C_29  and  C_36
   13  A    between atoms: C_31  and  C_32
   14  A    between atoms: C_35  and  N_45
                            x       y       z     vdW  Elec       q    Type
                         _______ _______ _______ _____ _____    ______ ____

>  <TORSDO>
F 14

$$$$
=
 OpenBabel11042410133D

 65 71  0  0  1  0  0  0  0  0999 V2000
  193.8230  175.9190  137.2550 C   0  0  0  0  0  3  0  0  0  0  0  0
  191.8340  174.6620  137.0020 C   0  0  0  0  0  0  0  0  0  0  0  0
  193.4750  174.3420  135.2340 C   0  0  0  0  0  0  0  0  0  0  0  0
  194.7040  174.6550  134.6720 O   0  0  0  0  0  1  0  0  0  0  0  0
  191.6130  175.3980  138.2750 C   0  0  1  0  0  3  0  0  0  0  0  0
  193.0580  174.9510  136.4380 C   0  0  0  0  0  0  0  0  0  0  0  0
  191.4000  173.1200  135.2150 C   0  0  0  0  0  0  0  0  0  0  0  0
  189.4390  172.4170  135.8420 C   0  0  0  0  0  0  0  0  0  0  0  0
  189.8330  173.2980  136.7450 O   0  0  0  0  0  0  0  0  0  0  0  0
  192.6280  173.4030  134.6050 C   0  0  0  0  0  3  0  0  0  0  0  0
  190.3980  172.2570  134.8310 C   0  0  0  0  0  3  0  0  0  0  0  0
  191.0110  173.7270  136.3790 C   0  0  0  0  0  0  0  0  0  0  0  0
  192.9440  176.1410  138.4950 C   0  0  0  0  0  3  0  0  0  0  0  0
  188.1040  171.7290  135.9090 C   0  0  2  0  0  3  0  0  0  0  0  0
  188.2900  170.2370  136.1370 C   0  0  0  0  0  1  0  0  0  0  0  0
  187.2570  171.9500  134.6590 C   0  0  0  0  0  2  0  0  0  0  0  0
  186.7480  174.4060  134.7680 C   0  0  0  0  0  0  0  0  0  0  0  0
  186.3080  173.0430  134.8800 N   0  0  0  0  0  0  0  0  0  0  0  0
  185.7970  175.4710  134.8510 N   0  0  0  0  0  2  0  0  0  0  0  0
  187.9710  174.6660  134.5950 O   0  0  0  0  0  0  0  0  0  0  0  0
  182.9780  176.5670  135.3810 C   0  0  0  0  0  2  0  0  0  0  0  0
  184.9540  177.8130  134.9670 C   0  0  0  0  0  2  0  0  0  0  0  0
  181.8480  176.1840  136.3520 C   0  0  1  0  0  3  0  0  0  0  0  0
  183.4700  176.5620  138.2780 C   0  0  1  0  0  3  0  0  0  0  0  0
  186.1690  176.8820  134.8040 C   0  0  1  0  0  3  0  0  0  0  0  0
  183.9710  177.4470  136.0050 N   0  0  2  0  0  0  0  0  0  0  0  0
  186.9970  176.8250  137.2360 C   0  0  0  0  0  2  0  0  0  0  0  0
  184.5300  176.7630  137.1880 C   0  0  1  0  0  3  0  0  0  0  0  0
  187.2910  177.2260  135.7910 C   0  0  0  0  0  2  0  0  0  0  0  0
  185.7360  177.4850  137.7660 C   0  0  0  0  0  2  0  0  0  0  0  0
  181.0990  176.2790  138.6460 O   0  0  0  0  0  1  0  0  0  0  0  0
  182.0420  176.7890  137.7510 C   0  0  2  0  0  3  0  0  0  0  0  0
  183.6030  175.2760  138.8100 O   0  0  0  0  0  1  0  0  0  0  0  0
  180.5220  176.5710  135.7780 C   0  0  0  0  0  0  0  0  0  0  0  0
  178.9460  178.3620  134.9600 C   0  0  0  0  0  1  0  0  0  0  0  0
  180.2280  177.9440  135.5070 N   0  0  0  0  0  2  0  0  0  0  0  0
  179.6580  175.6780  135.5660 O   0  0  0  0  0  0  0  0  0  0  0  0
  184.4250  172.8940  136.4010 C   0  0  0  0  0  2  0  0  0  0  0  0
  184.9270  172.7800  135.1770 C   0  0  0  0  0  3  0  0  0  0  0  0
  190.3520  176.9570  136.9410 O   0  0  0  0  0  1  0  0  0  0  0  0
  190.4420  176.3920  138.2140 C   0  0  2  0  0  3  0  0  0  0  0  0
  190.5220  177.4850  139.2770 C   0  0  0  0  0  2  0  0  0  0  0  0
  189.5030  177.2430  140.3800 C   0  0  0  0  0  2  0  0  0  0  0  0
  189.1770  178.5260  141.1470 C   0  0  0  0  0  2  0  0  0  0  0  0
  189.5770  178.4990  142.6240 C   0  0  2  0  0  3  0  0  0  0  0  0
  190.7220  179.4550  142.9070 C   0  0  0  0  0  1  0  0  0  0  0  0
  189.9150  177.1520  143.0590 N   0  0  0  0  0  2  0  0  0  0  0  0
  189.1710  178.1380  148.5080 C   0  0  0  0  0  1  0  0  0  0  0  0
  191.9690  177.7400  144.6650 F   0  0  0  0  0  0  0  0  0  0  0  0
  189.6600  177.0750  144.4900 C   0  0  2  0  0  3  0  0  0  0  0  0
  188.8970  178.1830  144.9080 O   0  0  0  0  0  0  0  0  0  0  0  0
  190.9730  177.0020  145.2820 C   0  0  2  0  0  3  0  0  0  0  0  0
  190.7890  177.5250  146.7100 C   0  0  1  0  0  3  0  0  0  0  0  0
  189.3470  177.3780  147.2070 C   0  0  2  0  0  3  0  0  0  0  0  0
  191.6660  176.8590  147.5660 O   0  0  0  0  0  1  0  0  0  0  0  0
  188.3130  177.8750  146.1660 C   0  0  2  0  0  3  0  0  0  0  0  0
  183.8050  178.0950  145.2440 C   0  0  0  0  0  1  0  0  0  0  0  0
  185.7560  178.4330  147.4920 C   0  0  0  0  0  2  0  0  0  0  0  0
  186.1780  177.0110  147.0870 C   0  0  0  0  0  2  0  0  0  0  0  0
  184.5850  180.2040  144.2740 C   0  0  0  0  0  1  0  0  0  0  0  0
  185.6290  179.4670  146.3650 C   0  0  0  0  0  2  0  0  0  0  0  0
  187.1960  176.9160  146.0310 N   0  0  1  0  0  0  0  0  0  0  0  0
  185.0310  178.9790  145.0440 C   0  0  0  0  0  0  0  0  0  0  0  0
  186.1090  178.2890  144.2090 C   0  0  0  0  0  2  0  0  0  0  0  0
  186.5360  176.9070  144.7170 C   0  0  0  0  0  2  0  0  0  0  0  0
  1 13  2  0  0  0  0
  2  5  1  0  0  0  0
  3  6  2  0  0  0  0
  4  3  1  0  0  0  0
  5 41  1  6  0  0  0
  5 13  1  0  0  0  0
  6  2  1  0  0  0  0
  6  1  1  0  0  0  0
  7 12  1  0  0  0  0
  8 14  1  0  0  0  0
  8  9  1  0  0  0  0
 10  7  2  0  0  0  0
 10  3  1  0  0  0  0
 11  7  1  0  0  0  0
 11  8  2  0  0  0  0
 12  9  1  0  0  0  0
 12  2  2  0  0  0  0
 14 15  1  6  0  0  0
 16 18  1  0  0  0  0
 16 14  1  0  0  0  0
 17 19  1  0  0  0  0
 17 18  1  0  0  0  0
 18 39  1  0  0  0  0
 20 17  2  0  0  0  0
 21 26  1  0  0  0  0
 21 23  1  0  0  0  0
 23 34  1  6  0  0  0
 23 32  1  0  0  0  0
 24 33  1  6  0  0  0
 25 19  1  1  0  0  0
 25 22  1  0  0  0  0
 25 29  1  0  0  0  0
 26 22  1  6  0  0  0
 26 28  1  0  0  0  0
 27 30  1  0  0  0  0
 28 30  1  1  0  0  0
 28 24  1  0  0  0  0
 29 27  1  0  0  0  0
 32 24  1  0  0  0  0
 32 31  1  1  0  0  0
 35 36  1  0  0  0  0
 36 34  1  0  0  0  0
 37 34  2  0  0  0  0
 39 38  2  0  0  0  0
 41 40  1  6  0  0  0
 41 42  1  0  0  0  0
 42 43  1  0  0  0  0
 43 44  1  0  0  0  0
 44 45  1  0  0  0  0
 45 46  1  6  0  0  0
 45 47  1  0  0  0  0
 50 47  1  6  0  0  0
 50 51  1  0  0  0  0
 50 52  1  0  0  0  0
 52 49  1  6  0  0  0
 52 53  1  0  0  0  0
 53 54  1  0  0  0  0
 53 55  1  1  0  0  0
 54 48  1  1  0  0  0
 56 51  1  6  0  0  0
 56 54  1  0  0  0  0
 59 58  1  0  0  0  0
 60 63  1  0  0  0  0
 61 58  1  0  0  0  0
 62 65  1  6  0  0  0
 62 56  1  0  0  0  0
 62 59  1  0  0  0  0
 63 57  1  0  0  0  0
 63 61  1  0  0  0  0
 64 65  1  0  0  0  0
 64 63  1  0  0  0  0
M  END
>  <MODEL>
6

>  <REMARK>
 VINA RESULT:      -5.5      2.667      4.809
  Name = 
  14 active torsions:
  status: ('A' for Active; 'I' for Inactive)
    1  A    between atoms: C_3  and  C_17
    2  A    between atoms: N_11  and  C_24
    3  A    between atoms: N_11  and  C_50
    4  A    between atoms: N_13  and  C_43
    5  A    between atoms: N_19  and  C_65
    6  A    between atoms: C_23  and  C_31
    7  A    between atoms: C_23  and  C_36
    8  A    between atoms: C_24  and  C_25
    9  A    between atoms: C_25  and  C_42
   10  A    between atoms: C_28  and  N_45
   11  A    between atoms: C_29  and  C_35
   12  A    between atoms: C_29  and  C_36
   13  A    between atoms: C_31  and  C_32
   14  A    between atoms: C_35  and  N_45
                            x       y       z     vdW  Elec       q    Type
                         _______ _______ _______ _____ _____    ______ ____

>  <TORSDO>
F 14

$$$$
