=
 OpenBabel11032419243D

 51 57  0  0  1  0  0  0  0  0999 V2000
  183.0220  179.3970  144.1110 C   0  0  2  0  0  3  0  0  0  0  0  0
  184.1200  179.5400  143.1590 N   0  0  0  0  0  2  0  0  0  0  0  0
  184.1700  178.3700  142.3850 N   0  0  0  0  0  0  0  0  0  0  0  0
  183.9340  178.7770  141.0070 C   0  0  0  0  0  2  0  0  0  0  0  0
  183.2490  177.6550  140.2530 C   0  0  0  0  0  1  0  0  0  0  0  0
  185.5390  177.8790  142.4640 C   0  0  0  0  0  2  0  0  0  0  0  0
  186.4370  178.6330  141.4930 C   0  0  0  0  0  2  0  0  0  0  0  0
  187.6420  177.8580  141.2220 N   0  0  0  0  0  2  0  0  0  0  0  0
  188.1510  178.2900  139.9250 C   0  0  2  0  0  3  0  0  0  0  0  0
  187.0340  178.2550  138.8960 C   0  0  0  0  0  1  0  0  0  0  0  0
  189.2780  177.3770  139.4570 C   0  0  0  0  0  2  0  0  0  0  0  0
  191.2790  177.1320  138.0800 N   0  0  0  0  0  0  0  0  0  0  0  0
  190.0810  177.0550  137.1980 C   0  0  0  0  0  2  0  0  0  0  0  0
  193.1300  177.2370  139.4720 O   0  0  0  0  0  0  0  0  0  0  0  0
  190.0370  177.9390  138.2590 C   0  0  1  0  0  3  0  0  0  0  0  0
  192.5820  176.7080  138.4740 C   0  0  0  0  0  0  0  0  0  0  0  0
  193.1240  173.2550  136.9360 C   0  0  0  0  0  2  0  0  0  0  0  0
  195.2210  174.9460  136.4000 C   0  0  0  0  0  2  0  0  0  0  0  0
  193.2640  175.6300  137.7470 C   0  0  0  0  0  0  0  0  0  0  0  0
  195.1100  173.4950  138.5530 C   0  0  0  0  0  2  0  0  0  0  0  0
  194.4810  172.7040  137.4140 C   0  0  2  0  0  3  0  0  0  0  0  0
  194.4200  175.8770  137.1970 N   0  0  0  0  0  0  0  0  0  0  0  0
  192.6530  174.3630  137.7010 O   0  0  0  0  0  0  0  0  0  0  0  0
  195.6500  173.6580  137.1410 C   0  0  1  0  0  3  0  0  0  0  0  0
  183.5400  179.2030  145.4580 N   0  0  0  0  0  2  0  0  0  0  0  0
  185.9670  178.3290  145.8350 C   0  0  0  0  0  0  0  0  0  0  0  0
  184.8440  178.7310  145.6630 C   0  0  0  0  0  0  0  0  0  0  0  0
  191.6690  176.8210  144.1430 C   0  0  0  0  0  2  0  0  0  0  0  0
  187.3090  177.8580  146.0230 C   0  0  0  0  0  0  0  0  0  0  0  0
  189.9370  176.9520  146.3780 C   0  0  0  0  0  0  0  0  0  0  0  0
  191.3280  176.4670  146.5230 C   0  0  0  0  0  0  0  0  0  0  0  0
  189.3850  177.0370  145.0860 C   0  0  0  0  0  0  0  0  0  0  0  0
  192.0870  176.3610  145.4710 N   0  0  0  0  0  0  0  0  0  0  0  0
  190.1800  176.5600  143.9080 C   0  0  0  0  0  2  0  0  0  0  0  0
  187.8520  177.7770  147.3090 C   0  0  0  0  0  3  0  0  0  0  0  0
  189.1640  177.3230  147.4890 C   0  0  0  0  0  3  0  0  0  0  0  0
  188.0710  177.4790  144.9130 C   0  0  0  0  0  3  0  0  0  0  0  0
  193.0750  175.9080  148.0350 O   0  0  0  0  0  0  0  0  0  0  0  0
  191.8410  176.0520  147.8350 C   0  0  0  0  0  3  0  0  0  0  0  0
  182.1590  178.2740  143.7360 N   0  0  0  0  0  2  0  0  0  0  0  0
  180.8240  178.7090  143.7510 N   0  0  0  0  0  2  0  0  0  0  0  0
  180.7840  179.9330  143.0640 N   0  0  0  0  0  2  0  0  0  0  0  0
  179.2500  178.2610  140.1870 C   0  0  0  0  0  3  0  0  0  0  0  0
  180.5500  180.1820  140.6340 C   0  0  2  0  0  3  0  0  0  0  0  0
  179.4550  180.9600  141.2600 N   0  0  0  0  0  2  0  0  0  0  0  0
  179.1740  178.4450  141.6580 C   0  0  0  0  0  2  0  0  0  0  0  0
  179.9900  179.2180  139.6390 C   0  0  0  0  0  0  0  0  0  0  0  0
  179.9590  179.7300  141.8830 C   0  0  2  0  0  0  0  0  0  0  0  0
  180.2230  179.3160  138.2260 N   0  0  0  0  0  0  0  0  0  0  0  0
  181.1920  180.2550  137.6800 C   0  0  0  0  0  1  0  0  0  0  0  0
  179.5700  178.3960  137.3070 C   0  0  0  0  0  1  0  0  0  0  0  0
  1  2  1  6  0  0  0
  1 25  1  0  0  0  0
  3  6  1  0  0  0  0
  3  2  1  0  0  0  0
  4  3  1  0  0  0  0
  5  4  1  0  0  0  0
  7  6  1  0  0  0  0
  8  7  1  0  0  0  0
  9 10  1  6  0  0  0
  9  8  1  0  0  0  0
 11  9  1  0  0  0  0
 12 15  1  0  0  0  0
 12 16  1  0  0  0  0
 13 12  1  0  0  0  0
 13 15  1  0  0  0  0
 15 11  1  1  0  0  0
 16 14  2  0  0  0  0
 17 23  1  0  0  0  0
 18 22  1  0  0  0  0
 19 16  1  0  0  0  0
 21 17  1  6  0  0  0
 21 20  1  0  0  0  0
 22 19  2  0  0  0  0
 23 19  1  0  0  0  0
 24 18  1  6  0  0  0
 24 21  1  0  0  0  0
 24 20  1  0  0  0  0
 25 27  1  0  0  0  0
 26 29  1  0  0  0  0
 27 26  3  0  0  0  0
 28 33  1  0  0  0  0
 29 35  1  0  0  0  0
 30 31  1  0  0  0  0
 30 36  1  0  0  0  0
 31 39  1  0  0  0  0
 32 30  2  0  0  0  0
 33 31  2  0  0  0  0
 34 28  1  0  0  0  0
 34 32  1  0  0  0  0
 35 36  2  0  0  0  0
 37 32  1  0  0  0  0
 37 29  2  0  0  0  0
 39 38  2  0  0  0  0
 40 41  1  0  0  0  0
 40  1  1  0  0  0  0
 42 41  1  0  0  0  0
 43 46  1  0  0  0  0
 44 47  1  6  0  0  0
 44 45  1  0  0  0  0
 44 48  1  0  0  0  0
 45 48  1  0  0  0  0
 46 48  1  0  0  0  0
 47 43  2  0  0  0  0
 48 42  1  1  0  0  0
 49 47  1  0  0  0  0
 50 49  1  0  0  0  0
 51 49  1  0  0  0  0
M  END
>  <MODEL>
1

>  <REMARK>
 VINA RESULT:      -8.0      0.000      0.000
  Name = 
  19 active torsions:
  status: ('A' for Active; 'I' for Inactive)
    1  A    between atoms: N_1  and  C_35
    2  A    between atoms: N_1  and  C_51
    3  A    between atoms: C_7  and  C_30
    4  A    between atoms: N_9  and  C_35
    5  A    between atoms: N_9  and  N_36
    6  A    between atoms: CA_12  and  C_22
    7  A    between atoms: N_13  and  N_21
    8  A    between atoms: N_13  and  N_46
    9  A    between atoms: C_16  and  C_43
   10  A    between atoms: N_21  and  C_48
   11  A    between atoms: C_25  and  C_38
   12  A    between atoms: C_25  and  N_40
   13  A    between atoms: N_27  and  C_47
   14  A    between atoms: C_28  and  C_33
   15  A    between atoms: C_28  and  N_36
   16  A    between atoms: C_33  and  N_40
   17  A    between atoms: C_34  and  N_36
   18  A    between atoms: C_35  and  N_46
   19  A    between atoms: C_38  and  C_42
                            x       y       z     vdW  Elec       q    Type
                         _______ _______ _______ _____ _____    ______ ____

>  <TORSDO>
F 19

$$$$
=
 OpenBabel11032419243D

 51 57  0  0  1  0  0  0  0  0999 V2000
  188.8160  177.5840  140.6370 C   0  0  2  0  0  3  0  0  0  0  0  0
  189.7820  178.0950  139.6690 N   0  0  0  0  0  2  0  0  0  0  0  0
  189.4600  177.5480  138.4160 N   0  0  0  0  0  0  0  0  0  0  0  0
  190.6620  176.8790  137.9370 C   0  0  0  0  0  2  0  0  0  0  0  0
  191.7290  176.9150  139.0120 C   0  0  0  0  0  1  0  0  0  0  0  0
  188.4580  176.5180  138.6590 C   0  0  0  0  0  2  0  0  0  0  0  0
  187.9770  175.9160  137.3470 C   0  0  0  0  0  2  0  0  0  0  0  0
  187.2600  176.9190  136.5690 N   0  0  0  0  0  2  0  0  0  0  0  0
  185.9030  176.4230  136.3710 C   0  0  2  0  0  3  0  0  0  0  0  0
  185.7620  175.8560  134.9690 C   0  0  0  0  0  1  0  0  0  0  0  0
  184.8860  177.5450  136.5510 C   0  0  0  0  0  2  0  0  0  0  0  0
  183.0820  178.5010  137.8890 N   0  0  0  0  0  0  0  0  0  0  0  0
  182.5770  177.2700  137.2190 C   0  0  0  0  0  2  0  0  0  0  0  0
  183.8820  180.4230  138.9090 O   0  0  0  0  0  0  0  0  0  0  0  0
  183.8850  177.2630  137.6670 C   0  0  1  0  0  3  0  0  0  0  0  0
  182.9250  179.8450  138.3370 C   0  0  0  0  0  0  0  0  0  0  0  0
  179.8960  181.1470  136.4110 C   0  0  0  0  0  2  0  0  0  0  0  0
  179.8230  181.9030  139.0500 C   0  0  0  0  0  2  0  0  0  0  0  0
  181.6700  180.5670  138.0940 C   0  0  0  0  0  0  0  0  0  0  0  0
  181.0400  183.3000  137.2280 C   0  0  0  0  0  2  0  0  0  0  0  0
  179.8040  182.6720  136.5990 C   0  0  2  0  0  3  0  0  0  0  0  0
  181.0930  181.1760  139.0920 N   0  0  0  0  0  0  0  0  0  0  0  0
  181.1580  180.5980  136.7830 O   0  0  0  0  0  0  0  0  0  0  0  0
  179.7910  183.1010  138.0710 C   0  0  1  0  0  3  0  0  0  0  0  0
  188.1660  178.6860  141.3330 N   0  0  0  0  0  2  0  0  0  0  0  0
  185.6290  178.5830  141.9240 C   0  0  0  0  0  0  0  0  0  0  0  0
  186.8030  178.6270  141.6520 C   0  0  0  0  0  0  0  0  0  0  0  0
  179.7300  177.0790  141.1540 C   0  0  0  0  0  2  0  0  0  0  0  0
  184.2310  178.5500  142.2460 C   0  0  0  0  0  0  0  0  0  0  0  0
  181.5020  178.4680  142.8710 C   0  0  0  0  0  0  0  0  0  0  0  0
  180.0510  178.4130  143.1600 C   0  0  0  0  0  0  0  0  0  0  0  0
  181.9450  178.1100  141.5840 C   0  0  0  0  0  0  0  0  0  0  0  0
  179.2490  177.8190  142.3250 N   0  0  0  0  0  0  0  0  0  0  0  0
  180.9420  177.7670  140.5230 C   0  0  0  0  0  2  0  0  0  0  0  0
  183.7970  178.9060  143.5270 C   0  0  0  0  0  3  0  0  0  0  0  0
  182.4340  178.8670  143.8400 C   0  0  0  0  0  3  0  0  0  0  0  0
  183.3060  178.1620  141.2730 C   0  0  0  0  0  3  0  0  0  0  0  0
  178.9310  180.1920  144.2720 O   0  0  0  0  0  0  0  0  0  0  0  0
  179.5020  179.0720  144.3520 C   0  0  0  0  0  3  0  0  0  0  0  0
  189.4730  176.6970  141.6000 N   0  0  0  0  0  2  0  0  0  0  0  0
  190.3260  177.4640  142.4100 N   0  0  0  0  0  2  0  0  0  0  0  0
  190.8410  176.6030  143.3920 N   0  0  0  0  0  2  0  0  0  0  0  0
  190.3680  177.0160  147.0010 C   0  0  0  0  0  3  0  0  0  0  0  0
  189.2600  177.5810  144.9930 C   0  0  2  0  0  3  0  0  0  0  0  0
  190.2030  178.6540  144.6000 N   0  0  0  0  0  2  0  0  0  0  0  0
  191.3760  176.8080  145.9320 C   0  0  0  0  0  2  0  0  0  0  0  0
  189.2250  177.4490  146.4810 C   0  0  0  0  0  0  0  0  0  0  0  0
  190.6410  177.2560  144.6770 C   0  0  2  0  0  0  0  0  0  0  0  0
  188.0710  177.7620  147.2750 N   0  0  0  0  0  0  0  0  0  0  0  0
  186.7570  177.9250  146.6730 C   0  0  0  0  0  1  0  0  0  0  0  0
  188.1700  177.8170  148.7260 C   0  0  0  0  0  1  0  0  0  0  0  0
  1  2  1  6  0  0  0
  1 25  1  0  0  0  0
  1 40  1  0  0  0  0
  3  6  1  0  0  0  0
  3  2  1  0  0  0  0
  4  3  1  0  0  0  0
  4  5  1  0  0  0  0
  7  6  1  0  0  0  0
  8  7  1  0  0  0  0
  9 10  1  6  0  0  0
  9 11  1  0  0  0  0
  9  8  1  0  0  0  0
 12 16  1  0  0  0  0
 13 15  1  0  0  0  0
 13 12  1  0  0  0  0
 15 11  1  6  0  0  0
 15 12  1  0  0  0  0
 16 14  2  0  0  0  0
 17 23  1  0  0  0  0
 18 22  1  0  0  0  0
 19 16  1  0  0  0  0
 19 22  2  0  0  0  0
 21 17  1  1  0  0  0
 21 20  1  0  0  0  0
 21 24  1  0  0  0  0
 23 19  1  0  0  0  0
 24 20  1  1  0  0  0
 24 18  1  0  0  0  0
 25 27  1  0  0  0  0
 26 29  1  0  0  0  0
 27 26  3  0  0  0  0
 28 33  1  0  0  0  0
 29 35  1  0  0  0  0
 30 31  1  0  0  0  0
 30 36  1  0  0  0  0
 31 39  1  0  0  0  0
 32 30  2  0  0  0  0
 33 31  2  0  0  0  0
 34 28  1  0  0  0  0
 34 32  1  0  0  0  0
 35 36  2  0  0  0  0
 37 32  1  0  0  0  0
 37 29  2  0  0  0  0
 38 39  2  0  0  0  0
 40 41  1  0  0  0  0
 41 42  1  0  0  0  0
 44 45  1  1  0  0  0
 44 47  1  0  0  0  0
 45 48  1  0  0  0  0
 46 43  1  0  0  0  0
 47 43  2  0  0  0  0
 47 49  1  0  0  0  0
 48 42  1  6  0  0  0
 48 44  1  0  0  0  0
 48 46  1  0  0  0  0
 49 51  1  0  0  0  0
 50 49  1  0  0  0  0
M  END
>  <MODEL>
2

>  <REMARK>
 VINA RESULT:      -7.8      3.809     10.604
  Name = 
  19 active torsions:
  status: ('A' for Active; 'I' for Inactive)
    1  A    between atoms: N_1  and  C_35
    2  A    between atoms: N_1  and  C_51
    3  A    between atoms: C_7  and  C_30
    4  A    between atoms: N_9  and  C_35
    5  A    between atoms: N_9  and  N_36
    6  A    between atoms: CA_12  and  C_22
    7  A    between atoms: N_13  and  N_21
    8  A    between atoms: N_13  and  N_46
    9  A    between atoms: C_16  and  C_43
   10  A    between atoms: N_21  and  C_48
   11  A    between atoms: C_25  and  C_38
   12  A    between atoms: C_25  and  N_40
   13  A    between atoms: N_27  and  C_47
   14  A    between atoms: C_28  and  C_33
   15  A    between atoms: C_28  and  N_36
   16  A    between atoms: C_33  and  N_40
   17  A    between atoms: C_34  and  N_36
   18  A    between atoms: C_35  and  N_46
   19  A    between atoms: C_38  and  C_42
                            x       y       z     vdW  Elec       q    Type
                         _______ _______ _______ _____ _____    ______ ____

>  <TORSDO>
F 19

$$$$
=
 OpenBabel11032419243D

 51 57  0  0  1  0  0  0  0  0999 V2000
  189.5390  177.2120  140.8520 C   0  0  2  0  0  3  0  0  0  0  0  0
  190.4980  177.7630  139.8990 N   0  0  0  0  0  2  0  0  0  0  0  0
  190.1030  177.3590  138.6130 N   0  0  0  0  0  0  0  0  0  0  0  0
  190.9450  176.2260  138.2600 C   0  0  0  0  0  2  0  0  0  0  0  0
  190.1110  175.1640  137.5720 C   0  0  0  0  0  1  0  0  0  0  0  0
  188.7380  176.8640  138.7370 C   0  0  0  0  0  2  0  0  0  0  0  0
  187.7540  177.8370  138.1030 C   0  0  0  0  0  2  0  0  0  0  0  0
  187.5400  177.4910  136.7030 N   0  0  0  0  0  2  0  0  0  0  0  0
  186.4860  176.4830  136.6650 C   0  0  2  0  0  3  0  0  0  0  0  0
  186.8610  175.3830  135.6860 C   0  0  0  0  0  1  0  0  0  0  0  0
  185.1630  177.1010  136.2250 C   0  0  0  0  0  2  0  0  0  0  0  0
  182.9730  176.3120  136.9590 N   0  0  0  0  0  0  0  0  0  0  0  0
  183.9810  175.9470  137.9920 C   0  0  0  0  0  2  0  0  0  0  0  0
  181.4220  176.8730  135.3290 O   0  0  0  0  0  0  0  0  0  0  0  0
  184.1350  177.1610  137.3500 C   0  0  1  0  0  3  0  0  0  0  0  0
  181.8210  176.0280  136.1680 C   0  0  0  0  0  0  0  0  0  0  0  0
  179.8790  173.2000  137.8440 C   0  0  0  0  0  2  0  0  0  0  0  0
  180.2900  172.7060  135.1740 C   0  0  0  0  0  2  0  0  0  0  0  0
  181.1280  174.7400  136.3010 C   0  0  0  0  0  0  0  0  0  0  0  0
  182.0090  172.0290  137.0020 C   0  0  0  0  0  2  0  0  0  0  0  0
  180.6100  171.8700  137.5820 C   0  0  2  0  0  3  0  0  0  0  0  0
  180.9870  173.9910  135.2430 N   0  0  0  0  0  0  0  0  0  0  0  0
  180.6730  174.3540  137.5750 O   0  0  0  0  0  0  0  0  0  0  0  0
  180.8660  171.6040  136.0950 C   0  0  1  0  0  3  0  0  0  0  0  0
  188.9450  178.2780  141.6470 N   0  0  0  0  0  2  0  0  0  0  0  0
  186.3650  178.4030  141.9930 C   0  0  0  0  0  0  0  0  0  0  0  0
  187.5580  178.3430  141.8360 C   0  0  0  0  0  0  0  0  0  0  0  0
  180.4720  177.6210  140.4710 C   0  0  0  0  0  2  0  0  0  0  0  0
  184.9430  178.4880  142.1670 C   0  0  0  0  0  0  0  0  0  0  0  0
  182.1650  178.6380  142.4990 C   0  0  0  0  0  0  0  0  0  0  0  0
  180.6930  178.7100  142.6320 C   0  0  0  0  0  0  0  0  0  0  0  0
  182.7130  178.3620  141.2330 C   0  0  0  0  0  0  0  0  0  0  0  0
  179.9350  178.2890  141.6600 N   0  0  0  0  0  0  0  0  0  0  0  0
  181.8070  178.2340  140.0440 C   0  0  0  0  0  2  0  0  0  0  0  0
  184.4040  178.7610  143.4280 C   0  0  0  0  0  3  0  0  0  0  0  0
  183.0170  178.8380  143.5960 C   0  0  0  0  0  3  0  0  0  0  0  0
  184.0990  178.2980  141.0680 C   0  0  0  0  0  3  0  0  0  0  0  0
  179.0490  180.0230  143.7410 O   0  0  0  0  0  0  0  0  0  0  0  0
  180.0790  179.3040  143.8270 C   0  0  0  0  0  3  0  0  0  0  0  0
  190.1880  176.2320  141.7260 N   0  0  0  0  0  2  0  0  0  0  0  0
  191.1160  176.9010  142.5410 N   0  0  0  0  0  2  0  0  0  0  0  0
  191.3800  176.0610  143.6350 N   0  0  0  0  0  2  0  0  0  0  0  0
  190.6270  176.7970  147.1430 C   0  0  0  0  0  3  0  0  0  0  0  0
  189.7000  177.2060  145.0100 C   0  0  2  0  0  3  0  0  0  0  0  0
  190.7010  178.2220  144.6050 N   0  0  0  0  0  2  0  0  0  0  0  0
  191.7120  176.4760  146.1830 C   0  0  0  0  0  2  0  0  0  0  0  0
  189.5420  177.2050  146.4950 C   0  0  0  0  0  0  0  0  0  0  0  0
  191.0940  176.8270  144.8380 C   0  0  2  0  0  0  0  0  0  0  0  0
  188.3360  177.6100  147.1610 N   0  0  0  0  0  0  0  0  0  0  0  0
  188.3130  177.8830  148.5900 C   0  0  0  0  0  1  0  0  0  0  0  0
  187.1230  177.8620  146.3970 C   0  0  0  0  0  1  0  0  0  0  0  0
  1  2  1  6  0  0  0
  1 25  1  0  0  0  0
  1 40  1  0  0  0  0
  3  6  1  0  0  0  0
  3  2  1  0  0  0  0
  4  3  1  0  0  0  0
  5  4  1  0  0  0  0
  7  6  1  0  0  0  0
  8  7  1  0  0  0  0
  9 10  1  6  0  0  0
  9  8  1  0  0  0  0
 11  9  1  0  0  0  0
 12 15  1  0  0  0  0
 12 13  1  0  0  0  0
 14 16  2  0  0  0  0
 15 11  1  6  0  0  0
 15 13  1  0  0  0  0
 16 19  1  0  0  0  0
 16 12  1  0  0  0  0
 18 22  1  0  0  0  0
 19 23  1  0  0  0  0
 21 20  1  1  0  0  0
 21 17  1  0  0  0  0
 22 19  2  0  0  0  0
 23 17  1  0  0  0  0
 24 18  1  6  0  0  0
 24 20  1  0  0  0  0
 24 21  1  0  0  0  0
 25 27  1  0  0  0  0
 26 29  1  0  0  0  0
 27 26  3  0  0  0  0
 28 33  1  0  0  0  0
 29 35  1  0  0  0  0
 30 31  1  0  0  0  0
 30 36  1  0  0  0  0
 31 39  1  0  0  0  0
 32 30  2  0  0  0  0
 33 31  2  0  0  0  0
 34 28  1  0  0  0  0
 34 32  1  0  0  0  0
 35 36  2  0  0  0  0
 37 32  1  0  0  0  0
 37 29  2  0  0  0  0
 38 39  2  0  0  0  0
 40 41  1  0  0  0  0
 41 42  1  0  0  0  0
 44 45  1  1  0  0  0
 44 47  1  0  0  0  0
 45 48  1  0  0  0  0
 46 43  1  0  0  0  0
 47 43  2  0  0  0  0
 47 49  1  0  0  0  0
 48 42  1  6  0  0  0
 48 44  1  0  0  0  0
 48 46  1  0  0  0  0
 49 50  1  0  0  0  0
 51 49  1  0  0  0  0
M  END
>  <MODEL>
3

>  <REMARK>
 VINA RESULT:      -7.7      4.341     10.163
  Name = 
  19 active torsions:
  status: ('A' for Active; 'I' for Inactive)
    1  A    between atoms: N_1  and  C_35
    2  A    between atoms: N_1  and  C_51
    3  A    between atoms: C_7  and  C_30
    4  A    between atoms: N_9  and  C_35
    5  A    between atoms: N_9  and  N_36
    6  A    between atoms: CA_12  and  C_22
    7  A    between atoms: N_13  and  N_21
    8  A    between atoms: N_13  and  N_46
    9  A    between atoms: C_16  and  C_43
   10  A    between atoms: N_21  and  C_48
   11  A    between atoms: C_25  and  C_38
   12  A    between atoms: C_25  and  N_40
   13  A    between atoms: N_27  and  C_47
   14  A    between atoms: C_28  and  C_33
   15  A    between atoms: C_28  and  N_36
   16  A    between atoms: C_33  and  N_40
   17  A    between atoms: C_34  and  N_36
   18  A    between atoms: C_35  and  N_46
   19  A    between atoms: C_38  and  C_42
                            x       y       z     vdW  Elec       q    Type
                         _______ _______ _______ _____ _____    ______ ____

>  <TORSDO>
F 19

$$$$
=
 OpenBabel11032419243D

 51 57  0  0  1  0  0  0  0  0999 V2000
  182.8680  179.2560  143.7650 C   0  0  2  0  0  3  0  0  0  0  0  0
  183.6300  178.4170  142.8460 N   0  0  0  0  0  2  0  0  0  0  0  0
  184.2240  179.2580  141.8910 N   0  0  0  0  0  0  0  0  0  0  0  0
  185.6520  178.9740  141.9230 C   0  0  0  0  0  2  0  0  0  0  0  0
  186.1610  178.7620  140.5110 C   0  0  0  0  0  1  0  0  0  0  0  0
  183.7240  178.8270  140.5920 C   0  0  0  0  0  2  0  0  0  0  0  0
  183.4420  177.3320  140.5950 C   0  0  0  0  0  2  0  0  0  0  0  0
  182.4200  177.0140  139.6060 N   0  0  0  0  0  2  0  0  0  0  0  0
  183.1100  176.5910  138.3920 C   0  0  2  0  0  3  0  0  0  0  0  0
  182.2530  176.9010  137.1770 C   0  0  0  0  0  1  0  0  0  0  0  0
  183.3900  175.0930  138.4250 C   0  0  0  0  0  2  0  0  0  0  0  0
  185.4470  175.0280  137.1120 N   0  0  0  0  0  0  0  0  0  0  0  0
  185.0010  173.6300  137.3680 C   0  0  0  0  0  2  0  0  0  0  0  0
  186.1330  177.2110  136.7400 O   0  0  0  0  0  0  0  0  0  0  0  0
  184.0240  174.5800  137.1360 C   0  0  1  0  0  3  0  0  0  0  0  0
  186.4590  176.0260  136.9980 C   0  0  0  0  0  0  0  0  0  0  0  0
  189.9890  176.2810  138.4300 C   0  0  0  0  0  2  0  0  0  0  0  0
  189.7150  174.0960  136.7880 C   0  0  0  0  0  2  0  0  0  0  0  0
  187.8690  175.6820  137.2200 C   0  0  0  0  0  0  0  0  0  0  0  0
  190.3730  176.4440  135.8920 C   0  0  0  0  0  2  0  0  0  0  0  0
  191.0000  176.2680  137.2680 C   0  0  2  0  0  3  0  0  0  0  0  0
  188.3540  174.6170  136.6470 N   0  0  0  0  0  0  0  0  0  0  0  0
  188.6480  176.5400  138.0200 O   0  0  0  0  0  0  0  0  0  0  0  0
  190.8320  175.0640  136.3330 C   0  0  1  0  0  3  0  0  0  0  0  0
  183.3530  179.0870  145.1270 N   0  0  0  0  0  2  0  0  0  0  0  0
  185.8030  178.3200  145.5790 C   0  0  0  0  0  0  0  0  0  0  0  0
  184.6700  178.6760  145.3730 C   0  0  0  0  0  0  0  0  0  0  0  0
  191.5200  176.7200  144.0260 C   0  0  0  0  0  2  0  0  0  0  0  0
  187.1510  177.8840  145.8080 C   0  0  0  0  0  0  0  0  0  0  0  0
  189.7890  177.0460  146.2420 C   0  0  0  0  0  0  0  0  0  0  0  0
  191.1850  176.5920  146.4300 C   0  0  0  0  0  0  0  0  0  0  0  0
  189.2350  177.0000  144.9500 C   0  0  0  0  0  0  0  0  0  0  0  0
  191.9440  176.3930  145.3910 N   0  0  0  0  0  0  0  0  0  0  0  0
  190.0340  176.4210  143.8200 C   0  0  0  0  0  2  0  0  0  0  0  0
  187.6970  177.9330  147.0950 C   0  0  0  0  0  3  0  0  0  0  0  0
  189.0130  177.5130  147.3140 C   0  0  0  0  0  3  0  0  0  0  0  0
  187.9160  177.4090  144.7380 C   0  0  0  0  0  3  0  0  0  0  0  0
  192.9130  176.0090  147.9550 O   0  0  0  0  0  0  0  0  0  0  0  0
  191.7040  176.3110  147.7740 C   0  0  0  0  0  3  0  0  0  0  0  0
  181.4410  178.9330  143.6940 N   0  0  0  0  0  2  0  0  0  0  0  0
  180.9030  179.5200  142.5370 N   0  0  0  0  0  2  0  0  0  0  0  0
  180.2590  178.4990  141.8210 N   0  0  0  0  0  2  0  0  0  0  0  0
  179.2580  179.0300  138.3370 C   0  0  0  0  0  3  0  0  0  0  0  0
  180.4290  180.1760  140.0380 C   0  0  2  0  0  3  0  0  0  0  0  0
  179.2300  180.5130  140.8420 N   0  0  0  0  0  2  0  0  0  0  0  0
  178.9350  178.2990  139.5880 C   0  0  0  0  0  2  0  0  0  0  0  0
  180.0610  180.0560  138.5960 C   0  0  0  0  0  0  0  0  0  0  0  0
  179.6460  179.1180  140.6560 C   0  0  2  0  0  0  0  0  0  0  0  0
  180.5250  180.9620  137.5830 N   0  0  0  0  0  0  0  0  0  0  0  0
  181.2820  182.1570  137.9240 C   0  0  0  0  0  1  0  0  0  0  0  0
  180.3400  180.6480  136.1740 C   0  0  0  0  0  1  0  0  0  0  0  0
  1  2  1  6  0  0  0
  1 25  1  0  0  0  0
  3  4  1  0  0  0  0
  3  2  1  0  0  0  0
  5  4  1  0  0  0  0
  6  7  1  0  0  0  0
  6  3  1  0  0  0  0
  8  7  1  0  0  0  0
  9 10  1  6  0  0  0
  9 11  1  0  0  0  0
  9  8  1  0  0  0  0
 12 15  1  0  0  0  0
 12 13  1  0  0  0  0
 14 16  2  0  0  0  0
 15 13  1  0  0  0  0
 15 11  1  1  0  0  0
 16 12  1  0  0  0  0
 16 19  1  0  0  0  0
 19 23  1  0  0  0  0
 21 20  1  6  0  0  0
 21 17  1  0  0  0  0
 22 18  1  0  0  0  0
 22 19  2  0  0  0  0
 23 17  1  0  0  0  0
 24 20  1  6  0  0  0
 24 18  1  0  0  0  0
 24 21  1  0  0  0  0
 25 27  1  0  0  0  0
 26 29  1  0  0  0  0
 27 26  3  0  0  0  0
 28 33  1  0  0  0  0
 29 35  1  0  0  0  0
 30 31  1  0  0  0  0
 30 36  1  0  0  0  0
 31 39  1  0  0  0  0
 32 30  2  0  0  0  0
 33 31  2  0  0  0  0
 34 28  1  0  0  0  0
 34 32  1  0  0  0  0
 35 36  2  0  0  0  0
 37 32  1  0  0  0  0
 37 29  2  0  0  0  0
 39 38  2  0  0  0  0
 40  1  1  0  0  0  0
 41 40  1  0  0  0  0
 42 41  1  0  0  0  0
 43 47  2  0  0  0  0
 43 46  1  0  0  0  0
 44 47  1  6  0  0  0
 44 48  1  0  0  0  0
 44 45  1  0  0  0  0
 46 48  1  0  0  0  0
 48 45  1  0  0  0  0
 48 42  1  1  0  0  0
 49 50  1  0  0  0  0
 49 47  1  0  0  0  0
 51 49  1  0  0  0  0
M  END
>  <MODEL>
4

>  <REMARK>
 VINA RESULT:      -7.5      2.275      3.578
  Name = 
  19 active torsions:
  status: ('A' for Active; 'I' for Inactive)
    1  A    between atoms: N_1  and  C_35
    2  A    between atoms: N_1  and  C_51
    3  A    between atoms: C_7  and  C_30
    4  A    between atoms: N_9  and  C_35
    5  A    between atoms: N_9  and  N_36
    6  A    between atoms: CA_12  and  C_22
    7  A    between atoms: N_13  and  N_21
    8  A    between atoms: N_13  and  N_46
    9  A    between atoms: C_16  and  C_43
   10  A    between atoms: N_21  and  C_48
   11  A    between atoms: C_25  and  C_38
   12  A    between atoms: C_25  and  N_40
   13  A    between atoms: N_27  and  C_47
   14  A    between atoms: C_28  and  C_33
   15  A    between atoms: C_28  and  N_36
   16  A    between atoms: C_33  and  N_40
   17  A    between atoms: C_34  and  N_36
   18  A    between atoms: C_35  and  N_46
   19  A    between atoms: C_38  and  C_42
                            x       y       z     vdW  Elec       q    Type
                         _______ _______ _______ _____ _____    ______ ____

>  <TORSDO>
F 19

$$$$
=
 OpenBabel11032419243D

 51 57  0  0  1  0  0  0  0  0999 V2000
  180.9370  178.8520  141.3860 C   0  0  2  0  0  3  0  0  0  0  0  0
  181.8500  177.7820  140.9970 N   0  0  0  0  0  2  0  0  0  0  0  0
  182.8140  178.3340  140.1380 N   0  0  0  0  0  0  0  0  0  0  0  0
  184.1100  177.8940  140.6360 C   0  0  0  0  0  2  0  0  0  0  0  0
  185.0780  179.0600  140.6370 C   0  0  0  0  0  1  0  0  0  0  0  0
  182.6140  177.7100  138.8370 C   0  0  0  0  0  2  0  0  0  0  0  0
  182.2010  176.2540  138.9980 C   0  0  0  0  0  2  0  0  0  0  0  0
  181.2350  175.8920  137.9680 N   0  0  0  0  0  2  0  0  0  0  0  0
  181.8100  174.7910  137.2030 C   0  0  2  0  0  3  0  0  0  0  0  0
  181.0460  173.5100  137.4870 C   0  0  0  0  0  1  0  0  0  0  0  0
  183.2740  174.5830  137.5760 C   0  0  0  0  0  2  0  0  0  0  0  0
  185.2700  175.6230  136.6310 N   0  0  0  0  0  0  0  0  0  0  0  0
  185.4710  174.1470  136.6620 C   0  0  0  0  0  2  0  0  0  0  0  0
  184.9450  177.9180  136.6090 O   0  0  0  0  0  0  0  0  0  0  0  0
  184.2040  174.6130  136.3670 C   0  0  1  0  0  3  0  0  0  0  0  0
  185.7360  176.9600  136.7940 C   0  0  0  0  0  0  0  0  0  0  0  0
  189.2130  176.2360  138.1970 C   0  0  0  0  0  2  0  0  0  0  0  0
  188.9870  178.8330  137.3340 C   0  0  0  0  0  2  0  0  0  0  0  0
  187.1180  177.2200  137.2160 C   0  0  0  0  0  0  0  0  0  0  0  0
  188.3350  178.0980  139.7390 C   0  0  0  0  0  2  0  0  0  0  0  0
  189.5310  177.2660  139.2950 C   0  0  2  0  0  3  0  0  0  0  0  0
  187.6220  178.4060  137.0210 N   0  0  0  0  0  0  0  0  0  0  0  0
  187.8320  176.1810  137.8440 O   0  0  0  0  0  0  0  0  0  0  0  0
  189.3790  178.7180  138.8260 C   0  0  1  0  0  3  0  0  0  0  0  0
  181.1270  179.1960  142.7880 N   0  0  0  0  0  2  0  0  0  0  0  0
  183.3900  178.7060  143.9870 C   0  0  0  0  0  0  0  0  0  0  0  0
  182.3430  178.9300  143.4330 C   0  0  0  0  0  0  0  0  0  0  0  0
  189.3780  177.4050  144.3190 C   0  0  0  0  0  2  0  0  0  0  0  0
  184.6440  178.4570  144.6390 C   0  0  0  0  0  0  0  0  0  0  0  0
  187.1000  177.9820  145.8990 C   0  0  0  0  0  0  0  0  0  0  0  0
  188.4130  177.7130  146.5290 C   0  0  0  0  0  0  0  0  0  0  0  0
  186.9180  177.6330  144.5480 C   0  0  0  0  0  0  0  0  0  0  0  0
  189.4320  177.3920  145.7840 N   0  0  0  0  0  0  0  0  0  0  0  0
  188.0160  176.9280  143.8100 C   0  0  0  0  0  2  0  0  0  0  0  0
  184.8190  178.8070  145.9820 C   0  0  0  0  0  3  0  0  0  0  0  0
  186.0450  178.5690  146.6130 C   0  0  0  0  0  3  0  0  0  0  0  0
  185.6890  177.8620  143.9250 C   0  0  0  0  0  3  0  0  0  0  0  0
  189.6630  178.0420  148.5240 O   0  0  0  0  0  0  0  0  0  0  0  0
  188.5620  177.7490  147.9890 C   0  0  0  0  0  3  0  0  0  0  0  0
  179.5480  178.4550  141.1490 N   0  0  0  0  0  2  0  0  0  0  0  0
  178.9320  179.4310  140.3470 N   0  0  0  0  0  2  0  0  0  0  0  0
  179.5030  179.3300  139.0690 N   0  0  0  0  0  2  0  0  0  0  0  0
  179.7160  181.9590  136.5260 C   0  0  0  0  0  3  0  0  0  0  0  0
  180.3140  181.6290  138.7870 C   0  0  2  0  0  3  0  0  0  0  0  0
  178.9330  181.7150  139.3190 N   0  0  0  0  0  2  0  0  0  0  0  0
  178.9730  180.7460  136.9490 C   0  0  0  0  0  2  0  0  0  0  0  0
  180.4320  182.4380  137.5370 C   0  0  0  0  0  0  0  0  0  0  0  0
  179.3300  180.6220  138.4230 C   0  0  2  0  0  0  0  0  0  0  0  0
  181.2380  183.6220  137.4350 N   0  0  0  0  0  0  0  0  0  0  0  0
  182.5460  183.7060  138.0650 C   0  0  0  0  0  1  0  0  0  0  0  0
  180.8070  184.7350  136.6020 C   0  0  0  0  0  1  0  0  0  0  0  0
  1  2  1  1  0  0  0
  1 25  1  0  0  0  0
  3  4  1  0  0  0  0
  3  2  1  0  0  0  0
  4  5  1  0  0  0  0
  6  7  1  0  0  0  0
  6  3  1  0  0  0  0
  8  7  1  0  0  0  0
  9 10  1  1  0  0  0
  9 11  1  0  0  0  0
  9  8  1  0  0  0  0
 12 13  1  0  0  0  0
 12 16  1  0  0  0  0
 14 16  2  0  0  0  0
 15 12  1  0  0  0  0
 15 13  1  0  0  0  0
 15 11  1  1  0  0  0
 16 19  1  0  0  0  0
 19 23  1  0  0  0  0
 21 17  1  6  0  0  0
 21 20  1  0  0  0  0
 22 19  2  0  0  0  0
 22 18  1  0  0  0  0
 23 17  1  0  0  0  0
 24 18  1  6  0  0  0
 24 21  1  0  0  0  0
 24 20  1  0  0  0  0
 25 27  1  0  0  0  0
 26 29  1  0  0  0  0
 27 26  3  0  0  0  0
 28 33  1  0  0  0  0
 29 35  1  0  0  0  0
 30 31  1  0  0  0  0
 30 36  1  0  0  0  0
 31 39  1  0  0  0  0
 32 30  2  0  0  0  0
 33 31  2  0  0  0  0
 34 28  1  0  0  0  0
 34 32  1  0  0  0  0
 35 36  2  0  0  0  0
 37 32  1  0  0  0  0
 37 29  2  0  0  0  0
 39 38  2  0  0  0  0
 40  1  1  0  0  0  0
 41 40  1  0  0  0  0
 42 41  1  0  0  0  0
 43 46  1  0  0  0  0
 43 47  2  0  0  0  0
 44 47  1  6  0  0  0
 44 45  1  0  0  0  0
 46 48  1  0  0  0  0
 48 44  1  0  0  0  0
 48 42  1  1  0  0  0
 48 45  1  0  0  0  0
 49 47  1  0  0  0  0
 49 50  1  0  0  0  0
 51 49  1  0  0  0  0
M  END
>  <MODEL>
5

>  <REMARK>
 VINA RESULT:      -7.3      3.171      5.067
  Name = 
  19 active torsions:
  status: ('A' for Active; 'I' for Inactive)
    1  A    between atoms: N_1  and  C_35
    2  A    between atoms: N_1  and  C_51
    3  A    between atoms: C_7  and  C_30
    4  A    between atoms: N_9  and  C_35
    5  A    between atoms: N_9  and  N_36
    6  A    between atoms: CA_12  and  C_22
    7  A    between atoms: N_13  and  N_21
    8  A    between atoms: N_13  and  N_46
    9  A    between atoms: C_16  and  C_43
   10  A    between atoms: N_21  and  C_48
   11  A    between atoms: C_25  and  C_38
   12  A    between atoms: C_25  and  N_40
   13  A    between atoms: N_27  and  C_47
   14  A    between atoms: C_28  and  C_33
   15  A    between atoms: C_28  and  N_36
   16  A    between atoms: C_33  and  N_40
   17  A    between atoms: C_34  and  N_36
   18  A    between atoms: C_35  and  N_46
   19  A    between atoms: C_38  and  C_42
                            x       y       z     vdW  Elec       q    Type
                         _______ _______ _______ _____ _____    ______ ____

>  <TORSDO>
F 19

$$$$
=
 OpenBabel11032419243D

 51 57  0  0  1  0  0  0  0  0999 V2000
  187.6890  177.0410  143.2190 C   0  0  2  0  0  3  0  0  0  0  0  0
  189.1310  176.8420  143.3350 N   0  0  0  0  0  2  0  0  0  0  0  0
  189.7560  177.6960  142.4130 N   0  0  0  0  0  0  0  0  0  0  0  0
  191.0400  178.0610  142.9930 C   0  0  0  0  0  2  0  0  0  0  0  0
  190.8230  178.9990  144.1640 C   0  0  0  0  0  1  0  0  0  0  0  0
  190.0280  176.8940  141.2260 C   0  0  0  0  0  2  0  0  0  0  0  0
  189.3700  177.5100  140.0000 C   0  0  0  0  0  2  0  0  0  0  0  0
  190.0070  177.0120  138.7870 N   0  0  0  0  0  2  0  0  0  0  0  0
  189.1210  177.3270  137.6730 C   0  0  2  0  0  3  0  0  0  0  0  0
  189.0580  178.8310  137.4720 C   0  0  0  0  0  1  0  0  0  0  0  0
  187.7120  176.8080  137.9400 C   0  0  0  0  0  2  0  0  0  0  0  0
  185.6540  175.8840  137.0080 N   0  0  0  0  0  0  0  0  0  0  0  0
  185.6880  177.3470  136.7310 C   0  0  0  0  0  2  0  0  0  0  0  0
  185.6130  173.6110  137.4640 O   0  0  0  0  0  0  0  0  0  0  0  0
  186.8840  176.6580  136.6680 C   0  0  1  0  0  3  0  0  0  0  0  0
  184.9720  174.6870  137.3750 C   0  0  0  0  0  0  0  0  0  0  0  0
  181.2830  173.7130  137.2130 C   0  0  0  0  0  2  0  0  0  0  0  0
  181.7380  175.6580  139.0980 C   0  0  0  0  0  2  0  0  0  0  0  0
  183.5380  174.7160  137.6900 C   0  0  0  0  0  0  0  0  0  0  0  0
  181.2570  176.2130  136.6050 C   0  0  0  0  0  2  0  0  0  0  0  0
  180.4430  174.9830  136.9850 C   0  0  2  0  0  3  0  0  0  0  0  0
  183.1150  175.5250  138.6210 N   0  0  0  0  0  0  0  0  0  0  0  0
  182.6740  173.8900  136.9470 O   0  0  0  0  0  0  0  0  0  0  0  0
  180.7140  176.0820  138.0190 C   0  0  1  0  0  3  0  0  0  0  0  0
  187.4040  178.3000  142.5460 N   0  0  0  0  0  2  0  0  0  0  0  0
  185.1050  178.7050  141.3860 C   0  0  0  0  0  0  0  0  0  0  0  0
  186.1660  178.5170  141.9250 C   0  0  0  0  0  0  0  0  0  0  0  0
  179.0210  179.4050  140.9960 C   0  0  0  0  0  2  0  0  0  0  0  0
  183.8510  178.9380  140.7280 C   0  0  0  0  0  0  0  0  0  0  0  0
  181.3980  179.4040  139.4580 C   0  0  0  0  0  0  0  0  0  0  0  0
  180.0810  179.6330  138.8210 C   0  0  0  0  0  0  0  0  0  0  0  0
  181.4310  178.8690  140.7590 C   0  0  0  0  0  0  0  0  0  0  0  0
  178.9970  179.5710  139.5400 N   0  0  0  0  0  0  0  0  0  0  0  0
  180.1510  178.4700  141.4300 C   0  0  0  0  0  2  0  0  0  0  0  0
  183.8240  179.4710  139.4350 C   0  0  0  0  0  3  0  0  0  0  0  0
  182.5990  179.7020  138.7980 C   0  0  0  0  0  3  0  0  0  0  0  0
  182.6570  178.6280  141.3860 C   0  0  0  0  0  3  0  0  0  0  0  0
  179.2820  179.1330  136.6380 O   0  0  0  0  0  0  0  0  0  0  0  0
  179.9830  179.8750  137.3760 C   0  0  0  0  0  3  0  0  0  0  0  0
  187.0580  177.0200  144.5410 N   0  0  0  0  0  2  0  0  0  0  0  0
  187.5750  178.0820  145.3020 N   0  0  0  0  0  2  0  0  0  0  0  0
  187.0850  177.9250  146.6080 N   0  0  0  0  0  2  0  0  0  0  0  0
  190.3570  178.1030  148.2460 C   0  0  0  0  0  3  0  0  0  0  0  0
  189.1660  176.6420  146.8240 C   0  0  2  0  0  3  0  0  0  0  0  0
  188.2370  176.1450  147.8650 N   0  0  0  0  0  2  0  0  0  0  0  0
  188.9480  178.5650  148.3110 C   0  0  0  0  0  2  0  0  0  0  0  0
  190.4620  177.0500  147.4440 C   0  0  0  0  0  0  0  0  0  0  0  0
  188.2150  177.5510  147.4440 C   0  0  2  0  0  0  0  0  0  0  0  0
  191.7030  176.3680  147.2040 N   0  0  0  0  0  0  0  0  0  0  0  0
  192.5900  175.9990  148.2960 C   0  0  0  0  0  1  0  0  0  0  0  0
  192.0530  175.9310  145.8610 C   0  0  0  0  0  1  0  0  0  0  0  0
  1 25  1  1  0  0  0
  1  2  1  0  0  0  0
  1 40  1  0  0  0  0
  3  4  1  0  0  0  0
  3  2  1  0  0  0  0
  4  5  1  0  0  0  0
  6  3  1  0  0  0  0
  7  6  1  0  0  0  0
  8  7  1  0  0  0  0
  9 10  1  1  0  0  0
  9 11  1  0  0  0  0
  9  8  1  0  0  0  0
 12 16  1  0  0  0  0
 13 12  1  0  0  0  0
 15 13  1  0  0  0  0
 15 12  1  0  0  0  0
 15 11  1  1  0  0  0
 16 14  2  0  0  0  0
 16 19  1  0  0  0  0
 19 22  2  0  0  0  0
 21 20  1  6  0  0  0
 21 17  1  0  0  0  0
 21 24  1  0  0  0  0
 22 18  1  0  0  0  0
 23 17  1  0  0  0  0
 23 19  1  0  0  0  0
 24 20  1  6  0  0  0
 24 18  1  0  0  0  0
 26 27  3  0  0  0  0
 27 25  1  0  0  0  0
 28 34  1  0  0  0  0
 29 37  1  0  0  0  0
 29 26  1  0  0  0  0
 30 32  1  0  0  0  0
 31 30  1  0  0  0  0
 31 33  2  0  0  0  0
 32 37  2  0  0  0  0
 32 34  1  0  0  0  0
 33 28  1  0  0  0  0
 35 29  2  0  0  0  0
 36 35  1  0  0  0  0
 36 30  2  0  0  0  0
 38 39  2  0  0  0  0
 39 31  1  0  0  0  0
 40 41  1  0  0  0  0
 41 42  1  0  0  0  0
 43 46  1  0  0  0  0
 44 47  1  1  0  0  0
 44 48  1  0  0  0  0
 44 45  1  0  0  0  0
 47 43  2  0  0  0  0
 48 42  1  6  0  0  0
 48 45  1  0  0  0  0
 48 46  1  0  0  0  0
 49 47  1  0  0  0  0
 49 50  1  0  0  0  0
 51 49  1  0  0  0  0
M  END
>  <MODEL>
6

>  <REMARK>
 VINA RESULT:      -7.2      3.903     10.256
  Name = 
  19 active torsions:
  status: ('A' for Active; 'I' for Inactive)
    1  A    between atoms: N_1  and  C_35
    2  A    between atoms: N_1  and  C_51
    3  A    between atoms: C_7  and  C_30
    4  A    between atoms: N_9  and  C_35
    5  A    between atoms: N_9  and  N_36
    6  A    between atoms: CA_12  and  C_22
    7  A    between atoms: N_13  and  N_21
    8  A    between atoms: N_13  and  N_46
    9  A    between atoms: C_16  and  C_43
   10  A    between atoms: N_21  and  C_48
   11  A    between atoms: C_25  and  C_38
   12  A    between atoms: C_25  and  N_40
   13  A    between atoms: N_27  and  C_47
   14  A    between atoms: C_28  and  C_33
   15  A    between atoms: C_28  and  N_36
   16  A    between atoms: C_33  and  N_40
   17  A    between atoms: C_34  and  N_36
   18  A    between atoms: C_35  and  N_46
   19  A    between atoms: C_38  and  C_42
                            x       y       z     vdW  Elec       q    Type
                         _______ _______ _______ _____ _____    ______ ____

>  <TORSDO>
F 19

$$$$
=
 OpenBabel11032419243D

 51 57  0  0  1  0  0  0  0  0999 V2000
  191.3620  176.6690  138.9330 C   0  0  2  0  0  3  0  0  0  0  0  0
  190.2350  177.5740  138.7260 N   0  0  0  0  0  2  0  0  0  0  0  0
  189.9170  177.5540  137.3590 N   0  0  0  0  0  0  0  0  0  0  0  0
  189.3320  176.2470  137.0910 C   0  0  0  0  0  2  0  0  0  0  0  0
  190.1870  175.5020  136.0870 C   0  0  0  0  0  1  0  0  0  0  0  0
  188.8690  178.5470  137.1640 C   0  0  0  0  0  2  0  0  0  0  0  0
  187.7750  178.3860  138.2100 C   0  0  0  0  0  2  0  0  0  0  0  0
  186.4930  178.8140  137.6640 N   0  0  0  0  0  2  0  0  0  0  0  0
  185.6250  177.6420  137.6310 C   0  0  2  0  0  3  0  0  0  0  0  0
  185.5230  177.1150  136.2110 C   0  0  0  0  0  1  0  0  0  0  0  0
  184.2260  177.9920  138.1260 C   0  0  0  0  0  2  0  0  0  0  0  0
  182.8300  179.3500  139.5980 N   0  0  0  0  0  0  0  0  0  0  0  0
  183.9980  178.8510  140.3760 C   0  0  0  0  0  2  0  0  0  0  0  0
  181.0090  180.1000  138.3740 O   0  0  0  0  0  0  0  0  0  0  0  0
  184.2120  179.2020  139.0560 C   0  0  1  0  0  3  0  0  0  0  0  0
  181.4450  179.6630  139.4680 C   0  0  0  0  0  0  0  0  0  0  0  0
  179.0230  180.5110  142.2960 C   0  0  0  0  0  2  0  0  0  0  0  0
  179.3080  177.7970  141.9820 C   0  0  0  0  0  2  0  0  0  0  0  0
  180.5240  179.4380  140.5890 C   0  0  0  0  0  0  0  0  0  0  0  0
  180.8870  179.2030  143.4930 C   0  0  0  0  0  2  0  0  0  0  0  0
  179.4890  179.8000  143.5800 C   0  0  2  0  0  3  0  0  0  0  0  0
  180.2340  178.2120  140.9280 N   0  0  0  0  0  0  0  0  0  0  0  0
  180.0170  180.5580  141.2740 O   0  0  0  0  0  0  0  0  0  0  0  0
  179.6760  178.2890  143.4020 C   0  0  1  0  0  3  0  0  0  0  0  0
  191.2730  176.0410  140.2440 N   0  0  0  0  0  2  0  0  0  0  0  0
  189.4600  176.7850  141.9630 C   0  0  0  0  0  0  0  0  0  0  0  0
  190.2960  176.4410  141.1660 C   0  0  0  0  0  0  0  0  0  0  0  0
  187.3410  178.2810  147.5240 C   0  0  0  0  0  2  0  0  0  0  0  0
  188.4760  177.1870  142.9270 C   0  0  0  0  0  0  0  0  0  0  0  0
  186.5670  177.9840  144.8170 C   0  0  0  0  0  0  0  0  0  0  0  0
  185.5850  178.3910  145.8470 C   0  0  0  0  0  0  0  0  0  0  0  0
  187.7940  177.4360  145.2370 C   0  0  0  0  0  0  0  0  0  0  0  0
  185.9510  178.4640  147.0950 N   0  0  0  0  0  0  0  0  0  0  0  0
  188.0400  177.2000  146.6970 C   0  0  0  0  0  2  0  0  0  0  0  0
  187.2590  177.7330  142.5040 C   0  0  0  0  0  3  0  0  0  0  0  0
  186.3040  178.1290  143.4470 C   0  0  0  0  0  3  0  0  0  0  0  0
  188.7390  177.0300  144.2920 C   0  0  0  0  0  3  0  0  0  0  0  0
  183.8210  179.8040  145.1100 O   0  0  0  0  0  0  0  0  0  0  0  0
  184.1890  178.6590  145.4820 C   0  0  0  0  0  3  0  0  0  0  0  0
  192.6310  177.3880  138.8040 N   0  0  0  0  0  2  0  0  0  0  0  0
  193.4400  176.7110  137.8770 N   0  0  0  0  0  2  0  0  0  0  0  0
  194.2100  175.7890  138.6030 N   0  0  0  0  0  2  0  0  0  0  0  0
  194.0270  172.6100  136.7920 C   0  0  0  0  0  3  0  0  0  0  0  0
  195.5330  173.7610  138.2000 C   0  0  2  0  0  3  0  0  0  0  0  0
  195.9480  174.7620  137.1890 N   0  0  0  0  0  2  0  0  0  0  0  0
  193.5260  174.0070  136.8320 C   0  0  0  0  0  2  0  0  0  0  0  0
  195.1250  172.4910  137.5290 C   0  0  0  0  0  0  0  0  0  0  0  0
  194.5670  174.7180  137.6850 C   0  0  2  0  0  0  0  0  0  0  0  0
  195.8510  171.2590  137.6610 N   0  0  0  0  0  0  0  0  0  0  0  0
  195.1700  170.0030  137.9390 C   0  0  0  0  0  1  0  0  0  0  0  0
  197.2840  171.2190  137.4110 C   0  0  0  0  0  1  0  0  0  0  0  0
  1  2  1  1  0  0  0
  1 25  1  0  0  0  0
  3  2  1  0  0  0  0
  4  3  1  0  0  0  0
  5  4  1  0  0  0  0
  6  3  1  0  0  0  0
  6  7  1  0  0  0  0
  8  7  1  0  0  0  0
  9 10  1  6  0  0  0
  9  8  1  0  0  0  0
  9 11  1  0  0  0  0
 12 13  1  0  0  0  0
 14 16  2  0  0  0  0
 15 11  1  6  0  0  0
 15 12  1  0  0  0  0
 15 13  1  0  0  0  0
 16 12  1  0  0  0  0
 16 19  1  0  0  0  0
 19 22  2  0  0  0  0
 19 23  1  0  0  0  0
 20 21  1  0  0  0  0
 21 17  1  6  0  0  0
 22 18  1  0  0  0  0
 23 17  1  0  0  0  0
 24 18  1  6  0  0  0
 24 20  1  0  0  0  0
 24 21  1  0  0  0  0
 25 27  1  0  0  0  0
 26 29  1  0  0  0  0
 27 26  3  0  0  0  0
 29 37  1  0  0  0  0
 30 32  1  0  0  0  0
 30 31  1  0  0  0  0
 31 33  2  0  0  0  0
 32 34  1  0  0  0  0
 33 28  1  0  0  0  0
 34 28  1  0  0  0  0
 35 29  2  0  0  0  0
 35 36  1  0  0  0  0
 36 30  2  0  0  0  0
 37 32  2  0  0  0  0
 38 39  2  0  0  0  0
 39 31  1  0  0  0  0
 40  1  1  0  0  0  0
 41 42  1  0  0  0  0
 41 40  1  0  0  0  0
 43 46  1  0  0  0  0
 43 47  2  0  0  0  0
 44 45  1  6  0  0  0
 45 48  1  0  0  0  0
 46 48  1  0  0  0  0
 47 49  1  0  0  0  0
 47 44  1  0  0  0  0
 48 44  1  0  0  0  0
 48 42  1  1  0  0  0
 49 50  1  0  0  0  0
 51 49  1  0  0  0  0
M  END
>  <MODEL>
7

>  <REMARK>
 VINA RESULT:      -7.2      3.515     11.489
  Name = 
  19 active torsions:
  status: ('A' for Active; 'I' for Inactive)
    1  A    between atoms: N_1  and  C_35
    2  A    between atoms: N_1  and  C_51
    3  A    between atoms: C_7  and  C_30
    4  A    between atoms: N_9  and  C_35
    5  A    between atoms: N_9  and  N_36
    6  A    between atoms: CA_12  and  C_22
    7  A    between atoms: N_13  and  N_21
    8  A    between atoms: N_13  and  N_46
    9  A    between atoms: C_16  and  C_43
   10  A    between atoms: N_21  and  C_48
   11  A    between atoms: C_25  and  C_38
   12  A    between atoms: C_25  and  N_40
   13  A    between atoms: N_27  and  C_47
   14  A    between atoms: C_28  and  C_33
   15  A    between atoms: C_28  and  N_36
   16  A    between atoms: C_33  and  N_40
   17  A    between atoms: C_34  and  N_36
   18  A    between atoms: C_35  and  N_46
   19  A    between atoms: C_38  and  C_42
                            x       y       z     vdW  Elec       q    Type
                         _______ _______ _______ _____ _____    ______ ____

>  <TORSDO>
F 19

$$$$
=
 OpenBabel11032419243D

 51 57  0  0  1  0  0  0  0  0999 V2000
  184.5280  179.0220  138.8750 C   0  0  2  0  0  3  0  0  0  0  0  0
  185.4880  177.9220  138.8970 N   0  0  0  0  0  2  0  0  0  0  0  0
  186.7320  178.4310  138.4920 N   0  0  0  0  0  0  0  0  0  0  0  0
  187.7420  177.7070  139.2500 C   0  0  0  0  0  2  0  0  0  0  0  0
  188.8790  178.6420  139.6100 C   0  0  0  0  0  1  0  0  0  0  0  0
  186.8930  178.0630  137.0920 C   0  0  0  0  0  2  0  0  0  0  0  0
  186.3640  176.6570  136.8420 C   0  0  0  0  0  2  0  0  0  0  0  0
  187.4740  175.7230  136.7030 N   0  0  0  0  0  2  0  0  0  0  0  0
  188.5750  176.4490  136.0810 C   0  0  2  0  0  3  0  0  0  0  0  0
  188.6380  176.1210  134.5990 C   0  0  0  0  0  1  0  0  0  0  0  0
  189.9040  176.0700  136.7250 C   0  0  0  0  0  2  0  0  0  0  0  0
  192.3030  175.6920  136.4750 N   0  0  0  0  0  0  0  0  0  0  0  0
  191.5790  174.8060  135.5210 C   0  0  0  0  0  2  0  0  0  0  0  0
  193.4090  177.0670  137.9790 O   0  0  0  0  0  0  0  0  0  0  0  0
  191.0640  176.0710  135.7340 C   0  0  1  0  0  3  0  0  0  0  0  0
  193.3450  175.9470  137.4140 C   0  0  0  0  0  0  0  0  0  0  0  0
  196.3270  174.2880  139.1280 C   0  0  0  0  0  2  0  0  0  0  0  0
  194.9920  172.5340  137.4900 C   0  0  0  0  0  2  0  0  0  0  0  0
  194.3110  174.8950  137.7550 C   0  0  0  0  0  0  0  0  0  0  0  0
  196.8960  174.0780  136.6290 C   0  0  0  0  0  2  0  0  0  0  0  0
  197.2320  173.6590  138.0530 C   0  0  2  0  0  3  0  0  0  0  0  0
  194.1600  173.7100  137.2330 N   0  0  0  0  0  0  0  0  0  0  0  0
  195.3820  175.2220  138.6080 O   0  0  0  0  0  0  0  0  0  0  0  0
  196.4850  172.7000  137.1190 C   0  0  1  0  0  3  0  0  0  0  0  0
  184.1150  179.3610  140.2290 N   0  0  0  0  0  2  0  0  0  0  0  0
  185.5840  178.6890  142.2750 C   0  0  0  0  0  0  0  0  0  0  0  0
  184.9040  179.0030  141.3310 C   0  0  0  0  0  0  0  0  0  0  0  0
  190.7530  177.1220  145.1870 C   0  0  0  0  0  2  0  0  0  0  0  0
  186.3910  178.2970  143.3950 C   0  0  0  0  0  0  0  0  0  0  0  0
  187.9800  177.5410  145.5750 C   0  0  0  0  0  0  0  0  0  0  0  0
  188.8510  177.1290  146.6990 C   0  0  0  0  0  0  0  0  0  0  0  0
  188.4690  177.4080  144.2620 C   0  0  0  0  0  0  0  0  0  0  0  0
  190.1120  176.8860  146.4830 N   0  0  0  0  0  0  0  0  0  0  0  0
  189.8110  176.7800  144.0300 C   0  0  0  0  0  2  0  0  0  0  0  0
  185.9000  178.4320  144.6970 C   0  0  0  0  0  3  0  0  0  0  0  0
  186.6920  178.0540  145.7870 C   0  0  0  0  0  3  0  0  0  0  0  0
  187.6700  177.7760  143.1770 C   0  0  0  0  0  3  0  0  0  0  0  0
  188.2690  177.8810  148.8790 O   0  0  0  0  0  0  0  0  0  0  0  0
  188.2930  176.9380  148.0440 C   0  0  0  0  0  3  0  0  0  0  0  0
  183.3610  178.6690  138.0650 N   0  0  0  0  0  2  0  0  0  0  0  0
  183.1720  177.2790  138.1280 N   0  0  0  0  0  2  0  0  0  0  0  0
  181.9250  177.0080  137.5430 N   0  0  0  0  0  2  0  0  0  0  0  0
  181.5610  173.4090  136.9660 C   0  0  0  0  0  3  0  0  0  0  0  0
  183.2880  175.0130  137.1160 C   0  0  2  0  0  3  0  0  0  0  0  0
  183.0180  175.6460  135.8040 N   0  0  0  0  0  2  0  0  0  0  0  0
  180.8780  174.7230  136.8660 C   0  0  0  0  0  2  0  0  0  0  0  0
  182.8720  173.5780  137.0890 C   0  0  0  0  0  0  0  0  0  0  0  0
  182.0330  175.7120  136.8910 C   0  0  2  0  0  0  0  0  0  0  0  0
  183.7990  172.4850  137.1820 N   0  0  0  0  0  0  0  0  0  0  0  0
  183.4140  171.1310  136.8140 C   0  0  0  0  0  1  0  0  0  0  0  0
  185.1870  172.7270  137.5460 C   0  0  0  0  0  1  0  0  0  0  0  0
  1 40  1  6  0  0  0
  1  2  1  0  0  0  0
  1 25  1  0  0  0  0
  3  2  1  0  0  0  0
  3  4  1  0  0  0  0
  4  5  1  0  0  0  0
  6  3  1  0  0  0  0
  7  6  1  0  0  0  0
  8  7  1  0  0  0  0
  9 10  1  6  0  0  0
  9  8  1  0  0  0  0
  9 11  1  0  0  0  0
 12 16  1  0  0  0  0
 13 15  1  0  0  0  0
 13 12  1  0  0  0  0
 15 12  1  0  0  0  0
 15 11  1  1  0  0  0
 16 19  1  0  0  0  0
 16 14  2  0  0  0  0
 19 23  1  0  0  0  0
 21 20  1  6  0  0  0
 21 17  1  0  0  0  0
 22 18  1  0  0  0  0
 22 19  2  0  0  0  0
 23 17  1  0  0  0  0
 24 20  1  6  0  0  0
 24 18  1  0  0  0  0
 24 21  1  0  0  0  0
 25 27  1  0  0  0  0
 26 29  1  0  0  0  0
 27 26  3  0  0  0  0
 28 33  1  0  0  0  0
 29 35  1  0  0  0  0
 30 36  1  0  0  0  0
 30 31  1  0  0  0  0
 31 39  1  0  0  0  0
 32 30  2  0  0  0  0
 33 31  2  0  0  0  0
 34 32  1  0  0  0  0
 34 28  1  0  0  0  0
 35 36  2  0  0  0  0
 37 29  2  0  0  0  0
 37 32  1  0  0  0  0
 39 38  2  0  0  0  0
 40 41  1  0  0  0  0
 42 41  1  0  0  0  0
 43 47  2  0  0  0  0
 44 45  1  6  0  0  0
 45 48  1  0  0  0  0
 46 48  1  0  0  0  0
 46 43  1  0  0  0  0
 47 44  1  0  0  0  0
 47 49  1  0  0  0  0
 48 44  1  0  0  0  0
 48 42  1  1  0  0  0
 49 51  1  0  0  0  0
 50 49  1  0  0  0  0
M  END
>  <MODEL>
8

>  <REMARK>
 VINA RESULT:      -7.1      3.052      4.678
  Name = 
  19 active torsions:
  status: ('A' for Active; 'I' for Inactive)
    1  A    between atoms: N_1  and  C_35
    2  A    between atoms: N_1  and  C_51
    3  A    between atoms: C_7  and  C_30
    4  A    between atoms: N_9  and  C_35
    5  A    between atoms: N_9  and  N_36
    6  A    between atoms: CA_12  and  C_22
    7  A    between atoms: N_13  and  N_21
    8  A    between atoms: N_13  and  N_46
    9  A    between atoms: C_16  and  C_43
   10  A    between atoms: N_21  and  C_48
   11  A    between atoms: C_25  and  C_38
   12  A    between atoms: C_25  and  N_40
   13  A    between atoms: N_27  and  C_47
   14  A    between atoms: C_28  and  C_33
   15  A    between atoms: C_28  and  N_36
   16  A    between atoms: C_33  and  N_40
   17  A    between atoms: C_34  and  N_36
   18  A    between atoms: C_35  and  N_46
   19  A    between atoms: C_38  and  C_42
                            x       y       z     vdW  Elec       q    Type
                         _______ _______ _______ _____ _____    ______ ____

>  <TORSDO>
F 19

$$$$
=
 OpenBabel11032419243D

 51 57  0  0  1  0  0  0  0  0999 V2000
  189.3440  177.1160  141.8710 C   0  0  2  0  0  3  0  0  0  0  0  0
  190.3010  177.9640  141.1650 N   0  0  0  0  0  2  0  0  0  0  0  0
  190.0830  177.8000  139.7880 N   0  0  0  0  0  0  0  0  0  0  0  0
  191.0030  176.7620  139.3450 C   0  0  0  0  0  2  0  0  0  0  0  0
  192.4240  177.1620  139.6840 C   0  0  0  0  0  1  0  0  0  0  0  0
  188.7320  177.2730  139.6430 C   0  0  0  0  0  2  0  0  0  0  0  0
  188.1150  177.7290  138.3280 C   0  0  0  0  0  2  0  0  0  0  0  0
  187.8750  176.5810  137.4630 N   0  0  0  0  0  2  0  0  0  0  0  0
  188.4810  176.8790  136.1700 C   0  0  2  0  0  3  0  0  0  0  0  0
  187.8890  175.9760  135.1020 C   0  0  0  0  0  1  0  0  0  0  0  0
  189.9890  176.6600  136.2180 C   0  0  0  0  0  2  0  0  0  0  0  0
  191.8450  175.1160  135.8560 N   0  0  0  0  0  0  0  0  0  0  0  0
  190.6670  174.3420  136.3380 C   0  0  0  0  0  2  0  0  0  0  0  0
  193.6710  176.3420  135.1240 O   0  0  0  0  0  0  0  0  0  0  0  0
  190.4290  175.3990  135.4810 C   0  0  1  0  0  3  0  0  0  0  0  0
  193.2420  175.3970  135.8310 C   0  0  0  0  0  0  0  0  0  0  0  0
  195.4520  174.5170  138.8190 C   0  0  0  0  0  2  0  0  0  0  0  0
  195.4220  172.5050  136.9500 C   0  0  0  0  0  2  0  0  0  0  0  0
  194.1710  174.6160  136.6580 C   0  0  0  0  0  0  0  0  0  0  0  0
  197.0980  174.4870  136.8430 C   0  0  0  0  0  2  0  0  0  0  0  0
  196.8560  174.1470  138.3070 C   0  0  2  0  0  3  0  0  0  0  0  0
  194.5430  173.4380  136.2440 N   0  0  0  0  0  0  0  0  0  0  0  0
  194.6480  175.1910  137.8520 O   0  0  0  0  0  0  0  0  0  0  0  0
  196.8420  173.0430  137.2440 C   0  0  1  0  0  3  0  0  0  0  0  0
  188.5710  177.9040  142.8200 N   0  0  0  0  0  2  0  0  0  0  0  0
  186.0000  178.2090  142.5200 C   0  0  0  0  0  0  0  0  0  0  0  0
  187.1900  178.0700  142.6560 C   0  0  0  0  0  0  0  0  0  0  0  0
  180.5520  177.5840  139.7650 C   0  0  0  0  0  2  0  0  0  0  0  0
  184.5810  178.3600  142.3710 C   0  0  0  0  0  0  0  0  0  0  0  0
  181.8090  178.6360  142.0750 C   0  0  0  0  0  0  0  0  0  0  0  0
  180.3480  178.7730  141.8760 C   0  0  0  0  0  0  0  0  0  0  0  0
  182.6060  178.2740  140.9730 C   0  0  0  0  0  0  0  0  0  0  0  0
  179.8020  178.3330  140.7780 N   0  0  0  0  0  0  0  0  0  0  0  0
  181.9780  178.1210  139.6200 C   0  0  0  0  0  2  0  0  0  0  0  0
  183.7930  178.7180  143.4700 C   0  0  0  0  0  3  0  0  0  0  0  0
  182.4080  178.8580  143.3230 C   0  0  0  0  0  3  0  0  0  0  0  0
  183.9900  178.1480  141.1220 C   0  0  0  0  0  3  0  0  0  0  0  0
  179.3050  178.9310  144.0060 O   0  0  0  0  0  0  0  0  0  0  0  0
  179.5180  179.4510  142.8790 C   0  0  0  0  0  3  0  0  0  0  0  0
  190.0360  176.0270  142.5640 N   0  0  0  0  0  2  0  0  0  0  0  0
  191.2560  176.5140  143.0620 N   0  0  0  0  0  2  0  0  0  0  0  0
  191.6680  175.6300  144.0720 N   0  0  0  0  0  2  0  0  0  0  0  0
  191.0870  176.2850  147.6290 C   0  0  0  0  0  3  0  0  0  0  0  0
  190.3480  177.0920  145.5360 C   0  0  2  0  0  3  0  0  0  0  0  0
  191.5980  177.8170  145.2060 N   0  0  0  0  0  2  0  0  0  0  0  0
  192.0570  175.7470  146.6430 C   0  0  0  0  0  2  0  0  0  0  0  0
  190.1690  177.0260  147.0170 C   0  0  0  0  0  0  0  0  0  0  0  0
  191.5840  176.3550  145.3310 C   0  0  2  0  0  0  0  0  0  0  0  0
  189.1110  177.6990  147.7160 N   0  0  0  0  0  0  0  0  0  0  0  0
  187.7190  177.5300  147.3300 C   0  0  0  0  0  1  0  0  0  0  0  0
  189.4000  178.4870  148.9050 C   0  0  0  0  0  1  0  0  0  0  0  0
  1  2  1  1  0  0  0
  1 40  1  0  0  0  0
  1 25  1  0  0  0  0
  3  2  1  0  0  0  0
  4  5  1  0  0  0  0
  4  3  1  0  0  0  0
  6  3  1  0  0  0  0
  7  6  1  0  0  0  0
  8  7  1  0  0  0  0
  9 10  1  6  0  0  0
  9 11  1  0  0  0  0
  9  8  1  0  0  0  0
 12 13  1  0  0  0  0
 14 16  2  0  0  0  0
 15 12  1  0  0  0  0
 15 11  1  1  0  0  0
 15 13  1  0  0  0  0
 16 12  1  0  0  0  0
 16 19  1  0  0  0  0
 18 24  1  0  0  0  0
 19 23  1  0  0  0  0
 21 20  1  6  0  0  0
 21 17  1  0  0  0  0
 22 19  2  0  0  0  0
 22 18  1  0  0  0  0
 23 17  1  0  0  0  0
 24 20  1  6  0  0  0
 24 21  1  0  0  0  0
 26 27  3  0  0  0  0
 27 25  1  0  0  0  0
 28 33  1  0  0  0  0
 29 26  1  0  0  0  0
 29 35  1  0  0  0  0
 30 36  1  0  0  0  0
 31 30  1  0  0  0  0
 31 39  1  0  0  0  0
 32 37  1  0  0  0  0
 32 30  2  0  0  0  0
 33 31  2  0  0  0  0
 34 28  1  0  0  0  0
 34 32  1  0  0  0  0
 36 35  2  0  0  0  0
 37 29  2  0  0  0  0
 39 38  2  0  0  0  0
 40 41  1  0  0  0  0
 41 42  1  0  0  0  0
 44 45  1  1  0  0  0
 44 47  1  0  0  0  0
 45 48  1  0  0  0  0
 46 43  1  0  0  0  0
 47 43  2  0  0  0  0
 47 49  1  0  0  0  0
 48 42  1  6  0  0  0
 48 44  1  0  0  0  0
 48 46  1  0  0  0  0
 49 51  1  0  0  0  0
 50 49  1  0  0  0  0
M  END
>  <MODEL>
9

>  <REMARK>
 VINA RESULT:      -7.0      2.812      8.510
  Name = 
  19 active torsions:
  status: ('A' for Active; 'I' for Inactive)
    1  A    between atoms: N_1  and  C_35
    2  A    between atoms: N_1  and  C_51
    3  A    between atoms: C_7  and  C_30
    4  A    between atoms: N_9  and  C_35
    5  A    between atoms: N_9  and  N_36
    6  A    between atoms: CA_12  and  C_22
    7  A    between atoms: N_13  and  N_21
    8  A    between atoms: N_13  and  N_46
    9  A    between atoms: C_16  and  C_43
   10  A    between atoms: N_21  and  C_48
   11  A    between atoms: C_25  and  C_38
   12  A    between atoms: C_25  and  N_40
   13  A    between atoms: N_27  and  C_47
   14  A    between atoms: C_28  and  C_33
   15  A    between atoms: C_28  and  N_36
   16  A    between atoms: C_33  and  N_40
   17  A    between atoms: C_34  and  N_36
   18  A    between atoms: C_35  and  N_46
   19  A    between atoms: C_38  and  C_42
                            x       y       z     vdW  Elec       q    Type
                         _______ _______ _______ _____ _____    ______ ____

>  <TORSDO>
F 19

$$$$
