=
 OpenBabel11032419503D

 27 28  0  0  1  0  0  0  0  0999 V2000
  190.8490  176.8390  142.5550 C   0  0  0  0  0  0  0  0  0  0  0  0
  189.5120  176.7710  142.3390 C   0  0  0  0  0  0  0  0  0  0  0  0
  189.5020  177.5640  138.7550 O   0  0  0  0  0  0  0  0  0  0  0  0
  191.7540  177.3180  141.4850 C   0  0  0  0  0  3  0  0  0  0  0  0
  191.3130  177.6000  140.2620 C   0  0  0  0  0  3  0  0  0  0  0  0
  189.8890  177.4700  139.9500 C   0  0  0  0  0  0  0  0  0  0  0  0
  188.8870  177.2770  141.0540 C   0  0  2  0  0  3  0  0  0  0  0  0
  191.7500  175.1060  143.9760 O   0  0  0  0  0  1  0  0  0  0  0  0
  191.5880  177.3080  144.9110 C   0  0  0  0  0  0  0  0  0  0  0  0
  191.9990  176.8180  146.1440 O   0  0  0  0  0  1  0  0  0  0  0  0
  191.4270  176.4110  143.8030 N   0  0  0  0  0  0  0  0  0  0  0  0
  191.3840  178.5430  144.7750 O   0  0  0  0  0  0  0  0  0  0  0  0
  188.5960  176.1540  143.3550 C   0  0  0  0  0  2  0  0  0  0  0  0
  187.9240  177.8990  145.1950 N   0  0  0  0  0  0  0  0  0  0  0  0
  188.2200  177.1310  144.3840 C   0  0  0  0  0  0  0  0  0  0  0  0
  188.1520  178.5920  141.3080 C   0  0  0  0  0  2  0  0  0  0  0  0
  186.6400  178.4380  141.1810 C   0  0  2  0  0  3  0  0  0  0  0  0
  186.2260  178.7080  139.8890 F   0  0  0  0  0  0  0  0  0  0  0  0
  185.9120  179.3350  142.1740 C   0  0  0  0  0  2  0  0  0  0  0  0
  182.6780  178.8840  142.6650 C   0  0  0  0  0  0  0  0  0  0  0  0
  183.6980  178.3290  142.1120 N   0  0  0  0  0  0  0  0  0  0  0  0
  182.9640  179.5150  143.8560 O   0  0  0  0  0  0  0  0  0  0  0  0
  184.8680  178.5480  142.9520 C   0  0  2  0  0  3  0  0  0  0  0  0
  184.3470  179.3760  144.1340 C   0  0  2  0  0  3  0  0  0  0  0  0
  181.3180  178.8430  142.0670 C   0  0  0  0  0  1  0  0  0  0  0  0
  184.5390  178.6000  145.4240 C   0  0  0  0  0  2  0  0  0  0  0  0
  185.1550  179.4120  146.3770 O   0  0  0  0  0  1  0  0  0  0  0  0
  1 11  1  0  0  0  0
  2  1  2  0  0  0  0
  2 13  1  0  0  0  0
  3  6  2  0  0  0  0
  4  1  1  0  0  0  0
  5  4  2  0  0  0  0
  6  5  1  0  0  0  0
  6  7  1  0  0  0  0
  7 16  1  1  0  0  0
  7  2  1  0  0  0  0
  9 10  1  0  0  0  0
 11  8  1  0  0  0  0
 11  9  1  0  0  0  0
 12  9  2  0  0  0  0
 13 15  1  0  0  0  0
 15 14  3  0  0  0  0
 17 18  1  6  0  0  0
 17 16  1  0  0  0  0
 17 19  1  0  0  0  0
 20 22  1  0  0  0  0
 21 20  2  0  0  0  0
 21 23  1  0  0  0  0
 22 24  1  0  0  0  0
 23 19  1  6  0  0  0
 23 24  1  0  0  0  0
 24 26  1  1  0  0  0
 25 20  1  0  0  0  0
 26 27  1  0  0  0  0
M  END
>  <MODEL>
1

>  <REMARK>
 VINA RESULT:      -7.2      0.000      0.000
  Name = 
  8 active torsions:
  status: ('A' for Active; 'I' for Inactive)
    1  A    between atoms: C_1  and  N_20
    2  A    between atoms: C_2  and  C_5
    3  A    between atoms: C_2  and  C_19
    4  A    between atoms: C_3  and  C_23
    5  A    between atoms: C_5  and  C_21
    6  A    between atoms: C_9  and  C_17
    7  A    between atoms: C_17  and  C_22
    8  A    between atoms: C_19  and  C_24
                            x       y       z     vdW  Elec       q    Type
                         _______ _______ _______ _____ _____    ______ ____

>  <TORSDO>
F 8

$$$$
=
 OpenBabel11032419503D

 27 28  0  0  1  0  0  0  0  0999 V2000
  190.0640  176.7240  146.9130 C   0  0  0  0  0  0  0  0  0  0  0  0
  189.8640  177.2960  145.7000 C   0  0  0  0  0  0  0  0  0  0  0  0
  186.5370  178.7180  146.3150 O   0  0  0  0  0  0  0  0  0  0  0  0
  188.9720  176.6920  147.9120 C   0  0  0  0  0  3  0  0  0  0  0  0
  187.8060  177.2990  147.7020 C   0  0  0  0  0  3  0  0  0  0  0  0
  187.5620  177.9990  146.4410 C   0  0  0  0  0  0  0  0  0  0  0  0
  188.5040  177.8210  145.2820 C   0  0  2  0  0  3  0  0  0  0  0  0
  191.7570  175.0130  146.7130 O   0  0  0  0  0  1  0  0  0  0  0  0
  192.1640  176.7690  148.2930 C   0  0  0  0  0  0  0  0  0  0  0  0
  193.3130  176.1190  148.7250 O   0  0  0  0  0  0  0  0  0  0  0  0
  191.3440  176.1750  147.2780 N   0  0  0  0  0  0  0  0  0  0  0  0
  191.8680  177.8910  148.7850 O   0  0  0  0  0  1  0  0  0  0  0  0
  190.9970  177.4680  144.7300 C   0  0  0  0  0  2  0  0  0  0  0  0
  191.1560  179.9560  143.9110 N   0  0  0  0  0  0  0  0  0  0  0  0
  191.0870  178.8590  144.2720 C   0  0  0  0  0  0  0  0  0  0  0  0
  187.8720  176.8840  144.2540 C   0  0  0  0  0  2  0  0  0  0  0  0
  187.7580  177.5340  142.8790 C   0  0  2  0  0  3  0  0  0  0  0  0
  186.4400  177.5700  142.4610 F   0  0  0  0  0  0  0  0  0  0  0  0
  188.6240  176.8100  141.8560 C   0  0  0  0  0  2  0  0  0  0  0  0
  189.3810  178.1840  138.9510 C   0  0  0  0  0  0  0  0  0  0  0  0
  188.8190  178.4560  140.0750 N   0  0  0  0  0  0  0  0  0  0  0  0
  190.4780  177.3570  139.0600 O   0  0  0  0  0  0  0  0  0  0  0  0
  189.5490  177.7840  141.1420 C   0  0  2  0  0  3  0  0  0  0  0  0
  190.6720  177.0230  140.4240 C   0  0  2  0  0  3  0  0  0  0  0  0
  188.8850  178.7180  137.6560 C   0  0  0  0  0  1  0  0  0  0  0  0
  192.0200  177.5400  140.8940 C   0  0  0  0  0  2  0  0  0  0  0  0
  192.9790  177.3300  139.9030 O   0  0  0  0  0  1  0  0  0  0  0  0
  1 11  1  0  0  0  0
  1  4  1  0  0  0  0
  2  1  2  0  0  0  0
  3  6  2  0  0  0  0
  5  4  2  0  0  0  0
  6  5  1  0  0  0  0
  7 16  1  6  0  0  0
  7  2  1  0  0  0  0
  7  6  1  0  0  0  0
  8 11  1  0  0  0  0
  9 10  2  0  0  0  0
  9 12  1  0  0  0  0
 11  9  1  0  0  0  0
 13  2  1  0  0  0  0
 14 15  3  0  0  0  0
 15 13  1  0  0  0  0
 17 18  1  6  0  0  0
 17 16  1  0  0  0  0
 19 17  1  0  0  0  0
 20 22  1  0  0  0  0
 20 21  2  0  0  0  0
 21 23  1  0  0  0  0
 22 24  1  0  0  0  0
 23 19  1  6  0  0  0
 24 26  1  1  0  0  0
 24 23  1  0  0  0  0
 25 20  1  0  0  0  0
 27 26  1  0  0  0  0
M  END
>  <MODEL>
2

>  <REMARK>
 VINA RESULT:      -7.1      3.049      5.885
  Name = 
  8 active torsions:
  status: ('A' for Active; 'I' for Inactive)
    1  A    between atoms: C_1  and  N_20
    2  A    between atoms: C_2  and  C_5
    3  A    between atoms: C_2  and  C_19
    4  A    between atoms: C_3  and  C_23
    5  A    between atoms: C_5  and  C_21
    6  A    between atoms: C_9  and  C_17
    7  A    between atoms: C_17  and  C_22
    8  A    between atoms: C_19  and  C_24
                            x       y       z     vdW  Elec       q    Type
                         _______ _______ _______ _____ _____    ______ ____

>  <TORSDO>
F 8

$$$$
=
 OpenBabel11032419503D

 27 28  0  0  1  0  0  0  0  0999 V2000
  188.5900  178.1220  139.5140 C   0  0  0  0  0  0  0  0  0  0  0  0
  189.6810  177.4980  140.0210 C   0  0  0  0  0  0  0  0  0  0  0  0
  188.2730  176.4960  143.2590 O   0  0  0  0  0  0  0  0  0  0  0  0
  187.3950  178.3410  140.3600 C   0  0  0  0  0  3  0  0  0  0  0  0
  187.3060  177.8540  141.5950 C   0  0  0  0  0  3  0  0  0  0  0  0
  188.4240  177.1040  142.1670 C   0  0  0  0  0  0  0  0  0  0  0  0
  189.7630  177.1000  141.4820 C   0  0  2  0  0  3  0  0  0  0  0  0
  189.0970  179.7390  137.7930 O   0  0  0  0  0  1  0  0  0  0  0  0
  187.8530  177.7980  137.1330 C   0  0  0  0  0  0  0  0  0  0  0  0
  187.7000  178.3270  135.8570 O   0  0  0  0  0  0  0  0  0  0  0  0
  188.5460  178.5500  138.1390 N   0  0  0  0  0  0  0  0  0  0  0  0
  187.4010  176.6500  137.3830 O   0  0  0  0  0  1  0  0  0  0  0  0
  190.8440  177.1380  139.1430 C   0  0  0  0  0  2  0  0  0  0  0  0
  190.4650  174.8080  137.9970 N   0  0  0  0  0  0  0  0  0  0  0  0
  190.6320  175.8350  138.5010 C   0  0  0  0  0  0  0  0  0  0  0  0
  190.7170  178.0310  142.2280 C   0  0  0  0  0  2  0  0  0  0  0  0
  191.5730  177.2820  143.2440 C   0  0  2  0  0  3  0  0  0  0  0  0
  191.2740  175.9320  143.2360 F   0  0  0  0  0  0  0  0  0  0  0  0
  191.3980  177.8610  144.6420 C   0  0  0  0  0  2  0  0  0  0  0  0
  189.3600  177.2430  147.1660 C   0  0  0  0  0  0  0  0  0  0  0  0
  189.4920  177.0280  145.9050 N   0  0  0  0  0  0  0  0  0  0  0  0
  190.5460  177.2040  147.8660 O   0  0  0  0  0  0  0  0  0  0  0  0
  190.9010  176.7980  145.6110 C   0  0  2  0  0  3  0  0  0  0  0  0
  191.6080  176.9380  146.9660 C   0  0  2  0  0  3  0  0  0  0  0  0
  188.0430  177.5100  147.8010 C   0  0  0  0  0  1  0  0  0  0  0  0
  192.2770  175.6260  147.3290 C   0  0  0  0  0  2  0  0  0  0  0  0
  193.1280  175.8150  148.4190 O   0  0  0  0  0  1  0  0  0  0  0  0
  1  2  2  0  0  0  0
  1  4  1  0  0  0  0
  2  7  1  0  0  0  0
  4  5  2  0  0  0  0
  5  6  1  0  0  0  0
  6  3  2  0  0  0  0
  7  6  1  0  0  0  0
  7 16  1  1  0  0  0
  8 11  1  0  0  0  0
  9 12  1  0  0  0  0
  9 11  1  0  0  0  0
 10  9  2  0  0  0  0
 11  1  1  0  0  0  0
 13  2  1  0  0  0  0
 14 15  3  0  0  0  0
 15 13  1  0  0  0  0
 16 17  1  0  0  0  0
 17 18  1  1  0  0  0
 17 19  1  0  0  0  0
 20 25  1  0  0  0  0
 20 22  1  0  0  0  0
 21 20  2  0  0  0  0
 23 19  1  6  0  0  0
 23 21  1  0  0  0  0
 23 24  1  0  0  0  0
 24 26  1  1  0  0  0
 24 22  1  0  0  0  0
 26 27  1  0  0  0  0
M  END
>  <MODEL>
3

>  <REMARK>
 VINA RESULT:      -7.1      3.476      6.874
  Name = 
  8 active torsions:
  status: ('A' for Active; 'I' for Inactive)
    1  A    between atoms: C_1  and  N_20
    2  A    between atoms: C_2  and  C_5
    3  A    between atoms: C_2  and  C_19
    4  A    between atoms: C_3  and  C_23
    5  A    between atoms: C_5  and  C_21
    6  A    between atoms: C_9  and  C_17
    7  A    between atoms: C_17  and  C_22
    8  A    between atoms: C_19  and  C_24
                            x       y       z     vdW  Elec       q    Type
                         _______ _______ _______ _____ _____    ______ ____

>  <TORSDO>
F 8

$$$$
=
 OpenBabel11032419503D

 27 28  0  0  1  0  0  0  0  0999 V2000
  187.8370  177.4740  145.7030 C   0  0  0  0  0  0  0  0  0  0  0  0
  188.7540  177.6070  144.7130 C   0  0  0  0  0  0  0  0  0  0  0  0
  186.4670  178.4330  141.9640 O   0  0  0  0  0  0  0  0  0  0  0  0
  186.3900  177.5150  145.3900 C   0  0  0  0  0  3  0  0  0  0  0  0
  185.9410  177.7800  144.1660 C   0  0  0  0  0  3  0  0  0  0  0  0
  186.8870  178.0100  143.0730 C   0  0  0  0  0  0  0  0  0  0  0  0
  188.3460  177.6940  143.2560 C   0  0  2  0  0  3  0  0  0  0  0  0
  189.0430  176.3020  147.4360 O   0  0  0  0  0  1  0  0  0  0  0  0
  187.7360  178.1950  148.1080 C   0  0  0  0  0  0  0  0  0  0  0  0
  188.0220  177.9240  149.4400 O   0  0  0  0  0  1  0  0  0  0  0  0
  188.2380  177.3320  147.0790 N   0  0  0  0  0  0  0  0  0  0  0  0
  187.0560  179.2160  147.8190 O   0  0  0  0  0  0  0  0  0  0  0  0
  190.2180  177.7140  145.0260 C   0  0  0  0  0  2  0  0  0  0  0  0
  191.2730  179.8160  143.8630 N   0  0  0  0  0  0  0  0  0  0  0  0
  190.8090  178.8900  144.3760 C   0  0  0  0  0  0  0  0  0  0  0  0
  188.6760  176.3870  142.5380 C   0  0  0  0  0  2  0  0  0  0  0  0
  189.7870  176.5610  141.5080 C   0  0  2  0  0  3  0  0  0  0  0  0
  191.0190  176.2580  142.0600 F   0  0  0  0  0  0  0  0  0  0  0  0
  189.7900  177.9730  140.9380 C   0  0  0  0  0  2  0  0  0  0  0  0
  187.6690  177.8100  138.4130 C   0  0  0  0  0  0  0  0  0  0  0  0
  188.4350  178.6390  139.0300 N   0  0  0  0  0  0  0  0  0  0  0  0
  188.1930  176.5410  138.3010 O   0  0  0  0  0  0  0  0  0  0  0  0
  189.6560  177.9480  139.4230 C   0  0  2  0  0  3  0  0  0  0  0  0
  189.4640  176.5080  138.9280 C   0  0  2  0  0  3  0  0  0  0  0  0
  186.3390  178.1970  137.8730 C   0  0  0  0  0  1  0  0  0  0  0  0
  190.5350  176.1730  137.9060 C   0  0  0  0  0  2  0  0  0  0  0  0
  191.2430  175.0430  138.3170 O   0  0  0  0  0  1  0  0  0  0  0  0
  1 11  1  0  0  0  0
  2 13  1  0  0  0  0
  2  1  2  0  0  0  0
  3  6  2  0  0  0  0
  4  1  1  0  0  0  0
  5  4  2  0  0  0  0
  6  7  1  0  0  0  0
  6  5  1  0  0  0  0
  7 16  1  1  0  0  0
  7  2  1  0  0  0  0
  9 10  1  0  0  0  0
 11  8  1  0  0  0  0
 11  9  1  0  0  0  0
 12  9  2  0  0  0  0
 14 15  3  0  0  0  0
 15 13  1  0  0  0  0
 17 18  1  1  0  0  0
 17 16  1  0  0  0  0
 19 17  1  0  0  0  0
 20 21  2  0  0  0  0
 21 23  1  0  0  0  0
 22 20  1  0  0  0  0
 22 24  1  0  0  0  0
 23 19  1  1  0  0  0
 24 26  1  6  0  0  0
 24 23  1  0  0  0  0
 25 20  1  0  0  0  0
 26 27  1  0  0  0  0
M  END
>  <MODEL>
4

>  <REMARK>
 VINA RESULT:      -7.1      2.956      5.753
  Name = 
  8 active torsions:
  status: ('A' for Active; 'I' for Inactive)
    1  A    between atoms: C_1  and  N_20
    2  A    between atoms: C_2  and  C_5
    3  A    between atoms: C_2  and  C_19
    4  A    between atoms: C_3  and  C_23
    5  A    between atoms: C_5  and  C_21
    6  A    between atoms: C_9  and  C_17
    7  A    between atoms: C_17  and  C_22
    8  A    between atoms: C_19  and  C_24
                            x       y       z     vdW  Elec       q    Type
                         _______ _______ _______ _____ _____    ______ ____

>  <TORSDO>
F 8

$$$$
=
 OpenBabel11032419503D

 27 28  0  0  1  0  0  0  0  0999 V2000
  184.9340  178.7940  142.9870 C   0  0  0  0  0  0  0  0  0  0  0  0
  185.7940  178.0080  143.6800 C   0  0  0  0  0  0  0  0  0  0  0  0
  184.1810  178.2150  146.9710 O   0  0  0  0  0  0  0  0  0  0  0  0
  183.8670  179.5370  143.6940 C   0  0  0  0  0  3  0  0  0  0  0  0
  183.6490  179.3870  144.9980 C   0  0  0  0  0  3  0  0  0  0  0  0
  184.4970  178.4910  145.7840 C   0  0  0  0  0  0  0  0  0  0  0  0
  185.7670  177.9420  145.1950 C   0  0  2  0  0  3  0  0  0  0  0  0
  185.9460  179.6940  140.9870 O   0  0  0  0  0  1  0  0  0  0  0  0
  184.0540  178.2500  140.6960 C   0  0  0  0  0  0  0  0  0  0  0  0
  184.0650  178.5050  139.3310 O   0  0  0  0  0  0  0  0  0  0  0  0
  185.0070  178.8960  141.5520 N   0  0  0  0  0  0  0  0  0  0  0  0
  183.2180  177.4320  141.1640 O   0  0  0  0  0  1  0  0  0  0  0  0
  186.7880  177.1360  142.9700 C   0  0  0  0  0  2  0  0  0  0  0  0
  189.0230  178.4360  142.5230 N   0  0  0  0  0  0  0  0  0  0  0  0
  188.0390  177.8630  142.7200 C   0  0  0  0  0  0  0  0  0  0  0  0
  186.9630  178.6950  145.7760 C   0  0  0  0  0  2  0  0  0  0  0  0
  187.8220  177.8070  146.6680 C   0  0  2  0  0  3  0  0  0  0  0  0
  187.4940  177.9850  148.0000 F   0  0  0  0  0  0  0  0  0  0  0  0
  189.3050  178.0730  146.4430 C   0  0  0  0  0  2  0  0  0  0  0  0
  191.8830  176.1650  147.2280 C   0  0  0  0  0  0  0  0  0  0  0  0
  190.6030  176.2230  147.3430 N   0  0  0  0  0  0  0  0  0  0  0  0
  192.3580  176.6370  146.0240 O   0  0  0  0  0  0  0  0  0  0  0  0
  190.0450  176.7830  146.1200 C   0  0  2  0  0  3  0  0  0  0  0  0
  191.2650  177.0760  145.2350 C   0  0  2  0  0  3  0  0  0  0  0  0
  192.7620  175.6360  148.3030 C   0  0  0  0  0  1  0  0  0  0  0  0
  191.1820  176.2500  143.9640 C   0  0  0  0  0  2  0  0  0  0  0  0
  192.0550  175.1640  144.0490 O   0  0  0  0  0  1  0  0  0  0  0  0
  1  2  2  0  0  0  0
  1  4  1  0  0  0  0
  2  7  1  0  0  0  0
  4  5  2  0  0  0  0
  5  6  1  0  0  0  0
  6  3  2  0  0  0  0
  7 16  1  1  0  0  0
  7  6  1  0  0  0  0
  8 11  1  0  0  0  0
  9 12  1  0  0  0  0
  9 11  1  0  0  0  0
 10  9  2  0  0  0  0
 11  1  1  0  0  0  0
 13  2  1  0  0  0  0
 14 15  3  0  0  0  0
 15 13  1  0  0  0  0
 16 17  1  0  0  0  0
 17 18  1  1  0  0  0
 19 17  1  0  0  0  0
 20 21  2  0  0  0  0
 20 25  1  0  0  0  0
 22 20  1  0  0  0  0
 23 19  1  1  0  0  0
 23 21  1  0  0  0  0
 24 26  1  6  0  0  0
 24 22  1  0  0  0  0
 24 23  1  0  0  0  0
 26 27  1  0  0  0  0
M  END
>  <MODEL>
5

>  <REMARK>
 VINA RESULT:      -6.9      2.801      7.805
  Name = 
  8 active torsions:
  status: ('A' for Active; 'I' for Inactive)
    1  A    between atoms: C_1  and  N_20
    2  A    between atoms: C_2  and  C_5
    3  A    between atoms: C_2  and  C_19
    4  A    between atoms: C_3  and  C_23
    5  A    between atoms: C_5  and  C_21
    6  A    between atoms: C_9  and  C_17
    7  A    between atoms: C_17  and  C_22
    8  A    between atoms: C_19  and  C_24
                            x       y       z     vdW  Elec       q    Type
                         _______ _______ _______ _____ _____    ______ ____

>  <TORSDO>
F 8

$$$$
=
 OpenBabel11032419503D

 27 28  0  0  1  0  0  0  0  0999 V2000
  187.9500  177.4530  145.7680 C   0  0  0  0  0  0  0  0  0  0  0  0
  188.9090  177.5620  144.8160 C   0  0  0  0  0  0  0  0  0  0  0  0
  186.7370  178.2490  141.9380 O   0  0  0  0  0  0  0  0  0  0  0  0
  186.5190  177.4610  145.3900 C   0  0  0  0  0  3  0  0  0  0  0  0
  186.1210  177.6720  144.1380 C   0  0  0  0  0  3  0  0  0  0  0  0
  187.1120  177.8750  143.0800 C   0  0  0  0  0  0  0  0  0  0  0  0
  188.5650  177.5870  143.3400 C   0  0  2  0  0  3  0  0  0  0  0  0
  189.1280  176.3920  147.5900 O   0  0  0  0  0  1  0  0  0  0  0  0
  187.6960  178.2340  148.1440 C   0  0  0  0  0  0  0  0  0  0  0  0
  187.9300  178.0130  149.4950 O   0  0  0  0  0  1  0  0  0  0  0  0
  188.2900  177.3700  147.1650 N   0  0  0  0  0  0  0  0  0  0  0  0
  186.9810  179.2090  147.7930 O   0  0  0  0  0  0  0  0  0  0  0  0
  190.3560  177.7020  145.1890 C   0  0  0  0  0  2  0  0  0  0  0  0
  191.4450  179.7540  143.9690 N   0  0  0  0  0  0  0  0  0  0  0  0
  190.9640  178.8500  144.5070 C   0  0  0  0  0  0  0  0  0  0  0  0
  188.9440  176.2590  142.6880 C   0  0  0  0  0  2  0  0  0  0  0  0
  190.0910  176.4120  141.6950 C   0  0  2  0  0  3  0  0  0  0  0  0
  191.2870  176.6260  142.3570 F   0  0  0  0  0  0  0  0  0  0  0  0
  189.8160  177.5400  140.7090 C   0  0  0  0  0  2  0  0  0  0  0  0
  190.7130  176.4050  137.7420 C   0  0  0  0  0  0  0  0  0  0  0  0
  190.2590  176.0030  138.8760 N   0  0  0  0  0  0  0  0  0  0  0  0
  190.2040  177.6180  137.3330 O   0  0  0  0  0  0  0  0  0  0  0  0
  189.3150  176.9910  139.3820 C   0  0  2  0  0  3  0  0  0  0  0  0
  189.3030  178.0970  138.3180 C   0  0  2  0  0  3  0  0  0  0  0  0
  191.6990  175.6230  136.9500 C   0  0  0  0  0  1  0  0  0  0  0  0
  187.9100  178.2200  137.7270 C   0  0  0  0  0  2  0  0  0  0  0  0
  187.0130  178.6270  138.7140 O   0  0  0  0  0  1  0  0  0  0  0  0
  1 11  1  0  0  0  0
  2 13  1  0  0  0  0
  2  1  2  0  0  0  0
  3  6  2  0  0  0  0
  4  1  1  0  0  0  0
  5  4  2  0  0  0  0
  6  7  1  0  0  0  0
  6  5  1  0  0  0  0
  7 16  1  1  0  0  0
  7  2  1  0  0  0  0
  9 10  1  0  0  0  0
 11  8  1  0  0  0  0
 11  9  1  0  0  0  0
 12  9  2  0  0  0  0
 14 15  3  0  0  0  0
 15 13  1  0  0  0  0
 17 18  1  1  0  0  0
 17 16  1  0  0  0  0
 19 17  1  0  0  0  0
 20 21  2  0  0  0  0
 21 23  1  0  0  0  0
 22 20  1  0  0  0  0
 22 24  1  0  0  0  0
 23 19  1  1  0  0  0
 24 26  1  6  0  0  0
 24 23  1  0  0  0  0
 25 20  1  0  0  0  0
 26 27  1  0  0  0  0
M  END
>  <MODEL>
6

>  <REMARK>
 VINA RESULT:      -6.9      3.110      6.156
  Name = 
  8 active torsions:
  status: ('A' for Active; 'I' for Inactive)
    1  A    between atoms: C_1  and  N_20
    2  A    between atoms: C_2  and  C_5
    3  A    between atoms: C_2  and  C_19
    4  A    between atoms: C_3  and  C_23
    5  A    between atoms: C_5  and  C_21
    6  A    between atoms: C_9  and  C_17
    7  A    between atoms: C_17  and  C_22
    8  A    between atoms: C_19  and  C_24
                            x       y       z     vdW  Elec       q    Type
                         _______ _______ _______ _____ _____    ______ ____

>  <TORSDO>
F 8

$$$$
=
 OpenBabel11032419503D

 27 28  0  0  1  0  0  0  0  0999 V2000
  189.4450  177.2550  138.8230 C   0  0  0  0  0  0  0  0  0  0  0  0
  189.5980  177.7750  140.0660 C   0  0  0  0  0  0  0  0  0  0  0  0
  193.2150  177.2620  140.4220 O   0  0  0  0  0  0  0  0  0  0  0  0
  190.5760  176.5720  138.1550 C   0  0  0  0  0  3  0  0  0  0  0  0
  191.7920  176.5310  138.6930 C   0  0  0  0  0  3  0  0  0  0  0  0
  192.0360  177.1450  139.9990 C   0  0  0  0  0  0  0  0  0  0  0  0
  190.8810  177.5890  140.8530 C   0  0  2  0  0  3  0  0  0  0  0  0
  187.2930  176.3810  138.1600 O   0  0  0  0  0  1  0  0  0  0  0  0
  187.9300  178.5090  137.2590 C   0  0  0  0  0  0  0  0  0  0  0  0
  186.7910  178.5170  136.4640 O   0  0  0  0  0  0  0  0  0  0  0  0
  188.2020  177.3850  138.1070 N   0  0  0  0  0  0  0  0  0  0  0  0
  188.7010  179.5050  137.2420 O   0  0  0  0  0  1  0  0  0  0  0  0
  188.5130  178.5950  140.7000 C   0  0  0  0  0  2  0  0  0  0  0  0
  187.4180  177.3070  142.7060 N   0  0  0  0  0  0  0  0  0  0  0  0
  187.9000  177.8750  141.8220 C   0  0  0  0  0  0  0  0  0  0  0  0
  190.6650  176.5790  141.9790 C   0  0  0  0  0  2  0  0  0  0  0  0
  191.5730  176.8470  143.1730 C   0  0  2  0  0  3  0  0  0  0  0  0
  192.0850  175.6640  143.6760 F   0  0  0  0  0  0  0  0  0  0  0  0
  190.8360  177.6150  144.2620 C   0  0  0  0  0  2  0  0  0  0  0  0
  189.0680  177.3630  147.0390 C   0  0  0  0  0  0  0  0  0  0  0  0
  189.0590  177.0000  145.8050 N   0  0  0  0  0  0  0  0  0  0  0  0
  190.3210  177.3620  147.6130 O   0  0  0  0  0  0  0  0  0  0  0  0
  190.4220  176.6890  145.3960 C   0  0  2  0  0  3  0  0  0  0  0  0
  191.2740  176.9580  146.6430 C   0  0  2  0  0  3  0  0  0  0  0  0
  187.8340  177.7470  147.7720 C   0  0  0  0  0  1  0  0  0  0  0  0
  191.9480  175.6720  147.0870 C   0  0  0  0  0  2  0  0  0  0  0  0
  192.9070  175.9540  148.0600 O   0  0  0  0  0  1  0  0  0  0  0  0
  1  2  2  0  0  0  0
  2 13  1  0  0  0  0
  2  7  1  0  0  0  0
  4  5  2  0  0  0  0
  4  1  1  0  0  0  0
  5  6  1  0  0  0  0
  6  3  2  0  0  0  0
  6  7  1  0  0  0  0
  7 16  1  1  0  0  0
  9 11  1  0  0  0  0
 10  9  2  0  0  0  0
 11  8  1  0  0  0  0
 11  1  1  0  0  0  0
 12  9  1  0  0  0  0
 13 15  1  0  0  0  0
 15 14  3  0  0  0  0
 16 17  1  0  0  0  0
 17 18  1  1  0  0  0
 17 19  1  0  0  0  0
 20 22  1  0  0  0  0
 20 25  1  0  0  0  0
 21 20  2  0  0  0  0
 23 19  1  6  0  0  0
 23 21  1  0  0  0  0
 23 24  1  0  0  0  0
 24 26  1  1  0  0  0
 24 22  1  0  0  0  0
 26 27  1  0  0  0  0
M  END
>  <MODEL>
7

>  <REMARK>
 VINA RESULT:      -6.7      3.699      6.327
  Name = 
  8 active torsions:
  status: ('A' for Active; 'I' for Inactive)
    1  A    between atoms: C_1  and  N_20
    2  A    between atoms: C_2  and  C_5
    3  A    between atoms: C_2  and  C_19
    4  A    between atoms: C_3  and  C_23
    5  A    between atoms: C_5  and  C_21
    6  A    between atoms: C_9  and  C_17
    7  A    between atoms: C_17  and  C_22
    8  A    between atoms: C_19  and  C_24
                            x       y       z     vdW  Elec       q    Type
                         _______ _______ _______ _____ _____    ______ ____

>  <TORSDO>
F 8

$$$$
=
 OpenBabel11032419503D

 27 28  0  0  1  0  0  0  0  0999 V2000
  190.0770  177.1800  147.1020 C   0  0  0  0  0  0  0  0  0  0  0  0
  189.9750  177.7780  145.8900 C   0  0  0  0  0  0  0  0  0  0  0  0
  186.3670  178.4550  145.9250 O   0  0  0  0  0  0  0  0  0  0  0  0
  188.8590  176.8610  147.8820 C   0  0  0  0  0  3  0  0  0  0  0  0
  187.6470  177.2330  147.4800 C   0  0  0  0  0  3  0  0  0  0  0  0
  187.4840  177.9510  146.2150 C   0  0  0  0  0  0  0  0  0  0  0  0
  188.6280  178.0440  145.2450 C   0  0  2  0  0  3  0  0  0  0  0  0
  191.9220  177.7500  148.5520 O   0  0  0  0  0  1  0  0  0  0  0  0
  192.1140  175.7200  147.2910 C   0  0  0  0  0  0  0  0  0  0  0  0
  193.4140  175.5530  147.7520 O   0  0  0  0  0  1  0  0  0  0  0  0
  191.3610  176.8770  147.6800 N   0  0  0  0  0  0  0  0  0  0  0  0
  191.6030  174.8370  146.5520 O   0  0  0  0  0  0  0  0  0  0  0  0
  191.1960  178.2400  145.1500 C   0  0  0  0  0  2  0  0  0  0  0  0
  191.9140  176.4810  143.3400 N   0  0  0  0  0  0  0  0  0  0  0  0
  191.5990  177.2560  144.1380 C   0  0  0  0  0  0  0  0  0  0  0  0
  188.3960  177.0700  144.0910 C   0  0  0  0  0  2  0  0  0  0  0  0
  187.9230  177.7790  142.8270 C   0  0  2  0  0  3  0  0  0  0  0  0
  186.9540  177.0320  142.1800 F   0  0  0  0  0  0  0  0  0  0  0  0
  189.0890  178.0680  141.8910 C   0  0  0  0  0  2  0  0  0  0  0  0
  190.6830  177.0060  139.2020 C   0  0  0  0  0  0  0  0  0  0  0  0
  190.2220  176.5890  140.3280 N   0  0  0  0  0  0  0  0  0  0  0  0
  189.8890  177.9510  138.5900 O   0  0  0  0  0  0  0  0  0  0  0  0
  188.9630  177.2680  140.6030 C   0  0  2  0  0  3  0  0  0  0  0  0
  188.7610  178.2090  139.4080 C   0  0  2  0  0  3  0  0  0  0  0  0
  191.9570  176.5080  138.6220 C   0  0  0  0  0  1  0  0  0  0  0  0
  187.4900  177.8280  138.6700 C   0  0  0  0  0  2  0  0  0  0  0  0
  186.4860  178.7560  138.9500 O   0  0  0  0  0  1  0  0  0  0  0  0
  1 11  1  0  0  0  0
  1  4  1  0  0  0  0
  2  1  2  0  0  0  0
  3  6  2  0  0  0  0
  5  4  2  0  0  0  0
  6  5  1  0  0  0  0
  7 16  1  6  0  0  0
  7  2  1  0  0  0  0
  7  6  1  0  0  0  0
  9 11  1  0  0  0  0
  9 10  1  0  0  0  0
 11  8  1  0  0  0  0
 12  9  2  0  0  0  0
 13  2  1  0  0  0  0
 14 15  3  0  0  0  0
 15 13  1  0  0  0  0
 17 18  1  6  0  0  0
 17 16  1  0  0  0  0
 19 17  1  0  0  0  0
 20 21  2  0  0  0  0
 21 23  1  0  0  0  0
 22 20  1  0  0  0  0
 22 24  1  0  0  0  0
 23 19  1  1  0  0  0
 24 26  1  6  0  0  0
 24 23  1  0  0  0  0
 25 20  1  0  0  0  0
 26 27  1  0  0  0  0
M  END
>  <MODEL>
8

>  <REMARK>
 VINA RESULT:      -6.6      3.123      5.931
  Name = 
  8 active torsions:
  status: ('A' for Active; 'I' for Inactive)
    1  A    between atoms: C_1  and  N_20
    2  A    between atoms: C_2  and  C_5
    3  A    between atoms: C_2  and  C_19
    4  A    between atoms: C_3  and  C_23
    5  A    between atoms: C_5  and  C_21
    6  A    between atoms: C_9  and  C_17
    7  A    between atoms: C_17  and  C_22
    8  A    between atoms: C_19  and  C_24
                            x       y       z     vdW  Elec       q    Type
                         _______ _______ _______ _____ _____    ______ ____

>  <TORSDO>
F 8

$$$$
=
 OpenBabel11032419503D

 27 28  0  0  1  0  0  0  0  0999 V2000
  190.0480  177.2200  147.2220 C   0  0  0  0  0  0  0  0  0  0  0  0
  189.9940  177.5710  145.9130 C   0  0  0  0  0  0  0  0  0  0  0  0
  186.4590  178.5480  145.7610 O   0  0  0  0  0  0  0  0  0  0  0  0
  188.8100  177.1680  148.0310 C   0  0  0  0  0  3  0  0  0  0  0  0
  187.6330  177.5540  147.5460 C   0  0  0  0  0  3  0  0  0  0  0  0
  187.5290  178.0180  146.1620 C   0  0  0  0  0  0  0  0  0  0  0  0
  188.6750  177.8180  145.2090 C   0  0  2  0  0  3  0  0  0  0  0  0
  191.8370  177.8330  148.7230 O   0  0  0  0  0  1  0  0  0  0  0  0
  192.0580  175.7500  147.5590 C   0  0  0  0  0  0  0  0  0  0  0  0
  193.3350  175.5890  148.0820 O   0  0  0  0  0  1  0  0  0  0  0  0
  191.3030  176.9300  147.8660 N   0  0  0  0  0  0  0  0  0  0  0  0
  191.5680  174.8410  146.8380 O   0  0  0  0  0  0  0  0  0  0  0  0
  191.2490  177.7700  145.1140 C   0  0  0  0  0  2  0  0  0  0  0  0
  191.2650  180.1300  143.9670 N   0  0  0  0  0  0  0  0  0  0  0  0
  191.2580  179.0900  144.4730 C   0  0  0  0  0  0  0  0  0  0  0  0
  188.3550  176.6570  144.2690 C   0  0  0  0  0  2  0  0  0  0  0  0
  188.3540  177.0860  142.8060 C   0  0  2  0  0  3  0  0  0  0  0  0
  189.2880  178.0830  142.5860 F   0  0  0  0  0  0  0  0  0  0  0  0
  186.9700  177.5460  142.3690 C   0  0  0  0  0  2  0  0  0  0  0  0
  185.4010  178.9830  139.8450 C   0  0  0  0  0  0  0  0  0  0  0  0
  185.7540  179.1990  141.0630 N   0  0  0  0  0  0  0  0  0  0  0  0
  186.3260  178.2740  139.1120 O   0  0  0  0  0  0  0  0  0  0  0  0
  187.0670  178.6080  141.2840 C   0  0  2  0  0  3  0  0  0  0  0  0
  187.4350  177.9650  139.9400 C   0  0  2  0  0  3  0  0  0  0  0  0
  184.1080  179.4610  139.2870 C   0  0  0  0  0  1  0  0  0  0  0  0
  188.6890  178.6200  139.3890 C   0  0  0  0  0  2  0  0  0  0  0  0
  189.7790  177.7640  139.5530 O   0  0  0  0  0  1  0  0  0  0  0  0
  1 11  1  0  0  0  0
  1  4  1  0  0  0  0
  2  1  2  0  0  0  0
  3  6  2  0  0  0  0
  5  4  2  0  0  0  0
  6  5  1  0  0  0  0
  7 16  1  6  0  0  0
  7  2  1  0  0  0  0
  7  6  1  0  0  0  0
  9 11  1  0  0  0  0
  9 10  1  0  0  0  0
 11  8  1  0  0  0  0
 12  9  2  0  0  0  0
 13  2  1  0  0  0  0
 14 15  3  0  0  0  0
 15 13  1  0  0  0  0
 17 18  1  1  0  0  0
 17 16  1  0  0  0  0
 19 17  1  0  0  0  0
 20 21  2  0  0  0  0
 21 23  1  0  0  0  0
 22 20  1  0  0  0  0
 22 24  1  0  0  0  0
 23 19  1  1  0  0  0
 24 26  1  6  0  0  0
 24 23  1  0  0  0  0
 25 20  1  0  0  0  0
 26 27  1  0  0  0  0
M  END
>  <MODEL>
9

>  <REMARK>
 VINA RESULT:      -6.6      2.749      5.003
  Name = 
  8 active torsions:
  status: ('A' for Active; 'I' for Inactive)
    1  A    between atoms: C_1  and  N_20
    2  A    between atoms: C_2  and  C_5
    3  A    between atoms: C_2  and  C_19
    4  A    between atoms: C_3  and  C_23
    5  A    between atoms: C_5  and  C_21
    6  A    between atoms: C_9  and  C_17
    7  A    between atoms: C_17  and  C_22
    8  A    between atoms: C_19  and  C_24
                            x       y       z     vdW  Elec       q    Type
                         _______ _______ _______ _____ _____    ______ ____

>  <TORSDO>
F 8

$$$$
