=
 OpenBabel11032419593D

 64 72  0  0  1  0  0  0  0  0999 V2000
  183.6810  177.9520  140.5420 C   0  0  0  0  0  2  0  0  0  0  0  0
  187.1970  178.5480  139.8120 C   0  0  0  0  0  2  0  0  0  0  0  0
  189.2490  174.5110  136.2320 N   0  0  0  0  0  0  0  0  0  0  0  0
  187.0340  175.5920  136.5930 C   0  0  0  0  0  0  0  0  0  0  0  0
  181.5640  179.0980  141.1610 C   0  0  0  0  0  2  0  0  0  0  0  0
  186.5950  176.7540  137.2070 C   0  0  0  0  0  0  0  0  0  0  0  0
  179.0280  181.3500  137.5660 C   0  0  0  0  0  2  0  0  0  0  0  0
  180.9110  179.4950  138.3100 C   0  0  2  0  0  3  0  0  0  0  0  0
  179.8770  179.8040  139.4170 C   0  0  2  0  0  3  0  0  0  0  0  0
  181.9610  178.4700  138.7800 C   0  0  1  0  0  3  0  0  0  0  0  0
  187.6300  172.6920  136.1740 N   0  0  0  0  0  0  0  0  0  0  0  0
  187.7530  177.3580  137.7310 C   0  0  0  0  0  0  0  0  0  0  0  0
  181.5280  180.7880  137.7670 C   0  0  0  0  0  2  0  0  0  0  0  0
  178.9310  180.9530  139.0380 C   0  0  0  0  0  2  0  0  0  0  0  0
  186.4530  173.2480  136.1810 C   0  0  0  0  0  0  0  0  0  0  0  0
  185.3210  172.4100  136.4500 N   0  0  0  0  0  2  0  0  0  0  0  0
  180.5570  180.1640  140.7420 C   0  0  0  0  0  2  0  0  0  0  0  0
  182.9550  178.0760  137.7000 C   0  0  0  0  0  0  0  0  0  0  0  0
  184.7390  177.8480  139.4960 C   0  0  1  0  0  3  0  0  0  0  0  0
  188.9260  173.2830  135.9460 C   0  0  0  0  0  3  0  0  0  0  0  0
  180.4650  181.7310  137.1830 C   0  0  1  0  0  3  0  0  0  0  0  0
  182.6250  178.9420  140.0810 C   0  0  2  0  0  3  0  0  0  0  0  0
  188.3890  175.5140  136.7810 C   0  0  0  0  0  0  0  0  0  0  0  0
  182.4900  177.8120  136.4770 C   0  0  0  0  0  2  0  0  0  0  0  0
  184.3570  177.7140  138.0680 C   0  0  0  0  0  0  0  0  0  0  0  0
  186.2480  174.6670  135.7420 C   0  0  0  0  0  2  0  0  0  0  0  0
  188.8300  176.5890  137.4580 N   0  0  0  0  0  0  0  0  0  0  0  0
  187.8500  178.6610  138.4780 C   0  0  0  0  0  2  0  0  0  0  0  0
  185.9490  178.2110  139.7790 C   0  0  0  0  0  2  0  0  0  0  0  0
  180.5870  181.7600  135.6730 C   0  0  0  0  0  1  0  0  0  0  0  0
  185.1910  177.2410  137.1100 C   0  0  0  0  0  3  0  0  0  0  0  0
  181.3560  173.5510  137.4360 C   0  0  0  0  0  0  0  0  0  0  0  0
  182.9200  172.0020  136.4200 C   0  0  0  0  0  3  0  0  0  0  0  0
  180.0360  173.9590  137.7890 N   0  0  0  0  0  1  0  0  0  0  0  0
  183.7370  174.0080  137.4850 C   0  0  0  0  0  3  0  0  0  0  0  0
  182.4280  174.3660  137.8100 C   0  0  0  0  0  3  0  0  0  0  0  0
  181.5960  172.3460  136.7350 C   0  0  0  0  0  0  0  0  0  0  0  0
  183.9890  172.8290  136.7750 C   0  0  0  0  0  0  0  0  0  0  0  0
  180.5160  171.4240  136.3160 C   0  0  0  0  0  0  0  0  0  0  0  0
  179.5570  171.1470  137.0860 O   0  0  0  0  0  1  0  0  0  0  0  0
  180.5410  170.8580  135.0460 O   0  0  0  0  0  0  0  0  0  0  0  0
  190.2090  176.8430  137.8540 C   0  0  0  0  0  2  0  0  0  0  0  0
  190.5640  175.9920  139.0640 C   0  0  0  0  0  2  0  0  0  0  0  0
  191.1910  176.8430  140.1540 C   0  0  0  0  0  2  0  0  0  0  0  0
  190.1480  177.2620  141.1770 C   0  0  0  0  0  2  0  0  0  0  0  0
  190.1690  176.3140  142.3630 C   0  0  0  0  0  2  0  0  0  0  0  0
  188.7640  176.1500  142.9200 C   0  0  0  0  0  2  0  0  0  0  0  0
  188.6820  176.6630  144.3510 C   0  0  1  0  0  3  0  0  0  0  0  0
  190.0580  176.6890  144.9540 C   0  0  0  0  0  3  0  0  0  0  0  0
  190.3130  176.8880  146.2580 C   0  0  0  0  0  0  0  0  0  0  0  0
  188.6960  178.5830  147.3130 C   0  0  0  0  0  2  0  0  0  0  0  0
  188.2570  176.1910  147.4820 O   0  0  0  0  0  1  0  0  0  0  0  0
  189.5510  178.0370  148.4530 C   0  0  0  0  0  2  0  0  0  0  0  0
  189.2260  177.1670  147.2590 C   0  0  0  0  0  0  0  0  0  0  0  0
  192.0890  175.7440  147.3320 O   0  0  0  0  0  1  0  0  0  0  0  0
  191.7390  176.9400  146.7070 C   0  0  0  0  0  2  0  0  0  0  0  0
  188.1510  177.9550  144.3480 O   0  0  0  0  0  0  0  0  0  0  0  0
  187.0740  177.9070  143.4570 C   0  0  0  0  0  2  0  0  0  0  0  0
  184.6780  178.6390  143.4360 C   0  0  0  0  0  3  0  0  0  0  0  0
  183.4610  178.9680  145.5020 C   0  0  0  0  0  3  0  0  0  0  0  0
  184.5960  178.5980  146.2320 C   0  0  0  0  0  3  0  0  0  0  0  0
  185.7730  178.2490  145.5630 C   0  0  0  0  0  3  0  0  0  0  0  0
  183.5010  178.9880  144.1050 C   0  0  0  0  0  3  0  0  0  0  0  0
  185.8150  178.2700  144.1640 C   0  0  0  0  0  0  0  0  0  0  0  0
  3 23  1  0  0  0  0
  4 23  2  0  0  0  0
  4  6  1  0  0  0  0
  6 12  2  0  0  0  0
  7 14  1  0  0  0  0
  8 13  1  1  0  0  0
  8 10  1  0  0  0  0
  8  9  1  0  0  0  0
  9 14  1  6  0  0  0
  9 17  1  0  0  0  0
 10 18  1  6  0  0  0
 10 22  1  0  0  0  0
 11 15  2  0  0  0  0
 12 28  1  0  0  0  0
 15 16  1  0  0  0  0
 16 38  1  0  0  0  0
 17  5  1  0  0  0  0
 18 25  1  0  0  0  0
 19 29  1  6  0  0  0
 19  1  1  0  0  0  0
 20 11  1  0  0  0  0
 20  3  2  0  0  0  0
 21 30  1  6  0  0  0
 21  7  1  0  0  0  0
 21 13  1  0  0  0  0
 22  1  1  1  0  0  0
 22  5  1  0  0  0  0
 23 27  1  0  0  0  0
 24 18  2  0  0  0  0
 25 19  1  0  0  0  0
 26 15  1  0  0  0  0
 26  4  1  0  0  0  0
 27 12  1  0  0  0  0
 27 42  1  0  0  0  0
 28  2  1  0  0  0  0
 29  2  1  0  0  0  0
 31  6  1  0  0  0  0
 31 25  2  0  0  0  0
 32 34  1  0  0  0  0
 32 36  1  0  0  0  0
 33 37  1  0  0  0  0
 33 38  2  0  0  0  0
 35 36  2  0  0  0  0
 37 32  2  0  0  0  0
 38 35  1  0  0  0  0
 39 37  1  0  0  0  0
 39 40  1  0  0  0  0
 41 39  2  0  0  0  0
 42 43  1  0  0  0  0
 43 44  1  0  0  0  0
 44 45  1  0  0  0  0
 45 46  1  0  0  0  0
 46 47  1  0  0  0  0
 48 47  1  6  0  0  0
 48 49  1  0  0  0  0
 49 50  2  0  0  0  0
 50 56  1  0  0  0  0
 50 54  1  0  0  0  0
 51 53  1  0  0  0  0
 54 51  1  0  0  0  0
 54 52  1  0  0  0  0
 54 53  1  0  0  0  0
 56 55  1  0  0  0  0
 57 48  1  0  0  0  0
 58 64  1  0  0  0  0
 58 57  1  0  0  0  0
 59 63  2  0  0  0  0
 59 64  1  0  0  0  0
 60 61  2  0  0  0  0
 62 61  1  0  0  0  0
 63 60  1  0  0  0  0
 64 62  2  0  0  0  0
M  END
>  <MODEL>
1

>  <REMARK>
 VINA RESULT:      -8.7      0.000      0.000
  Name = 
  15 active torsions:
  status: ('A' for Active; 'I' for Inactive)
    1  A    between atoms: C_4  and  C_20
    2  A    between atoms: C_4  and  C_25
    3  A    between atoms: C_4  and  O_33
    4  A    between atoms: C_10  and  C_25
    5  A    between atoms: C_10  and  C_50
    6  A    between atoms: C_14  and  C_38
    7  A    between atoms: C_14  and  C_53
    8  A    between atoms: N_32  and  C_60
    9  A    between atoms: O_33  and  C_51
   10  A    between atoms: C_34  and  C_51
   11  A    between atoms: C_36  and  C_43
   12  A    between atoms: C_36  and  C_62
   13  A    between atoms: C_38  and  C_50
   14  A    between atoms: C_39  and  C_57
   15  A    between atoms: C_53  and  N_56
                            x       y       z     vdW  Elec       q    Type
                         _______ _______ _______ _____ _____    ______ ____

>  <TORSDO>
F 15

$$$$
=
 OpenBabel11032419593D

 64 72  0  0  1  0  0  0  0  0999 V2000
  183.5390  177.9380  140.4270 C   0  0  0  0  0  2  0  0  0  0  0  0
  187.1000  178.5560  140.0030 C   0  0  0  0  0  2  0  0  0  0  0  0
  189.3210  175.0230  136.0140 N   0  0  0  0  0  0  0  0  0  0  0  0
  187.1020  176.0890  136.3920 C   0  0  0  0  0  0  0  0  0  0  0  0
  181.4010  179.0300  141.0750 C   0  0  0  0  0  2  0  0  0  0  0  0
  186.6400  177.1610  137.1370 C   0  0  0  0  0  0  0  0  0  0  0  0
  179.1250  181.8220  137.6920 C   0  0  0  0  0  2  0  0  0  0  0  0
  180.9330  179.8400  138.2750 C   0  0  2  0  0  3  0  0  0  0  0  0
  179.8370  180.0120  139.3510 C   0  0  2  0  0  3  0  0  0  0  0  0
  181.9390  178.7370  138.6570 C   0  0  1  0  0  3  0  0  0  0  0  0
  187.6860  173.2660  135.6000 N   0  0  0  0  0  0  0  0  0  0  0  0
  187.7700  177.6600  137.8100 C   0  0  0  0  0  0  0  0  0  0  0  0
  181.6000  181.1840  137.9610 C   0  0  0  0  0  2  0  0  0  0  0  0
  178.9310  181.2230  139.0840 C   0  0  0  0  0  2  0  0  0  0  0  0
  186.5180  173.8400  135.6140 C   0  0  0  0  0  0  0  0  0  0  0  0
  185.3610  172.9970  135.6930 N   0  0  0  0  0  2  0  0  0  0  0  0
  180.4360  180.1660  140.7520 C   0  0  0  0  0  2  0  0  0  0  0  0
  182.9940  178.4790  137.5940 C   0  0  0  0  0  0  0  0  0  0  0  0
  184.6580  177.9600  139.4430 C   0  0  1  0  0  3  0  0  0  0  0  0
  189.0010  173.8550  135.5370 C   0  0  0  0  0  3  0  0  0  0  0  0
  180.5870  182.2220  137.4550 C   0  0  1  0  0  3  0  0  0  0  0  0
  182.5260  179.0060  140.0500 C   0  0  2  0  0  3  0  0  0  0  0  0
  188.4410  175.9560  136.6480 C   0  0  0  0  0  0  0  0  0  0  0  0
  182.6020  178.4000  136.3200 C   0  0  0  0  0  2  0  0  0  0  0  0
  184.3640  178.0380  137.9900 C   0  0  0  0  0  0  0  0  0  0  0  0
  186.3590  175.3110  135.3710 C   0  0  0  0  0  2  0  0  0  0  0  0
  188.8530  176.9140  137.4960 N   0  0  0  0  0  0  0  0  0  0  0  0
  187.8370  178.8420  138.7400 C   0  0  0  0  0  2  0  0  0  0  0  0
  185.8520  178.2540  139.8480 C   0  0  0  0  0  2  0  0  0  0  0  0
  180.8040  182.4630  135.9740 C   0  0  0  0  0  1  0  0  0  0  0  0
  185.2510  177.6870  137.0260 C   0  0  0  0  0  3  0  0  0  0  0  0
  181.3790  174.0990  136.6560 C   0  0  0  0  0  0  0  0  0  0  0  0
  183.0740  172.4050  136.2890 C   0  0  0  0  0  3  0  0  0  0  0  0
  180.0510  174.5020  136.9830 N   0  0  0  0  0  1  0  0  0  0  0  0
  183.6390  174.7400  136.0550 C   0  0  0  0  0  3  0  0  0  0  0  0
  182.3280  175.0880  136.3810 C   0  0  0  0  0  3  0  0  0  0  0  0
  181.7500  172.7350  136.6170 C   0  0  0  0  0  0  0  0  0  0  0  0
  184.0160  173.3940  135.9940 C   0  0  0  0  0  0  0  0  0  0  0  0
  180.8070  171.6300  136.9070 C   0  0  0  0  0  0  0  0  0  0  0  0
  180.3480  171.4510  138.0670 O   0  0  0  0  0  1  0  0  0  0  0  0
  180.4020  170.7770  135.8860 O   0  0  0  0  0  0  0  0  0  0  0  0
  190.2070  177.0800  138.0070 C   0  0  0  0  0  2  0  0  0  0  0  0
  190.4750  176.0600  139.1030 C   0  0  0  0  0  2  0  0  0  0  0  0
  190.5290  176.7330  140.4620 C   0  0  0  0  0  2  0  0  0  0  0  0
  189.1730  176.6750  141.1470 C   0  0  0  0  0  2  0  0  0  0  0  0
  189.3360  176.2410  142.5930 C   0  0  0  0  0  2  0  0  0  0  0  0
  188.0450  176.4870  143.3560 C   0  0  0  0  0  2  0  0  0  0  0  0
  187.9950  177.9090  143.9000 C   0  0  1  0  0  3  0  0  0  0  0  0
  187.1510  177.9420  145.1420 C   0  0  0  0  0  3  0  0  0  0  0  0
  185.8250  178.1530  145.1550 C   0  0  0  0  0  0  0  0  0  0  0  0
  185.1320  179.8430  143.3480 C   0  0  0  0  0  2  0  0  0  0  0  0
  184.9580  177.4480  142.9260 O   0  0  0  0  0  1  0  0  0  0  0  0
  183.8410  179.3550  143.9970 C   0  0  0  0  0  2  0  0  0  0  0  0
  185.0420  178.4390  143.9030 C   0  0  0  0  0  0  0  0  0  0  0  0
  185.7730  179.1030  147.3250 O   0  0  0  0  0  1  0  0  0  0  0  0
  185.1230  178.2100  146.4750 C   0  0  0  0  0  2  0  0  0  0  0  0
  189.2910  178.3310  144.2050 O   0  0  0  0  0  0  0  0  0  0  0  0
  189.3610  178.3210  145.6010 C   0  0  0  0  0  2  0  0  0  0  0  0
  191.2870  176.7840  145.1400 C   0  0  0  0  0  3  0  0  0  0  0  0
  192.2440  175.4290  146.9030 C   0  0  0  0  0  3  0  0  0  0  0  0
  191.3280  175.9650  147.8150 C   0  0  0  0  0  3  0  0  0  0  0  0
  190.3910  176.9110  147.3890 C   0  0  0  0  0  3  0  0  0  0  0  0
  192.2230  175.8380  145.5660 C   0  0  0  0  0  3  0  0  0  0  0  0
  190.3680  177.3210  146.0510 C   0  0  0  0  0  0  0  0  0  0  0  0
  3 23  1  0  0  0  0
  4 23  2  0  0  0  0
  4  6  1  0  0  0  0
  6 12  2  0  0  0  0
  7 14  1  0  0  0  0
  8 13  1  1  0  0  0
  8 10  1  0  0  0  0
  8  9  1  0  0  0  0
  9 14  1  6  0  0  0
  9 17  1  0  0  0  0
 10 18  1  6  0  0  0
 10 22  1  0  0  0  0
 11 15  2  0  0  0  0
 12 28  1  0  0  0  0
 15 16  1  0  0  0  0
 16 38  1  0  0  0  0
 17  5  1  0  0  0  0
 18 25  1  0  0  0  0
 19 29  1  1  0  0  0
 19  1  1  0  0  0  0
 20 11  1  0  0  0  0
 20  3  2  0  0  0  0
 21 30  1  6  0  0  0
 21  7  1  0  0  0  0
 21 13  1  0  0  0  0
 22  1  1  1  0  0  0
 22  5  1  0  0  0  0
 23 27  1  0  0  0  0
 24 18  2  0  0  0  0
 25 19  1  0  0  0  0
 26 15  1  0  0  0  0
 26  4  1  0  0  0  0
 27 12  1  0  0  0  0
 27 42  1  0  0  0  0
 28  2  1  0  0  0  0
 29  2  1  0  0  0  0
 31  6  1  0  0  0  0
 31 25  2  0  0  0  0
 32 34  1  0  0  0  0
 33 37  2  0  0  0  0
 35 36  1  0  0  0  0
 36 32  2  0  0  0  0
 37 32  1  0  0  0  0
 37 39  1  0  0  0  0
 38 35  2  0  0  0  0
 38 33  1  0  0  0  0
 39 40  1  0  0  0  0
 41 39  2  0  0  0  0
 42 43  1  0  0  0  0
 43 44  1  0  0  0  0
 44 45  1  0  0  0  0
 45 46  1  0  0  0  0
 46 47  1  0  0  0  0
 48 47  1  1  0  0  0
 48 57  1  0  0  0  0
 48 49  1  0  0  0  0
 49 50  2  0  0  0  0
 50 56  1  0  0  0  0
 51 54  1  0  0  0  0
 51 53  1  0  0  0  0
 52 54  1  0  0  0  0
 54 53  1  0  0  0  0
 54 50  1  0  0  0  0
 56 55  1  0  0  0  0
 57 58  1  0  0  0  0
 58 64  1  0  0  0  0
 59 63  2  0  0  0  0
 59 64  1  0  0  0  0
 60 61  2  0  0  0  0
 62 61  1  0  0  0  0
 63 60  1  0  0  0  0
 64 62  2  0  0  0  0
M  END
>  <MODEL>
2

>  <REMARK>
 VINA RESULT:      -7.4      1.124      3.186
  Name = 
  15 active torsions:
  status: ('A' for Active; 'I' for Inactive)
    1  A    between atoms: C_4  and  C_20
    2  A    between atoms: C_4  and  C_25
    3  A    between atoms: C_4  and  O_33
    4  A    between atoms: C_10  and  C_25
    5  A    between atoms: C_10  and  C_50
    6  A    between atoms: C_14  and  C_38
    7  A    between atoms: C_14  and  C_53
    8  A    between atoms: N_32  and  C_60
    9  A    between atoms: O_33  and  C_51
   10  A    between atoms: C_34  and  C_51
   11  A    between atoms: C_36  and  C_43
   12  A    between atoms: C_36  and  C_62
   13  A    between atoms: C_38  and  C_50
   14  A    between atoms: C_39  and  C_57
   15  A    between atoms: C_53  and  N_56
                            x       y       z     vdW  Elec       q    Type
                         _______ _______ _______ _____ _____    ______ ____

>  <TORSDO>
F 15

$$$$
=
 OpenBabel11032419593D

 64 72  0  0  1  0  0  0  0  0999 V2000
  185.6790  178.5640  138.0990 C   0  0  0  0  0  2  0  0  0  0  0  0
  185.7380  178.8160  141.7300 C   0  0  0  0  0  2  0  0  0  0  0  0
  180.4400  179.8200  143.7890 N   0  0  0  0  0  0  0  0  0  0  0  0
  181.3710  178.6150  141.8180 C   0  0  0  0  0  0  0  0  0  0  0  0
  186.8410  177.5170  136.1660 C   0  0  0  0  0  2  0  0  0  0  0  0
  182.6090  178.0980  141.4760 C   0  0  0  0  0  0  0  0  0  0  0  0
  185.8180  172.7910  135.1480 C   0  0  0  0  0  2  0  0  0  0  0  0
  185.0970  175.1440  136.3650 C   0  0  2  0  0  3  0  0  0  0  0  0
  186.0500  175.3370  135.1640 C   0  0  2  0  0  3  0  0  0  0  0  0
  184.7410  176.4870  137.0320 C   0  0  1  0  0  3  0  0  0  0  0  0
  179.0370  180.4830  141.9120 N   0  0  0  0  0  0  0  0  0  0  0  0
  183.4550  178.4140  142.5560 C   0  0  0  0  0  0  0  0  0  0  0  0
  185.6630  174.1130  137.3470 C   0  0  0  0  0  2  0  0  0  0  0  0
  186.5640  174.0050  134.5970 C   0  0  0  0  0  2  0  0  0  0  0  0
  179.3880  179.7310  140.9080 C   0  0  0  0  0  0  0  0  0  0  0  0
  178.9340  180.1080  139.6020 N   0  0  0  0  0  2  0  0  0  0  0  0
  187.2640  176.1950  135.5350 C   0  0  0  0  0  2  0  0  0  0  0  0
  183.7450  176.3560  138.1720 C   0  0  0  0  0  0  0  0  0  0  0  0
  184.9160  178.2810  139.3490 C   0  0  1  0  0  3  0  0  0  0  0  0
  179.3510  180.3530  143.3130 C   0  0  0  0  0  3  0  0  0  0  0  0
  185.8810  172.7460  136.6810 C   0  0  1  0  0  3  0  0  0  0  0  0
  186.0170  177.2490  137.4170 C   0  0  2  0  0  3  0  0  0  0  0  0
  181.5030  179.2320  143.0350 C   0  0  0  0  0  0  0  0  0  0  0  0
  182.6800  175.5720  137.9960 C   0  0  0  0  0  2  0  0  0  0  0  0
  183.8030  177.2990  139.3300 C   0  0  0  0  0  0  0  0  0  0  0  0
  180.0820  178.4180  141.1110 C   0  0  0  0  0  2  0  0  0  0  0  0
  182.7600  179.1000  143.4910 N   0  0  0  0  0  0  0  0  0  0  0  0
  184.9100  178.0650  142.7140 C   0  0  0  0  0  2  0  0  0  0  0  0
  185.4240  178.6170  140.4910 C   0  0  0  0  0  2  0  0  0  0  0  0
  184.8470  171.7620  137.1920 C   0  0  0  0  0  1  0  0  0  0  0  0
  182.8300  177.2520  140.2710 C   0  0  0  0  0  3  0  0  0  0  0  0
  180.2360  178.5870  135.8610 C   0  0  0  0  0  0  0  0  0  0  0  0
  179.0940  178.2960  137.9810 C   0  0  0  0  0  3  0  0  0  0  0  0
  180.6810  178.1080  134.5950 N   0  0  0  0  0  1  0  0  0  0  0  0
  180.1120  180.4190  137.4450 C   0  0  0  0  0  3  0  0  0  0  0  0
  180.5260  179.9080  136.2150 C   0  0  0  0  0  3  0  0  0  0  0  0
  179.5040  177.7640  136.7490 C   0  0  0  0  0  0  0  0  0  0  0  0
  179.4040  179.6110  138.3420 C   0  0  0  0  0  0  0  0  0  0  0  0
  179.1470  176.3590  136.4420 C   0  0  0  0  0  0  0  0  0  0  0  0
  178.9930  175.9690  135.2540 O   0  0  0  0  0  0  0  0  0  0  0  0
  178.9900  175.4420  137.4750 O   0  0  0  0  0  1  0  0  0  0  0  0
  183.2760  179.6390  144.7420 C   0  0  0  0  0  2  0  0  0  0  0  0
  184.7560  179.3130  144.8740 C   0  0  0  0  0  2  0  0  0  0  0  0
  185.0050  178.4160  146.0730 C   0  0  0  0  0  2  0  0  0  0  0  0
  185.9470  177.2790  145.7090 C   0  0  0  0  0  2  0  0  0  0  0  0
  187.2730  177.8360  145.2220 C   0  0  0  0  0  2  0  0  0  0  0  0
  187.8290  176.9570  144.1130 C   0  0  0  0  0  2  0  0  0  0  0  0
  189.0220  177.6200  143.4390 C   0  0  1  0  0  3  0  0  0  0  0  0
  188.6460  178.0280  142.0430 C   0  0  0  0  0  3  0  0  0  0  0  0
  189.2600  177.5910  140.9320 C   0  0  0  0  0  0  0  0  0  0  0  0
  191.7930  177.2770  140.6400 C   0  0  0  0  0  2  0  0  0  0  0  0
  190.5000  175.6930  141.9670 O   0  0  0  0  0  1  0  0  0  0  0  0
  191.1250  176.3040  139.6730 C   0  0  0  0  0  2  0  0  0  0  0  0
  190.4490  176.6710  140.9760 C   0  0  0  0  0  0  0  0  0  0  0  0
  188.7480  179.5180  139.6500 O   0  0  0  0  0  1  0  0  0  0  0  0
  188.8090  178.1260  139.6090 C   0  0  0  0  0  2  0  0  0  0  0  0
  189.3960  178.7500  144.1700 O   0  0  0  0  0  0  0  0  0  0  0  0
  190.7720  178.6180  144.3740 C   0  0  0  0  0  2  0  0  0  0  0  0
  190.5020  177.6900  146.6860 C   0  0  0  0  0  3  0  0  0  0  0  0
  191.5500  175.6000  147.3160 C   0  0  0  0  0  3  0  0  0  0  0  0
  192.0820  175.4770  146.0270 C   0  0  0  0  0  3  0  0  0  0  0  0
  191.8240  176.4600  145.0680 C   0  0  0  0  0  3  0  0  0  0  0  0
  190.7600  176.7060  147.6450 C   0  0  0  0  0  3  0  0  0  0  0  0
  191.0350  177.5680  145.3970 C   0  0  0  0  0  0  0  0  0  0  0  0
  2 28  1  0  0  0  0
  4 23  2  0  0  0  0
  6  4  1  0  0  0  0
  6 12  2  0  0  0  0
  7 21  1  0  0  0  0
  8 10  1  0  0  0  0
  8 13  1  1  0  0  0
  9 14  1  1  0  0  0
  9 17  1  0  0  0  0
  9  8  1  0  0  0  0
 10 22  1  0  0  0  0
 10 18  1  1  0  0  0
 11 20  1  0  0  0  0
 12 28  1  0  0  0  0
 12 27  1  0  0  0  0
 14  7  1  0  0  0  0
 15 26  1  0  0  0  0
 15 11  2  0  0  0  0
 16 15  1  0  0  0  0
 17  5  1  0  0  0  0
 18 25  1  0  0  0  0
 19  1  1  6  0  0  0
 19 29  1  0  0  0  0
 20  3  2  0  0  0  0
 21 30  1  1  0  0  0
 21 13  1  0  0  0  0
 22  5  1  6  0  0  0
 22  1  1  0  0  0  0
 23 27  1  0  0  0  0
 23  3  1  0  0  0  0
 24 18  2  0  0  0  0
 25 19  1  0  0  0  0
 25 31  2  0  0  0  0
 26  4  1  0  0  0  0
 27 42  1  0  0  0  0
 29  2  1  0  0  0  0
 31  6  1  0  0  0  0
 32 36  2  0  0  0  0
 32 37  1  0  0  0  0
 33 38  1  0  0  0  0
 34 32  1  0  0  0  0
 35 38  2  0  0  0  0
 36 35  1  0  0  0  0
 37 33  2  0  0  0  0
 38 16  1  0  0  0  0
 39 37  1  0  0  0  0
 39 41  1  0  0  0  0
 40 39  2  0  0  0  0
 42 43  1  0  0  0  0
 43 44  1  0  0  0  0
 45 44  1  0  0  0  0
 46 45  1  0  0  0  0
 47 46  1  0  0  0  0
 48 49  1  6  0  0  0
 48 47  1  0  0  0  0
 48 57  1  0  0  0  0
 50 54  1  0  0  0  0
 50 49  2  0  0  0  0
 51 54  1  0  0  0  0
 53 51  1  0  0  0  0
 53 54  1  0  0  0  0
 54 52  1  0  0  0  0
 56 55  1  0  0  0  0
 56 50  1  0  0  0  0
 57 58  1  0  0  0  0
 58 64  1  0  0  0  0
 59 63  1  0  0  0  0
 60 63  2  0  0  0  0
 61 60  1  0  0  0  0
 62 64  1  0  0  0  0
 62 61  2  0  0  0  0
 64 59  2  0  0  0  0
M  END
>  <MODEL>
3

>  <REMARK>
 VINA RESULT:      -7.0      2.996      7.429
  Name = 
  15 active torsions:
  status: ('A' for Active; 'I' for Inactive)
    1  A    between atoms: C_4  and  C_20
    2  A    between atoms: C_4  and  C_25
    3  A    between atoms: C_4  and  O_33
    4  A    between atoms: C_10  and  C_25
    5  A    between atoms: C_10  and  C_50
    6  A    between atoms: C_14  and  C_38
    7  A    between atoms: C_14  and  C_53
    8  A    between atoms: N_32  and  C_60
    9  A    between atoms: O_33  and  C_51
   10  A    between atoms: C_34  and  C_51
   11  A    between atoms: C_36  and  C_43
   12  A    between atoms: C_36  and  C_62
   13  A    between atoms: C_38  and  C_50
   14  A    between atoms: C_39  and  C_57
   15  A    between atoms: C_53  and  N_56
                            x       y       z     vdW  Elec       q    Type
                         _______ _______ _______ _____ _____    ______ ____

>  <TORSDO>
F 15

$$$$
=
 OpenBabel11032419593D

 64 72  0  0  1  0  0  0  0  0999 V2000
  183.1880  178.1180  140.7960 C   0  0  0  0  0  2  0  0  0  0  0  0
  186.7890  178.6230  140.9370 C   0  0  0  0  0  2  0  0  0  0  0  0
  189.4850  175.1390  137.2070 N   0  0  0  0  0  0  0  0  0  0  0  0
  187.2670  176.2700  137.2820 C   0  0  0  0  0  0  0  0  0  0  0  0
  181.0100  179.2630  141.1520 C   0  0  0  0  0  2  0  0  0  0  0  0
  186.7290  177.3340  137.9870 C   0  0  0  0  0  0  0  0  0  0  0  0
  179.3590  182.2340  137.5650 C   0  0  0  0  0  2  0  0  0  0  0  0
  180.9980  180.1740  138.3440 C   0  0  2  0  0  3  0  0  0  0  0  0
  179.7560  180.3510  139.2470 C   0  0  2  0  0  3  0  0  0  0  0  0
  181.9000  179.0250  138.8340 C   0  0  1  0  0  3  0  0  0  0  0  0
  187.8800  173.4540  136.4880 N   0  0  0  0  0  0  0  0  0  0  0  0
  187.7580  177.7730  138.8410 C   0  0  0  0  0  0  0  0  0  0  0  0
  181.7440  181.5020  138.1820 C   0  0  0  0  0  2  0  0  0  0  0  0
  178.9370  181.6000  138.8900 C   0  0  0  0  0  2  0  0  0  0  0  0
  186.7410  174.0670  136.3460 C   0  0  0  0  0  0  0  0  0  0  0  0
  185.5620  173.2630  136.2190 N   0  0  0  0  0  2  0  0  0  0  0  0
  180.1390  180.4410  140.7280 C   0  0  0  0  0  2  0  0  0  0  0  0
  183.0970  178.7630  137.9340 C   0  0  0  0  0  0  0  0  0  0  0  0
  184.4440  178.1310  139.9940 C   0  0  1  0  0  3  0  0  0  0  0  0
  189.2060  173.9980  136.6450 C   0  0  0  0  0  3  0  0  0  0  0  0
  180.8520  182.5910  137.5660 C   0  0  1  0  0  3  0  0  0  0  0  0
  182.2760  179.2310  140.3080 C   0  0  2  0  0  3  0  0  0  0  0  0
  188.5470  176.0830  137.7330 C   0  0  0  0  0  0  0  0  0  0  0  0
  182.9010  178.7370  136.6140 C   0  0  0  0  0  2  0  0  0  0  0  0
  184.3770  178.2630  138.5170 C   0  0  0  0  0  0  0  0  0  0  0  0
  186.6650  175.5500  136.1350 C   0  0  0  0  0  2  0  0  0  0  0  0
  188.8530  177.0000  138.6670 N   0  0  0  0  0  0  0  0  0  0  0  0
  187.7170  178.9220  139.8120 C   0  0  0  0  0  2  0  0  0  0  0  0
  185.5710  178.3700  140.5840 C   0  0  0  0  0  2  0  0  0  0  0  0
  181.2980  182.8690  136.1440 C   0  0  0  0  0  1  0  0  0  0  0  0
  185.3890  177.9110  137.6860 C   0  0  0  0  0  3  0  0  0  0  0  0
  181.5630  174.6320  136.5900 C   0  0  0  0  0  0  0  0  0  0  0  0
  183.7730  174.2810  137.5240 C   0  0  0  0  0  3  0  0  0  0  0  0
  180.2160  175.0880  136.6810 N   0  0  0  0  0  1  0  0  0  0  0  0
  183.3070  173.6060  135.2530 C   0  0  0  0  0  3  0  0  0  0  0  0
  181.9970  174.0680  135.3870 C   0  0  0  0  0  3  0  0  0  0  0  0
  182.4590  174.7490  137.6780 C   0  0  0  0  0  0  0  0  0  0  0  0
  184.1990  173.6980  136.3270 C   0  0  0  0  0  0  0  0  0  0  0  0
  182.0790  175.3440  138.9800 C   0  0  0  0  0  0  0  0  0  0  0  0
  182.8450  175.2770  139.9780 O   0  0  0  0  0  1  0  0  0  0  0  0
  180.8620  176.0040  139.1120 O   0  0  0  0  0  0  0  0  0  0  0  0
  190.1180  177.1020  139.3820 C   0  0  0  0  0  2  0  0  0  0  0  0
  189.8860  176.9090  140.8730 C   0  0  0  0  0  2  0  0  0  0  0  0
  191.1220  177.2980  141.6640 C   0  0  0  0  0  2  0  0  0  0  0  0
  190.8860  178.5910  142.4290 C   0  0  0  0  0  2  0  0  0  0  0  0
  190.3700  178.2860  143.8240 C   0  0  0  0  0  2  0  0  0  0  0  0
  189.2460  177.2660  143.7490 C   0  0  0  0  0  2  0  0  0  0  0  0
  188.9800  176.6450  145.1140 C   0  0  1  0  0  3  0  0  0  0  0  0
  189.4770  177.5690  146.1900 C   0  0  0  0  0  3  0  0  0  0  0  0
  190.4000  177.2400  147.1080 C   0  0  0  0  0  0  0  0  0  0  0  0
  192.4240  175.7720  147.6970 C   0  0  0  0  0  2  0  0  0  0  0  0
  190.1910  174.8010  147.5770 O   0  0  0  0  0  1  0  0  0  0  0  0
  192.1150  175.5080  146.2270 C   0  0  0  0  0  2  0  0  0  0  0  0
  191.0030  175.8640  147.1880 C   0  0  0  0  0  0  0  0  0  0  0  0
  189.6120  178.8950  148.6100 O   0  0  0  0  0  1  0  0  0  0  0  0
  190.7590  178.2480  148.1530 C   0  0  0  0  0  2  0  0  0  0  0  0
  187.6070  176.4440  145.2690 O   0  0  0  0  0  0  0  0  0  0  0  0
  187.1690  177.5020  146.0700 C   0  0  0  0  0  2  0  0  0  0  0  0
  184.8750  178.4370  146.4520 C   0  0  0  0  0  3  0  0  0  0  0  0
  183.4280  178.9770  144.5880 C   0  0  0  0  0  3  0  0  0  0  0  0
  184.4220  178.5630  143.6940 C   0  0  0  0  0  3  0  0  0  0  0  0
  185.6420  178.0860  144.1800 C   0  0  0  0  0  3  0  0  0  0  0  0
  183.6540  178.9140  145.9670 C   0  0  0  0  0  3  0  0  0  0  0  0
  185.8700  178.0210  145.5590 C   0  0  0  0  0  0  0  0  0  0  0  0
  3 23  1  0  0  0  0
  4 23  2  0  0  0  0
  4  6  1  0  0  0  0
  6 12  2  0  0  0  0
  7 21  1  0  0  0  0
  7 14  1  0  0  0  0
  8 13  1  1  0  0  0
  8 10  1  0  0  0  0
  8  9  1  0  0  0  0
  9 14  1  6  0  0  0
  9 17  1  0  0  0  0
 10 18  1  6  0  0  0
 10 22  1  0  0  0  0
 11 20  1  0  0  0  0
 12 28  1  0  0  0  0
 15 11  2  0  0  0  0
 16 38  1  0  0  0  0
 16 15  1  0  0  0  0
 17  5  1  0  0  0  0
 18 25  1  0  0  0  0
 19 29  1  1  0  0  0
 19  1  1  0  0  0  0
 20  3  2  0  0  0  0
 21 30  1  6  0  0  0
 21 13  1  0  0  0  0
 22  1  1  1  0  0  0
 22  5  1  0  0  0  0
 23 27  1  0  0  0  0
 24 18  2  0  0  0  0
 25 19  1  0  0  0  0
 26 15  1  0  0  0  0
 26  4  1  0  0  0  0
 27 12  1  0  0  0  0
 27 42  1  0  0  0  0
 28  2  1  0  0  0  0
 29  2  1  0  0  0  0
 31  6  1  0  0  0  0
 31 25  2  0  0  0  0
 32 34  1  0  0  0  0
 32 37  1  0  0  0  0
 33 37  2  0  0  0  0
 35 36  1  0  0  0  0
 35 38  2  0  0  0  0
 36 32  2  0  0  0  0
 37 39  1  0  0  0  0
 38 33  1  0  0  0  0
 39 41  2  0  0  0  0
 39 40  1  0  0  0  0
 42 43  1  0  0  0  0
 43 44  1  0  0  0  0
 44 45  1  0  0  0  0
 45 46  1  0  0  0  0
 47 46  1  0  0  0  0
 48 47  1  6  0  0  0
 48 57  1  0  0  0  0
 48 49  1  0  0  0  0
 49 50  2  0  0  0  0
 50 54  1  0  0  0  0
 50 56  1  0  0  0  0
 53 54  1  0  0  0  0
 53 51  1  0  0  0  0
 54 52  1  0  0  0  0
 54 51  1  0  0  0  0
 56 55  1  0  0  0  0
 57 58  1  0  0  0  0
 60 63  2  0  0  0  0
 61 62  2  0  0  0  0
 61 60  1  0  0  0  0
 62 64  1  0  0  0  0
 63 59  1  0  0  0  0
 64 58  1  0  0  0  0
 64 59  2  0  0  0  0
M  END
>  <MODEL>
4

>  <REMARK>
 VINA RESULT:      -5.7      1.576      2.150
  Name = 
  15 active torsions:
  status: ('A' for Active; 'I' for Inactive)
    1  A    between atoms: C_4  and  C_20
    2  A    between atoms: C_4  and  C_25
    3  A    between atoms: C_4  and  O_33
    4  A    between atoms: C_10  and  C_25
    5  A    between atoms: C_10  and  C_50
    6  A    between atoms: C_14  and  C_38
    7  A    between atoms: C_14  and  C_53
    8  A    between atoms: N_32  and  C_60
    9  A    between atoms: O_33  and  C_51
   10  A    between atoms: C_34  and  C_51
   11  A    between atoms: C_36  and  C_43
   12  A    between atoms: C_36  and  C_62
   13  A    between atoms: C_38  and  C_50
   14  A    between atoms: C_39  and  C_57
   15  A    between atoms: C_53  and  N_56
                            x       y       z     vdW  Elec       q    Type
                         _______ _______ _______ _____ _____    ______ ____

>  <TORSDO>
F 15

$$$$
