=
 OpenBabel11032420503D

 63 68  0  0  1  0  0  0  0  0999 V2000
  190.5710  177.2850  146.4890 C   0  0  2  0  0  3  0  0  0  0  0  0
  189.0350  178.4740  144.9190 C   0  0  0  0  0  3  0  0  0  0  0  0
  189.2540  177.9420  146.1340 C   0  0  0  0  0  0  0  0  0  0  0  0
  192.4980  174.6050  144.8280 C   0  0  0  0  0  2  0  0  0  0  0  0
  192.0590  175.3680  143.7280 O   0  0  0  0  0  0  0  0  0  0  0  0
  190.3890  177.0910  143.3320 C   0  0  1  0  0  3  0  0  0  0  0  0
  191.4400  176.5050  144.2730 C   0  0  1  0  0  3  0  0  0  0  0  0
  190.0280  178.4970  143.7960 C   0  0  0  0  0  2  0  0  0  0  0  0
  191.8550  175.1320  146.0950 C   0  0  0  0  0  2  0  0  0  0  0  0
  190.8180  176.0800  145.5780 C   0  0  1  0  0  3  0  0  0  0  0  0
  191.7850  177.3050  148.3440 C   0  0  0  0  0  1  0  0  0  0  0  0
  190.5570  176.8840  147.8300 O   0  0  0  0  0  0  0  0  0  0  0  0
  188.2510  177.9880  147.1110 O   0  0  0  0  0  0  0  0  0  0  0  0
  186.8850  177.6950  146.8360 C   0  0  0  0  0  2  0  0  0  0  0  0
  186.0390  178.9350  147.0680 C   0  0  0  0  0  2  0  0  0  0  0  0
  184.7450  178.7310  146.5890 O   0  0  0  0  0  0  0  0  0  0  0  0
  184.9110  178.4910  145.2270 C   0  0  0  0  0  2  0  0  0  0  0  0
  184.1630  179.5380  144.4170 C   0  0  0  0  0  2  0  0  0  0  0  0
  183.4250  178.8570  143.2800 C   0  0  0  0  0  2  0  0  0  0  0  0
  181.9250  178.9050  143.5170 C   0  0  0  0  0  2  0  0  0  0  0  0
  181.2060  179.1150  142.1940 C   0  0  1  0  0  3  0  0  0  0  0  0
  182.1740  178.9130  141.0210 C   0  0  0  0  0  2  0  0  0  0  0  0
  179.6420  176.1820  140.3400 C   0  0  0  0  0  2  0  0  0  0  0  0
  182.5090  176.7170  139.8200 C   0  0  0  0  0  2  0  0  0  0  0  0
  180.2680  175.6030  139.0740 C   0  0  0  0  0  2  0  0  0  0  0  0
  181.5470  177.8780  140.0730 C   0  0  1  0  0  3  0  0  0  0  0  0
  181.7950  175.4640  139.2310 C   0  0  1  0  0  3  0  0  0  0  0  0
  179.2120  177.8570  142.7420 O   0  0  0  0  0  0  0  0  0  0  0  0
  180.3620  177.3850  140.7490 N   0  0  0  0  0  0  0  0  0  0  0  0
  180.1850  178.0690  141.9710 C   0  0  0  0  0  0  0  0  0  0  0  0
  181.4830  175.2190  136.8400 C   0  0  0  0  0  2  0  0  0  0  0  0
  183.6690  175.6750  137.7670 C   0  0  0  0  0  2  0  0  0  0  0  0
  184.4550  174.9990  136.6330 C   0  0  0  0  0  2  0  0  0  0  0  0
  182.3950  174.9850  137.9780 N   0  0  1  0  0  0  0  0  0  0  0  0
  183.5440  174.4490  135.5220 C   0  0  2  0  0  3  0  0  0  0  0  0
  182.1920  175.1720  135.4730 C   0  0  0  0  0  2  0  0  0  0  0  0
  183.3950  172.9270  135.6020 C   0  0  2  0  0  0  0  0  0  0  0  0
  183.5010  171.2370  137.1840 O   0  0  0  0  0  1  0  0  0  0  0  0
  184.5520  172.0730  135.3490 C   0  0  0  0  0  2  0  0  0  0  0  0
  182.1420  172.3380  135.3580 O   0  0  0  0  0  1  0  0  0  0  0  0
  184.1420  172.3480  136.7470 N   0  0  0  0  0  0  0  0  0  0  0  0
  190.9080  177.1690  141.9100 C   0  0  0  0  0  2  0  0  0  0  0  0
  189.9320  176.4700  140.9850 C   0  0  0  0  0  2  0  0  0  0  0  0
  189.7400  176.3200  138.4780 N   0  0  0  0  0  2  0  0  0  0  0  0
  190.0850  178.3730  139.5380 O   0  0  0  0  0  0  0  0  0  0  0  0
  189.8930  177.1290  139.6470 C   0  0  0  0  0  0  0  0  0  0  0  0
  190.0160  176.8290  137.1370 C   0  0  1  0  0  3  0  0  0  0  0  0
  191.0440  175.9270  136.4350 C   0  0  1  0  0  3  0  0  0  0  0  0
  191.9480  175.1760  137.4250 C   0  0  0  0  0  2  0  0  0  0  0  0
  193.1400  174.5340  136.7350 C   0  0  0  0  0  2  0  0  0  0  0  0
  194.0790  173.9660  137.7790 C   0  0  0  0  0  2  0  0  0  0  0  0
  194.3220  172.0500  136.2340 C   0  0  0  0  0  1  0  0  0  0  0  0
  195.0680  173.0380  137.1080 C   0  0  0  0  0  2  0  0  0  0  0  0
  190.3660  174.9440  135.4850 C   0  0  0  0  0  2  0  0  0  0  0  0
  189.7940  173.7560  136.2430 C   0  0  0  0  0  2  0  0  0  0  0  0
  190.1430  172.5590  135.6120 O   0  0  0  0  0  0  0  0  0  0  0  0
  188.4480  171.0750  134.8430 C   0  0  0  0  0  1  0  0  0  0  0  0
  189.1690  172.3920  134.6300 C   0  0  0  0  0  2  0  0  0  0  0  0
  188.7760  176.8750  136.3720 N   0  0  0  0  0  2  0  0  0  0  0  0
  187.6790  176.9170  137.3290 C   0  0  0  0  0  2  0  0  0  0  0  0
  187.6880  179.2670  136.8540 O   0  0  0  0  0  1  0  0  0  0  0  0
  186.8580  178.1830  137.1450 C   0  0  0  0  0  3  0  0  0  0  0  0
  186.1300  178.4480  138.3060 O   0  0  0  0  0  1  0  0  0  0  0  0
  1 12  1  1  0  0  0
  2  3  2  0  0  0  0
  3  1  1  0  0  0  0
  3 13  1  0  0  0  0
  4  9  1  0  0  0  0
  5  4  1  0  0  0  0
  6 42  1  6  0  0  0
  6  8  1  0  0  0  0
  6  7  1  0  0  0  0
  7  5  1  6  0  0  0
  7 10  1  0  0  0  0
  8  2  1  0  0  0  0
 10  9  1  1  0  0  0
 10  1  1  0  0  0  0
 12 11  1  0  0  0  0
 14 15  1  0  0  0  0
 14 13  1  0  0  0  0
 16 15  1  0  0  0  0
 17 16  1  0  0  0  0
 18 17  1  0  0  0  0
 19 20  1  0  0  0  0
 19 18  1  0  0  0  0
 21 20  1  1  0  0  0
 22 21  1  0  0  0  0
 23 29  1  0  0  0  0
 25 23  1  0  0  0  0
 26 24  1  1  0  0  0
 26 29  1  0  0  0  0
 26 22  1  0  0  0  0
 27 25  1  6  0  0  0
 27 24  1  0  0  0  0
 29 30  1  0  0  0  0
 30 21  1  0  0  0  0
 30 28  2  0  0  0  0
 32 34  1  0  0  0  0
 33 32  1  0  0  0  0
 34 31  1  6  0  0  0
 34 27  1  0  0  0  0
 35 36  1  1  0  0  0
 35 37  1  0  0  0  0
 35 33  1  0  0  0  0
 36 31  1  0  0  0  0
 37 40  1  6  0  0  0
 37 41  1  0  0  0  0
 39 37  1  0  0  0  0
 39 41  1  0  0  0  0
 41 38  1  0  0  0  0
 43 42  1  0  0  0  0
 44 46  1  0  0  0  0
 45 46  2  0  0  0  0
 46 43  1  0  0  0  0
 47 59  1  6  0  0  0
 47 44  1  0  0  0  0
 48 54  1  1  0  0  0
 48 47  1  0  0  0  0
 48 49  1  0  0  0  0
 50 49  1  0  0  0  0
 50 51  1  0  0  0  0
 52 53  1  0  0  0  0
 53 51  1  0  0  0  0
 54 55  1  0  0  0  0
 56 55  1  0  0  0  0
 58 57  1  0  0  0  0
 58 56  1  0  0  0  0
 59 60  1  0  0  0  0
 61 62  1  0  0  0  0
 62 60  1  0  0  0  0
 62 63  1  0  0  0  0
M  END
>  <MODEL>
1

>  <REMARK>
 VINA RESULT:      -5.9      0.000      0.000
  Name = 
  28 active torsions:
  status: ('A' for Active; 'I' for Inactive)
    1  A    between atoms: C_1  and  C_34
    2  A    between atoms: C_2  and  C_7
    3  A    between atoms: C_2  and  O_25
    4  A    between atoms: C_4  and  C_37
    5  A    between atoms: C_7  and  O_54
    6  A    between atoms: N_9  and  C_38
    7  A    between atoms: C_10  and  O_50
    8  A    between atoms: N_14  and  C_29
    9  A    between atoms: N_14  and  C_57
   10  A    between atoms: N_15  and  C_57
   11  A    between atoms: C_20  and  C_33
   12  A    between atoms: C_20  and  C_55
   13  A    between atoms: C_21  and  C_57
   14  A    between atoms: C_21  and  C_58
   15  A    between atoms: C_21  and  C_62
   16  A    between atoms: C_22  and  C_41
   17  A    between atoms: C_22  and  C_61
   18  A    between atoms: O_25  and  C_26
   19  A    between atoms: C_28  and  C_29
   20  A    between atoms: C_32  and  O_36
   21  A    between atoms: C_32  and  C_62
   22  A    between atoms: C_33  and  C_58
   23  A    between atoms: C_34  and  C_56
   24  A    between atoms: C_35  and  O_54
   25  A    between atoms: C_35  and  C_59
   26  A    between atoms: O_36  and  C_60
   27  A    between atoms: C_44  and  C_61
   28  A    between atoms: C_56  and  C_59
                            x       y       z     vdW  Elec       q    Type
                         _______ _______ _______ _____ _____    ______ ____

>  <TORSDO>
F 28

$$$$
=
 OpenBabel11032420503D

 63 68  0  0  1  0  0  0  0  0999 V2000
  190.0340  177.3160  146.5420 C   0  0  2  0  0  3  0  0  0  0  0  0
  188.2390  177.9110  144.9120 C   0  0  0  0  0  3  0  0  0  0  0  0
  188.5930  177.5810  146.1660 C   0  0  0  0  0  0  0  0  0  0  0  0
  192.5660  175.0450  145.0960 C   0  0  0  0  0  2  0  0  0  0  0  0
  191.9420  175.5530  143.9400 O   0  0  0  0  0  0  0  0  0  0  0  0
  189.8870  176.7510  143.4280 C   0  0  1  0  0  3  0  0  0  0  0  0
  191.0590  176.5490  144.3890 C   0  0  1  0  0  3  0  0  0  0  0  0
  189.1860  178.0630  143.7600 C   0  0  0  0  0  2  0  0  0  0  0  0
  191.8180  175.5240  146.3240 C   0  0  0  0  0  2  0  0  0  0  0  0
  190.5730  176.1220  145.7490 C   0  0  1  0  0  3  0  0  0  0  0  0
  189.9810  178.3180  148.5190 C   0  0  0  0  0  1  0  0  0  0  0  0
  190.1310  177.0680  147.9160 O   0  0  0  0  0  0  0  0  0  0  0  0
  187.6170  177.4770  147.1670 O   0  0  0  0  0  0  0  0  0  0  0  0
  186.4680  178.3170  147.2190 C   0  0  0  0  0  2  0  0  0  0  0  0
  186.0910  178.7570  145.8140 C   0  0  0  0  0  2  0  0  0  0  0  0
  184.8730  178.1870  145.4410 O   0  0  0  0  0  0  0  0  0  0  0  0
  184.8720  178.2470  144.0500 C   0  0  0  0  0  2  0  0  0  0  0  0
  184.2750  179.5650  143.5850 C   0  0  0  0  0  2  0  0  0  0  0  0
  182.7620  179.4760  143.6360 C   0  0  0  0  0  2  0  0  0  0  0  0
  182.2590  178.4230  142.6630 C   0  0  0  0  0  2  0  0  0  0  0  0
  182.6480  178.8110  141.2450 C   0  0  1  0  0  3  0  0  0  0  0  0
  183.3140  177.6280  140.5300 C   0  0  0  0  0  2  0  0  0  0  0  0
  180.2810  178.1770  138.3330 C   0  0  0  0  0  2  0  0  0  0  0  0
  182.0760  175.9500  139.1060 C   0  0  0  0  0  2  0  0  0  0  0  0
  180.5310  177.0640  137.3190 C   0  0  0  0  0  2  0  0  0  0  0  0
  182.5610  177.3970  139.2110 C   0  0  1  0  0  3  0  0  0  0  0  0
  180.9690  175.7660  138.0260 C   0  0  1  0  0  3  0  0  0  0  0  0
  180.5910  179.9540  140.6790 O   0  0  0  0  0  0  0  0  0  0  0  0
  181.4170  178.2890  139.2430 N   0  0  0  0  0  0  0  0  0  0  0  0
  181.4510  179.0720  140.4170 C   0  0  0  0  0  0  0  0  0  0  0  0
  180.0540  174.2060  136.4120 C   0  0  0  0  0  2  0  0  0  0  0  0
  182.1780  175.2950  136.0220 C   0  0  0  0  0  2  0  0  0  0  0  0
  182.7580  174.1770  135.1420 C   0  0  0  0  0  2  0  0  0  0  0  0
  181.2870  174.7280  137.0360 N   0  0  1  0  0  0  0  0  0  0  0  0
  181.7660  173.0230  134.9130 C   0  0  2  0  0  3  0  0  0  0  0  0
  180.3090  173.4720  135.0820 C   0  0  0  0  0  2  0  0  0  0  0  0
  182.1060  171.7960  135.7640 C   0  0  2  0  0  0  0  0  0  0  0  0
  183.5770  170.0050  135.7470 O   0  0  0  0  0  1  0  0  0  0  0  0
  181.3780  170.5470  135.5550 C   0  0  0  0  0  2  0  0  0  0  0  0
  182.6550  171.9700  137.0460 O   0  0  0  0  0  1  0  0  0  0  0  0
  182.7260  170.7110  134.9630 N   0  0  0  0  0  0  0  0  0  0  0  0
  190.3620  176.8060  141.9900 C   0  0  0  0  0  2  0  0  0  0  0  0
  189.1620  176.9650  141.0770 C   0  0  0  0  0  2  0  0  0  0  0  0
  189.5010  175.8260  138.8560 N   0  0  0  0  0  2  0  0  0  0  0  0
  190.0800  178.0690  139.1590 O   0  0  0  0  0  0  0  0  0  0  0  0
  189.5790  177.0160  139.6450 C   0  0  0  0  0  0  0  0  0  0  0  0
  190.1800  175.6990  137.5690 C   0  0  1  0  0  3  0  0  0  0  0  0
  189.1830  175.9410  136.4250 C   0  0  1  0  0  3  0  0  0  0  0  0
  189.2970  177.3510  135.8260 C   0  0  0  0  0  2  0  0  0  0  0  0
  187.9560  177.8750  135.3410 C   0  0  0  0  0  2  0  0  0  0  0  0
  187.0160  178.0200  136.5210 C   0  0  0  0  0  2  0  0  0  0  0  0
  185.5270  176.1630  137.1890 C   0  0  0  0  0  1  0  0  0  0  0  0
  185.7180  177.3060  136.2140 C   0  0  0  0  0  2  0  0  0  0  0  0
  189.3260  174.8870  135.3300 C   0  0  0  0  0  2  0  0  0  0  0  0
  188.1400  173.9340  135.3290 C   0  0  0  0  0  2  0  0  0  0  0  0
  188.1850  173.0980  136.4480 O   0  0  0  0  0  0  0  0  0  0  0  0
  186.0360  172.6550  135.5240 C   0  0  0  0  0  1  0  0  0  0  0  0
  187.2900  172.0730  136.1470 C   0  0  0  0  0  2  0  0  0  0  0  0
  191.2720  176.6630  137.5020 N   0  0  0  0  0  2  0  0  0  0  0  0
  192.3530  176.0400  136.7490 C   0  0  0  0  0  2  0  0  0  0  0  0
  193.9170  174.6080  137.8660 O   0  0  0  0  0  1  0  0  0  0  0  0
  193.6100  175.9430  137.5970 C   0  0  0  0  0  3  0  0  0  0  0  0
  193.4250  176.6320  138.7970 O   0  0  0  0  0  1  0  0  0  0  0  0
  1 12  1  1  0  0  0
  2  3  2  0  0  0  0
  3  1  1  0  0  0  0
  3 13  1  0  0  0  0
  4  9  1  0  0  0  0
  5  4  1  0  0  0  0
  6 42  1  6  0  0  0
  6  8  1  0  0  0  0
  6  7  1  0  0  0  0
  7  5  1  6  0  0  0
  7 10  1  0  0  0  0
  8  2  1  0  0  0  0
 10  9  1  1  0  0  0
 10  1  1  0  0  0  0
 12 11  1  0  0  0  0
 13 14  1  0  0  0  0
 15 14  1  0  0  0  0
 16 15  1  0  0  0  0
 17 16  1  0  0  0  0
 18 19  1  0  0  0  0
 18 17  1  0  0  0  0
 20 19  1  0  0  0  0
 21 20  1  1  0  0  0
 22 21  1  0  0  0  0
 23 29  1  0  0  0  0
 25 23  1  0  0  0  0
 26 24  1  1  0  0  0
 26 29  1  0  0  0  0
 26 22  1  0  0  0  0
 27 25  1  6  0  0  0
 27 24  1  0  0  0  0
 29 30  1  0  0  0  0
 30 28  2  0  0  0  0
 30 21  1  0  0  0  0
 31 34  1  0  0  0  0
 33 32  1  0  0  0  0
 34 32  1  6  0  0  0
 34 27  1  0  0  0  0
 35 36  1  1  0  0  0
 35 33  1  0  0  0  0
 35 37  1  0  0  0  0
 36 31  1  0  0  0  0
 37 40  1  1  0  0  0
 39 37  1  0  0  0  0
 41 39  1  0  0  0  0
 41 38  1  0  0  0  0
 41 37  1  0  0  0  0
 43 42  1  0  0  0  0
 44 46  1  0  0  0  0
 45 46  2  0  0  0  0
 46 43  1  0  0  0  0
 47 59  1  1  0  0  0
 47 44  1  0  0  0  0
 48 54  1  6  0  0  0
 48 47  1  0  0  0  0
 49 48  1  0  0  0  0
 50 49  1  0  0  0  0
 50 51  1  0  0  0  0
 53 51  1  0  0  0  0
 53 52  1  0  0  0  0
 55 54  1  0  0  0  0
 55 56  1  0  0  0  0
 57 58  1  0  0  0  0
 58 56  1  0  0  0  0
 60 59  1  0  0  0  0
 60 62  1  0  0  0  0
 62 61  1  0  0  0  0
 62 63  1  0  0  0  0
M  END
>  <MODEL>
2

>  <REMARK>
 VINA RESULT:      -5.3      1.670      3.276
  Name = 
  28 active torsions:
  status: ('A' for Active; 'I' for Inactive)
    1  A    between atoms: C_1  and  C_34
    2  A    between atoms: C_2  and  C_7
    3  A    between atoms: C_2  and  O_25
    4  A    between atoms: C_4  and  C_37
    5  A    between atoms: C_7  and  O_54
    6  A    between atoms: N_9  and  C_38
    7  A    between atoms: C_10  and  O_50
    8  A    between atoms: N_14  and  C_29
    9  A    between atoms: N_14  and  C_57
   10  A    between atoms: N_15  and  C_57
   11  A    between atoms: C_20  and  C_33
   12  A    between atoms: C_20  and  C_55
   13  A    between atoms: C_21  and  C_57
   14  A    between atoms: C_21  and  C_58
   15  A    between atoms: C_21  and  C_62
   16  A    between atoms: C_22  and  C_41
   17  A    between atoms: C_22  and  C_61
   18  A    between atoms: O_25  and  C_26
   19  A    between atoms: C_28  and  C_29
   20  A    between atoms: C_32  and  O_36
   21  A    between atoms: C_32  and  C_62
   22  A    between atoms: C_33  and  C_58
   23  A    between atoms: C_34  and  C_56
   24  A    between atoms: C_35  and  O_54
   25  A    between atoms: C_35  and  C_59
   26  A    between atoms: O_36  and  C_60
   27  A    between atoms: C_44  and  C_61
   28  A    between atoms: C_56  and  C_59
                            x       y       z     vdW  Elec       q    Type
                         _______ _______ _______ _____ _____    ______ ____

>  <TORSDO>
F 28

$$$$
=
 OpenBabel11032420503D

 63 68  0  0  1  0  0  0  0  0999 V2000
  190.0260  177.0700  138.9810 C   0  0  2  0  0  3  0  0  0  0  0  0
  187.7590  178.1140  139.0740 C   0  0  0  0  0  3  0  0  0  0  0  0
  188.7750  177.5070  139.7120 C   0  0  0  0  0  0  0  0  0  0  0  0
  190.5010  174.9790  135.9710 C   0  0  0  0  0  2  0  0  0  0  0  0
  189.3850  175.7580  135.6070 O   0  0  0  0  0  0  0  0  0  0  0  0
  187.7760  177.1760  136.7540 C   0  0  1  0  0  3  0  0  0  0  0  0
  189.2220  176.6980  136.6380 C   0  0  1  0  0  3  0  0  0  0  0  0
  187.7300  178.4360  137.6100 C   0  0  0  0  0  2  0  0  0  0  0  0
  190.8470  175.2430  137.4230 C   0  0  0  0  0  2  0  0  0  0  0  0
  189.6730  176.0320  137.9120 C   0  0  1  0  0  3  0  0  0  0  0  0
  192.1150  177.2770  139.6960 C   0  0  0  0  0  1  0  0  0  0  0  0
  190.9470  176.5350  139.8890 O   0  0  0  0  0  0  0  0  0  0  0  0
  188.6940  177.2650  141.0900 O   0  0  0  0  0  0  0  0  0  0  0  0
  189.8410  177.1240  141.9220 C   0  0  0  0  0  2  0  0  0  0  0  0
  189.5720  176.0770  142.9900 C   0  0  0  0  0  2  0  0  0  0  0  0
  190.5590  175.0910  142.9570 O   0  0  0  0  0  0  0  0  0  0  0  0
  191.6720  175.6930  143.5390 C   0  0  0  0  0  2  0  0  0  0  0  0
  191.6260  175.5270  145.0490 C   0  0  0  0  0  2  0  0  0  0  0  0
  191.3240  176.8690  145.6910 C   0  0  0  0  0  2  0  0  0  0  0  0
  190.2170  176.7270  146.7210 C   0  0  0  0  0  2  0  0  0  0  0  0
  189.4120  178.0150  146.7850 C   0  0  1  0  0  3  0  0  0  0  0  0
  188.9850  178.4500  145.3770 C   0  0  0  0  0  2  0  0  0  0  0  0
  185.6130  177.9270  147.0150 C   0  0  0  0  0  2  0  0  0  0  0  0
  186.7910  177.8180  144.2990 C   0  0  0  0  0  2  0  0  0  0  0  0
  184.7260  178.2860  145.8270 C   0  0  0  0  0  2  0  0  0  0  0  0
  187.4620  178.6510  145.3920 C   0  0  1  0  0  3  0  0  0  0  0  0
  185.2600  177.6470  144.5300 C   0  0  1  0  0  3  0  0  0  0  0  0
  188.0150  177.3930  148.6620 O   0  0  0  0  0  0  0  0  0  0  0  0
  187.0130  178.1920  146.6930 N   0  0  0  0  0  0  0  0  0  0  0  0
  188.1210  177.8020  147.4750 C   0  0  0  0  0  0  0  0  0  0  0  0
  183.1540  178.6230  143.8320 C   0  0  0  0  0  2  0  0  0  0  0  0
  185.1920  179.0640  142.6090 C   0  0  0  0  0  2  0  0  0  0  0  0
  184.5040  179.3110  141.2580 C   0  0  0  0  0  2  0  0  0  0  0  0
  184.4460  178.0690  143.3820 N   0  0  1  0  0  0  0  0  0  0  0  0
  182.9710  179.2150  141.3440 C   0  0  2  0  0  3  0  0  0  0  0  0
  182.4540  179.4830  142.7630 C   0  0  0  0  0  2  0  0  0  0  0  0
  182.4440  177.8990  140.7650 C   0  0  2  0  0  0  0  0  0  0  0  0
  181.9250  176.9740  138.7040 O   0  0  0  0  0  1  0  0  0  0  0  0
  181.0040  177.6800  140.6590 C   0  0  0  0  0  2  0  0  0  0  0  0
  183.2280  176.7350  140.8580 O   0  0  0  0  0  1  0  0  0  0  0  0
  181.7680  178.0900  139.4570 N   0  0  0  0  0  0  0  0  0  0  0  0
  187.1940  177.4960  135.3920 C   0  0  0  0  0  2  0  0  0  0  0  0
  187.0300  176.2100  134.6060 C   0  0  0  0  0  2  0  0  0  0  0  0
  184.7350  175.1860  134.7740 N   0  0  0  0  0  2  0  0  0  0  0  0
  186.3990  174.6740  136.3310 O   0  0  0  0  0  0  0  0  0  0  0  0
  186.0690  175.2880  135.2780 C   0  0  0  0  0  0  0  0  0  0  0  0
  183.6560  174.5760  135.5460 C   0  0  1  0  0  3  0  0  0  0  0  0
  182.5150  175.5870  135.7420 C   0  0  1  0  0  3  0  0  0  0  0  0
  182.5430  176.7210  134.7070 C   0  0  0  0  0  2  0  0  0  0  0  0
  181.2000  177.4240  134.5940 C   0  0  0  0  0  2  0  0  0  0  0  0
  181.3740  178.8960  134.9090 C   0  0  0  0  0  2  0  0  0  0  0  0
  181.1730  180.1350  137.0390 C   0  0  0  0  0  1  0  0  0  0  0  0
  180.4350  179.2780  136.0320 C   0  0  0  0  0  2  0  0  0  0  0  0
  181.1530  174.8980  135.7380 C   0  0  0  0  0  2  0  0  0  0  0  0
  180.9270  174.1240  137.0280 C   0  0  0  0  0  2  0  0  0  0  0  0
  179.7750  174.5790  137.6760 O   0  0  0  0  0  0  0  0  0  0  0  0
  179.8960  172.2040  137.7800 C   0  0  0  0  0  1  0  0  0  0  0  0
  179.3180  173.4690  138.3830 C   0  0  0  0  0  2  0  0  0  0  0  0
  183.1700  173.3930  134.8460 N   0  0  0  0  0  2  0  0  0  0  0  0
  184.1420  172.3310  135.0640 C   0  0  0  0  0  2  0  0  0  0  0  0
  182.3470  170.7770  135.4020 O   0  0  0  0  0  1  0  0  0  0  0  0
  183.5520  171.2370  135.9390 C   0  0  0  0  0  3  0  0  0  0  0  0
  183.3330  171.7280  137.2270 O   0  0  0  0  0  1  0  0  0  0  0  0
  1  3  1  0  0  0  0
  1 12  1  1  0  0  0
  2  3  2  0  0  0  0
  3 13  1  0  0  0  0
  4  9  1  0  0  0  0
  5  4  1  0  0  0  0
  6 42  1  6  0  0  0
  6  8  1  0  0  0  0
  7  5  1  6  0  0  0
  7  6  1  0  0  0  0
  7 10  1  0  0  0  0
  8  2  1  0  0  0  0
 10  9  1  6  0  0  0
 10  1  1  0  0  0  0
 11 12  1  0  0  0  0
 13 14  1  0  0  0  0
 14 15  1  0  0  0  0
 16 15  1  0  0  0  0
 16 17  1  0  0  0  0
 17 18  1  0  0  0  0
 18 19  1  0  0  0  0
 19 20  1  0  0  0  0
 21 20  1  6  0  0  0
 21 30  1  0  0  0  0
 22 26  1  0  0  0  0
 22 21  1  0  0  0  0
 25 23  1  0  0  0  0
 26 24  1  6  0  0  0
 26 29  1  0  0  0  0
 27 24  1  6  0  0  0
 27 25  1  0  0  0  0
 29 23  1  0  0  0  0
 29 30  1  0  0  0  0
 30 28  2  0  0  0  0
 33 32  1  0  0  0  0
 34 32  1  1  0  0  0
 34 31  1  0  0  0  0
 34 27  1  0  0  0  0
 35 33  1  1  0  0  0
 35 36  1  0  0  0  0
 36 31  1  0  0  0  0
 37 40  1  1  0  0  0
 37 35  1  0  0  0  0
 38 41  1  0  0  0  0
 39 37  1  0  0  0  0
 41 39  1  0  0  0  0
 41 37  1  0  0  0  0
 43 46  1  0  0  0  0
 43 42  1  0  0  0  0
 44 46  1  0  0  0  0
 46 45  2  0  0  0  0
 47 44  1  6  0  0  0
 47 48  1  0  0  0  0
 48 49  1  6  0  0  0
 50 49  1  0  0  0  0
 50 51  1  0  0  0  0
 51 53  1  0  0  0  0
 53 52  1  0  0  0  0
 54 48  1  0  0  0  0
 54 55  1  0  0  0  0
 55 56  1  0  0  0  0
 56 58  1  0  0  0  0
 57 58  1  0  0  0  0
 59 60  1  0  0  0  0
 59 47  1  0  0  0  0
 60 62  1  0  0  0  0
 61 62  1  0  0  0  0
 62 63  1  0  0  0  0
M  END
>  <MODEL>
3

>  <REMARK>
 VINA RESULT:      -4.6      2.435      8.499
  Name = 
  28 active torsions:
  status: ('A' for Active; 'I' for Inactive)
    1  A    between atoms: C_1  and  C_34
    2  A    between atoms: C_2  and  C_7
    3  A    between atoms: C_2  and  O_25
    4  A    between atoms: C_4  and  C_37
    5  A    between atoms: C_7  and  O_54
    6  A    between atoms: N_9  and  C_38
    7  A    between atoms: C_10  and  O_50
    8  A    between atoms: N_14  and  C_29
    9  A    between atoms: N_14  and  C_57
   10  A    between atoms: N_15  and  C_57
   11  A    between atoms: C_20  and  C_33
   12  A    between atoms: C_20  and  C_55
   13  A    between atoms: C_21  and  C_57
   14  A    between atoms: C_21  and  C_58
   15  A    between atoms: C_21  and  C_62
   16  A    between atoms: C_22  and  C_41
   17  A    between atoms: C_22  and  C_61
   18  A    between atoms: O_25  and  C_26
   19  A    between atoms: C_28  and  C_29
   20  A    between atoms: C_32  and  O_36
   21  A    between atoms: C_32  and  C_62
   22  A    between atoms: C_33  and  C_58
   23  A    between atoms: C_34  and  C_56
   24  A    between atoms: C_35  and  O_54
   25  A    between atoms: C_35  and  C_59
   26  A    between atoms: O_36  and  C_60
   27  A    between atoms: C_44  and  C_61
   28  A    between atoms: C_56  and  C_59
                            x       y       z     vdW  Elec       q    Type
                         _______ _______ _______ _____ _____    ______ ____

>  <TORSDO>
F 28

$$$$
=
 OpenBabel11032420503D

 63 68  0  0  1  0  0  0  0  0999 V2000
  190.3390  177.4730  146.2810 C   0  0  2  0  0  3  0  0  0  0  0  0
  188.4200  177.9110  144.7450 C   0  0  0  0  0  3  0  0  0  0  0  0
  188.8810  177.7600  145.9990 C   0  0  0  0  0  0  0  0  0  0  0  0
  192.6130  174.8580  144.9970 C   0  0  0  0  0  2  0  0  0  0  0  0
  191.9010  175.2160  143.8360 O   0  0  0  0  0  0  0  0  0  0  0  0
  189.8620  176.4390  143.3250 C   0  0  1  0  0  3  0  0  0  0  0  0
  191.1120  176.3200  144.1960 C   0  0  1  0  0  3  0  0  0  0  0  0
  189.2550  177.8260  143.5030 C   0  0  0  0  0  2  0  0  0  0  0  0
  192.0120  175.5660  146.1950 C   0  0  0  0  0  2  0  0  0  0  0  0
  190.7430  176.1400  145.6450 C   0  0  1  0  0  3  0  0  0  0  0  0
  190.2480  176.1290  148.0430 C   0  0  0  0  0  1  0  0  0  0  0  0
  190.5590  177.4360  147.6630 O   0  0  0  0  0  0  0  0  0  0  0  0
  188.0040  177.8720  147.0870 O   0  0  0  0  0  0  0  0  0  0  0  0
  186.7970  178.6260  147.0360 C   0  0  0  0  0  2  0  0  0  0  0  0
  186.3380  178.7600  145.5940 C   0  0  0  0  0  2  0  0  0  0  0  0
  185.1220  178.1000  145.4130 O   0  0  0  0  0  0  0  0  0  0  0  0
  184.8710  178.2000  144.0470 C   0  0  0  0  0  2  0  0  0  0  0  0
  184.2020  179.5280  143.7340 C   0  0  0  0  0  2  0  0  0  0  0  0
  182.7110  179.4080  143.9880 C   0  0  0  0  0  2  0  0  0  0  0  0
  182.1000  178.3550  143.0800 C   0  0  0  0  0  2  0  0  0  0  0  0
  182.1210  178.8460  141.6410 C   0  0  1  0  0  3  0  0  0  0  0  0
  183.0850  177.9990  140.8000 C   0  0  0  0  0  2  0  0  0  0  0  0
  179.8090  177.3240  139.0290 C   0  0  0  0  0  2  0  0  0  0  0  0
  182.4000  175.9610  139.4780 C   0  0  0  0  0  2  0  0  0  0  0  0
  180.3250  176.3800  137.9480 C   0  0  0  0  0  2  0  0  0  0  0  0
  182.3080  177.4840  139.5790 C   0  0  1  0  0  3  0  0  0  0  0  0
  181.3130  175.3560  138.5400 C   0  0  1  0  0  3  0  0  0  0  0  0
  179.7280  179.1100  141.3880 O   0  0  0  0  0  0  0  0  0  0  0  0
  180.9270  177.8710  139.7920 N   0  0  0  0  0  0  0  0  0  0  0  0
  180.8160  178.6210  140.9830 C   0  0  0  0  0  0  0  0  0  0  0  0
  180.9470  173.3960  137.1610 C   0  0  0  0  0  2  0  0  0  0  0  0
  182.1070  175.3290  136.2880 C   0  0  0  0  0  2  0  0  0  0  0  0
  182.9460  174.5480  135.2650 C   0  0  0  0  0  2  0  0  0  0  0  0
  181.8670  174.5070  137.4760 N   0  0  1  0  0  0  0  0  0  0  0  0
  182.6290  173.0430  135.2580 C   0  0  2  0  0  3  0  0  0  0  0  0
  181.2210  172.7470  135.7920 C   0  0  0  0  0  2  0  0  0  0  0  0
  183.7110  172.2240  135.9680 C   0  0  2  0  0  0  0  0  0  0  0  0
  185.4710  170.8130  135.4370 O   0  0  0  0  0  1  0  0  0  0  0  0
  183.4160  170.8630  136.4080 C   0  0  0  0  0  2  0  0  0  0  0  0
  184.7260  172.8840  136.6810 O   0  0  0  0  0  1  0  0  0  0  0  0
  184.1720  171.0740  135.1510 N   0  0  0  0  0  0  0  0  0  0  0  0
  190.1940  176.2420  141.8590 C   0  0  0  0  0  2  0  0  0  0  0  0
  189.8100  177.4900  141.0890 C   0  0  0  0  0  2  0  0  0  0  0  0
  189.9830  175.9140  139.1320 N   0  0  0  0  0  2  0  0  0  0  0  0
  189.9220  178.2280  138.8140 O   0  0  0  0  0  0  0  0  0  0  0  0
  189.8730  177.2550  139.6180 C   0  0  0  0  0  0  0  0  0  0  0  0
  190.3740  175.6140  137.7570 C   0  0  1  0  0  3  0  0  0  0  0  0
  189.1240  175.3480  136.9030 C   0  0  1  0  0  3  0  0  0  0  0  0
  189.0120  173.8830  136.4570 C   0  0  0  0  0  2  0  0  0  0  0  0
  190.3690  173.2040  136.3770 C   0  0  0  0  0  2  0  0  0  0  0  0
  190.5740  172.6520  134.9810 C   0  0  0  0  0  2  0  0  0  0  0  0
  192.7760  172.4970  136.0970 C   0  0  0  0  0  1  0  0  0  0  0  0
  191.9910  172.1350  134.8540 C   0  0  0  0  0  2  0  0  0  0  0  0
  187.8520  175.7810  137.6270 C   0  0  0  0  0  2  0  0  0  0  0  0
  187.0690  176.7910  136.8010 C   0  0  0  0  0  2  0  0  0  0  0  0
  186.3760  176.1490  135.7720 O   0  0  0  0  0  0  0  0  0  0  0  0
  187.0380  178.3460  135.1410 C   0  0  0  0  0  1  0  0  0  0  0  0
  186.1700  177.1460  134.8210 C   0  0  0  0  0  2  0  0  0  0  0  0
  191.1300  176.7360  137.2140 N   0  0  0  0  0  2  0  0  0  0  0  0
  192.2930  176.1840  136.5320 C   0  0  0  0  0  2  0  0  0  0  0  0
  194.6370  175.7970  136.8550 O   0  0  0  0  0  1  0  0  0  0  0  0
  193.5750  176.6290  137.2160 C   0  0  0  0  0  3  0  0  0  0  0  0
  193.4080  176.6000  138.6010 O   0  0  0  0  0  1  0  0  0  0  0  0
  1 12  1  1  0  0  0
  2  3  2  0  0  0  0
  3  1  1  0  0  0  0
  3 13  1  0  0  0  0
  4  9  1  0  0  0  0
  5  4  1  0  0  0  0
  6 42  1  6  0  0  0
  6  8  1  0  0  0  0
  6  7  1  0  0  0  0
  7  5  1  6  0  0  0
  7 10  1  0  0  0  0
  8  2  1  0  0  0  0
 10  9  1  1  0  0  0
 10  1  1  0  0  0  0
 12 11  1  0  0  0  0
 14 13  1  0  0  0  0
 15 14  1  0  0  0  0
 16 15  1  0  0  0  0
 17 16  1  0  0  0  0
 18 19  1  0  0  0  0
 18 17  1  0  0  0  0
 20 19  1  0  0  0  0
 21 20  1  1  0  0  0
 22 21  1  0  0  0  0
 23 29  1  0  0  0  0
 25 23  1  0  0  0  0
 26 24  1  1  0  0  0
 26 29  1  0  0  0  0
 26 22  1  0  0  0  0
 27 25  1  6  0  0  0
 27 24  1  0  0  0  0
 29 30  1  0  0  0  0
 30 28  2  0  0  0  0
 30 21  1  0  0  0  0
 31 34  1  0  0  0  0
 33 32  1  0  0  0  0
 34 32  1  6  0  0  0
 34 27  1  0  0  0  0
 35 33  1  1  0  0  0
 35 36  1  0  0  0  0
 35 37  1  0  0  0  0
 36 31  1  0  0  0  0
 37 39  1  0  0  0  0
 37 40  1  1  0  0  0
 41 38  1  0  0  0  0
 41 37  1  0  0  0  0
 41 39  1  0  0  0  0
 43 42  1  0  0  0  0
 44 46  1  0  0  0  0
 45 46  2  0  0  0  0
 46 43  1  0  0  0  0
 47 59  1  6  0  0  0
 47 44  1  0  0  0  0
 48 49  1  1  0  0  0
 48 54  1  0  0  0  0
 48 47  1  0  0  0  0
 50 49  1  0  0  0  0
 51 50  1  0  0  0  0
 53 51  1  0  0  0  0
 53 52  1  0  0  0  0
 55 54  1  0  0  0  0
 56 55  1  0  0  0  0
 58 57  1  0  0  0  0
 58 56  1  0  0  0  0
 60 59  1  0  0  0  0
 60 62  1  0  0  0  0
 61 62  1  0  0  0  0
 62 63  1  0  0  0  0
M  END
>  <MODEL>
4

>  <REMARK>
 VINA RESULT:      -4.3      1.630      2.782
  Name = 
  28 active torsions:
  status: ('A' for Active; 'I' for Inactive)
    1  A    between atoms: C_1  and  C_34
    2  A    between atoms: C_2  and  C_7
    3  A    between atoms: C_2  and  O_25
    4  A    between atoms: C_4  and  C_37
    5  A    between atoms: C_7  and  O_54
    6  A    between atoms: N_9  and  C_38
    7  A    between atoms: C_10  and  O_50
    8  A    between atoms: N_14  and  C_29
    9  A    between atoms: N_14  and  C_57
   10  A    between atoms: N_15  and  C_57
   11  A    between atoms: C_20  and  C_33
   12  A    between atoms: C_20  and  C_55
   13  A    between atoms: C_21  and  C_57
   14  A    between atoms: C_21  and  C_58
   15  A    between atoms: C_21  and  C_62
   16  A    between atoms: C_22  and  C_41
   17  A    between atoms: C_22  and  C_61
   18  A    between atoms: O_25  and  C_26
   19  A    between atoms: C_28  and  C_29
   20  A    between atoms: C_32  and  O_36
   21  A    between atoms: C_32  and  C_62
   22  A    between atoms: C_33  and  C_58
   23  A    between atoms: C_34  and  C_56
   24  A    between atoms: C_35  and  O_54
   25  A    between atoms: C_35  and  C_59
   26  A    between atoms: O_36  and  C_60
   27  A    between atoms: C_44  and  C_61
   28  A    between atoms: C_56  and  C_59
                            x       y       z     vdW  Elec       q    Type
                         _______ _______ _______ _____ _____    ______ ____

>  <TORSDO>
F 28

$$$$
=
 OpenBabel11032420503D

 63 68  0  0  1  0  0  0  0  0999 V2000
  191.9030  177.1100  139.1650 C   0  0  2  0  0  3  0  0  0  0  0  0
  189.5890  177.0530  140.1040 C   0  0  0  0  0  3  0  0  0  0  0  0
  190.9170  176.9780  140.3050 C   0  0  0  0  0  0  0  0  0  0  0  0
  192.1660  175.3350  135.9350 C   0  0  0  0  0  2  0  0  0  0  0  0
  190.7750  175.5300  136.0430 O   0  0  0  0  0  0  0  0  0  0  0  0
  189.2120  176.1350  137.8060 C   0  0  1  0  0  3  0  0  0  0  0  0
  190.5890  176.3390  137.1760 C   0  0  1  0  0  3  0  0  0  0  0  0
  188.9300  177.2760  138.7760 C   0  0  0  0  0  2  0  0  0  0  0  0
  192.8380  175.7760  137.2190 C   0  0  0  0  0  2  0  0  0  0  0  0
  191.6840  175.9860  138.1490 C   0  0  1  0  0  3  0  0  0  0  0  0
  193.7660  178.3020  139.3140 C   0  0  0  0  0  1  0  0  0  0  0  0
  193.2120  177.0680  139.6600 O   0  0  0  0  0  0  0  0  0  0  0  0
  191.4190  176.7750  141.5980 O   0  0  0  0  0  0  0  0  0  0  0  0
  191.6150  177.8340  142.5290 C   0  0  0  0  0  2  0  0  0  0  0  0
  190.8880  177.5170  143.8250 C   0  0  0  0  0  2  0  0  0  0  0  0
  191.8070  177.3200  144.8560 O   0  0  0  0  0  0  0  0  0  0  0  0
  191.7720  175.9490  145.0980 C   0  0  0  0  0  2  0  0  0  0  0  0
  191.9520  175.6750  146.5820 C   0  0  0  0  0  2  0  0  0  0  0  0
  191.2740  176.7740  147.3790 C   0  0  0  0  0  2  0  0  0  0  0  0
  189.7660  176.5970  147.3520 C   0  0  0  0  0  2  0  0  0  0  0  0
  189.0960  177.9510  147.1800 C   0  0  1  0  0  3  0  0  0  0  0  0
  188.8550  178.2440  145.6940 C   0  0  0  0  0  2  0  0  0  0  0  0
  185.3050  178.2400  147.0070 C   0  0  0  0  0  2  0  0  0  0  0  0
  186.7210  177.6870  144.4640 C   0  0  0  0  0  2  0  0  0  0  0  0
  184.5780  178.5280  145.6960 C   0  0  0  0  0  2  0  0  0  0  0  0
  187.3660  178.5840  145.5210 C   0  0  1  0  0  3  0  0  0  0  0  0
  185.1660  177.6870  144.5460 C   0  0  1  0  0  3  0  0  0  0  0  0
  187.4670  177.6980  148.9530 O   0  0  0  0  0  0  0  0  0  0  0  0
  186.7480  178.3350  146.8100 N   0  0  0  0  0  0  0  0  0  0  0  0
  187.7300  177.9450  147.7460 C   0  0  0  0  0  0  0  0  0  0  0  0
  183.2720  178.7950  143.5170 C   0  0  0  0  0  2  0  0  0  0  0  0
  185.4470  178.8170  142.4610 C   0  0  0  0  0  2  0  0  0  0  0  0
  184.9150  178.9500  141.0270 C   0  0  0  0  0  2  0  0  0  0  0  0
  184.5150  178.0350  143.2760 N   0  0  1  0  0  0  0  0  0  0  0  0
  183.3810  179.0470  140.9670 C   0  0  2  0  0  3  0  0  0  0  0  0
  182.7840  179.5720  142.2790 C   0  0  0  0  0  2  0  0  0  0  0  0
  182.7380  177.7330  140.5120 C   0  0  2  0  0  0  0  0  0  0  0  0
  180.9480  177.0100  139.2300 O   0  0  0  0  0  1  0  0  0  0  0  0
  181.7420  177.0840  141.3600 C   0  0  0  0  0  2  0  0  0  0  0  0
  183.4400  176.8820  139.6410 O   0  0  0  0  0  1  0  0  0  0  0  0
  181.2960  177.8920  140.1990 N   0  0  0  0  0  0  0  0  0  0  0  0
  188.1250  176.1180  136.7510 C   0  0  0  0  0  2  0  0  0  0  0  0
  187.1660  177.2650  137.0040 C   0  0  0  0  0  2  0  0  0  0  0  0
  184.8420  176.5420  136.3600 N   0  0  0  0  0  2  0  0  0  0  0  0
  186.1710  177.7760  134.8870 O   0  0  0  0  0  0  0  0  0  0  0  0
  186.0390  177.2500  136.0280 C   0  0  0  0  0  0  0  0  0  0  0  0
  183.8360  176.2020  135.3570 C   0  0  1  0  0  3  0  0  0  0  0  0
  182.9540  175.0520  135.8690 C   0  0  1  0  0  3  0  0  0  0  0  0
  181.5620  175.0360  135.2190 C   0  0  0  0  0  2  0  0  0  0  0  0
  180.7380  173.8390  135.6630 C   0  0  0  0  0  2  0  0  0  0  0  0
  180.6780  173.8030  137.1770 C   0  0  0  0  0  2  0  0  0  0  0  0
  179.7600  171.6080  136.5010 C   0  0  0  0  0  1  0  0  0  0  0  0
  180.4040  172.3850  137.6300 C   0  0  0  0  0  2  0  0  0  0  0  0
  183.6390  173.7000  135.6870 C   0  0  0  0  0  2  0  0  0  0  0  0
  185.0900  173.7570  136.1410 C   0  0  0  0  0  2  0  0  0  0  0  0
  185.4490  172.5690  136.7830 O   0  0  0  0  0  0  0  0  0  0  0  0
  186.8670  171.8680  135.0040 C   0  0  0  0  0  1  0  0  0  0  0  0
  185.5670  171.6420  135.7500 C   0  0  0  0  0  2  0  0  0  0  0  0
  183.0210  177.3760  135.0710 N   0  0  0  0  0  2  0  0  0  0  0  0
  182.2730  177.6890  136.2820 C   0  0  0  0  0  2  0  0  0  0  0  0
  180.7890  178.5240  134.5940 O   0  0  0  0  0  1  0  0  0  0  0  0
  181.0800  178.5740  135.9590 C   0  0  0  0  0  3  0  0  0  0  0  0
  181.3520  179.8900  136.3320 O   0  0  0  0  0  1  0  0  0  0  0  0
  1 12  1  1  0  0  0
  1  3  1  0  0  0  0
  2  3  2  0  0  0  0
  3 13  1  0  0  0  0
  4  5  1  0  0  0  0
  4  9  1  0  0  0  0
  6 42  1  6  0  0  0
  6  8  1  0  0  0  0
  7  5  1  6  0  0  0
  7  6  1  0  0  0  0
  7 10  1  0  0  0  0
  8  2  1  0  0  0  0
 10  9  1  6  0  0  0
 10  1  1  0  0  0  0
 11 12  1  0  0  0  0
 13 14  1  0  0  0  0
 14 15  1  0  0  0  0
 15 16  1  0  0  0  0
 16 17  1  0  0  0  0
 17 18  1  0  0  0  0
 18 19  1  0  0  0  0
 20 19  1  0  0  0  0
 21 20  1  6  0  0  0
 21 30  1  0  0  0  0
 22 21  1  0  0  0  0
 25 23  1  0  0  0  0
 26 24  1  6  0  0  0
 26 22  1  0  0  0  0
 26 29  1  0  0  0  0
 27 24  1  6  0  0  0
 27 25  1  0  0  0  0
 29 23  1  0  0  0  0
 29 30  1  0  0  0  0
 30 28  2  0  0  0  0
 33 32  1  0  0  0  0
 34 32  1  6  0  0  0
 34 31  1  0  0  0  0
 34 27  1  0  0  0  0
 35 33  1  1  0  0  0
 35 36  1  0  0  0  0
 36 31  1  0  0  0  0
 37 40  1  6  0  0  0
 37 35  1  0  0  0  0
 37 39  1  0  0  0  0
 38 41  1  0  0  0  0
 41 37  1  0  0  0  0
 41 39  1  0  0  0  0
 42 43  1  0  0  0  0
 45 46  2  0  0  0  0
 46 44  1  0  0  0  0
 46 43  1  0  0  0  0
 47 59  1  1  0  0  0
 47 48  1  0  0  0  0
 47 44  1  0  0  0  0
 48 49  1  6  0  0  0
 49 50  1  0  0  0  0
 50 51  1  0  0  0  0
 51 53  1  0  0  0  0
 52 53  1  0  0  0  0
 54 48  1  0  0  0  0
 54 55  1  0  0  0  0
 55 56  1  0  0  0  0
 57 58  1  0  0  0  0
 58 56  1  0  0  0  0
 59 60  1  0  0  0  0
 61 62  1  0  0  0  0
 62 60  1  0  0  0  0
 62 63  1  0  0  0  0
M  END
>  <MODEL>
5

>  <REMARK>
 VINA RESULT:      -4.1      2.567      7.811
  Name = 
  28 active torsions:
  status: ('A' for Active; 'I' for Inactive)
    1  A    between atoms: C_1  and  C_34
    2  A    between atoms: C_2  and  C_7
    3  A    between atoms: C_2  and  O_25
    4  A    between atoms: C_4  and  C_37
    5  A    between atoms: C_7  and  O_54
    6  A    between atoms: N_9  and  C_38
    7  A    between atoms: C_10  and  O_50
    8  A    between atoms: N_14  and  C_29
    9  A    between atoms: N_14  and  C_57
   10  A    between atoms: N_15  and  C_57
   11  A    between atoms: C_20  and  C_33
   12  A    between atoms: C_20  and  C_55
   13  A    between atoms: C_21  and  C_57
   14  A    between atoms: C_21  and  C_58
   15  A    between atoms: C_21  and  C_62
   16  A    between atoms: C_22  and  C_41
   17  A    between atoms: C_22  and  C_61
   18  A    between atoms: O_25  and  C_26
   19  A    between atoms: C_28  and  C_29
   20  A    between atoms: C_32  and  O_36
   21  A    between atoms: C_32  and  C_62
   22  A    between atoms: C_33  and  C_58
   23  A    between atoms: C_34  and  C_56
   24  A    between atoms: C_35  and  O_54
   25  A    between atoms: C_35  and  C_59
   26  A    between atoms: O_36  and  C_60
   27  A    between atoms: C_44  and  C_61
   28  A    between atoms: C_56  and  C_59
                            x       y       z     vdW  Elec       q    Type
                         _______ _______ _______ _____ _____    ______ ____

>  <TORSDO>
F 28

$$$$
=
 OpenBabel11032420503D

 63 68  0  0  1  0  0  0  0  0999 V2000
  189.7360  177.7620  146.9420 C   0  0  2  0  0  3  0  0  0  0  0  0
  188.1750  178.1300  145.0270 C   0  0  0  0  0  3  0  0  0  0  0  0
  188.3780  178.0840  146.3560 C   0  0  0  0  0  0  0  0  0  0  0  0
  192.0460  174.9370  146.3630 C   0  0  0  0  0  2  0  0  0  0  0  0
  191.5920  175.2080  145.0580 O   0  0  0  0  0  0  0  0  0  0  0  0
  189.7660  176.4630  144.0520 C   0  0  1  0  0  3  0  0  0  0  0  0
  190.8180  176.3770  145.1570 C   0  0  1  0  0  3  0  0  0  0  0  0
  189.2240  177.8860  143.9850 C   0  0  0  0  0  2  0  0  0  0  0  0
  191.2730  175.7850  147.3520 C   0  0  0  0  0  2  0  0  0  0  0  0
  190.1700  176.3570  146.5170 C   0  0  1  0  0  3  0  0  0  0  0  0
  190.6570  178.8000  148.6710 C   0  0  0  0  0  1  0  0  0  0  0  0
  189.6860  177.8530  148.3380 O   0  0  0  0  0  0  0  0  0  0  0  0
  187.3190  178.3410  147.2370 O   0  0  0  0  0  0  0  0  0  0  0  0
  186.1680  179.0930  146.8680 C   0  0  0  0  0  2  0  0  0  0  0  0
  185.8560  178.8630  145.3990 C   0  0  0  0  0  2  0  0  0  0  0  0
  184.9520  177.8100  145.2580 O   0  0  0  0  0  0  0  0  0  0  0  0
  184.5940  177.8360  143.9120 C   0  0  0  0  0  2  0  0  0  0  0  0
  184.1480  179.2340  143.5170 C   0  0  0  0  0  2  0  0  0  0  0  0
  182.7020  179.4340  143.9320 C   0  0  0  0  0  2  0  0  0  0  0  0
  181.7660  178.8140  142.9090 C   0  0  0  0  0  2  0  0  0  0  0  0
  182.1890  179.2320  141.5100 C   0  0  1  0  0  3  0  0  0  0  0  0
  183.0490  178.1380  140.8620 C   0  0  0  0  0  2  0  0  0  0  0  0
  180.1140  178.2510  138.4730 C   0  0  0  0  0  2  0  0  0  0  0  0
  182.1340  176.2930  139.4010 C   0  0  0  0  0  2  0  0  0  0  0  0
  180.5720  177.1680  137.5000 C   0  0  0  0  0  2  0  0  0  0  0  0
  182.4170  177.7920  139.5050 C   0  0  1  0  0  3  0  0  0  0  0  0
  181.1310  175.9490  138.2600 C   0  0  1  0  0  3  0  0  0  0  0  0
  180.0380  180.0840  140.7960 O   0  0  0  0  0  0  0  0  0  0  0  0
  181.1660  178.5240  139.4480 N   0  0  0  0  0  0  0  0  0  0  0  0
  181.0220  179.3210  140.6050 C   0  0  0  0  0  0  0  0  0  0  0  0
  181.3980  175.3740  135.9200 C   0  0  0  0  0  2  0  0  0  0  0  0
  183.0790  174.7640  137.5480 C   0  0  0  0  0  2  0  0  0  0  0  0
  183.5860  173.5320  136.7830 C   0  0  0  0  0  2  0  0  0  0  0  0
  181.6450  174.9500  137.3130 N   0  0  1  0  0  0  0  0  0  0  0  0
  182.8700  173.3300  135.4370 C   0  0  2  0  0  3  0  0  0  0  0  0
  182.2810  174.6390  134.8940 C   0  0  0  0  0  2  0  0  0  0  0  0
  181.8370  172.2010  135.4980 C   0  0  2  0  0  0  0  0  0  0  0  0
  180.5050  171.1290  137.0620 O   0  0  0  0  0  1  0  0  0  0  0  0
  182.2830  170.8220  135.6790 C   0  0  0  0  0  2  0  0  0  0  0  0
  180.5980  172.3570  134.8540 O   0  0  0  0  0  1  0  0  0  0  0  0
  181.7650  171.5780  136.8440 N   0  0  0  0  0  0  0  0  0  0  0  0
  190.3580  176.1070  142.7030 C   0  0  0  0  0  2  0  0  0  0  0  0
  191.0790  177.3170  142.1420 C   0  0  0  0  0  2  0  0  0  0  0  0
  190.1140  176.6180  139.9230 N   0  0  0  0  0  2  0  0  0  0  0  0
  192.2050  177.6520  140.0550 O   0  0  0  0  0  0  0  0  0  0  0  0
  191.1700  177.2460  140.6540 C   0  0  0  0  0  0  0  0  0  0  0  0
  190.2660  176.2170  138.5270 C   0  0  1  0  0  3  0  0  0  0  0  0
  189.2800  177.0010  137.6460 C   0  0  1  0  0  3  0  0  0  0  0  0
  189.6470  176.9510  136.1550 C   0  0  0  0  0  2  0  0  0  0  0  0
  188.8020  175.9440  135.3930 C   0  0  0  0  0  2  0  0  0  0  0  0
  189.7100  174.9640  134.6780 C   0  0  0  0  0  2  0  0  0  0  0  0
  188.6700  172.9460  135.6580 C   0  0  0  0  0  1  0  0  0  0  0  0
  189.9430  173.7620  135.5660 C   0  0  0  0  0  2  0  0  0  0  0  0
  187.8450  176.5250  137.8550 C   0  0  0  0  0  2  0  0  0  0  0  0
  186.9090  177.6990  138.0980 C   0  0  0  0  0  2  0  0  0  0  0  0
  187.5150  178.6430  138.9310 O   0  0  0  0  0  0  0  0  0  0  0  0
  186.5760  179.1010  141.0700 C   0  0  0  0  0  1  0  0  0  0  0  0
  187.3550  178.1230  140.2140 C   0  0  0  0  0  2  0  0  0  0  0  0
  191.6370  176.4660  138.0980 N   0  0  0  0  0  2  0  0  0  0  0  0
  192.2170  175.1810  137.7330 C   0  0  0  0  0  2  0  0  0  0  0  0
  193.0090  176.4500  135.8600 O   0  0  0  0  0  1  0  0  0  0  0  0
  193.3030  175.3620  136.6850 C   0  0  0  0  0  3  0  0  0  0  0  0
  193.4130  174.2050  135.9130 O   0  0  0  0  0  1  0  0  0  0  0  0
  1 12  1  1  0  0  0
  2  3  2  0  0  0  0
  3  1  1  0  0  0  0
  3 13  1  0  0  0  0
  4  9  1  0  0  0  0
  5  4  1  0  0  0  0
  6 42  1  6  0  0  0
  6  7  1  0  0  0  0
  7  5  1  6  0  0  0
  7 10  1  0  0  0  0
  8  6  1  0  0  0  0
  8  2  1  0  0  0  0
 10  1  1  0  0  0  0
 10  9  1  1  0  0  0
 12 11  1  0  0  0  0
 14 13  1  0  0  0  0
 15 14  1  0  0  0  0
 16 15  1  0  0  0  0
 17 16  1  0  0  0  0
 18 17  1  0  0  0  0
 18 19  1  0  0  0  0
 20 19  1  0  0  0  0
 21 20  1  1  0  0  0
 22 21  1  0  0  0  0
 23 29  1  0  0  0  0
 25 23  1  0  0  0  0
 26 24  1  1  0  0  0
 26 22  1  0  0  0  0
 27 25  1  6  0  0  0
 27 24  1  0  0  0  0
 29 26  1  0  0  0  0
 29 30  1  0  0  0  0
 30 28  2  0  0  0  0
 30 21  1  0  0  0  0
 33 32  1  0  0  0  0
 34 31  1  6  0  0  0
 34 32  1  0  0  0  0
 34 27  1  0  0  0  0
 35 36  1  1  0  0  0
 35 37  1  0  0  0  0
 35 33  1  0  0  0  0
 36 31  1  0  0  0  0
 37 40  1  6  0  0  0
 37 39  1  0  0  0  0
 37 41  1  0  0  0  0
 39 41  1  0  0  0  0
 41 38  1  0  0  0  0
 43 42  1  0  0  0  0
 44 46  1  0  0  0  0
 45 46  2  0  0  0  0
 46 43  1  0  0  0  0
 47 59  1  6  0  0  0
 47 44  1  0  0  0  0
 48 49  1  6  0  0  0
 48 54  1  0  0  0  0
 48 47  1  0  0  0  0
 50 49  1  0  0  0  0
 51 50  1  0  0  0  0
 51 53  1  0  0  0  0
 53 52  1  0  0  0  0
 54 55  1  0  0  0  0
 55 56  1  0  0  0  0
 56 58  1  0  0  0  0
 58 57  1  0  0  0  0
 60 59  1  0  0  0  0
 61 62  1  0  0  0  0
 62 60  1  0  0  0  0
 63 62  1  0  0  0  0
M  END
>  <MODEL>
6

>  <REMARK>
 VINA RESULT:      -3.7      1.667      3.391
  Name = 
  28 active torsions:
  status: ('A' for Active; 'I' for Inactive)
    1  A    between atoms: C_1  and  C_34
    2  A    between atoms: C_2  and  C_7
    3  A    between atoms: C_2  and  O_25
    4  A    between atoms: C_4  and  C_37
    5  A    between atoms: C_7  and  O_54
    6  A    between atoms: N_9  and  C_38
    7  A    between atoms: C_10  and  O_50
    8  A    between atoms: N_14  and  C_29
    9  A    between atoms: N_14  and  C_57
   10  A    between atoms: N_15  and  C_57
   11  A    between atoms: C_20  and  C_33
   12  A    between atoms: C_20  and  C_55
   13  A    between atoms: C_21  and  C_57
   14  A    between atoms: C_21  and  C_58
   15  A    between atoms: C_21  and  C_62
   16  A    between atoms: C_22  and  C_41
   17  A    between atoms: C_22  and  C_61
   18  A    between atoms: O_25  and  C_26
   19  A    between atoms: C_28  and  C_29
   20  A    between atoms: C_32  and  O_36
   21  A    between atoms: C_32  and  C_62
   22  A    between atoms: C_33  and  C_58
   23  A    between atoms: C_34  and  C_56
   24  A    between atoms: C_35  and  O_54
   25  A    between atoms: C_35  and  C_59
   26  A    between atoms: O_36  and  C_60
   27  A    between atoms: C_44  and  C_61
   28  A    between atoms: C_56  and  C_59
                            x       y       z     vdW  Elec       q    Type
                         _______ _______ _______ _____ _____    ______ ____

>  <TORSDO>
F 28

$$$$
=
 OpenBabel11032420503D

 63 68  0  0  1  0  0  0  0  0999 V2000
  191.1610  177.1510  146.5180 C   0  0  2  0  0  3  0  0  0  0  0  0
  189.4840  178.5680  145.3270 C   0  0  0  0  0  3  0  0  0  0  0  0
  189.8830  177.9590  146.4580 C   0  0  0  0  0  0  0  0  0  0  0  0
  192.3990  174.3640  144.4310 C   0  0  0  0  0  2  0  0  0  0  0  0
  191.8350  175.2190  143.4640 O   0  0  0  0  0  0  0  0  0  0  0  0
  190.3240  177.1250  143.4630 C   0  0  1  0  0  3  0  0  0  0  0  0
  191.4710  176.3880  144.1530 C   0  0  1  0  0  3  0  0  0  0  0  0
  190.2250  178.5390  144.0250 C   0  0  0  0  0  2  0  0  0  0  0  0
  192.0880  174.8950  145.8160 C   0  0  0  0  0  2  0  0  0  0  0  0
  191.0820  175.9700  145.5470 C   0  0  1  0  0  3  0  0  0  0  0  0
  192.7120  176.2940  147.8510 C   0  0  0  0  0  1  0  0  0  0  0  0
  191.3730  176.6910  147.8230 O   0  0  0  0  0  0  0  0  0  0  0  0
  189.1090  178.0650  147.6220 O   0  0  0  0  0  0  0  0  0  0  0  0
  187.6890  177.9610  147.6220 C   0  0  0  0  0  2  0  0  0  0  0  0
  187.0960  179.0640  146.7620 C   0  0  0  0  0  2  0  0  0  0  0  0
  185.7050  178.9600  146.7390 O   0  0  0  0  0  0  0  0  0  0  0  0
  185.4480  177.9110  145.8610 C   0  0  0  0  0  2  0  0  0  0  0  0
  185.4310  178.4200  144.4280 C   0  0  0  0  0  2  0  0  0  0  0  0
  184.1610  177.9490  143.7450 C   0  0  0  0  0  2  0  0  0  0  0  0
  183.0920  179.0270  143.8110 C   0  0  0  0  0  2  0  0  0  0  0  0
  182.7650  179.5080  142.4060 C   0  0  1  0  0  3  0  0  0  0  0  0
  183.6540  178.7980  141.3770 C   0  0  0  0  0  2  0  0  0  0  0  0
  180.2190  177.6650  140.2590 C   0  0  0  0  0  2  0  0  0  0  0  0
  183.0100  176.6760  140.1690 C   0  0  0  0  0  2  0  0  0  0  0  0
  180.6410  176.7950  139.0780 C   0  0  0  0  0  2  0  0  0  0  0  0
  182.7320  178.1720  140.3180 C   0  0  1  0  0  3  0  0  0  0  0  0
  181.8550  175.9210  139.4470 C   0  0  1  0  0  3  0  0  0  0  0  0
  180.3550  179.4370  142.6260 O   0  0  0  0  0  0  0  0  0  0  0  0
  181.3790  178.3660  140.8030 N   0  0  0  0  0  0  0  0  0  0  0  0
  181.4000  179.1010  142.0080 C   0  0  0  0  0  0  0  0  0  0  0  0
  181.7120  175.6930  137.0370 C   0  0  0  0  0  2  0  0  0  0  0  0
  183.7650  175.1920  138.2120 C   0  0  0  0  0  2  0  0  0  0  0  0
  184.2780  174.1720  137.1850 C   0  0  0  0  0  2  0  0  0  0  0  0
  182.3030  175.1510  138.2780 N   0  0  1  0  0  0  0  0  0  0  0  0
  183.3360  174.0140  135.9790 C   0  0  2  0  0  3  0  0  0  0  0  0
  182.4600  175.2550  135.7640 C   0  0  0  0  0  2  0  0  0  0  0  0
  182.5170  172.7220  136.0550 C   0  0  2  0  0  0  0  0  0  0  0  0
  181.9540  170.9230  134.7070 O   0  0  0  0  0  1  0  0  0  0  0  0
  181.0900  172.7520  135.7450 C   0  0  0  0  0  2  0  0  0  0  0  0
  182.9290  171.6870  136.9110 O   0  0  0  0  0  1  0  0  0  0  0  0
  182.0480  172.2750  134.7190 N   0  0  0  0  0  0  0  0  0  0  0  0
  190.5510  177.2150  141.9670 C   0  0  0  0  0  2  0  0  0  0  0  0
  189.2490  176.9230  141.2480 C   0  0  0  0  0  2  0  0  0  0  0  0
  189.0230  176.3710  138.8010 N   0  0  0  0  0  2  0  0  0  0  0  0
  189.7310  178.4850  139.4970 O   0  0  0  0  0  0  0  0  0  0  0  0
  189.3220  177.3330  139.8150 C   0  0  0  0  0  0  0  0  0  0  0  0
  189.3790  176.5800  137.4000 C   0  0  1  0  0  3  0  0  0  0  0  0
  190.2050  175.3900  136.8870 C   0  0  1  0  0  3  0  0  0  0  0  0
  189.5440  174.6770  135.6980 C   0  0  0  0  0  2  0  0  0  0  0  0
  188.2670  173.9590  136.1030 C   0  0  0  0  0  2  0  0  0  0  0  0
  188.4970  172.4620  136.0610 C   0  0  0  0  0  2  0  0  0  0  0  0
  190.1810  170.8260  135.2830 C   0  0  0  0  0  1  0  0  0  0  0  0
  189.4970  172.1420  134.9720 C   0  0  0  0  0  2  0  0  0  0  0  0
  191.6270  175.8140  136.5260 C   0  0  0  0  0  2  0  0  0  0  0  0
  192.3440  174.7190  135.7510 C   0  0  0  0  0  2  0  0  0  0  0  0
  193.7090  174.7200  136.0530 O   0  0  0  0  0  0  0  0  0  0  0  0
  194.5850  176.9000  135.6740 C   0  0  0  0  0  1  0  0  0  0  0  0
  194.2750  175.5400  135.0800 C   0  0  0  0  0  2  0  0  0  0  0  0
  188.1630  176.7310  136.6100 N   0  0  0  0  0  2  0  0  0  0  0  0
  187.0420  176.7520  137.5390 C   0  0  0  0  0  2  0  0  0  0  0  0
  185.6780  177.2910  135.6420 O   0  0  0  0  0  1  0  0  0  0  0  0
  185.9040  177.5950  136.9870 C   0  0  0  0  0  3  0  0  0  0  0  0
  186.2140  178.9500  137.1140 O   0  0  0  0  0  1  0  0  0  0  0  0
  1 12  1  1  0  0  0
  2  3  2  0  0  0  0
  3  1  1  0  0  0  0
  3 13  1  0  0  0  0
  4  9  1  0  0  0  0
  5  4  1  0  0  0  0
  6 42  1  6  0  0  0
  6  8  1  0  0  0  0
  6  7  1  0  0  0  0
  7  5  1  6  0  0  0
  7 10  1  0  0  0  0
  8  2  1  0  0  0  0
 10  9  1  1  0  0  0
 10  1  1  0  0  0  0
 12 11  1  0  0  0  0
 13 14  1  0  0  0  0
 15 14  1  0  0  0  0
 16 15  1  0  0  0  0
 17 16  1  0  0  0  0
 18 17  1  0  0  0  0
 19 20  1  0  0  0  0
 19 18  1  0  0  0  0
 21 20  1  1  0  0  0
 22 21  1  0  0  0  0
 23 29  1  0  0  0  0
 25 23  1  0  0  0  0
 26 24  1  1  0  0  0
 26 29  1  0  0  0  0
 26 22  1  0  0  0  0
 27 25  1  6  0  0  0
 27 24  1  0  0  0  0
 29 30  1  0  0  0  0
 30 21  1  0  0  0  0
 30 28  2  0  0  0  0
 32 34  1  0  0  0  0
 33 32  1  0  0  0  0
 34 31  1  6  0  0  0
 34 27  1  0  0  0  0
 35 36  1  1  0  0  0
 35 37  1  0  0  0  0
 35 33  1  0  0  0  0
 36 31  1  0  0  0  0
 37 40  1  1  0  0  0
 38 41  1  0  0  0  0
 39 37  1  0  0  0  0
 41 39  1  0  0  0  0
 41 37  1  0  0  0  0
 43 42  1  0  0  0  0
 44 46  1  0  0  0  0
 45 46  2  0  0  0  0
 46 43  1  0  0  0  0
 47 59  1  6  0  0  0
 47 44  1  0  0  0  0
 48 49  1  6  0  0  0
 48 47  1  0  0  0  0
 49 50  1  0  0  0  0
 51 50  1  0  0  0  0
 53 52  1  0  0  0  0
 53 51  1  0  0  0  0
 54 48  1  0  0  0  0
 55 56  1  0  0  0  0
 55 54  1  0  0  0  0
 58 57  1  0  0  0  0
 58 56  1  0  0  0  0
 59 60  1  0  0  0  0
 61 62  1  0  0  0  0
 62 63  1  0  0  0  0
 62 60  1  0  0  0  0
M  END
>  <MODEL>
7

>  <REMARK>
 VINA RESULT:      -3.5      1.348      2.366
  Name = 
  28 active torsions:
  status: ('A' for Active; 'I' for Inactive)
    1  A    between atoms: C_1  and  C_34
    2  A    between atoms: C_2  and  C_7
    3  A    between atoms: C_2  and  O_25
    4  A    between atoms: C_4  and  C_37
    5  A    between atoms: C_7  and  O_54
    6  A    between atoms: N_9  and  C_38
    7  A    between atoms: C_10  and  O_50
    8  A    between atoms: N_14  and  C_29
    9  A    between atoms: N_14  and  C_57
   10  A    between atoms: N_15  and  C_57
   11  A    between atoms: C_20  and  C_33
   12  A    between atoms: C_20  and  C_55
   13  A    between atoms: C_21  and  C_57
   14  A    between atoms: C_21  and  C_58
   15  A    between atoms: C_21  and  C_62
   16  A    between atoms: C_22  and  C_41
   17  A    between atoms: C_22  and  C_61
   18  A    between atoms: O_25  and  C_26
   19  A    between atoms: C_28  and  C_29
   20  A    between atoms: C_32  and  O_36
   21  A    between atoms: C_32  and  C_62
   22  A    between atoms: C_33  and  C_58
   23  A    between atoms: C_34  and  C_56
   24  A    between atoms: C_35  and  O_54
   25  A    between atoms: C_35  and  C_59
   26  A    between atoms: O_36  and  C_60
   27  A    between atoms: C_44  and  C_61
   28  A    between atoms: C_56  and  C_59
                            x       y       z     vdW  Elec       q    Type
                         _______ _______ _______ _____ _____    ______ ____

>  <TORSDO>
F 28

$$$$
=
 OpenBabel11032420503D

 63 68  0  0  1  0  0  0  0  0999 V2000
  188.9900  177.9050  144.1200 C   0  0  2  0  0  3  0  0  0  0  0  0
  187.2270  178.4180  142.4280 C   0  0  0  0  0  3  0  0  0  0  0  0
  187.5560  177.9380  143.6400 C   0  0  0  0  0  0  0  0  0  0  0  0
  192.0530  176.5050  142.5970 C   0  0  0  0  0  2  0  0  0  0  0  0
  191.4150  177.0840  141.4810 O   0  0  0  0  0  0  0  0  0  0  0  0
  189.1900  177.9150  140.9580 C   0  0  1  0  0  3  0  0  0  0  0  0
  190.3060  177.7780  141.9920 C   0  0  1  0  0  3  0  0  0  0  0  0
  188.1970  178.9720  141.4280 C   0  0  0  0  0  2  0  0  0  0  0  0
  191.1340  176.5840  143.7990 C   0  0  0  0  0  2  0  0  0  0  0  0
  189.8310  177.0150  143.2010 C   0  0  1  0  0  3  0  0  0  0  0  0
  188.6890  178.5220  146.2280 C   0  0  0  0  0  1  0  0  0  0  0  0
  189.0420  177.4280  145.4350 O   0  0  0  0  0  0  0  0  0  0  0  0
  186.5580  177.4530  144.4970 O   0  0  0  0  0  0  0  0  0  0  0  0
  185.3690  178.1780  144.7900 C   0  0  0  0  0  2  0  0  0  0  0  0
  185.4170  179.5370  144.1120 C   0  0  0  0  0  2  0  0  0  0  0  0
  184.1710  179.8480  143.5670 O   0  0  0  0  0  0  0  0  0  0  0  0
  183.2530  179.3040  144.4620 C   0  0  0  0  0  2  0  0  0  0  0  0
  182.4730  178.1840  143.7940 C   0  0  0  0  0  2  0  0  0  0  0  0
  180.9930  178.5200  143.8210 C   0  0  0  0  0  2  0  0  0  0  0  0
  180.5510  179.0800  142.4800 C   0  0  0  0  0  2  0  0  0  0  0  0
  181.6900  178.9670  141.4790 C   0  0  1  0  0  3  0  0  0  0  0  0
  181.9030  177.5030  141.0730 C   0  0  0  0  0  2  0  0  0  0  0  0
  181.0070  179.0470  137.7350 C   0  0  0  0  0  2  0  0  0  0  0  0
  180.8150  176.4110  139.0740 C   0  0  0  0  0  2  0  0  0  0  0  0
  181.0930  177.7910  136.8740 C   0  0  0  0  0  2  0  0  0  0  0  0
  181.8530  177.4330  139.5390 C   0  0  1  0  0  3  0  0  0  0  0  0
  180.4220  176.5950  137.5780 C   0  0  1  0  0  3  0  0  0  0  0  0
  181.0430  180.8410  140.0900 O   0  0  0  0  0  0  0  0  0  0  0  0
  181.4630  178.7560  139.0920 N   0  0  0  0  0  0  0  0  0  0  0  0
  181.3400  179.6220  140.2000 C   0  0  0  0  0  0  0  0  0  0  0  0
  179.3070  174.6410  136.6750 C   0  0  0  0  0  2  0  0  0  0  0  0
  181.0770  175.7390  135.4470 C   0  0  0  0  0  2  0  0  0  0  0  0
  181.5310  174.4840  134.6870 C   0  0  0  0  0  2  0  0  0  0  0  0
  180.5850  175.3740  136.7770 N   0  0  1  0  0  0  0  0  0  0  0  0
  180.6750  173.2480  135.0130 C   0  0  2  0  0  3  0  0  0  0  0  0
  179.2760  173.6300  135.5140 C   0  0  0  0  0  2  0  0  0  0  0  0
  181.3950  172.2820  135.9580 C   0  0  2  0  0  0  0  0  0  0  0  0
  183.1760  170.7990  135.9250 O   0  0  0  0  0  1  0  0  0  0  0  0
  180.9110  170.9110  136.0990 C   0  0  0  0  0  2  0  0  0  0  0  0
  182.1060  172.7890  137.0600 O   0  0  0  0  0  1  0  0  0  0  0  0
  182.0790  171.1860  135.2280 N   0  0  0  0  0  0  0  0  0  0  0  0
  189.7400  178.3340  139.6100 C   0  0  0  0  0  2  0  0  0  0  0  0
  188.6070  178.3890  138.6050 C   0  0  0  0  0  2  0  0  0  0  0  0
  188.9430  177.0340  136.5090 N   0  0  0  0  0  2  0  0  0  0  0  0
  187.8980  176.1120  138.3840 O   0  0  0  0  0  0  0  0  0  0  0  0
  188.4830  177.1020  137.8610 C   0  0  0  0  0  0  0  0  0  0  0  0
  188.5720  175.9410  135.6150 C   0  0  1  0  0  3  0  0  0  0  0  0
  189.7000  174.8970  135.5670 C   0  0  1  0  0  3  0  0  0  0  0  0
  190.0420  174.3300  136.9530 C   0  0  0  0  0  2  0  0  0  0  0  0
  191.4750  174.6350  137.3570 C   0  0  0  0  0  2  0  0  0  0  0  0
  192.0130  175.7580  136.4930 C   0  0  0  0  0  2  0  0  0  0  0  0
  193.6870  173.9430  136.3620 C   0  0  0  0  0  1  0  0  0  0  0  0
  193.3810  175.3740  135.9740 C   0  0  0  0  0  2  0  0  0  0  0  0
  189.3710  173.7650  134.5970 C   0  0  0  0  0  2  0  0  0  0  0  0
  189.4150  172.4150  135.2960 C   0  0  0  0  0  2  0  0  0  0  0  0
  188.1540  171.8140  135.2780 O   0  0  0  0  0  0  0  0  0  0  0  0
  187.1120  169.7430  134.7380 C   0  0  0  0  0  1  0  0  0  0  0  0
  188.4150  170.4770  134.9850 C   0  0  0  0  0  2  0  0  0  0  0  0
  187.3350  175.3290  136.0860 N   0  0  0  0  0  2  0  0  0  0  0  0
  186.2990  175.6420  135.1110 C   0  0  0  0  0  2  0  0  0  0  0  0
  184.6580  175.5230  136.8550 O   0  0  0  0  0  1  0  0  0  0  0  0
  184.9570  175.0890  135.5610 C   0  0  0  0  0  3  0  0  0  0  0  0
  184.9840  173.6940  135.5290 O   0  0  0  0  0  1  0  0  0  0  0  0
  1 12  1  1  0  0  0
  2  3  2  0  0  0  0
  3  1  1  0  0  0  0
  3 13  1  0  0  0  0
  4  9  1  0  0  0  0
  5  4  1  0  0  0  0
  6 42  1  6  0  0  0
  6  8  1  0  0  0  0
  6  7  1  0  0  0  0
  7  5  1  6  0  0  0
  7 10  1  0  0  0  0
  8  2  1  0  0  0  0
 10  9  1  1  0  0  0
 10  1  1  0  0  0  0
 12 11  1  0  0  0  0
 13 14  1  0  0  0  0
 15 14  1  0  0  0  0
 16 15  1  0  0  0  0
 16 17  1  0  0  0  0
 18 19  1  0  0  0  0
 18 17  1  0  0  0  0
 20 19  1  0  0  0  0
 21 20  1  1  0  0  0
 22 21  1  0  0  0  0
 23 29  1  0  0  0  0
 25 23  1  0  0  0  0
 26 24  1  1  0  0  0
 26 22  1  0  0  0  0
 27 25  1  6  0  0  0
 27 24  1  0  0  0  0
 28 30  2  0  0  0  0
 29 26  1  0  0  0  0
 29 30  1  0  0  0  0
 30 21  1  0  0  0  0
 31 34  1  0  0  0  0
 33 32  1  0  0  0  0
 34 32  1  6  0  0  0
 34 27  1  0  0  0  0
 35 33  1  1  0  0  0
 35 36  1  0  0  0  0
 35 37  1  0  0  0  0
 36 31  1  0  0  0  0
 37 39  1  0  0  0  0
 37 40  1  1  0  0  0
 41 38  1  0  0  0  0
 41 37  1  0  0  0  0
 41 39  1  0  0  0  0
 43 42  1  0  0  0  0
 44 46  1  0  0  0  0
 46 45  2  0  0  0  0
 46 43  1  0  0  0  0
 47 59  1  1  0  0  0
 47 44  1  0  0  0  0
 48 54  1  6  0  0  0
 48 47  1  0  0  0  0
 48 49  1  0  0  0  0
 49 50  1  0  0  0  0
 51 50  1  0  0  0  0
 53 52  1  0  0  0  0
 53 51  1  0  0  0  0
 54 55  1  0  0  0  0
 56 55  1  0  0  0  0
 57 58  1  0  0  0  0
 58 56  1  0  0  0  0
 60 62  1  0  0  0  0
 60 59  1  0  0  0  0
 62 61  1  0  0  0  0
 63 62  1  0  0  0  0
M  END
>  <MODEL>
8

>  <REMARK>
 VINA RESULT:      -3.3      1.958      2.834
  Name = 
  28 active torsions:
  status: ('A' for Active; 'I' for Inactive)
    1  A    between atoms: C_1  and  C_34
    2  A    between atoms: C_2  and  C_7
    3  A    between atoms: C_2  and  O_25
    4  A    between atoms: C_4  and  C_37
    5  A    between atoms: C_7  and  O_54
    6  A    between atoms: N_9  and  C_38
    7  A    between atoms: C_10  and  O_50
    8  A    between atoms: N_14  and  C_29
    9  A    between atoms: N_14  and  C_57
   10  A    between atoms: N_15  and  C_57
   11  A    between atoms: C_20  and  C_33
   12  A    between atoms: C_20  and  C_55
   13  A    between atoms: C_21  and  C_57
   14  A    between atoms: C_21  and  C_58
   15  A    between atoms: C_21  and  C_62
   16  A    between atoms: C_22  and  C_41
   17  A    between atoms: C_22  and  C_61
   18  A    between atoms: O_25  and  C_26
   19  A    between atoms: C_28  and  C_29
   20  A    between atoms: C_32  and  O_36
   21  A    between atoms: C_32  and  C_62
   22  A    between atoms: C_33  and  C_58
   23  A    between atoms: C_34  and  C_56
   24  A    between atoms: C_35  and  O_54
   25  A    between atoms: C_35  and  C_59
   26  A    between atoms: O_36  and  C_60
   27  A    between atoms: C_44  and  C_61
   28  A    between atoms: C_56  and  C_59
                            x       y       z     vdW  Elec       q    Type
                         _______ _______ _______ _____ _____    ______ ____

>  <TORSDO>
F 28

$$$$
=
 OpenBabel11032420503D

 63 68  0  0  1  0  0  0  0  0999 V2000
  191.9890  177.0650  139.1090 C   0  0  2  0  0  3  0  0  0  0  0  0
  189.8630  176.9400  140.4130 C   0  0  0  0  0  3  0  0  0  0  0  0
  191.2060  176.8790  140.3900 C   0  0  0  0  0  0  0  0  0  0  0  0
  191.7330  175.4050  135.8180 C   0  0  0  0  0  2  0  0  0  0  0  0
  190.3770  175.5750  136.1600 O   0  0  0  0  0  0  0  0  0  0  0  0
  189.1210  176.0960  138.1770 C   0  0  1  0  0  3  0  0  0  0  0  0
  190.3730  176.3420  137.3370 C   0  0  1  0  0  3  0  0  0  0  0  0
  188.9910  177.1990  139.2210 C   0  0  0  0  0  2  0  0  0  0  0  0
  192.6030  175.8130  136.9890 C   0  0  0  0  0  2  0  0  0  0  0  0
  191.6160  175.9730  138.1030 C   0  0  1  0  0  3  0  0  0  0  0  0
  193.7760  175.7610  138.9590 C   0  0  0  0  0  1  0  0  0  0  0  0
  193.3620  177.0270  139.3800 O   0  0  0  0  0  0  0  0  0  0  0  0
  191.9170  176.6400  141.5740 O   0  0  0  0  0  0  0  0  0  0  0  0
  192.1380  177.6420  142.5620 C   0  0  0  0  0  2  0  0  0  0  0  0
  191.0150  177.6080  143.5850 C   0  0  0  0  0  2  0  0  0  0  0  0
  191.5390  177.4600  144.8700 O   0  0  0  0  0  0  0  0  0  0  0  0
  191.5060  176.0880  145.1040 C   0  0  0  0  0  2  0  0  0  0  0  0
  192.0650  175.7800  146.4840 C   0  0  0  0  0  2  0  0  0  0  0  0
  191.4740  176.7480  147.4910 C   0  0  0  0  0  2  0  0  0  0  0  0
  189.9700  176.5570  147.5910 C   0  0  0  0  0  2  0  0  0  0  0  0
  189.2790  177.9100  147.5330 C   0  0  1  0  0  3  0  0  0  0  0  0
  189.0190  178.3160  146.0760 C   0  0  0  0  0  2  0  0  0  0  0  0
  185.4820  178.1530  147.4160 C   0  0  0  0  0  2  0  0  0  0  0  0
  186.8820  177.8240  144.8250 C   0  0  0  0  0  2  0  0  0  0  0  0
  184.7380  178.5320  146.1380 C   0  0  0  0  0  2  0  0  0  0  0  0
  187.5240  178.6450  145.9440 C   0  0  1  0  0  3  0  0  0  0  0  0
  185.3270  177.7940  144.9200 C   0  0  1  0  0  3  0  0  0  0  0  0
  187.6720  177.4920  149.2950 O   0  0  0  0  0  0  0  0  0  0  0  0
  186.9220  178.2850  147.2140 N   0  0  0  0  0  0  0  0  0  0  0  0
  187.9180  177.8370  148.1090 C   0  0  0  0  0  0  0  0  0  0  0  0
  183.9070  179.4810  143.9150 C   0  0  0  0  0  2  0  0  0  0  0  0
  185.6650  178.4180  142.6410 C   0  0  0  0  0  2  0  0  0  0  0  0
  184.9840  178.5920  141.2750 C   0  0  0  0  0  2  0  0  0  0  0  0
  184.6590  178.2300  143.6870 N   0  0  1  0  0  0  0  0  0  0  0  0
  183.6440  179.3410  141.3680 C   0  0  2  0  0  3  0  0  0  0  0  0
  183.5670  180.2330  142.6140 C   0  0  0  0  0  2  0  0  0  0  0  0
  182.4460  178.3960  141.2450 C   0  0  2  0  0  0  0  0  0  0  0  0
  180.5950  178.0810  139.8870 O   0  0  0  0  0  1  0  0  0  0  0  0
  181.2210  178.6800  141.9890 C   0  0  0  0  0  2  0  0  0  0  0  0
  182.6570  177.0450  140.9200 O   0  0  0  0  0  1  0  0  0  0  0  0
  181.2980  179.0310  140.5500 N   0  0  0  0  0  0  0  0  0  0  0  0
  187.8740  176.0980  137.3150 C   0  0  0  0  0  2  0  0  0  0  0  0
  187.4540  177.5300  137.0500 C   0  0  0  0  0  2  0  0  0  0  0  0
  185.1470  176.8900  136.2710 N   0  0  0  0  0  2  0  0  0  0  0  0
  186.5560  178.1800  134.9270 O   0  0  0  0  0  0  0  0  0  0  0  0
  186.3680  177.5930  136.0290 C   0  0  0  0  0  0  0  0  0  0  0  0
  184.1780  176.6260  135.2100 C   0  0  1  0  0  3  0  0  0  0  0  0
  183.3670  175.3630  135.5420 C   0  0  1  0  0  3  0  0  0  0  0  0
  184.0030  174.0840  134.9770 C   0  0  0  0  0  2  0  0  0  0  0  0
  185.5210  174.1470  134.9900 C   0  0  0  0  0  2  0  0  0  0  0  0
  186.0580  173.1440  135.9910 C   0  0  0  0  0  2  0  0  0  0  0  0
  188.4870  172.6830  136.0280 C   0  0  0  0  0  1  0  0  0  0  0  0
  187.3980  173.6210  136.5050 C   0  0  0  0  0  2  0  0  0  0  0  0
  183.1440  175.2240  137.0460 C   0  0  0  0  0  2  0  0  0  0  0  0
  182.7100  173.8110  137.4070 C   0  0  0  0  0  2  0  0  0  0  0  0
  181.5540  173.4600  136.7050 O   0  0  0  0  0  0  0  0  0  0  0  0
  179.7190  174.9760  136.7200 C   0  0  0  0  0  1  0  0  0  0  0  0
  180.5130  173.9420  137.4940 C   0  0  0  0  0  2  0  0  0  0  0  0
  183.2910  177.7750  135.0690 N   0  0  0  0  0  2  0  0  0  0  0  0
  181.9980  177.2710  134.6260 C   0  0  0  0  0  2  0  0  0  0  0  0
  181.2120  179.5290  134.8050 O   0  0  0  0  0  1  0  0  0  0  0  0
  180.8810  178.1990  135.0750 C   0  0  0  0  0  3  0  0  0  0  0  0
  180.6550  178.0410  136.4420 O   0  0  0  0  0  1  0  0  0  0  0  0
  1 12  1  1  0  0  0
  1  3  1  0  0  0  0
  3  2  2  0  0  0  0
  3 13  1  0  0  0  0
  4  5  1  0  0  0  0
  4  9  1  0  0  0  0
  6 42  1  6  0  0  0
  6  8  1  0  0  0  0
  7  5  1  6  0  0  0
  7 10  1  0  0  0  0
  7  6  1  0  0  0  0
  8  2  1  0  0  0  0
 10  9  1  6  0  0  0
 10  1  1  0  0  0  0
 11 12  1  0  0  0  0
 13 14  1  0  0  0  0
 14 15  1  0  0  0  0
 15 16  1  0  0  0  0
 16 17  1  0  0  0  0
 17 18  1  0  0  0  0
 18 19  1  0  0  0  0
 19 20  1  0  0  0  0
 21 20  1  6  0  0  0
 21 30  1  0  0  0  0
 22 21  1  0  0  0  0
 25 23  1  0  0  0  0
 26 24  1  6  0  0  0
 26 22  1  0  0  0  0
 26 29  1  0  0  0  0
 27 24  1  6  0  0  0
 27 25  1  0  0  0  0
 29 23  1  0  0  0  0
 29 30  1  0  0  0  0
 30 28  2  0  0  0  0
 33 32  1  0  0  0  0
 34 32  1  6  0  0  0
 34 31  1  0  0  0  0
 34 27  1  0  0  0  0
 35 33  1  1  0  0  0
 35 36  1  0  0  0  0
 36 31  1  0  0  0  0
 37 40  1  6  0  0  0
 37 35  1  0  0  0  0
 37 39  1  0  0  0  0
 38 41  1  0  0  0  0
 41 37  1  0  0  0  0
 41 39  1  0  0  0  0
 43 42  1  0  0  0  0
 45 46  2  0  0  0  0
 46 44  1  0  0  0  0
 46 43  1  0  0  0  0
 47 59  1  1  0  0  0
 47 48  1  0  0  0  0
 47 44  1  0  0  0  0
 48 49  1  1  0  0  0
 48 54  1  0  0  0  0
 49 50  1  0  0  0  0
 50 51  1  0  0  0  0
 51 53  1  0  0  0  0
 52 53  1  0  0  0  0
 54 55  1  0  0  0  0
 56 55  1  0  0  0  0
 56 58  1  0  0  0  0
 57 58  1  0  0  0  0
 60 59  1  0  0  0  0
 60 62  1  0  0  0  0
 61 62  1  0  0  0  0
 62 63  1  0  0  0  0
M  END
>  <MODEL>
9

>  <REMARK>
 VINA RESULT:      -3.3      2.535      7.685
  Name = 
  28 active torsions:
  status: ('A' for Active; 'I' for Inactive)
    1  A    between atoms: C_1  and  C_34
    2  A    between atoms: C_2  and  C_7
    3  A    between atoms: C_2  and  O_25
    4  A    between atoms: C_4  and  C_37
    5  A    between atoms: C_7  and  O_54
    6  A    between atoms: N_9  and  C_38
    7  A    between atoms: C_10  and  O_50
    8  A    between atoms: N_14  and  C_29
    9  A    between atoms: N_14  and  C_57
   10  A    between atoms: N_15  and  C_57
   11  A    between atoms: C_20  and  C_33
   12  A    between atoms: C_20  and  C_55
   13  A    between atoms: C_21  and  C_57
   14  A    between atoms: C_21  and  C_58
   15  A    between atoms: C_21  and  C_62
   16  A    between atoms: C_22  and  C_41
   17  A    between atoms: C_22  and  C_61
   18  A    between atoms: O_25  and  C_26
   19  A    between atoms: C_28  and  C_29
   20  A    between atoms: C_32  and  O_36
   21  A    between atoms: C_32  and  C_62
   22  A    between atoms: C_33  and  C_58
   23  A    between atoms: C_34  and  C_56
   24  A    between atoms: C_35  and  O_54
   25  A    between atoms: C_35  and  C_59
   26  A    between atoms: O_36  and  C_60
   27  A    between atoms: C_44  and  C_61
   28  A    between atoms: C_56  and  C_59
                            x       y       z     vdW  Elec       q    Type
                         _______ _______ _______ _____ _____    ______ ____

>  <TORSDO>
F 28

$$$$
