=
 OpenBabel11042411523D

 35 39  0  0  0  0  0  0  0  0999 V2000
  187.7390  177.5950  144.1180 C   0  0  0  0  0  3  0  0  0  0  0  0
  191.4800  177.0660  139.6390 C   0  0  0  0  0  0  0  0  0  0  0  0
  186.8180  177.8160  145.1600 C   0  0  0  0  0  0  0  0  0  0  0  0
  189.2060  177.5180  141.0950 C   0  0  0  0  0  0  0  0  0  0  0  0
  185.5290  178.3280  144.8850 C   0  0  0  0  0  3  0  0  0  0  0  0
  185.1320  178.6200  143.5670 C   0  0  0  0  0  3  0  0  0  0  0  0
  187.7470  178.3500  139.1360 S   0  0  0  0  0  0  0  0  0  0  0  0
  187.3190  177.8860  142.8260 C   0  0  0  0  0  0  0  0  0  0  0  0
  185.8950  178.6250  141.2180 N   0  0  0  0  0  0  0  0  0  0  0  0
  190.3620  177.5300  139.0020 N   0  0  0  0  0  0  0  0  0  0  0  0
  186.0520  178.3860  142.5460 C   0  0  0  0  0  0  0  0  0  0  0  0
  187.9630  177.8280  141.6140 C   0  0  0  0  0  0  0  0  0  0  0  0
  190.3440  177.0530  141.7400 C   0  0  0  0  0  3  0  0  0  0  0  0
  191.4610  176.8350  140.9900 N   0  0  0  0  0  0  0  0  0  0  0  0
  189.2390  177.7510  139.7250 C   0  0  0  0  0  0  0  0  0  0  0  0
  187.0830  178.2780  140.6880 C   0  0  0  0  0  0  0  0  0  0  0  0
  192.7080  176.8160  138.8720 C   0  0  0  0  0  0  0  0  0  0  0  0
  192.6260  176.3020  137.5410 N   0  0  0  0  0  2  0  0  0  0  0  0
  193.8130  176.0450  136.7410 C   0  0  0  0  0  1  0  0  0  0  0  0
  193.8330  177.0550  139.3910 O   0  0  0  0  0  0  0  0  0  0  0  0
  184.7620  179.2410  140.5390 C   0  0  0  0  0  2  0  0  0  0  0  0
  184.2310  178.0220  138.3900 C   0  0  0  0  0  3  0  0  0  0  0  0
  183.0210  177.4150  140.3260 C   0  0  0  0  0  3  0  0  0  0  0  0
  183.1660  176.8130  137.9060 S   0  0  0  0  0  0  0  0  0  0  0  0
  184.0150  178.2190  139.7530 C   0  0  0  0  0  0  0  0  0  0  0  0
  182.4480  176.5580  139.4040 C   0  0  0  0  0  0  0  0  0  0  0  0
  180.6150  175.1620  138.7500 N   0  0  0  0  0  2  0  0  0  0  0  0
  181.3690  175.6160  139.6940 C   0  0  0  0  0  3  0  0  0  0  0  0
  187.2110  177.5340  146.5690 C   0  0  0  0  0  2  0  0  0  0  0  0
  188.6930  177.8100  146.7630 C   0  0  0  0  0  2  0  0  0  0  0  0
  189.3600  176.6620  147.5010 C   0  0  0  0  0  2  0  0  0  0  0  0
  191.7290  175.0350  147.3390 O   0  0  0  0  0  0  0  0  0  0  0  0
  191.4780  177.1930  145.4740 C   0  0  0  0  0  1  0  0  0  0  0  0
  191.1480  176.6150  147.1630 P   0  0  1  0  0  0  0  0  0  0  0  0
  191.8600  177.5190  148.1430 O   0  0  0  0  0  1  0  0  0  0  0  0
  1  3  1  0  0  0  0
  2 14  1  0  0  0  0
  3 29  1  0  0  0  0
  4 12  1  0  0  0  0
  4 13  1  0  0  0  0
  5  3  2  0  0  0  0
  6  5  1  0  0  0  0
  7 15  1  0  0  0  0
  7 16  1  0  0  0  0
  8  1  2  0  0  0  0
  9 11  1  0  0  0  0
 10  2  2  0  0  0  0
 10 15  1  0  0  0  0
 11  8  1  0  0  0  0
 11  6  2  0  0  0  0
 12  8  1  0  0  0  0
 14 13  2  0  0  0  0
 15  4  2  0  0  0  0
 16  9  1  0  0  0  0
 16 12  2  0  0  0  0
 17 20  2  0  0  0  0
 17  2  1  0  0  0  0
 18 17  1  0  0  0  0
 19 18  1  0  0  0  0
 21  9  1  0  0  0  0
 22 25  2  0  0  0  0
 24 22  1  0  0  0  0
 24 26  1  0  0  0  0
 25 23  1  0  0  0  0
 25 21  1  0  0  0  0
 26 28  1  0  0  0  0
 26 23  2  0  0  0  0
 27 28  2  0  0  0  0
 29 30  1  0  0  0  0
 30 31  1  0  0  0  0
 34 33  1  6  0  0  0
 34 32  2  0  0  0  0
 34 31  1  0  0  0  0
 34 35  1  0  0  0  0
M  END
>  <MODEL>
1

>  <REMARK>
 VINA RESULT:      -8.6      0.000      0.000
  Name = 
  8 active torsions:
  status: ('A' for Active; 'I' for Inactive)
    1  A    between atoms: C_2  and  C_30
    2  A    between atoms: C_2  and  C_32
    3  A    between atoms: C_5  and  C_7
    4  A    between atoms: C_8  and  C_30
    5  A    between atoms: C_14  and  C_19
    6  A    between atoms: C_17  and  C_22
    7  A    between atoms: N_20  and  C_22
    8  A    between atoms: P_23  and  C_32
                            x       y       z     vdW  Elec       q    Type
                         _______ _______ _______ _____ _____    ______ ____

>  <TORSDO>
F 8

$$$$
=
 OpenBabel11042411523D

 35 39  0  0  0  0  0  0  0  0999 V2000
  186.1200  178.0010  144.1330 C   0  0  0  0  0  3  0  0  0  0  0  0
  191.2710  176.6680  146.5900 C   0  0  0  0  0  0  0  0  0  0  0  0
  184.9260  178.4050  143.5040 C   0  0  0  0  0  0  0  0  0  0  0  0
  189.3560  177.3360  144.7500 C   0  0  0  0  0  0  0  0  0  0  0  0
  184.9270  178.7990  142.1460 C   0  0  0  0  0  3  0  0  0  0  0  0
  186.1130  178.7900  141.3890 C   0  0  0  0  0  3  0  0  0  0  0  0
  190.9550  177.6790  142.7530 S   0  0  0  0  0  0  0  0  0  0  0  0
  187.2760  177.9950  143.3610 C   0  0  0  0  0  0  0  0  0  0  0  0
  188.5360  178.3230  141.5000 N   0  0  0  0  0  0  0  0  0  0  0  0
  191.6490  176.9440  145.3050 N   0  0  0  0  0  0  0  0  0  0  0  0
  187.2840  178.3770  142.0240 C   0  0  0  0  0  0  0  0  0  0  0  0
  188.5830  177.7040  143.6640 C   0  0  0  0  0  0  0  0  0  0  0  0
  188.9750  177.0610  146.0550 C   0  0  0  0  0  3  0  0  0  0  0  0
  189.9490  176.7290  146.9500 N   0  0  0  0  0  0  0  0  0  0  0  0
  190.7000  177.2730  144.3970 C   0  0  0  0  0  0  0  0  0  0  0  0
  189.2970  177.9140  142.5330 C   0  0  0  0  0  0  0  0  0  0  0  0
  192.2840  176.3050  147.5900 C   0  0  0  0  0  0  0  0  0  0  0  0
  192.4610  177.1170  148.7530 N   0  0  0  0  0  2  0  0  0  0  0  0
  193.4460  176.7950  149.7730 C   0  0  0  0  0  1  0  0  0  0  0  0
  192.9960  175.2770  147.4200 O   0  0  0  0  0  0  0  0  0  0  0  0
  188.9800  178.7380  140.1760 C   0  0  0  0  0  2  0  0  0  0  0  0
  190.1930  176.7970  139.1070 C   0  0  0  0  0  3  0  0  0  0  0  0
  187.9510  177.1780  138.4680 C   0  0  0  0  0  3  0  0  0  0  0  0
  189.8320  175.6110  137.9690 S   0  0  0  0  0  0  0  0  0  0  0  0
  189.0400  177.5640  139.2610 C   0  0  0  0  0  0  0  0  0  0  0  0
  188.2430  176.0770  137.6810 C   0  0  0  0  0  0  0  0  0  0  0  0
  186.0480  175.6660  136.8170 N   0  0  0  0  0  2  0  0  0  0  0  0
  187.3200  175.4580  136.7340 C   0  0  0  0  0  3  0  0  0  0  0  0
  183.6560  178.4440  144.2790 C   0  0  0  0  0  2  0  0  0  0  0  0
  182.6470  179.3430  143.5840 C   0  0  0  0  0  2  0  0  0  0  0  0
  181.2320  178.8390  143.8150 C   0  0  0  0  0  2  0  0  0  0  0  0
  179.6700  180.8550  142.4800 O   0  0  0  0  0  1  0  0  0  0  0  0
  181.0430  178.9470  140.8420 C   0  0  0  0  0  1  0  0  0  0  0  0
  180.1560  179.2350  142.4010 P   0  0  1  0  0  0  0  0  0  0  0  0
  178.9330  178.3460  142.4450 O   0  0  0  0  0  0  0  0  0  0  0  0
  2 14  1  0  0  0  0
  2 17  1  0  0  0  0
  3  1  1  0  0  0  0
  3 29  1  0  0  0  0
  4 13  1  0  0  0  0
  5  3  2  0  0  0  0
  6 11  2  0  0  0  0
  6  5  1  0  0  0  0
  7 15  1  0  0  0  0
  8 12  1  0  0  0  0
  8  1  2  0  0  0  0
  9 11  1  0  0  0  0
  9 16  1  0  0  0  0
 10  2  2  0  0  0  0
 11  8  1  0  0  0  0
 12  4  1  0  0  0  0
 13 14  2  0  0  0  0
 15  4  2  0  0  0  0
 15 10  1  0  0  0  0
 16  7  1  0  0  0  0
 16 12  2  0  0  0  0
 17 18  1  0  0  0  0
 18 19  1  0  0  0  0
 20 17  2  0  0  0  0
 21  9  1  0  0  0  0
 22 25  2  0  0  0  0
 23 25  1  0  0  0  0
 24 22  1  0  0  0  0
 25 21  1  0  0  0  0
 26 24  1  0  0  0  0
 26 23  2  0  0  0  0
 28 27  2  0  0  0  0
 28 26  1  0  0  0  0
 30 31  1  0  0  0  0
 30 29  1  0  0  0  0
 34 33  1  6  0  0  0
 34 35  2  0  0  0  0
 34 32  1  0  0  0  0
 34 31  1  0  0  0  0
M  END
>  <MODEL>
2

>  <REMARK>
 VINA RESULT:      -8.6      4.898      7.184
  Name = 
  8 active torsions:
  status: ('A' for Active; 'I' for Inactive)
    1  A    between atoms: C_2  and  C_30
    2  A    between atoms: C_2  and  C_32
    3  A    between atoms: C_5  and  C_7
    4  A    between atoms: C_8  and  C_30
    5  A    between atoms: C_14  and  C_19
    6  A    between atoms: C_17  and  C_22
    7  A    between atoms: N_20  and  C_22
    8  A    between atoms: P_23  and  C_32
                            x       y       z     vdW  Elec       q    Type
                         _______ _______ _______ _____ _____    ______ ____

>  <TORSDO>
F 8

$$$$
=
 OpenBabel11042411523D

 35 39  0  0  0  0  0  0  0  0999 V2000
  185.2940  178.5540  143.5590 C   0  0  0  0  0  3  0  0  0  0  0  0
  187.4690  178.4050  138.1190 C   0  0  0  0  0  0  0  0  0  0  0  0
  184.7190  178.6730  144.8390 C   0  0  0  0  0  0  0  0  0  0  0  0
  185.7230  178.5070  140.2260 C   0  0  0  0  0  0  0  0  0  0  0  0
  183.3280  178.8790  144.9870 C   0  0  0  0  0  3  0  0  0  0  0  0
  182.4850  178.9610  143.8640 C   0  0  0  0  0  3  0  0  0  0  0  0
  183.5770  178.8360  138.8300 S   0  0  0  0  0  0  0  0  0  0  0  0
  184.4380  178.6320  142.4670 C   0  0  0  0  0  0  0  0  0  0  0  0
  182.4550  178.9090  141.3940 N   0  0  0  0  0  0  0  0  0  0  0  0
  186.1340  178.5670  137.8710 N   0  0  0  0  0  0  0  0  0  0  0  0
  183.0680  178.8300  142.6040 C   0  0  0  0  0  0  0  0  0  0  0  0
  184.6670  178.5980  141.1140 C   0  0  0  0  0  0  0  0  0  0  0  0
  187.0790  178.3490  140.4760 C   0  0  0  0  0  3  0  0  0  0  0  0
  187.9250  178.3000  139.4080 N   0  0  0  0  0  0  0  0  0  0  0  0
  185.2730  178.6150  138.9140 C   0  0  0  0  0  0  0  0  0  0  0  0
  183.4650  178.7690  140.5140 C   0  0  0  0  0  0  0  0  0  0  0  0
  188.4200  178.3460  137.0010 C   0  0  0  0  0  0  0  0  0  0  0  0
  188.3760  177.2510  136.0840 N   0  0  0  0  0  2  0  0  0  0  0  0
  189.2910  177.1520  134.9590 C   0  0  0  0  0  1  0  0  0  0  0  0
  189.2730  179.2630  136.8520 O   0  0  0  0  0  0  0  0  0  0  0  0
  181.0590  179.2120  141.1070 C   0  0  0  0  0  2  0  0  0  0  0  0
  180.0710  178.0490  139.0930 C   0  0  0  0  0  3  0  0  0  0  0  0
  180.0500  176.8900  141.1510 C   0  0  0  0  0  3  0  0  0  0  0  0
  179.3320  176.5710  138.7790 S   0  0  0  0  0  0  0  0  0  0  0  0
  180.4050  178.0480  140.4460 C   0  0  0  0  0  0  0  0  0  0  0  0
  179.4350  175.9530  140.3390 C   0  0  0  0  0  0  0  0  0  0  0  0
  179.0960  174.2730  142.0110 N   0  0  0  0  0  2  0  0  0  0  0  0
  178.9320  174.6580  140.7900 C   0  0  0  0  0  3  0  0  0  0  0  0
  185.5850  178.6090  146.0490 C   0  0  0  0  0  2  0  0  0  0  0  0
  186.6220  177.5090  145.8920 C   0  0  0  0  0  2  0  0  0  0  0  0
  187.9750  177.9720  146.4050 C   0  0  0  0  0  2  0  0  0  0  0  0
  190.4610  176.5650  146.0460 O   0  0  0  0  0  1  0  0  0  0  0  0
  188.6220  176.5820  143.8490 C   0  0  0  0  0  1  0  0  0  0  0  0
  189.3060  177.5130  145.2510 P   0  0  1  0  0  0  0  0  0  0  0  0
  189.9670  178.7710  144.7320 O   0  0  0  0  0  0  0  0  0  0  0  0
  1  3  1  0  0  0  0
  2 14  1  0  0  0  0
  3  5  2  0  0  0  0
  3 29  1  0  0  0  0
  4 13  1  0  0  0  0
  4 12  1  0  0  0  0
  6  5  1  0  0  0  0
  7 15  1  0  0  0  0
  7 16  1  0  0  0  0
  8 11  1  0  0  0  0
  8  1  2  0  0  0  0
  9 11  1  0  0  0  0
 10  2  2  0  0  0  0
 10 15  1  0  0  0  0
 11  6  2  0  0  0  0
 12  8  1  0  0  0  0
 14 13  2  0  0  0  0
 15  4  2  0  0  0  0
 16 12  2  0  0  0  0
 16  9  1  0  0  0  0
 17  2  1  0  0  0  0
 18 17  1  0  0  0  0
 19 18  1  0  0  0  0
 20 17  2  0  0  0  0
 21  9  1  0  0  0  0
 22 25  2  0  0  0  0
 24 22  1  0  0  0  0
 24 26  1  0  0  0  0
 25 21  1  0  0  0  0
 25 23  1  0  0  0  0
 26 28  1  0  0  0  0
 26 23  2  0  0  0  0
 28 27  2  0  0  0  0
 30 29  1  0  0  0  0
 30 31  1  0  0  0  0
 34 33  1  6  0  0  0
 34 32  1  0  0  0  0
 34 31  1  0  0  0  0
 35 34  2  0  0  0  0
M  END
>  <MODEL>
3

>  <REMARK>
 VINA RESULT:      -8.5      2.799      3.628
  Name = 
  8 active torsions:
  status: ('A' for Active; 'I' for Inactive)
    1  A    between atoms: C_2  and  C_30
    2  A    between atoms: C_2  and  C_32
    3  A    between atoms: C_5  and  C_7
    4  A    between atoms: C_8  and  C_30
    5  A    between atoms: C_14  and  C_19
    6  A    between atoms: C_17  and  C_22
    7  A    between atoms: N_20  and  C_22
    8  A    between atoms: P_23  and  C_32
                            x       y       z     vdW  Elec       q    Type
                         _______ _______ _______ _____ _____    ______ ____

>  <TORSDO>
F 8

$$$$
=
 OpenBabel11042411523D

 35 39  0  0  0  0  0  0  0  0999 V2000
  185.2030  178.2660  142.5530 C   0  0  0  0  0  3  0  0  0  0  0  0
  189.8840  177.1210  145.8880 C   0  0  0  0  0  0  0  0  0  0  0  0
  184.1300  178.6190  141.7120 C   0  0  0  0  0  0  0  0  0  0  0  0
  188.2870  177.6160  143.7190 C   0  0  0  0  0  0  0  0  0  0  0  0
  184.3460  178.8620  140.3350 C   0  0  0  0  0  3  0  0  0  0  0  0
  185.6300  178.7500  139.7720 C   0  0  0  0  0  3  0  0  0  0  0  0
  190.1760  177.7110  141.9630 S   0  0  0  0  0  0  0  0  0  0  0  0
  186.4600  178.1560  141.9700 C   0  0  0  0  0  0  0  0  0  0  0  0
  187.9920  178.2550  140.2970 N   0  0  0  0  0  0  0  0  0  0  0  0
  190.4580  177.2480  144.6540 N   0  0  0  0  0  0  0  0  0  0  0  0
  186.6790  178.3890  140.6170 C   0  0  0  0  0  0  0  0  0  0  0  0
  187.6970  177.8760  142.4970 C   0  0  0  0  0  0  0  0  0  0  0  0
  187.7080  177.4930  144.9740 C   0  0  0  0  0  3  0  0  0  0  0  0
  188.5260  177.2440  146.0360 N   0  0  0  0  0  0  0  0  0  0  0  0
  189.6660  177.4920  143.5830 C   0  0  0  0  0  0  0  0  0  0  0  0
  188.5780  177.9490  141.4710 C   0  0  0  0  0  0  0  0  0  0  0  0
  190.7240  176.8520  147.0630 C   0  0  0  0  0  0  0  0  0  0  0  0
  191.8590  175.9900  146.9460 N   0  0  0  0  0  2  0  0  0  0  0  0
  192.7240  175.7000  148.0770 C   0  0  0  0  0  1  0  0  0  0  0  0
  190.4440  177.3840  148.1720 O   0  0  0  0  0  0  0  0  0  0  0  0
  188.6420  178.5160  139.0190 C   0  0  0  0  0  2  0  0  0  0  0  0
  187.7340  176.7470  137.4590 C   0  0  0  0  0  3  0  0  0  0  0  0
  189.9340  176.4700  138.2740 C   0  0  0  0  0  3  0  0  0  0  0  0
  188.2920  175.3060  136.7930 S   0  0  0  0  0  0  0  0  0  0  0  0
  188.7720  177.2520  138.2410 C   0  0  0  0  0  0  0  0  0  0  0  0
  189.8190  175.3320  137.4950 C   0  0  0  0  0  0  0  0  0  0  0  0
  192.0500  174.5130  137.7910 N   0  0  0  0  0  2  0  0  0  0  0  0
  190.8540  174.3110  137.3480 C   0  0  0  0  0  3  0  0  0  0  0  0
  182.7610  178.7650  142.2780 C   0  0  0  0  0  2  0  0  0  0  0  0
  181.7550  178.9920  141.1600 C   0  0  0  0  0  2  0  0  0  0  0  0
  180.8220  177.8010  141.0290 C   0  0  0  0  0  2  0  0  0  0  0  0
  182.4740  175.8500  139.7060 O   0  0  0  0  0  1  0  0  0  0  0  0
  179.6890  175.8980  139.0350 C   0  0  0  0  0  1  0  0  0  0  0  0
  181.1470  176.8790  139.4930 P   0  0  1  0  0  0  0  0  0  0  0  0
  181.4510  177.8600  138.3830 O   0  0  0  0  0  0  0  0  0  0  0  0
  2 14  1  0  0  0  0
  2 17  1  0  0  0  0
  3 29  1  0  0  0  0
  3  1  2  0  0  0  0
  4 13  1  0  0  0  0
  5  3  1  0  0  0  0
  6  5  2  0  0  0  0
  6 11  1  0  0  0  0
  7 15  1  0  0  0  0
  8 12  1  0  0  0  0
  8  1  1  0  0  0  0
  9 11  1  0  0  0  0
  9 16  1  0  0  0  0
 10  2  2  0  0  0  0
 11  8  2  0  0  0  0
 12  4  1  0  0  0  0
 13 14  2  0  0  0  0
 15  4  2  0  0  0  0
 15 10  1  0  0  0  0
 16  7  1  0  0  0  0
 16 12  2  0  0  0  0
 17 20  2  0  0  0  0
 18 17  1  0  0  0  0
 18 19  1  0  0  0  0
 21  9  1  0  0  0  0
 22 25  2  0  0  0  0
 24 22  1  0  0  0  0
 24 26  1  0  0  0  0
 25 23  1  0  0  0  0
 25 21  1  0  0  0  0
 26 23  2  0  0  0  0
 28 26  1  0  0  0  0
 28 27  2  0  0  0  0
 30 29  1  0  0  0  0
 31 30  1  0  0  0  0
 34 33  1  6  0  0  0
 34 32  1  0  0  0  0
 34 31  1  0  0  0  0
 35 34  2  0  0  0  0
M  END
>  <MODEL>
4

>  <REMARK>
 VINA RESULT:      -8.0      4.319      7.518
  Name = 
  8 active torsions:
  status: ('A' for Active; 'I' for Inactive)
    1  A    between atoms: C_2  and  C_30
    2  A    between atoms: C_2  and  C_32
    3  A    between atoms: C_5  and  C_7
    4  A    between atoms: C_8  and  C_30
    5  A    between atoms: C_14  and  C_19
    6  A    between atoms: C_17  and  C_22
    7  A    between atoms: N_20  and  C_22
    8  A    between atoms: P_23  and  C_32
                            x       y       z     vdW  Elec       q    Type
                         _______ _______ _______ _____ _____    ______ ____

>  <TORSDO>
F 8

$$$$
=
 OpenBabel11042411523D

 35 39  0  0  0  0  0  0  0  0999 V2000
  185.2710  178.2130  142.2040 C   0  0  0  0  0  3  0  0  0  0  0  0
  189.7990  177.2010  145.7840 C   0  0  0  0  0  0  0  0  0  0  0  0
  184.2360  178.5340  141.3050 C   0  0  0  0  0  0  0  0  0  0  0  0
  188.3050  177.6410  143.5320 C   0  0  0  0  0  0  0  0  0  0  0  0
  184.5160  178.7680  139.9380 C   0  0  0  0  0  3  0  0  0  0  0  0
  185.8300  178.6770  139.4420 C   0  0  0  0  0  3  0  0  0  0  0  0
  190.2790  177.7580  141.8730 S   0  0  0  0  0  0  0  0  0  0  0  0
  186.5580  178.1230  141.6860 C   0  0  0  0  0  0  0  0  0  0  0  0
  188.1720  178.2390  140.0920 N   0  0  0  0  0  0  0  0  0  0  0  0
  190.4320  177.3280  144.5790 N   0  0  0  0  0  0  0  0  0  0  0  0
  186.8420  178.3470  140.3440 C   0  0  0  0  0  0  0  0  0  0  0  0
  187.7720  177.8760  142.2780 C   0  0  0  0  0  0  0  0  0  0  0  0
  187.6650  177.5170  144.7570 C   0  0  0  0  0  3  0  0  0  0  0  0
  188.4330  177.2970  145.8610 N   0  0  0  0  0  0  0  0  0  0  0  0
  189.6910  177.5450  143.4670 C   0  0  0  0  0  0  0  0  0  0  0  0
  188.7030  177.9570  141.2970 C   0  0  0  0  0  0  0  0  0  0  0  0
  190.5840  176.9620  147.0030 C   0  0  0  0  0  0  0  0  0  0  0  0
  191.7520  176.1400  146.9490 N   0  0  0  0  0  2  0  0  0  0  0  0
  192.5650  175.8810  148.1260 C   0  0  0  0  0  1  0  0  0  0  0  0
  190.2270  177.4840  148.0940 O   0  0  0  0  0  0  0  0  0  0  0  0
  188.8800  178.5000  138.8460 C   0  0  0  0  0  2  0  0  0  0  0  0
  190.6340  176.8050  138.1860 C   0  0  0  0  0  3  0  0  0  0  0  0
  188.3940  176.3620  137.5790 C   0  0  0  0  0  3  0  0  0  0  0  0
  190.6640  175.3400  137.3600 S   0  0  0  0  0  0  0  0  0  0  0  0
  189.3040  177.2180  138.2160 C   0  0  0  0  0  0  0  0  0  0  0  0
  189.0150  175.2460  137.0470 C   0  0  0  0  0  0  0  0  0  0  0  0
  188.1280  173.0310  136.8430 N   0  0  0  0  0  2  0  0  0  0  0  0
  188.3360  174.1860  136.3050 C   0  0  0  0  0  3  0  0  0  0  0  0
  182.8370  178.6570  141.7990 C   0  0  0  0  0  2  0  0  0  0  0  0
  182.8290  179.2150  143.2120 C   0  0  0  0  0  2  0  0  0  0  0  0
  181.7120  178.5870  144.0300 C   0  0  0  0  0  2  0  0  0  0  0  0
  180.0580  180.6200  142.8400 O   0  0  0  0  0  0  0  0  0  0  0  0
  179.7110  177.9290  141.9220 C   0  0  0  0  0  1  0  0  0  0  0  0
  180.0800  179.0030  143.3390 P   0  0  1  0  0  0  0  0  0  0  0  0
  179.0260  178.7960  144.4030 O   0  0  0  0  0  1  0  0  0  0  0  0
  2 14  1  0  0  0  0
  2 17  1  0  0  0  0
  3 29  1  0  0  0  0
  3  1  2  0  0  0  0
  4 13  1  0  0  0  0
  5  3  1  0  0  0  0
  6  5  2  0  0  0  0
  6 11  1  0  0  0  0
  7 15  1  0  0  0  0
  8  1  1  0  0  0  0
  8 12  1  0  0  0  0
  9 11  1  0  0  0  0
  9 16  1  0  0  0  0
 10  2  2  0  0  0  0
 11  8  2  0  0  0  0
 12  4  1  0  0  0  0
 13 14  2  0  0  0  0
 15  4  2  0  0  0  0
 15 10  1  0  0  0  0
 16  7  1  0  0  0  0
 16 12  2  0  0  0  0
 17 20  2  0  0  0  0
 18 17  1  0  0  0  0
 18 19  1  0  0  0  0
 21  9  1  0  0  0  0
 22 25  2  0  0  0  0
 23 25  1  0  0  0  0
 24 22  1  0  0  0  0
 25 21  1  0  0  0  0
 26 24  1  0  0  0  0
 26 23  2  0  0  0  0
 28 27  2  0  0  0  0
 28 26  1  0  0  0  0
 29 30  1  0  0  0  0
 30 31  1  0  0  0  0
 32 34  2  0  0  0  0
 34 33  1  6  0  0  0
 34 31  1  0  0  0  0
 34 35  1  0  0  0  0
M  END
>  <MODEL>
5

>  <REMARK>
 VINA RESULT:      -7.9      4.685      7.223
  Name = 
  8 active torsions:
  status: ('A' for Active; 'I' for Inactive)
    1  A    between atoms: C_2  and  C_30
    2  A    between atoms: C_2  and  C_32
    3  A    between atoms: C_5  and  C_7
    4  A    between atoms: C_8  and  C_30
    5  A    between atoms: C_14  and  C_19
    6  A    between atoms: C_17  and  C_22
    7  A    between atoms: N_20  and  C_22
    8  A    between atoms: P_23  and  C_32
                            x       y       z     vdW  Elec       q    Type
                         _______ _______ _______ _____ _____    ______ ____

>  <TORSDO>
F 8

$$$$
=
 OpenBabel11042411523D

 35 39  0  0  0  0  0  0  0  0999 V2000
  188.5160  177.7690  142.7840 C   0  0  0  0  0  3  0  0  0  0  0  0
  182.7670  178.9050  142.7930 C   0  0  0  0  0  0  0  0  0  0  0  0
  189.8810  177.4280  142.7080 C   0  0  0  0  0  0  0  0  0  0  0  0
  185.3470  178.5260  141.9590 C   0  0  0  0  0  0  0  0  0  0  0  0
  190.5350  177.3540  141.4570 C   0  0  0  0  0  3  0  0  0  0  0  0
  189.8460  177.6270  140.2610 C   0  0  0  0  0  3  0  0  0  0  0  0
  184.8910  178.7720  139.4310 S   0  0  0  0  0  0  0  0  0  0  0  0
  187.8610  178.0410  141.5890 C   0  0  0  0  0  0  0  0  0  0  0  0
  187.6400  178.2440  139.3370 N   0  0  0  0  0  0  0  0  0  0  0  0
  183.0490  178.9580  141.4570 N   0  0  0  0  0  0  0  0  0  0  0  0
  188.4980  177.9740  140.3550 C   0  0  0  0  0  0  0  0  0  0  0  0
  186.5550  178.3560  141.3070 C   0  0  0  0  0  0  0  0  0  0  0  0
  185.0570  178.4660  143.3150 C   0  0  0  0  0  3  0  0  0  0  0  0
  183.7650  178.6610  143.7020 N   0  0  0  0  0  0  0  0  0  0  0  0
  184.3270  178.7720  141.0470 C   0  0  0  0  0  0  0  0  0  0  0  0
  186.4660  178.4650  139.9600 C   0  0  0  0  0  0  0  0  0  0  0  0
  181.3890  179.1080  143.2590 C   0  0  0  0  0  0  0  0  0  0  0  0
  180.5330  180.0260  142.5760 N   0  0  0  0  0  2  0  0  0  0  0  0
  179.1600  180.2560  142.9950 C   0  0  0  0  0  1  0  0  0  0  0  0
  180.9630  178.4710  144.2620 O   0  0  0  0  0  0  0  0  0  0  0  0
  187.8880  178.1760  137.9030 C   0  0  0  0  0  2  0  0  0  0  0  0
  186.5170  176.2620  136.9870 C   0  0  0  0  0  3  0  0  0  0  0  0
  188.8080  175.8700  137.4060 C   0  0  0  0  0  3  0  0  0  0  0  0
  186.7910  174.6560  136.5690 S   0  0  0  0  0  0  0  0  0  0  0  0
  187.7380  176.7750  137.4200 C   0  0  0  0  0  0  0  0  0  0  0  0
  188.4300  174.6230  136.9410 C   0  0  0  0  0  0  0  0  0  0  0  0
  190.5680  173.5620  137.1380 N   0  0  0  0  0  2  0  0  0  0  0  0
  189.3170  173.4670  136.8320 C   0  0  0  0  0  3  0  0  0  0  0  0
  190.6370  177.1150  143.9520 C   0  0  0  0  0  2  0  0  0  0  0  0
  190.1120  177.9530  145.1070 C   0  0  0  0  0  2  0  0  0  0  0  0
  190.1460  177.1600  146.4020 C   0  0  0  0  0  2  0  0  0  0  0  0
  188.9140  178.6900  148.5060 O   0  0  0  0  0  1  0  0  0  0  0  0
  187.2630  177.9100  146.2990 C   0  0  0  0  0  1  0  0  0  0  0  0
  188.6420  177.4490  147.3870 P   0  0  1  0  0  0  0  0  0  0  0  0
  188.2840  176.1800  148.1280 O   0  0  0  0  0  0  0  0  0  0  0  0
  2 17  1  0  0  0  0
  2 14  1  0  0  0  0
  3  1  1  0  0  0  0
  3 29  1  0  0  0  0
  4 13  1  0  0  0  0
  5  3  2  0  0  0  0
  6 11  2  0  0  0  0
  6  5  1  0  0  0  0
  7 16  1  0  0  0  0
  7 15  1  0  0  0  0
  8  1  2  0  0  0  0
  9 16  1  0  0  0  0
  9 11  1  0  0  0  0
 10  2  2  0  0  0  0
 11  8  1  0  0  0  0
 12  8  1  0  0  0  0
 12  4  1  0  0  0  0
 13 14  2  0  0  0  0
 15 10  1  0  0  0  0
 15  4  2  0  0  0  0
 16 12  2  0  0  0  0
 17 20  2  0  0  0  0
 18 19  1  0  0  0  0
 18 17  1  0  0  0  0
 21  9  1  0  0  0  0
 22 25  2  0  0  0  0
 23 25  1  0  0  0  0
 24 26  1  0  0  0  0
 24 22  1  0  0  0  0
 25 21  1  0  0  0  0
 26 23  2  0  0  0  0
 28 26  1  0  0  0  0
 28 27  2  0  0  0  0
 29 30  1  0  0  0  0
 30 31  1  0  0  0  0
 31 34  1  0  0  0  0
 34 33  1  6  0  0  0
 34 35  2  0  0  0  0
 34 32  1  0  0  0  0
M  END
>  <MODEL>
6

>  <REMARK>
 VINA RESULT:      -7.9      3.411      6.860
  Name = 
  8 active torsions:
  status: ('A' for Active; 'I' for Inactive)
    1  A    between atoms: C_2  and  C_30
    2  A    between atoms: C_2  and  C_32
    3  A    between atoms: C_5  and  C_7
    4  A    between atoms: C_8  and  C_30
    5  A    between atoms: C_14  and  C_19
    6  A    between atoms: C_17  and  C_22
    7  A    between atoms: N_20  and  C_22
    8  A    between atoms: P_23  and  C_32
                            x       y       z     vdW  Elec       q    Type
                         _______ _______ _______ _____ _____    ______ ____

>  <TORSDO>
F 8

$$$$
=
 OpenBabel11042411523D

 35 39  0  0  0  0  0  0  0  0999 V2000
  187.0400  177.7310  145.2900 C   0  0  0  0  0  3  0  0  0  0  0  0
  188.6860  177.7860  139.6660 C   0  0  0  0  0  0  0  0  0  0  0  0
  186.6170  177.8150  146.6310 C   0  0  0  0  0  0  0  0  0  0  0  0
  187.1970  178.0540  141.9490 C   0  0  0  0  0  0  0  0  0  0  0  0
  185.3570  178.3710  146.9540 C   0  0  0  0  0  3  0  0  0  0  0  0
  184.4940  178.8430  145.9480 C   0  0  0  0  0  3  0  0  0  0  0  0
  185.1410  179.1580  140.8470 S   0  0  0  0  0  0  0  0  0  0  0  0
  186.1660  178.1990  144.3170 C   0  0  0  0  0  0  0  0  0  0  0  0
  184.2740  179.1620  143.5090 N   0  0  0  0  0  0  0  0  0  0  0  0
  187.4390  178.3410  139.5870 N   0  0  0  0  0  0  0  0  0  0  0  0
  184.9240  178.7420  144.6260 C   0  0  0  0  0  0  0  0  0  0  0  0
  186.2780  178.3010  142.9520 C   0  0  0  0  0  0  0  0  0  0  0  0
  188.4660  177.4960  142.0280 C   0  0  0  0  0  3  0  0  0  0  0  0
  189.1830  177.3730  140.8750 N   0  0  0  0  0  0  0  0  0  0  0  0
  186.7050  178.4710  140.7170 C   0  0  0  0  0  0  0  0  0  0  0  0
  185.1350  178.8800  142.5130 C   0  0  0  0  0  0  0  0  0  0  0  0
  189.4970  177.6320  138.4510 C   0  0  0  0  0  0  0  0  0  0  0  0
  190.4580  176.5770  138.3640 N   0  0  0  0  0  2  0  0  0  0  0  0
  191.2790  176.3800  137.1810 C   0  0  0  0  0  1  0  0  0  0  0  0
  189.3450  178.4310  137.4870 O   0  0  0  0  0  0  0  0  0  0  0  0
  183.0060  179.8740  143.4160 C   0  0  0  0  0  2  0  0  0  0  0  0
  180.9110  178.4650  143.5160 C   0  0  0  0  0  3  0  0  0  0  0  0
  182.0200  178.6380  141.4380 C   0  0  0  0  0  3  0  0  0  0  0  0
  180.0170  177.5300  142.4400 S   0  0  0  0  0  0  0  0  0  0  0  0
  181.9710  179.0020  142.7900 C   0  0  0  0  0  0  0  0  0  0  0  0
  180.9710  177.8070  141.0840 C   0  0  0  0  0  0  0  0  0  0  0  0
  179.5960  176.8390  139.3800 N   0  0  0  0  0  2  0  0  0  0  0  0
  180.7640  177.2420  139.7530 C   0  0  0  0  0  3  0  0  0  0  0  0
  187.5120  177.3410  147.7220 C   0  0  0  0  0  2  0  0  0  0  0  0
  188.9670  177.5420  147.3290 C   0  0  0  0  0  2  0  0  0  0  0  0
  189.7430  176.2430  147.4660 C   0  0  0  0  0  2  0  0  0  0  0  0
  192.1610  174.9440  146.5990 O   0  0  0  0  0  0  0  0  0  0  0  0
  191.5470  177.4970  145.4530 C   0  0  0  0  0  1  0  0  0  0  0  0
  191.4720  176.4530  146.9370 P   0  0  1  0  0  0  0  0  0  0  0  0
  192.2520  177.1180  148.0490 O   0  0  0  0  0  1  0  0  0  0  0  0
  1  3  1  0  0  0  0
  2 14  1  0  0  0  0
  3  5  2  0  0  0  0
  3 29  1  0  0  0  0
  4 13  1  0  0  0  0
  4 12  1  0  0  0  0
  6  5  1  0  0  0  0
  7 16  1  0  0  0  0
  8 11  1  0  0  0  0
  8  1  2  0  0  0  0
  9 11  1  0  0  0  0
 10  2  2  0  0  0  0
 10 15  1  0  0  0  0
 11  6  2  0  0  0  0
 12  8  1  0  0  0  0
 14 13  2  0  0  0  0
 15  7  1  0  0  0  0
 15  4  2  0  0  0  0
 16 12  2  0  0  0  0
 16  9  1  0  0  0  0
 17  2  1  0  0  0  0
 18 17  1  0  0  0  0
 19 18  1  0  0  0  0
 20 17  2  0  0  0  0
 21  9  1  0  0  0  0
 23 25  1  0  0  0  0
 24 22  1  0  0  0  0
 25 21  1  0  0  0  0
 25 22  2  0  0  0  0
 26 23  2  0  0  0  0
 26 24  1  0  0  0  0
 27 28  2  0  0  0  0
 28 26  1  0  0  0  0
 30 31  1  0  0  0  0
 30 29  1  0  0  0  0
 32 34  2  0  0  0  0
 34 33  1  6  0  0  0
 34 31  1  0  0  0  0
 34 35  1  0  0  0  0
M  END
>  <MODEL>
7

>  <REMARK>
 VINA RESULT:      -7.9      2.112      2.722
  Name = 
  8 active torsions:
  status: ('A' for Active; 'I' for Inactive)
    1  A    between atoms: C_2  and  C_30
    2  A    between atoms: C_2  and  C_32
    3  A    between atoms: C_5  and  C_7
    4  A    between atoms: C_8  and  C_30
    5  A    between atoms: C_14  and  C_19
    6  A    between atoms: C_17  and  C_22
    7  A    between atoms: N_20  and  C_22
    8  A    between atoms: P_23  and  C_32
                            x       y       z     vdW  Elec       q    Type
                         _______ _______ _______ _____ _____    ______ ____

>  <TORSDO>
F 8

$$$$
=
 OpenBabel11042411523D

 35 39  0  0  0  0  0  0  0  0999 V2000
  188.6910  177.8260  142.7510 C   0  0  0  0  0  3  0  0  0  0  0  0
  182.9350  178.9250  142.7510 C   0  0  0  0  0  0  0  0  0  0  0  0
  190.0570  177.4900  142.6810 C   0  0  0  0  0  0  0  0  0  0  0  0
  185.5110  178.5220  141.9150 C   0  0  0  0  0  0  0  0  0  0  0  0
  190.7030  177.3580  141.4300 C   0  0  0  0  0  3  0  0  0  0  0  0
  190.0020  177.5680  140.2280 C   0  0  0  0  0  3  0  0  0  0  0  0
  185.0340  178.6390  139.3820 S   0  0  0  0  0  0  0  0  0  0  0  0
  188.0250  178.0340  141.5490 C   0  0  0  0  0  0  0  0  0  0  0  0
  187.7850  178.1240  139.2930 N   0  0  0  0  0  0  0  0  0  0  0  0
  183.2070  178.9140  141.4110 N   0  0  0  0  0  0  0  0  0  0  0  0
  188.6530  177.9110  140.3150 C   0  0  0  0  0  0  0  0  0  0  0  0
  186.7150  178.3270  141.2630 C   0  0  0  0  0  0  0  0  0  0  0  0
  185.2320  178.5270  143.2750 C   0  0  0  0  0  3  0  0  0  0  0  0
  183.9410  178.7320  143.6620 N   0  0  0  0  0  0  0  0  0  0  0  0
  184.4820  178.7150  141.0010 C   0  0  0  0  0  0  0  0  0  0  0  0
  186.6150  178.3680  139.9130 C   0  0  0  0  0  0  0  0  0  0  0  0
  181.5590  179.1420  143.2170 C   0  0  0  0  0  0  0  0  0  0  0  0
  180.6610  179.9400  142.4420 N   0  0  0  0  0  2  0  0  0  0  0  0
  179.2880  180.1770  142.8590 C   0  0  0  0  0  1  0  0  0  0  0  0
  181.1730  178.6250  144.3010 O   0  0  0  0  0  0  0  0  0  0  0  0
  188.0230  177.9870  137.8620 C   0  0  0  0  0  2  0  0  0  0  0  0
  189.0000  175.7470  137.2190 C   0  0  0  0  0  3  0  0  0  0  0  0
  186.6470  175.9560  137.2390 C   0  0  0  0  0  3  0  0  0  0  0  0
  188.4020  174.2460  136.7520 S   0  0  0  0  0  0  0  0  0  0  0  0
  187.8930  176.5600  137.4520 C   0  0  0  0  0  0  0  0  0  0  0  0
  186.7700  174.6360  136.8420 C   0  0  0  0  0  0  0  0  0  0  0  0
  185.4350  172.6830  137.2150 N   0  0  0  0  0  2  0  0  0  0  0  0
  185.6520  173.7510  136.5230 C   0  0  0  0  0  3  0  0  0  0  0  0
  190.8250  177.2430  143.9330 C   0  0  0  0  0  2  0  0  0  0  0  0
  190.1790  177.9790  145.0960 C   0  0  0  0  0  2  0  0  0  0  0  0
  190.1840  177.1150  146.3460 C   0  0  0  0  0  2  0  0  0  0  0  0
  188.9890  178.6310  148.4810 O   0  0  0  0  0  1  0  0  0  0  0  0
  187.3080  177.8920  146.2830 C   0  0  0  0  0  1  0  0  0  0  0  0
  188.6950  177.4060  147.3510 P   0  0  1  0  0  0  0  0  0  0  0  0
  188.3330  176.1320  148.0810 O   0  0  0  0  0  0  0  0  0  0  0  0
  2 17  1  0  0  0  0
  2 14  1  0  0  0  0
  3  1  1  0  0  0  0
  3 29  1  0  0  0  0
  4 13  1  0  0  0  0
  5  3  2  0  0  0  0
  6 11  2  0  0  0  0
  6  5  1  0  0  0  0
  7 16  1  0  0  0  0
  7 15  1  0  0  0  0
  8  1  2  0  0  0  0
  9 16  1  0  0  0  0
  9 11  1  0  0  0  0
 10  2  2  0  0  0  0
 11  8  1  0  0  0  0
 12  8  1  0  0  0  0
 12  4  1  0  0  0  0
 13 14  2  0  0  0  0
 15 10  1  0  0  0  0
 15  4  2  0  0  0  0
 16 12  2  0  0  0  0
 17 20  2  0  0  0  0
 18 19  1  0  0  0  0
 18 17  1  0  0  0  0
 21  9  1  0  0  0  0
 22 25  2  0  0  0  0
 23 25  1  0  0  0  0
 24 26  1  0  0  0  0
 24 22  1  0  0  0  0
 25 21  1  0  0  0  0
 26 23  2  0  0  0  0
 28 26  1  0  0  0  0
 28 27  2  0  0  0  0
 29 30  1  0  0  0  0
 30 31  1  0  0  0  0
 31 34  1  0  0  0  0
 34 33  1  6  0  0  0
 34 35  2  0  0  0  0
 34 32  1  0  0  0  0
M  END
>  <MODEL>
8

>  <REMARK>
 VINA RESULT:      -7.6      3.456      6.558
  Name = 
  8 active torsions:
  status: ('A' for Active; 'I' for Inactive)
    1  A    between atoms: C_2  and  C_30
    2  A    between atoms: C_2  and  C_32
    3  A    between atoms: C_5  and  C_7
    4  A    between atoms: C_8  and  C_30
    5  A    between atoms: C_14  and  C_19
    6  A    between atoms: C_17  and  C_22
    7  A    between atoms: N_20  and  C_22
    8  A    between atoms: P_23  and  C_32
                            x       y       z     vdW  Elec       q    Type
                         _______ _______ _______ _____ _____    ______ ____

>  <TORSDO>
F 8

$$$$
=
 OpenBabel11042411523D

 35 39  0  0  0  0  0  0  0  0999 V2000
  185.7680  178.2340  142.7120 C   0  0  0  0  0  3  0  0  0  0  0  0
  190.3910  177.1120  146.1340 C   0  0  0  0  0  0  0  0  0  0  0  0
  184.7110  178.5800  141.8480 C   0  0  0  0  0  0  0  0  0  0  0  0
  188.8280  177.5710  143.9330 C   0  0  0  0  0  0  0  0  0  0  0  0
  184.9470  178.7820  140.4680 C   0  0  0  0  0  3  0  0  0  0  0  0
  186.2360  178.6350  139.9240 C   0  0  0  0  0  3  0  0  0  0  0  0
  190.7390  177.5900  142.1990 S   0  0  0  0  0  0  0  0  0  0  0  0
  187.0300  178.0890  142.1480 C   0  0  0  0  0  0  0  0  0  0  0  0
  188.5840  178.1210  140.4910 N   0  0  0  0  0  0  0  0  0  0  0  0
  190.9810  177.1980  144.9040 N   0  0  0  0  0  0  0  0  0  0  0  0
  187.2690  178.2820  140.7920 C   0  0  0  0  0  0  0  0  0  0  0  0
  188.2560  177.8070  142.6970 C   0  0  0  0  0  0  0  0  0  0  0  0
  188.2320  177.4910  145.1840 C   0  0  0  0  0  3  0  0  0  0  0  0
  189.0340  177.2590  146.2620 N   0  0  0  0  0  0  0  0  0  0  0  0
  190.2060  177.4240  143.8180 C   0  0  0  0  0  0  0  0  0  0  0  0
  189.1510  177.8390  141.6800 C   0  0  0  0  0  0  0  0  0  0  0  0
  191.2130  176.8640  147.3260 C   0  0  0  0  0  0  0  0  0  0  0  0
  192.2590  175.8900  147.2810 N   0  0  0  0  0  2  0  0  0  0  0  0
  193.1030  175.6140  148.4310 C   0  0  0  0  0  1  0  0  0  0  0  0
  190.9960  177.5110  148.3870 O   0  0  0  0  0  0  0  0  0  0  0  0
  189.2520  178.3370  139.2150 C   0  0  0  0  0  2  0  0  0  0  0  0
  190.6150  176.3750  138.3910 C   0  0  0  0  0  3  0  0  0  0  0  0
  188.3250  176.4420  137.8140 C   0  0  0  0  0  3  0  0  0  0  0  0
  190.3350  175.0000  137.4640 S   0  0  0  0  0  0  0  0  0  0  0  0
  189.3980  177.0450  138.4850 C   0  0  0  0  0  0  0  0  0  0  0  0
  188.6980  175.2650  137.1890 C   0  0  0  0  0  0  0  0  0  0  0  0
  186.5660  174.2860  136.7130 N   0  0  0  0  0  2  0  0  0  0  0  0
  187.8090  174.4230  136.3920 C   0  0  0  0  0  3  0  0  0  0  0  0
  183.3370  178.7610  142.3920 C   0  0  0  0  0  2  0  0  0  0  0  0
  182.3080  178.2610  141.3910 C   0  0  0  0  0  2  0  0  0  0  0  0
  180.9480  178.8810  141.6660 C   0  0  0  0  0  2  0  0  0  0  0  0
  181.6180  180.2550  139.2270 O   0  0  0  0  0  0  0  0  0  0  0  0
  179.2160  178.6950  139.2490 C   0  0  0  0  0  1  0  0  0  0  0  0
  180.3250  179.7690  140.2050 P   0  0  1  0  0  0  0  0  0  0  0  0
  179.5580  180.9910  140.6590 O   0  0  0  0  0  1  0  0  0  0  0  0
  2 14  1  0  0  0  0
  2 17  1  0  0  0  0
  3 29  1  0  0  0  0
  3  1  2  0  0  0  0
  4 13  1  0  0  0  0
  5  3  1  0  0  0  0
  6  5  2  0  0  0  0
  6 11  1  0  0  0  0
  7 15  1  0  0  0  0
  8 12  1  0  0  0  0
  8  1  1  0  0  0  0
  9 11  1  0  0  0  0
  9 16  1  0  0  0  0
 10  2  2  0  0  0  0
 11  8  2  0  0  0  0
 12  4  1  0  0  0  0
 13 14  2  0  0  0  0
 15  4  2  0  0  0  0
 15 10  1  0  0  0  0
 16  7  1  0  0  0  0
 16 12  2  0  0  0  0
 17 20  2  0  0  0  0
 18 17  1  0  0  0  0
 18 19  1  0  0  0  0
 21  9  1  0  0  0  0
 22 25  2  0  0  0  0
 23 25  1  0  0  0  0
 24 22  1  0  0  0  0
 25 21  1  0  0  0  0
 26 24  1  0  0  0  0
 26 23  2  0  0  0  0
 28 27  2  0  0  0  0
 28 26  1  0  0  0  0
 30 31  1  0  0  0  0
 30 29  1  0  0  0  0
 32 34  2  0  0  0  0
 34 33  1  6  0  0  0
 34 35  1  0  0  0  0
 34 31  1  0  0  0  0
M  END
>  <MODEL>
9

>  <REMARK>
 VINA RESULT:      -7.5      4.875      7.501
  Name = 
  8 active torsions:
  status: ('A' for Active; 'I' for Inactive)
    1  A    between atoms: C_2  and  C_30
    2  A    between atoms: C_2  and  C_32
    3  A    between atoms: C_5  and  C_7
    4  A    between atoms: C_8  and  C_30
    5  A    between atoms: C_14  and  C_19
    6  A    between atoms: C_17  and  C_22
    7  A    between atoms: N_20  and  C_22
    8  A    between atoms: P_23  and  C_32
                            x       y       z     vdW  Elec       q    Type
                         _______ _______ _______ _____ _____    ______ ____

>  <TORSDO>
F 8

$$$$
