=
 OpenBabel11042412073D

 37 38  0  0  1  0  0  0  0  0999 V2000
  189.7050  177.6570  141.7830 C   0  0  0  0  0  2  0  0  0  0  0  0
  190.4840  175.6160  142.9140 C   0  0  0  0  0  1  0  0  0  0  0  0
  188.1630  176.3420  143.2260 C   0  0  0  0  0  1  0  0  0  0  0  0
  189.5940  176.8360  143.0700 C   0  0  0  0  0  0  0  0  0  0  0  0
  190.7520  178.9570  143.9810 C   0  0  0  0  0  1  0  0  0  0  0  0
  189.9960  177.6730  144.3080 C   0  0  1  0  0  3  0  0  0  0  0  0
  188.8860  177.6200  146.6360 C   0  0  0  0  0  0  0  0  0  0  0  0
  188.8880  177.9210  145.2350 N   0  0  0  0  0  2  0  0  0  0  0  0
  189.8640  177.0370  147.1740 O   0  0  0  0  0  0  0  0  0  0  0  0
  187.6880  177.9490  147.4610 C   0  0  0  0  0  2  0  0  0  0  0  0
  186.3990  177.7460  146.6700 C   0  0  0  0  0  2  0  0  0  0  0  0
  185.6670  179.0600  146.4420 C   0  0  0  0  0  2  0  0  0  0  0  0
  182.6140  178.8340  144.4360 O   0  0  0  0  0  0  0  0  0  0  0  0
  183.8240  179.0420  144.7140 C   0  0  0  0  0  0  0  0  0  0  0  0
  184.2900  178.8100  146.0440 N   0  0  0  0  0  2  0  0  0  0  0  0
  184.7470  179.5470  143.6510 C   0  0  0  0  0  2  0  0  0  0  0  0
  185.0720  179.4850  141.3020 O   0  0  0  0  0  0  0  0  0  0  0  0
  184.5460  178.7760  142.3580 C   0  0  0  0  0  3  0  0  0  0  0  0
  185.7740  178.4670  141.8220 O   0  0  0  0  0  0  0  0  0  0  0  0
  191.0640  177.0990  140.6950 S   0  0  0  0  0  0  0  0  0  0  0  0
  189.9620  176.9890  139.2410 C   0  0  2  0  0  3  0  0  0  0  0  0
  192.0410  174.8800  136.7480 C   0  0  0  0  0  0  0  0  0  0  0  0
  192.2490  176.7400  138.1900 C   0  0  0  0  0  2  0  0  0  0  0  0
  190.3870  174.9560  137.4060 S   0  0  0  0  0  0  0  0  0  0  0  0
  192.3790  173.8970  135.6780 C   0  0  0  0  0  1  0  0  0  0  0  0
  192.8740  175.8070  137.2160 C   0  0  0  0  0  0  0  0  0  0  0  0
  190.7420  176.6560  137.9670 C   0  0  1  0  0  3  0  0  0  0  0  0
  194.6390  176.7750  135.9300 O   0  0  0  0  0  0  0  0  0  0  0  0
  194.2950  175.9650  136.8350 C   0  0  0  0  0  0  0  0  0  0  0  0
  195.2610  175.1930  137.4850 O   0  0  0  0  0  0  0  0  0  0  0  0
  195.1140  172.8830  138.1070 C   0  0  0  0  0  1  0  0  0  0  0  0
  194.9280  174.3190  138.5520 C   0  0  0  0  0  2  0  0  0  0  0  0
  189.1780  178.2890  139.0820 C   0  0  0  0  0  2  0  0  0  0  0  0
  188.7560  178.4540  137.7600 O   0  0  0  0  0  0  0  0  0  0  0  0
  186.8630  176.5040  137.1850 O   0  0  0  0  0  0  0  0  0  0  0  0
  186.0420  178.7390  138.2740 O   0  0  0  0  0  0  0  0  0  0  0  0
  187.1640  177.8790  137.7400 P   0  0  0  0  0  0  0  0  0  0  0  0
  1  4  1  0  0  0  0
  2  4  1  0  0  0  0
  4  3  1  0  0  0  0
  4  6  1  0  0  0  0
  6  5  1  6  0  0  0
  6  8  1  0  0  0  0
  7  9  2  0  0  0  0
  7 10  1  0  0  0  0
  8  7  1  0  0  0  0
 11 10  1  0  0  0  0
 12 11  1  0  0  0  0
 13 14  2  0  0  0  0
 14 15  1  0  0  0  0
 15 12  1  0  0  0  0
 16 14  1  0  0  0  0
 17 19  1  0  0  0  0
 17 18  1  0  0  0  0
 18 16  1  0  0  0  0
 19 18  1  0  0  0  0
 20  1  1  0  0  0  0
 21 33  1  6  0  0  0
 21 20  1  0  0  0  0
 22 26  2  0  0  0  0
 22 24  1  0  0  0  0
 24 27  1  0  0  0  0
 25 22  1  0  0  0  0
 26 23  1  0  0  0  0
 27 23  1  0  0  0  0
 27 21  1  1  0  0  0
 28 29  2  0  0  0  0
 29 26  1  0  0  0  0
 29 30  1  0  0  0  0
 30 32  1  0  0  0  0
 31 32  1  0  0  0  0
 34 33  1  0  0  0  0
 35 37  2  0  0  0  0
 37 34  1  0  0  0  0
 37 36  2  0  0  0  0
M  END
>  <MODEL>
1

>  <REMARK>
 VINA RESULT:      -7.2      0.000      0.000
  Name = 
  18 active torsions:
  status: ('A' for Active; 'I' for Inactive)
    1  A    between atoms: C_1  and  C_28
    2  A    between atoms: S_4  and  C_13
    3  A    between atoms: S_4  and  C_34
    4  A    between atoms: C_6  and  C_10
    5  A    between atoms: C_6  and  C_22
    6  A    between atoms: N_7  and  C_32
    7  A    between atoms: C_9  and  C_21
    8  A    between atoms: C_9  and  N_31
    9  A    between atoms: O_11  and  C_36
   10  A    between atoms: O_11  and  C_37
   11  A    between atoms: C_13  and  C_30
   12  A    between atoms: C_21  and  C_28
   13  A    between atoms: C_24  and  C_36
   14  A    between atoms: C_25  and  C_34
   15  A    between atoms: P_26  and  O_33
   16  A    between atoms: C_30  and  C_32
   17  A    between atoms: O_33  and  C_35
   18  A    between atoms: C_34  and  C_35
                            x       y       z     vdW  Elec       q    Type
                         _______ _______ _______ _____ _____    ______ ____

>  <TORSDO>
F 18

$$$$
=
 OpenBabel11042412073D

 37 38  0  0  1  0  0  0  0  0999 V2000
  188.2530  177.2990  139.8730 C   0  0  0  0  0  2  0  0  0  0  0  0
  190.6550  177.3460  139.3460 C   0  0  0  0  0  1  0  0  0  0  0  0
  189.1760  179.0150  138.3270 C   0  0  0  0  0  1  0  0  0  0  0  0
  189.2700  177.5590  138.7600 C   0  0  0  0  0  0  0  0  0  0  0  0
  189.7470  175.2940  137.6140 C   0  0  0  0  0  1  0  0  0  0  0  0
  189.0230  176.6360  137.5440 C   0  0  1  0  0  3  0  0  0  0  0  0
  186.9910  176.8140  135.9650 C   0  0  0  0  0  0  0  0  0  0  0  0
  187.6050  176.4670  137.2110 N   0  0  0  0  0  2  0  0  0  0  0  0
  187.6520  177.3710  135.0510 O   0  0  0  0  0  0  0  0  0  0  0  0
  185.5340  176.5630  135.7640 C   0  0  0  0  0  2  0  0  0  0  0  0
  184.8870  176.0190  137.0340 C   0  0  0  0  0  2  0  0  0  0  0  0
  183.7780  176.9340  137.5350 C   0  0  0  0  0  2  0  0  0  0  0  0
  184.6090  179.6900  139.7950 O   0  0  0  0  0  0  0  0  0  0  0  0
  184.1200  178.5970  139.4060 C   0  0  0  0  0  0  0  0  0  0  0  0
  184.3410  178.1690  138.0610 N   0  0  0  0  0  2  0  0  0  0  0  0
  183.3010  177.7780  140.3510 C   0  0  0  0  0  2  0  0  0  0  0  0
  181.2880  178.5170  141.3650 O   0  0  0  0  0  0  0  0  0  0  0  0
  181.8230  178.0770  140.1750 C   0  0  0  0  0  3  0  0  0  0  0  0
  181.6010  179.4130  140.4170 O   0  0  0  0  0  0  0  0  0  0  0  0
  188.5450  178.3170  141.3610 S   0  0  0  0  0  0  0  0  0  0  0  0
  188.4570  176.8670  142.4700 C   0  0  2  0  0  3  0  0  0  0  0  0
  185.5880  178.5130  144.4800 C   0  0  0  0  0  0  0  0  0  0  0  0
  187.7010  177.5060  144.7980 C   0  0  0  0  0  2  0  0  0  0  0  0
  185.9990  178.1040  142.7950 S   0  0  0  0  0  0  0  0  0  0  0  0
  184.2520  179.0900  144.8070 C   0  0  0  0  0  1  0  0  0  0  0  0
  186.5100  178.1770  145.3800 C   0  0  0  0  0  0  0  0  0  0  0  0
  187.2740  176.9670  143.4360 C   0  0  1  0  0  3  0  0  0  0  0  0
  185.7830  179.3900  147.3050 O   0  0  0  0  0  0  0  0  0  0  0  0
  186.4160  178.4030  146.8390 C   0  0  0  0  0  0  0  0  0  0  0  0
  187.0540  177.5110  147.7050 O   0  0  0  0  0  0  0  0  0  0  0  0
  189.3760  177.9820  148.0660 C   0  0  0  0  0  1  0  0  0  0  0  0
  187.9900  177.9490  148.6770 C   0  0  0  0  0  2  0  0  0  0  0  0
  189.7740  176.7100  143.2270 C   0  0  0  0  0  2  0  0  0  0  0  0
  190.7360  177.5970  142.7370 O   0  0  0  0  0  0  0  0  0  0  0  0
  191.2950  179.9260  144.1440 O   0  0  0  0  0  0  0  0  0  0  0  0
  191.8340  177.6330  145.2860 O   0  0  0  0  0  0  0  0  0  0  0  0
  191.3070  178.4140  144.1050 P   0  0  0  0  0  0  0  0  0  0  0  0
  1 20  1  0  0  0  0
  3  4  1  0  0  0  0
  4  2  1  0  0  0  0
  4  1  1  0  0  0  0
  6  5  1  1  0  0  0
  6  4  1  0  0  0  0
  7  8  1  0  0  0  0
  8  6  1  0  0  0  0
  9  7  2  0  0  0  0
 10  7  1  0  0  0  0
 10 11  1  0  0  0  0
 11 12  1  0  0  0  0
 12 15  1  0  0  0  0
 14 13  2  0  0  0  0
 14 16  1  0  0  0  0
 15 14  1  0  0  0  0
 18 16  1  0  0  0  0
 18 19  1  0  0  0  0
 18 17  1  0  0  0  0
 19 17  1  0  0  0  0
 20 21  1  0  0  0  0
 21 33  1  1  0  0  0
 22 25  1  0  0  0  0
 22 26  2  0  0  0  0
 23 26  1  0  0  0  0
 24 27  1  0  0  0  0
 24 22  1  0  0  0  0
 26 29  1  0  0  0  0
 27 21  1  6  0  0  0
 27 23  1  0  0  0  0
 29 28  2  0  0  0  0
 29 30  1  0  0  0  0
 30 32  1  0  0  0  0
 31 32  1  0  0  0  0
 34 33  1  0  0  0  0
 34 37  1  0  0  0  0
 37 35  2  0  0  0  0
 37 36  2  0  0  0  0
M  END
>  <MODEL>
2

>  <REMARK>
 VINA RESULT:      -6.3      3.788      8.651
  Name = 
  18 active torsions:
  status: ('A' for Active; 'I' for Inactive)
    1  A    between atoms: C_1  and  C_28
    2  A    between atoms: S_4  and  C_13
    3  A    between atoms: S_4  and  C_34
    4  A    between atoms: C_6  and  C_10
    5  A    between atoms: C_6  and  C_22
    6  A    between atoms: N_7  and  C_32
    7  A    between atoms: C_9  and  C_21
    8  A    between atoms: C_9  and  N_31
    9  A    between atoms: O_11  and  C_36
   10  A    between atoms: O_11  and  C_37
   11  A    between atoms: C_13  and  C_30
   12  A    between atoms: C_21  and  C_28
   13  A    between atoms: C_24  and  C_36
   14  A    between atoms: C_25  and  C_34
   15  A    between atoms: P_26  and  O_33
   16  A    between atoms: C_30  and  C_32
   17  A    between atoms: O_33  and  C_35
   18  A    between atoms: C_34  and  C_35
                            x       y       z     vdW  Elec       q    Type
                         _______ _______ _______ _____ _____    ______ ____

>  <TORSDO>
F 18

$$$$
=
 OpenBabel11042412073D

 37 38  0  0  1  0  0  0  0  0999 V2000
  184.1000  177.8930  142.1780 C   0  0  0  0  0  2  0  0  0  0  0  0
  185.7900  179.6810  142.1690 C   0  0  0  0  0  1  0  0  0  0  0  0
  186.4050  177.4600  143.0080 C   0  0  0  0  0  1  0  0  0  0  0  0
  185.2810  178.4840  142.9520 C   0  0  0  0  0  0  0  0  0  0  0  0
  183.3630  178.8720  144.6390 C   0  0  0  0  0  1  0  0  0  0  0  0
  184.8680  178.8840  144.3890 C   0  0  1  0  0  3  0  0  0  0  0  0
  185.9350  178.6690  146.7280 C   0  0  0  0  0  0  0  0  0  0  0  0
  185.5940  178.1570  145.4340 N   0  0  0  0  0  2  0  0  0  0  0  0
  185.6730  179.8590  147.0420 O   0  0  0  0  0  0  0  0  0  0  0  0
  186.6610  177.7990  147.6990 C   0  0  0  0  0  2  0  0  0  0  0  0
  188.1570  178.0990  147.6980 C   0  0  0  0  0  2  0  0  0  0  0  0
  188.9010  177.2370  146.6880 C   0  0  0  0  0  2  0  0  0  0  0  0
  192.4490  176.3460  146.8110 O   0  0  0  0  0  0  0  0  0  0  0  0
  191.3330  176.6590  146.3200 C   0  0  0  0  0  0  0  0  0  0  0  0
  190.2260  176.9020  147.1890 N   0  0  0  0  0  2  0  0  0  0  0  0
  191.1820  176.7530  144.8350 C   0  0  0  0  0  2  0  0  0  0  0  0
  191.1100  178.3950  143.1250 O   0  0  0  0  0  0  0  0  0  0  0  0
  191.7010  178.0870  144.3290 C   0  0  0  0  0  3  0  0  0  0  0  0
  190.6550  178.9760  144.2450 O   0  0  0  0  0  0  0  0  0  0  0  0
  183.4610  179.0140  140.8850 S   0  0  0  0  0  0  0  0  0  0  0  0
  183.2060  177.6400  139.7060 C   0  0  2  0  0  3  0  0  0  0  0  0
  185.7740  176.8700  136.9140 C   0  0  0  0  0  0  0  0  0  0  0  0
  185.4180  178.3600  138.7120 C   0  0  0  0  0  2  0  0  0  0  0  0
  184.2050  176.2740  137.5120 S   0  0  0  0  0  0  0  0  0  0  0  0
  186.3750  176.2890  135.6780 C   0  0  0  0  0  1  0  0  0  0  0  0
  186.2780  177.8980  137.5920 C   0  0  0  0  0  0  0  0  0  0  0  0
  184.0120  177.8440  138.4210 C   0  0  1  0  0  3  0  0  0  0  0  0
  187.6010  179.6050  136.5720 O   0  0  0  0  0  0  0  0  0  0  0  0
  187.5610  178.5780  137.3040 C   0  0  0  0  0  0  0  0  0  0  0  0
  188.7390  178.0590  137.8460 O   0  0  0  0  0  0  0  0  0  0  0  0
  188.9270  177.4430  140.1540 C   0  0  0  0  0  1  0  0  0  0  0  0
  189.2380  178.4880  139.1030 C   0  0  0  0  0  2  0  0  0  0  0  0
  181.7180  177.4830  139.4040 C   0  0  0  0  0  2  0  0  0  0  0  0
  181.0920  176.7110  140.3860 O   0  0  0  0  0  0  0  0  0  0  0  0
  179.2370  177.5600  142.2700 O   0  0  0  0  0  0  0  0  0  0  0  0
  179.0160  178.4660  139.8240 O   0  0  0  0  0  0  0  0  0  0  0  0
  179.7340  177.6120  140.8430 P   0  0  0  0  0  0  0  0  0  0  0  0
  1  4  1  0  0  0  0
  2  4  1  0  0  0  0
  4  3  1  0  0  0  0
  4  6  1  0  0  0  0
  6  5  1  6  0  0  0
  6  8  1  0  0  0  0
  7  9  2  0  0  0  0
  7 10  1  0  0  0  0
  8  7  1  0  0  0  0
 11 10  1  0  0  0  0
 12 15  1  0  0  0  0
 12 11  1  0  0  0  0
 14 13  2  0  0  0  0
 14 15  1  0  0  0  0
 16 14  1  0  0  0  0
 17 19  1  0  0  0  0
 17 18  1  0  0  0  0
 18 16  1  0  0  0  0
 19 18  1  0  0  0  0
 20  1  1  0  0  0  0
 21 33  1  6  0  0  0
 21 20  1  0  0  0  0
 22 24  1  0  0  0  0
 22 26  2  0  0  0  0
 24 27  1  0  0  0  0
 25 22  1  0  0  0  0
 26 23  1  0  0  0  0
 27 23  1  0  0  0  0
 27 21  1  1  0  0  0
 28 29  2  0  0  0  0
 29 26  1  0  0  0  0
 29 30  1  0  0  0  0
 30 32  1  0  0  0  0
 32 31  1  0  0  0  0
 33 34  1  0  0  0  0
 34 37  1  0  0  0  0
 36 37  2  0  0  0  0
 37 35  2  0  0  0  0
M  END
>  <MODEL>
3

>  <REMARK>
 VINA RESULT:      -6.2      4.156      6.605
  Name = 
  18 active torsions:
  status: ('A' for Active; 'I' for Inactive)
    1  A    between atoms: C_1  and  C_28
    2  A    between atoms: S_4  and  C_13
    3  A    between atoms: S_4  and  C_34
    4  A    between atoms: C_6  and  C_10
    5  A    between atoms: C_6  and  C_22
    6  A    between atoms: N_7  and  C_32
    7  A    between atoms: C_9  and  C_21
    8  A    between atoms: C_9  and  N_31
    9  A    between atoms: O_11  and  C_36
   10  A    between atoms: O_11  and  C_37
   11  A    between atoms: C_13  and  C_30
   12  A    between atoms: C_21  and  C_28
   13  A    between atoms: C_24  and  C_36
   14  A    between atoms: C_25  and  C_34
   15  A    between atoms: P_26  and  O_33
   16  A    between atoms: C_30  and  C_32
   17  A    between atoms: O_33  and  C_35
   18  A    between atoms: C_34  and  C_35
                            x       y       z     vdW  Elec       q    Type
                         _______ _______ _______ _____ _____    ______ ____

>  <TORSDO>
F 18

$$$$
=
 OpenBabel11042412073D

 37 38  0  0  1  0  0  0  0  0999 V2000
  183.8870  178.1410  140.6760 C   0  0  0  0  0  2  0  0  0  0  0  0
  185.2220  178.6620  138.6770 C   0  0  0  0  0  1  0  0  0  0  0  0
  182.8740  179.3640  138.7610 C   0  0  0  0  0  1  0  0  0  0  0  0
  183.8390  178.2540  139.1510 C   0  0  0  0  0  0  0  0  0  0  0  0
  181.9550  176.9250  137.9860 C   0  0  0  0  0  1  0  0  0  0  0  0
  183.3910  176.9220  138.5020 C   0  0  1  0  0  3  0  0  0  0  0  0
  184.6310  175.0370  137.2530 C   0  0  0  0  0  0  0  0  0  0  0  0
  184.3250  176.4150  137.4930 N   0  0  0  0  0  2  0  0  0  0  0  0
  184.1370  174.1300  137.9730 O   0  0  0  0  0  0  0  0  0  0  0  0
  185.5920  174.6700  136.1720 C   0  0  0  0  0  2  0  0  0  0  0  0
  186.8580  174.0430  136.7470 C   0  0  0  0  0  2  0  0  0  0  0  0
  188.1120  174.6260  136.1100 C   0  0  0  0  0  2  0  0  0  0  0  0
  190.4910  175.7570  138.6510 O   0  0  0  0  0  0  0  0  0  0  0  0
  189.5140  175.7940  137.8580 C   0  0  0  0  0  0  0  0  0  0  0  0
  189.2050  174.6430  137.0710 N   0  0  0  0  0  2  0  0  0  0  0  0
  188.7070  177.0470  137.7400 C   0  0  0  0  0  2  0  0  0  0  0  0
  188.9120  179.4090  137.6770 O   0  0  0  0  0  0  0  0  0  0  0  0
  189.5530  178.2610  138.0820 C   0  0  0  0  0  3  0  0  0  0  0  0
  188.8640  179.0550  138.9700 O   0  0  0  0  0  0  0  0  0  0  0  0
  185.2930  179.0440  141.4150 S   0  0  0  0  0  0  0  0  0  0  0  0
  184.5790  178.9440  143.0950 C   0  0  2  0  0  3  0  0  0  0  0  0
  187.1530  177.9960  145.8260 C   0  0  0  0  0  0  0  0  0  0  0  0
  186.8390  177.8770  143.4870 C   0  0  0  0  0  2  0  0  0  0  0  0
  185.5480  178.7560  145.6840 S   0  0  0  0  0  0  0  0  0  0  0  0
  187.7470  177.7420  147.1700 C   0  0  0  0  0  1  0  0  0  0  0  0
  187.6950  177.6100  144.6730 C   0  0  0  0  0  0  0  0  0  0  0  0
  185.4150  178.0450  144.0090 C   0  0  1  0  0  3  0  0  0  0  0  0
  189.9920  177.2810  145.2380 O   0  0  0  0  0  0  0  0  0  0  0  0
  189.0130  176.9570  144.5120 C   0  0  0  0  0  0  0  0  0  0  0  0
  189.1670  175.9750  143.5290 O   0  0  0  0  0  0  0  0  0  0  0  0
  190.1200  177.3500  141.8130 C   0  0  0  0  0  1  0  0  0  0  0  0
  190.2050  176.0370  142.5640 C   0  0  0  0  0  2  0  0  0  0  0  0
  183.1330  178.4580  143.0180 C   0  0  0  0  0  2  0  0  0  0  0  0
  182.2930  179.2850  143.7680 O   0  0  0  0  0  0  0  0  0  0  0  0
  180.3670  179.7320  141.8180 O   0  0  0  0  0  0  0  0  0  0  0  0
  179.7600  178.1500  143.8130 O   0  0  0  0  0  0  0  0  0  0  0  0
  180.7520  179.0460  143.1100 P   0  0  0  0  0  0  0  0  0  0  0  0
  1 20  1  0  0  0  0
  2  4  1  0  0  0  0
  3  4  1  0  0  0  0
  4  1  1  0  0  0  0
  6  5  1  6  0  0  0
  6  4  1  0  0  0  0
  7  8  1  0  0  0  0
  7  9  2  0  0  0  0
  8  6  1  0  0  0  0
 10 11  1  0  0  0  0
 10  7  1  0  0  0  0
 12 11  1  0  0  0  0
 12 15  1  0  0  0  0
 14 13  2  0  0  0  0
 15 14  1  0  0  0  0
 16 14  1  0  0  0  0
 16 18  1  0  0  0  0
 17 18  1  0  0  0  0
 17 19  1  0  0  0  0
 18 19  1  0  0  0  0
 20 21  1  0  0  0  0
 21 33  1  6  0  0  0
 22 25  1  0  0  0  0
 23 27  1  0  0  0  0
 23 26  1  0  0  0  0
 24 22  1  0  0  0  0
 26 22  2  0  0  0  0
 27 21  1  6  0  0  0
 27 24  1  0  0  0  0
 29 26  1  0  0  0  0
 29 28  2  0  0  0  0
 30 29  1  0  0  0  0
 31 32  1  0  0  0  0
 32 30  1  0  0  0  0
 33 34  1  0  0  0  0
 35 37  2  0  0  0  0
 37 34  1  0  0  0  0
 37 36  2  0  0  0  0
M  END
>  <MODEL>
4

>  <REMARK>
 VINA RESULT:      -6.2      4.082      8.959
  Name = 
  18 active torsions:
  status: ('A' for Active; 'I' for Inactive)
    1  A    between atoms: C_1  and  C_28
    2  A    between atoms: S_4  and  C_13
    3  A    between atoms: S_4  and  C_34
    4  A    between atoms: C_6  and  C_10
    5  A    between atoms: C_6  and  C_22
    6  A    between atoms: N_7  and  C_32
    7  A    between atoms: C_9  and  C_21
    8  A    between atoms: C_9  and  N_31
    9  A    between atoms: O_11  and  C_36
   10  A    between atoms: O_11  and  C_37
   11  A    between atoms: C_13  and  C_30
   12  A    between atoms: C_21  and  C_28
   13  A    between atoms: C_24  and  C_36
   14  A    between atoms: C_25  and  C_34
   15  A    between atoms: P_26  and  O_33
   16  A    between atoms: C_30  and  C_32
   17  A    between atoms: O_33  and  C_35
   18  A    between atoms: C_34  and  C_35
                            x       y       z     vdW  Elec       q    Type
                         _______ _______ _______ _____ _____    ______ ____

>  <TORSDO>
F 18

$$$$
=
 OpenBabel11042412073D

 37 38  0  0  1  0  0  0  0  0999 V2000
  189.8770  177.6610  141.7730 C   0  0  0  0  0  2  0  0  0  0  0  0
  190.9780  175.8680  143.0480 C   0  0  0  0  0  1  0  0  0  0  0  0
  188.5330  176.0470  143.1060 C   0  0  0  0  0  1  0  0  0  0  0  0
  189.8230  176.8540  143.0720 C   0  0  0  0  0  0  0  0  0  0  0  0
  190.6960  179.0570  144.0990 C   0  0  0  0  0  1  0  0  0  0  0  0
  189.8940  177.7760  144.3120 C   0  0  1  0  0  3  0  0  0  0  0  0
  188.1500  177.6070  146.2050 C   0  0  0  0  0  0  0  0  0  0  0  0
  188.5870  178.0530  144.9160 N   0  0  0  0  0  2  0  0  0  0  0  0
  188.8770  176.8610  146.9120 O   0  0  0  0  0  0  0  0  0  0  0  0
  186.7940  177.9870  146.6980 C   0  0  0  0  0  2  0  0  0  0  0  0
  186.0730  178.8830  145.6960 C   0  0  0  0  0  2  0  0  0  0  0  0
  184.7930  178.2380  145.1850 C   0  0  0  0  0  2  0  0  0  0  0  0
  183.5970  178.6940  141.7560 O   0  0  0  0  0  0  0  0  0  0  0  0
  183.5850  178.7010  143.0150 C   0  0  0  0  0  0  0  0  0  0  0  0
  184.7490  178.2860  143.7310 N   0  0  0  0  0  2  0  0  0  0  0  0
  182.3470  179.1260  143.7360 C   0  0  0  0  0  2  0  0  0  0  0  0
  179.9910  179.2230  143.4780 O   0  0  0  0  0  0  0  0  0  0  0  0
  181.1740  179.2220  142.7760 C   0  0  0  0  0  3  0  0  0  0  0  0
  180.4830  180.3850  143.0230 O   0  0  0  0  0  0  0  0  0  0  0  0
  191.3380  177.2690  140.7490 S   0  0  0  0  0  0  0  0  0  0  0  0
  190.3160  176.4970  139.4440 C   0  0  2  0  0  3  0  0  0  0  0  0
  192.3190  174.4490  136.8410 C   0  0  0  0  0  0  0  0  0  0  0  0
  192.6250  176.1200  138.4840 C   0  0  0  0  0  2  0  0  0  0  0  0
  190.6450  174.6290  137.4240 S   0  0  0  0  0  0  0  0  0  0  0  0
  192.6200  173.5510  135.6890 C   0  0  0  0  0  1  0  0  0  0  0  0
  193.2100  175.2310  137.4460 C   0  0  0  0  0  0  0  0  0  0  0  0
  191.1330  176.2160  138.1810 C   0  0  1  0  0  3  0  0  0  0  0  0
  195.5130  175.0180  138.0460 O   0  0  0  0  0  0  0  0  0  0  0  0
  194.6600  175.2770  137.1520 C   0  0  0  0  0  0  0  0  0  0  0  0
  195.0800  175.6260  135.8660 O   0  0  0  0  0  0  0  0  0  0  0  0
  195.7170  177.7860  135.0450 C   0  0  0  0  0  1  0  0  0  0  0  0
  194.5930  176.7840  135.2060 C   0  0  0  0  0  2  0  0  0  0  0  0
  189.1110  177.3830  139.1350 C   0  0  0  0  0  2  0  0  0  0  0  0
  189.4830  178.4600  138.3260 O   0  0  0  0  0  0  0  0  0  0  0  0
  188.7810  177.8970  135.6970 O   0  0  0  0  0  0  0  0  0  0  0  0
  186.9740  178.9760  137.2540 O   0  0  0  0  0  0  0  0  0  0  0  0
  188.3730  178.4430  137.0480 P   0  0  0  0  0  0  0  0  0  0  0  0
  1  4  1  0  0  0  0
  2  4  1  0  0  0  0
  4  3  1  0  0  0  0
  4  6  1  0  0  0  0
  6  5  1  6  0  0  0
  6  8  1  0  0  0  0
  7 10  1  0  0  0  0
  7  9  2  0  0  0  0
  8  7  1  0  0  0  0
 11 10  1  0  0  0  0
 12 11  1  0  0  0  0
 13 14  2  0  0  0  0
 14 15  1  0  0  0  0
 14 16  1  0  0  0  0
 15 12  1  0  0  0  0
 18 19  1  0  0  0  0
 18 17  1  0  0  0  0
 18 16  1  0  0  0  0
 19 17  1  0  0  0  0
 20  1  1  0  0  0  0
 21 33  1  6  0  0  0
 21 20  1  0  0  0  0
 22 24  1  0  0  0  0
 22 26  2  0  0  0  0
 24 27  1  0  0  0  0
 25 22  1  0  0  0  0
 26 23  1  0  0  0  0
 27 23  1  0  0  0  0
 27 21  1  1  0  0  0
 29 26  1  0  0  0  0
 29 28  2  0  0  0  0
 30 29  1  0  0  0  0
 31 32  1  0  0  0  0
 32 30  1  0  0  0  0
 34 33  1  0  0  0  0
 35 37  2  0  0  0  0
 37 36  2  0  0  0  0
 37 34  1  0  0  0  0
M  END
>  <MODEL>
5

>  <REMARK>
 VINA RESULT:      -6.1      1.416      2.250
  Name = 
  18 active torsions:
  status: ('A' for Active; 'I' for Inactive)
    1  A    between atoms: C_1  and  C_28
    2  A    between atoms: S_4  and  C_13
    3  A    between atoms: S_4  and  C_34
    4  A    between atoms: C_6  and  C_10
    5  A    between atoms: C_6  and  C_22
    6  A    between atoms: N_7  and  C_32
    7  A    between atoms: C_9  and  C_21
    8  A    between atoms: C_9  and  N_31
    9  A    between atoms: O_11  and  C_36
   10  A    between atoms: O_11  and  C_37
   11  A    between atoms: C_13  and  C_30
   12  A    between atoms: C_21  and  C_28
   13  A    between atoms: C_24  and  C_36
   14  A    between atoms: C_25  and  C_34
   15  A    between atoms: P_26  and  O_33
   16  A    between atoms: C_30  and  C_32
   17  A    between atoms: O_33  and  C_35
   18  A    between atoms: C_34  and  C_35
                            x       y       z     vdW  Elec       q    Type
                         _______ _______ _______ _____ _____    ______ ____

>  <TORSDO>
F 18

$$$$
=
 OpenBabel11042412073D

 37 38  0  0  1  0  0  0  0  0999 V2000
  184.0350  178.0420  141.9990 C   0  0  0  0  0  2  0  0  0  0  0  0
  185.8030  179.7510  142.0660 C   0  0  0  0  0  1  0  0  0  0  0  0
  186.3070  177.4810  142.8450 C   0  0  0  0  0  1  0  0  0  0  0  0
  185.2300  178.5560  142.8060 C   0  0  0  0  0  0  0  0  0  0  0  0
  183.3080  178.9410  144.4880 C   0  0  0  0  0  1  0  0  0  0  0  0
  184.8150  178.9310  144.2490 C   0  0  1  0  0  3  0  0  0  0  0  0
  185.8560  178.6420  146.5910 C   0  0  0  0  0  0  0  0  0  0  0  0
  185.5200  178.1670  145.2820 N   0  0  0  0  0  2  0  0  0  0  0  0
  185.6080  179.8280  146.9320 O   0  0  0  0  0  0  0  0  0  0  0  0
  186.5600  177.7380  147.5470 C   0  0  0  0  0  2  0  0  0  0  0  0
  188.0550  178.0390  147.5910 C   0  0  0  0  0  2  0  0  0  0  0  0
  188.8850  176.8050  147.2650 C   0  0  0  0  0  2  0  0  0  0  0  0
  191.9340  177.5760  145.3930 O   0  0  0  0  0  0  0  0  0  0  0  0
  190.7320  177.2690  145.6040 C   0  0  0  0  0  0  0  0  0  0  0  0
  190.2530  177.1860  146.9470 N   0  0  0  0  0  2  0  0  0  0  0  0
  189.8320  176.9780  144.4460 C   0  0  0  0  0  2  0  0  0  0  0  0
  190.1940  175.2750  142.8350 O   0  0  0  0  0  0  0  0  0  0  0  0
  190.6390  176.5100  143.2470 C   0  0  0  0  0  3  0  0  0  0  0  0
  189.7990  176.3690  142.1660 O   0  0  0  0  0  0  0  0  0  0  0  0
  183.6760  179.0620  140.5270 S   0  0  0  0  0  0  0  0  0  0  0  0
  182.1050  178.1840  140.2020 C   0  0  2  0  0  3  0  0  0  0  0  0
  181.0740  180.2570  137.1000 C   0  0  0  0  0  0  0  0  0  0  0  0
  181.3980  180.4860  139.4290 C   0  0  0  0  0  2  0  0  0  0  0  0
  181.5510  178.5920  137.5180 S   0  0  0  0  0  0  0  0  0  0  0  0
  180.6520  180.5900  135.7090 C   0  0  0  0  0  1  0  0  0  0  0  0
  181.0430  181.1050  138.1260 C   0  0  0  0  0  0  0  0  0  0  0  0
  181.1970  178.9830  139.2650 C   0  0  1  0  0  3  0  0  0  0  0  0
  179.5250  182.9340  138.3630 O   0  0  0  0  0  0  0  0  0  0  0  0
  180.6820  182.5380  138.0520 C   0  0  0  0  0  0  0  0  0  0  0  0
  181.6410  183.4570  137.6180 O   0  0  0  0  0  0  0  0  0  0  0  0
  180.9310  184.3650  135.5170 C   0  0  0  0  0  1  0  0  0  0  0  0
  181.2820  184.6620  136.9600 C   0  0  0  0  0  2  0  0  0  0  0  0
  181.4000  177.8740  141.5210 C   0  0  0  0  0  2  0  0  0  0  0  0
  180.0590  178.2640  141.4690 O   0  0  0  0  0  0  0  0  0  0  0  0
  179.3680  178.4090  144.1550 O   0  0  0  0  0  0  0  0  0  0  0  0
  180.0160  180.6270  142.9250 O   0  0  0  0  0  0  0  0  0  0  0  0
  179.8070  179.1310  142.9000 P   0  0  0  0  0  0  0  0  0  0  0  0
  1  4  1  0  0  0  0
  2  4  1  0  0  0  0
  4  3  1  0  0  0  0
  4  6  1  0  0  0  0
  6  5  1  6  0  0  0
  6  8  1  0  0  0  0
  7  9  2  0  0  0  0
  7 10  1  0  0  0  0
  8  7  1  0  0  0  0
 10 11  1  0  0  0  0
 12 11  1  0  0  0  0
 13 14  2  0  0  0  0
 14 15  1  0  0  0  0
 15 12  1  0  0  0  0
 16 14  1  0  0  0  0
 17 18  1  0  0  0  0
 18 16  1  0  0  0  0
 19 17  1  0  0  0  0
 19 18  1  0  0  0  0
 20  1  1  0  0  0  0
 21 20  1  0  0  0  0
 21 33  1  1  0  0  0
 22 24  1  0  0  0  0
 22 26  2  0  0  0  0
 24 27  1  0  0  0  0
 25 22  1  0  0  0  0
 26 23  1  0  0  0  0
 27 23  1  0  0  0  0
 27 21  1  1  0  0  0
 29 26  1  0  0  0  0
 29 28  2  0  0  0  0
 30 29  1  0  0  0  0
 31 32  1  0  0  0  0
 32 30  1  0  0  0  0
 34 33  1  0  0  0  0
 34 37  1  0  0  0  0
 37 36  2  0  0  0  0
 37 35  2  0  0  0  0
M  END
>  <MODEL>
6

>  <REMARK>
 VINA RESULT:      -6.1      5.004      9.474
  Name = 
  18 active torsions:
  status: ('A' for Active; 'I' for Inactive)
    1  A    between atoms: C_1  and  C_28
    2  A    between atoms: S_4  and  C_13
    3  A    between atoms: S_4  and  C_34
    4  A    between atoms: C_6  and  C_10
    5  A    between atoms: C_6  and  C_22
    6  A    between atoms: N_7  and  C_32
    7  A    between atoms: C_9  and  C_21
    8  A    between atoms: C_9  and  N_31
    9  A    between atoms: O_11  and  C_36
   10  A    between atoms: O_11  and  C_37
   11  A    between atoms: C_13  and  C_30
   12  A    between atoms: C_21  and  C_28
   13  A    between atoms: C_24  and  C_36
   14  A    between atoms: C_25  and  C_34
   15  A    between atoms: P_26  and  O_33
   16  A    between atoms: C_30  and  C_32
   17  A    between atoms: O_33  and  C_35
   18  A    between atoms: C_34  and  C_35
                            x       y       z     vdW  Elec       q    Type
                         _______ _______ _______ _____ _____    ______ ____

>  <TORSDO>
F 18

$$$$
=
 OpenBabel11042412073D

 37 38  0  0  1  0  0  0  0  0999 V2000
  183.3210  177.3360  139.0850 C   0  0  0  0  0  2  0  0  0  0  0  0
  182.9710  179.7460  138.7390 C   0  0  0  0  0  1  0  0  0  0  0  0
  184.7920  179.0030  140.2030 C   0  0  0  0  0  1  0  0  0  0  0  0
  183.3640  178.7040  139.7710 C   0  0  0  0  0  0  0  0  0  0  0  0
  181.2240  177.8130  140.9100 C   0  0  0  0  0  1  0  0  0  0  0  0
  182.4270  178.7470  141.0010 C   0  0  1  0  0  3  0  0  0  0  0  0
  182.6390  179.0290  143.5560 C   0  0  0  0  0  0  0  0  0  0  0  0
  183.1280  178.6000  142.2800 N   0  0  0  0  0  2  0  0  0  0  0  0
  181.5470  179.6460  143.6560 O   0  0  0  0  0  0  0  0  0  0  0  0
  183.4590  178.7920  144.7800 C   0  0  0  0  0  2  0  0  0  0  0  0
  184.8580  179.3830  144.6300 C   0  0  0  0  0  2  0  0  0  0  0  0
  185.8990  178.5530  145.3670 C   0  0  0  0  0  2  0  0  0  0  0  0
  188.0120  176.1440  143.6000 O   0  0  0  0  0  0  0  0  0  0  0  0
  187.7030  177.1090  144.3470 C   0  0  0  0  0  0  0  0  0  0  0  0
  186.3260  177.4310  144.5440 N   0  0  0  0  0  2  0  0  0  0  0  0
  188.7840  177.9120  144.9970 C   0  0  0  0  0  2  0  0  0  0  0  0
  189.2550  177.7990  147.3190 O   0  0  0  0  0  0  0  0  0  0  0  0
  189.4240  177.1280  146.1290 C   0  0  0  0  0  3  0  0  0  0  0  0
  188.4520  176.7640  147.0320 O   0  0  0  0  0  0  0  0  0  0  0  0
  183.3890  177.4480  137.2630 S   0  0  0  0  0  0  0  0  0  0  0  0
  184.5660  176.0540  137.1410 C   0  0  2  0  0  3  0  0  0  0  0  0
  188.4210  176.3720  137.2740 C   0  0  0  0  0  0  0  0  0  0  0  0
  186.4660  177.6340  137.6800 C   0  0  0  0  0  2  0  0  0  0  0  0
  187.1760  175.1690  136.8530 S   0  0  0  0  0  0  0  0  0  0  0  0
  189.8660  176.0600  137.0690 C   0  0  0  0  0  1  0  0  0  0  0  0
  187.9500  177.5490  137.6780 C   0  0  0  0  0  0  0  0  0  0  0  0
  185.9670  176.5320  136.7520 C   0  0  1  0  0  3  0  0  0  0  0  0
  189.2330  179.5130  137.2260 O   0  0  0  0  0  0  0  0  0  0  0  0
  188.7660  178.7150  138.0850 C   0  0  0  0  0  0  0  0  0  0  0  0
  189.0280  178.9180  139.4420 O   0  0  0  0  0  0  0  0  0  0  0  0
  190.0300  177.1870  140.7640 C   0  0  0  0  0  1  0  0  0  0  0  0
  188.7520  177.9240  140.4160 C   0  0  0  0  0  2  0  0  0  0  0  0
  184.0430  175.0160  136.1510 C   0  0  0  0  0  2  0  0  0  0  0  0
  183.0340  174.2430  136.7310 O   0  0  0  0  0  0  0  0  0  0  0  0
  182.5960  171.5830  136.0600 O   0  0  0  0  0  0  0  0  0  0  0  0
  184.9850  172.2730  136.8770 O   0  0  0  0  0  0  0  0  0  0  0  0
  183.5580  172.6430  136.5490 P   0  0  0  0  0  0  0  0  0  0  0  0
  1  4  1  0  0  0  0
  2  4  1  0  0  0  0
  4  3  1  0  0  0  0
  4  6  1  0  0  0  0
  6  5  1  6  0  0  0
  6  8  1  0  0  0  0
  7  9  2  0  0  0  0
  7 10  1  0  0  0  0
  8  7  1  0  0  0  0
 11 10  1  0  0  0  0
 11 12  1  0  0  0  0
 13 14  2  0  0  0  0
 14 15  1  0  0  0  0
 14 16  1  0  0  0  0
 15 12  1  0  0  0  0
 16 18  1  0  0  0  0
 18 19  1  0  0  0  0
 18 17  1  0  0  0  0
 19 17  1  0  0  0  0
 20  1  1  0  0  0  0
 21 33  1  6  0  0  0
 21 20  1  0  0  0  0
 22 26  2  0  0  0  0
 24 22  1  0  0  0  0
 25 22  1  0  0  0  0
 26 23  1  0  0  0  0
 26 29  1  0  0  0  0
 27 24  1  0  0  0  0
 27 21  1  1  0  0  0
 27 23  1  0  0  0  0
 28 29  2  0  0  0  0
 29 30  1  0  0  0  0
 30 32  1  0  0  0  0
 32 31  1  0  0  0  0
 33 34  1  0  0  0  0
 35 37  2  0  0  0  0
 37 34  1  0  0  0  0
 37 36  2  0  0  0  0
M  END
>  <MODEL>
7

>  <REMARK>
 VINA RESULT:      -5.8      3.428      6.424
  Name = 
  18 active torsions:
  status: ('A' for Active; 'I' for Inactive)
    1  A    between atoms: C_1  and  C_28
    2  A    between atoms: S_4  and  C_13
    3  A    between atoms: S_4  and  C_34
    4  A    between atoms: C_6  and  C_10
    5  A    between atoms: C_6  and  C_22
    6  A    between atoms: N_7  and  C_32
    7  A    between atoms: C_9  and  C_21
    8  A    between atoms: C_9  and  N_31
    9  A    between atoms: O_11  and  C_36
   10  A    between atoms: O_11  and  C_37
   11  A    between atoms: C_13  and  C_30
   12  A    between atoms: C_21  and  C_28
   13  A    between atoms: C_24  and  C_36
   14  A    between atoms: C_25  and  C_34
   15  A    between atoms: P_26  and  O_33
   16  A    between atoms: C_30  and  C_32
   17  A    between atoms: O_33  and  C_35
   18  A    between atoms: C_34  and  C_35
                            x       y       z     vdW  Elec       q    Type
                         _______ _______ _______ _____ _____    ______ ____

>  <TORSDO>
F 18

$$$$
=
 OpenBabel11042412073D

 37 38  0  0  1  0  0  0  0  0999 V2000
  187.5260  177.8410  138.8690 C   0  0  0  0  0  2  0  0  0  0  0  0
  189.5990  178.2450  137.6080 C   0  0  0  0  0  1  0  0  0  0  0  0
  188.6910  175.9700  137.7130 C   0  0  0  0  0  1  0  0  0  0  0  0
  188.8920  177.2500  138.5110 C   0  0  0  0  0  0  0  0  0  0  0  0
  191.2290  177.1330  139.6040 C   0  0  0  0  0  1  0  0  0  0  0  0
  189.7250  176.9490  139.7800 C   0  0  1  0  0  3  0  0  0  0  0  0
  189.1300  177.0540  142.2870 C   0  0  0  0  0  0  0  0  0  0  0  0
  189.2360  177.6320  140.9810 N   0  0  0  0  0  2  0  0  0  0  0  0
  189.4080  175.8420  142.4830 O   0  0  0  0  0  0  0  0  0  0  0  0
  188.6300  177.8820  143.4240 C   0  0  0  0  0  2  0  0  0  0  0  0
  189.6850  178.0090  144.5190 C   0  0  0  0  0  2  0  0  0  0  0  0
  189.4780  176.9780  145.6190 C   0  0  0  0  0  2  0  0  0  0  0  0
  188.0100  178.5290  148.5910 O   0  0  0  0  0  0  0  0  0  0  0  0
  188.0660  177.9310  147.4850 C   0  0  0  0  0  0  0  0  0  0  0  0
  189.3400  177.6370  146.9100 N   0  0  0  0  0  2  0  0  0  0  0  0
  186.7990  177.5570  146.7850 C   0  0  0  0  0  2  0  0  0  0  0  0
  184.7580  178.7060  146.4090 O   0  0  0  0  0  0  0  0  0  0  0  0
  186.1180  178.7900  146.2170 C   0  0  0  0  0  3  0  0  0  0  0  0
  185.4900  179.4690  147.2360 O   0  0  0  0  0  0  0  0  0  0  0  0
  186.5260  178.2690  137.4010 S   0  0  0  0  0  0  0  0  0  0  0  0
  184.9720  177.7410  138.2050 C   0  0  2  0  0  3  0  0  0  0  0  0
  182.5390  174.9010  137.2040 C   0  0  0  0  0  0  0  0  0  0  0  0
  184.8230  175.4900  137.0610 C   0  0  0  0  0  2  0  0  0  0  0  0
  182.5090  176.4830  138.0220 S   0  0  0  0  0  0  0  0  0  0  0  0
  181.2680  174.1630  136.9500 C   0  0  0  0  0  1  0  0  0  0  0  0
  183.7400  174.5110  136.7810 C   0  0  0  0  0  0  0  0  0  0  0  0
  184.1430  176.8360  137.2900 C   0  0  1  0  0  3  0  0  0  0  0  0
  184.1410  173.2100  134.8180 O   0  0  0  0  0  0  0  0  0  0  0  0
  184.0390  173.2460  136.0750 C   0  0  0  0  0  0  0  0  0  0  0  0
  184.1980  172.0750  136.8220 O   0  0  0  0  0  0  0  0  0  0  0  0
  183.7130  169.8940  135.9530 C   0  0  0  0  0  1  0  0  0  0  0  0
  183.2250  171.0420  136.8130 C   0  0  0  0  0  2  0  0  0  0  0  0
  184.1700  178.9640  138.6430 C   0  0  0  0  0  2  0  0  0  0  0  0
  184.8690  179.6950  139.6070 O   0  0  0  0  0  0  0  0  0  0  0  0
  183.4320  177.9010  141.1670 O   0  0  0  0  0  0  0  0  0  0  0  0
  185.4860  179.1110  142.2500 O   0  0  0  0  0  0  0  0  0  0  0  0
  184.5870  178.8730  141.0590 P   0  0  0  0  0  0  0  0  0  0  0  0
  2  4  1  0  0  0  0
  3  4  1  0  0  0  0
  4  1  1  0  0  0  0
  4  6  1  0  0  0  0
  6  5  1  6  0  0  0
  6  8  1  0  0  0  0
  7  9  2  0  0  0  0
  7 10  1  0  0  0  0
  8  7  1  0  0  0  0
 10 11  1  0  0  0  0
 11 12  1  0  0  0  0
 12 15  1  0  0  0  0
 14 13  2  0  0  0  0
 15 14  1  0  0  0  0
 16 14  1  0  0  0  0
 17 19  1  0  0  0  0
 18 17  1  0  0  0  0
 18 16  1  0  0  0  0
 18 19  1  0  0  0  0
 20 21  1  0  0  0  0
 20  1  1  0  0  0  0
 21 33  1  6  0  0  0
 22 24  1  0  0  0  0
 23 27  1  0  0  0  0
 25 22  1  0  0  0  0
 26 23  1  0  0  0  0
 26 22  2  0  0  0  0
 27 24  1  0  0  0  0
 27 21  1  1  0  0  0
 28 29  2  0  0  0  0
 29 26  1  0  0  0  0
 29 30  1  0  0  0  0
 31 32  1  0  0  0  0
 32 30  1  0  0  0  0
 33 34  1  0  0  0  0
 34 37  1  0  0  0  0
 37 35  2  0  0  0  0
 37 36  2  0  0  0  0
M  END
>  <MODEL>
8

>  <REMARK>
 VINA RESULT:      -5.8      4.499      6.884
  Name = 
  18 active torsions:
  status: ('A' for Active; 'I' for Inactive)
    1  A    between atoms: C_1  and  C_28
    2  A    between atoms: S_4  and  C_13
    3  A    between atoms: S_4  and  C_34
    4  A    between atoms: C_6  and  C_10
    5  A    between atoms: C_6  and  C_22
    6  A    between atoms: N_7  and  C_32
    7  A    between atoms: C_9  and  C_21
    8  A    between atoms: C_9  and  N_31
    9  A    between atoms: O_11  and  C_36
   10  A    between atoms: O_11  and  C_37
   11  A    between atoms: C_13  and  C_30
   12  A    between atoms: C_21  and  C_28
   13  A    between atoms: C_24  and  C_36
   14  A    between atoms: C_25  and  C_34
   15  A    between atoms: P_26  and  O_33
   16  A    between atoms: C_30  and  C_32
   17  A    between atoms: O_33  and  C_35
   18  A    between atoms: C_34  and  C_35
                            x       y       z     vdW  Elec       q    Type
                         _______ _______ _______ _____ _____    ______ ____

>  <TORSDO>
F 18

$$$$
=
 OpenBabel11042412073D

 37 38  0  0  1  0  0  0  0  0999 V2000
  184.6130  178.0550  142.8680 C   0  0  0  0  0  2  0  0  0  0  0  0
  183.3430  178.8370  144.8240 C   0  0  0  0  0  1  0  0  0  0  0  0
  184.9190  180.3670  143.7340 C   0  0  0  0  0  1  0  0  0  0  0  0
  184.6920  178.9160  144.1310 C   0  0  0  0  0  0  0  0  0  0  0  0
  185.3640  177.9070  146.4120 C   0  0  0  0  0  1  0  0  0  0  0  0
  185.8330  178.4460  145.0640 C   0  0  1  0  0  3  0  0  0  0  0  0
  188.1850  177.4540  144.6930 C   0  0  0  0  0  0  0  0  0  0  0  0
  186.7820  177.5330  144.4190 N   0  0  0  0  0  2  0  0  0  0  0  0
  188.7320  178.2470  145.5040 O   0  0  0  0  0  0  0  0  0  0  0  0
  189.0250  176.4550  143.9690 C   0  0  0  0  0  2  0  0  0  0  0  0
  190.4270  176.9980  143.7080 C   0  0  0  0  0  2  0  0  0  0  0  0
  190.4870  177.7970  142.4140 C   0  0  0  0  0  2  0  0  0  0  0  0
  190.5630  175.9980  139.2280 O   0  0  0  0  0  0  0  0  0  0  0  0
  190.1460  176.7680  140.1310 C   0  0  0  0  0  0  0  0  0  0  0  0
  190.9240  176.9470  141.3160 N   0  0  0  0  0  2  0  0  0  0  0  0
  188.8360  177.4660  139.9570 C   0  0  0  0  0  2  0  0  0  0  0  0
  187.7370  178.9010  138.4200 O   0  0  0  0  0  0  0  0  0  0  0  0
  188.6260  177.8530  138.5030 C   0  0  0  0  0  3  0  0  0  0  0  0
  189.0520  179.1480  138.3150 O   0  0  0  0  0  0  0  0  0  0  0  0
  184.9120  179.0040  141.3370 S   0  0  0  0  0  0  0  0  0  0  0  0
  183.4410  178.2950  140.5140 C   0  0  2  0  0  3  0  0  0  0  0  0
  183.1820  177.1060  136.8400 C   0  0  0  0  0  0  0  0  0  0  0  0
  184.7950  177.5970  138.4950 C   0  0  0  0  0  2  0  0  0  0  0  0
  182.1170  177.5880  138.1850 S   0  0  0  0  0  0  0  0  0  0  0  0
  182.6040  176.7980  135.4990 C   0  0  0  0  0  1  0  0  0  0  0  0
  184.4840  177.1420  137.1150 C   0  0  0  0  0  0  0  0  0  0  0  0
  183.5660  178.3530  138.9900 C   0  0  1  0  0  3  0  0  0  0  0  0
  185.8400  177.5240  135.1860 O   0  0  0  0  0  0  0  0  0  0  0  0
  185.5750  176.7920  136.1780 C   0  0  0  0  0  0  0  0  0  0  0  0
  186.3090  175.6240  136.4000 O   0  0  0  0  0  0  0  0  0  0  0  0
  186.0010  173.4060  137.2560 C   0  0  0  0  0  1  0  0  0  0  0  0
  185.7920  174.3410  136.0830 C   0  0  0  0  0  2  0  0  0  0  0  0
  182.1810  179.0130  140.9920 C   0  0  0  0  0  2  0  0  0  0  0  0
  181.2420  178.0970  141.4750 O   0  0  0  0  0  0  0  0  0  0  0  0
  180.2800  180.4930  142.4970 O   0  0  0  0  0  0  0  0  0  0  0  0
  179.4720  178.2640  143.6060 O   0  0  0  0  0  0  0  0  0  0  0  0
  180.2970  178.9820  142.5640 P   0  0  0  0  0  0  0  0  0  0  0  0
  1  4  1  0  0  0  0
  3  4  1  0  0  0  0
  4  2  1  0  0  0  0
  4  6  1  0  0  0  0
  6  5  1  1  0  0  0
  7  9  2  0  0  0  0
  8  7  1  0  0  0  0
  8  6  1  0  0  0  0
 10  7  1  0  0  0  0
 11 10  1  0  0  0  0
 12 11  1  0  0  0  0
 13 14  2  0  0  0  0
 14 15  1  0  0  0  0
 15 12  1  0  0  0  0
 16 14  1  0  0  0  0
 17 18  1  0  0  0  0
 18 16  1  0  0  0  0
 19 17  1  0  0  0  0
 19 18  1  0  0  0  0
 20  1  1  0  0  0  0
 21 33  1  6  0  0  0
 21 20  1  0  0  0  0
 22 26  2  0  0  0  0
 22 24  1  0  0  0  0
 23 27  1  0  0  0  0
 24 27  1  0  0  0  0
 25 22  1  0  0  0  0
 26 23  1  0  0  0  0
 27 21  1  1  0  0  0
 28 29  2  0  0  0  0
 29 30  1  0  0  0  0
 29 26  1  0  0  0  0
 32 30  1  0  0  0  0
 32 31  1  0  0  0  0
 33 34  1  0  0  0  0
 34 37  1  0  0  0  0
 35 37  2  0  0  0  0
 37 36  2  0  0  0  0
M  END
>  <MODEL>
9

>  <REMARK>
 VINA RESULT:      -5.7      3.821      7.245
  Name = 
  18 active torsions:
  status: ('A' for Active; 'I' for Inactive)
    1  A    between atoms: C_1  and  C_28
    2  A    between atoms: S_4  and  C_13
    3  A    between atoms: S_4  and  C_34
    4  A    between atoms: C_6  and  C_10
    5  A    between atoms: C_6  and  C_22
    6  A    between atoms: N_7  and  C_32
    7  A    between atoms: C_9  and  C_21
    8  A    between atoms: C_9  and  N_31
    9  A    between atoms: O_11  and  C_36
   10  A    between atoms: O_11  and  C_37
   11  A    between atoms: C_13  and  C_30
   12  A    between atoms: C_21  and  C_28
   13  A    between atoms: C_24  and  C_36
   14  A    between atoms: C_25  and  C_34
   15  A    between atoms: P_26  and  O_33
   16  A    between atoms: C_30  and  C_32
   17  A    between atoms: O_33  and  C_35
   18  A    between atoms: C_34  and  C_35
                            x       y       z     vdW  Elec       q    Type
                         _______ _______ _______ _____ _____    ______ ____

>  <TORSDO>
F 18

$$$$
