=
 OpenBabel11032419233D

 51 56  0  0  1  0  0  0  0  0999 V2000
  186.6030  177.8820  136.1610 C   0  0  0  0  0  2  0  0  0  0  0  0
  185.4220  174.3910  137.0480 C   0  0  0  0  0  3  0  0  0  0  0  0
  188.8720  176.5050  135.6630 C   0  0  1  0  0  3  0  0  0  0  0  0
  183.2770  174.5810  138.1420 C   0  0  0  0  0  3  0  0  0  0  0  0
  184.3050  173.7890  137.6290 C   0  0  0  0  0  3  0  0  0  0  0  0
  187.7140  175.6480  135.9290 N   0  0  0  0  0  2  0  0  0  0  0  0
  185.4980  175.7890  136.9810 C   0  0  0  0  0  0  0  0  0  0  0  0
  188.8880  178.2280  137.5270 C   0  0  1  0  0  3  0  0  0  0  0  0
  186.6300  176.4310  136.3730 N   0  0  0  0  0  0  0  0  0  0  0  0
  187.7100  177.9300  138.4600 C   0  0  0  0  0  2  0  0  0  0  0  0
  189.4570  176.9990  136.9210 N   0  0  0  0  0  0  0  0  0  0  0  0
  184.4820  176.5370  137.4960 N   0  0  0  0  0  0  0  0  0  0  0  0
  187.4510  178.6780  137.1680 C   0  0  2  0  0  3  0  0  0  0  0  0
  183.3870  175.9720  138.0760 C   0  0  0  0  0  0  0  0  0  0  0  0
  183.5210  177.5490  140.7660 C   0  0  0  0  0  2  0  0  0  0  0  0
  182.3300  176.7840  138.5990 N   0  0  0  0  0  2  0  0  0  0  0  0
  183.3540  178.5290  143.0950 C   0  0  0  0  0  3  0  0  0  0  0  0
  181.4260  178.3730  140.1290 N   0  0  0  0  0  0  0  0  0  0  0  0
  182.4150  177.6050  139.7700 C   0  0  0  0  0  0  0  0  0  0  0  0
  182.1970  179.0220  143.5670 C   0  0  0  0  0  2  0  0  0  0  0  0
  183.1700  178.4620  141.6540 C   0  0  0  0  0  0  0  0  0  0  0  0
  181.2510  179.2390  142.4460 C   0  0  0  0  0  0  0  0  0  0  0  0
  181.8990  178.9500  141.3320 C   0  0  0  0  0  0  0  0  0  0  0  0
  179.8060  179.4720  142.5750 C   0  0  0  0  0  0  0  0  0  0  0  0
  179.3500  180.6440  142.5180 O   0  0  0  0  0  0  0  0  0  0  0  0
  178.9320  178.4050  142.7550 O   0  0  0  0  0  1  0  0  0  0  0  0
  190.1260  174.4800  135.3860 O   0  0  0  0  0  1  0  0  0  0  0  0
  189.9150  175.7470  134.8390 C   0  0  2  0  0  3  0  0  0  0  0  0
  191.2310  176.5050  134.8040 C   0  0  0  0  0  2  0  0  0  0  0  0
  192.3900  175.5240  134.8330 C   0  0  0  0  0  2  0  0  0  0  0  0
  195.8300  175.4860  135.7390 C   0  0  1  0  0  3  0  0  0  0  0  0
  193.7730  174.7340  136.7260 C   0  0  0  0  0  0  0  0  0  0  0  0
  194.6660  176.3330  135.3330 C   0  0  0  0  0  0  0  0  0  0  0  0
  194.7790  177.3040  134.6010 O   0  0  0  0  0  0  0  0  0  0  0  0
  193.3680  175.9230  135.9270 C   0  0  1  0  0  3  0  0  0  0  0  0
  192.9930  174.1230  137.4410 O   0  0  0  0  0  0  0  0  0  0  0  0
  195.2270  174.3800  136.6270 C   0  0  1  0  0  3  0  0  0  0  0  0
  196.4700  174.9770  134.6040 O   0  0  0  0  0  1  0  0  0  0  0  0
  195.4000  172.9750  136.0530 C   0  0  0  0  0  2  0  0  0  0  0  0
  195.5800  172.0540  137.0850 O   0  0  0  0  0  1  0  0  0  0  0  0
  189.7170  175.9410  137.9040 C   0  0  0  0  0  2  0  0  0  0  0  0
  190.9650  176.2860  138.6910 C   0  0  0  0  0  2  0  0  0  0  0  0
  190.5820  176.9510  140.0040 C   0  0  0  0  0  2  0  0  0  0  0  0
  192.9720  177.1360  140.0730 O   0  0  0  0  0  1  0  0  0  0  0  0
  191.7960  177.5670  140.6910 C   0  0  2  0  0  3  0  0  0  0  0  0
  191.8150  177.2130  142.1720 C   0  0  0  0  0  2  0  0  0  0  0  0
  190.5300  176.4990  142.5680 C   0  0  0  0  0  2  0  0  0  0  0  0
  188.9290  176.8850  144.3320 C   0  0  0  0  0  0  0  0  0  0  0  0
  190.1490  176.8740  143.9110 N   0  0  0  0  0  0  0  0  0  0  0  0
  188.6520  177.2870  145.7370 C   0  0  0  0  0  1  0  0  0  0  0  0
  187.7730  176.5240  143.4470 C   0  0  0  0  0  1  0  0  0  0  0  0
  1  9  1  0  0  0  0
  2  5  1  0  0  0  0
  3 28  1  1  0  0  0
  3  6  1  0  0  0  0
  3 11  1  0  0  0  0
  5  4  2  0  0  0  0
  6  9  1  0  0  0  0
  7  2  2  0  0  0  0
  7 12  1  0  0  0  0
  8 10  1  1  0  0  0
  9  7  1  0  0  0  0
 11  8  1  0  0  0  0
 11 41  1  0  0  0  0
 12 14  2  0  0  0  0
 13  1  1  6  0  0  0
 13  8  1  0  0  0  0
 13 10  1  0  0  0  0
 14  4  1  0  0  0  0
 14 16  1  0  0  0  0
 15 21  1  0  0  0  0
 16 19  1  0  0  0  0
 17 20  1  0  0  0  0
 18 23  1  0  0  0  0
 19 18  2  0  0  0  0
 19 15  1  0  0  0  0
 21 17  2  0  0  0  0
 22 24  1  0  0  0  0
 22 20  1  0  0  0  0
 23 21  1  0  0  0  0
 23 22  2  0  0  0  0
 24 26  1  0  0  0  0
 25 24  2  0  0  0  0
 28 27  1  1  0  0  0
 29 30  1  0  0  0  0
 29 28  1  0  0  0  0
 31 38  1  6  0  0  0
 31 37  1  0  0  0  0
 32 36  2  0  0  0  0
 33 31  1  0  0  0  0
 33 35  1  0  0  0  0
 34 33  2  0  0  0  0
 35 30  1  6  0  0  0
 35 32  1  0  0  0  0
 37 39  1  6  0  0  0
 37 32  1  0  0  0  0
 39 40  1  0  0  0  0
 41 42  1  0  0  0  0
 42 43  1  0  0  0  0
 43 45  1  0  0  0  0
 45 44  1  6  0  0  0
 45 46  1  0  0  0  0
 46 47  1  0  0  0  0
 47 49  1  0  0  0  0
 48 50  1  0  0  0  0
 49 48  2  0  0  0  0
 51 48  1  0  0  0  0
M  END
>  <MODEL>
1

>  <REMARK>
 VINA RESULT:      -7.4      0.000      0.000
  Name = 
  14 active torsions:
  status: ('A' for Active; 'I' for Inactive)
    1  A    between atoms: C_3  and  C_33
    2  A    between atoms: C_3  and  C_47
    3  A    between atoms: C_6  and  C_44
    4  A    between atoms: C_7  and  C_40
    5  A    between atoms: C_12  and  C_44
    6  A    between atoms: C_12  and  C_46
    7  A    between atoms: N_14  and  C_51
    8  A    between atoms: N_18  and  C_33
    9  A    between atoms: C_19  and  C_36
   10  A    between atoms: C_30  and  C_46
   11  A    between atoms: N_37  and  C_39
   12  A    between atoms: C_39  and  C_45
   13  A    between atoms: C_45  and  C_49
   14  A    between atoms: C_47  and  C_49
                            x       y       z     vdW  Elec       q    Type
                         _______ _______ _______ _____ _____    ______ ____

>  <TORSDO>
F 14

$$$$
=
 OpenBabel11032419233D

 51 56  0  0  1  0  0  0  0  0999 V2000
  188.8790  177.2700  136.2170 C   0  0  0  0  0  2  0  0  0  0  0  0
  187.6560  173.8400  137.2700 C   0  0  0  0  0  3  0  0  0  0  0  0
  190.8680  176.5910  137.9140 C   0  0  1  0  0  3  0  0  0  0  0  0
  185.3920  173.5750  136.4750 C   0  0  0  0  0  3  0  0  0  0  0  0
  186.5140  173.0530  137.1170 C   0  0  0  0  0  3  0  0  0  0  0  0
  189.9450  175.4910  137.6230 N   0  0  0  0  0  2  0  0  0  0  0  0
  187.6670  175.1490  136.7700 C   0  0  0  0  0  0  0  0  0  0  0  0
  189.3970  178.5730  138.5070 C   0  0  1  0  0  3  0  0  0  0  0  0
  188.8360  175.9720  136.9000 N   0  0  0  0  0  0  0  0  0  0  0  0
  187.9360  178.1210  138.4310 C   0  0  0  0  0  2  0  0  0  0  0  0
  190.3070  177.4850  138.9410 N   0  0  0  0  0  0  0  0  0  0  0  0
  186.5530  175.6340  136.1520 N   0  0  0  0  0  0  0  0  0  0  0  0
  188.6610  178.4750  137.1480 C   0  0  2  0  0  3  0  0  0  0  0  0
  185.4240  174.8880  136.0000 C   0  0  0  0  0  0  0  0  0  0  0  0
  183.5100  177.0360  137.2110 C   0  0  0  0  0  2  0  0  0  0  0  0
  184.2730  175.4220  135.3370 N   0  0  0  0  0  2  0  0  0  0  0  0
  181.6760  178.4510  138.2310 C   0  0  0  0  0  3  0  0  0  0  0  0
  182.4670  176.9630  135.1180 N   0  0  0  0  0  0  0  0  0  0  0  0
  183.4520  176.4880  135.8270 C   0  0  0  0  0  0  0  0  0  0  0  0
  180.5080  178.6500  137.5980 C   0  0  0  0  0  2  0  0  0  0  0  0
  182.5840  177.9770  137.1990 C   0  0  0  0  0  0  0  0  0  0  0  0
  180.6420  178.2700  136.1710 C   0  0  0  0  0  0  0  0  0  0  0  0
  181.9050  177.9380  135.9760 C   0  0  0  0  0  0  0  0  0  0  0  0
  179.5320  178.0530  135.2330 C   0  0  0  0  0  0  0  0  0  0  0  0
  179.0490  179.0240  134.5940 O   0  0  0  0  0  0  0  0  0  0  0  0
  179.0110  176.7770  135.0390 O   0  0  0  0  0  1  0  0  0  0  0  0
  193.2290  176.9760  138.0810 O   0  0  0  0  0  1  0  0  0  0  0  0
  192.2260  176.0430  138.3530 C   0  0  2  0  0  3  0  0  0  0  0  0
  192.5420  174.7420  137.6340 C   0  0  0  0  0  2  0  0  0  0  0  0
  193.9820  174.7570  137.1530 C   0  0  0  0  0  2  0  0  0  0  0  0
  197.2420  174.1250  138.4280 C   0  0  1  0  0  3  0  0  0  0  0  0
  195.6540  172.9350  137.0760 C   0  0  0  0  0  0  0  0  0  0  0  0
  195.8310  174.4880  138.7630 C   0  0  0  0  0  0  0  0  0  0  0  0
  195.5450  175.2860  139.6440 O   0  0  0  0  0  0  0  0  0  0  0  0
  194.8040  173.7710  137.9680 C   0  0  1  0  0  3  0  0  0  0  0  0
  195.1870  172.1250  136.2890 O   0  0  0  0  0  0  0  0  0  0  0  0
  197.1300  173.1270  137.2600 C   0  0  1  0  0  3  0  0  0  0  0  0
  197.9650  175.2740  138.0890 O   0  0  0  0  0  1  0  0  0  0  0  0
  197.7720  173.6260  135.9670 C   0  0  0  0  0  2  0  0  0  0  0  0
  198.1920  172.5450  135.1920 O   0  0  0  0  0  1  0  0  0  0  0  0
  189.8300  176.7800  140.1360 C   0  0  0  0  0  2  0  0  0  0  0  0
  190.4050  177.4440  141.3710 C   0  0  0  0  0  2  0  0  0  0  0  0
  190.5440  176.4230  142.4910 C   0  0  0  0  0  2  0  0  0  0  0  0
  191.7340  176.0860  144.5440 O   0  0  0  0  0  1  0  0  0  0  0  0
  191.1150  177.0570  143.7540 C   0  0  2  0  0  3  0  0  0  0  0  0
  190.0230  177.7670  144.5430 C   0  0  0  0  0  2  0  0  0  0  0  0
  188.7880  176.8860  144.6590 C   0  0  0  0  0  2  0  0  0  0  0  0
  187.2230  177.9210  146.1780 C   0  0  0  0  0  0  0  0  0  0  0  0
  187.6320  177.6940  144.9740 N   0  0  0  0  0  0  0  0  0  0  0  0
  186.0200  178.7720  146.3840 C   0  0  0  0  0  1  0  0  0  0  0  0
  187.9090  177.3420  147.3790 C   0  0  0  0  0  1  0  0  0  0  0  0
  1  9  1  0  0  0  0
  3 28  1  1  0  0  0
  3 11  1  0  0  0  0
  4  5  2  0  0  0  0
  5  2  1  0  0  0  0
  6  3  1  0  0  0  0
  7  9  1  0  0  0  0
  7  2  2  0  0  0  0
  8 10  1  1  0  0  0
  8 11  1  0  0  0  0
  9  6  1  0  0  0  0
 11 41  1  0  0  0  0
 12  7  1  0  0  0  0
 13  1  1  6  0  0  0
 13 10  1  0  0  0  0
 13  8  1  0  0  0  0
 14 12  2  0  0  0  0
 14  4  1  0  0  0  0
 16 19  1  0  0  0  0
 16 14  1  0  0  0  0
 18 19  2  0  0  0  0
 18 23  1  0  0  0  0
 19 15  1  0  0  0  0
 20 17  1  0  0  0  0
 21 15  1  0  0  0  0
 21 17  2  0  0  0  0
 22 20  1  0  0  0  0
 23 22  2  0  0  0  0
 23 21  1  0  0  0  0
 24 22  1  0  0  0  0
 25 24  2  0  0  0  0
 26 24  1  0  0  0  0
 28 27  1  6  0  0  0
 29 28  1  0  0  0  0
 30 29  1  0  0  0  0
 31 38  1  6  0  0  0
 31 33  1  0  0  0  0
 32 37  1  0  0  0  0
 32 35  1  0  0  0  0
 33 34  2  0  0  0  0
 35 30  1  6  0  0  0
 35 33  1  0  0  0  0
 36 32  2  0  0  0  0
 37 39  1  6  0  0  0
 37 31  1  0  0  0  0
 40 39  1  0  0  0  0
 41 42  1  0  0  0  0
 42 43  1  0  0  0  0
 43 45  1  0  0  0  0
 45 46  1  0  0  0  0
 45 44  1  1  0  0  0
 46 47  1  0  0  0  0
 47 49  1  0  0  0  0
 48 50  1  0  0  0  0
 48 51  1  0  0  0  0
 49 48  2  0  0  0  0
M  END
>  <MODEL>
2

>  <REMARK>
 VINA RESULT:      -7.3      2.943      3.930
  Name = 
  14 active torsions:
  status: ('A' for Active; 'I' for Inactive)
    1  A    between atoms: C_3  and  C_33
    2  A    between atoms: C_3  and  C_47
    3  A    between atoms: C_6  and  C_44
    4  A    between atoms: C_7  and  C_40
    5  A    between atoms: C_12  and  C_44
    6  A    between atoms: C_12  and  C_46
    7  A    between atoms: N_14  and  C_51
    8  A    between atoms: N_18  and  C_33
    9  A    between atoms: C_19  and  C_36
   10  A    between atoms: C_30  and  C_46
   11  A    between atoms: N_37  and  C_39
   12  A    between atoms: C_39  and  C_45
   13  A    between atoms: C_45  and  C_49
   14  A    between atoms: C_47  and  C_49
                            x       y       z     vdW  Elec       q    Type
                         _______ _______ _______ _____ _____    ______ ____

>  <TORSDO>
F 14

$$$$
=
 OpenBabel11032419233D

 51 56  0  0  1  0  0  0  0  0999 V2000
  187.9440  177.1510  136.0660 C   0  0  0  0  0  2  0  0  0  0  0  0
  187.3340  173.5740  137.1620 C   0  0  0  0  0  3  0  0  0  0  0  0
  190.4790  176.4270  136.6510 C   0  0  1  0  0  3  0  0  0  0  0  0
  184.9510  173.2590  137.3990 C   0  0  0  0  0  3  0  0  0  0  0  0
  186.2460  172.7420  137.4320 C   0  0  0  0  0  3  0  0  0  0  0  0
  189.5320  175.3090  136.6680 N   0  0  0  0  0  2  0  0  0  0  0  0
  187.1130  174.9220  136.8530 C   0  0  0  0  0  0  0  0  0  0  0  0
  189.3950  178.2590  138.0340 C   0  0  1  0  0  3  0  0  0  0  0  0
  188.2140  175.7940  136.5540 N   0  0  0  0  0  0  0  0  0  0  0  0
  188.0510  177.7350  138.5480 C   0  0  0  0  0  2  0  0  0  0  0  0
  190.4140  177.1870  137.9100 N   0  0  0  0  0  0  0  0  0  0  0  0
  185.8370  175.4010  136.8330 N   0  0  0  0  0  0  0  0  0  0  0  0
  188.1420  178.2490  137.1250 C   0  0  2  0  0  3  0  0  0  0  0  0
  184.7610  174.6110  137.1040 C   0  0  0  0  0  0  0  0  0  0  0  0
  183.9570  177.4720  138.0570 C   0  0  0  0  0  2  0  0  0  0  0  0
  183.4310  175.1390  137.0660 N   0  0  0  0  0  2  0  0  0  0  0  0
  183.1200  179.5890  139.1650 C   0  0  0  0  0  3  0  0  0  0  0  0
  181.8360  176.9010  137.2510 N   0  0  0  0  0  0  0  0  0  0  0  0
  183.0630  176.4850  137.3890 C   0  0  0  0  0  0  0  0  0  0  0  0
  181.8070  179.8340  139.3090 C   0  0  0  0  0  2  0  0  0  0  0  0
  183.1960  178.5470  138.1530 C   0  0  0  0  0  0  0  0  0  0  0  0
  181.0300  178.9310  138.4250 C   0  0  0  0  0  0  0  0  0  0  0  0
  181.9030  178.2350  137.7200 C   0  0  0  0  0  0  0  0  0  0  0  0
  179.5860  178.6770  138.5140 C   0  0  0  0  0  0  0  0  0  0  0  0
  178.9310  178.3950  137.4760 O   0  0  0  0  0  0  0  0  0  0  0  0
  178.9320  178.7410  139.7400 O   0  0  0  0  0  1  0  0  0  0  0  0
  192.2630  176.1580  135.0710 O   0  0  0  0  0  1  0  0  0  0  0  0
  191.8980  175.9160  136.3970 C   0  0  2  0  0  3  0  0  0  0  0  0
  191.9960  174.4280  136.6820 C   0  0  0  0  0  2  0  0  0  0  0  0
  193.3450  174.1100  137.3040 C   0  0  0  0  0  2  0  0  0  0  0  0
  196.4890  172.6010  136.6030 C   0  0  1  0  0  3  0  0  0  0  0  0
  195.5370  174.7950  136.3830 C   0  0  0  0  0  0  0  0  0  0  0  0
  195.0130  172.5550  136.3650 C   0  0  0  0  0  0  0  0  0  0  0  0
  194.3910  171.5080  136.2750 O   0  0  0  0  0  0  0  0  0  0  0  0
  194.3720  173.8850  136.2060 C   0  0  1  0  0  3  0  0  0  0  0  0
  195.4510  176.0080  136.2580 O   0  0  0  0  0  0  0  0  0  0  0  0
  196.8350  174.1010  136.6720 C   0  0  1  0  0  3  0  0  0  0  0  0
  196.8050  171.9200  137.7830 O   0  0  0  0  0  1  0  0  0  0  0  0
  197.3870  174.5380  138.0270 C   0  0  0  0  0  2  0  0  0  0  0  0
  198.7470  174.8320  137.9180 O   0  0  0  0  0  1  0  0  0  0  0  0
  190.5110  176.3470  139.1090 C   0  0  0  0  0  2  0  0  0  0  0  0
  190.8790  177.2130  140.2980 C   0  0  0  0  0  2  0  0  0  0  0  0
  190.1040  176.7620  141.5270 C   0  0  0  0  0  2  0  0  0  0  0  0
  191.7790  176.6360  143.2370 O   0  0  0  0  0  1  0  0  0  0  0  0
  190.6760  177.3730  142.8010 C   0  0  2  0  0  3  0  0  0  0  0  0
  189.6150  177.4370  143.8920 C   0  0  0  0  0  2  0  0  0  0  0  0
  188.2220  177.3210  143.2910 C   0  0  0  0  0  2  0  0  0  0  0  0
  186.0490  178.1240  143.9660 C   0  0  0  0  0  0  0  0  0  0  0  0
  187.2280  177.6950  144.2710 N   0  0  0  0  0  0  0  0  0  0  0  0
  185.1040  178.4780  145.0590 C   0  0  0  0  0  1  0  0  0  0  0  0
  185.6010  178.2960  142.5450 C   0  0  0  0  0  1  0  0  0  0  0  0
  1  9  1  0  0  0  0
  2  5  1  0  0  0  0
  3 28  1  1  0  0  0
  3  6  1  0  0  0  0
  3 11  1  0  0  0  0
  4  5  2  0  0  0  0
  7  2  2  0  0  0  0
  8 10  1  1  0  0  0
  9  6  1  0  0  0  0
  9  7  1  0  0  0  0
 11  8  1  0  0  0  0
 11 41  1  0  0  0  0
 12  7  1  0  0  0  0
 12 14  2  0  0  0  0
 13  1  1  6  0  0  0
 13  8  1  0  0  0  0
 13 10  1  0  0  0  0
 14  4  1  0  0  0  0
 15 21  1  0  0  0  0
 16 14  1  0  0  0  0
 16 19  1  0  0  0  0
 17 20  1  0  0  0  0
 18 19  2  0  0  0  0
 18 23  1  0  0  0  0
 19 15  1  0  0  0  0
 21 17  2  0  0  0  0
 22 24  1  0  0  0  0
 22 20  1  0  0  0  0
 23 21  1  0  0  0  0
 23 22  2  0  0  0  0
 24 26  1  0  0  0  0
 25 24  2  0  0  0  0
 28 27  1  6  0  0  0
 28 29  1  0  0  0  0
 29 30  1  0  0  0  0
 31 37  1  0  0  0  0
 31 38  1  1  0  0  0
 32 37  1  0  0  0  0
 33 31  1  0  0  0  0
 34 33  2  0  0  0  0
 35 33  1  0  0  0  0
 35 32  1  0  0  0  0
 35 30  1  1  0  0  0
 36 32  2  0  0  0  0
 37 39  1  1  0  0  0
 40 39  1  0  0  0  0
 41 42  1  0  0  0  0
 42 43  1  0  0  0  0
 43 45  1  0  0  0  0
 45 44  1  1  0  0  0
 45 46  1  0  0  0  0
 47 46  1  0  0  0  0
 47 49  1  0  0  0  0
 48 49  2  0  0  0  0
 48 50  1  0  0  0  0
 51 48  1  0  0  0  0
M  END
>  <MODEL>
3

>  <REMARK>
 VINA RESULT:      -7.1      1.988      2.985
  Name = 
  14 active torsions:
  status: ('A' for Active; 'I' for Inactive)
    1  A    between atoms: C_3  and  C_33
    2  A    between atoms: C_3  and  C_47
    3  A    between atoms: C_6  and  C_44
    4  A    between atoms: C_7  and  C_40
    5  A    between atoms: C_12  and  C_44
    6  A    between atoms: C_12  and  C_46
    7  A    between atoms: N_14  and  C_51
    8  A    between atoms: N_18  and  C_33
    9  A    between atoms: C_19  and  C_36
   10  A    between atoms: C_30  and  C_46
   11  A    between atoms: N_37  and  C_39
   12  A    between atoms: C_39  and  C_45
   13  A    between atoms: C_45  and  C_49
   14  A    between atoms: C_47  and  C_49
                            x       y       z     vdW  Elec       q    Type
                         _______ _______ _______ _____ _____    ______ ____

>  <TORSDO>
F 14

$$$$
=
 OpenBabel11032419233D

 51 56  0  0  1  0  0  0  0  0999 V2000
  184.2410  176.8010  139.3280 C   0  0  0  0  0  2  0  0  0  0  0  0
  186.2690  178.5450  136.6420 C   0  0  0  0  0  3  0  0  0  0  0  0
  182.2290  177.7230  137.7810 C   0  0  1  0  0  3  0  0  0  0  0  0
  188.5650  178.6470  137.3850 C   0  0  0  0  0  3  0  0  0  0  0  0
  187.6010  178.8890  136.4060 C   0  0  0  0  0  3  0  0  0  0  0  0
  183.5540  177.8900  137.1790 N   0  0  0  0  0  2  0  0  0  0  0  0
  185.9140  177.9520  137.8610 C   0  0  0  0  0  0  0  0  0  0  0  0
  182.4400  178.6140  140.1490 C   0  0  1  0  0  3  0  0  0  0  0  0
  184.5530  177.5740  138.1210 N   0  0  0  0  0  0  0  0  0  0  0  0
  183.8750  179.1140  140.3430 C   0  0  0  0  0  2  0  0  0  0  0  0
  181.9600  178.7940  138.7560 N   0  0  0  0  0  0  0  0  0  0  0  0
  186.8760  177.7330  138.8010 N   0  0  0  0  0  0  0  0  0  0  0  0
  183.5940  177.6280  140.4520 C   0  0  2  0  0  3  0  0  0  0  0  0
  188.1800  178.0700  138.5970 C   0  0  0  0  0  0  0  0  0  0  0  0
  187.5770  177.6740  141.6340 C   0  0  0  0  0  2  0  0  0  0  0  0
  189.1710  177.8180  139.5990 N   0  0  0  0  0  2  0  0  0  0  0  0
  187.2650  177.7450  144.1450 C   0  0  0  0  0  3  0  0  0  0  0  0
  189.8670  177.2260  141.8010 N   0  0  0  0  0  0  0  0  0  0  0  0
  188.9040  177.5190  140.9750 C   0  0  0  0  0  0  0  0  0  0  0  0
  188.3150  177.7810  144.9820 C   0  0  0  0  0  2  0  0  0  0  0  0
  187.8150  177.2950  142.8760 C   0  0  0  0  0  0  0  0  0  0  0  0
  189.5480  177.3940  144.2540 C   0  0  0  0  0  0  0  0  0  0  0  0
  189.1850  177.0580  143.0300 C   0  0  0  0  0  0  0  0  0  0  0  0
  190.9240  177.6020  144.7260 C   0  0  0  0  0  0  0  0  0  0  0  0
  191.4630  176.7570  145.4880 O   0  0  0  0  0  1  0  0  0  0  0  0
  191.6430  178.7260  144.3330 O   0  0  0  0  0  0  0  0  0  0  0  0
  179.9330  177.2920  137.2420 O   0  0  0  0  0  1  0  0  0  0  0  0
  181.1530  177.6940  136.6950 C   0  0  2  0  0  3  0  0  0  0  0  0
  181.5400  176.7440  135.5750 C   0  0  0  0  0  2  0  0  0  0  0  0
  180.8700  175.3980  135.7890 C   0  0  0  0  0  2  0  0  0  0  0  0
  181.9810  172.0220  135.9410 C   0  0  1  0  0  3  0  0  0  0  0  0
  181.0960  173.6230  137.4980 C   0  0  0  0  0  0  0  0  0  0  0  0
  182.3360  173.4260  135.5700 C   0  0  0  0  0  0  0  0  0  0  0  0
  183.0180  173.6990  134.5940 O   0  0  0  0  0  0  0  0  0  0  0  0
  181.8280  174.4590  136.5070 C   0  0  1  0  0  3  0  0  0  0  0  0
  180.5710  174.0920  138.4970 O   0  0  0  0  0  0  0  0  0  0  0  0
  181.1030  172.1530  137.2010 C   0  0  1  0  0  3  0  0  0  0  0  0
  181.3130  171.4000  134.8810 O   0  0  0  0  0  1  0  0  0  0  0  0
  179.6780  171.6370  137.0080 C   0  0  0  0  0  2  0  0  0  0  0  0
  178.9410  172.5410  136.2430 O   0  0  0  0  0  1  0  0  0  0  0  0
  182.2070  180.1420  138.2330 C   0  0  0  0  0  2  0  0  0  0  0  0
  181.1630  181.0920  138.7840 C   0  0  0  0  0  2  0  0  0  0  0  0
  179.7790  180.4760  138.6470 C   0  0  0  0  0  2  0  0  0  0  0  0
  179.2120  181.9930  140.4150 O   0  0  0  0  0  1  0  0  0  0  0  0
  178.9310  180.7310  139.8880 C   0  0  2  0  0  3  0  0  0  0  0  0
  179.1700  179.6520  140.9360 C   0  0  0  0  0  2  0  0  0  0  0  0
  179.3740  180.2740  142.3090 C   0  0  0  0  0  2  0  0  0  0  0  0
  181.0530  179.0790  143.5650 C   0  0  0  0  0  0  0  0  0  0  0  0
  180.7250  180.0370  142.7640 N   0  0  0  0  0  0  0  0  0  0  0  0
  182.4770  178.9280  143.9660 C   0  0  0  0  0  1  0  0  0  0  0  0
  180.0430  178.1210  144.1220 C   0  0  0  0  0  1  0  0  0  0  0  0
  2  7  2  0  0  0  0
  3 28  1  6  0  0  0
  3 11  1  0  0  0  0
  4 14  1  0  0  0  0
  5  2  1  0  0  0  0
  5  4  2  0  0  0  0
  6  3  1  0  0  0  0
  6  9  1  0  0  0  0
  7  9  1  0  0  0  0
  7 12  1  0  0  0  0
  8 10  1  6  0  0  0
  8 13  1  0  0  0  0
  9  1  1  0  0  0  0
 10 13  1  0  0  0  0
 11  8  1  0  0  0  0
 13  1  1  6  0  0  0
 14 12  2  0  0  0  0
 14 16  1  0  0  0  0
 15 21  1  0  0  0  0
 16 19  1  0  0  0  0
 17 20  1  0  0  0  0
 18 23  1  0  0  0  0
 19 15  1  0  0  0  0
 19 18  2  0  0  0  0
 21 23  1  0  0  0  0
 21 17  2  0  0  0  0
 22 24  1  0  0  0  0
 22 20  1  0  0  0  0
 23 22  2  0  0  0  0
 24 25  1  0  0  0  0
 26 24  2  0  0  0  0
 28 27  1  1  0  0  0
 29 30  1  0  0  0  0
 29 28  1  0  0  0  0
 31 38  1  6  0  0  0
 31 37  1  0  0  0  0
 32 36  2  0  0  0  0
 33 31  1  0  0  0  0
 33 35  1  0  0  0  0
 34 33  2  0  0  0  0
 35 30  1  6  0  0  0
 35 32  1  0  0  0  0
 37 39  1  6  0  0  0
 37 32  1  0  0  0  0
 40 39  1  0  0  0  0
 41 11  1  0  0  0  0
 41 42  1  0  0  0  0
 43 42  1  0  0  0  0
 43 45  1  0  0  0  0
 45 44  1  1  0  0  0
 45 46  1  0  0  0  0
 46 47  1  0  0  0  0
 47 49  1  0  0  0  0
 48 50  1  0  0  0  0
 48 51  1  0  0  0  0
 49 48  2  0  0  0  0
M  END
>  <MODEL>
4

>  <REMARK>
 VINA RESULT:      -6.6      4.543      9.838
  Name = 
  14 active torsions:
  status: ('A' for Active; 'I' for Inactive)
    1  A    between atoms: C_3  and  C_33
    2  A    between atoms: C_3  and  C_47
    3  A    between atoms: C_6  and  C_44
    4  A    between atoms: C_7  and  C_40
    5  A    between atoms: C_12  and  C_44
    6  A    between atoms: C_12  and  C_46
    7  A    between atoms: N_14  and  C_51
    8  A    between atoms: N_18  and  C_33
    9  A    between atoms: C_19  and  C_36
   10  A    between atoms: C_30  and  C_46
   11  A    between atoms: N_37  and  C_39
   12  A    between atoms: C_39  and  C_45
   13  A    between atoms: C_45  and  C_49
   14  A    between atoms: C_47  and  C_49
                            x       y       z     vdW  Elec       q    Type
                         _______ _______ _______ _____ _____    ______ ____

>  <TORSDO>
F 14

$$$$
=
 OpenBabel11032419233D

 51 56  0  0  1  0  0  0  0  0999 V2000
  188.2560  178.9870  137.3090 C   0  0  0  0  0  2  0  0  0  0  0  0
  188.8330  177.3200  140.6650 C   0  0  0  0  0  3  0  0  0  0  0  0
  185.6910  178.6450  138.0820 C   0  0  1  0  0  3  0  0  0  0  0  0
  191.1700  176.7270  140.8140 C   0  0  0  0  0  3  0  0  0  0  0  0
  189.9010  176.7920  141.3910 C   0  0  0  0  0  3  0  0  0  0  0  0
  186.6650  178.3420  139.1340 N   0  0  0  0  0  2  0  0  0  0  0  0
  189.0470  177.7870  139.3610 C   0  0  0  0  0  0  0  0  0  0  0  0
  186.5080  177.4070  136.0220 C   0  0  1  0  0  3  0  0  0  0  0  0
  187.9680  178.3500  138.5990 N   0  0  0  0  0  0  0  0  0  0  0  0
  187.7850  176.6490  136.3970 C   0  0  0  0  0  2  0  0  0  0  0  0
  185.5550  177.5090  137.1550 N   0  0  0  0  0  0  0  0  0  0  0  0
  190.2960  177.7050  138.8210 N   0  0  0  0  0  0  0  0  0  0  0  0
  187.8740  178.1300  136.0890 C   0  0  2  0  0  3  0  0  0  0  0  0
  191.3510  177.1840  139.5070 C   0  0  0  0  0  0  0  0  0  0  0  0
  192.3260  174.9260  137.5860 C   0  0  0  0  0  2  0  0  0  0  0  0
  192.6540  177.1210  138.9170 N   0  0  0  0  0  2  0  0  0  0  0  0
  193.3580  172.9640  136.3640 C   0  0  0  0  0  3  0  0  0  0  0  0
  194.2630  176.2250  137.4040 N   0  0  0  0  0  0  0  0  0  0  0  0
  193.0810  176.1590  137.9450 C   0  0  0  0  0  0  0  0  0  0  0  0
  194.6760  172.9090  136.1100 C   0  0  0  0  0  3  0  0  0  0  0  0
  193.0960  174.3600  136.6740 C   0  0  2  0  0  3  0  0  0  0  0  0
  195.2760  174.2530  136.2930 C   0  0  0  0  0  0  0  0  0  0  0  0
  194.2870  175.0850  136.5660 C   0  0  0  0  0  0  0  0  0  0  0  0
  196.7120  174.5430  136.4090 C   0  0  0  0  0  0  0  0  0  0  0  0
  197.4440  174.5180  135.3860 O   0  0  0  0  0  0  0  0  0  0  0  0
  197.2720  174.8520  137.6450 O   0  0  0  0  0  1  0  0  0  0  0  0
  184.1790  180.3950  138.7140 O   0  0  0  0  0  1  0  0  0  0  0  0
  184.3390  179.0080  138.6990 C   0  0  2  0  0  3  0  0  0  0  0  0
  184.2310  178.4740  140.1170 C   0  0  0  0  0  2  0  0  0  0  0  0
  183.0570  177.5170  140.2180 C   0  0  0  0  0  2  0  0  0  0  0  0
  179.5580  177.8490  140.7640 C   0  0  1  0  0  3  0  0  0  0  0  0
  180.9690  177.2310  138.9220 C   0  0  0  0  0  0  0  0  0  0  0  0
  180.8890  178.5280  140.8210 C   0  0  0  0  0  0  0  0  0  0  0  0
  181.1910  179.3180  141.7020 O   0  0  0  0  0  0  0  0  0  0  0  0
  181.8000  178.1940  139.6970 C   0  0  1  0  0  3  0  0  0  0  0  0
  181.3330  176.7540  137.8570 O   0  0  0  0  0  0  0  0  0  0  0  0
  179.6280  176.9370  139.5240 C   0  0  1  0  0  3  0  0  0  0  0  0
  179.3330  177.1360  141.9460 O   0  0  0  0  0  1  0  0  0  0  0  0
  179.5010  175.4510  139.8530 C   0  0  0  0  0  2  0  0  0  0  0  0
  180.7590  174.9110  140.1230 O   0  0  0  0  0  1  0  0  0  0  0  0
  185.3210  176.2260  137.8270 C   0  0  0  0  0  2  0  0  0  0  0  0
  184.4120  175.3690  136.9690 C   0  0  0  0  0  2  0  0  0  0  0  0
  183.8300  174.2360  137.8000 C   0  0  0  0  0  2  0  0  0  0  0  0
  183.9460  171.9910  136.9690 O   0  0  0  0  0  1  0  0  0  0  0  0
  183.1960  173.1670  136.9180 C   0  0  2  0  0  3  0  0  0  0  0  0
  183.0720  173.6560  135.4810 C   0  0  0  0  0  2  0  0  0  0  0  0
  181.6130  173.6850  135.0500 C   0  0  0  0  0  2  0  0  0  0  0  0
  179.7700  172.6960  136.2530 C   0  0  0  0  0  0  0  0  0  0  0  0
  180.9000  172.5750  135.6420 N   0  0  0  0  0  0  0  0  0  0  0  0
  179.1230  171.4830  136.8230 C   0  0  0  0  0  1  0  0  0  0  0  0
  179.0900  174.0210  136.4270 C   0  0  0  0  0  1  0  0  0  0  0  0
  1  9  1  0  0  0  0
  2  5  1  0  0  0  0
  3 28  1  1  0  0  0
  3  6  1  0  0  0  0
  4  5  2  0  0  0  0
  7  2  2  0  0  0  0
  8 13  1  0  0  0  0
  8 10  1  1  0  0  0
  8 11  1  0  0  0  0
  9  6  1  0  0  0  0
  9  7  1  0  0  0  0
 11 41  1  0  0  0  0
 11  3  1  0  0  0  0
 12  7  1  0  0  0  0
 12 14  2  0  0  0  0
 13 10  1  1  0  0  0
 13  1  1  0  0  0  0
 14  4  1  0  0  0  0
 15 19  1  0  0  0  0
 16 14  1  0  0  0  0
 18 19  2  0  0  0  0
 19 16  1  0  0  0  0
 20 22  1  0  0  0  0
 20 17  2  0  0  0  0
 21 17  1  1  0  0  0
 21 15  1  0  0  0  0
 22 24  1  0  0  0  0
 22 23  2  0  0  0  0
 23 21  1  0  0  0  0
 23 18  1  0  0  0  0
 24 26  1  0  0  0  0
 25 24  2  0  0  0  0
 28 27  1  1  0  0  0
 28 29  1  0  0  0  0
 29 30  1  0  0  0  0
 31 33  1  0  0  0  0
 31 38  1  1  0  0  0
 32 37  1  0  0  0  0
 32 35  1  0  0  0  0
 33 34  2  0  0  0  0
 35 30  1  1  0  0  0
 35 33  1  0  0  0  0
 36 32  2  0  0  0  0
 37 39  1  1  0  0  0
 37 31  1  0  0  0  0
 39 40  1  0  0  0  0
 42 43  1  0  0  0  0
 42 41  1  0  0  0  0
 45 44  1  6  0  0  0
 45 43  1  0  0  0  0
 46 45  1  0  0  0  0
 47 46  1  0  0  0  0
 47 49  1  0  0  0  0
 48 51  1  0  0  0  0
 48 50  1  0  0  0  0
 49 48  2  0  0  0  0
M  END
>  <MODEL>
5

>  <REMARK>
 VINA RESULT:      -6.4      2.863     11.731
  Name = 
  14 active torsions:
  status: ('A' for Active; 'I' for Inactive)
    1  A    between atoms: C_3  and  C_33
    2  A    between atoms: C_3  and  C_47
    3  A    between atoms: C_6  and  C_44
    4  A    between atoms: C_7  and  C_40
    5  A    between atoms: C_12  and  C_44
    6  A    between atoms: C_12  and  C_46
    7  A    between atoms: N_14  and  C_51
    8  A    between atoms: N_18  and  C_33
    9  A    between atoms: C_19  and  C_36
   10  A    between atoms: C_30  and  C_46
   11  A    between atoms: N_37  and  C_39
   12  A    between atoms: C_39  and  C_45
   13  A    between atoms: C_45  and  C_49
   14  A    between atoms: C_47  and  C_49
                            x       y       z     vdW  Elec       q    Type
                         _______ _______ _______ _____ _____    ______ ____

>  <TORSDO>
F 14

$$$$
=
 OpenBabel11032419233D

 51 56  0  0  1  0  0  0  0  0999 V2000
  188.1140  179.0260  136.9970 C   0  0  0  0  0  2  0  0  0  0  0  0
  189.0070  177.1830  140.1860 C   0  0  0  0  0  3  0  0  0  0  0  0
  185.6320  178.6050  137.9760 C   0  0  1  0  0  3  0  0  0  0  0  0
  191.3520  176.6160  140.0920 C   0  0  0  0  0  3  0  0  0  0  0  0
  190.1410  176.6300  140.7830 C   0  0  0  0  0  3  0  0  0  0  0  0
  186.7000  178.2590  138.9170 N   0  0  0  0  0  2  0  0  0  0  0  0
  189.0980  177.7250  138.8970 C   0  0  0  0  0  0  0  0  0  0  0  0
  186.2710  177.4960  135.7840 C   0  0  1  0  0  3  0  0  0  0  0  0
  187.9490  178.3140  138.2690 N   0  0  0  0  0  0  0  0  0  0  0  0
  187.5840  176.7370  135.9990 C   0  0  0  0  0  2  0  0  0  0  0  0
  185.4230  177.5210  137.0010 N   0  0  0  0  0  0  0  0  0  0  0  0
  190.2940  177.6910  138.2440 N   0  0  0  0  0  0  0  0  0  0  0  0
  187.6320  178.2340  135.7690 C   0  0  2  0  0  3  0  0  0  0  0  0
  191.4110  177.1480  138.8020 C   0  0  0  0  0  0  0  0  0  0  0  0
  192.9500  174.5690  137.9530 C   0  0  0  0  0  2  0  0  0  0  0  0
  192.6560  177.1360  138.0950 N   0  0  0  0  0  2  0  0  0  0  0  0
  194.4760  172.5850  137.5770 C   0  0  0  0  0  3  0  0  0  0  0  0
  194.4110  176.0580  136.8950 N   0  0  0  0  0  0  0  0  0  0  0  0
  193.3170  175.9680  137.5970 C   0  0  0  0  0  0  0  0  0  0  0  0
  195.7430  172.7430  137.1610 C   0  0  0  0  0  3  0  0  0  0  0  0
  193.8230  173.8480  137.2740 C   0  0  2  0  0  3  0  0  0  0  0  0
  195.9260  174.1140  136.6260 C   0  0  0  0  0  0  0  0  0  0  0  0
  194.7450  174.7030  136.6600 C   0  0  0  0  0  0  0  0  0  0  0  0
  197.2150  174.7670  136.3620 C   0  0  0  0  0  0  0  0  0  0  0  0
  197.4840  175.8710  136.9050 O   0  0  0  0  0  1  0  0  0  0  0  0
  198.1490  174.1720  135.5200 O   0  0  0  0  0  0  0  0  0  0  0  0
  184.1360  180.2950  138.7860 O   0  0  0  0  0  1  0  0  0  0  0  0
  184.3390  178.9150  138.7310 C   0  0  2  0  0  3  0  0  0  0  0  0
  184.3910  178.3570  140.1430 C   0  0  0  0  0  2  0  0  0  0  0  0
  183.2230  177.4130  140.3670 C   0  0  0  0  0  2  0  0  0  0  0  0
  179.7330  177.6440  141.0170 C   0  0  1  0  0  3  0  0  0  0  0  0
  181.1070  177.1120  139.1200 C   0  0  0  0  0  0  0  0  0  0  0  0
  181.0490  178.3530  141.0570 C   0  0  0  0  0  0  0  0  0  0  0  0
  181.3570  179.1260  141.9510 O   0  0  0  0  0  0  0  0  0  0  0  0
  181.9350  178.0730  139.8990 C   0  0  1  0  0  3  0  0  0  0  0  0
  181.4520  176.6740  138.0330 O   0  0  0  0  0  0  0  0  0  0  0  0
  179.7900  176.7680  139.7500 C   0  0  1  0  0  3  0  0  0  0  0  0
  179.5580  176.8930  142.1840 O   0  0  0  0  0  1  0  0  0  0  0  0
  179.7080  175.2710  140.0390 C   0  0  0  0  0  2  0  0  0  0  0  0
  179.3560  174.5780  138.8810 O   0  0  0  0  0  1  0  0  0  0  0  0
  185.2630  176.1990  137.6170 C   0  0  0  0  0  2  0  0  0  0  0  0
  184.2450  175.4000  136.8290 C   0  0  0  0  0  2  0  0  0  0  0  0
  183.8250  174.1710  137.6220 C   0  0  0  0  0  2  0  0  0  0  0  0
  183.0050  171.9560  137.2140 O   0  0  0  0  0  1  0  0  0  0  0  0
  183.9360  172.9030  136.7830 C   0  0  2  0  0  3  0  0  0  0  0  0
  185.3460  172.3320  136.8510 C   0  0  0  0  0  2  0  0  0  0  0  0
  185.9200  172.1550  135.4530 C   0  0  0  0  0  2  0  0  0  0  0  0
  188.3180  172.1810  135.1870 C   0  0  0  0  0  0  0  0  0  0  0  0
  187.2050  172.8110  135.3580 N   0  0  0  0  0  0  0  0  0  0  0  0
  189.5830  172.9590  135.1010 C   0  0  0  0  0  1  0  0  0  0  0  0
  188.3870  170.6860  135.0880 C   0  0  0  0  0  1  0  0  0  0  0  0
  1  9  1  0  0  0  0
  2  5  1  0  0  0  0
  3 28  1  1  0  0  0
  3  6  1  0  0  0  0
  4  5  2  0  0  0  0
  7  2  2  0  0  0  0
  8 10  1  1  0  0  0
  8 11  1  0  0  0  0
  9  7  1  0  0  0  0
  9  6  1  0  0  0  0
 11 41  1  0  0  0  0
 11  3  1  0  0  0  0
 12 14  2  0  0  0  0
 12  7  1  0  0  0  0
 13  8  1  0  0  0  0
 13 10  1  1  0  0  0
 13  1  1  0  0  0  0
 14  4  1  0  0  0  0
 16 14  1  0  0  0  0
 18 19  2  0  0  0  0
 19 15  1  0  0  0  0
 19 16  1  0  0  0  0
 20 17  2  0  0  0  0
 21 17  1  1  0  0  0
 21 15  1  0  0  0  0
 22 23  2  0  0  0  0
 22 20  1  0  0  0  0
 23 18  1  0  0  0  0
 23 21  1  0  0  0  0
 24 22  1  0  0  0  0
 24 25  1  0  0  0  0
 26 24  2  0  0  0  0
 28 27  1  1  0  0  0
 28 29  1  0  0  0  0
 29 30  1  0  0  0  0
 31 33  1  0  0  0  0
 31 38  1  1  0  0  0
 32 37  1  0  0  0  0
 32 35  1  0  0  0  0
 33 34  2  0  0  0  0
 35 30  1  1  0  0  0
 35 33  1  0  0  0  0
 36 32  2  0  0  0  0
 37 39  1  1  0  0  0
 37 31  1  0  0  0  0
 40 39  1  0  0  0  0
 42 41  1  0  0  0  0
 42 43  1  0  0  0  0
 45 46  1  0  0  0  0
 45 44  1  1  0  0  0
 45 43  1  0  0  0  0
 47 46  1  0  0  0  0
 48 49  2  0  0  0  0
 49 47  1  0  0  0  0
 50 48  1  0  0  0  0
 51 48  1  0  0  0  0
M  END
>  <MODEL>
6

>  <REMARK>
 VINA RESULT:      -6.1      2.796     11.581
  Name = 
  14 active torsions:
  status: ('A' for Active; 'I' for Inactive)
    1  A    between atoms: C_3  and  C_33
    2  A    between atoms: C_3  and  C_47
    3  A    between atoms: C_6  and  C_44
    4  A    between atoms: C_7  and  C_40
    5  A    between atoms: C_12  and  C_44
    6  A    between atoms: C_12  and  C_46
    7  A    between atoms: N_14  and  C_51
    8  A    between atoms: N_18  and  C_33
    9  A    between atoms: C_19  and  C_36
   10  A    between atoms: C_30  and  C_46
   11  A    between atoms: N_37  and  C_39
   12  A    between atoms: C_39  and  C_45
   13  A    between atoms: C_45  and  C_49
   14  A    between atoms: C_47  and  C_49
                            x       y       z     vdW  Elec       q    Type
                         _______ _______ _______ _____ _____    ______ ____

>  <TORSDO>
F 14

$$$$
=
 OpenBabel11032419233D

 51 56  0  0  1  0  0  0  0  0999 V2000
  186.2050  179.7320  141.6800 C   0  0  0  0  0  2  0  0  0  0  0  0
  183.4330  178.7890  144.0860 C   0  0  0  0  0  3  0  0  0  0  0  0
  184.1490  179.5510  139.9390 C   0  0  1  0  0  3  0  0  0  0  0  0
  184.4400  178.2430  146.2130 C   0  0  0  0  0  3  0  0  0  0  0  0
  183.3020  178.4220  145.4270 C   0  0  0  0  0  3  0  0  0  0  0  0
  183.7370  179.4720  141.3420 N   0  0  0  0  0  2  0  0  0  0  0  0
  184.7110  178.9790  143.5430 C   0  0  0  0  0  0  0  0  0  0  0  0
  186.0790  177.9190  139.7040 C   0  0  1  0  0  3  0  0  0  0  0  0
  184.8710  179.3720  142.1710 N   0  0  0  0  0  0  0  0  0  0  0  0
  186.3110  177.2570  141.0650 C   0  0  0  0  0  2  0  0  0  0  0  0
  184.6520  178.2490  139.4680 N   0  0  0  0  0  0  0  0  0  0  0  0
  185.8050  178.7910  144.3340 N   0  0  0  0  0  0  0  0  0  0  0  0
  186.8710  178.6440  140.8190 C   0  0  2  0  0  3  0  0  0  0  0  0
  185.7020  178.4240  145.6410 C   0  0  0  0  0  0  0  0  0  0  0  0
  188.4890  177.5230  144.5640 C   0  0  0  0  0  2  0  0  0  0  0  0
  186.8690  178.2440  146.4500 N   0  0  0  0  0  2  0  0  0  0  0  0
  190.6630  176.4170  143.8870 C   0  0  0  0  0  3  0  0  0  0  0  0
  189.2040  177.8760  146.7640 N   0  0  0  0  0  0  0  0  0  0  0  0
  188.1820  177.9450  145.9590 C   0  0  0  0  0  0  0  0  0  0  0  0
  191.5750  176.0440  144.8000 C   0  0  0  0  0  2  0  0  0  0  0  0
  189.7990  177.3550  144.5850 C   0  0  0  0  0  0  0  0  0  0  0  0
  191.2840  176.7040  146.0950 C   0  0  0  0  0  0  0  0  0  0  0  0
  190.2620  177.5150  145.8950 C   0  0  0  0  0  0  0  0  0  0  0  0
  191.8530  176.3270  147.3970 C   0  0  0  0  0  0  0  0  0  0  0  0
  192.1000  177.2140  148.2560 O   0  0  0  0  0  1  0  0  0  0  0  0
  192.1160  174.9940  147.6930 O   0  0  0  0  0  0  0  0  0  0  0  0
  183.1720  181.3680  138.7170 O   0  0  0  0  0  1  0  0  0  0  0  0
  182.9850  180.0300  139.0700 C   0  0  2  0  0  3  0  0  0  0  0  0
  181.6650  179.8850  139.8070 C   0  0  0  0  0  2  0  0  0  0  0  0
  180.5420  179.6520  138.8110 C   0  0  0  0  0  2  0  0  0  0  0  0
  179.0050  180.3910  141.9320 C   0  0  1  0  0  3  0  0  0  0  0  0
  179.0380  178.5250  140.4200 C   0  0  0  0  0  0  0  0  0  0  0  0
  179.1900  180.8190  140.5120 C   0  0  0  0  0  0  0  0  0  0  0  0
  179.2880  181.9910  140.1820 O   0  0  0  0  0  0  0  0  0  0  0  0
  179.2030  179.7070  139.5290 C   0  0  1  0  0  3  0  0  0  0  0  0
  178.9310  177.3860  139.9910 O   0  0  0  0  0  0  0  0  0  0  0  0
  178.9590  178.8510  141.8810 C   0  0  1  0  0  3  0  0  0  0  0  0
  180.0560  180.8730  142.7190 O   0  0  0  0  0  1  0  0  0  0  0  0
  180.1010  178.1820  142.6440 C   0  0  0  0  0  2  0  0  0  0  0  0
  179.6780  177.8240  143.9240 O   0  0  0  0  0  1  0  0  0  0  0  0
  183.7480  177.1300  139.7580 C   0  0  0  0  0  2  0  0  0  0  0  0
  183.1230  176.6440  138.4660 C   0  0  0  0  0  2  0  0  0  0  0  0
  184.1960  176.4780  137.4010 C   0  0  0  0  0  2  0  0  0  0  0  0
  183.6610  174.1920  137.8870 O   0  0  0  0  0  1  0  0  0  0  0  0
  184.3730  175.0150  137.0110 C   0  0  2  0  0  3  0  0  0  0  0  0
  185.8470  174.6330  137.0040 C   0  0  0  0  0  2  0  0  0  0  0  0
  186.7060  175.8200  136.5930 C   0  0  0  0  0  2  0  0  0  0  0  0
  188.6290  176.9610  137.5000 C   0  0  0  0  0  0  0  0  0  0  0  0
  187.8460  175.9350  137.4730 N   0  0  0  0  0  0  0  0  0  0  0  0
  189.7740  176.9720  138.4510 C   0  0  0  0  0  1  0  0  0  0  0  0
  188.4370  178.1390  136.5930 C   0  0  0  0  0  1  0  0  0  0  0  0
  1  9  1  0  0  0  0
  2  5  1  0  0  0  0
  3 28  1  6  0  0  0
  3  6  1  0  0  0  0
  5  4  2  0  0  0  0
  6  9  1  0  0  0  0
  7  2  2  0  0  0  0
  7 12  1  0  0  0  0
  8 13  1  0  0  0  0
  8 10  1  1  0  0  0
  9  7  1  0  0  0  0
 11  8  1  0  0  0  0
 11 41  1  0  0  0  0
 11  3  1  0  0  0  0
 12 14  2  0  0  0  0
 13 10  1  1  0  0  0
 13  1  1  0  0  0  0
 14  4  1  0  0  0  0
 14 16  1  0  0  0  0
 15 21  1  0  0  0  0
 15 19  1  0  0  0  0
 17 21  2  0  0  0  0
 17 20  1  0  0  0  0
 19 16  1  0  0  0  0
 19 18  2  0  0  0  0
 20 22  1  0  0  0  0
 21 23  1  0  0  0  0
 22 24  1  0  0  0  0
 23 22  2  0  0  0  0
 23 18  1  0  0  0  0
 24 26  2  0  0  0  0
 24 25  1  0  0  0  0
 28 27  1  1  0  0  0
 28 29  1  0  0  0  0
 30 29  1  0  0  0  0
 31 38  1  1  0  0  0
 32 37  1  0  0  0  0
 33 31  1  0  0  0  0
 34 33  2  0  0  0  0
 35 30  1  1  0  0  0
 35 32  1  0  0  0  0
 35 33  1  0  0  0  0
 36 32  2  0  0  0  0
 37 31  1  0  0  0  0
 37 39  1  1  0  0  0
 39 40  1  0  0  0  0
 42 41  1  0  0  0  0
 43 42  1  0  0  0  0
 45 43  1  0  0  0  0
 45 44  1  1  0  0  0
 46 45  1  0  0  0  0
 47 46  1  0  0  0  0
 47 49  1  0  0  0  0
 48 50  1  0  0  0  0
 49 48  2  0  0  0  0
 51 48  1  0  0  0  0
M  END
>  <MODEL>
7

>  <REMARK>
 VINA RESULT:      -6.0      4.484     10.897
  Name = 
  14 active torsions:
  status: ('A' for Active; 'I' for Inactive)
    1  A    between atoms: C_3  and  C_33
    2  A    between atoms: C_3  and  C_47
    3  A    between atoms: C_6  and  C_44
    4  A    between atoms: C_7  and  C_40
    5  A    between atoms: C_12  and  C_44
    6  A    between atoms: C_12  and  C_46
    7  A    between atoms: N_14  and  C_51
    8  A    between atoms: N_18  and  C_33
    9  A    between atoms: C_19  and  C_36
   10  A    between atoms: C_30  and  C_46
   11  A    between atoms: N_37  and  C_39
   12  A    between atoms: C_39  and  C_45
   13  A    between atoms: C_45  and  C_49
   14  A    between atoms: C_47  and  C_49
                            x       y       z     vdW  Elec       q    Type
                         _______ _______ _______ _____ _____    ______ ____

>  <TORSDO>
F 14

$$$$
=
 OpenBabel11032419233D

 51 56  0  0  1  0  0  0  0  0999 V2000
  186.1970  179.7430  141.5230 C   0  0  0  0  0  2  0  0  0  0  0  0
  183.5260  178.7770  144.0340 C   0  0  0  0  0  3  0  0  0  0  0  0
  184.0750  179.5560  139.8630 C   0  0  1  0  0  3  0  0  0  0  0  0
  184.6190  178.2310  146.1170 C   0  0  0  0  0  3  0  0  0  0  0  0
  183.4500  178.4060  145.3770 C   0  0  0  0  0  3  0  0  0  0  0  0
  183.7180  179.4700  141.2820 N   0  0  0  0  0  2  0  0  0  0  0  0
  184.7810  178.9760  143.4410 C   0  0  0  0  0  0  0  0  0  0  0  0
  186.0030  177.9350  139.5480 C   0  0  1  0  0  3  0  0  0  0  0  0
  184.8850  179.3740  142.0660 N   0  0  0  0  0  0  0  0  0  0  0  0
  186.2920  177.2700  140.8970 C   0  0  0  0  0  2  0  0  0  0  0  0
  184.5660  178.2580  139.3700 N   0  0  0  0  0  0  0  0  0  0  0  0
  185.9060  178.7920  144.1880 N   0  0  0  0  0  0  0  0  0  0  0  0
  186.8340  178.6610  140.6340 C   0  0  2  0  0  3  0  0  0  0  0  0
  185.8570  178.4200  145.4970 C   0  0  0  0  0  0  0  0  0  0  0  0
  188.5870  177.4730  144.3200 C   0  0  0  0  0  2  0  0  0  0  0  0
  187.0560  178.2440  146.2590 N   0  0  0  0  0  2  0  0  0  0  0  0
  190.7210  176.3340  143.5720 C   0  0  0  0  0  3  0  0  0  0  0  0
  189.3980  177.8600  146.4800 N   0  0  0  0  0  0  0  0  0  0  0  0
  188.3430  177.9240  145.7190 C   0  0  0  0  0  0  0  0  0  0  0  0
  191.6680  175.9700  144.4530 C   0  0  0  0  0  2  0  0  0  0  0  0
  189.8960  177.2940  144.2880 C   0  0  0  0  0  0  0  0  0  0  0  0
  191.4380  176.6570  145.7470 C   0  0  0  0  0  0  0  0  0  0  0  0
  190.4150  177.4730  145.5750 C   0  0  0  0  0  0  0  0  0  0  0  0
  192.0580  176.3000  147.0300 C   0  0  0  0  0  0  0  0  0  0  0  0
  192.7450  175.2490  147.1260 O   0  0  0  0  0  0  0  0  0  0  0  0
  191.8980  177.1180  148.1440 O   0  0  0  0  0  1  0  0  0  0  0  0
  183.0220  181.3810  138.7200 O   0  0  0  0  0  1  0  0  0  0  0  0
  182.8750  180.0310  139.0430 C   0  0  2  0  0  3  0  0  0  0  0  0
  181.5810  179.8360  139.8140 C   0  0  0  0  0  2  0  0  0  0  0  0
  180.4590  179.4790  138.8550 C   0  0  0  0  0  2  0  0  0  0  0  0
  178.9330  180.3350  141.9520 C   0  0  1  0  0  3  0  0  0  0  0  0
  179.0090  178.3940  140.5400 C   0  0  0  0  0  0  0  0  0  0  0  0
  179.0890  180.6930  140.5090 C   0  0  0  0  0  0  0  0  0  0  0  0
  179.1470  181.8480  140.1160 O   0  0  0  0  0  0  0  0  0  0  0  0
  179.1270  179.5300  139.5860 C   0  0  1  0  0  3  0  0  0  0  0  0
  178.9320  177.2300  140.1740 O   0  0  0  0  0  0  0  0  0  0  0  0
  178.9360  178.7940  141.9840 C   0  0  1  0  0  3  0  0  0  0  0  0
  179.9770  180.8910  142.6990 O   0  0  0  0  0  1  0  0  0  0  0  0
  180.1060  178.2020  142.7660 C   0  0  0  0  0  2  0  0  0  0  0  0
  179.6860  177.8180  144.0390 O   0  0  0  0  0  1  0  0  0  0  0  0
  183.6810  177.1330  139.6910 C   0  0  0  0  0  2  0  0  0  0  0  0
  183.3390  176.3860  138.4180 C   0  0  0  0  0  2  0  0  0  0  0  0
  182.0570  175.5900  138.6120 C   0  0  0  0  0  2  0  0  0  0  0  0
  179.8160  175.2910  137.8160 O   0  0  0  0  0  1  0  0  0  0  0  0
  181.0350  175.9060  137.5250 C   0  0  2  0  0  3  0  0  0  0  0  0
  181.5440  175.4600  136.1610 C   0  0  0  0  0  2  0  0  0  0  0  0
  181.0860  174.0410  135.8570 C   0  0  0  0  0  2  0  0  0  0  0  0
  182.0740  172.0130  136.7140 C   0  0  0  0  0  0  0  0  0  0  0  0
  182.1790  173.1150  136.0510 N   0  0  0  0  0  0  0  0  0  0  0  0
  183.2660  171.1340  136.8490 C   0  0  0  0  0  1  0  0  0  0  0  0
  180.7930  171.5920  137.3720 C   0  0  0  0  0  1  0  0  0  0  0  0
  1  9  1  0  0  0  0
  2  5  1  0  0  0  0
  3 28  1  6  0  0  0
  3  6  1  0  0  0  0
  5  4  2  0  0  0  0
  6  9  1  0  0  0  0
  7  2  2  0  0  0  0
  7 12  1  0  0  0  0
  8 13  1  0  0  0  0
  8 10  1  1  0  0  0
  9  7  1  0  0  0  0
 11  8  1  0  0  0  0
 11 41  1  0  0  0  0
 11  3  1  0  0  0  0
 12 14  2  0  0  0  0
 13 10  1  1  0  0  0
 13  1  1  0  0  0  0
 14  4  1  0  0  0  0
 14 16  1  0  0  0  0
 15 19  1  0  0  0  0
 17 21  2  0  0  0  0
 17 20  1  0  0  0  0
 19 16  1  0  0  0  0
 19 18  2  0  0  0  0
 20 22  1  0  0  0  0
 21 15  1  0  0  0  0
 21 23  1  0  0  0  0
 22 24  1  0  0  0  0
 23 22  2  0  0  0  0
 23 18  1  0  0  0  0
 24 25  2  0  0  0  0
 24 26  1  0  0  0  0
 28 27  1  1  0  0  0
 28 29  1  0  0  0  0
 30 29  1  0  0  0  0
 31 37  1  0  0  0  0
 31 38  1  1  0  0  0
 32 37  1  0  0  0  0
 33 31  1  0  0  0  0
 34 33  2  0  0  0  0
 35 30  1  1  0  0  0
 35 33  1  0  0  0  0
 35 32  1  0  0  0  0
 36 32  2  0  0  0  0
 37 39  1  1  0  0  0
 39 40  1  0  0  0  0
 42 43  1  0  0  0  0
 42 41  1  0  0  0  0
 45 44  1  1  0  0  0
 45 43  1  0  0  0  0
 46 45  1  0  0  0  0
 47 49  1  0  0  0  0
 47 46  1  0  0  0  0
 48 50  1  0  0  0  0
 48 51  1  0  0  0  0
 49 48  2  0  0  0  0
M  END
>  <MODEL>
8

>  <REMARK>
 VINA RESULT:      -5.8      5.653     11.485
  Name = 
  14 active torsions:
  status: ('A' for Active; 'I' for Inactive)
    1  A    between atoms: C_3  and  C_33
    2  A    between atoms: C_3  and  C_47
    3  A    between atoms: C_6  and  C_44
    4  A    between atoms: C_7  and  C_40
    5  A    between atoms: C_12  and  C_44
    6  A    between atoms: C_12  and  C_46
    7  A    between atoms: N_14  and  C_51
    8  A    between atoms: N_18  and  C_33
    9  A    between atoms: C_19  and  C_36
   10  A    between atoms: C_30  and  C_46
   11  A    between atoms: N_37  and  C_39
   12  A    between atoms: C_39  and  C_45
   13  A    between atoms: C_45  and  C_49
   14  A    between atoms: C_47  and  C_49
                            x       y       z     vdW  Elec       q    Type
                         _______ _______ _______ _____ _____    ______ ____

>  <TORSDO>
F 14

$$$$
=
 OpenBabel11032419233D

 51 56  0  0  1  0  0  0  0  0999 V2000
  186.4880  178.2600  135.9570 C   0  0  0  0  0  2  0  0  0  0  0  0
  184.3940  175.8740  138.0280 C   0  0  0  0  0  3  0  0  0  0  0  0
  188.0400  176.0560  135.7990 C   0  0  1  0  0  3  0  0  0  0  0  0
  182.6700  177.1540  139.1330 C   0  0  0  0  0  3  0  0  0  0  0  0
  183.2650  175.9260  138.8460 C   0  0  0  0  0  3  0  0  0  0  0  0
  186.7320  175.8080  136.4090 N   0  0  0  0  0  2  0  0  0  0  0  0
  184.9180  177.0590  137.4960 C   0  0  0  0  0  0  0  0  0  0  0  0
  188.9650  178.1030  136.9810 C   0  0  1  0  0  3  0  0  0  0  0  0
  186.0690  177.0300  136.6370 N   0  0  0  0  0  0  0  0  0  0  0  0
  187.9450  178.5470  138.0330 C   0  0  0  0  0  2  0  0  0  0  0  0
  188.9730  176.6330  136.7810 N   0  0  0  0  0  0  0  0  0  0  0  0
  184.3190  178.2460  137.7970 N   0  0  0  0  0  0  0  0  0  0  0  0
  187.7200  178.9340  136.5850 C   0  0  2  0  0  3  0  0  0  0  0  0
  183.2230  178.3230  138.6010 C   0  0  0  0  0  0  0  0  0  0  0  0
  181.2300  179.8070  136.7140 C   0  0  0  0  0  2  0  0  0  0  0  0
  182.6090  179.5830  138.8920 N   0  0  0  0  0  2  0  0  0  0  0  0
  179.9410  181.2860  135.1130 C   0  0  0  0  0  3  0  0  0  0  0  0
  181.0460  181.3340  138.4770 N   0  0  0  0  0  0  0  0  0  0  0  0
  181.6060  180.2220  138.0940 C   0  0  0  0  0  0  0  0  0  0  0  0
  179.6640  182.5660  135.4090 C   0  0  0  0  0  3  0  0  0  0  0  0
  180.2910  180.6760  136.3860 C   0  0  2  0  0  3  0  0  0  0  0  0
  179.8690  182.7990  136.8600 C   0  0  0  0  0  0  0  0  0  0  0  0
  180.1800  181.6350  137.3990 C   0  0  0  0  0  0  0  0  0  0  0  0
  179.9670  184.1120  137.5120 C   0  0  0  0  0  0  0  0  0  0  0  0
  180.9340  184.8750  137.2480 O   0  0  0  0  0  0  0  0  0  0  0  0
  178.9960  184.5250  138.4180 O   0  0  0  0  0  1  0  0  0  0  0  0
  188.5950  173.7530  136.1740 O   0  0  0  0  0  1  0  0  0  0  0  0
  188.6040  174.7620  135.2090 C   0  0  2  0  0  3  0  0  0  0  0  0
  190.0240  174.9690  134.7100 C   0  0  0  0  0  2  0  0  0  0  0  0
  190.9920  174.1780  135.5730 C   0  0  0  0  0  2  0  0  0  0  0  0
  194.3330  172.9950  135.8710 C   0  0  1  0  0  3  0  0  0  0  0  0
  193.2670  174.9610  134.9960 C   0  0  0  0  0  0  0  0  0  0  0  0
  192.9610  172.7090  135.3510 C   0  0  0  0  0  0  0  0  0  0  0  0
  192.4700  171.5900  135.3620 O   0  0  0  0  0  0  0  0  0  0  0  0
  192.2580  173.8870  134.7830 C   0  0  1  0  0  3  0  0  0  0  0  0
  193.1050  176.1060  134.6000 O   0  0  0  0  0  0  0  0  0  0  0  0
  194.5210  174.5130  135.6870 C   0  0  1  0  0  3  0  0  0  0  0  0
  194.4310  172.5980  137.2090 O   0  0  0  0  0  1  0  0  0  0  0  0
  194.7100  175.2690  137.0010 C   0  0  0  0  0  2  0  0  0  0  0  0
  193.4710  175.6540  137.5140 O   0  0  0  0  0  1  0  0  0  0  0  0
  189.0400  175.8830  138.0410 C   0  0  0  0  0  2  0  0  0  0  0  0
  190.2980  176.2730  138.7900 C   0  0  0  0  0  2  0  0  0  0  0  0
  189.9980  176.4020  140.2750 C   0  0  0  0  0  2  0  0  0  0  0  0
  192.1770  177.4030  140.3000 O   0  0  0  0  0  1  0  0  0  0  0  0
  190.9410  177.3930  140.9500 C   0  0  2  0  0  3  0  0  0  0  0  0
  191.1170  177.0510  142.4230 C   0  0  0  0  0  2  0  0  0  0  0  0
  190.9280  178.2910  143.2860 C   0  0  0  0  0  2  0  0  0  0  0  0
  190.1450  177.5270  145.4370 C   0  0  0  0  0  0  0  0  0  0  0  0
  189.9070  178.0500  144.2810 N   0  0  0  0  0  0  0  0  0  0  0  0
  189.0160  177.3280  146.3850 C   0  0  0  0  0  1  0  0  0  0  0  0
  191.5180  177.0960  145.8550 C   0  0  0  0  0  1  0  0  0  0  0  0
  1  9  1  0  0  0  0
  2  5  1  0  0  0  0
  3 28  1  1  0  0  0
  3  6  1  0  0  0  0
  3 11  1  0  0  0  0
  5  4  2  0  0  0  0
  6  9  1  0  0  0  0
  7 12  1  0  0  0  0
  7  2  2  0  0  0  0
  8 10  1  1  0  0  0
  9  7  1  0  0  0  0
 11  8  1  0  0  0  0
 11 41  1  0  0  0  0
 12 14  2  0  0  0  0
 13  1  1  6  0  0  0
 13  8  1  0  0  0  0
 13 10  1  0  0  0  0
 14 16  1  0  0  0  0
 14  4  1  0  0  0  0
 15 19  1  0  0  0  0
 17 20  2  0  0  0  0
 19 18  2  0  0  0  0
 19 16  1  0  0  0  0
 20 22  1  0  0  0  0
 21 17  1  6  0  0  0
 21 15  1  0  0  0  0
 21 23  1  0  0  0  0
 22 23  2  0  0  0  0
 22 24  1  0  0  0  0
 23 18  1  0  0  0  0
 24 26  1  0  0  0  0
 25 24  2  0  0  0  0
 28 27  1  1  0  0  0
 29 28  1  0  0  0  0
 29 30  1  0  0  0  0
 31 38  1  1  0  0  0
 32 37  1  0  0  0  0
 33 34  2  0  0  0  0
 33 31  1  0  0  0  0
 35 32  1  0  0  0  0
 35 33  1  0  0  0  0
 35 30  1  1  0  0  0
 36 32  2  0  0  0  0
 37 31  1  0  0  0  0
 37 39  1  1  0  0  0
 39 40  1  0  0  0  0
 41 42  1  0  0  0  0
 42 43  1  0  0  0  0
 43 45  1  0  0  0  0
 45 44  1  6  0  0  0
 45 46  1  0  0  0  0
 46 47  1  0  0  0  0
 47 49  1  0  0  0  0
 48 51  1  0  0  0  0
 48 50  1  0  0  0  0
 49 48  2  0  0  0  0
M  END
>  <MODEL>
9

>  <REMARK>
 VINA RESULT:      -5.6      2.898      3.703
  Name = 
  14 active torsions:
  status: ('A' for Active; 'I' for Inactive)
    1  A    between atoms: C_3  and  C_33
    2  A    between atoms: C_3  and  C_47
    3  A    between atoms: C_6  and  C_44
    4  A    between atoms: C_7  and  C_40
    5  A    between atoms: C_12  and  C_44
    6  A    between atoms: C_12  and  C_46
    7  A    between atoms: N_14  and  C_51
    8  A    between atoms: N_18  and  C_33
    9  A    between atoms: C_19  and  C_36
   10  A    between atoms: C_30  and  C_46
   11  A    between atoms: N_37  and  C_39
   12  A    between atoms: C_39  and  C_45
   13  A    between atoms: C_45  and  C_49
   14  A    between atoms: C_47  and  C_49
                            x       y       z     vdW  Elec       q    Type
                         _______ _______ _______ _____ _____    ______ ____

>  <TORSDO>
F 14

$$$$
