=
 OpenBabel11032419493D

 27 30  0  0  0  0  0  0  0  0999 V2000
  190.0640  176.8250  144.4450 C   0  0  0  0  0  0  0  0  0  0  0  0
  191.3470  176.4410  144.8530 C   0  0  0  0  0  3  0  0  0  0  0  0
  187.4140  178.1680  147.9800 C   0  0  0  0  0  3  0  0  0  0  0  0
  189.1110  177.2680  145.3980 C   0  0  0  0  0  0  0  0  0  0  0  0
  185.5310  178.4290  144.9780 C   0  0  0  0  0  0  0  0  0  0  0  0
  190.7850  176.9190  147.1370 C   0  0  0  0  0  3  0  0  0  0  0  0
  185.1840  178.3650  143.5300 C   0  0  0  0  0  1  0  0  0  0  0  0
  187.8610  177.6260  144.8800 C   0  0  0  0  0  3  0  0  0  0  0  0
  186.7420  178.0900  145.5420 C   0  0  0  0  0  0  0  0  0  0  0  0
  186.5280  178.3380  146.9440 C   0  0  0  0  0  0  0  0  0  0  0  0
  188.7210  177.7110  147.8780 C   0  0  0  0  0  3  0  0  0  0  0  0
  191.7070  176.4880  146.1920 C   0  0  0  0  0  3  0  0  0  0  0  0
  189.4910  177.3130  146.7790 C   0  0  0  0  0  0  0  0  0  0  0  0
  184.6700  178.8410  145.9310 N   0  0  0  0  0  0  0  0  0  0  0  0
  185.2700  178.7860  147.1140 N   0  0  0  0  0  0  0  0  0  0  0  0
  190.3360  177.4550  142.1740 N   0  0  0  0  0  0  0  0  0  0  0  0
  189.7190  176.7670  143.0520 N   0  0  0  0  0  0  0  0  0  0  0  0
  190.5320  176.8690  138.4820 C   0  0  0  0  0  3  0  0  0  0  0  0
  189.2540  177.2750  138.0850 C   0  0  0  0  0  0  0  0  0  0  0  0
  189.9860  177.3900  140.7910 C   0  0  0  0  0  0  0  0  0  0  0  0
  188.3420  177.7450  139.0400 C   0  0  0  0  0  0  0  0  0  0  0  0
  188.9120  177.2100  136.7740 F   0  0  0  0  0  0  0  0  0  0  0  0
  188.7090  177.7940  140.3890 C   0  0  0  0  0  3  0  0  0  0  0  0
  190.8990  176.9270  139.8290 C   0  0  0  0  0  3  0  0  0  0  0  0
  186.9660  178.1590  138.6410 C   0  0  0  0  0  2  0  0  0  0  0  0
  186.3010  178.7060  139.7380 O   0  0  0  0  0  0  0  0  0  0  0  0
  184.9540  178.6700  139.3840 C   0  0  0  0  0  1  0  0  0  0  0  0
  1  2  2  0  0  0  0
  1  4  1  0  0  0  0
  2 12  1  0  0  0  0
  4 13  1  0  0  0  0
  5  9  2  0  0  0  0
  5 14  1  0  0  0  0
  7  5  1  0  0  0  0
  8  4  2  0  0  0  0
  8  9  1  0  0  0  0
  9 10  1  0  0  0  0
 10 15  1  0  0  0  0
 10  3  2  0  0  0  0
 11  3  1  0  0  0  0
 12  6  2  0  0  0  0
 13  6  1  0  0  0  0
 13 11  2  0  0  0  0
 14 15  2  0  0  0  0
 16 17  2  0  0  0  0
 17  1  1  0  0  0  0
 18 24  1  0  0  0  0
 19 18  2  0  0  0  0
 19 21  1  0  0  0  0
 20 16  1  0  0  0  0
 21 23  2  0  0  0  0
 22 19  1  0  0  0  0
 23 20  1  0  0  0  0
 24 20  2  0  0  0  0
 25 21  1  0  0  0  0
 25 26  1  0  0  0  0
 27 26  1  0  0  0  0
M  END
>  <MODEL>
1

>  <REMARK>
 VINA RESULT:     -10.6      0.000      0.000
  Name = 
  4 active torsions:
  status: ('A' for Active; 'I' for Inactive)
    1  A    between atoms: N_2  and  C_13
    2  A    between atoms: C_3  and  N_9
    3  A    between atoms: C_16  and  C_21
    4  A    between atoms: C_21  and  O_22
                            x       y       z     vdW  Elec       q    Type
                         _______ _______ _______ _____ _____    ______ ____

>  <TORSDO>
F 4

$$$$
=
 OpenBabel11032419493D

 27 30  0  0  0  0  0  0  0  0999 V2000
  190.0450  176.8120  144.4780 C   0  0  0  0  0  0  0  0  0  0  0  0
  191.3310  176.4280  144.8720 C   0  0  0  0  0  3  0  0  0  0  0  0
  187.4490  178.2030  148.0340 C   0  0  0  0  0  3  0  0  0  0  0  0
  189.1060  177.2680  145.4390 C   0  0  0  0  0  0  0  0  0  0  0  0
  185.5250  178.4380  145.0550 C   0  0  0  0  0  0  0  0  0  0  0  0
  190.8030  176.9340  147.1590 C   0  0  0  0  0  3  0  0  0  0  0  0
  185.1580  178.3580  143.6130 C   0  0  0  0  0  1  0  0  0  0  0  0
  187.8500  177.6260  144.9340 C   0  0  0  0  0  3  0  0  0  0  0  0
  186.7420  178.1000  145.6060 C   0  0  0  0  0  0  0  0  0  0  0  0
  186.5490  178.3650  147.0080 C   0  0  0  0  0  0  0  0  0  0  0  0
  188.7520  177.7410  147.9190 C   0  0  0  0  0  3  0  0  0  0  0  0
  191.7100  176.4880  146.2060 C   0  0  0  0  0  3  0  0  0  0  0  0
  189.5060  177.3270  146.8140 C   0  0  0  0  0  0  0  0  0  0  0  0
  184.6790  178.8630  146.0160 N   0  0  0  0  0  0  0  0  0  0  0  0
  185.2940  178.8190  147.1900 N   0  0  0  0  0  0  0  0  0  0  0  0
  190.1640  177.5370  142.2230 N   0  0  0  0  0  0  0  0  0  0  0  0
  189.6810  176.7400  143.0900 N   0  0  0  0  0  0  0  0  0  0  0  0
  188.3220  178.0300  139.0010 C   0  0  0  0  0  3  0  0  0  0  0  0
  189.1140  177.2780  138.1290 C   0  0  0  0  0  0  0  0  0  0  0  0
  189.7960  177.4580  140.8450 C   0  0  0  0  0  0  0  0  0  0  0  0
  190.2460  176.6080  138.6160 C   0  0  0  0  0  0  0  0  0  0  0  0
  188.7760  177.2040  136.8180 F   0  0  0  0  0  0  0  0  0  0  0  0
  190.5860  176.7060  139.9690 C   0  0  0  0  0  3  0  0  0  0  0  0
  188.6590  178.1200  140.3540 C   0  0  0  0  0  3  0  0  0  0  0  0
  191.1190  175.8210  137.6970 C   0  0  0  0  0  2  0  0  0  0  0  0
  191.0250  174.4640  138.0060 O   0  0  0  0  0  0  0  0  0  0  0  0
  190.2830  173.9180  136.9610 C   0  0  0  0  0  1  0  0  0  0  0  0
  1  2  2  0  0  0  0
  1  4  1  0  0  0  0
  2 12  1  0  0  0  0
  4 13  1  0  0  0  0
  5  9  2  0  0  0  0
  5 14  1  0  0  0  0
  7  5  1  0  0  0  0
  8  4  2  0  0  0  0
  8  9  1  0  0  0  0
  9 10  1  0  0  0  0
 10 15  1  0  0  0  0
 10  3  2  0  0  0  0
 11  3  1  0  0  0  0
 12  6  2  0  0  0  0
 13  6  1  0  0  0  0
 13 11  2  0  0  0  0
 14 15  2  0  0  0  0
 16 17  2  0  0  0  0
 17  1  1  0  0  0  0
 18 24  1  0  0  0  0
 19 21  1  0  0  0  0
 19 18  2  0  0  0  0
 20 16  1  0  0  0  0
 21 23  2  0  0  0  0
 22 19  1  0  0  0  0
 23 20  1  0  0  0  0
 24 20  2  0  0  0  0
 25 26  1  0  0  0  0
 25 21  1  0  0  0  0
 27 26  1  0  0  0  0
M  END
>  <MODEL>
2

>  <REMARK>
 VINA RESULT:     -10.6      1.464      2.334
  Name = 
  4 active torsions:
  status: ('A' for Active; 'I' for Inactive)
    1  A    between atoms: N_2  and  C_13
    2  A    between atoms: C_3  and  N_9
    3  A    between atoms: C_16  and  C_21
    4  A    between atoms: C_21  and  O_22
                            x       y       z     vdW  Elec       q    Type
                         _______ _______ _______ _____ _____    ______ ____

>  <TORSDO>
F 4

$$$$
=
 OpenBabel11032419493D

 27 30  0  0  0  0  0  0  0  0999 V2000
  186.6470  177.8810  144.0570 C   0  0  0  0  0  0  0  0  0  0  0  0
  185.3210  178.3030  144.1960 C   0  0  0  0  0  3  0  0  0  0  0  0
  188.8770  177.7050  148.0960 C   0  0  0  0  0  3  0  0  0  0  0  0
  187.4870  177.7670  145.1950 C   0  0  0  0  0  0  0  0  0  0  0  0
  191.1060  176.7010  145.5180 C   0  0  0  0  0  0  0  0  0  0  0  0
  185.6130  178.5100  146.5690 C   0  0  0  0  0  3  0  0  0  0  0  0
  191.6210  176.3730  144.1580 C   0  0  0  0  0  1  0  0  0  0  0  0
  188.7940  177.3360  144.9410 C   0  0  0  0  0  3  0  0  0  0  0  0
  189.8320  177.1290  145.8260 C   0  0  0  0  0  0  0  0  0  0  0  0
  189.8820  177.2930  147.2550 C   0  0  0  0  0  0  0  0  0  0  0  0
  187.5860  178.0540  147.7260 C   0  0  0  0  0  3  0  0  0  0  0  0
  184.8050  178.6170  145.4450 C   0  0  0  0  0  3  0  0  0  0  0  0
  186.9460  178.0930  146.4820 C   0  0  0  0  0  0  0  0  0  0  0  0
  191.8530  176.6130  146.6370 N   0  0  0  0  0  0  0  0  0  0  0  0
  191.1170  176.9690  147.6820 N   0  0  0  0  0  0  0  0  0  0  0  0
  187.3470  178.4560  141.8650 N   0  0  0  0  0  0  0  0  0  0  0  0
  187.1540  177.5620  142.7510 N   0  0  0  0  0  0  0  0  0  0  0  0
  187.6140  178.0490  138.1530 C   0  0  0  0  0  3  0  0  0  0  0  0
  188.8850  177.4760  138.0430 C   0  0  0  0  0  0  0  0  0  0  0  0
  187.8520  178.1290  140.5690 C   0  0  0  0  0  0  0  0  0  0  0  0
  189.6390  177.2230  139.1980 C   0  0  0  0  0  0  0  0  0  0  0  0
  189.3730  177.1700  136.8160 F   0  0  0  0  0  0  0  0  0  0  0  0
  189.1220  177.5570  140.4540 C   0  0  0  0  0  3  0  0  0  0  0  0
  187.0970  178.3740  139.4100 C   0  0  0  0  0  3  0  0  0  0  0  0
  191.0060  176.6360  139.1010 C   0  0  0  0  0  2  0  0  0  0  0  0
  190.9190  175.3020  138.7040 O   0  0  0  0  0  0  0  0  0  0  0  0
  191.9380  175.1490  137.7660 C   0  0  0  0  0  1  0  0  0  0  0  0
  1  2  2  0  0  0  0
  1  4  1  0  0  0  0
  2 12  1  0  0  0  0
  4 13  1  0  0  0  0
  5  9  2  0  0  0  0
  5 14  1  0  0  0  0
  7  5  1  0  0  0  0
  8  4  2  0  0  0  0
  8  9  1  0  0  0  0
  9 10  1  0  0  0  0
 10 15  1  0  0  0  0
 10  3  2  0  0  0  0
 11  3  1  0  0  0  0
 12  6  2  0  0  0  0
 13  6  1  0  0  0  0
 13 11  2  0  0  0  0
 14 15  2  0  0  0  0
 16 17  2  0  0  0  0
 17  1  1  0  0  0  0
 18 24  1  0  0  0  0
 19 18  2  0  0  0  0
 19 21  1  0  0  0  0
 20 16  1  0  0  0  0
 21 23  2  0  0  0  0
 22 19  1  0  0  0  0
 23 20  1  0  0  0  0
 24 20  2  0  0  0  0
 25 21  1  0  0  0  0
 26 25  1  0  0  0  0
 27 26  1  0  0  0  0
M  END
>  <MODEL>
3

>  <REMARK>
 VINA RESULT:     -10.4      2.025      4.375
  Name = 
  4 active torsions:
  status: ('A' for Active; 'I' for Inactive)
    1  A    between atoms: N_2  and  C_13
    2  A    between atoms: C_3  and  N_9
    3  A    between atoms: C_16  and  C_21
    4  A    between atoms: C_21  and  O_22
                            x       y       z     vdW  Elec       q    Type
                         _______ _______ _______ _____ _____    ______ ____

>  <TORSDO>
F 4

$$$$
=
 OpenBabel11032419493D

 27 30  0  0  0  0  0  0  0  0999 V2000
  188.9650  177.1410  144.2450 C   0  0  0  0  0  0  0  0  0  0  0  0
  190.1340  176.8430  144.9530 C   0  0  0  0  0  3  0  0  0  0  0  0
  185.5450  178.5660  147.0010 C   0  0  0  0  0  3  0  0  0  0  0  0
  187.8070  177.5940  144.9290 C   0  0  0  0  0  0  0  0  0  0  0  0
  184.3780  178.5580  143.6440 C   0  0  0  0  0  0  0  0  0  0  0  0
  189.0580  177.4300  147.0170 C   0  0  0  0  0  3  0  0  0  0  0  0
  184.3680  178.3910  142.1640 C   0  0  0  0  0  1  0  0  0  0  0  0
  186.6950  177.8620  144.1230 C   0  0  0  0  0  3  0  0  0  0  0  0
  185.4420  178.3110  144.4860 C   0  0  0  0  0  0  0  0  0  0  0  0
  184.9100  178.6320  145.7840 C   0  0  0  0  0  0  0  0  0  0  0  0
  186.8550  178.1660  147.2240 C   0  0  0  0  0  3  0  0  0  0  0  0
  190.1820  176.9870  146.3320 C   0  0  0  0  0  3  0  0  0  0  0  0
  187.8660  177.7400  146.3540 C   0  0  0  0  0  0  0  0  0  0  0  0
  183.3120  178.9850  144.3520 N   0  0  0  0  0  0  0  0  0  0  0  0
  183.6320  179.0290  145.6390 N   0  0  0  0  0  0  0  0  0  0  0  0
  189.7070  177.6600  142.0530 N   0  0  0  0  0  0  0  0  0  0  0  0
  188.9450  176.9840  142.8170 N   0  0  0  0  0  0  0  0  0  0  0  0
  190.7170  176.7860  138.5550 C   0  0  0  0  0  3  0  0  0  0  0  0
  189.5810  177.1880  137.8470 C   0  0  0  0  0  0  0  0  0  0  0  0
  189.6800  177.4960  140.6330 C   0  0  0  0  0  0  0  0  0  0  0  0
  188.4940  177.7520  138.5310 C   0  0  0  0  0  0  0  0  0  0  0  0
  189.5450  177.0290  136.5010 F   0  0  0  0  0  0  0  0  0  0  0  0
  188.5450  177.8970  139.9210 C   0  0  0  0  0  3  0  0  0  0  0  0
  190.7690  176.9390  139.9430 C   0  0  0  0  0  3  0  0  0  0  0  0
  187.2630  178.1640  137.7970 C   0  0  0  0  0  2  0  0  0  0  0  0
  186.2900  178.5810  138.7040 O   0  0  0  0  0  0  0  0  0  0  0  0
  185.1030  178.0380  138.2170 C   0  0  0  0  0  1  0  0  0  0  0  0
  1  4  2  0  0  0  0
  1  2  1  0  0  0  0
  2 12  2  0  0  0  0
  3 11  2  0  0  0  0
  4 13  1  0  0  0  0
  5 14  2  0  0  0  0
  5  9  1  0  0  0  0
  7  5  1  0  0  0  0
  8  9  2  0  0  0  0
  8  4  1  0  0  0  0
  9 10  1  0  0  0  0
 10  3  1  0  0  0  0
 12  6  1  0  0  0  0
 13  6  2  0  0  0  0
 13 11  1  0  0  0  0
 14 15  1  0  0  0  0
 15 10  2  0  0  0  0
 16 17  2  0  0  0  0
 17  1  1  0  0  0  0
 18 24  1  0  0  0  0
 19 21  1  0  0  0  0
 19 18  2  0  0  0  0
 20 16  1  0  0  0  0
 21 23  2  0  0  0  0
 22 19  1  0  0  0  0
 23 20  1  0  0  0  0
 24 20  2  0  0  0  0
 25 21  1  0  0  0  0
 25 26  1  0  0  0  0
 27 26  1  0  0  0  0
M  END
>  <MODEL>
4

>  <REMARK>
 VINA RESULT:     -10.4      0.949      1.397
  Name = 
  4 active torsions:
  status: ('A' for Active; 'I' for Inactive)
    1  A    between atoms: N_2  and  C_13
    2  A    between atoms: C_3  and  N_9
    3  A    between atoms: C_16  and  C_21
    4  A    between atoms: C_21  and  O_22
                            x       y       z     vdW  Elec       q    Type
                         _______ _______ _______ _____ _____    ______ ____

>  <TORSDO>
F 4

$$$$
=
 OpenBabel11032419493D

 27 30  0  0  0  0  0  0  0  0999 V2000
  186.7850  177.8360  143.8080 C   0  0  0  0  0  0  0  0  0  0  0  0
  185.4450  178.2320  143.7470 C   0  0  0  0  0  3  0  0  0  0  0  0
  188.4450  177.8740  148.1160 C   0  0  0  0  0  3  0  0  0  0  0  0
  187.4630  177.7880  145.0540 C   0  0  0  0  0  0  0  0  0  0  0  0
  191.0240  176.8230  145.9090 C   0  0  0  0  0  0  0  0  0  0  0  0
  185.4060  178.5390  146.1280 C   0  0  0  0  0  3  0  0  0  0  0  0
  191.7260  176.4540  144.6480 C   0  0  0  0  0  1  0  0  0  0  0  0
  188.8010  177.3780  144.9970 C   0  0  0  0  0  3  0  0  0  0  0  0
  189.7120  177.2310  146.0230 C   0  0  0  0  0  0  0  0  0  0  0  0
  189.5630  177.4530  147.4380 C   0  0  0  0  0  0  0  0  0  0  0  0
  187.2100  178.1760  147.5600 C   0  0  0  0  0  3  0  0  0  0  0  0
  184.7570  178.5820  144.9010 C   0  0  0  0  0  3  0  0  0  0  0  0
  186.7460  178.1510  146.2400 C   0  0  0  0  0  0  0  0  0  0  0  0
  191.6120  176.7970  147.1230 N   0  0  0  0  0  0  0  0  0  0  0  0
  190.7340  177.1760  148.0420 N   0  0  0  0  0  0  0  0  0  0  0  0
  188.2170  178.3030  141.9750 N   0  0  0  0  0  0  0  0  0  0  0  0
  187.4710  177.4790  142.5980 N   0  0  0  0  0  0  0  0  0  0  0  0
  190.5120  176.5790  139.5720 C   0  0  0  0  0  3  0  0  0  0  0  0
  190.1990  177.2490  138.3850 C   0  0  0  0  0  0  0  0  0  0  0  0
  188.8950  177.9380  140.7720 C   0  0  0  0  0  0  0  0  0  0  0  0
  189.2380  178.2700  138.3920 C   0  0  0  0  0  0  0  0  0  0  0  0
  190.8340  176.9030  137.2380 F   0  0  0  0  0  0  0  0  0  0  0  0
  188.5860  178.6050  139.5830 C   0  0  0  0  0  3  0  0  0  0  0  0
  189.8650  176.9210  140.7620 C   0  0  0  0  0  3  0  0  0  0  0  0
  188.8720  178.9800  137.1320 C   0  0  0  0  0  2  0  0  0  0  0  0
  187.4860  179.0920  137.0400 O   0  0  0  0  0  0  0  0  0  0  0  0
  187.1140  178.1000  136.1350 C   0  0  0  0  0  1  0  0  0  0  0  0
  1  4  1  0  0  0  0
  2  1  2  0  0  0  0
  2 12  1  0  0  0  0
  4 13  1  0  0  0  0
  5  9  2  0  0  0  0
  5 14  1  0  0  0  0
  6 13  1  0  0  0  0
  7  5  1  0  0  0  0
  8  4  2  0  0  0  0
  8  9  1  0  0  0  0
  9 10  1  0  0  0  0
 10 15  1  0  0  0  0
 10  3  2  0  0  0  0
 11  3  1  0  0  0  0
 12  6  2  0  0  0  0
 13 11  2  0  0  0  0
 14 15  2  0  0  0  0
 16 17  2  0  0  0  0
 17  1  1  0  0  0  0
 18 24  1  0  0  0  0
 19 21  1  0  0  0  0
 19 18  2  0  0  0  0
 20 16  1  0  0  0  0
 21 23  2  0  0  0  0
 22 19  1  0  0  0  0
 23 20  1  0  0  0  0
 24 20  2  0  0  0  0
 25 21  1  0  0  0  0
 26 25  1  0  0  0  0
 27 26  1  0  0  0  0
M  END
>  <MODEL>
5

>  <REMARK>
 VINA RESULT:     -10.4      1.919      3.838
  Name = 
  4 active torsions:
  status: ('A' for Active; 'I' for Inactive)
    1  A    between atoms: N_2  and  C_13
    2  A    between atoms: C_3  and  N_9
    3  A    between atoms: C_16  and  C_21
    4  A    between atoms: C_21  and  O_22
                            x       y       z     vdW  Elec       q    Type
                         _______ _______ _______ _____ _____    ______ ____

>  <TORSDO>
F 4

$$$$
=
 OpenBabel11032419493D

 27 30  0  0  0  0  0  0  0  0999 V2000
  189.4010  177.1570  143.6540 C   0  0  0  0  0  0  0  0  0  0  0  0
  190.7260  176.7730  143.8850 C   0  0  0  0  0  3  0  0  0  0  0  0
  187.1490  178.1690  147.5550 C   0  0  0  0  0  3  0  0  0  0  0  0
  188.5550  177.5050  144.7390 C   0  0  0  0  0  0  0  0  0  0  0  0
  184.9350  178.6140  144.8120 C   0  0  0  0  0  0  0  0  0  0  0  0
  190.4200  177.0640  146.2480 C   0  0  0  0  0  3  0  0  0  0  0  0
  184.4280  178.6520  143.4110 C   0  0  0  0  0  1  0  0  0  0  0  0
  187.2500  177.8740  144.3930 C   0  0  0  0  0  3  0  0  0  0  0  0
  186.2070  178.2610  145.2090 C   0  0  0  0  0  0  0  0  0  0  0  0
  186.1490  178.3970  146.6410 C   0  0  0  0  0  0  0  0  0  0  0  0
  188.4420  177.7510  147.2740 C   0  0  0  0  0  3  0  0  0  0  0  0
  191.2350  176.7260  145.1750 C   0  0  0  0  0  3  0  0  0  0  0  0
  189.0880  177.4540  146.0680 C   0  0  0  0  0  0  0  0  0  0  0  0
  184.1820  178.9330  145.8840 N   0  0  0  0  0  0  0  0  0  0  0  0
  184.9120  178.8030  146.9850 N   0  0  0  0  0  0  0  0  0  0  0  0
  189.2220  178.1250  141.4960 N   0  0  0  0  0  0  0  0  0  0  0  0
  188.9020  177.1970  142.3080 N   0  0  0  0  0  0  0  0  0  0  0  0
  189.0740  178.1500  137.7550 C   0  0  0  0  0  3  0  0  0  0  0  0
  187.6930  178.2120  137.5480 C   0  0  0  0  0  0  0  0  0  0  0  0
  188.7210  178.1560  140.1580 C   0  0  0  0  0  0  0  0  0  0  0  0
  186.8230  178.2530  138.6480 C   0  0  0  0  0  0  0  0  0  0  0  0
  187.2090  178.2340  136.2820 F   0  0  0  0  0  0  0  0  0  0  0  0
  187.3400  178.2180  139.9470 C   0  0  0  0  0  3  0  0  0  0  0  0
  189.5880  178.1230  139.0540 C   0  0  0  0  0  3  0  0  0  0  0  0
  185.3460  178.2950  138.4490 C   0  0  0  0  0  2  0  0  0  0  0  0
  184.8700  179.5770  138.7210 O   0  0  0  0  0  0  0  0  0  0  0  0
  183.9250  179.3920  139.7290 C   0  0  0  0  0  1  0  0  0  0  0  0
  1  2  2  0  0  0  0
  1  4  1  0  0  0  0
  2 12  1  0  0  0  0
  4 13  1  0  0  0  0
  5  9  2  0  0  0  0
  5 14  1  0  0  0  0
  7  5  1  0  0  0  0
  8  4  2  0  0  0  0
  8  9  1  0  0  0  0
  9 10  1  0  0  0  0
 10 15  1  0  0  0  0
 10  3  2  0  0  0  0
 11  3  1  0  0  0  0
 12  6  2  0  0  0  0
 13  6  1  0  0  0  0
 13 11  2  0  0  0  0
 14 15  2  0  0  0  0
 16 17  2  0  0  0  0
 17  1  1  0  0  0  0
 18 24  1  0  0  0  0
 19 18  2  0  0  0  0
 19 21  1  0  0  0  0
 20 16  1  0  0  0  0
 21 23  2  0  0  0  0
 22 19  1  0  0  0  0
 23 20  1  0  0  0  0
 24 20  2  0  0  0  0
 25 21  1  0  0  0  0
 25 26  1  0  0  0  0
 26 27  1  0  0  0  0
M  END
>  <MODEL>
6

>  <REMARK>
 VINA RESULT:     -10.2      1.094      1.292
  Name = 
  4 active torsions:
  status: ('A' for Active; 'I' for Inactive)
    1  A    between atoms: N_2  and  C_13
    2  A    between atoms: C_3  and  N_9
    3  A    between atoms: C_16  and  C_21
    4  A    between atoms: C_21  and  O_22
                            x       y       z     vdW  Elec       q    Type
                         _______ _______ _______ _____ _____    ______ ____

>  <TORSDO>
F 4

$$$$
=
 OpenBabel11032419493D

 27 30  0  0  0  0  0  0  0  0999 V2000
  189.1680  177.1850  144.4530 C   0  0  0  0  0  0  0  0  0  0  0  0
  190.3420  176.9130  145.1640 C   0  0  0  0  0  3  0  0  0  0  0  0
  185.7260  178.5830  147.1960 C   0  0  0  0  0  3  0  0  0  0  0  0
  188.0030  177.6270  145.1340 C   0  0  0  0  0  0  0  0  0  0  0  0
  184.5590  178.5240  143.8400 C   0  0  0  0  0  0  0  0  0  0  0  0
  189.2570  177.5030  147.2230 C   0  0  0  0  0  3  0  0  0  0  0  0
  184.5510  178.3420  142.3610 C   0  0  0  0  0  1  0  0  0  0  0  0
  186.8870  177.8690  144.3250 C   0  0  0  0  0  3  0  0  0  0  0  0
  185.6260  178.3010  144.6840 C   0  0  0  0  0  0  0  0  0  0  0  0
  185.0900  178.6270  145.9790 C   0  0  0  0  0  0  0  0  0  0  0  0
  187.0430  178.2070  147.4230 C   0  0  0  0  0  3  0  0  0  0  0  0
  190.3880  177.0710  146.5420 C   0  0  0  0  0  3  0  0  0  0  0  0
  188.0600  177.7870  146.5570 C   0  0  0  0  0  0  0  0  0  0  0  0
  183.4860  178.9410  144.5440 N   0  0  0  0  0  0  0  0  0  0  0  0
  183.8050  179.0030  145.8310 N   0  0  0  0  0  0  0  0  0  0  0  0
  189.4340  177.9650  142.2290 N   0  0  0  0  0  0  0  0  0  0  0  0
  189.1500  177.0140  143.0270 N   0  0  0  0  0  0  0  0  0  0  0  0
  188.3480  178.0670  138.6480 C   0  0  0  0  0  3  0  0  0  0  0  0
  189.4180  177.4130  138.0310 C   0  0  0  0  0  0  0  0  0  0  0  0
  189.4140  177.7840  140.8120 C   0  0  0  0  0  0  0  0  0  0  0  0
  190.4860  176.9370  138.8060 C   0  0  0  0  0  0  0  0  0  0  0  0
  189.4100  177.2440  136.6860 F   0  0  0  0  0  0  0  0  0  0  0  0
  190.4820  177.1300  140.1910 C   0  0  0  0  0  3  0  0  0  0  0  0
  188.3430  178.2520  140.0330 C   0  0  0  0  0  3  0  0  0  0  0  0
  191.6480  176.2580  138.1640 C   0  0  0  0  0  2  0  0  0  0  0  0
  191.5250  174.8760  138.3070 O   0  0  0  0  0  0  0  0  0  0  0  0
  191.3700  174.4020  137.0060 C   0  0  0  0  0  1  0  0  0  0  0  0
  1  4  2  0  0  0  0
  1  2  1  0  0  0  0
  2 12  2  0  0  0  0
  3 11  2  0  0  0  0
  4 13  1  0  0  0  0
  5 14  2  0  0  0  0
  5  9  1  0  0  0  0
  7  5  1  0  0  0  0
  8  9  2  0  0  0  0
  8  4  1  0  0  0  0
  9 10  1  0  0  0  0
 10  3  1  0  0  0  0
 12  6  1  0  0  0  0
 13  6  2  0  0  0  0
 13 11  1  0  0  0  0
 14 15  1  0  0  0  0
 15 10  2  0  0  0  0
 16 17  2  0  0  0  0
 17  1  1  0  0  0  0
 18 24  1  0  0  0  0
 19 18  2  0  0  0  0
 19 21  1  0  0  0  0
 20 16  1  0  0  0  0
 21 23  2  0  0  0  0
 22 19  1  0  0  0  0
 23 20  1  0  0  0  0
 24 20  2  0  0  0  0
 25 26  1  0  0  0  0
 25 21  1  0  0  0  0
 27 26  1  0  0  0  0
M  END
>  <MODEL>
7

>  <REMARK>
 VINA RESULT:     -10.2      1.644      2.694
  Name = 
  4 active torsions:
  status: ('A' for Active; 'I' for Inactive)
    1  A    between atoms: N_2  and  C_13
    2  A    between atoms: C_3  and  N_9
    3  A    between atoms: C_16  and  C_21
    4  A    between atoms: C_21  and  O_22
                            x       y       z     vdW  Elec       q    Type
                         _______ _______ _______ _____ _____    ______ ____

>  <TORSDO>
F 4

$$$$
=
 OpenBabel11032419493D

 27 30  0  0  0  0  0  0  0  0999 V2000
  186.2110  178.1630  144.2650 C   0  0  0  0  0  0  0  0  0  0  0  0
  184.9230  178.5730  144.6260 C   0  0  0  0  0  3  0  0  0  0  0  0
  188.9360  177.4650  147.9260 C   0  0  0  0  0  3  0  0  0  0  0  0
  187.1870  177.9010  145.2610 C   0  0  0  0  0  0  0  0  0  0  0  0
  190.7930  176.7810  144.9750 C   0  0  0  0  0  0  0  0  0  0  0  0
  185.5220  178.4770  146.9490 C   0  0  0  0  0  3  0  0  0  0  0  0
  191.1220  176.6250  143.5300 C   0  0  0  0  0  1  0  0  0  0  0  0
  188.4400  177.4980  144.7870 C   0  0  0  0  0  3  0  0  0  0  0  0
  189.5790  177.1740  145.4970 C   0  0  0  0  0  0  0  0  0  0  0  0
  189.8150  177.1560  146.9170 C   0  0  0  0  0  0  0  0  0  0  0  0
  187.6160  177.8660  147.7740 C   0  0  0  0  0  3  0  0  0  0  0  0
  184.5790  178.7300  145.9620 C   0  0  0  0  0  3  0  0  0  0  0  0
  186.8230  178.0660  146.6380 C   0  0  0  0  0  0  0  0  0  0  0  0
  191.6750  176.5480  145.9680 N   0  0  0  0  0  0  0  0  0  0  0  0
  191.0870  176.7730  147.1360 N   0  0  0  0  0  0  0  0  0  0  0  0
  185.9880  178.7150  141.9690 N   0  0  0  0  0  0  0  0  0  0  0  0
  186.5380  178.0090  142.8750 N   0  0  0  0  0  0  0  0  0  0  0  0
  185.6870  178.4620  138.2460 C   0  0  0  0  0  3  0  0  0  0  0  0
  187.0210  178.2400  137.8900 C   0  0  0  0  0  0  0  0  0  0  0  0
  186.3210  178.5550  140.5890 C   0  0  0  0  0  0  0  0  0  0  0  0
  188.0060  178.1680  138.8850 C   0  0  0  0  0  0  0  0  0  0  0  0
  187.3450  178.0940  136.5820 F   0  0  0  0  0  0  0  0  0  0  0  0
  187.6540  178.3330  140.2280 C   0  0  0  0  0  3  0  0  0  0  0  0
  185.3360  178.6180  139.5890 C   0  0  0  0  0  3  0  0  0  0  0  0
  189.4380  177.9570  138.5250 C   0  0  0  0  0  2  0  0  0  0  0  0
  190.1520  177.5480  139.6510 O   0  0  0  0  0  0  0  0  0  0  0  0
  190.7980  176.3800  139.2500 C   0  0  0  0  0  1  0  0  0  0  0  0
  1  2  2  0  0  0  0
  1  4  1  0  0  0  0
  2 12  1  0  0  0  0
  4 13  1  0  0  0  0
  5  9  2  0  0  0  0
  5 14  1  0  0  0  0
  7  5  1  0  0  0  0
  8  4  2  0  0  0  0
  8  9  1  0  0  0  0
  9 10  1  0  0  0  0
 10 15  1  0  0  0  0
 10  3  2  0  0  0  0
 11  3  1  0  0  0  0
 12  6  2  0  0  0  0
 13  6  1  0  0  0  0
 13 11  2  0  0  0  0
 14 15  2  0  0  0  0
 16 17  2  0  0  0  0
 17  1  1  0  0  0  0
 18 24  1  0  0  0  0
 19 18  2  0  0  0  0
 19 21  1  0  0  0  0
 20 16  1  0  0  0  0
 21 23  2  0  0  0  0
 22 19  1  0  0  0  0
 23 20  1  0  0  0  0
 24 20  2  0  0  0  0
 25 21  1  0  0  0  0
 25 26  1  0  0  0  0
 27 26  1  0  0  0  0
M  END
>  <MODEL>
8

>  <REMARK>
 VINA RESULT:     -10.1      1.895      4.416
  Name = 
  4 active torsions:
  status: ('A' for Active; 'I' for Inactive)
    1  A    between atoms: N_2  and  C_13
    2  A    between atoms: C_3  and  N_9
    3  A    between atoms: C_16  and  C_21
    4  A    between atoms: C_21  and  O_22
                            x       y       z     vdW  Elec       q    Type
                         _______ _______ _______ _____ _____    ______ ____

>  <TORSDO>
F 4

$$$$
=
 OpenBabel11032419493D

 27 30  0  0  0  0  0  0  0  0999 V2000
  187.0960  177.8820  145.6590 C   0  0  0  0  0  0  0  0  0  0  0  0
  186.7880  177.9560  147.0210 C   0  0  0  0  0  3  0  0  0  0  0  0
  191.6000  177.2030  144.9010 C   0  0  0  0  0  3  0  0  0  0  0  0
  188.4350  177.6760  145.2360 C   0  0  0  0  0  0  0  0  0  0  0  0
  189.9300  177.3820  141.7690 C   0  0  0  0  0  0  0  0  0  0  0  0
  189.0990  177.6270  147.5830 C   0  0  0  0  0  3  0  0  0  0  0  0
  188.8320  177.5220  140.7720 C   0  0  0  0  0  1  0  0  0  0  0  0
  188.6290  177.6180  143.8510 C   0  0  0  0  0  3  0  0  0  0  0  0
  189.7970  177.4300  143.1400 C   0  0  0  0  0  0  0  0  0  0  0  0
  191.1470  177.2420  143.6040 C   0  0  0  0  0  0  0  0  0  0  0  0
  190.8290  177.3410  146.0460 C   0  0  0  0  0  3  0  0  0  0  0  0
  187.7830  177.8300  147.9800 C   0  0  0  0  0  3  0  0  0  0  0  0
  189.4570  177.5470  146.2330 C   0  0  0  0  0  0  0  0  0  0  0  0
  191.2210  177.1840  141.4320 N   0  0  0  0  0  0  0  0  0  0  0  0
  191.9530  177.1000  142.5350 N   0  0  0  0  0  0  0  0  0  0  0  0
  184.9560  178.6220  144.9520 N   0  0  0  0  0  0  0  0  0  0  0  0
  186.0450  178.0160  144.6890 N   0  0  0  0  0  0  0  0  0  0  0  0
  181.5740  179.0130  143.3950 C   0  0  0  0  0  3  0  0  0  0  0  0
  181.9080  179.0040  142.0380 C   0  0  0  0  0  0  0  0  0  0  0  0
  183.9160  178.7500  143.9800 C   0  0  0  0  0  0  0  0  0  0  0  0
  183.2480  178.8610  141.6490 C   0  0  0  0  0  0  0  0  0  0  0  0
  180.9280  179.1330  141.1100 F   0  0  0  0  0  0  0  0  0  0  0  0
  184.2460  178.7420  142.6210 C   0  0  0  0  0  3  0  0  0  0  0  0
  182.5720  178.8850  144.3640 C   0  0  0  0  0  3  0  0  0  0  0  0
  183.6280  178.8740  140.2070 C   0  0  0  0  0  2  0  0  0  0  0  0
  184.9100  179.4030  140.0630 O   0  0  0  0  0  0  0  0  0  0  0  0
  185.5060  178.6110  139.0830 C   0  0  0  0  0  1  0  0  0  0  0  0
  1  2  1  0  0  0  0
  2 12  2  0  0  0  0
  3 11  2  0  0  0  0
  4  1  2  0  0  0  0
  4 13  1  0  0  0  0
  5  9  1  0  0  0  0
  6 12  1  0  0  0  0
  7  5  1  0  0  0  0
  8  4  1  0  0  0  0
  9 10  1  0  0  0  0
  9  8  2  0  0  0  0
 10  3  1  0  0  0  0
 11 13  1  0  0  0  0
 13  6  2  0  0  0  0
 14  5  2  0  0  0  0
 14 15  1  0  0  0  0
 15 10  2  0  0  0  0
 17 16  2  0  0  0  0
 17  1  1  0  0  0  0
 18 24  1  0  0  0  0
 19 18  2  0  0  0  0
 20 24  2  0  0  0  0
 20 16  1  0  0  0  0
 21 19  1  0  0  0  0
 21 23  2  0  0  0  0
 22 19  1  0  0  0  0
 23 20  1  0  0  0  0
 25 21  1  0  0  0  0
 26 25  1  0  0  0  0
 27 26  1  0  0  0  0
M  END
>  <MODEL>
9

>  <REMARK>
 VINA RESULT:      -9.9      2.418      5.711
  Name = 
  4 active torsions:
  status: ('A' for Active; 'I' for Inactive)
    1  A    between atoms: N_2  and  C_13
    2  A    between atoms: C_3  and  N_9
    3  A    between atoms: C_16  and  C_21
    4  A    between atoms: C_21  and  O_22
                            x       y       z     vdW  Elec       q    Type
                         _______ _______ _______ _____ _____    ______ ____

>  <TORSDO>
F 4

$$$$
