=
 OpenBabel11032419473D

 62 67  0  0  1  0  0  0  0  0999 V2000
  191.1700  175.5660  136.6720 C   0  0  2  0  0  3  0  0  0  0  0  0
  194.9700  175.1920  136.7000 C   0  0  0  0  0  0  0  0  0  0  0  0
  196.6700  175.7630  135.0730 C   0  0  0  0  0  3  0  0  0  0  0  0
  192.9940  176.1980  134.9910 C   0  0  0  0  0  3  0  0  0  0  0  0
  197.6200  175.2840  135.9240 N   0  0  0  0  0  0  0  0  0  0  0  0
  195.9640  174.7040  137.5520 C   0  0  0  0  0  3  0  0  0  0  0  0
  198.3740  174.2540  138.0320 C   0  0  0  0  0  1  0  0  0  0  0  0
  194.3360  176.2380  134.5940 C   0  0  0  0  0  3  0  0  0  0  0  0
  192.6260  175.6580  136.2380 C   0  0  0  0  0  0  0  0  0  0  0  0
  193.6310  175.1450  137.0800 C   0  0  0  0  0  3  0  0  0  0  0  0
  195.3230  175.7360  135.4470 C   0  0  0  0  0  0  0  0  0  0  0  0
  197.3000  174.7640  137.1410 C   0  0  0  0  0  0  0  0  0  0  0  0
  190.2190  176.1290  141.3920 N   0  0  0  0  0  2  0  0  0  0  0  0
  189.3680  177.9160  139.8020 C   0  0  0  0  0  0  0  0  0  0  0  0
  190.6140  176.9090  142.5240 C   0  0  0  0  0  0  0  0  0  0  0  0
  190.1370  176.6690  140.0680 C   0  0  0  0  0  0  0  0  0  0  0  0
  189.4310  177.3300  137.3920 C   0  0  2  0  0  3  0  0  0  0  0  0
  190.7360  176.5890  137.7330 C   0  0  1  0  0  3  0  0  0  0  0  0
  189.0810  178.2490  138.5350 C   0  0  0  0  0  3  0  0  0  0  0  0
  190.6940  176.0220  139.0840 N   0  0  0  0  0  0  0  0  0  0  0  0
  191.2680  177.9780  142.3540 O   0  0  0  0  0  0  0  0  0  0  0  0
  188.3860  176.4210  137.1990 O   0  0  0  0  0  0  0  0  0  0  0  0
  187.2600  177.2100  136.9570 C   0  0  0  0  0  1  0  0  0  0  0  0
  188.9350  178.7060  140.8750 O   0  0  0  0  0  0  0  0  0  0  0  0
  187.5680  178.8370  141.2400 C   0  0  0  0  0  1  0  0  0  0  0  0
  190.2180  176.4820  143.9070 C   0  0  1  0  0  3  0  0  0  0  0  0
  190.8170  177.3220  144.8540 O   0  0  0  0  0  0  0  0  0  0  0  0
  191.5970  176.4930  145.6750 C   0  0  0  0  0  2  0  0  0  0  0  0
  189.9140  176.6900  147.5220 O   0  0  0  0  0  0  0  0  0  0  0  0
  191.2430  176.6950  147.1130 C   0  0  0  0  0  0  0  0  0  0  0  0
  192.1580  176.8420  147.9680 O   0  0  0  0  0  1  0  0  0  0  0  0
  188.6970  176.5610  144.0300 C   0  0  0  0  0  2  0  0  0  0  0  0
  188.2730  177.8850  144.6400 C   0  0  0  0  0  2  0  0  0  0  0  0
  186.7290  177.9070  146.2230 C   0  0  0  0  0  1  0  0  0  0  0  0
  186.8930  177.8900  144.8350 O   0  0  0  0  0  0  0  0  0  0  0  0
  190.6760  174.2070  136.9630 N   0  0  0  0  0  0  0  0  0  0  0  0
  191.5220  173.1890  136.3430 C   0  0  0  0  0  1  0  0  0  0  0  0
  189.3300  174.0870  136.4210 C   0  0  0  0  0  2  0  0  0  0  0  0
  189.0110  172.6270  136.0890 C   0  0  0  0  0  2  0  0  0  0  0  0
  187.8590  172.1910  136.8680 N   0  0  0  0  0  2  0  0  0  0  0  0
  186.8180  173.2150  136.7930 C   0  0  0  0  0  2  0  0  0  0  0  0
  185.7640  172.8890  135.7360 C   0  0  0  0  0  2  0  0  0  0  0  0
  184.7820  171.8480  136.2310 C   0  0  0  0  0  2  0  0  0  0  0  0
  183.9050  172.4390  137.1770 O   0  0  0  0  0  0  0  0  0  0  0  0
  182.1720  173.9660  136.2120 C   0  0  2  0  0  3  0  0  0  0  0  0
  180.2380  171.8540  136.8990 C   0  0  0  0  0  2  0  0  0  0  0  0
  181.6590  171.7940  137.2570 N   0  0  0  0  0  0  0  0  0  0  0  0
  180.7740  173.8750  135.5910 C   0  0  0  0  0  2  0  0  0  0  0  0
  182.5570  172.6760  136.9090 C   0  0  0  0  0  0  0  0  0  0  0  0
  179.7990  173.2750  136.5870 C   0  0  0  0  0  2  0  0  0  0  0  0
  181.7430  175.3720  138.3350 C   0  0  0  0  0  0  0  0  0  0  0  0
  182.2040  176.5640  138.8580 C   0  0  0  0  0  0  0  0  0  0  0  0
  182.4520  178.6450  140.2040 C   0  0  0  0  0  2  0  0  0  0  0  0
  183.8770  178.7340  139.6360 C   0  0  0  0  0  2  0  0  0  0  0  0
  183.2320  176.2090  136.9090 N   0  0  0  0  0  0  0  0  0  0  0  0
  183.9110  178.3020  138.1640 C   0  0  0  0  0  2  0  0  0  0  0  0
  184.1480  176.3550  135.8920 O   0  0  0  0  0  1  0  0  0  0  0  0
  181.9360  177.2040  140.1930 C   0  0  1  0  0  3  0  0  0  0  0  0
  180.4590  177.2080  140.5210 C   0  0  0  0  0  1  0  0  0  0  0  0
  182.3690  175.1770  137.1090 C   0  0  0  0  0  0  0  0  0  0  0  0
  180.8390  174.5090  138.9500 O   0  0  0  0  0  1  0  0  0  0  0  0
  183.1500  177.0270  137.9730 C   0  0  0  0  0  0  0  0  0  0  0  0
  1 36  1  1  0  0  0
  2 10  1  0  0  0  0
  2  6  2  0  0  0  0
  3 11  2  0  0  0  0
  3  5  1  0  0  0  0
  4  9  1  0  0  0  0
  5 12  2  0  0  0  0
  8  4  2  0  0  0  0
  8 11  1  0  0  0  0
  9  1  1  0  0  0  0
  9 10  2  0  0  0  0
 11  2  1  0  0  0  0
 12  6  1  0  0  0  0
 12  7  1  0  0  0  0
 13 15  1  0  0  0  0
 14 16  1  0  0  0  0
 14 24  1  0  0  0  0
 15 26  1  0  0  0  0
 16 13  1  0  0  0  0
 17 22  1  1  0  0  0
 17 18  1  0  0  0  0
 17 19  1  0  0  0  0
 18  1  1  6  0  0  0
 18 20  1  0  0  0  0
 19 14  2  0  0  0  0
 20 16  2  0  0  0  0
 21 15  2  0  0  0  0
 23 22  1  0  0  0  0
 24 25  1  0  0  0  0
 26 32  1  6  0  0  0
 26 27  1  0  0  0  0
 27 28  1  0  0  0  0
 28 30  1  0  0  0  0
 30 29  2  0  0  0  0
 30 31  1  0  0  0  0
 32 33  1  0  0  0  0
 33 35  1  0  0  0  0
 35 34  1  0  0  0  0
 37 36  1  0  0  0  0
 38 36  1  0  0  0  0
 39 38  1  0  0  0  0
 39 40  1  0  0  0  0
 41 40  1  0  0  0  0
 42 43  1  0  0  0  0
 42 41  1  0  0  0  0
 43 44  1  0  0  0  0
 45 49  1  0  0  0  0
 45 60  1  1  0  0  0
 46 47  1  0  0  0  0
 48 45  1  0  0  0  0
 48 50  1  0  0  0  0
 49 44  1  0  0  0  0
 49 47  2  0  0  0  0
 50 46  1  0  0  0  0
 51 52  1  0  0  0  0
 51 61  1  0  0  0  0
 52 58  1  0  0  0  0
 54 53  1  0  0  0  0
 55 60  1  0  0  0  0
 55 62  1  0  0  0  0
 56 54  1  0  0  0  0
 57 55  1  0  0  0  0
 58 53  1  0  0  0  0
 58 59  1  6  0  0  0
 60 51  2  0  0  0  0
 62 56  1  0  0  0  0
 62 52  2  0  0  0  0
M  END
>  <MODEL>
1

>  <REMARK>
 VINA RESULT:      -7.0      0.000      0.000
  Name = 
  21 active torsions:
  status: ('A' for Active; 'I' for Inactive)
    1  A    between atoms: C_1  and  N_19
    2  A    between atoms: C_1  and  C_21
    3  A    between atoms: C_5  and  O_26
    4  A    between atoms: C_7  and  C_13
    5  A    between atoms: C_11  and  O_29
    6  A    between atoms: C_11  and  C_46
    7  A    between atoms: C_12  and  C_51
    8  A    between atoms: C_13  and  C_41
    9  A    between atoms: C_13  and  O_47
   10  A    between atoms: C_16  and  O_53
   11  A    between atoms: C_17  and  C_38
   12  A    between atoms: C_17  and  O_47
   13  A    between atoms: N_19  and  C_35
   14  A    between atoms: N_20  and  C_21
   15  A    between atoms: N_20  and  C_23
   16  A    between atoms: C_23  and  C_28
   17  A    between atoms: C_23  and  C_44
   18  A    between atoms: O_29  and  C_43
   19  A    between atoms: C_35  and  C_46
   20  A    between atoms: O_37  and  C_62
   21  A    between atoms: C_41  and  C_62
                            x       y       z     vdW  Elec       q    Type
                         _______ _______ _______ _____ _____    ______ ____

>  <TORSDO>
F 21

$$$$
=
 OpenBabel11032419473D

 62 67  0  0  1  0  0  0  0  0999 V2000
  190.9140  175.5470  136.8430 C   0  0  2  0  0  3  0  0  0  0  0  0
  194.7150  175.2000  136.7490 C   0  0  0  0  0  0  0  0  0  0  0  0
  196.3590  175.7960  135.0740 C   0  0  0  0  0  3  0  0  0  0  0  0
  192.6800  176.2060  135.1110 C   0  0  0  0  0  3  0  0  0  0  0  0
  197.3390  175.3170  135.8910 N   0  0  0  0  0  0  0  0  0  0  0  0
  195.7380  174.7120  137.5660 C   0  0  0  0  0  3  0  0  0  0  0  0
  198.1660  174.2750  137.9660 C   0  0  0  0  0  1  0  0  0  0  0  0
  194.0090  176.2590  134.6730 C   0  0  0  0  0  3  0  0  0  0  0  0
  192.3550  175.6530  136.3650 C   0  0  0  0  0  0  0  0  0  0  0  0
  193.3890  175.1400  137.1700 C   0  0  0  0  0  3  0  0  0  0  0  0
  195.0250  175.7570  135.4900 C   0  0  0  0  0  0  0  0  0  0  0  0
  197.0600  174.7850  137.1130 C   0  0  0  0  0  0  0  0  0  0  0  0
  190.3480  176.3000  141.5980 N   0  0  0  0  0  2  0  0  0  0  0  0
  189.2070  177.9190  140.0100 C   0  0  0  0  0  0  0  0  0  0  0  0
  190.7750  177.1730  142.6480 C   0  0  0  0  0  0  0  0  0  0  0  0
  190.1010  176.7550  140.2630 C   0  0  0  0  0  0  0  0  0  0  0  0
  189.1020  177.2030  137.6360 C   0  0  2  0  0  3  0  0  0  0  0  0
  190.4910  176.5910  137.8880 C   0  0  1  0  0  3  0  0  0  0  0  0
  188.7790  178.1540  138.7610 C   0  0  0  0  0  3  0  0  0  0  0  0
  190.6200  176.1000  139.2630 N   0  0  0  0  0  0  0  0  0  0  0  0
  191.3180  178.2790  142.3640 O   0  0  0  0  0  0  0  0  0  0  0  0
  188.1260  176.2040  137.5890 O   0  0  0  0  0  0  0  0  0  0  0  0
  186.9510  176.8620  137.2210 C   0  0  0  0  0  1  0  0  0  0  0  0
  188.8070  178.7310  141.0790 O   0  0  0  0  0  0  0  0  0  0  0  0
  187.5340  178.6250  141.7000 C   0  0  0  0  0  1  0  0  0  0  0  0
  190.5440  176.7950  144.0810 C   0  0  1  0  0  3  0  0  0  0  0  0
  191.7600  176.8000  144.7770 O   0  0  0  0  0  0  0  0  0  0  0  0
  191.7330  175.6790  145.6210 C   0  0  0  0  0  2  0  0  0  0  0  0
  193.0540  175.3160  147.7200 O   0  0  0  0  0  1  0  0  0  0  0  0
  192.1160  176.0620  147.0150 C   0  0  0  0  0  0  0  0  0  0  0  0
  191.6060  177.0860  147.5440 O   0  0  0  0  0  0  0  0  0  0  0  0
  189.5830  177.8040  144.7080 C   0  0  0  0  0  2  0  0  0  0  0  0
  188.2820  177.1330  145.1090 C   0  0  0  0  0  2  0  0  0  0  0  0
  186.2220  177.8540  145.4670 C   0  0  0  0  0  1  0  0  0  0  0  0
  187.5390  177.9960  145.9140 O   0  0  0  0  0  0  0  0  0  0  0  0
  190.4540  174.1880  137.1840 N   0  0  0  0  0  0  0  0  0  0  0  0
  191.4390  173.1790  136.7980 C   0  0  0  0  0  1  0  0  0  0  0  0
  189.2160  173.9310  136.4600 C   0  0  0  0  0  2  0  0  0  0  0  0
  188.5000  172.7060  137.0340 C   0  0  0  0  0  2  0  0  0  0  0  0
  187.0660  172.9570  137.0790 N   0  0  0  0  0  2  0  0  0  0  0  0
  186.4360  172.3360  135.9150 C   0  0  0  0  0  2  0  0  0  0  0  0
  184.9610  172.0160  136.1600 C   0  0  0  0  0  2  0  0  0  0  0  0
  184.4800  172.5850  137.4780 C   0  0  0  0  0  2  0  0  0  0  0  0
  183.5990  173.6690  137.2290 O   0  0  0  0  0  0  0  0  0  0  0  0
  181.4280  174.6840  136.5010 C   0  0  2  0  0  3  0  0  0  0  0  0
  180.3200  171.9680  136.7600 C   0  0  0  0  0  2  0  0  0  0  0  0
  181.6930  172.3180  137.1380 N   0  0  0  0  0  0  0  0  0  0  0  0
  180.1180  174.2460  135.8380 C   0  0  0  0  0  2  0  0  0  0  0  0
  182.2390  173.4920  136.9720 C   0  0  0  0  0  0  0  0  0  0  0  0
  179.4280  173.1970  136.6890 C   0  0  0  0  0  2  0  0  0  0  0  0
  181.5840  177.0620  137.4930 C   0  0  0  0  0  0  0  0  0  0  0  0
  181.2380  177.6780  138.6800 C   0  0  0  0  0  0  0  0  0  0  0  0
  181.0610  179.2860  140.5740 C   0  0  0  0  0  2  0  0  0  0  0  0
  179.8560  178.4560  141.0460 C   0  0  0  0  0  2  0  0  0  0  0  0
  180.6630  175.5260  138.8130 N   0  0  0  0  0  0  0  0  0  0  0  0
  180.0990  176.9580  140.8250 C   0  0  0  0  0  2  0  0  0  0  0  0
  180.0620  174.3810  139.2860 O   0  0  0  0  0  1  0  0  0  0  0  0
  181.2900  179.1310  139.0690 C   0  0  1  0  0  3  0  0  0  0  0  0
  182.6190  179.7560  138.7070 C   0  0  0  0  0  1  0  0  0  0  0  0
  181.2470  175.7180  137.6000 C   0  0  0  0  0  0  0  0  0  0  0  0
  182.1390  177.6920  136.3820 O   0  0  0  0  0  1  0  0  0  0  0  0
  180.6350  176.7100  139.4490 C   0  0  0  0  0  0  0  0  0  0  0  0
  1 36  1  1  0  0  0
  2 10  1  0  0  0  0
  2  6  2  0  0  0  0
  3 11  2  0  0  0  0
  3  5  1  0  0  0  0
  4  9  1  0  0  0  0
  5 12  2  0  0  0  0
  8  4  2  0  0  0  0
  8 11  1  0  0  0  0
  9  1  1  0  0  0  0
  9 10  2  0  0  0  0
 11  2  1  0  0  0  0
 12  6  1  0  0  0  0
 12  7  1  0  0  0  0
 13 15  1  0  0  0  0
 14 16  1  0  0  0  0
 14 24  1  0  0  0  0
 15 26  1  0  0  0  0
 16 13  1  0  0  0  0
 17 22  1  1  0  0  0
 17 18  1  0  0  0  0
 17 19  1  0  0  0  0
 18  1  1  6  0  0  0
 18 20  1  0  0  0  0
 19 14  2  0  0  0  0
 20 16  2  0  0  0  0
 21 15  2  0  0  0  0
 23 22  1  0  0  0  0
 24 25  1  0  0  0  0
 26 32  1  1  0  0  0
 26 27  1  0  0  0  0
 27 28  1  0  0  0  0
 28 30  1  0  0  0  0
 30 31  2  0  0  0  0
 30 29  1  0  0  0  0
 32 33  1  0  0  0  0
 33 35  1  0  0  0  0
 34 35  1  0  0  0  0
 37 36  1  0  0  0  0
 38 39  1  0  0  0  0
 38 36  1  0  0  0  0
 39 40  1  0  0  0  0
 41 42  1  0  0  0  0
 41 40  1  0  0  0  0
 42 43  1  0  0  0  0
 44 43  1  0  0  0  0
 45 49  1  0  0  0  0
 45 60  1  1  0  0  0
 46 47  1  0  0  0  0
 48 45  1  0  0  0  0
 48 50  1  0  0  0  0
 49 47  2  0  0  0  0
 49 44  1  0  0  0  0
 50 46  1  0  0  0  0
 51 60  2  0  0  0  0
 51 52  1  0  0  0  0
 52 58  1  0  0  0  0
 52 62  2  0  0  0  0
 53 54  1  0  0  0  0
 55 57  1  0  0  0  0
 55 62  1  0  0  0  0
 56 54  1  0  0  0  0
 58 59  1  1  0  0  0
 58 53  1  0  0  0  0
 60 55  1  0  0  0  0
 61 51  1  0  0  0  0
 62 56  1  0  0  0  0
M  END
>  <MODEL>
2

>  <REMARK>
 VINA RESULT:      -6.7      0.997      1.697
  Name = 
  21 active torsions:
  status: ('A' for Active; 'I' for Inactive)
    1  A    between atoms: C_1  and  N_19
    2  A    between atoms: C_1  and  C_21
    3  A    between atoms: C_5  and  O_26
    4  A    between atoms: C_7  and  C_13
    5  A    between atoms: C_11  and  O_29
    6  A    between atoms: C_11  and  C_46
    7  A    between atoms: C_12  and  C_51
    8  A    between atoms: C_13  and  C_41
    9  A    between atoms: C_13  and  O_47
   10  A    between atoms: C_16  and  O_53
   11  A    between atoms: C_17  and  C_38
   12  A    between atoms: C_17  and  O_47
   13  A    between atoms: N_19  and  C_35
   14  A    between atoms: N_20  and  C_21
   15  A    between atoms: N_20  and  C_23
   16  A    between atoms: C_23  and  C_28
   17  A    between atoms: C_23  and  C_44
   18  A    between atoms: O_29  and  C_43
   19  A    between atoms: C_35  and  C_46
   20  A    between atoms: O_37  and  C_62
   21  A    between atoms: C_41  and  C_62
                            x       y       z     vdW  Elec       q    Type
                         _______ _______ _______ _____ _____    ______ ____

>  <TORSDO>
F 21

$$$$
=
 OpenBabel11032419473D

 62 67  0  0  1  0  0  0  0  0999 V2000
  189.6380  177.9920  141.5010 C   0  0  2  0  0  3  0  0  0  0  0  0
  188.7680  177.9300  145.2180 C   0  0  0  0  0  0  0  0  0  0  0  0
  186.6930  177.5100  146.3940 C   0  0  0  0  0  3  0  0  0  0  0  0
  187.4700  177.5090  142.7740 C   0  0  0  0  0  3  0  0  0  0  0  0
  187.3440  177.7020  147.5750 N   0  0  0  0  0  0  0  0  0  0  0  0
  189.4110  178.1260  146.4430 C   0  0  0  0  0  3  0  0  0  0  0  0
  189.3350  178.2020  148.9400 C   0  0  0  0  0  1  0  0  0  0  0  0
  186.7470  177.4010  143.9680 C   0  0  0  0  0  3  0  0  0  0  0  0
  188.8420  177.8280  142.7880 C   0  0  0  0  0  0  0  0  0  0  0  0
  189.4760  178.0490  144.0250 C   0  0  0  0  0  3  0  0  0  0  0  0
  187.3940  177.6110  145.1880 C   0  0  0  0  0  0  0  0  0  0  0  0
  188.6720  178.0020  147.6250 C   0  0  0  0  0  0  0  0  0  0  0  0
  185.1220  178.2040  139.7520 N   0  0  0  0  0  2  0  0  0  0  0  0
  187.0310  178.2520  138.0790 C   0  0  0  0  0  0  0  0  0  0  0  0
  184.1950  179.1220  139.1640 C   0  0  0  0  0  0  0  0  0  0  0  0
  186.5280  178.2400  139.4810 C   0  0  0  0  0  0  0  0  0  0  0  0
  189.2610  177.6310  138.9740 C   0  0  2  0  0  3  0  0  0  0  0  0
  188.8090  178.3500  140.2580 C   0  0  1  0  0  3  0  0  0  0  0  0
  188.3310  178.0130  137.8510 C   0  0  0  0  0  3  0  0  0  0  0  0
  187.3670  178.2010  140.4770 N   0  0  0  0  0  0  0  0  0  0  0  0
  184.6100  180.2220  138.6980 O   0  0  0  0  0  0  0  0  0  0  0  0
  189.2230  176.2450  139.1480 O   0  0  0  0  0  0  0  0  0  0  0  0
  189.8950  175.7230  138.0410 C   0  0  0  0  0  1  0  0  0  0  0  0
  186.1400  178.4850  137.0240 O   0  0  0  0  0  0  0  0  0  0  0  0
  185.7150  177.4670  136.1280 C   0  0  0  0  0  1  0  0  0  0  0  0
  182.7420  178.7630  139.0640 C   0  0  1  0  0  3  0  0  0  0  0  0
  182.5610  177.4160  139.4010 O   0  0  0  0  0  0  0  0  0  0  0  0
  182.0420  176.7920  138.2550 C   0  0  0  0  0  2  0  0  0  0  0  0
  179.9640  175.5430  137.6160 O   0  0  0  0  0  0  0  0  0  0  0  0
  180.8480  175.9610  138.6050 C   0  0  0  0  0  0  0  0  0  0  0  0
  180.6580  175.6130  139.8010 O   0  0  0  0  0  1  0  0  0  0  0  0
  181.9490  179.6490  140.0240 C   0  0  0  0  0  2  0  0  0  0  0  0
  181.4990  178.8600  141.2400 C   0  0  0  0  0  2  0  0  0  0  0  0
  179.7480  178.3720  142.5000 C   0  0  0  0  0  1  0  0  0  0  0  0
  180.1200  178.6590  141.1840 O   0  0  0  0  0  0  0  0  0  0  0  0
  190.6360  176.9400  141.2300 N   0  0  0  0  0  0  0  0  0  0  0  0
  190.6130  175.9050  142.2630 C   0  0  0  0  0  1  0  0  0  0  0  0
  191.9550  177.5560  141.2170 C   0  0  0  0  0  2  0  0  0  0  0  0
  192.5600  177.5050  139.8120 C   0  0  0  0  0  2  0  0  0  0  0  0
  193.8160  176.7670  139.8490 N   0  0  0  0  0  2  0  0  0  0  0  0
  193.7940  175.7370  138.8110 C   0  0  0  0  0  2  0  0  0  0  0  0
  195.1910  175.1910  138.5140 C   0  0  0  0  0  2  0  0  0  0  0  0
  195.3370  173.7550  138.9730 C   0  0  0  0  0  2  0  0  0  0  0  0
  196.4850  173.1810  138.3690 O   0  0  0  0  0  0  0  0  0  0  0  0
  196.3400  172.6160  135.9350 C   0  0  2  0  0  3  0  0  0  0  0  0
  196.4660  169.8050  136.8010 C   0  0  0  0  0  2  0  0  0  0  0  0
  196.3930  170.9330  137.7340 N   0  0  0  0  0  0  0  0  0  0  0  0
  196.7170  171.4660  134.9950 C   0  0  0  0  0  2  0  0  0  0  0  0
  196.4070  172.1930  137.3890 C   0  0  0  0  0  0  0  0  0  0  0  0
  195.9960  170.1970  135.4100 C   0  0  0  0  0  2  0  0  0  0  0  0
  193.7660  172.6930  135.7600 C   0  0  0  0  0  0  0  0  0  0  0  0
  192.8140  173.6170  135.3770 C   0  0  0  0  0  0  0  0  0  0  0  0
  190.6900  174.7000  134.6540 C   0  0  0  0  0  2  0  0  0  0  0  0
  191.3640  176.0390  134.9950 C   0  0  0  0  0  2  0  0  0  0  0  0
  194.8270  174.5550  135.1650 N   0  0  0  0  0  0  0  0  0  0  0  0
  192.8460  176.0260  134.5960 C   0  0  0  0  0  2  0  0  0  0  0  0
  195.7790  175.5350  134.9970 O   0  0  0  0  0  1  0  0  0  0  0  0
  191.3120  173.5460  135.4450 C   0  0  1  0  0  3  0  0  0  0  0  0
  190.7920  172.2370  134.8940 C   0  0  0  0  0  1  0  0  0  0  0  0
  195.0150  173.2790  135.5960 C   0  0  0  0  0  0  0  0  0  0  0  0
  193.5070  171.4160  136.2540 O   0  0  0  0  0  1  0  0  0  0  0  0
  193.5040  174.7640  135.0600 C   0  0  0  0  0  0  0  0  0  0  0  0
  1 36  1  6  0  0  0
  1  9  1  0  0  0  0
  2  6  2  0  0  0  0
  3  5  1  0  0  0  0
  4  9  1  0  0  0  0
  4  8  2  0  0  0  0
  5 12  2  0  0  0  0
  6 12  1  0  0  0  0
  8 11  1  0  0  0  0
  9 10  2  0  0  0  0
 10  2  1  0  0  0  0
 11  2  1  0  0  0  0
 11  3  2  0  0  0  0
 12  7  1  0  0  0  0
 14 16  1  0  0  0  0
 15 13  1  0  0  0  0
 16 13  1  0  0  0  0
 16 20  2  0  0  0  0
 17 22  1  1  0  0  0
 17 18  1  0  0  0  0
 18 20  1  0  0  0  0
 18  1  1  1  0  0  0
 19 14  2  0  0  0  0
 19 17  1  0  0  0  0
 21 15  2  0  0  0  0
 23 22  1  0  0  0  0
 24 14  1  0  0  0  0
 25 24  1  0  0  0  0
 26 15  1  0  0  0  0
 26 27  1  0  0  0  0
 26 32  1  1  0  0  0
 28 30  1  0  0  0  0
 28 27  1  0  0  0  0
 29 30  2  0  0  0  0
 30 31  1  0  0  0  0
 32 33  1  0  0  0  0
 35 33  1  0  0  0  0
 35 34  1  0  0  0  0
 36 37  1  0  0  0  0
 38 36  1  0  0  0  0
 39 40  1  0  0  0  0
 39 38  1  0  0  0  0
 41 40  1  0  0  0  0
 42 41  1  0  0  0  0
 42 43  1  0  0  0  0
 44 43  1  0  0  0  0
 45 60  1  6  0  0  0
 45 49  1  0  0  0  0
 46 47  1  0  0  0  0
 48 50  1  0  0  0  0
 48 45  1  0  0  0  0
 49 47  2  0  0  0  0
 49 44  1  0  0  0  0
 50 46  1  0  0  0  0
 51 61  1  0  0  0  0
 52 58  1  0  0  0  0
 52 51  1  0  0  0  0
 53 54  1  0  0  0  0
 53 58  1  0  0  0  0
 55 60  1  0  0  0  0
 56 54  1  0  0  0  0
 56 62  1  0  0  0  0
 57 55  1  0  0  0  0
 58 59  1  6  0  0  0
 60 51  2  0  0  0  0
 62 55  1  0  0  0  0
 62 52  2  0  0  0  0
M  END
>  <MODEL>
3

>  <REMARK>
 VINA RESULT:      -5.5      3.401     10.513
  Name = 
  21 active torsions:
  status: ('A' for Active; 'I' for Inactive)
    1  A    between atoms: C_1  and  N_19
    2  A    between atoms: C_1  and  C_21
    3  A    between atoms: C_5  and  O_26
    4  A    between atoms: C_7  and  C_13
    5  A    between atoms: C_11  and  O_29
    6  A    between atoms: C_11  and  C_46
    7  A    between atoms: C_12  and  C_51
    8  A    between atoms: C_13  and  C_41
    9  A    between atoms: C_13  and  O_47
   10  A    between atoms: C_16  and  O_53
   11  A    between atoms: C_17  and  C_38
   12  A    between atoms: C_17  and  O_47
   13  A    between atoms: N_19  and  C_35
   14  A    between atoms: N_20  and  C_21
   15  A    between atoms: N_20  and  C_23
   16  A    between atoms: C_23  and  C_28
   17  A    between atoms: C_23  and  C_44
   18  A    between atoms: O_29  and  C_43
   19  A    between atoms: C_35  and  C_46
   20  A    between atoms: O_37  and  C_62
   21  A    between atoms: C_41  and  C_62
                            x       y       z     vdW  Elec       q    Type
                         _______ _______ _______ _____ _____    ______ ____

>  <TORSDO>
F 21

$$$$
=
 OpenBabel11032419473D

 62 67  0  0  1  0  0  0  0  0999 V2000
  190.3360  177.0350  138.2290 C   0  0  2  0  0  3  0  0  0  0  0  0
  192.9080  174.3990  137.2230 C   0  0  0  0  0  0  0  0  0  0  0  0
  193.2660  173.1830  135.1600 C   0  0  0  0  0  3  0  0  0  0  0  0
  190.7670  175.7670  136.0480 C   0  0  0  0  0  3  0  0  0  0  0  0
  194.3150  172.5390  135.7420 N   0  0  0  0  0  0  0  0  0  0  0  0
  193.9860  173.7210  137.7980 C   0  0  0  0  0  3  0  0  0  0  0  0
  195.8390  172.0540  137.6180 C   0  0  0  0  0  1  0  0  0  0  0  0
  191.4760  174.8190  135.2990 C   0  0  0  0  0  3  0  0  0  0  0  0
  191.1180  176.0400  137.3840 C   0  0  0  0  0  0  0  0  0  0  0  0
  192.1890  175.3340  137.9640 C   0  0  0  0  0  3  0  0  0  0  0  0
  192.5450  174.1360  135.8860 C   0  0  0  0  0  0  0  0  0  0  0  0
  194.6870  172.7850  137.0290 C   0  0  0  0  0  0  0  0  0  0  0  0
  188.0070  178.1610  142.3280 N   0  0  0  0  0  2  0  0  0  0  0  0
  190.1300  176.7840  142.5260 C   0  0  0  0  0  0  0  0  0  0  0  0
  187.1830  177.5740  143.3410 C   0  0  0  0  0  0  0  0  0  0  0  0
  189.0870  177.4590  141.7040 C   0  0  0  0  0  0  0  0  0  0  0  0
  191.5360  176.6760  140.4840 C   0  0  2  0  0  3  0  0  0  0  0  0
  190.2020  176.6710  139.7150 C   0  0  1  0  0  3  0  0  0  0  0  0
  191.2620  176.3720  141.9350 C   0  0  0  0  0  3  0  0  0  0  0  0
  189.1830  177.4670  140.4050 N   0  0  0  0  0  0  0  0  0  0  0  0
  187.1210  176.3160  143.4500 O   0  0  0  0  0  0  0  0  0  0  0  0
  192.1540  177.9260  140.3880 O   0  0  0  0  0  0  0  0  0  0  0  0
  193.5080  177.6470  140.1930 C   0  0  0  0  0  1  0  0  0  0  0  0
  189.9260  176.6130  143.9010 O   0  0  0  0  0  0  0  0  0  0  0  0
  190.6720  177.3100  144.8890 C   0  0  0  0  0  1  0  0  0  0  0  0
  186.4260  178.4510  144.2950 C   0  0  1  0  0  3  0  0  0  0  0  0
  185.2360  178.8860  143.6990 O   0  0  0  0  0  0  0  0  0  0  0  0
  184.2240  178.6780  144.6490 C   0  0  0  0  0  2  0  0  0  0  0  0
  181.7340  178.4190  144.5180 O   0  0  0  0  0  1  0  0  0  0  0  0
  182.8910  179.0600  144.0890 C   0  0  0  0  0  0  0  0  0  0  0  0
  182.8120  179.9900  143.2420 O   0  0  0  0  0  0  0  0  0  0  0  0
  186.1110  177.6470  145.5570 C   0  0  0  0  0  2  0  0  0  0  0  0
  186.9350  178.1420  146.7320 C   0  0  0  0  0  2  0  0  0  0  0  0
  188.4890  177.6730  148.2340 C   0  0  0  0  0  1  0  0  0  0  0  0
  187.8880  177.1830  147.0710 O   0  0  0  0  0  0  0  0  0  0  0  0
  189.0650  177.5050  137.6460 N   0  0  0  0  0  0  0  0  0  0  0  0
  188.8700  178.9360  137.8750 C   0  0  0  0  0  1  0  0  0  0  0  0
  187.9760  176.7780  138.2850 C   0  0  0  0  0  2  0  0  0  0  0  0
  187.3620  175.7660  137.3150 C   0  0  0  0  0  2  0  0  0  0  0  0
  186.9850  176.4420  136.0800 N   0  0  0  0  0  2  0  0  0  0  0  0
  185.9030  175.6970  135.4390 C   0  0  0  0  0  2  0  0  0  0  0  0
  184.9800  175.0300  136.4600 C   0  0  0  0  0  2  0  0  0  0  0  0
  183.8210  174.3250  135.7870 C   0  0  0  0  0  2  0  0  0  0  0  0
  182.6200  175.0320  136.0540 O   0  0  0  0  0  0  0  0  0  0  0  0
  180.2030  175.2060  136.6830 C   0  0  2  0  0  3  0  0  0  0  0  0
  180.4700  172.4280  137.6220 C   0  0  0  0  0  2  0  0  0  0  0  0
  181.5970  173.2230  137.1260 N   0  0  0  0  0  0  0  0  0  0  0  0
  179.0040  174.2810  136.9150 C   0  0  0  0  0  2  0  0  0  0  0  0
  181.5050  174.4300  136.6370 C   0  0  0  0  0  0  0  0  0  0  0  0
  179.3050  173.3100  138.0400 C   0  0  0  0  0  2  0  0  0  0  0  0
  179.8570  177.6720  137.3670 C   0  0  0  0  0  0  0  0  0  0  0  0
  180.0480  178.4330  138.5030 C   0  0  0  0  0  0  0  0  0  0  0  0
  180.3370  180.3380  140.0820 C   0  0  0  0  0  2  0  0  0  0  0  0
  180.1490  179.3120  141.2110 C   0  0  0  0  0  2  0  0  0  0  0  0
  180.6670  176.3370  138.9520 N   0  0  0  0  0  0  0  0  0  0  0  0
  180.8380  177.9850  140.8680 C   0  0  0  0  0  2  0  0  0  0  0  0
  181.0310  175.2320  139.6880 O   0  0  0  0  0  1  0  0  0  0  0  0
  179.6790  179.8650  138.7830 C   0  0  1  0  0  3  0  0  0  0  0  0
  180.1050  180.7790  137.6560 C   0  0  0  0  0  1  0  0  0  0  0  0
  180.2740  176.3760  137.6510 C   0  0  0  0  0  0  0  0  0  0  0  0
  179.3120  178.1240  136.1670 O   0  0  0  0  0  1  0  0  0  0  0  0
  180.5060  177.5670  139.4690 C   0  0  0  0  0  0  0  0  0  0  0  0
  1 36  1  6  0  0  0
  2  6  1  0  0  0  0
  2 10  1  0  0  0  0
  3  5  2  0  0  0  0
  3 11  1  0  0  0  0
  4  9  1  0  0  0  0
  5 12  1  0  0  0  0
  8 11  1  0  0  0  0
  8  4  2  0  0  0  0
  9 10  2  0  0  0  0
  9  1  1  0  0  0  0
 11  2  2  0  0  0  0
 12  7  1  0  0  0  0
 12  6  2  0  0  0  0
 13 15  1  0  0  0  0
 14 24  1  0  0  0  0
 15 21  2  0  0  0  0
 15 26  1  0  0  0  0
 16 13  1  0  0  0  0
 16 14  1  0  0  0  0
 17 22  1  1  0  0  0
 17 19  1  0  0  0  0
 18  1  1  6  0  0  0
 18 20  1  0  0  0  0
 18 17  1  0  0  0  0
 19 14  2  0  0  0  0
 20 16  2  0  0  0  0
 23 22  1  0  0  0  0
 24 25  1  0  0  0  0
 26 32  1  1  0  0  0
 27 26  1  0  0  0  0
 27 28  1  0  0  0  0
 30 29  1  0  0  0  0
 30 28  1  0  0  0  0
 31 30  2  0  0  0  0
 32 33  1  0  0  0  0
 33 35  1  0  0  0  0
 35 34  1  0  0  0  0
 36 37  1  0  0  0  0
 36 38  1  0  0  0  0
 39 38  1  0  0  0  0
 40 39  1  0  0  0  0
 41 40  1  0  0  0  0
 41 42  1  0  0  0  0
 43 44  1  0  0  0  0
 43 42  1  0  0  0  0
 44 49  1  0  0  0  0
 45 48  1  0  0  0  0
 45 60  1  1  0  0  0
 46 50  1  0  0  0  0
 47 46  1  0  0  0  0
 48 50  1  0  0  0  0
 49 45  1  0  0  0  0
 49 47  2  0  0  0  0
 51 60  2  0  0  0  0
 51 52  1  0  0  0  0
 52 58  1  0  0  0  0
 52 62  2  0  0  0  0
 53 54  1  0  0  0  0
 55 62  1  0  0  0  0
 55 57  1  0  0  0  0
 56 54  1  0  0  0  0
 58 59  1  6  0  0  0
 58 53  1  0  0  0  0
 60 55  1  0  0  0  0
 61 51  1  0  0  0  0
 62 56  1  0  0  0  0
M  END
>  <MODEL>
4

>  <REMARK>
 VINA RESULT:      -5.5      2.426      4.167
  Name = 
  21 active torsions:
  status: ('A' for Active; 'I' for Inactive)
    1  A    between atoms: C_1  and  N_19
    2  A    between atoms: C_1  and  C_21
    3  A    between atoms: C_5  and  O_26
    4  A    between atoms: C_7  and  C_13
    5  A    between atoms: C_11  and  O_29
    6  A    between atoms: C_11  and  C_46
    7  A    between atoms: C_12  and  C_51
    8  A    between atoms: C_13  and  C_41
    9  A    between atoms: C_13  and  O_47
   10  A    between atoms: C_16  and  O_53
   11  A    between atoms: C_17  and  C_38
   12  A    between atoms: C_17  and  O_47
   13  A    between atoms: N_19  and  C_35
   14  A    between atoms: N_20  and  C_21
   15  A    between atoms: N_20  and  C_23
   16  A    between atoms: C_23  and  C_28
   17  A    between atoms: C_23  and  C_44
   18  A    between atoms: O_29  and  C_43
   19  A    between atoms: C_35  and  C_46
   20  A    between atoms: O_37  and  C_62
   21  A    between atoms: C_41  and  C_62
                            x       y       z     vdW  Elec       q    Type
                         _______ _______ _______ _____ _____    ______ ____

>  <TORSDO>
F 21

$$$$
=
 OpenBabel11032419473D

 62 67  0  0  1  0  0  0  0  0999 V2000
  189.3600  177.9940  142.0730 C   0  0  2  0  0  3  0  0  0  0  0  0
  186.2560  178.4210  144.2540 C   0  0  0  0  0  0  0  0  0  0  0  0
  185.9030  178.1920  146.6390 C   0  0  0  0  0  3  0  0  0  0  0  0
  188.9650  177.8020  144.5940 C   0  0  0  0  0  3  0  0  0  0  0  0
  184.5910  178.5110  146.4580 N   0  0  0  0  0  0  0  0  0  0  0  0
  184.9050  178.7430  144.0950 C   0  0  0  0  0  3  0  0  0  0  0  0
  182.6410  179.1280  145.0810 C   0  0  0  0  0  1  0  0  0  0  0  0
  188.1200  177.8410  145.7100 C   0  0  0  0  0  3  0  0  0  0  0  0
  188.4690  178.0710  143.3040 C   0  0  0  0  0  0  0  0  0  0  0  0
  187.1020  178.3680  143.1490 C   0  0  0  0  0  3  0  0  0  0  0  0
  186.7670  178.1500  145.5410 C   0  0  0  0  0  0  0  0  0  0  0  0
  184.0810  178.7860  145.2250 C   0  0  0  0  0  0  0  0  0  0  0  0
  185.1090  178.1740  139.7490 N   0  0  0  0  0  2  0  0  0  0  0  0
  187.2190  178.3750  138.3520 C   0  0  0  0  0  0  0  0  0  0  0  0
  184.2360  179.0970  139.0920 C   0  0  0  0  0  0  0  0  0  0  0  0
  186.5360  178.2670  139.6710 C   0  0  0  0  0  0  0  0  0  0  0  0
  189.3330  177.7690  139.5030 C   0  0  2  0  0  3  0  0  0  0  0  0
  188.6890  178.3990  140.7510 C   0  0  1  0  0  3  0  0  0  0  0  0
  188.5460  178.1880  138.2870 C   0  0  0  0  0  3  0  0  0  0  0  0
  187.2380  178.1950  140.7660 N   0  0  0  0  0  0  0  0  0  0  0  0
  184.6670  180.2340  138.7450 O   0  0  0  0  0  0  0  0  0  0  0  0
  189.3240  176.3750  139.5950 O   0  0  0  0  0  0  0  0  0  0  0  0
  189.9020  175.9290  138.4060 C   0  0  0  0  0  1  0  0  0  0  0  0
  186.4670  178.6420  137.2000 O   0  0  0  0  0  0  0  0  0  0  0  0
  186.9130  178.3190  135.8910 C   0  0  0  0  0  1  0  0  0  0  0  0
  182.8220  178.7020  138.7790 C   0  0  1  0  0  3  0  0  0  0  0  0
  182.8060  177.7980  137.7100 O   0  0  0  0  0  0  0  0  0  0  0  0
  182.5720  176.5330  138.2700 C   0  0  0  0  0  2  0  0  0  0  0  0
  184.2280  175.7550  136.5570 O   0  0  0  0  0  0  0  0  0  0  0  0
  183.1800  175.4620  137.4220 C   0  0  0  0  0  0  0  0  0  0  0  0
  182.7590  174.2770  137.5130 O   0  0  0  0  0  1  0  0  0  0  0  0
  182.2080  178.0510  140.0180 C   0  0  0  0  0  2  0  0  0  0  0  0
  181.2940  179.0230  140.7420 C   0  0  0  0  0  2  0  0  0  0  0  0
  180.0310  179.3880  142.5200 C   0  0  0  0  0  1  0  0  0  0  0  0
  181.0420  178.5570  142.0310 O   0  0  0  0  0  0  0  0  0  0  0  0
  190.1640  176.7640  141.9440 N   0  0  0  0  0  0  0  0  0  0  0  0
  189.6760  175.7130  142.8350 C   0  0  0  0  0  1  0  0  0  0  0  0
  191.5390  177.0800  142.3060 C   0  0  0  0  0  2  0  0  0  0  0  0
  192.2520  177.7850  141.1500 C   0  0  0  0  0  2  0  0  0  0  0  0
  193.1700  176.8550  140.5040 N   0  0  0  0  0  2  0  0  0  0  0  0
  192.8340  176.7630  139.0840 C   0  0  0  0  0  2  0  0  0  0  0  0
  194.0480  176.3970  138.2290 C   0  0  0  0  0  2  0  0  0  0  0  0
  194.6210  175.0510  138.6220 C   0  0  0  0  0  2  0  0  0  0  0  0
  195.7810  174.7890  137.8480 O   0  0  0  0  0  0  0  0  0  0  0  0
  195.5130  173.9590  135.5010 C   0  0  2  0  0  3  0  0  0  0  0  0
  196.5190  171.3880  136.5250 C   0  0  0  0  0  2  0  0  0  0  0  0
  196.2440  172.5450  137.3820 N   0  0  0  0  0  0  0  0  0  0  0  0
  196.0820  172.8610  134.5960 C   0  0  0  0  0  2  0  0  0  0  0  0
  195.8660  173.7200  136.9560 C   0  0  0  0  0  0  0  0  0  0  0  0
  195.7970  171.4950  135.1910 C   0  0  0  0  0  2  0  0  0  0  0  0
  193.0240  173.2790  135.5770 C   0  0  0  0  0  0  0  0  0  0  0  0
  191.8110  173.8840  135.3130 C   0  0  0  0  0  0  0  0  0  0  0  0
  189.4030  174.2980  134.8290 C   0  0  0  0  0  2  0  0  0  0  0  0
  189.6880  175.7760  135.1410 C   0  0  0  0  0  2  0  0  0  0  0  0
  193.4320  175.3700  134.9360 N   0  0  0  0  0  0  0  0  0  0  0  0
  191.0610  176.1970  134.6020 C   0  0  0  0  0  2  0  0  0  0  0  0
  194.0360  176.5860  134.7050 O   0  0  0  0  0  1  0  0  0  0  0  0
  190.4090  173.3770  135.5230 C   0  0  1  0  0  3  0  0  0  0  0  0
  190.2410  171.9730  134.9860 C   0  0  0  0  0  1  0  0  0  0  0  0
  194.0260  174.2050  135.3100 C   0  0  0  0  0  0  0  0  0  0  0  0
  193.1990  171.9830  136.0560 O   0  0  0  0  0  1  0  0  0  0  0  0
  192.1010  175.1820  134.9640 C   0  0  0  0  0  0  0  0  0  0  0  0
  1 36  1  6  0  0  0
  1  9  1  0  0  0  0
  2 11  1  0  0  0  0
  4  8  2  0  0  0  0
  5  3  1  0  0  0  0
  6  2  2  0  0  0  0
  6 12  1  0  0  0  0
  7 12  1  0  0  0  0
  9  4  1  0  0  0  0
 10  9  2  0  0  0  0
 10  2  1  0  0  0  0
 11  8  1  0  0  0  0
 11  3  2  0  0  0  0
 12  5  2  0  0  0  0
 14 16  1  0  0  0  0
 15 13  1  0  0  0  0
 16 13  1  0  0  0  0
 16 20  2  0  0  0  0
 17 22  1  1  0  0  0
 17 18  1  0  0  0  0
 18 20  1  0  0  0  0
 18  1  1  1  0  0  0
 19 14  2  0  0  0  0
 19 17  1  0  0  0  0
 21 15  2  0  0  0  0
 23 22  1  0  0  0  0
 24 14  1  0  0  0  0
 25 24  1  0  0  0  0
 26 15  1  0  0  0  0
 26 32  1  1  0  0  0
 27 28  1  0  0  0  0
 27 26  1  0  0  0  0
 29 30  2  0  0  0  0
 30 31  1  0  0  0  0
 30 28  1  0  0  0  0
 32 33  1  0  0  0  0
 33 35  1  0  0  0  0
 35 34  1  0  0  0  0
 36 38  1  0  0  0  0
 36 37  1  0  0  0  0
 39 38  1  0  0  0  0
 40 39  1  0  0  0  0
 41 40  1  0  0  0  0
 42 43  1  0  0  0  0
 42 41  1  0  0  0  0
 44 43  1  0  0  0  0
 45 60  1  1  0  0  0
 45 49  1  0  0  0  0
 46 47  1  0  0  0  0
 48 50  1  0  0  0  0
 48 45  1  0  0  0  0
 49 47  2  0  0  0  0
 49 44  1  0  0  0  0
 50 46  1  0  0  0  0
 51 61  1  0  0  0  0
 52 58  1  0  0  0  0
 52 51  1  0  0  0  0
 53 54  1  0  0  0  0
 53 58  1  0  0  0  0
 55 62  1  0  0  0  0
 55 60  1  0  0  0  0
 56 62  1  0  0  0  0
 56 54  1  0  0  0  0
 57 55  1  0  0  0  0
 58 59  1  6  0  0  0
 60 51  2  0  0  0  0
 62 52  2  0  0  0  0
M  END
>  <MODEL>
5

>  <REMARK>
 VINA RESULT:      -5.2      3.125     10.483
  Name = 
  21 active torsions:
  status: ('A' for Active; 'I' for Inactive)
    1  A    between atoms: C_1  and  N_19
    2  A    between atoms: C_1  and  C_21
    3  A    between atoms: C_5  and  O_26
    4  A    between atoms: C_7  and  C_13
    5  A    between atoms: C_11  and  O_29
    6  A    between atoms: C_11  and  C_46
    7  A    between atoms: C_12  and  C_51
    8  A    between atoms: C_13  and  C_41
    9  A    between atoms: C_13  and  O_47
   10  A    between atoms: C_16  and  O_53
   11  A    between atoms: C_17  and  C_38
   12  A    between atoms: C_17  and  O_47
   13  A    between atoms: N_19  and  C_35
   14  A    between atoms: N_20  and  C_21
   15  A    between atoms: N_20  and  C_23
   16  A    between atoms: C_23  and  C_28
   17  A    between atoms: C_23  and  C_44
   18  A    between atoms: O_29  and  C_43
   19  A    between atoms: C_35  and  C_46
   20  A    between atoms: O_37  and  C_62
   21  A    between atoms: C_41  and  C_62
                            x       y       z     vdW  Elec       q    Type
                         _______ _______ _______ _____ _____    ______ ____

>  <TORSDO>
F 21

$$$$
=
 OpenBabel11032419473D

 62 67  0  0  1  0  0  0  0  0999 V2000
  187.3320  178.6320  140.5500 C   0  0  2  0  0  3  0  0  0  0  0  0
  188.7410  177.7180  143.9790 C   0  0  0  0  0  0  0  0  0  0  0  0
  190.4610  176.1570  144.6650 C   0  0  0  0  0  3  0  0  0  0  0  0
  189.1750  177.0230  141.3020 C   0  0  0  0  0  3  0  0  0  0  0  0
  190.2480  176.5190  145.9600 N   0  0  0  0  0  0  0  0  0  0  0  0
  188.5410  178.0690  145.3160 C   0  0  0  0  0  3  0  0  0  0  0  0
  189.1230  177.8110  147.7330 C   0  0  0  0  0  1  0  0  0  0  0  0
  189.9340  176.4100  142.3070 C   0  0  0  0  0  3  0  0  0  0  0  0
  188.1970  177.9840  141.6220 C   0  0  0  0  0  0  0  0  0  0  0  0
  187.9820  178.3130  142.9740 C   0  0  0  0  0  3  0  0  0  0  0  0
  189.7180  176.7570  143.6430 C   0  0  0  0  0  0  0  0  0  0  0  0
  189.3170  177.4520  146.3040 C   0  0  0  0  0  0  0  0  0  0  0  0
  182.9930  180.1100  138.9730 N   0  0  0  0  0  2  0  0  0  0  0  0
  183.0690  178.8120  141.1540 C   0  0  0  0  0  0  0  0  0  0  0  0
  181.7930  179.6090  138.3770 C   0  0  0  0  0  0  0  0  0  0  0  0
  183.7400  179.3750  139.9490 C   0  0  0  0  0  0  0  0  0  0  0  0
  185.3200  178.5330  142.1610 C   0  0  2  0  0  3  0  0  0  0  0  0
  185.8190  178.4180  140.7100 C   0  0  1  0  0  3  0  0  0  0  0  0
  183.8210  178.3710  142.1730 C   0  0  0  0  0  3  0  0  0  0  0  0
  185.0290  179.2540  139.8020 N   0  0  0  0  0  0  0  0  0  0  0  0
  181.5550  178.3670  138.3910 O   0  0  0  0  0  0  0  0  0  0  0  0
  185.6490  179.7820  142.6960 O   0  0  0  0  0  0  0  0  0  0  0  0
  184.8520  179.9100  143.8350 C   0  0  0  0  0  1  0  0  0  0  0  0
  181.6700  178.7760  141.2160 O   0  0  0  0  0  0  0  0  0  0  0  0
  180.9360  179.1230  142.3810 C   0  0  0  0  0  1  0  0  0  0  0  0
  180.8000  180.5580  137.7730 C   0  0  1  0  0  3  0  0  0  0  0  0
  181.2890  181.8680  137.8470 O   0  0  0  0  0  0  0  0  0  0  0  0
  180.4380  182.6490  137.0490 C   0  0  0  0  0  2  0  0  0  0  0  0
  181.0460  184.4020  135.3640 O   0  0  0  0  0  0  0  0  0  0  0  0
  181.1040  183.9340  136.6720 C   0  0  0  0  0  0  0  0  0  0  0  0
  181.6980  184.6120  137.5530 O   0  0  0  0  0  1  0  0  0  0  0  0
  180.5750  180.1710  136.3120 C   0  0  0  0  0  2  0  0  0  0  0  0
  179.3930  179.2260  136.1800 C   0  0  0  0  0  2  0  0  0  0  0  0
  180.8470  178.7140  134.5940 C   0  0  0  0  0  1  0  0  0  0  0  0
  179.5590  178.4250  135.0510 O   0  0  0  0  0  0  0  0  0  0  0  0
  187.7870  178.4360  139.1600 N   0  0  0  0  0  0  0  0  0  0  0  0
  187.4020  177.1200  138.6550 C   0  0  0  0  0  1  0  0  0  0  0  0
  189.2390  178.5380  139.1380 C   0  0  0  0  0  2  0  0  0  0  0  0
  189.8040  177.9010  137.8660 C   0  0  0  0  0  2  0  0  0  0  0  0
  189.0790  178.4030  136.7070 N   0  0  0  0  0  2  0  0  0  0  0  0
  189.5980  177.7570  135.5020 C   0  0  0  0  0  2  0  0  0  0  0  0
  188.5730  176.8180  134.8650 C   0  0  0  0  0  2  0  0  0  0  0  0
  187.1560  177.2300  135.2030 C   0  0  0  0  0  2  0  0  0  0  0  0
  186.3010  176.1010  135.1030 O   0  0  0  0  0  0  0  0  0  0  0  0
  185.7710  173.6630  135.3100 C   0  0  2  0  0  3  0  0  0  0  0  0
  188.1100  173.5260  137.0940 C   0  0  0  0  0  2  0  0  0  0  0  0
  187.5960  174.7790  136.5340 N   0  0  0  0  0  0  0  0  0  0  0  0
  186.4890  172.3530  135.6520 C   0  0  0  0  0  2  0  0  0  0  0  0
  186.6070  174.8710  135.6860 C   0  0  0  0  0  0  0  0  0  0  0  0
  187.0640  172.4240  137.0540 C   0  0  0  0  0  2  0  0  0  0  0  0
  183.3070  172.9190  135.5090 C   0  0  0  0  0  0  0  0  0  0  0  0
  182.2040  173.2930  136.2510 C   0  0  0  0  0  0  0  0  0  0  0  0
  179.8760  173.5970  137.0830 C   0  0  0  0  0  2  0  0  0  0  0  0
  180.5060  174.1290  138.3800 C   0  0  0  0  0  2  0  0  0  0  0  0
  183.9190  174.5910  136.8430 N   0  0  0  0  0  0  0  0  0  0  0  0
  181.7440  174.9850  138.0790 C   0  0  0  0  0  2  0  0  0  0  0  0
  184.6590  175.4910  137.5760 O   0  0  0  0  0  1  0  0  0  0  0  0
  180.8370  172.6690  136.3360 C   0  0  1  0  0  3  0  0  0  0  0  0
  180.2720  172.3800  134.9630 C   0  0  0  0  0  1  0  0  0  0  0  0
  184.3590  173.7540  135.8660 C   0  0  0  0  0  0  0  0  0  0  0  0
  183.3540  171.8700  134.5940 O   0  0  0  0  0  1  0  0  0  0  0  0
  182.6320  174.2940  137.0910 C   0  0  0  0  0  0  0  0  0  0  0  0
  1 36  1  6  0  0  0
  1  9  1  0  0  0  0
  2  6  2  0  0  0  0
  3  5  1  0  0  0  0
  4  9  1  0  0  0  0
  4  8  2  0  0  0  0
  5 12  2  0  0  0  0
  6 12  1  0  0  0  0
  8 11  1  0  0  0  0
  9 10  2  0  0  0  0
 10  2  1  0  0  0  0
 11  2  1  0  0  0  0
 11  3  2  0  0  0  0
 12  7  1  0  0  0  0
 13 16  1  0  0  0  0
 14 24  1  0  0  0  0
 14 19  2  0  0  0  0
 15 21  2  0  0  0  0
 15 13  1  0  0  0  0
 16 14  1  0  0  0  0
 17 19  1  0  0  0  0
 17 22  1  6  0  0  0
 18  1  1  1  0  0  0
 18 17  1  0  0  0  0
 20 16  2  0  0  0  0
 20 18  1  0  0  0  0
 22 23  1  0  0  0  0
 24 25  1  0  0  0  0
 26 32  1  6  0  0  0
 26 27  1  0  0  0  0
 26 15  1  0  0  0  0
 28 27  1  0  0  0  0
 29 30  2  0  0  0  0
 30 28  1  0  0  0  0
 30 31  1  0  0  0  0
 33 32  1  0  0  0  0
 34 35  1  0  0  0  0
 35 33  1  0  0  0  0
 37 36  1  0  0  0  0
 38 36  1  0  0  0  0
 39 38  1  0  0  0  0
 40 39  1  0  0  0  0
 41 40  1  0  0  0  0
 42 43  1  0  0  0  0
 42 41  1  0  0  0  0
 44 43  1  0  0  0  0
 44 49  1  0  0  0  0
 45 48  1  0  0  0  0
 45 49  1  0  0  0  0
 45 60  1  1  0  0  0
 47 46  1  0  0  0  0
 48 50  1  0  0  0  0
 49 47  2  0  0  0  0
 50 46  1  0  0  0  0
 51 60  2  0  0  0  0
 51 52  1  0  0  0  0
 52 58  1  0  0  0  0
 52 62  2  0  0  0  0
 53 54  1  0  0  0  0
 55 62  1  0  0  0  0
 55 57  1  0  0  0  0
 56 54  1  0  0  0  0
 58 59  1  6  0  0  0
 58 53  1  0  0  0  0
 60 55  1  0  0  0  0
 61 51  1  0  0  0  0
 62 56  1  0  0  0  0
M  END
>  <MODEL>
6

>  <REMARK>
 VINA RESULT:      -5.2      3.819      8.777
  Name = 
  21 active torsions:
  status: ('A' for Active; 'I' for Inactive)
    1  A    between atoms: C_1  and  N_19
    2  A    between atoms: C_1  and  C_21
    3  A    between atoms: C_5  and  O_26
    4  A    between atoms: C_7  and  C_13
    5  A    between atoms: C_11  and  O_29
    6  A    between atoms: C_11  and  C_46
    7  A    between atoms: C_12  and  C_51
    8  A    between atoms: C_13  and  C_41
    9  A    between atoms: C_13  and  O_47
   10  A    between atoms: C_16  and  O_53
   11  A    between atoms: C_17  and  C_38
   12  A    between atoms: C_17  and  O_47
   13  A    between atoms: N_19  and  C_35
   14  A    between atoms: N_20  and  C_21
   15  A    between atoms: N_20  and  C_23
   16  A    between atoms: C_23  and  C_28
   17  A    between atoms: C_23  and  C_44
   18  A    between atoms: O_29  and  C_43
   19  A    between atoms: C_35  and  C_46
   20  A    between atoms: O_37  and  C_62
   21  A    between atoms: C_41  and  C_62
                            x       y       z     vdW  Elec       q    Type
                         _______ _______ _______ _____ _____    ______ ____

>  <TORSDO>
F 21

$$$$
=
 OpenBabel11032419473D

 62 67  0  0  1  0  0  0  0  0999 V2000
  190.8460  176.9570  138.1730 C   0  0  2  0  0  3  0  0  0  0  0  0
  193.4030  174.2760  137.2500 C   0  0  0  0  0  0  0  0  0  0  0  0
  193.8680  173.1210  135.1740 C   0  0  0  0  0  3  0  0  0  0  0  0
  191.3900  175.7510  135.9820 C   0  0  0  0  0  3  0  0  0  0  0  0
  194.8550  172.4240  135.8030 N   0  0  0  0  0  0  0  0  0  0  0  0
  194.4190  173.5450  137.8730 C   0  0  0  0  0  3  0  0  0  0  0  0
  196.2310  171.8280  137.7600 C   0  0  0  0  0  1  0  0  0  0  0  0
  192.1210  174.8070  135.2500 C   0  0  0  0  0  3  0  0  0  0  0  0
  191.6560  175.9670  137.3480 C   0  0  0  0  0  0  0  0  0  0  0  0
  192.6620  175.2080  137.9740 C   0  0  0  0  0  3  0  0  0  0  0  0
  193.1260  174.0710  135.8830 C   0  0  0  0  0  0  0  0  0  0  0  0
  195.1440  172.6150  137.1200 C   0  0  0  0  0  0  0  0  0  0  0  0
  188.2920  177.8580  142.1930 N   0  0  0  0  0  2  0  0  0  0  0  0
  190.5990  176.8370  142.4730 C   0  0  0  0  0  0  0  0  0  0  0  0
  187.5500  177.1880  143.2170 C   0  0  0  0  0  0  0  0  0  0  0  0
  189.4800  177.3100  141.6120 C   0  0  0  0  0  0  0  0  0  0  0  0
  192.0440  176.8740  140.4560 C   0  0  2  0  0  3  0  0  0  0  0  0
  190.7420  176.6330  139.6710 C   0  0  1  0  0  3  0  0  0  0  0  0
  191.7920  176.5850  141.9140 C   0  0  0  0  0  3  0  0  0  0  0  0
  189.5990  177.2850  140.3150 N   0  0  0  0  0  0  0  0  0  0  0  0
  187.6820  175.9410  143.3750 O   0  0  0  0  0  0  0  0  0  0  0  0
  192.4620  178.2000  140.3180 O   0  0  0  0  0  0  0  0  0  0  0  0
  193.7790  178.1200  139.8620 C   0  0  0  0  0  1  0  0  0  0  0  0
  190.3980  176.6870  143.8520 O   0  0  0  0  0  0  0  0  0  0  0  0
  191.4010  176.2040  144.7340 C   0  0  0  0  0  1  0  0  0  0  0  0
  186.6480  177.9710  144.1260 C   0  0  1  0  0  3  0  0  0  0  0  0
  185.3450  177.9760  143.6130 O   0  0  0  0  0  0  0  0  0  0  0  0
  185.1740  179.2220  142.9910 C   0  0  0  0  0  2  0  0  0  0  0  0
  185.4770  179.2970  140.5040 O   0  0  0  0  0  0  0  0  0  0  0  0
  184.6570  179.0470  141.5990 C   0  0  0  0  0  0  0  0  0  0  0  0
  183.4780  178.6420  141.4160 O   0  0  0  0  0  1  0  0  0  0  0  0
  186.6600  177.3210  145.5090 C   0  0  0  0  0  2  0  0  0  0  0  0
  186.9440  178.3520  146.5870 C   0  0  0  0  0  2  0  0  0  0  0  0
  189.0490  177.8520  147.0450 C   0  0  0  0  0  1  0  0  0  0  0  0
  187.7550  177.7890  147.5710 O   0  0  0  0  0  0  0  0  0  0  0  0
  189.5520  177.3630  137.5920 N   0  0  0  0  0  0  0  0  0  0  0  0
  189.1690  178.7030  138.0300 C   0  0  0  0  0  1  0  0  0  0  0  0
  188.5380  176.4180  138.0380 C   0  0  0  0  0  2  0  0  0  0  0  0
  187.8660  175.7430  136.8400 C   0  0  0  0  0  2  0  0  0  0  0  0
  187.6630  176.7230  135.7800 N   0  0  0  0  0  2  0  0  0  0  0  0
  186.5210  176.3130  134.9650 C   0  0  0  0  0  2  0  0  0  0  0  0
  185.3180  175.9120  135.8200 C   0  0  0  0  0  2  0  0  0  0  0  0
  185.0140  176.9540  136.8760 C   0  0  0  0  0  2  0  0  0  0  0  0
  183.7340  177.5150  136.6310 O   0  0  0  0  0  0  0  0  0  0  0  0
  181.3100  177.4410  136.0080 C   0  0  2  0  0  3  0  0  0  0  0  0
  181.6830  174.5300  135.7660 C   0  0  0  0  0  2  0  0  0  0  0  0
  182.7280  175.4390  136.2460 N   0  0  0  0  0  0  0  0  0  0  0  0
  180.3470  176.5340  135.2350 C   0  0  0  0  0  2  0  0  0  0  0  0
  182.6230  176.7400  136.3000 C   0  0  0  0  0  0  0  0  0  0  0  0
  180.3020  175.1580  135.8720 C   0  0  0  0  0  2  0  0  0  0  0  0
  180.7170  177.4760  138.5200 C   0  0  0  0  0  0  0  0  0  0  0  0
  180.1050  178.3540  139.3940 C   0  0  0  0  0  0  0  0  0  0  0  0
  178.9570  179.3470  141.3680 C   0  0  0  0  0  2  0  0  0  0  0  0
  179.2820  180.7180  140.7520 C   0  0  0  0  0  2  0  0  0  0  0  0
  180.1390  179.2890  137.3680 N   0  0  0  0  0  0  0  0  0  0  0  0
  179.1290  180.6850  139.2260 C   0  0  0  0  0  2  0  0  0  0  0  0
  180.0400  180.2600  136.3970 O   0  0  0  0  0  1  0  0  0  0  0  0
  179.9370  178.2740  140.8870 C   0  0  1  0  0  3  0  0  0  0  0  0
  179.4270  176.9160  141.3160 C   0  0  0  0  0  1  0  0  0  0  0  0
  180.7050  178.0580  137.2580 C   0  0  0  0  0  0  0  0  0  0  0  0
  181.2740  176.2450  138.8600 O   0  0  0  0  0  1  0  0  0  0  0  0
  179.8030  179.4750  138.6570 C   0  0  0  0  0  0  0  0  0  0  0  0
  1 36  1  6  0  0  0
  2  6  1  0  0  0  0
  2 10  1  0  0  0  0
  3  5  2  0  0  0  0
  3 11  1  0  0  0  0
  4  9  1  0  0  0  0
  5 12  1  0  0  0  0
  8 11  1  0  0  0  0
  8  4  2  0  0  0  0
  9 10  2  0  0  0  0
  9  1  1  0  0  0  0
 11  2  2  0  0  0  0
 12  7  1  0  0  0  0
 12  6  2  0  0  0  0
 13 15  1  0  0  0  0
 14 24  1  0  0  0  0
 15 21  2  0  0  0  0
 15 26  1  0  0  0  0
 16 13  1  0  0  0  0
 16 14  1  0  0  0  0
 17 22  1  1  0  0  0
 17 19  1  0  0  0  0
 18  1  1  6  0  0  0
 18 20  1  0  0  0  0
 18 17  1  0  0  0  0
 19 14  2  0  0  0  0
 20 16  2  0  0  0  0
 23 22  1  0  0  0  0
 24 25  1  0  0  0  0
 26 32  1  1  0  0  0
 27 26  1  0  0  0  0
 28 27  1  0  0  0  0
 29 30  2  0  0  0  0
 30 28  1  0  0  0  0
 31 30  1  0  0  0  0
 32 33  1  0  0  0  0
 33 35  1  0  0  0  0
 34 35  1  0  0  0  0
 36 37  1  0  0  0  0
 36 38  1  0  0  0  0
 39 38  1  0  0  0  0
 40 39  1  0  0  0  0
 41 40  1  0  0  0  0
 41 42  1  0  0  0  0
 42 43  1  0  0  0  0
 44 43  1  0  0  0  0
 45 49  1  0  0  0  0
 45 60  1  1  0  0  0
 46 50  1  0  0  0  0
 46 47  1  0  0  0  0
 47 49  2  0  0  0  0
 48 50  1  0  0  0  0
 48 45  1  0  0  0  0
 49 44  1  0  0  0  0
 51 61  1  0  0  0  0
 51 52  1  0  0  0  0
 52 58  1  0  0  0  0
 54 53  1  0  0  0  0
 55 62  1  0  0  0  0
 56 54  1  0  0  0  0
 57 55  1  0  0  0  0
 58 59  1  6  0  0  0
 58 53  1  0  0  0  0
 60 55  1  0  0  0  0
 60 51  2  0  0  0  0
 62 56  1  0  0  0  0
 62 52  2  0  0  0  0
M  END
>  <MODEL>
7

>  <REMARK>
 VINA RESULT:      -4.7      2.476      4.261
  Name = 
  21 active torsions:
  status: ('A' for Active; 'I' for Inactive)
    1  A    between atoms: C_1  and  N_19
    2  A    between atoms: C_1  and  C_21
    3  A    between atoms: C_5  and  O_26
    4  A    between atoms: C_7  and  C_13
    5  A    between atoms: C_11  and  O_29
    6  A    between atoms: C_11  and  C_46
    7  A    between atoms: C_12  and  C_51
    8  A    between atoms: C_13  and  C_41
    9  A    between atoms: C_13  and  O_47
   10  A    between atoms: C_16  and  O_53
   11  A    between atoms: C_17  and  C_38
   12  A    between atoms: C_17  and  O_47
   13  A    between atoms: N_19  and  C_35
   14  A    between atoms: N_20  and  C_21
   15  A    between atoms: N_20  and  C_23
   16  A    between atoms: C_23  and  C_28
   17  A    between atoms: C_23  and  C_44
   18  A    between atoms: O_29  and  C_43
   19  A    between atoms: C_35  and  C_46
   20  A    between atoms: O_37  and  C_62
   21  A    between atoms: C_41  and  C_62
                            x       y       z     vdW  Elec       q    Type
                         _______ _______ _______ _____ _____    ______ ____

>  <TORSDO>
F 21

$$$$
=
 OpenBabel11032419473D

 62 67  0  0  1  0  0  0  0  0999 V2000
  187.7940  178.0250  141.8080 C   0  0  2  0  0  3  0  0  0  0  0  0
  188.1980  177.5540  145.5760 C   0  0  0  0  0  0  0  0  0  0  0  0
  190.0770  177.8990  147.0640 C   0  0  0  0  0  3  0  0  0  0  0  0
  189.7490  178.4220  143.4130 C   0  0  0  0  0  3  0  0  0  0  0  0
  189.3030  177.4900  148.1070 N   0  0  0  0  0  0  0  0  0  0  0  0
  187.4270  177.1350  146.6630 C   0  0  0  0  0  3  0  0  0  0  0  0
  187.2030  176.6740  149.1090 C   0  0  0  0  0  1  0  0  0  0  0  0
  190.3110  178.3830  144.6950 C   0  0  0  0  0  3  0  0  0  0  0  0
  188.4130  178.0300  143.1990 C   0  0  0  0  0  0  0  0  0  0  0  0
  187.6510  177.5840  144.2950 C   0  0  0  0  0  3  0  0  0  0  0  0
  189.5370  177.9500  145.7750 C   0  0  0  0  0  0  0  0  0  0  0  0
  188.0050  177.1140  147.9370 C   0  0  0  0  0  0  0  0  0  0  0  0
  188.4550  176.4520  137.2710 N   0  0  0  0  0  2  0  0  0  0  0  0
  190.5150  177.1380  138.5860 C   0  0  0  0  0  0  0  0  0  0  0  0
  188.7730  176.9300  135.9600 C   0  0  0  0  0  0  0  0  0  0  0  0
  189.0370  177.0000  138.4590 C   0  0  0  0  0  0  0  0  0  0  0  0
  190.1820  177.4380  141.0270 C   0  0  2  0  0  3  0  0  0  0  0  0
  188.7970  177.9910  140.6450 C   0  0  1  0  0  3  0  0  0  0  0  0
  191.0450  177.3940  139.7920 C   0  0  0  0  0  3  0  0  0  0  0  0
  188.2630  177.3230  139.4550 N   0  0  0  0  0  0  0  0  0  0  0  0
  189.2710  178.0830  135.8140 O   0  0  0  0  0  0  0  0  0  0  0  0
  190.0680  176.1480  141.5520 O   0  0  0  0  0  0  0  0  0  0  0  0
  191.2520  175.9390  142.2600 C   0  0  0  0  0  1  0  0  0  0  0  0
  191.3270  176.9730  137.4570 O   0  0  0  0  0  0  0  0  0  0  0  0
  192.4880  176.1540  137.4490 C   0  0  0  0  0  1  0  0  0  0  0  0
  188.5550  176.0480  134.7650 C   0  0  1  0  0  3  0  0  0  0  0  0
  189.6100  175.1350  134.6490 O   0  0  0  0  0  0  0  0  0  0  0  0
  189.2040  173.9780  135.3330 C   0  0  0  0  0  2  0  0  0  0  0  0
  190.1760  173.3870  137.5670 O   0  0  0  0  0  1  0  0  0  0  0  0
  190.3150  173.4530  136.1840 C   0  0  0  0  0  0  0  0  0  0  0  0
  191.3760  173.0410  135.6430 O   0  0  0  0  0  0  0  0  0  0  0  0
  187.2360  175.2970  134.9420 C   0  0  0  0  0  2  0  0  0  0  0  0
  186.1930  176.1840  135.5980 C   0  0  0  0  0  2  0  0  0  0  0  0
  184.4240  177.4420  135.1750 C   0  0  0  0  0  1  0  0  0  0  0  0
  185.6620  177.0600  134.6520 O   0  0  0  0  0  0  0  0  0  0  0  0
  186.7090  179.0010  141.5900 N   0  0  0  0  0  0  0  0  0  0  0  0
  185.7810  179.0260  142.7190 C   0  0  0  0  0  1  0  0  0  0  0  0
  185.9780  178.6060  140.3940 C   0  0  0  0  0  2  0  0  0  0  0  0
  184.5790  179.2290  140.3890 C   0  0  0  0  0  2  0  0  0  0  0  0
  183.5800  178.1790  140.2420 N   0  0  0  0  0  2  0  0  0  0  0  0
  182.3780  178.5560  140.9850 C   0  0  0  0  0  2  0  0  0  0  0  0
  181.2080  177.6120  140.7060 C   0  0  0  0  0  2  0  0  0  0  0  0
  179.9850  178.3660  140.2300 C   0  0  0  0  0  2  0  0  0  0  0  0
  179.4480  177.7190  139.0870 O   0  0  0  0  0  0  0  0  0  0  0  0
  179.5890  177.0260  136.6850 C   0  0  2  0  0  3  0  0  0  0  0  0
  180.7190  179.7030  136.2040 C   0  0  0  0  0  2  0  0  0  0  0  0
  180.4040  179.1890  137.5400 N   0  0  0  0  0  0  0  0  0  0  0  0
  179.6380  177.6790  135.3000 C   0  0  0  0  0  2  0  0  0  0  0  0
  179.8380  178.0380  137.7870 C   0  0  0  0  0  0  0  0  0  0  0  0
  180.8540  178.5790  135.1900 C   0  0  0  0  0  2  0  0  0  0  0  0
  180.1490  174.5210  136.4090 C   0  0  0  0  0  0  0  0  0  0  0  0
  181.2280  173.7010  136.6700 C   0  0  0  0  0  0  0  0  0  0  0  0
  182.6790  171.7150  137.0680 C   0  0  0  0  0  2  0  0  0  0  0  0
  183.8720  172.6730  136.9260 C   0  0  0  0  0  2  0  0  0  0  0  0
  181.7620  175.7780  137.2840 N   0  0  0  0  0  0  0  0  0  0  0  0
  183.5700  174.0290  137.5780 C   0  0  0  0  0  2  0  0  0  0  0  0
  182.5400  176.8460  137.6710 O   0  0  0  0  0  1  0  0  0  0  0  0
  181.4450  172.2490  136.3360 C   0  0  1  0  0  3  0  0  0  0  0  0
  180.2470  171.4070  136.7140 C   0  0  0  0  0  1  0  0  0  0  0  0
  180.4830  175.8050  136.8220 C   0  0  0  0  0  0  0  0  0  0  0  0
  178.9550  174.1280  135.8070 O   0  0  0  0  0  1  0  0  0  0  0  0
  182.2160  174.5190  137.1670 C   0  0  0  0  0  0  0  0  0  0  0  0
  1 36  1  6  0  0  0
  1  9  1  0  0  0  0
  2 11  1  0  0  0  0
  2  6  2  0  0  0  0
  3  5  1  0  0  0  0
  4  8  2  0  0  0  0
  6 12  1  0  0  0  0
  8 11  1  0  0  0  0
  9  4  1  0  0  0  0
  9 10  2  0  0  0  0
 10  2  1  0  0  0  0
 11  3  2  0  0  0  0
 12  5  2  0  0  0  0
 12  7  1  0  0  0  0
 13 16  1  0  0  0  0
 14 19  2  0  0  0  0
 15 13  1  0  0  0  0
 16 14  1  0  0  0  0
 16 20  2  0  0  0  0
 17 22  1  6  0  0  0
 18 17  1  0  0  0  0
 18  1  1  1  0  0  0
 19 17  1  0  0  0  0
 20 18  1  0  0  0  0
 21 15  2  0  0  0  0
 22 23  1  0  0  0  0
 24 14  1  0  0  0  0
 25 24  1  0  0  0  0
 26 32  1  1  0  0  0
 26 15  1  0  0  0  0
 27 26  1  0  0  0  0
 27 28  1  0  0  0  0
 28 30  1  0  0  0  0
 30 29  1  0  0  0  0
 31 30  2  0  0  0  0
 32 33  1  0  0  0  0
 35 34  1  0  0  0  0
 35 33  1  0  0  0  0
 36 37  1  0  0  0  0
 38 36  1  0  0  0  0
 39 38  1  0  0  0  0
 40 39  1  0  0  0  0
 40 41  1  0  0  0  0
 42 41  1  0  0  0  0
 43 42  1  0  0  0  0
 44 43  1  0  0  0  0
 45 60  1  6  0  0  0
 45 49  1  0  0  0  0
 46 47  1  0  0  0  0
 47 49  2  0  0  0  0
 48 45  1  0  0  0  0
 49 44  1  0  0  0  0
 50 48  1  0  0  0  0
 50 46  1  0  0  0  0
 51 52  1  0  0  0  0
 51 60  2  0  0  0  0
 52 62  2  0  0  0  0
 54 53  1  0  0  0  0
 54 56  1  0  0  0  0
 55 57  1  0  0  0  0
 58 52  1  0  0  0  0
 58 59  1  1  0  0  0
 58 53  1  0  0  0  0
 60 55  1  0  0  0  0
 61 51  1  0  0  0  0
 62 55  1  0  0  0  0
 62 56  1  0  0  0  0
M  END
>  <MODEL>
8

>  <REMARK>
 VINA RESULT:      -4.6      2.983      8.301
  Name = 
  21 active torsions:
  status: ('A' for Active; 'I' for Inactive)
    1  A    between atoms: C_1  and  N_19
    2  A    between atoms: C_1  and  C_21
    3  A    between atoms: C_5  and  O_26
    4  A    between atoms: C_7  and  C_13
    5  A    between atoms: C_11  and  O_29
    6  A    between atoms: C_11  and  C_46
    7  A    between atoms: C_12  and  C_51
    8  A    between atoms: C_13  and  C_41
    9  A    between atoms: C_13  and  O_47
   10  A    between atoms: C_16  and  O_53
   11  A    between atoms: C_17  and  C_38
   12  A    between atoms: C_17  and  O_47
   13  A    between atoms: N_19  and  C_35
   14  A    between atoms: N_20  and  C_21
   15  A    between atoms: N_20  and  C_23
   16  A    between atoms: C_23  and  C_28
   17  A    between atoms: C_23  and  C_44
   18  A    between atoms: O_29  and  C_43
   19  A    between atoms: C_35  and  C_46
   20  A    between atoms: O_37  and  C_62
   21  A    between atoms: C_41  and  C_62
                            x       y       z     vdW  Elec       q    Type
                         _______ _______ _______ _____ _____    ______ ____

>  <TORSDO>
F 21

$$$$
=
 OpenBabel11032419473D

 62 67  0  0  1  0  0  0  0  0999 V2000
  186.5680  178.6070  142.7330 C   0  0  2  0  0  3  0  0  0  0  0  0
  188.7330  177.5720  145.7030 C   0  0  0  0  0  0  0  0  0  0  0  0
  188.2820  177.4530  148.0790 C   0  0  0  0  0  3  0  0  0  0  0  0
  186.1080  178.4300  145.2450 C   0  0  0  0  0  3  0  0  0  0  0  0
  189.5570  177.0200  148.2820 N   0  0  0  0  0  0  0  0  0  0  0  0
  190.0370  177.1290  145.9390 C   0  0  0  0  0  3  0  0  0  0  0  0
  191.8150  176.3790  147.5270 C   0  0  0  0  0  1  0  0  0  0  0  0
  186.5280  178.1580  146.5530 C   0  0  0  0  0  3  0  0  0  0  0  0
  186.9900  178.2770  144.1570 C   0  0  0  0  0  0  0  0  0  0  0  0
  188.3100  177.8570  144.4060 C   0  0  0  0  0  3  0  0  0  0  0  0
  187.8380  177.7290  146.7820 C   0  0  0  0  0  0  0  0  0  0  0  0
  190.4330  176.8530  147.2520 C   0  0  0  0  0  0  0  0  0  0  0  0
  183.1750  178.9470  139.2870 N   0  0  0  0  0  2  0  0  0  0  0  0
  182.4300  178.2080  141.5980 C   0  0  0  0  0  0  0  0  0  0  0  0
  182.3580  178.1320  138.4420 C   0  0  0  0  0  0  0  0  0  0  0  0
  183.5000  178.5870  140.6340 C   0  0  0  0  0  0  0  0  0  0  0  0
  184.0820  178.5420  143.4200 C   0  0  2  0  0  3  0  0  0  0  0  0
  185.1390  178.1860  142.3590 C   0  0  1  0  0  3  0  0  0  0  0  0
  182.7230  178.1410  142.9060 C   0  0  0  0  0  3  0  0  0  0  0  0
  184.7400  178.6520  141.0270 N   0  0  0  0  0  0  0  0  0  0  0  0
  182.2110  176.9030  138.7040 O   0  0  0  0  0  0  0  0  0  0  0  0
  184.0860  179.9170  143.6750 O   0  0  0  0  0  0  0  0  0  0  0  0
  182.9610  180.1410  144.4690 C   0  0  0  0  0  1  0  0  0  0  0  0
  181.1330  177.9550  141.1320 O   0  0  0  0  0  0  0  0  0  0  0  0
  180.0200  178.7790  141.4480 C   0  0  0  0  0  1  0  0  0  0  0  0
  181.6450  178.7410  137.2710 C   0  0  1  0  0  3  0  0  0  0  0  0
  181.9840  180.0950  137.1590 O   0  0  0  0  0  0  0  0  0  0  0  0
  180.7830  180.7820  136.9250 C   0  0  0  0  0  2  0  0  0  0  0  0
  180.4150  181.6400  139.2520 O   0  0  0  0  0  1  0  0  0  0  0  0
  180.6200  181.9030  137.9020 C   0  0  0  0  0  0  0  0  0  0  0  0
  180.6980  183.0960  137.5030 O   0  0  0  0  0  0  0  0  0  0  0  0
  182.0560  177.9960  136.0020 C   0  0  0  0  0  2  0  0  0  0  0  0
  180.8360  177.5080  135.2420 C   0  0  0  0  0  2  0  0  0  0  0  0
  182.3750  176.0590  134.5940 C   0  0  0  0  0  1  0  0  0  0  0  0
  181.0120  176.1740  134.8800 O   0  0  0  0  0  0  0  0  0  0  0  0
  187.5490  178.2720  141.6830 N   0  0  0  0  0  0  0  0  0  0  0  0
  187.0610  178.6510  140.3580 C   0  0  0  0  0  1  0  0  0  0  0  0
  187.7640  176.8310  141.7060 C   0  0  0  0  0  2  0  0  0  0  0  0
  189.2320  176.5020  141.4230 C   0  0  0  0  0  2  0  0  0  0  0  0
  190.0740  177.6020  141.8750 N   0  0  0  0  0  2  0  0  0  0  0  0
  191.4430  177.3750  141.4160 C   0  0  0  0  0  2  0  0  0  0  0  0
  191.5940  177.6130  139.9130 C   0  0  0  0  0  2  0  0  0  0  0  0
  191.2500  176.3720  139.1160 C   0  0  0  0  0  2  0  0  0  0  0  0
  191.7370  176.5140  137.7900 O   0  0  0  0  0  0  0  0  0  0  0  0
  190.8440  175.4670  135.6990 C   0  0  2  0  0  3  0  0  0  0  0  0
  192.8850  173.3880  136.1270 C   0  0  0  0  0  2  0  0  0  0  0  0
  192.6320  174.4760  137.0760 N   0  0  0  0  0  0  0  0  0  0  0  0
  191.3180  174.5180  134.5940 C   0  0  0  0  0  2  0  0  0  0  0  0
  191.7860  175.4530  136.8880 C   0  0  0  0  0  0  0  0  0  0  0  0
  191.7080  173.1780  135.1880 C   0  0  0  0  0  2  0  0  0  0  0  0
  188.3460  176.1070  135.8170 C   0  0  0  0  0  0  0  0  0  0  0  0
  187.1920  175.5530  136.3370 C   0  0  0  0  0  0  0  0  0  0  0  0
  184.8750  175.2200  137.1880 C   0  0  0  0  0  2  0  0  0  0  0  0
  185.1620  173.7120  137.1140 C   0  0  0  0  0  2  0  0  0  0  0  0
  188.8900  174.1700  136.7670 N   0  0  0  0  0  0  0  0  0  0  0  0
  186.6030  173.4050  137.5420 C   0  0  0  0  0  2  0  0  0  0  0  0
  189.5520  173.0210  137.1360 O   0  0  0  0  0  1  0  0  0  0  0  0
  185.7610  176.0050  136.2180 C   0  0  1  0  0  3  0  0  0  0  0  0
  185.6200  177.4830  136.5090 C   0  0  0  0  0  1  0  0  0  0  0  0
  189.3990  175.2510  136.1180 C   0  0  0  0  0  0  0  0  0  0  0  0
  188.4230  177.2950  135.0940 O   0  0  0  0  0  1  0  0  0  0  0  0
  187.5610  174.3420  136.8740 C   0  0  0  0  0  0  0  0  0  0  0  0
  1 36  1  6  0  0  0
  1  9  1  0  0  0  0
  2  6  2  0  0  0  0
  2 11  1  0  0  0  0
  3  5  1  0  0  0  0
  4  8  2  0  0  0  0
  6 12  1  0  0  0  0
  8 11  1  0  0  0  0
  9 10  2  0  0  0  0
  9  4  1  0  0  0  0
 10  2  1  0  0  0  0
 11  3  2  0  0  0  0
 12  7  1  0  0  0  0
 12  5  2  0  0  0  0
 13 16  1  0  0  0  0
 14 19  2  0  0  0  0
 15 21  2  0  0  0  0
 15 13  1  0  0  0  0
 16 20  2  0  0  0  0
 16 14  1  0  0  0  0
 17 22  1  6  0  0  0
 18  1  1  1  0  0  0
 18 17  1  0  0  0  0
 19 17  1  0  0  0  0
 20 18  1  0  0  0  0
 22 23  1  0  0  0  0
 24 25  1  0  0  0  0
 24 14  1  0  0  0  0
 26 32  1  6  0  0  0
 26 15  1  0  0  0  0
 27 26  1  0  0  0  0
 28 27  1  0  0  0  0
 28 30  1  0  0  0  0
 30 29  1  0  0  0  0
 31 30  2  0  0  0  0
 33 32  1  0  0  0  0
 34 35  1  0  0  0  0
 35 33  1  0  0  0  0
 36 38  1  0  0  0  0
 37 36  1  0  0  0  0
 39 38  1  0  0  0  0
 39 40  1  0  0  0  0
 41 40  1  0  0  0  0
 42 41  1  0  0  0  0
 43 42  1  0  0  0  0
 44 43  1  0  0  0  0
 45 60  1  1  0  0  0
 45 49  1  0  0  0  0
 46 47  1  0  0  0  0
 48 50  1  0  0  0  0
 48 45  1  0  0  0  0
 49 47  2  0  0  0  0
 49 44  1  0  0  0  0
 50 46  1  0  0  0  0
 51 60  2  0  0  0  0
 51 52  1  0  0  0  0
 52 62  2  0  0  0  0
 54 53  1  0  0  0  0
 54 56  1  0  0  0  0
 55 62  1  0  0  0  0
 55 57  1  0  0  0  0
 58 52  1  0  0  0  0
 58 59  1  1  0  0  0
 58 53  1  0  0  0  0
 60 55  1  0  0  0  0
 61 51  1  0  0  0  0
 62 56  1  0  0  0  0
M  END
>  <MODEL>
9

>  <REMARK>
 VINA RESULT:      -4.5      3.404      9.924
  Name = 
  21 active torsions:
  status: ('A' for Active; 'I' for Inactive)
    1  A    between atoms: C_1  and  N_19
    2  A    between atoms: C_1  and  C_21
    3  A    between atoms: C_5  and  O_26
    4  A    between atoms: C_7  and  C_13
    5  A    between atoms: C_11  and  O_29
    6  A    between atoms: C_11  and  C_46
    7  A    between atoms: C_12  and  C_51
    8  A    between atoms: C_13  and  C_41
    9  A    between atoms: C_13  and  O_47
   10  A    between atoms: C_16  and  O_53
   11  A    between atoms: C_17  and  C_38
   12  A    between atoms: C_17  and  O_47
   13  A    between atoms: N_19  and  C_35
   14  A    between atoms: N_20  and  C_21
   15  A    between atoms: N_20  and  C_23
   16  A    between atoms: C_23  and  C_28
   17  A    between atoms: C_23  and  C_44
   18  A    between atoms: O_29  and  C_43
   19  A    between atoms: C_35  and  C_46
   20  A    between atoms: O_37  and  C_62
   21  A    between atoms: C_41  and  C_62
                            x       y       z     vdW  Elec       q    Type
                         _______ _______ _______ _____ _____    ______ ____

>  <TORSDO>
F 21

$$$$
