=
 OpenBabel11032421203D

 52 57  0  0  1  0  0  0  0  0999 V2000
  188.6830  177.4800  142.1220 C   0  0  0  0  0  3  0  0  0  0  0  0
  187.8930  178.2290  141.3400 C   0  0  0  0  0  0  0  0  0  0  0  0
  185.8990  179.4960  141.1270 O   0  0  0  0  0  0  0  0  0  0  0  0
  186.1260  178.3670  143.2340 C   0  0  1  0  0  3  0  0  0  0  0  0
  186.8250  177.1020  143.7400 C   0  0  0  0  0  2  0  0  0  0  0  0
  188.3420  177.1910  143.5540 C   0  0  2  0  0  3  0  0  0  0  0  0
  186.5900  178.7220  141.8410 C   0  0  0  0  0  0  0  0  0  0  0  0
  188.8950  178.2360  144.4080 N   0  0  0  0  0  2  0  0  0  0  0  0
  189.8610  177.6460  145.2470 N   0  0  0  0  0  0  0  0  0  0  0  0
  188.1130  177.2480  146.9600 N   0  0  0  0  0  1  0  0  0  0  0  0
  190.3210  176.6420  147.3160 O   0  0  0  0  0  0  0  0  0  0  0  0
  189.4700  177.1520  146.5390 C   0  0  0  0  0  0  0  0  0  0  0  0
  191.2630  177.5390  144.8250 C   0  0  0  0  0  3  0  0  0  0  0  0
  191.4960  176.2330  144.0870 C   0  0  0  0  0  1  0  0  0  0  0  0
  191.6860  178.7110  143.9530 C   0  0  0  0  0  1  0  0  0  0  0  0
  184.6170  178.1660  143.2790 C   0  0  0  0  0  2  0  0  0  0  0  0
  183.9730  179.0410  144.3480 C   0  0  0  0  0  2  0  0  0  0  0  0
  182.5030  179.3050  144.0540 C   0  0  0  0  0  2  0  0  0  0  0  0
  181.9950  178.4280  142.9200 C   0  0  0  0  0  2  0  0  0  0  0  0
  180.0570  179.4840  141.8980 N   0  0  0  0  0  2  0  0  0  0  0  0
  181.5080  179.2910  141.7720 C   0  0  2  0  0  3  0  0  0  0  0  0
  180.5990  178.5170  140.9300 C   0  0  2  0  0  3  0  0  0  0  0  0
  180.5700  179.0550  139.4790 C   0  0  1  0  0  3  0  0  0  0  0  0
  182.2900  176.5980  139.6720 C   0  0  0  0  0  2  0  0  0  0  0  0
  180.6190  177.9730  138.4580 N   0  0  0  0  0  0  0  0  0  0  0  0
  183.1830  176.6410  138.5860 O   0  0  0  0  0  0  0  0  0  0  0  0
  183.0660  177.9170  138.0000 C   0  0  0  0  0  2  0  0  0  0  0  0
  181.6610  178.0700  137.4120 C   0  0  2  0  0  3  0  0  0  0  0  0
  180.8350  176.7070  139.1750 C   0  0  0  0  0  2  0  0  0  0  0  0
  181.5290  179.2240  136.6350 O   0  0  0  0  0  1  0  0  0  0  0  0
  179.8650  181.4380  139.0080 C   0  0  1  0  0  0  0  0  0  0  0  0
  179.4160  180.0610  139.3340 C   0  0  1  0  0  3  0  0  0  0  0  0
  179.3880  180.5700  138.0150 O   0  0  0  0  0  0  0  0  0  0  0  0
  178.9310  182.6080  139.2300 C   0  0  0  0  0  1  0  0  0  0  0  0
  181.2280  181.6980  138.8390 O   0  0  0  0  0  1  0  0  0  0  0  0
  188.3390  178.5200  139.9460 C   0  0  0  0  0  2  0  0  0  0  0  0
  188.4550  177.2360  139.1420 C   0  0  0  0  0  2  0  0  0  0  0  0
  188.8940  177.5450  137.7180 C   0  0  2  0  0  3  0  0  0  0  0  0
  189.0000  179.0460  137.5090 C   0  0  0  0  0  1  0  0  0  0  0  0
  187.3490  177.9220  135.5590 O   0  0  0  0  0  0  0  0  0  0  0  0
  186.5040  176.3930  137.2740 O   0  0  0  0  0  0  0  0  0  0  0  0
  187.7350  176.8600  136.5500 S   0  0  0  0  0  0  0  0  0  0  0  0
  187.4030  174.6940  134.9630 C   0  0  0  0  0  2  0  0  0  0  0  0
  187.4270  173.3470  135.6350 C   0  0  1  0  0  3  0  0  0  0  0  0
  189.0900  174.5690  136.6440 N   0  0  0  0  0  2  0  0  0  0  0  0
  188.4650  175.4750  135.6860 C   0  0  2  0  0  3  0  0  0  0  0  0
  188.1850  173.5170  136.8690 N   0  0  0  0  0  2  0  0  0  0  0  0
  185.0380  173.8470  135.4680 N   0  0  0  0  0  2  0  0  0  0  0  0
  186.0060  172.8740  135.9360 C   0  0  2  0  0  3  0  0  0  0  0  0
  184.0530  173.9200  136.4680 N   0  0  0  0  0  2  0  0  0  0  0  0
  185.7890  172.7880  137.4180 C   0  0  0  0  0  2  0  0  0  0  0  0
  184.6920  173.6920  137.7020 N   0  0  0  0  0  2  0  0  0  0  0  0
  1  6  1  0  0  0  0
  2  7  1  0  0  0  0
  2  1  2  0  0  0  0
  3  7  2  0  0  0  0
  4 16  1  6  0  0  0
  4  5  1  0  0  0  0
  6  5  1  0  0  0  0
  6  8  1  1  0  0  0
  7  4  1  0  0  0  0
  8  9  1  0  0  0  0
  9 12  1  0  0  0  0
 12 10  1  0  0  0  0
 12 11  2  0  0  0  0
 13  9  1  0  0  0  0
 14 13  1  0  0  0  0
 15 13  1  0  0  0  0
 16 17  1  0  0  0  0
 18 17  1  0  0  0  0
 19 18  1  0  0  0  0
 21 20  1  0  0  0  0
 21 19  1  1  0  0  0
 22 23  1  6  0  0  0
 22 21  1  0  0  0  0
 22 20  1  0  0  0  0
 23 25  1  6  0  0  0
 25 29  1  0  0  0  0
 26 24  1  0  0  0  0
 27 26  1  0  0  0  0
 28 30  1  1  0  0  0
 28 27  1  0  0  0  0
 28 25  1  0  0  0  0
 29 24  1  0  0  0  0
 31 34  1  1  0  0  0
 31 32  1  0  0  0  0
 32 23  1  6  0  0  0
 33 31  1  0  0  0  0
 33 32  1  0  0  0  0
 35 31  1  0  0  0  0
 36  2  1  0  0  0  0
 37 36  1  0  0  0  0
 38 39  1  1  0  0  0
 38 37  1  0  0  0  0
 40 42  2  0  0  0  0
 42 41  2  0  0  0  0
 42 38  1  0  0  0  0
 43 46  1  0  0  0  0
 44 43  1  1  0  0  0
 44 49  1  0  0  0  0
 44 47  1  0  0  0  0
 45 47  1  0  0  0  0
 46 42  1  1  0  0  0
 46 45  1  0  0  0  0
 48 49  1  0  0  0  0
 48 50  1  0  0  0  0
 49 51  1  1  0  0  0
 50 52  1  0  0  0  0
 51 52  1  0  0  0  0
M  END
>  <MODEL>
1

>  <REMARK>
 VINA RESULT:      -7.5      0.000      0.000
  Name = 
  17 active torsions:
  status: ('A' for Active; 'I' for Inactive)
    1  A    between atoms: N_2  and  C_45
    2  A    between atoms: C_3  and  C_10
    3  A    between atoms: C_3  and  C_51
    4  A    between atoms: C_7  and  N_18
    5  A    between atoms: C_9  and  C_12
    6  A    between atoms: C_9  and  C_39
    7  A    between atoms: C_11  and  C_32
    8  A    between atoms: C_12  and  C_17
    9  A    between atoms: N_18  and  N_48
   10  A    between atoms: C_25  and  C_45
   11  A    between atoms: C_26  and  S_30
   12  A    between atoms: C_26  and  C_51
   13  A    between atoms: S_30  and  C_36
   14  A    between atoms: C_35  and  C_52
   15  A    between atoms: C_39  and  C_52
   16  A    between atoms: C_40  and  C_45
   17  A    between atoms: C_42  and  N_48
                            x       y       z     vdW  Elec       q    Type
                         _______ _______ _______ _____ _____    ______ ____

>  <TORSDO>
F 17

$$$$
=
 OpenBabel11032421203D

 52 57  0  0  1  0  0  0  0  0999 V2000
  188.7870  177.3900  142.1110 C   0  0  0  0  0  3  0  0  0  0  0  0
  188.0540  178.1580  141.2940 C   0  0  0  0  0  0  0  0  0  0  0  0
  186.0810  179.4360  140.9730 O   0  0  0  0  0  0  0  0  0  0  0  0
  186.1630  178.2630  143.0660 C   0  0  1  0  0  3  0  0  0  0  0  0
  186.8220  176.9850  143.5920 C   0  0  0  0  0  2  0  0  0  0  0  0
  188.3480  177.0730  143.5110 C   0  0  2  0  0  3  0  0  0  0  0  0
  186.7200  178.6450  141.7160 C   0  0  0  0  0  0  0  0  0  0  0  0
  188.8450  178.0970  144.4220 N   0  0  0  0  0  2  0  0  0  0  0  0
  189.4710  177.4490  145.5060 N   0  0  0  0  0  0  0  0  0  0  0  0
  191.5440  177.2310  144.1610 N   0  0  0  0  0  1  0  0  0  0  0  0
  191.4050  176.4020  146.3210 O   0  0  0  0  0  0  0  0  0  0  0  0
  190.8320  177.0050  145.3740 C   0  0  0  0  0  0  0  0  0  0  0  0
  188.7500  177.2110  146.7610 C   0  0  0  0  0  3  0  0  0  0  0  0
  189.4510  177.9070  147.9150 C   0  0  0  0  0  1  0  0  0  0  0  0
  187.3010  177.6680  146.6820 C   0  0  0  0  0  1  0  0  0  0  0  0
  184.6530  178.0660  143.0040 C   0  0  0  0  0  2  0  0  0  0  0  0
  183.9710  178.6230  144.2480 C   0  0  0  0  0  2  0  0  0  0  0  0
  182.7770  179.4990  143.8950 C   0  0  0  0  0  2  0  0  0  0  0  0
  181.4900  178.6910  143.8380 C   0  0  0  0  0  2  0  0  0  0  0  0
  179.5390  178.1750  142.4820 N   0  0  0  0  0  2  0  0  0  0  0  0
  180.6700  179.1000  142.6300 C   0  0  2  0  0  3  0  0  0  0  0  0
  180.7250  178.0450  141.6210 C   0  0  2  0  0  3  0  0  0  0  0  0
  180.4860  178.6050  140.1980 C   0  0  1  0  0  3  0  0  0  0  0  0
  179.2220  180.6740  138.4220 C   0  0  0  0  0  2  0  0  0  0  0  0
  180.9840  179.9990  140.0330 N   0  0  0  0  0  0  0  0  0  0  0  0
  180.1780  181.0110  137.4470 O   0  0  0  0  0  0  0  0  0  0  0  0
  181.2320  180.0820  137.5570 C   0  0  0  0  0  2  0  0  0  0  0  0
  181.9160  180.2620  138.9150 C   0  0  2  0  0  3  0  0  0  0  0  0
  179.8090  180.8610  139.8360 C   0  0  0  0  0  2  0  0  0  0  0  0
  183.0970  179.5210  139.0210 O   0  0  0  0  0  1  0  0  0  0  0  0
  180.1170  176.3920  139.0300 C   0  0  1  0  0  0  0  0  0  0  0  0
  180.9900  177.5870  139.1620 C   0  0  1  0  0  3  0  0  0  0  0  0
  180.0430  177.4580  138.1200 O   0  0  0  0  0  0  0  0  0  0  0  0
  180.6550  175.1350  138.3820 C   0  0  0  0  0  1  0  0  0  0  0  0
  178.9520  176.3010  139.7950 O   0  0  0  0  0  1  0  0  0  0  0  0
  188.5930  178.4770  139.9400 C   0  0  0  0  0  2  0  0  0  0  0  0
  188.9350  177.2030  139.1860 C   0  0  0  0  0  2  0  0  0  0  0  0
  189.2430  177.5190  137.7300 C   0  0  2  0  0  3  0  0  0  0  0  0
  189.0360  178.9990  137.4530 C   0  0  0  0  0  1  0  0  0  0  0  0
  187.5510  177.4720  135.6500 O   0  0  0  0  0  0  0  0  0  0  0  0
  187.1290  175.8780  137.4600 O   0  0  0  0  0  0  0  0  0  0  0  0
  188.1980  176.5580  136.6530 S   0  0  0  0  0  0  0  0  0  0  0  0
  189.9170  174.4720  136.7790 C   0  0  0  0  0  2  0  0  0  0  0  0
  191.3610  174.7600  136.4660 C   0  0  1  0  0  3  0  0  0  0  0  0
  190.1460  175.9670  134.9350 N   0  0  0  0  0  2  0  0  0  0  0  0
  189.1590  175.3180  135.7940 C   0  0  2  0  0  3  0  0  0  0  0  0
  191.3700  175.9520  135.6270 N   0  0  0  0  0  2  0  0  0  0  0  0
  192.3860  176.4170  137.9450 N   0  0  0  0  0  2  0  0  0  0  0  0
  192.1500  174.9990  137.7520 C   0  0  2  0  0  3  0  0  0  0  0  0
  193.7080  176.5270  138.4090 N   0  0  0  0  0  2  0  0  0  0  0  0
  193.5160  174.3870  137.6460 C   0  0  0  0  0  2  0  0  0  0  0  0
  194.4470  175.4840  137.8160 N   0  0  0  0  0  2  0  0  0  0  0  0
  1  6  1  0  0  0  0
  2  7  1  0  0  0  0
  2  1  2  0  0  0  0
  3  7  2  0  0  0  0
  4 16  1  6  0  0  0
  4  5  1  0  0  0  0
  6  5  1  0  0  0  0
  6  8  1  1  0  0  0
  7  4  1  0  0  0  0
  8  9  1  0  0  0  0
  9 13  1  0  0  0  0
 10 12  1  0  0  0  0
 12  9  1  0  0  0  0
 12 11  2  0  0  0  0
 13 14  1  0  0  0  0
 15 13  1  0  0  0  0
 16 17  1  0  0  0  0
 18 17  1  0  0  0  0
 19 18  1  0  0  0  0
 20 21  1  0  0  0  0
 21 19  1  1  0  0  0
 22 23  1  6  0  0  0
 22 20  1  0  0  0  0
 22 21  1  0  0  0  0
 23 25  1  1  0  0  0
 24 29  1  0  0  0  0
 26 27  1  0  0  0  0
 26 24  1  0  0  0  0
 27 28  1  0  0  0  0
 28 30  1  6  0  0  0
 28 25  1  0  0  0  0
 29 25  1  0  0  0  0
 31 34  1  6  0  0  0
 31 32  1  0  0  0  0
 31 35  1  0  0  0  0
 32 23  1  1  0  0  0
 33 31  1  0  0  0  0
 33 32  1  0  0  0  0
 36  2  1  0  0  0  0
 37 36  1  0  0  0  0
 38 39  1  1  0  0  0
 38 37  1  0  0  0  0
 40 42  2  0  0  0  0
 42 41  2  0  0  0  0
 42 38  1  0  0  0  0
 44 43  1  1  0  0  0
 44 49  1  0  0  0  0
 45 47  1  0  0  0  0
 45 46  1  0  0  0  0
 46 42  1  1  0  0  0
 46 43  1  0  0  0  0
 47 44  1  0  0  0  0
 48 50  1  0  0  0  0
 49 51  1  6  0  0  0
 49 48  1  0  0  0  0
 51 52  1  0  0  0  0
 52 50  1  0  0  0  0
M  END
>  <MODEL>
2

>  <REMARK>
 VINA RESULT:      -7.4      2.211      3.842
  Name = 
  17 active torsions:
  status: ('A' for Active; 'I' for Inactive)
    1  A    between atoms: N_2  and  C_45
    2  A    between atoms: C_3  and  C_10
    3  A    between atoms: C_3  and  C_51
    4  A    between atoms: C_7  and  N_18
    5  A    between atoms: C_9  and  C_12
    6  A    between atoms: C_9  and  C_39
    7  A    between atoms: C_11  and  C_32
    8  A    between atoms: C_12  and  C_17
    9  A    between atoms: N_18  and  N_48
   10  A    between atoms: C_25  and  C_45
   11  A    between atoms: C_26  and  S_30
   12  A    between atoms: C_26  and  C_51
   13  A    between atoms: S_30  and  C_36
   14  A    between atoms: C_35  and  C_52
   15  A    between atoms: C_39  and  C_52
   16  A    between atoms: C_40  and  C_45
   17  A    between atoms: C_42  and  N_48
                            x       y       z     vdW  Elec       q    Type
                         _______ _______ _______ _____ _____    ______ ____

>  <TORSDO>
F 17

$$$$
=
 OpenBabel11032421203D

 52 57  0  0  1  0  0  0  0  0999 V2000
  188.6670  177.4510  142.0860 C   0  0  0  0  0  3  0  0  0  0  0  0
  187.8490  178.1680  141.3030 C   0  0  0  0  0  0  0  0  0  0  0  0
  185.8180  179.3760  141.0920 O   0  0  0  0  0  0  0  0  0  0  0  0
  186.0970  178.2810  143.2110 C   0  0  1  0  0  3  0  0  0  0  0  0
  186.8350  177.0430  143.7270 C   0  0  0  0  0  2  0  0  0  0  0  0
  188.3470  177.1720  143.5260 C   0  0  2  0  0  3  0  0  0  0  0  0
  186.5370  178.6300  141.8100 C   0  0  0  0  0  0  0  0  0  0  0  0
  188.8780  178.2430  144.3600 N   0  0  0  0  0  2  0  0  0  0  0  0
  189.8370  177.6830  145.2290 N   0  0  0  0  0  0  0  0  0  0  0  0
  188.0680  177.3260  146.9300 N   0  0  0  0  0  1  0  0  0  0  0  0
  190.2750  176.7430  147.3320 O   0  0  0  0  0  0  0  0  0  0  0  0
  189.4310  177.2250  146.5300 C   0  0  0  0  0  0  0  0  0  0  0  0
  191.2440  177.5710  144.8280 C   0  0  0  0  0  3  0  0  0  0  0  0
  191.4850  176.2600  144.1010 C   0  0  0  0  0  1  0  0  0  0  0  0
  191.6820  178.7370  143.9550 C   0  0  0  0  0  1  0  0  0  0  0  0
  184.5940  178.0380  143.2730 C   0  0  0  0  0  2  0  0  0  0  0  0
  183.8360  179.3290  143.5590 C   0  0  0  0  0  2  0  0  0  0  0  0
  182.5800  179.0780  144.3830 C   0  0  0  0  0  2  0  0  0  0  0  0
  181.4490  178.5350  143.5220 C   0  0  0  0  0  2  0  0  0  0  0  0
  180.4330  180.1010  141.9640 N   0  0  0  0  0  2  0  0  0  0  0  0
  181.5220  179.1300  142.1290 C   0  0  2  0  0  3  0  0  0  0  0  0
  180.3280  178.7580  141.3750 C   0  0  2  0  0  3  0  0  0  0  0  0
  180.5940  178.7590  139.8510 C   0  0  1  0  0  3  0  0  0  0  0  0
  179.7340  176.1280  141.0230 C   0  0  0  0  0  2  0  0  0  0  0  0
  179.8100  177.7230  139.1240 N   0  0  0  0  0  0  0  0  0  0  0  0
  180.3580  175.1220  140.2620 O   0  0  0  0  0  0  0  0  0  0  0  0
  181.3020  175.7530  139.4280 C   0  0  0  0  0  2  0  0  0  0  0  0
  180.5660  176.6550  138.4340 C   0  0  2  0  0  3  0  0  0  0  0  0
  178.9310  177.0720  140.1070 C   0  0  0  0  0  2  0  0  0  0  0  0
  181.4120  177.1570  137.4410 O   0  0  0  0  0  1  0  0  0  0  0  0
  181.6880  180.6840  138.6290 C   0  0  1  0  0  0  0  0  0  0  0  0
  180.4660  180.1940  139.3150 C   0  0  1  0  0  3  0  0  0  0  0  0
  180.5910  180.1920  137.9070 O   0  0  0  0  0  0  0  0  0  0  0  0
  181.8860  182.1680  138.4110 C   0  0  0  0  0  1  0  0  0  0  0  0
  182.7940  179.8400  138.5030 O   0  0  0  0  0  1  0  0  0  0  0  0
  188.2740  178.4530  139.9010 C   0  0  0  0  0  2  0  0  0  0  0  0
  189.6330  177.8350  139.6170 C   0  0  0  0  0  2  0  0  0  0  0  0
  189.5820  177.0210  138.3320 C   0  0  2  0  0  3  0  0  0  0  0  0
  190.9750  176.5570  137.9420 C   0  0  0  0  0  1  0  0  0  0  0  0
  189.6160  177.6840  135.7340 O   0  0  0  0  0  0  0  0  0  0  0  0
  189.0340  179.4540  137.3230 O   0  0  0  0  0  0  0  0  0  0  0  0
  188.8840  177.9920  137.0100 S   0  0  0  0  0  0  0  0  0  0  0  0
  186.8750  176.1900  137.2080 C   0  0  0  0  0  2  0  0  0  0  0  0
  186.4180  175.5380  135.9310 C   0  0  1  0  0  3  0  0  0  0  0  0
  186.7760  177.7440  135.4020 N   0  0  0  0  0  2  0  0  0  0  0  0
  187.1480  177.6130  136.8070 C   0  0  2  0  0  3  0  0  0  0  0  0
  186.7760  176.4500  134.8520 N   0  0  0  0  0  2  0  0  0  0  0  0
  186.7610  173.2880  136.8300 N   0  0  0  0  0  2  0  0  0  0  0  0
  187.1050  174.1860  135.7440 C   0  0  2  0  0  3  0  0  0  0  0  0
  187.9480  172.6140  137.1620 N   0  0  0  0  0  2  0  0  0  0  0  0
  188.5950  174.3440  135.8260 C   0  0  0  0  0  2  0  0  0  0  0  0
  189.0140  173.5050  136.9310 N   0  0  0  0  0  2  0  0  0  0  0  0
  1  6  1  0  0  0  0
  2  7  1  0  0  0  0
  2  1  2  0  0  0  0
  3  7  2  0  0  0  0
  4 16  1  6  0  0  0
  4  5  1  0  0  0  0
  6  5  1  0  0  0  0
  6  8  1  1  0  0  0
  7  4  1  0  0  0  0
  8  9  1  0  0  0  0
  9 12  1  0  0  0  0
 12 10  1  0  0  0  0
 12 11  2  0  0  0  0
 13  9  1  0  0  0  0
 14 13  1  0  0  0  0
 15 13  1  0  0  0  0
 16 17  1  0  0  0  0
 17 18  1  0  0  0  0
 19 18  1  0  0  0  0
 20 21  1  0  0  0  0
 21 19  1  1  0  0  0
 22 23  1  6  0  0  0
 22 20  1  0  0  0  0
 22 21  1  0  0  0  0
 23 25  1  6  0  0  0
 25 29  1  0  0  0  0
 26 24  1  0  0  0  0
 27 26  1  0  0  0  0
 28 30  1  6  0  0  0
 28 25  1  0  0  0  0
 28 27  1  0  0  0  0
 29 24  1  0  0  0  0
 31 34  1  6  0  0  0
 31 32  1  0  0  0  0
 32 23  1  1  0  0  0
 33 31  1  0  0  0  0
 33 32  1  0  0  0  0
 35 31  1  0  0  0  0
 36  2  1  0  0  0  0
 37 36  1  0  0  0  0
 38 39  1  6  0  0  0
 38 37  1  0  0  0  0
 40 42  2  0  0  0  0
 42 41  2  0  0  0  0
 42 38  1  0  0  0  0
 44 43  1  1  0  0  0
 45 46  1  0  0  0  0
 46 42  1  6  0  0  0
 46 43  1  0  0  0  0
 47 45  1  0  0  0  0
 47 44  1  0  0  0  0
 48 50  1  0  0  0  0
 49 51  1  1  0  0  0
 49 44  1  0  0  0  0
 49 48  1  0  0  0  0
 51 52  1  0  0  0  0
 52 50  1  0  0  0  0
M  END
>  <MODEL>
3

>  <REMARK>
 VINA RESULT:      -7.4      1.520      2.053
  Name = 
  17 active torsions:
  status: ('A' for Active; 'I' for Inactive)
    1  A    between atoms: N_2  and  C_45
    2  A    between atoms: C_3  and  C_10
    3  A    between atoms: C_3  and  C_51
    4  A    between atoms: C_7  and  N_18
    5  A    between atoms: C_9  and  C_12
    6  A    between atoms: C_9  and  C_39
    7  A    between atoms: C_11  and  C_32
    8  A    between atoms: C_12  and  C_17
    9  A    between atoms: N_18  and  N_48
   10  A    between atoms: C_25  and  C_45
   11  A    between atoms: C_26  and  S_30
   12  A    between atoms: C_26  and  C_51
   13  A    between atoms: S_30  and  C_36
   14  A    between atoms: C_35  and  C_52
   15  A    between atoms: C_39  and  C_52
   16  A    between atoms: C_40  and  C_45
   17  A    between atoms: C_42  and  N_48
                            x       y       z     vdW  Elec       q    Type
                         _______ _______ _______ _____ _____    ______ ____

>  <TORSDO>
F 17

$$$$
=
 OpenBabel11032421203D

 52 57  0  0  1  0  0  0  0  0999 V2000
  188.4520  177.4940  142.3710 C   0  0  0  0  0  3  0  0  0  0  0  0
  187.8320  178.2190  141.4290 C   0  0  0  0  0  0  0  0  0  0  0  0
  185.9110  179.4530  140.7860 O   0  0  0  0  0  0  0  0  0  0  0  0
  185.7120  178.3660  142.9170 C   0  0  1  0  0  3  0  0  0  0  0  0
  186.3040  177.1200  143.5820 C   0  0  0  0  0  2  0  0  0  0  0  0
  187.8260  177.2270  143.7090 C   0  0  2  0  0  3  0  0  0  0  0  0
  186.4480  178.7020  141.6420 C   0  0  0  0  0  0  0  0  0  0  0  0
  188.1820  178.2940  144.6360 N   0  0  0  0  0  2  0  0  0  0  0  0
  188.5470  177.7020  145.8620 N   0  0  0  0  0  0  0  0  0  0  0  0
  190.8040  177.2310  144.9480 N   0  0  0  0  0  1  0  0  0  0  0  0
  190.2100  176.6020  147.0980 O   0  0  0  0  0  0  0  0  0  0  0  0
  189.8690  177.1580  146.0200 C   0  0  0  0  0  0  0  0  0  0  0  0
  187.5940  177.6220  146.9750 C   0  0  0  0  0  3  0  0  0  0  0  0
  188.2360  178.1180  148.2590 C   0  0  0  0  0  1  0  0  0  0  0  0
  186.3220  178.4070  146.6930 C   0  0  0  0  0  1  0  0  0  0  0  0
  184.2280  178.1440  142.6560 C   0  0  0  0  0  2  0  0  0  0  0  0
  183.3820  179.2270  143.3150 C   0  0  0  0  0  2  0  0  0  0  0  0
  182.2470  178.6360  144.1410 C   0  0  0  0  0  2  0  0  0  0  0  0
  180.9040  178.8140  143.4500 C   0  0  0  0  0  2  0  0  0  0  0  0
  179.9490  180.1600  141.6640 N   0  0  0  0  0  2  0  0  0  0  0  0
  181.1070  179.3400  142.0420 C   0  0  2  0  0  3  0  0  0  0  0  0
  180.0840  178.7840  141.1600 C   0  0  2  0  0  3  0  0  0  0  0  0
  180.5640  178.7390  139.6900 C   0  0  1  0  0  3  0  0  0  0  0  0
  179.5920  176.1530  140.8750 C   0  0  0  0  0  2  0  0  0  0  0  0
  179.9460  177.6290  138.9130 N   0  0  0  0  0  0  0  0  0  0  0  0
  180.3660  175.1280  140.3010 O   0  0  0  0  0  0  0  0  0  0  0  0
  181.4200  175.7430  139.5990 C   0  0  0  0  0  2  0  0  0  0  0  0
  180.8400  176.5520  138.4350 C   0  0  2  0  0  3  0  0  0  0  0  0
  178.9310  177.0050  139.7740 C   0  0  0  0  0  2  0  0  0  0  0  0
  181.8300  177.0250  137.5680 O   0  0  0  0  0  1  0  0  0  0  0  0
  181.7280  180.6950  138.5880 C   0  0  1  0  0  0  0  0  0  0  0  0
  180.4380  180.1410  139.0720 C   0  0  1  0  0  3  0  0  0  0  0  0
  180.8120  180.0980  137.7090 O   0  0  0  0  0  0  0  0  0  0  0  0
  181.8620  182.1810  138.3370 C   0  0  0  0  0  1  0  0  0  0  0  0
  182.8920  179.9310  138.6980 O   0  0  0  0  0  1  0  0  0  0  0  0
  188.5510  178.4910  140.1510 C   0  0  0  0  0  2  0  0  0  0  0  0
  188.7080  177.2140  139.3420 C   0  0  0  0  0  2  0  0  0  0  0  0
  189.1510  177.5400  137.9230 C   0  0  2  0  0  3  0  0  0  0  0  0
  189.0930  179.0390  137.6810 C   0  0  0  0  0  1  0  0  0  0  0  0
  187.5620  177.7100  135.7700 O   0  0  0  0  0  0  0  0  0  0  0  0
  186.9700  176.0360  137.4560 O   0  0  0  0  0  0  0  0  0  0  0  0
  188.1110  176.7030  136.7420 S   0  0  0  0  0  0  0  0  0  0  0  0
  189.8150  174.6030  136.8150 C   0  0  0  0  0  2  0  0  0  0  0  0
  191.2560  174.8840  136.4780 C   0  0  1  0  0  3  0  0  0  0  0  0
  190.0230  176.1170  134.9830 N   0  0  0  0  0  2  0  0  0  0  0  0
  189.0470  175.4660  135.8530 C   0  0  2  0  0  3  0  0  0  0  0  0
  191.2590  176.0850  135.6530 N   0  0  0  0  0  2  0  0  0  0  0  0
  192.3390  176.5140  137.9460 N   0  0  0  0  0  2  0  0  0  0  0  0
  192.0700  175.1030  137.7530 C   0  0  2  0  0  3  0  0  0  0  0  0
  193.6700  176.5950  138.3890 N   0  0  0  0  0  2  0  0  0  0  0  0
  193.4200  174.4610  137.6240 C   0  0  0  0  0  2  0  0  0  0  0  0
  194.3770  175.5380  137.7820 N   0  0  0  0  0  2  0  0  0  0  0  0
  1  6  1  0  0  0  0
  2  7  1  0  0  0  0
  2  1  2  0  0  0  0
  3  7  2  0  0  0  0
  4 16  1  6  0  0  0
  4  5  1  0  0  0  0
  5  6  1  0  0  0  0
  6  8  1  1  0  0  0
  7  4  1  0  0  0  0
  8  9  1  0  0  0  0
  9 12  1  0  0  0  0
  9 13  1  0  0  0  0
 10 12  1  0  0  0  0
 12 11  2  0  0  0  0
 13 14  1  0  0  0  0
 15 13  1  0  0  0  0
 16 17  1  0  0  0  0
 17 18  1  0  0  0  0
 19 18  1  0  0  0  0
 20 21  1  0  0  0  0
 21 19  1  1  0  0  0
 22 23  1  6  0  0  0
 22 20  1  0  0  0  0
 22 21  1  0  0  0  0
 23 25  1  6  0  0  0
 25 29  1  0  0  0  0
 26 24  1  0  0  0  0
 27 26  1  0  0  0  0
 28 30  1  1  0  0  0
 28 25  1  0  0  0  0
 28 27  1  0  0  0  0
 29 24  1  0  0  0  0
 31 34  1  6  0  0  0
 31 35  1  0  0  0  0
 31 32  1  0  0  0  0
 32 23  1  1  0  0  0
 33 31  1  0  0  0  0
 33 32  1  0  0  0  0
 36  2  1  0  0  0  0
 37 36  1  0  0  0  0
 38 39  1  6  0  0  0
 38 37  1  0  0  0  0
 40 42  2  0  0  0  0
 42 41  2  0  0  0  0
 42 38  1  0  0  0  0
 44 43  1  1  0  0  0
 44 49  1  0  0  0  0
 45 47  1  0  0  0  0
 45 46  1  0  0  0  0
 46 42  1  1  0  0  0
 46 43  1  0  0  0  0
 47 44  1  0  0  0  0
 48 50  1  0  0  0  0
 49 51  1  6  0  0  0
 49 48  1  0  0  0  0
 51 52  1  0  0  0  0
 52 50  1  0  0  0  0
M  END
>  <MODEL>
4

>  <REMARK>
 VINA RESULT:      -7.4      2.161      3.403
  Name = 
  17 active torsions:
  status: ('A' for Active; 'I' for Inactive)
    1  A    between atoms: N_2  and  C_45
    2  A    between atoms: C_3  and  C_10
    3  A    between atoms: C_3  and  C_51
    4  A    between atoms: C_7  and  N_18
    5  A    between atoms: C_9  and  C_12
    6  A    between atoms: C_9  and  C_39
    7  A    between atoms: C_11  and  C_32
    8  A    between atoms: C_12  and  C_17
    9  A    between atoms: N_18  and  N_48
   10  A    between atoms: C_25  and  C_45
   11  A    between atoms: C_26  and  S_30
   12  A    between atoms: C_26  and  C_51
   13  A    between atoms: S_30  and  C_36
   14  A    between atoms: C_35  and  C_52
   15  A    between atoms: C_39  and  C_52
   16  A    between atoms: C_40  and  C_45
   17  A    between atoms: C_42  and  N_48
                            x       y       z     vdW  Elec       q    Type
                         _______ _______ _______ _____ _____    ______ ____

>  <TORSDO>
F 17

$$$$
=
 OpenBabel11032421203D

 52 57  0  0  1  0  0  0  0  0999 V2000
  188.8700  177.3720  142.0760 C   0  0  0  0  0  3  0  0  0  0  0  0
  188.2050  178.0760  141.1500 C   0  0  0  0  0  0  0  0  0  0  0  0
  186.2910  179.3640  140.5990 O   0  0  0  0  0  0  0  0  0  0  0  0
  186.2240  178.3930  142.7940 C   0  0  1  0  0  3  0  0  0  0  0  0
  186.8170  177.1560  143.4740 C   0  0  0  0  0  2  0  0  0  0  0  0
  188.3470  177.1990  143.4720 C   0  0  2  0  0  3  0  0  0  0  0  0
  186.8650  178.6320  141.4480 C   0  0  0  0  0  0  0  0  0  0  0  0
  188.8230  178.2940  144.3100 N   0  0  0  0  0  2  0  0  0  0  0  0
  189.7640  177.7690  145.2180 N   0  0  0  0  0  0  0  0  0  0  0  0
  187.9670  177.4980  146.9050 N   0  0  0  0  0  1  0  0  0  0  0  0
  190.1630  176.9240  147.3690 O   0  0  0  0  0  0  0  0  0  0  0  0
  189.3360  177.3730  146.5320 C   0  0  0  0  0  0  0  0  0  0  0  0
  191.1770  177.6330  144.8460 C   0  0  0  0  0  3  0  0  0  0  0  0
  191.4000  176.3440  144.0740 C   0  0  0  0  0  1  0  0  0  0  0  0
  191.6680  178.8190  144.0300 C   0  0  0  0  0  1  0  0  0  0  0  0
  184.7150  178.2270  142.6650 C   0  0  0  0  0  2  0  0  0  0  0  0
  184.0270  178.3550  144.0190 C   0  0  0  0  0  2  0  0  0  0  0  0
  182.9790  179.4600  144.0200 C   0  0  0  0  0  2  0  0  0  0  0  0
  181.5720  178.8930  144.1330 C   0  0  0  0  0  2  0  0  0  0  0  0
  179.4350  178.6500  142.9990 N   0  0  0  0  0  2  0  0  0  0  0  0
  180.7410  179.3200  142.9390 C   0  0  2  0  0  3  0  0  0  0  0  0
  180.4810  178.1630  142.0860 C   0  0  2  0  0  3  0  0  0  0  0  0
  180.2260  178.5830  140.6190 C   0  0  1  0  0  3  0  0  0  0  0  0
  179.2110  180.4260  138.4710 C   0  0  0  0  0  2  0  0  0  0  0  0
  180.8250  179.9040  140.2820 N   0  0  0  0  0  0  0  0  0  0  0  0
  180.2440  180.5530  137.5250 O   0  0  0  0  0  0  0  0  0  0  0  0
  181.2250  179.5930  137.8440 C   0  0  0  0  0  2  0  0  0  0  0  0
  181.8380  179.9380  139.2040 C   0  0  2  0  0  3  0  0  0  0  0  0
  179.7250  180.7920  139.8780 C   0  0  0  0  0  2  0  0  0  0  0  0
  182.9570  179.1550  139.4990 O   0  0  0  0  0  1  0  0  0  0  0  0
  179.8730  176.1610  139.9830 C   0  0  1  0  0  0  0  0  0  0  0  0
  180.6010  177.4200  139.6860 C   0  0  1  0  0  3  0  0  0  0  0  0
  179.4660  177.0140  138.9470 O   0  0  0  0  0  0  0  0  0  0  0  0
  180.3980  174.8440  139.4550 C   0  0  0  0  0  1  0  0  0  0  0  0
  178.9310  176.1360  141.0150 O   0  0  0  0  0  1  0  0  0  0  0  0
  188.8260  178.2510  139.8050 C   0  0  0  0  0  2  0  0  0  0  0  0
  189.5120  176.9700  139.3610 C   0  0  0  0  0  2  0  0  0  0  0  0
  190.3420  177.2240  138.1100 C   0  0  2  0  0  3  0  0  0  0  0  0
  189.5310  176.9170  136.8630 C   0  0  0  0  0  1  0  0  0  0  0  0
  191.4310  174.7920  138.4120 O   0  0  0  0  0  0  0  0  0  0  0  0
  192.7430  176.7010  139.2060 O   0  0  0  0  0  0  0  0  0  0  0  0
  191.8140  176.2180  138.1290 S   0  0  0  0  0  0  0  0  0  0  0  0
  192.8770  174.9260  136.0030 C   0  0  0  0  0  2  0  0  0  0  0  0
  194.3760  174.7940  135.9670 C   0  0  1  0  0  3  0  0  0  0  0  0
  193.9640  176.9240  136.7240 N   0  0  0  0  0  2  0  0  0  0  0  0
  192.6510  176.3080  136.5520 C   0  0  2  0  0  3  0  0  0  0  0  0
  194.9050  175.8800  136.7830 N   0  0  0  0  0  2  0  0  0  0  0  0
  194.3560  173.2890  137.8950 N   0  0  0  0  0  2  0  0  0  0  0  0
  194.8080  173.4400  136.5260 C   0  0  2  0  0  3  0  0  0  0  0  0
  195.4190  172.6840  138.5870 N   0  0  0  0  0  2  0  0  0  0  0  0
  196.3050  173.3600  136.5980 C   0  0  0  0  0  2  0  0  0  0  0  0
  196.6140  173.1380  137.9960 N   0  0  0  0  0  2  0  0  0  0  0  0
  1  6  1  0  0  0  0
  2  7  1  0  0  0  0
  2  1  2  0  0  0  0
  3  7  2  0  0  0  0
  4 16  1  6  0  0  0
  4  5  1  0  0  0  0
  6  5  1  0  0  0  0
  6  8  1  1  0  0  0
  7  4  1  0  0  0  0
  8  9  1  0  0  0  0
  9 12  1  0  0  0  0
 12 10  1  0  0  0  0
 12 11  2  0  0  0  0
 13  9  1  0  0  0  0
 14 13  1  0  0  0  0
 15 13  1  0  0  0  0
 16 17  1  0  0  0  0
 17 18  1  0  0  0  0
 18 19  1  0  0  0  0
 21 20  1  0  0  0  0
 21 19  1  1  0  0  0
 22 23  1  6  0  0  0
 22 21  1  0  0  0  0
 22 20  1  0  0  0  0
 23 25  1  6  0  0  0
 24 29  1  0  0  0  0
 26 27  1  0  0  0  0
 26 24  1  0  0  0  0
 27 28  1  0  0  0  0
 28 30  1  1  0  0  0
 28 25  1  0  0  0  0
 29 25  1  0  0  0  0
 31 34  1  6  0  0  0
 31 35  1  0  0  0  0
 32 31  1  0  0  0  0
 32 23  1  1  0  0  0
 33 32  1  0  0  0  0
 33 31  1  0  0  0  0
 36  2  1  0  0  0  0
 37 36  1  0  0  0  0
 38 39  1  6  0  0  0
 38 42  1  0  0  0  0
 38 37  1  0  0  0  0
 42 40  2  0  0  0  0
 42 41  2  0  0  0  0
 43 46  1  0  0  0  0
 44 43  1  1  0  0  0
 44 49  1  0  0  0  0
 44 47  1  0  0  0  0
 45 47  1  0  0  0  0
 46 45  1  0  0  0  0
 46 42  1  1  0  0  0
 48 50  1  0  0  0  0
 49 51  1  1  0  0  0
 49 48  1  0  0  0  0
 51 52  1  0  0  0  0
 52 50  1  0  0  0  0
M  END
>  <MODEL>
5

>  <REMARK>
 VINA RESULT:      -7.4      3.271      4.626
  Name = 
  17 active torsions:
  status: ('A' for Active; 'I' for Inactive)
    1  A    between atoms: N_2  and  C_45
    2  A    between atoms: C_3  and  C_10
    3  A    between atoms: C_3  and  C_51
    4  A    between atoms: C_7  and  N_18
    5  A    between atoms: C_9  and  C_12
    6  A    between atoms: C_9  and  C_39
    7  A    between atoms: C_11  and  C_32
    8  A    between atoms: C_12  and  C_17
    9  A    between atoms: N_18  and  N_48
   10  A    between atoms: C_25  and  C_45
   11  A    between atoms: C_26  and  S_30
   12  A    between atoms: C_26  and  C_51
   13  A    between atoms: S_30  and  C_36
   14  A    between atoms: C_35  and  C_52
   15  A    between atoms: C_39  and  C_52
   16  A    between atoms: C_40  and  C_45
   17  A    between atoms: C_42  and  N_48
                            x       y       z     vdW  Elec       q    Type
                         _______ _______ _______ _____ _____    ______ ____

>  <TORSDO>
F 17

$$$$
=
 OpenBabel11032421203D

 52 57  0  0  1  0  0  0  0  0999 V2000
  183.3380  178.4110  138.8830 C   0  0  0  0  0  3  0  0  0  0  0  0
  184.5810  178.6460  139.3230 C   0  0  0  0  0  0  0  0  0  0  0  0
  186.0740  178.7500  141.1650 O   0  0  0  0  0  0  0  0  0  0  0  0
  183.7890  178.3320  141.7730 C   0  0  1  0  0  3  0  0  0  0  0  0
  182.4120  178.6540  141.1850 C   0  0  0  0  0  2  0  0  0  0  0  0
  182.2290  178.0070  139.8100 C   0  0  2  0  0  3  0  0  0  0  0  0
  184.8840  178.6130  140.7720 C   0  0  0  0  0  0  0  0  0  0  0  0
  182.2010  176.5550  139.9350 N   0  0  0  0  0  2  0  0  0  0  0  0
  181.2330  176.0600  139.0380 N   0  0  0  0  0  0  0  0  0  0  0  0
  183.0410  175.1160  137.6260 N   0  0  0  0  0  1  0  0  0  0  0  0
  180.8090  174.9080  137.0390 O   0  0  0  0  0  0  0  0  0  0  0  0
  181.6550  175.3390  137.8680 C   0  0  0  0  0  0  0  0  0  0  0  0
  179.8020  176.2800  139.2750 C   0  0  0  0  0  3  0  0  0  0  0  0
  179.4990  176.2360  140.7630 C   0  0  0  0  0  1  0  0  0  0  0  0
  179.3230  177.5980  138.6860 C   0  0  0  0  0  1  0  0  0  0  0  0
  183.9930  179.1320  143.0540 C   0  0  0  0  0  2  0  0  0  0  0  0
  184.5550  178.2570  144.1680 C   0  0  0  0  0  2  0  0  0  0  0  0
  184.6050  178.9970  145.4980 C   0  0  0  0  0  2  0  0  0  0  0  0
  186.0230  179.0690  146.0430 C   0  0  0  0  0  2  0  0  0  0  0  0
  187.0850  176.8920  146.2620 N   0  0  0  0  0  2  0  0  0  0  0  0
  186.8980  178.0350  145.3600 C   0  0  2  0  0  3  0  0  0  0  0  0
  188.1510  177.8910  146.0950 C   0  0  2  0  0  3  0  0  0  0  0  0
  189.2930  177.3890  145.1800 C   0  0  1  0  0  3  0  0  0  0  0  0
  190.0380  175.8850  142.6860 C   0  0  0  0  0  2  0  0  0  0  0  0
  189.2180  177.9440  143.8010 N   0  0  0  0  0  0  0  0  0  0  0  0
  191.1170  176.5750  142.1040 O   0  0  0  0  0  0  0  0  0  0  0  0
  191.5520  177.5350  143.0380 C   0  0  0  0  0  2  0  0  0  0  0  0
  190.4420  178.5670  143.2490 C   0  0  2  0  0  3  0  0  0  0  0  0
  188.8470  176.8390  142.9050 C   0  0  0  0  0  2  0  0  0  0  0  0
  190.8680  179.6630  144.0040 O   0  0  0  0  0  1  0  0  0  0  0  0
  190.8360  176.6280  147.0350 C   0  0  1  0  0  0  0  0  0  0  0  0
  190.6380  177.5690  145.9030 C   0  0  1  0  0  3  0  0  0  0  0  0
  191.4110  176.3920  145.7770 O   0  0  0  0  0  0  0  0  0  0  0  0
  191.8840  176.9240  148.0860 C   0  0  0  0  0  1  0  0  0  0  0  0
  189.8510  175.6810  147.3250 O   0  0  0  0  0  1  0  0  0  0  0  0
  185.6390  178.9810  138.3260 C   0  0  0  0  0  2  0  0  0  0  0  0
  186.0240  177.7510  137.5210 C   0  0  0  0  0  2  0  0  0  0  0  0
  186.8870  178.1490  136.3320 C   0  0  2  0  0  3  0  0  0  0  0  0
  186.7050  177.1640  135.1890 C   0  0  0  0  0  1  0  0  0  0  0  0
  188.9330  179.5850  137.3030 O   0  0  0  0  0  0  0  0  0  0  0  0
  189.4670  177.8940  135.6140 O   0  0  0  0  0  0  0  0  0  0  0  0
  188.6050  178.2050  136.8050 S   0  0  0  0  0  0  0  0  0  0  0  0
  190.3820  177.0750  138.5030 C   0  0  0  0  0  2  0  0  0  0  0  0
  190.9230  175.7230  138.1220 C   0  0  1  0  0  3  0  0  0  0  0  0
  188.6880  175.6630  137.5950 N   0  0  0  0  0  2  0  0  0  0  0  0
  188.9360  177.0120  138.0940 C   0  0  2  0  0  3  0  0  0  0  0  0
  189.9340  175.1190  137.2370 N   0  0  0  0  0  2  0  0  0  0  0  0
  192.7860  174.5630  137.0410 N   0  0  0  0  0  2  0  0  0  0  0  0
  192.2670  175.8650  137.4100 C   0  0  2  0  0  3  0  0  0  0  0  0
  194.1640  174.6070  137.3130 N   0  0  0  0  0  2  0  0  0  0  0  0
  193.2910  176.4440  138.3430 C   0  0  0  0  0  2  0  0  0  0  0  0
  194.3440  175.4520  138.4250 N   0  0  0  0  0  2  0  0  0  0  0  0
  1  2  2  0  0  0  0
  1  6  1  0  0  0  0
  2  7  1  0  0  0  0
  4 16  1  1  0  0  0
  5  4  1  0  0  0  0
  6  8  1  1  0  0  0
  6  5  1  0  0  0  0
  7  3  2  0  0  0  0
  7  4  1  0  0  0  0
  9 13  1  0  0  0  0
  9  8  1  0  0  0  0
 10 12  1  0  0  0  0
 11 12  2  0  0  0  0
 12  9  1  0  0  0  0
 13 14  1  0  0  0  0
 15 13  1  0  0  0  0
 16 17  1  0  0  0  0
 17 18  1  0  0  0  0
 18 19  1  0  0  0  0
 21 19  1  1  0  0  0
 21 22  1  0  0  0  0
 21 20  1  0  0  0  0
 22 23  1  6  0  0  0
 22 20  1  0  0  0  0
 23 25  1  6  0  0  0
 24 29  1  0  0  0  0
 26 24  1  0  0  0  0
 26 27  1  0  0  0  0
 27 28  1  0  0  0  0
 28 25  1  0  0  0  0
 28 30  1  1  0  0  0
 29 25  1  0  0  0  0
 31 35  1  0  0  0  0
 31 34  1  1  0  0  0
 32 23  1  6  0  0  0
 32 31  1  0  0  0  0
 33 32  1  0  0  0  0
 33 31  1  0  0  0  0
 36  2  1  0  0  0  0
 37 36  1  0  0  0  0
 38 39  1  6  0  0  0
 38 42  1  0  0  0  0
 38 37  1  0  0  0  0
 41 42  2  0  0  0  0
 42 40  2  0  0  0  0
 44 43  1  6  0  0  0
 45 46  1  0  0  0  0
 46 42  1  6  0  0  0
 46 43  1  0  0  0  0
 47 45  1  0  0  0  0
 47 44  1  0  0  0  0
 48 50  1  0  0  0  0
 48 49  1  0  0  0  0
 49 44  1  0  0  0  0
 49 51  1  1  0  0  0
 50 52  1  0  0  0  0
 51 52  1  0  0  0  0
M  END
>  <MODEL>
6

>  <REMARK>
 VINA RESULT:      -7.1      2.636      8.655
  Name = 
  17 active torsions:
  status: ('A' for Active; 'I' for Inactive)
    1  A    between atoms: N_2  and  C_45
    2  A    between atoms: C_3  and  C_10
    3  A    between atoms: C_3  and  C_51
    4  A    between atoms: C_7  and  N_18
    5  A    between atoms: C_9  and  C_12
    6  A    between atoms: C_9  and  C_39
    7  A    between atoms: C_11  and  C_32
    8  A    between atoms: C_12  and  C_17
    9  A    between atoms: N_18  and  N_48
   10  A    between atoms: C_25  and  C_45
   11  A    between atoms: C_26  and  S_30
   12  A    between atoms: C_26  and  C_51
   13  A    between atoms: S_30  and  C_36
   14  A    between atoms: C_35  and  C_52
   15  A    between atoms: C_39  and  C_52
   16  A    between atoms: C_40  and  C_45
   17  A    between atoms: C_42  and  N_48
                            x       y       z     vdW  Elec       q    Type
                         _______ _______ _______ _____ _____    ______ ____

>  <TORSDO>
F 17

$$$$
=
 OpenBabel11032421203D

 52 57  0  0  1  0  0  0  0  0999 V2000
  189.1390  177.1710  141.8430 C   0  0  0  0  0  3  0  0  0  0  0  0
  188.5050  177.8380  140.8680 C   0  0  0  0  0  0  0  0  0  0  0  0
  186.6620  179.1860  140.2290 O   0  0  0  0  0  0  0  0  0  0  0  0
  186.5620  178.3940  142.4930 C   0  0  1  0  0  3  0  0  0  0  0  0
  187.0900  177.1820  143.2640 C   0  0  0  0  0  2  0  0  0  0  0  0
  188.6210  177.1370  143.2510 C   0  0  2  0  0  3  0  0  0  0  0  0
  187.2020  178.4910  141.1290 C   0  0  0  0  0  0  0  0  0  0  0  0
  189.1660  178.2650  143.9980 N   0  0  0  0  0  2  0  0  0  0  0  0
  189.9870  177.7510  145.0220 N   0  0  0  0  0  0  0  0  0  0  0  0
  188.0320  177.7040  146.5480 N   0  0  0  0  0  1  0  0  0  0  0  0
  190.1370  177.0380  147.2520 O   0  0  0  0  0  0  0  0  0  0  0  0
  189.4180  177.4740  146.3130 C   0  0  0  0  0  0  0  0  0  0  0  0
  191.4150  177.5080  144.7930 C   0  0  0  0  0  3  0  0  0  0  0  0
  191.6440  176.0740  144.3500 C   0  0  0  0  0  1  0  0  0  0  0  0
  192.0000  178.4680  143.7690 C   0  0  0  0  0  1  0  0  0  0  0  0
  185.0450  178.3050  142.3860 C   0  0  0  0  0  2  0  0  0  0  0  0
  184.3980  178.2040  143.7620 C   0  0  0  0  0  2  0  0  0  0  0  0
  183.2770  179.2210  143.9370 C   0  0  0  0  0  2  0  0  0  0  0  0
  181.9480  178.6760  143.4400 C   0  0  0  0  0  2  0  0  0  0  0  0
  180.3110  179.8220  142.0530 N   0  0  0  0  0  2  0  0  0  0  0  0
  181.6490  179.2150  142.0540 C   0  0  2  0  0  3  0  0  0  0  0  0
  180.5230  178.4850  141.4770 C   0  0  2  0  0  3  0  0  0  0  0  0
  180.5630  178.5080  139.9310 C   0  0  1  0  0  3  0  0  0  0  0  0
  179.9700  175.7900  141.0700 C   0  0  0  0  0  2  0  0  0  0  0  0
  179.6450  177.5110  139.3120 N   0  0  0  0  0  0  0  0  0  0  0  0
  180.4230  174.8480  140.1280 O   0  0  0  0  0  0  0  0  0  0  0  0
  181.1720  175.5490  139.1620 C   0  0  0  0  0  2  0  0  0  0  0  0
  180.2430  176.5040  138.4080 C   0  0  2  0  0  3  0  0  0  0  0  0
  178.9920  176.7800  140.4080 C   0  0  0  0  0  2  0  0  0  0  0  0
  180.8630  177.0870  137.2980 O   0  0  0  0  0  1  0  0  0  0  0  0
  181.5390  180.4280  138.6050 C   0  0  1  0  0  0  0  0  0  0  0  0
  180.4050  179.9570  139.4410 C   0  0  1  0  0  3  0  0  0  0  0  0
  180.3410  179.9790  138.0290 O   0  0  0  0  0  0  0  0  0  0  0  0
  181.7480  181.9100  138.3870 C   0  0  0  0  0  1  0  0  0  0  0  0
  182.5930  179.5570  138.3180 O   0  0  0  0  0  1  0  0  0  0  0  0
  189.1230  177.8720  139.5110 C   0  0  0  0  0  2  0  0  0  0  0  0
  190.4060  177.0590  139.4850 C   0  0  0  0  0  2  0  0  0  0  0  0
  191.0210  177.0910  138.0930 C   0  0  2  0  0  3  0  0  0  0  0  0
  189.9670  176.7950  137.0390 C   0  0  0  0  0  1  0  0  0  0  0  0
  191.8100  174.5400  138.3370 O   0  0  0  0  0  0  0  0  0  0  0  0
  193.4450  176.2670  138.9200 O   0  0  0  0  0  0  0  0  0  0  0  0
  192.3400  175.8990  137.9710 S   0  0  0  0  0  0  0  0  0  0  0  0
  193.5380  174.4890  135.9970 C   0  0  0  0  0  2  0  0  0  0  0  0
  195.0080  174.7310  135.7830 C   0  0  1  0  0  3  0  0  0  0  0  0
  194.0940  176.8010  136.1820 N   0  0  0  0  0  2  0  0  0  0  0  0
  192.9900  175.8540  136.3060 C   0  0  2  0  0  3  0  0  0  0  0  0
  195.2860  176.0630  136.3050 N   0  0  0  0  0  2  0  0  0  0  0  0
  195.0360  172.5000  136.7870 N   0  0  0  0  0  2  0  0  0  0  0  0
  195.8360  173.6800  136.5200 C   0  0  2  0  0  3  0  0  0  0  0  0
  195.3730  172.0940  138.0890 N   0  0  0  0  0  2  0  0  0  0  0  0
  196.2430  174.1910  137.8710 C   0  0  0  0  0  2  0  0  0  0  0  0
  195.6780  173.2570  138.8240 N   0  0  0  0  0  2  0  0  0  0  0  0
  1  6  1  0  0  0  0
  2  7  1  0  0  0  0
  2  1  2  0  0  0  0
  3  7  2  0  0  0  0
  4 16  1  6  0  0  0
  4  5  1  0  0  0  0
  6  5  1  0  0  0  0
  6  8  1  1  0  0  0
  7  4  1  0  0  0  0
  8  9  1  0  0  0  0
  9 12  1  0  0  0  0
 12 10  1  0  0  0  0
 12 11  2  0  0  0  0
 13  9  1  0  0  0  0
 14 13  1  0  0  0  0
 15 13  1  0  0  0  0
 16 17  1  0  0  0  0
 17 18  1  0  0  0  0
 19 18  1  0  0  0  0
 20 21  1  0  0  0  0
 21 19  1  1  0  0  0
 22 23  1  6  0  0  0
 22 20  1  0  0  0  0
 22 21  1  0  0  0  0
 23 25  1  6  0  0  0
 25 29  1  0  0  0  0
 26 24  1  0  0  0  0
 27 26  1  0  0  0  0
 28 30  1  6  0  0  0
 28 27  1  0  0  0  0
 28 25  1  0  0  0  0
 29 24  1  0  0  0  0
 31 34  1  6  0  0  0
 31 32  1  0  0  0  0
 32 23  1  6  0  0  0
 33 31  1  0  0  0  0
 33 32  1  0  0  0  0
 35 31  1  0  0  0  0
 36  2  1  0  0  0  0
 37 36  1  0  0  0  0
 38 39  1  6  0  0  0
 38 37  1  0  0  0  0
 42 38  1  0  0  0  0
 42 40  2  0  0  0  0
 42 41  2  0  0  0  0
 43 46  1  0  0  0  0
 44 43  1  1  0  0  0
 44 47  1  0  0  0  0
 44 49  1  0  0  0  0
 45 47  1  0  0  0  0
 45 46  1  0  0  0  0
 46 42  1  1  0  0  0
 48 50  1  0  0  0  0
 49 48  1  0  0  0  0
 49 51  1  1  0  0  0
 50 52  1  0  0  0  0
 51 52  1  0  0  0  0
M  END
>  <MODEL>
7

>  <REMARK>
 VINA RESULT:      -7.1      3.393      4.359
  Name = 
  17 active torsions:
  status: ('A' for Active; 'I' for Inactive)
    1  A    between atoms: N_2  and  C_45
    2  A    between atoms: C_3  and  C_10
    3  A    between atoms: C_3  and  C_51
    4  A    between atoms: C_7  and  N_18
    5  A    between atoms: C_9  and  C_12
    6  A    between atoms: C_9  and  C_39
    7  A    between atoms: C_11  and  C_32
    8  A    between atoms: C_12  and  C_17
    9  A    between atoms: N_18  and  N_48
   10  A    between atoms: C_25  and  C_45
   11  A    between atoms: C_26  and  S_30
   12  A    between atoms: C_26  and  C_51
   13  A    between atoms: S_30  and  C_36
   14  A    between atoms: C_35  and  C_52
   15  A    between atoms: C_39  and  C_52
   16  A    between atoms: C_40  and  C_45
   17  A    between atoms: C_42  and  N_48
                            x       y       z     vdW  Elec       q    Type
                         _______ _______ _______ _____ _____    ______ ____

>  <TORSDO>
F 17

$$$$
=
 OpenBabel11032421203D

 52 57  0  0  1  0  0  0  0  0999 V2000
  189.7870  176.7050  142.4320 C   0  0  0  0  0  3  0  0  0  0  0  0
  189.7540  177.3880  141.2790 C   0  0  0  0  0  0  0  0  0  0  0  0
  188.6490  178.9950  139.9280 O   0  0  0  0  0  0  0  0  0  0  0  0
  187.4830  178.4440  141.9540 C   0  0  1  0  0  3  0  0  0  0  0  0
  187.3910  177.2290  142.8800 C   0  0  0  0  0  2  0  0  0  0  0  0
  188.7500  176.8980  143.5010 C   0  0  2  0  0  3  0  0  0  0  0  0
  188.6230  178.2950  140.9750 C   0  0  0  0  0  0  0  0  0  0  0  0
  189.1700  177.9660  144.4000 N   0  0  0  0  0  2  0  0  0  0  0  0
  189.2850  177.4230  145.6960 N   0  0  0  0  0  0  0  0  0  0  0  0
  191.6790  176.9370  145.2640 N   0  0  0  0  0  1  0  0  0  0  0  0
  190.6710  176.3840  147.2770 O   0  0  0  0  0  0  0  0  0  0  0  0
  190.5500  176.8970  146.1320 C   0  0  0  0  0  0  0  0  0  0  0  0
  188.1310  177.3780  146.6000 C   0  0  0  0  0  3  0  0  0  0  0  0
  188.4550  178.0790  147.9080 C   0  0  0  0  0  1  0  0  0  0  0  0
  186.8910  177.9950  145.9730 C   0  0  0  0  0  1  0  0  0  0  0  0
  186.1550  178.6320  141.2300 C   0  0  0  0  0  2  0  0  0  0  0  0
  184.9790  178.2560  142.1240 C   0  0  0  0  0  2  0  0  0  0  0  0
  183.6450  178.6300  141.4920 C   0  0  0  0  0  2  0  0  0  0  0  0
  183.1210  177.5170  140.5980 C   0  0  0  0  0  2  0  0  0  0  0  0
  182.7190  178.1070  138.2740 N   0  0  0  0  0  2  0  0  0  0  0  0
  183.7360  177.6240  139.2160 C   0  0  2  0  0  3  0  0  0  0  0  0
  183.0800  176.6820  138.3140 C   0  0  2  0  0  3  0  0  0  0  0  0
  184.0070  176.2740  137.1440 C   0  0  1  0  0  3  0  0  0  0  0  0
  181.7050  174.3930  137.5870 C   0  0  0  0  0  2  0  0  0  0  0  0
  183.2890  175.5430  136.0630 N   0  0  0  0  0  0  0  0  0  0  0  0
  182.1250  173.1260  137.1410 O   0  0  0  0  0  0  0  0  0  0  0  0
  183.5100  173.2070  136.8970 C   0  0  0  0  0  2  0  0  0  0  0  0
  183.7560  174.1770  135.7380 C   0  0  2  0  0  3  0  0  0  0  0  0
  181.8800  175.4390  136.4680 C   0  0  0  0  0  2  0  0  0  0  0  0
  185.0830  174.1590  135.2990 O   0  0  0  0  0  1  0  0  0  0  0  0
  186.2940  177.2950  136.7920 C   0  0  1  0  0  0  0  0  0  0  0  0
  184.8260  177.4960  136.6970 C   0  0  1  0  0  3  0  0  0  0  0  0
  185.6140  177.1580  135.5730 O   0  0  0  0  0  0  0  0  0  0  0  0
  187.2200  178.4920  136.7890 C   0  0  0  0  0  1  0  0  0  0  0  0
  186.7950  176.0670  137.2300 O   0  0  0  0  0  1  0  0  0  0  0  0
  190.8580  177.1830  140.2980 C   0  0  0  0  0  2  0  0  0  0  0  0
  190.3750  176.3670  139.1100 C   0  0  0  0  0  2  0  0  0  0  0  0
  191.1310  176.7700  137.8520 C   0  0  2  0  0  3  0  0  0  0  0  0
  190.3230  176.4240  136.6130 C   0  0  0  0  0  1  0  0  0  0  0  0
  192.5400  174.5240  138.2570 O   0  0  0  0  0  0  0  0  0  0  0  0
  193.6860  176.6460  138.6870 O   0  0  0  0  0  0  0  0  0  0  0  0
  192.7090  175.9430  137.7870 S   0  0  0  0  0  0  0  0  0  0  0  0
  194.1260  174.6860  135.8550 C   0  0  0  0  0  2  0  0  0  0  0  0
  195.5290  175.1750  135.6130 C   0  0  1  0  0  3  0  0  0  0  0  0
  194.2650  177.0660  135.9400 N   0  0  0  0  0  2  0  0  0  0  0  0
  193.3460  175.9450  136.1170 C   0  0  2  0  0  3  0  0  0  0  0  0
  195.5680  176.5560  136.0770 N   0  0  0  0  0  2  0  0  0  0  0  0
  196.7710  174.8730  137.6990 N   0  0  0  0  0  2  0  0  0  0  0  0
  196.5340  174.3190  136.3800 C   0  0  2  0  0  3  0  0  0  0  0  0
  198.1520  174.7540  137.9250 N   0  0  0  0  0  2  0  0  0  0  0  0
  197.8710  174.3500  135.6980 C   0  0  0  0  0  2  0  0  0  0  0  0
  198.7930  174.8900  136.6770 N   0  0  0  0  0  2  0  0  0  0  0  0
  1  6  1  0  0  0  0
  2  1  2  0  0  0  0
  3  7  2  0  0  0  0
  4 16  1  6  0  0  0
  4  5  1  0  0  0  0
  5  6  1  0  0  0  0
  6  8  1  1  0  0  0
  7  2  1  0  0  0  0
  7  4  1  0  0  0  0
  8  9  1  0  0  0  0
  9 12  1  0  0  0  0
  9 13  1  0  0  0  0
 10 12  1  0  0  0  0
 12 11  2  0  0  0  0
 13 14  1  0  0  0  0
 15 13  1  0  0  0  0
 16 17  1  0  0  0  0
 18 17  1  0  0  0  0
 19 18  1  0  0  0  0
 20 22  1  0  0  0  0
 20 21  1  0  0  0  0
 21 19  1  1  0  0  0
 22 23  1  6  0  0  0
 22 21  1  0  0  0  0
 23 25  1  6  0  0  0
 25 29  1  0  0  0  0
 26 24  1  0  0  0  0
 27 26  1  0  0  0  0
 28 30  1  1  0  0  0
 28 25  1  0  0  0  0
 28 27  1  0  0  0  0
 29 24  1  0  0  0  0
 31 34  1  1  0  0  0
 31 35  1  0  0  0  0
 32 31  1  0  0  0  0
 32 23  1  1  0  0  0
 33 32  1  0  0  0  0
 33 31  1  0  0  0  0
 36  2  1  0  0  0  0
 37 36  1  0  0  0  0
 38 39  1  6  0  0  0
 38 37  1  0  0  0  0
 42 38  1  0  0  0  0
 42 40  2  0  0  0  0
 42 41  2  0  0  0  0
 43 46  1  0  0  0  0
 44 43  1  1  0  0  0
 44 47  1  0  0  0  0
 44 49  1  0  0  0  0
 45 47  1  0  0  0  0
 45 46  1  0  0  0  0
 46 42  1  1  0  0  0
 48 50  1  0  0  0  0
 49 51  1  6  0  0  0
 49 48  1  0  0  0  0
 51 52  1  0  0  0  0
 52 50  1  0  0  0  0
M  END
>  <MODEL>
8

>  <REMARK>
 VINA RESULT:      -7.0      4.058      6.013
  Name = 
  17 active torsions:
  status: ('A' for Active; 'I' for Inactive)
    1  A    between atoms: N_2  and  C_45
    2  A    between atoms: C_3  and  C_10
    3  A    between atoms: C_3  and  C_51
    4  A    between atoms: C_7  and  N_18
    5  A    between atoms: C_9  and  C_12
    6  A    between atoms: C_9  and  C_39
    7  A    between atoms: C_11  and  C_32
    8  A    between atoms: C_12  and  C_17
    9  A    between atoms: N_18  and  N_48
   10  A    between atoms: C_25  and  C_45
   11  A    between atoms: C_26  and  S_30
   12  A    between atoms: C_26  and  C_51
   13  A    between atoms: S_30  and  C_36
   14  A    between atoms: C_35  and  C_52
   15  A    between atoms: C_39  and  C_52
   16  A    between atoms: C_40  and  C_45
   17  A    between atoms: C_42  and  N_48
                            x       y       z     vdW  Elec       q    Type
                         _______ _______ _______ _____ _____    ______ ____

>  <TORSDO>
F 17

$$$$
=
 OpenBabel11032421203D

 52 57  0  0  1  0  0  0  0  0999 V2000
  188.7320  177.4840  142.3330 C   0  0  0  0  0  3  0  0  0  0  0  0
  187.9620  178.2450  141.5430 C   0  0  0  0  0  0  0  0  0  0  0  0
  185.9920  179.5470  141.3120 O   0  0  0  0  0  0  0  0  0  0  0  0
  186.1830  178.4180  143.4220 C   0  0  1  0  0  3  0  0  0  0  0  0
  186.8540  177.1420  143.9370 C   0  0  0  0  0  2  0  0  0  0  0  0
  188.3740  177.2040  143.7630 C   0  0  2  0  0  3  0  0  0  0  0  0
  186.6640  178.7620  142.0330 C   0  0  0  0  0  0  0  0  0  0  0  0
  188.9390  178.2400  144.6190 N   0  0  0  0  0  2  0  0  0  0  0  0
  189.9740  177.6600  145.3790 N   0  0  0  0  0  0  0  0  0  0  0  0
  188.3410  177.1090  147.1620 N   0  0  0  0  0  1  0  0  0  0  0  0
  190.5900  176.5920  147.3740 O   0  0  0  0  0  0  0  0  0  0  0  0
  189.6760  177.0940  146.6660 C   0  0  0  0  0  0  0  0  0  0  0  0
  191.3540  177.6370  144.8800 C   0  0  0  0  0  3  0  0  0  0  0  0
  191.6260  176.3420  144.1350 C   0  0  0  0  0  1  0  0  0  0  0  0
  191.6550  178.8260  143.9810 C   0  0  0  0  0  1  0  0  0  0  0  0
  184.6690  178.2430  143.4550 C   0  0  0  0  0  2  0  0  0  0  0  0
  184.0330  179.1320  144.5170 C   0  0  0  0  0  2  0  0  0  0  0  0
  182.6990  179.7020  144.0530 C   0  0  0  0  0  2  0  0  0  0  0  0
  181.8020  178.6200  143.4720 C   0  0  0  0  0  2  0  0  0  0  0  0
  179.6350  178.4560  142.3820 N   0  0  0  0  0  2  0  0  0  0  0  0
  180.8950  179.2100  142.4090 C   0  0  2  0  0  3  0  0  0  0  0  0
  180.6660  178.2210  141.3590 C   0  0  2  0  0  3  0  0  0  0  0  0
  180.3230  178.8950  140.0090 C   0  0  1  0  0  3  0  0  0  0  0  0
  178.9920  181.0490  138.3880 C   0  0  0  0  0  2  0  0  0  0  0  0
  180.7880  180.3080  139.9310 N   0  0  0  0  0  0  0  0  0  0  0  0
  179.9290  181.4700  137.4270 O   0  0  0  0  0  0  0  0  0  0  0  0
  181.0030  180.5600  137.4640 C   0  0  0  0  0  2  0  0  0  0  0  0
  181.7000  180.6650  138.8230 C   0  0  2  0  0  3  0  0  0  0  0  0
  179.5920  181.1540  139.8040 C   0  0  0  0  0  2  0  0  0  0  0  0
  182.8980  179.9450  138.8660 O   0  0  0  0  0  1  0  0  0  0  0  0
  179.9800  176.7240  138.7570 C   0  0  1  0  0  0  0  0  0  0  0  0
  180.7680  177.9790  138.8570 C   0  0  1  0  0  3  0  0  0  0  0  0
  179.7110  177.8260  137.9320 O   0  0  0  0  0  0  0  0  0  0  0  0
  180.5270  175.5520  137.9720 C   0  0  0  0  0  1  0  0  0  0  0  0
  178.9310  176.4950  139.6510 O   0  0  0  0  0  1  0  0  0  0  0  0
  188.4240  178.5260  140.1530 C   0  0  0  0  0  2  0  0  0  0  0  0
  188.3610  177.2670  139.3040 C   0  0  0  0  0  2  0  0  0  0  0  0
  188.4820  177.6220  137.8280 C   0  0  2  0  0  3  0  0  0  0  0  0
  189.3480  178.8570  137.6480 C   0  0  0  0  0  1  0  0  0  0  0  0
  186.5460  179.3780  137.2320 O   0  0  0  0  0  0  0  0  0  0  0  0
  185.8390  177.1270  137.8850 O   0  0  0  0  0  0  0  0  0  0  0  0
  186.8700  177.9140  137.1270 S   0  0  0  0  0  0  0  0  0  0  0  0
  185.7400  176.4180  135.1760 C   0  0  0  0  0  2  0  0  0  0  0  0
  186.4730  175.1690  134.7660 C   0  0  1  0  0  3  0  0  0  0  0  0
  188.0960  176.7670  135.0600 N   0  0  0  0  0  2  0  0  0  0  0  0
  186.8380  177.4190  135.4090 C   0  0  2  0  0  3  0  0  0  0  0  0
  187.8720  175.3800  135.1140 N   0  0  0  0  0  2  0  0  0  0  0  0
  184.5500  174.2050  135.9320 N   0  0  0  0  0  2  0  0  0  0  0  0
  185.9110  173.9530  135.5010 C   0  0  2  0  0  3  0  0  0  0  0  0
  184.4490  173.6630  137.2250 N   0  0  0  0  0  2  0  0  0  0  0  0
  186.6820  173.7070  136.7650 C   0  0  0  0  0  2  0  0  0  0  0  0
  185.7110  173.8040  137.8360 N   0  0  0  0  0  2  0  0  0  0  0  0
  1  6  1  0  0  0  0
  2  7  1  0  0  0  0
  2  1  2  0  0  0  0
  3  7  2  0  0  0  0
  4 16  1  6  0  0  0
  4  5  1  0  0  0  0
  6  5  1  0  0  0  0
  6  8  1  1  0  0  0
  7  4  1  0  0  0  0
  8  9  1  0  0  0  0
  9 12  1  0  0  0  0
 12 10  1  0  0  0  0
 12 11  2  0  0  0  0
 13  9  1  0  0  0  0
 14 13  1  0  0  0  0
 15 13  1  0  0  0  0
 16 17  1  0  0  0  0
 18 17  1  0  0  0  0
 19 18  1  0  0  0  0
 20 21  1  0  0  0  0
 21 19  1  1  0  0  0
 22 23  1  6  0  0  0
 22 20  1  0  0  0  0
 22 21  1  0  0  0  0
 23 25  1  6  0  0  0
 24 29  1  0  0  0  0
 26 27  1  0  0  0  0
 26 24  1  0  0  0  0
 27 28  1  0  0  0  0
 28 30  1  6  0  0  0
 28 25  1  0  0  0  0
 29 25  1  0  0  0  0
 31 34  1  6  0  0  0
 31 32  1  0  0  0  0
 31 35  1  0  0  0  0
 32 23  1  1  0  0  0
 33 31  1  0  0  0  0
 33 32  1  0  0  0  0
 36  2  1  0  0  0  0
 37 36  1  0  0  0  0
 38 39  1  1  0  0  0
 38 37  1  0  0  0  0
 42 40  2  0  0  0  0
 42 38  1  0  0  0  0
 42 41  2  0  0  0  0
 43 46  1  0  0  0  0
 44 47  1  0  0  0  0
 44 43  1  1  0  0  0
 44 49  1  0  0  0  0
 45 47  1  0  0  0  0
 45 46  1  0  0  0  0
 46 42  1  1  0  0  0
 48 50  1  0  0  0  0
 49 48  1  0  0  0  0
 49 51  1  1  0  0  0
 50 52  1  0  0  0  0
 51 52  1  0  0  0  0
M  END
>  <MODEL>
9

>  <REMARK>
 VINA RESULT:      -7.0      1.384      2.401
  Name = 
  17 active torsions:
  status: ('A' for Active; 'I' for Inactive)
    1  A    between atoms: N_2  and  C_45
    2  A    between atoms: C_3  and  C_10
    3  A    between atoms: C_3  and  C_51
    4  A    between atoms: C_7  and  N_18
    5  A    between atoms: C_9  and  C_12
    6  A    between atoms: C_9  and  C_39
    7  A    between atoms: C_11  and  C_32
    8  A    between atoms: C_12  and  C_17
    9  A    between atoms: N_18  and  N_48
   10  A    between atoms: C_25  and  C_45
   11  A    between atoms: C_26  and  S_30
   12  A    between atoms: C_26  and  C_51
   13  A    between atoms: S_30  and  C_36
   14  A    between atoms: C_35  and  C_52
   15  A    between atoms: C_39  and  C_52
   16  A    between atoms: C_40  and  C_45
   17  A    between atoms: C_42  and  N_48
                            x       y       z     vdW  Elec       q    Type
                         _______ _______ _______ _____ _____    ______ ____

>  <TORSDO>
F 17

$$$$
