=
 OpenBabel11032419423D

 62 69  0  0  1  0  0  0  0  0999 V2000
  190.3850  176.2430  139.0560 C   0  0  2  0  0  3  0  0  0  0  0  0
  191.3460  177.1130  139.8460 C   0  0  0  0  0  2  0  0  0  0  0  0
  190.7420  177.5360  141.1720 C   0  0  0  0  0  2  0  0  0  0  0  0
  191.7150  177.1920  142.2810 C   0  0  0  0  0  2  0  0  0  0  0  0
  190.9980  175.9470  143.3910 S   0  0  0  0  0  0  0  0  0  0  0  0
  191.4710  176.9150  144.8560 C   0  0  0  0  0  2  0  0  0  0  0  0
  188.9990  176.6980  145.4670 C   0  0  1  0  0  3  0  0  0  0  0  0
  190.2530  177.5610  145.4950 C   0  0  2  0  0  0  0  0  0  0  0  0
  190.0550  178.9330  145.2870 O   0  0  0  0  0  1  0  0  0  0  0  0
  189.7360  176.9690  146.8000 C   0  0  1  0  0  3  0  0  0  0  0  0
  189.0640  178.0130  147.6920 C   0  0  0  0  0  1  0  0  0  0  0  0
  183.6910  178.4670  142.8690 C   0  0  0  0  0  2  0  0  0  0  0  0
  185.8410  178.2900  143.9990 N   0  0  0  0  0  0  0  0  0  0  0  0
  183.2810  179.4370  143.8820 N   0  0  0  0  0  2  0  0  0  0  0  0
  185.2050  178.5060  142.7000 C   0  0  0  0  0  2  0  0  0  0  0  0
  185.3360  179.0250  145.1590 C   0  0  0  0  0  2  0  0  0  0  0  0
  187.0890  177.5890  144.0790 C   0  0  0  0  0  0  0  0  0  0  0  0
  183.8040  178.9870  145.1710 C   0  0  0  0  0  2  0  0  0  0  0  0
  187.5620  177.0320  143.0510 O   0  0  0  0  0  0  0  0  0  0  0  0
  187.7910  177.5050  145.3210 N   0  0  0  0  0  2  0  0  0  0  0  0
  191.1470  175.2420  138.3250 N   0  0  0  0  0  2  0  0  0  0  0  0
  192.2000  175.9260  137.5810 C   0  0  0  0  0  2  0  0  0  0  0  0
  192.1580  175.5420  136.1040 C   0  0  0  0  0  2  0  0  0  0  0  0
  191.9190  172.9770  135.7900 C   0  0  0  0  0  3  0  0  0  0  0  0
  193.9870  172.4110  135.9170 N   0  0  0  0  0  0  0  0  0  0  0  0
  195.0480  174.2900  136.7300 N   0  0  0  0  0  2  0  0  0  0  0  0
  192.6680  174.1530  135.8880 C   0  0  0  0  0  0  0  0  0  0  0  0
  195.3510  170.7490  136.8970 O   0  0  0  0  0  0  0  0  0  0  0  0
  192.7630  171.9150  135.8540 N   0  0  0  0  0  0  0  0  0  0  0  0
  195.1170  171.9590  136.6260 C   0  0  0  0  0  0  0  0  0  0  0  0
  195.9030  173.1460  137.1110 C   0  0  1  0  0  3  0  0  0  0  0  0
  193.9660  173.7210  135.9980 C   0  0  0  0  0  0  0  0  0  0  0  0
  197.2760  173.2230  136.4370 C   0  0  1  0  0  3  0  0  0  0  0  0
  197.8220  174.6470  136.3890 C   0  0  0  0  0  1  0  0  0  0  0  0
  198.2520  172.2930  137.1480 C   0  0  0  0  0  2  0  0  0  0  0  0
  199.1780  171.5830  136.1700 C   0  0  0  0  0  2  0  0  0  0  0  0
  198.6960  170.1680  135.9060 C   0  0  0  0  0  1  0  0  0  0  0  0
  189.6330  177.0640  138.1170 N   0  0  0  0  0  2  0  0  0  0  0  0
  185.9380  177.6940  137.5780 C   0  0  0  0  0  0  0  0  0  0  0  0
  184.9580  177.4020  136.6790 N   0  0  0  0  0  0  0  0  0  0  0  0
  185.2100  176.6650  135.5650 C   0  0  0  0  0  3  0  0  0  0  0  0
  186.6880  178.6820  139.6200 N   0  0  0  0  0  0  0  0  0  0  0  0
  187.2470  177.2080  137.3480 C   0  0  0  0  0  0  0  0  0  0  0  0
  187.4840  176.4720  136.2270 N   0  0  0  0  0  0  0  0  0  0  0  0
  187.9540  178.2350  139.4120 C   0  0  0  0  0  3  0  0  0  0  0  0
  186.5000  176.1910  135.3350 C   0  0  0  0  0  3  0  0  0  0  0  0
  185.6730  178.4480  138.7430 C   0  0  0  0  0  0  0  0  0  0  0  0
  188.2710  177.4920  138.2770 C   0  0  0  0  0  0  0  0  0  0  0  0
  184.3360  178.9980  139.0640 C   0  0  0  0  0  0  0  0  0  0  0  0
  184.2100  180.2350  139.2780 O   0  0  0  0  0  0  0  0  0  0  0  0
  183.1790  178.1560  139.1020 N   0  0  0  0  0  2  0  0  0  0  0  0
  181.8910  178.6670  139.3180 N   0  0  0  0  0  2  0  0  0  0  0  0
  181.2870  178.8910  138.0130 C   0  0  0  0  0  2  0  0  0  0  0  0
  179.7590  180.3810  139.3360 C   0  0  0  0  0  2  0  0  0  0  0  0
  179.5800  182.8210  137.9820 C   0  0  1  0  0  3  0  0  0  0  0  0
  180.9900  182.5420  137.8120 N   0  0  0  0  0  0  0  0  0  0  0  0
  181.4340  181.3360  137.8020 C   0  0  0  0  0  3  0  0  0  0  0  0
  178.9320  182.0200  139.5040 S   0  0  0  0  0  0  0  0  0  0  0  0
  180.4990  180.1880  138.0120 C   0  0  1  0  0  3  0  0  0  0  0  0
  180.4360  185.0290  137.2570 C   0  0  0  0  0  2  0  0  0  0  0  0
  179.0550  184.8510  136.6640 C   0  0  0  0  0  2  0  0  0  0  0  0
  179.3570  184.3210  138.0520 C   0  0  0  0  0  3  0  0  0  0  0  0
  1  2  1  6  0  0  0
  2  3  1  0  0  0  0
  3  4  1  0  0  0  0
  4  5  1  0  0  0  0
  5  6  1  0  0  0  0
  6  8  1  0  0  0  0
  7 20  1  1  0  0  0
  7  8  1  0  0  0  0
  7 10  1  0  0  0  0
  8  9  1  6  0  0  0
  8 10  1  0  0  0  0
 10 11  1  1  0  0  0
 12 14  1  0  0  0  0
 13 17  1  0  0  0  0
 13 16  1  0  0  0  0
 14 18  1  0  0  0  0
 15 12  1  0  0  0  0
 15 13  1  0  0  0  0
 16 18  1  0  0  0  0
 17 20  1  0  0  0  0
 19 17  2  0  0  0  0
 21  1  1  0  0  0  0
 22 21  1  0  0  0  0
 23 22  1  0  0  0  0
 24 29  2  0  0  0  0
 24 27  1  0  0  0  0
 25 32  1  0  0  0  0
 25 30  1  0  0  0  0
 26 31  1  0  0  0  0
 27 32  2  0  0  0  0
 27 23  1  0  0  0  0
 29 25  1  0  0  0  0
 30 28  2  0  0  0  0
 30 31  1  0  0  0  0
 31 33  1  6  0  0  0
 32 26  1  0  0  0  0
 33 34  1  1  0  0  0
 33 35  1  0  0  0  0
 36 35  1  0  0  0  0
 37 36  1  0  0  0  0
 38 48  1  0  0  0  0
 38  1  1  0  0  0  0
 39 47  1  0  0  0  0
 40 39  1  0  0  0  0
 41 40  2  0  0  0  0
 43 39  2  0  0  0  0
 43 48  1  0  0  0  0
 44 43  1  0  0  0  0
 45 42  1  0  0  0  0
 46 41  1  0  0  0  0
 46 44  2  0  0  0  0
 47 49  1  0  0  0  0
 47 42  2  0  0  0  0
 48 45  2  0  0  0  0
 49 51  1  0  0  0  0
 49 50  2  0  0  0  0
 51 52  1  0  0  0  0
 53 52  1  0  0  0  0
 54 58  1  0  0  0  0
 55 62  1  1  0  0  0
 55 58  1  0  0  0  0
 56 55  1  0  0  0  0
 57 56  2  0  0  0  0
 57 59  1  0  0  0  0
 59 53  1  1  0  0  0
 59 54  1  0  0  0  0
 60 62  1  0  0  0  0
 61 60  1  0  0  0  0
 61 62  1  0  0  0  0
M  END
>  <MODEL>
1

>  <REMARK>
 VINA RESULT:      -7.7      0.000      0.000
  Name = 
  21 active torsions:
  status: ('A' for Active; 'I' for Inactive)
    1  A    between atoms: C_2  and  C_40
    2  A    between atoms: C_2  and  S_58
    3  A    between atoms: C_3  and  C_55
    4  A    between atoms: C_6  and  C_39
    5  A    between atoms: C_6  and  C_49
    6  A    between atoms: N_8  and  C_25
    7  A    between atoms: N_8  and  C_57
    8  A    between atoms: N_10  and  C_41
    9  A    between atoms: N_10  and  N_50
   10  A    between atoms: C_11  and  N_53
   11  A    between atoms: N_13  and  C_25
   12  A    between atoms: N_13  and  C_35
   13  A    between atoms: C_14  and  C_34
   14  A    between atoms: C_25  and  C_59
   15  A    between atoms: C_27  and  C_51
   16  A    between atoms: C_30  and  C_49
   17  A    between atoms: C_31  and  C_48
   18  A    between atoms: C_35  and  C_51
   19  A    between atoms: C_40  and  C_59
   20  A    between atoms: C_41  and  C_60
   21  A    between atoms: C_48  and  S_58
                            x       y       z     vdW  Elec       q    Type
                         _______ _______ _______ _____ _____    ______ ____

>  <TORSDO>
F 21

$$$$
=
 OpenBabel11032419423D

 62 69  0  0  1  0  0  0  0  0999 V2000
  184.9820  178.6460  141.4740 C   0  0  2  0  0  3  0  0  0  0  0  0
  183.6520  177.9470  141.2530 C   0  0  0  0  0  2  0  0  0  0  0  0
  182.6230  178.8960  140.6670 C   0  0  0  0  0  2  0  0  0  0  0  0
  181.3050  178.6890  141.3860 C   0  0  0  0  0  2  0  0  0  0  0  0
  180.1050  177.8800  140.2900 S   0  0  0  0  0  0  0  0  0  0  0  0
  180.5040  179.0240  138.9340 C   0  0  0  0  0  2  0  0  0  0  0  0
  180.4410  176.8110  137.6580 C   0  0  1  0  0  3  0  0  0  0  0  0
  180.9020  178.2620  137.6820 C   0  0  2  0  0  0  0  0  0  0  0  0
  182.1730  178.5080  137.1430 O   0  0  0  0  0  1  0  0  0  0  0  0
  179.7980  177.8550  136.7140 C   0  0  1  0  0  3  0  0  0  0  0  0
  180.2850  177.7820  135.2660 C   0  0  0  0  0  1  0  0  0  0  0  0
  184.6930  172.3650  137.1950 C   0  0  0  0  0  2  0  0  0  0  0  0
  183.3010  174.3540  136.9920 N   0  0  0  0  0  0  0  0  0  0  0  0
  184.8060  172.3430  135.7390 N   0  0  0  0  0  2  0  0  0  0  0  0
  184.4680  173.7960  137.6720 C   0  0  0  0  0  2  0  0  0  0  0  0
  183.1730  174.1650  135.5470 C   0  0  0  0  0  2  0  0  0  0  0  0
  182.4520  175.2870  137.6730 C   0  0  0  0  0  0  0  0  0  0  0  0
  183.5060  172.7140  135.1810 C   0  0  0  0  0  2  0  0  0  0  0  0
  182.6260  175.5110  138.9020 O   0  0  0  0  0  0  0  0  0  0  0  0
  181.3990  175.9500  136.9700 N   0  0  0  0  0  2  0  0  0  0  0  0
  184.7810  179.7600  142.3890 N   0  0  0  0  0  2  0  0  0  0  0  0
  184.7300  179.2310  143.7470 C   0  0  0  0  0  2  0  0  0  0  0  0
  185.6770  178.0450  143.9040 C   0  0  0  0  0  2  0  0  0  0  0  0
  185.6070  178.4700  146.4640 C   0  0  0  0  0  3  0  0  0  0  0  0
  187.5530  177.7320  146.9980 N   0  0  0  0  0  0  0  0  0  0  0  0
  188.6530  177.5000  144.9840 N   0  0  0  0  0  2  0  0  0  0  0  0
  186.1820  177.9350  145.3070 C   0  0  0  0  0  0  0  0  0  0  0  0
  189.3890  178.3010  148.3720 O   0  0  0  0  0  0  0  0  0  0  0  0
  186.4990  178.3660  147.4830 N   0  0  0  0  0  0  0  0  0  0  0  0
  188.9240  177.9070  147.2670 C   0  0  0  0  0  0  0  0  0  0  0  0
  189.7080  177.6820  146.0030 C   0  0  1  0  0  3  0  0  0  0  0  0
  187.4260  177.5140  145.7090 C   0  0  0  0  0  0  0  0  0  0  0  0
  190.6030  176.4430  146.1110 C   0  0  1  0  0  3  0  0  0  0  0  0
  191.8050  176.5100  145.1730 C   0  0  0  0  0  1  0  0  0  0  0  0
  191.0520  176.2550  147.5550 C   0  0  0  0  0  2  0  0  0  0  0  0
  192.4210  175.5940  147.6440 C   0  0  0  0  0  2  0  0  0  0  0  0
  193.1830  176.1000  148.8550 C   0  0  0  0  0  1  0  0  0  0  0  0
  185.4960  179.1440  140.2060 N   0  0  0  0  0  2  0  0  0  0  0  0
  188.4760  177.3180  138.7500 C   0  0  0  0  0  0  0  0  0  0  0  0
  189.7060  176.8740  139.1310 N   0  0  0  0  0  0  0  0  0  0  0  0
  190.1720  177.0630  140.3940 C   0  0  0  0  0  3  0  0  0  0  0  0
  186.7360  177.5500  137.1300 N   0  0  0  0  0  0  0  0  0  0  0  0
  187.6630  177.9830  139.6980 C   0  0  0  0  0  0  0  0  0  0  0  0
  188.1450  178.1660  140.9590 N   0  0  0  0  0  0  0  0  0  0  0  0
  185.9450  178.2010  138.0210 C   0  0  0  0  0  3  0  0  0  0  0  0
  189.3740  177.7240  141.3270 C   0  0  0  0  0  3  0  0  0  0  0  0
  187.9860  177.1090  137.4410 C   0  0  0  0  0  0  0  0  0  0  0  0
  186.3810  178.4390  139.3220 C   0  0  0  0  0  0  0  0  0  0  0  0
  188.7670  176.4250  136.3850 C   0  0  0  0  0  0  0  0  0  0  0  0
  189.4620  177.1120  135.5860 O   0  0  0  0  0  0  0  0  0  0  0  0
  188.7760  174.9980  136.2760 N   0  0  0  0  0  2  0  0  0  0  0  0
  189.5740  174.3250  135.3410 N   0  0  0  0  0  2  0  0  0  0  0  0
  190.4070  173.3840  136.0760 C   0  0  0  0  0  2  0  0  0  0  0  0
  192.0610  174.6870  137.4420 C   0  0  0  0  0  2  0  0  0  0  0  0
  194.5930  174.2570  136.3360 C   0  0  1  0  0  3  0  0  0  0  0  0
  194.0430  172.9230  136.2290 N   0  0  0  0  0  0  0  0  0  0  0  0
  192.7760  172.7310  136.1260 C   0  0  0  0  0  3  0  0  0  0  0  0
  193.8160  175.1790  137.7220 S   0  0  0  0  0  0  0  0  0  0  0  0
  191.8340  173.8930  136.1550 C   0  0  1  0  0  3  0  0  0  0  0  0
  196.6610  173.0430  135.7150 C   0  0  0  0  0  2  0  0  0  0  0  0
  196.8020  174.4710  135.2340 C   0  0  0  0  0  2  0  0  0  0  0  0
  196.0950  174.1790  136.5440 C   0  0  0  0  0  3  0  0  0  0  0  0
  1  2  1  6  0  0  0
  1 21  1  0  0  0  0
  3  2  1  0  0  0  0
  3  4  1  0  0  0  0
  5  4  1  0  0  0  0
  6  5  1  0  0  0  0
  7 20  1  6  0  0  0
  7  8  1  0  0  0  0
  8  9  1  6  0  0  0
  8  6  1  0  0  0  0
 10 11  1  6  0  0  0
 10  7  1  0  0  0  0
 10  8  1  0  0  0  0
 12 15  1  0  0  0  0
 13 15  1  0  0  0  0
 13 17  1  0  0  0  0
 14 12  1  0  0  0  0
 16 13  1  0  0  0  0
 17 19  2  0  0  0  0
 18 16  1  0  0  0  0
 18 14  1  0  0  0  0
 20 17  1  0  0  0  0
 21 22  1  0  0  0  0
 22 23  1  0  0  0  0
 23 27  1  0  0  0  0
 24 29  2  0  0  0  0
 25 30  1  0  0  0  0
 25 29  1  0  0  0  0
 26 32  1  0  0  0  0
 26 31  1  0  0  0  0
 27 32  2  0  0  0  0
 27 24  1  0  0  0  0
 30 28  2  0  0  0  0
 31 33  1  1  0  0  0
 31 30  1  0  0  0  0
 32 25  1  0  0  0  0
 33 34  1  6  0  0  0
 33 35  1  0  0  0  0
 35 36  1  0  0  0  0
 36 37  1  0  0  0  0
 38  1  1  0  0  0  0
 39 40  2  0  0  0  0
 39 43  1  0  0  0  0
 40 41  1  0  0  0  0
 41 46  2  0  0  0  0
 42 47  2  0  0  0  0
 42 45  1  0  0  0  0
 43 44  2  0  0  0  0
 44 46  1  0  0  0  0
 45 48  2  0  0  0  0
 47 39  1  0  0  0  0
 48 43  1  0  0  0  0
 48 38  1  0  0  0  0
 49 47  1  0  0  0  0
 50 49  2  0  0  0  0
 51 49  1  0  0  0  0
 52 53  1  0  0  0  0
 52 51  1  0  0  0  0
 54 58  1  0  0  0  0
 55 62  1  1  0  0  0
 55 58  1  0  0  0  0
 56 55  1  0  0  0  0
 57 59  1  0  0  0  0
 57 56  2  0  0  0  0
 59 53  1  1  0  0  0
 59 54  1  0  0  0  0
 60 62  1  0  0  0  0
 61 60  1  0  0  0  0
 61 62  1  0  0  0  0
M  END
>  <MODEL>
2

>  <REMARK>
 VINA RESULT:      -7.5      2.873     11.439
  Name = 
  21 active torsions:
  status: ('A' for Active; 'I' for Inactive)
    1  A    between atoms: C_2  and  C_40
    2  A    between atoms: C_2  and  S_58
    3  A    between atoms: C_3  and  C_55
    4  A    between atoms: C_6  and  C_39
    5  A    between atoms: C_6  and  C_49
    6  A    between atoms: N_8  and  C_25
    7  A    between atoms: N_8  and  C_57
    8  A    between atoms: N_10  and  C_41
    9  A    between atoms: N_10  and  N_50
   10  A    between atoms: C_11  and  N_53
   11  A    between atoms: N_13  and  C_25
   12  A    between atoms: N_13  and  C_35
   13  A    between atoms: C_14  and  C_34
   14  A    between atoms: C_25  and  C_59
   15  A    between atoms: C_27  and  C_51
   16  A    between atoms: C_30  and  C_49
   17  A    between atoms: C_31  and  C_48
   18  A    between atoms: C_35  and  C_51
   19  A    between atoms: C_40  and  C_59
   20  A    between atoms: C_41  and  C_60
   21  A    between atoms: C_48  and  S_58
                            x       y       z     vdW  Elec       q    Type
                         _______ _______ _______ _____ _____    ______ ____

>  <TORSDO>
F 21

$$$$
=
 OpenBabel11032419423D

 62 69  0  0  1  0  0  0  0  0999 V2000
  190.7710  176.4090  139.1840 C   0  0  2  0  0  3  0  0  0  0  0  0
  191.7630  177.0860  140.1130 C   0  0  0  0  0  2  0  0  0  0  0  0
  191.0650  177.6830  141.3200 C   0  0  0  0  0  2  0  0  0  0  0  0
  191.8530  177.3220  142.5640 C   0  0  0  0  0  2  0  0  0  0  0  0
  191.0240  175.9880  143.4750 S   0  0  0  0  0  0  0  0  0  0  0  0
  191.4400  176.7580  145.0690 C   0  0  0  0  0  2  0  0  0  0  0  0
  188.9640  176.6340  145.6880 C   0  0  1  0  0  3  0  0  0  0  0  0
  190.2350  177.4720  145.6570 C   0  0  2  0  0  0  0  0  0  0  0  0
  190.0650  178.8300  145.3510 O   0  0  0  0  0  1  0  0  0  0  0  0
  189.7050  176.9860  147.0010 C   0  0  1  0  0  3  0  0  0  0  0  0
  189.0530  178.1060  147.8130 C   0  0  0  0  0  1  0  0  0  0  0  0
  183.7920  178.4310  142.8460 C   0  0  0  0  0  2  0  0  0  0  0  0
  185.8900  178.2440  144.0680 N   0  0  0  0  0  0  0  0  0  0  0  0
  183.3510  179.4170  143.8290 N   0  0  0  0  0  2  0  0  0  0  0  0
  185.3120  178.4510  142.7420 C   0  0  0  0  0  2  0  0  0  0  0  0
  185.3440  178.9980  145.1980 C   0  0  0  0  0  2  0  0  0  0  0  0
  187.1250  177.5300  144.2100 C   0  0  0  0  0  0  0  0  0  0  0  0
  183.8130  178.9770  145.1450 C   0  0  0  0  0  2  0  0  0  0  0  0
  187.6360  176.9560  143.2100 O   0  0  0  0  0  0  0  0  0  0  0  0
  187.7720  177.4530  145.4820 N   0  0  0  0  0  2  0  0  0  0  0  0
  191.4930  175.5030  138.3030 N   0  0  0  0  0  2  0  0  0  0  0  0
  192.4430  176.2870  137.5220 C   0  0  0  0  0  2  0  0  0  0  0  0
  192.6380  175.6780  136.1350 C   0  0  0  0  0  2  0  0  0  0  0  0
  192.6780  173.0840  136.2100 C   0  0  0  0  0  3  0  0  0  0  0  0
  194.7450  172.7770  136.7060 N   0  0  0  0  0  0  0  0  0  0  0  0
  195.5000  174.8610  137.3410 N   0  0  0  0  0  2  0  0  0  0  0  0
  193.2960  174.3380  136.2180 C   0  0  0  0  0  0  0  0  0  0  0  0
  196.0870  171.4390  138.1170 O   0  0  0  0  0  0  0  0  0  0  0  0
  193.5940  172.1440  136.5590 N   0  0  0  0  0  0  0  0  0  0  0  0
  195.7900  172.5620  137.6260 C   0  0  0  0  0  0  0  0  0  0  0  0
  196.3860  173.8880  138.0150 C   0  0  1  0  0  3  0  0  0  0  0  0
  194.5960  174.0740  136.5710 C   0  0  0  0  0  0  0  0  0  0  0  0
  197.8330  174.0160  137.5300 C   0  0  1  0  0  3  0  0  0  0  0  0
  197.9780  175.0240  136.3940 C   0  0  0  0  0  1  0  0  0  0  0  0
  198.7380  174.3860  138.7000 C   0  0  0  0  0  2  0  0  0  0  0  0
  198.2140  175.5930  139.4660 C   0  0  0  0  0  2  0  0  0  0  0  0
  197.8140  175.2000  140.8760 C   0  0  0  0  0  1  0  0  0  0  0  0
  190.0760  177.4110  138.3860 N   0  0  0  0  0  2  0  0  0  0  0  0
  186.4060  177.7850  137.5340 C   0  0  0  0  0  0  0  0  0  0  0  0
  185.5450  177.5040  136.5170 N   0  0  0  0  0  0  0  0  0  0  0  0
  185.9660  176.9050  135.3720 C   0  0  0  0  0  3  0  0  0  0  0  0
  186.8680  178.6230  139.7230 N   0  0  0  0  0  0  0  0  0  0  0  0
  187.7690  177.4340  137.3950 C   0  0  0  0  0  0  0  0  0  0  0  0
  188.1760  176.8350  136.2420 N   0  0  0  0  0  0  0  0  0  0  0  0
  188.1830  178.3050  139.6050 C   0  0  0  0  0  3  0  0  0  0  0  0
  187.3100  176.5640  135.2320 C   0  0  0  0  0  3  0  0  0  0  0  0
  185.9650  178.3950  138.7300 C   0  0  0  0  0  0  0  0  0  0  0  0
  188.6720  177.7070  138.4460 C   0  0  0  0  0  0  0  0  0  0  0  0
  184.5590  178.7970  138.9620 C   0  0  0  0  0  0  0  0  0  0  0  0
  184.2620  180.0240  138.9870 O   0  0  0  0  0  0  0  0  0  0  0  0
  183.5260  177.8210  139.1240 N   0  0  0  0  0  2  0  0  0  0  0  0
  182.1760  178.1760  139.2590 N   0  0  0  0  0  2  0  0  0  0  0  0
  181.6040  178.2280  137.9210 C   0  0  0  0  0  2  0  0  0  0  0  0
  181.7680  176.0420  136.6980 C   0  0  0  0  0  2  0  0  0  0  0  0
  179.6620  174.4240  137.5760 C   0  0  1  0  0  3  0  0  0  0  0  0
  180.0540  175.0300  138.8310 N   0  0  0  0  0  0  0  0  0  0  0  0
  180.6090  176.1890  138.8670 C   0  0  0  0  0  3  0  0  0  0  0  0
  181.0800  174.3550  136.4100 S   0  0  0  0  0  0  0  0  0  0  0  0
  180.9000  176.9230  137.5970 C   0  0  1  0  0  3  0  0  0  0  0  0
  179.1210  172.2480  136.5230 C   0  0  0  0  0  2  0  0  0  0  0  0
  180.2190  172.0110  137.5380 C   0  0  0  0  0  2  0  0  0  0  0  0
  179.1280  173.0250  137.8250 C   0  0  0  0  0  3  0  0  0  0  0  0
  1  2  1  1  0  0  0
  2  3  1  0  0  0  0
  3  4  1  0  0  0  0
  4  5  1  0  0  0  0
  5  6  1  0  0  0  0
  6  8  1  0  0  0  0
  7 20  1  1  0  0  0
  7 10  1  0  0  0  0
  8  9  1  6  0  0  0
  8  7  1  0  0  0  0
  8 10  1  0  0  0  0
 10 11  1  1  0  0  0
 12 14  1  0  0  0  0
 13 17  1  0  0  0  0
 13 16  1  0  0  0  0
 14 18  1  0  0  0  0
 15 12  1  0  0  0  0
 15 13  1  0  0  0  0
 17 20  1  0  0  0  0
 18 16  1  0  0  0  0
 19 17  2  0  0  0  0
 21  1  1  0  0  0  0
 22 21  1  0  0  0  0
 23 27  1  0  0  0  0
 23 22  1  0  0  0  0
 24 27  1  0  0  0  0
 24 29  2  0  0  0  0
 25 30  1  0  0  0  0
 26 31  1  0  0  0  0
 27 32  2  0  0  0  0
 29 25  1  0  0  0  0
 30 31  1  0  0  0  0
 30 28  2  0  0  0  0
 31 33  1  6  0  0  0
 32 25  1  0  0  0  0
 32 26  1  0  0  0  0
 33 34  1  6  0  0  0
 33 35  1  0  0  0  0
 35 36  1  0  0  0  0
 36 37  1  0  0  0  0
 38 48  1  0  0  0  0
 38  1  1  0  0  0  0
 39 47  1  0  0  0  0
 40 39  1  0  0  0  0
 41 40  2  0  0  0  0
 43 39  2  0  0  0  0
 43 48  1  0  0  0  0
 44 43  1  0  0  0  0
 45 42  1  0  0  0  0
 46 41  1  0  0  0  0
 46 44  2  0  0  0  0
 47 49  1  0  0  0  0
 47 42  2  0  0  0  0
 48 45  2  0  0  0  0
 49 50  2  0  0  0  0
 49 51  1  0  0  0  0
 51 52  1  0  0  0  0
 53 52  1  0  0  0  0
 54 59  1  0  0  0  0
 55 62  1  1  0  0  0
 55 56  1  0  0  0  0
 56 57  2  0  0  0  0
 58 54  1  0  0  0  0
 58 55  1  0  0  0  0
 59 53  1  1  0  0  0
 59 57  1  0  0  0  0
 60 61  1  0  0  0  0
 60 62  1  0  0  0  0
 61 62  1  0  0  0  0
M  END
>  <MODEL>
3

>  <REMARK>
 VINA RESULT:      -7.0      2.331      3.676
  Name = 
  21 active torsions:
  status: ('A' for Active; 'I' for Inactive)
    1  A    between atoms: C_2  and  C_40
    2  A    between atoms: C_2  and  S_58
    3  A    between atoms: C_3  and  C_55
    4  A    between atoms: C_6  and  C_39
    5  A    between atoms: C_6  and  C_49
    6  A    between atoms: N_8  and  C_25
    7  A    between atoms: N_8  and  C_57
    8  A    between atoms: N_10  and  C_41
    9  A    between atoms: N_10  and  N_50
   10  A    between atoms: C_11  and  N_53
   11  A    between atoms: N_13  and  C_25
   12  A    between atoms: N_13  and  C_35
   13  A    between atoms: C_14  and  C_34
   14  A    between atoms: C_25  and  C_59
   15  A    between atoms: C_27  and  C_51
   16  A    between atoms: C_30  and  C_49
   17  A    between atoms: C_31  and  C_48
   18  A    between atoms: C_35  and  C_51
   19  A    between atoms: C_40  and  C_59
   20  A    between atoms: C_41  and  C_60
   21  A    between atoms: C_48  and  S_58
                            x       y       z     vdW  Elec       q    Type
                         _______ _______ _______ _____ _____    ______ ____

>  <TORSDO>
F 21

$$$$
=
 OpenBabel11032419423D

 62 69  0  0  1  0  0  0  0  0999 V2000
  184.8120  179.1860  143.4800 C   0  0  2  0  0  3  0  0  0  0  0  0
  185.2620  179.6390  142.1030 C   0  0  0  0  0  2  0  0  0  0  0  0
  186.4290  178.8070  141.6050 C   0  0  0  0  0  2  0  0  0  0  0  0
  186.2240  178.5120  140.1330 C   0  0  0  0  0  2  0  0  0  0  0  0
  187.7960  178.0480  139.3530 S   0  0  0  0  0  0  0  0  0  0  0  0
  187.0330  178.0610  137.7030 C   0  0  0  0  0  2  0  0  0  0  0  0
  188.3620  175.8800  137.6130 C   0  0  1  0  0  3  0  0  0  0  0  0
  187.5870  176.9390  136.8410 C   0  0  2  0  0  0  0  0  0  0  0  0
  188.1010  177.2750  135.5800 O   0  0  0  0  0  1  0  0  0  0  0  0
  186.9790  175.5510  137.0010 C   0  0  1  0  0  3  0  0  0  0  0  0
  187.0380  174.7320  135.7110 C   0  0  0  0  0  1  0  0  0  0  0  0
  194.2690  174.9260  136.1090 C   0  0  0  0  0  2  0  0  0  0  0  0
  191.8610  175.2910  136.1730 N   0  0  0  0  0  0  0  0  0  0  0  0
  194.0530  173.9450  135.0480 N   0  0  0  0  0  2  0  0  0  0  0  0
  193.1550  175.9660  136.0830 C   0  0  0  0  0  2  0  0  0  0  0  0
  191.6210  174.1180  135.3330 C   0  0  0  0  0  2  0  0  0  0  0  0
  190.7710  175.9180  136.8610 C   0  0  0  0  0  0  0  0  0  0  0  0
  192.8410  173.1920  135.3720 C   0  0  0  0  0  2  0  0  0  0  0  0
  190.9680  176.9800  137.5130 O   0  0  0  0  0  0  0  0  0  0  0  0
  189.4650  175.3370  136.8260 N   0  0  0  0  0  2  0  0  0  0  0  0
  185.7130  178.1450  143.9520 N   0  0  0  0  0  2  0  0  0  0  0  0
  185.3870  177.8560  145.3430 C   0  0  0  0  0  2  0  0  0  0  0  0
  186.2470  178.6920  146.2880 C   0  0  0  0  0  2  0  0  0  0  0  0
  187.8850  177.7560  148.0700 C   0  0  0  0  0  3  0  0  0  0  0  0
  189.4250  177.0040  146.7740 N   0  0  0  0  0  0  0  0  0  0  0  0
  188.9330  177.9100  144.7110 N   0  0  0  0  0  2  0  0  0  0  0  0
  187.4430  177.9270  146.7540 C   0  0  0  0  0  0  0  0  0  0  0  0
  191.7810  176.9400  146.6100 O   0  0  0  0  0  0  0  0  0  0  0  0
  189.1340  177.2210  148.0450 N   0  0  0  0  0  0  0  0  0  0  0  0
  190.6480  177.1250  146.0860 C   0  0  0  0  0  0  0  0  0  0  0  0
  190.3850  177.6330  144.6950 C   0  0  1  0  0  3  0  0  0  0  0  0
  188.4790  177.4600  145.9850 C   0  0  0  0  0  0  0  0  0  0  0  0
  190.7440  176.5840  143.6380 C   0  0  1  0  0  3  0  0  0  0  0  0
  189.5330  176.1430  142.8210 C   0  0  0  0  0  1  0  0  0  0  0  0
  191.8430  177.1220  142.7300 C   0  0  0  0  0  2  0  0  0  0  0  0
  191.3740  177.2590  141.2880 C   0  0  0  0  0  2  0  0  0  0  0  0
  192.5460  177.5490  140.3680 C   0  0  0  0  0  1  0  0  0  0  0  0
  183.4560  178.6590  143.4090 N   0  0  0  0  0  2  0  0  0  0  0  0
  180.7420  178.7960  140.7720 C   0  0  0  0  0  0  0  0  0  0  0  0
  179.5370  179.3930  140.5560 N   0  0  0  0  0  0  0  0  0  0  0  0
  178.9810  180.2300  141.4730 C   0  0  0  0  0  3  0  0  0  0  0  0
  182.5470  177.3960  140.0730 N   0  0  0  0  0  0  0  0  0  0  0  0
  181.4350  179.0660  141.9750 C   0  0  0  0  0  0  0  0  0  0  0  0
  180.8650  179.9050  142.8840 N   0  0  0  0  0  0  0  0  0  0  0  0
  183.2230  177.6320  141.2270 C   0  0  0  0  0  3  0  0  0  0  0  0
  179.6600  180.4900  142.6610 C   0  0  0  0  0  3  0  0  0  0  0  0
  181.3250  177.9380  139.8130 C   0  0  0  0  0  0  0  0  0  0  0  0
  182.6910  178.4650  142.2090 C   0  0  0  0  0  0  0  0  0  0  0  0
  180.6730  177.5990  138.5280 C   0  0  0  0  0  0  0  0  0  0  0  0
  180.7520  178.4070  137.5610 O   0  0  0  0  0  0  0  0  0  0  0  0
  179.9840  176.3560  138.3510 N   0  0  0  0  0  2  0  0  0  0  0  0
  179.4340  175.9760  137.1190 N   0  0  0  0  0  2  0  0  0  0  0  0
  179.0920  174.5650  137.2110 C   0  0  0  0  0  2  0  0  0  0  0  0
  181.0160  174.6300  135.6000 C   0  0  0  0  0  2  0  0  0  0  0  0
  181.9750  172.0180  135.3240 C   0  0  1  0  0  3  0  0  0  0  0  0
  181.7140  172.0400  136.7470 N   0  0  0  0  0  0  0  0  0  0  0  0
  180.8130  172.8090  137.2470 C   0  0  0  0  0  3  0  0  0  0  0  0
  182.3320  173.7070  134.6960 S   0  0  0  0  0  0  0  0  0  0  0  0
  180.0400  173.7360  136.3640 C   0  0  1  0  0  3  0  0  0  0  0  0
  184.3560  171.5530  135.8240 C   0  0  0  0  0  2  0  0  0  0  0  0
  183.5440  170.3680  136.3000 C   0  0  0  0  0  2  0  0  0  0  0  0
  183.1470  171.0980  135.0310 C   0  0  0  0  0  3  0  0  0  0  0  0
  1  2  1  6  0  0  0
  1 21  1  0  0  0  0
  3  2  1  0  0  0  0
  4  3  1  0  0  0  0
  5  4  1  0  0  0  0
  6  5  1  0  0  0  0
  7 20  1  6  0  0  0
  8  9  1  6  0  0  0
  8 10  1  0  0  0  0
  8  7  1  0  0  0  0
  8  6  1  0  0  0  0
 10 11  1  6  0  0  0
 10  7  1  0  0  0  0
 13 17  1  0  0  0  0
 14 18  1  0  0  0  0
 14 12  1  0  0  0  0
 15 12  1  0  0  0  0
 15 13  1  0  0  0  0
 16 18  1  0  0  0  0
 16 13  1  0  0  0  0
 17 19  2  0  0  0  0
 20 17  1  0  0  0  0
 21 22  1  0  0  0  0
 22 23  1  0  0  0  0
 23 27  1  0  0  0  0
 25 29  1  0  0  0  0
 26 32  1  0  0  0  0
 27 24  1  0  0  0  0
 29 24  2  0  0  0  0
 30 28  2  0  0  0  0
 30 25  1  0  0  0  0
 31 33  1  6  0  0  0
 31 26  1  0  0  0  0
 31 30  1  0  0  0  0
 32 27  2  0  0  0  0
 32 25  1  0  0  0  0
 33 34  1  6  0  0  0
 35 33  1  0  0  0  0
 36 35  1  0  0  0  0
 37 36  1  0  0  0  0
 38  1  1  0  0  0  0
 39 43  1  0  0  0  0
 40 39  2  0  0  0  0
 40 41  1  0  0  0  0
 41 46  2  0  0  0  0
 42 45  1  0  0  0  0
 43 48  1  0  0  0  0
 43 44  2  0  0  0  0
 45 48  2  0  0  0  0
 46 44  1  0  0  0  0
 47 42  2  0  0  0  0
 47 39  1  0  0  0  0
 48 38  1  0  0  0  0
 49 47  1  0  0  0  0
 50 49  2  0  0  0  0
 51 49  1  0  0  0  0
 52 53  1  0  0  0  0
 52 51  1  0  0  0  0
 54 59  1  0  0  0  0
 55 62  1  1  0  0  0
 55 56  1  0  0  0  0
 56 57  2  0  0  0  0
 58 55  1  0  0  0  0
 58 54  1  0  0  0  0
 59 53  1  1  0  0  0
 59 57  1  0  0  0  0
 60 61  1  0  0  0  0
 62 60  1  0  0  0  0
 62 61  1  0  0  0  0
M  END
>  <MODEL>
4

>  <REMARK>
 VINA RESULT:      -6.5      3.354      9.867
  Name = 
  21 active torsions:
  status: ('A' for Active; 'I' for Inactive)
    1  A    between atoms: C_2  and  C_40
    2  A    between atoms: C_2  and  S_58
    3  A    between atoms: C_3  and  C_55
    4  A    between atoms: C_6  and  C_39
    5  A    between atoms: C_6  and  C_49
    6  A    between atoms: N_8  and  C_25
    7  A    between atoms: N_8  and  C_57
    8  A    between atoms: N_10  and  C_41
    9  A    between atoms: N_10  and  N_50
   10  A    between atoms: C_11  and  N_53
   11  A    between atoms: N_13  and  C_25
   12  A    between atoms: N_13  and  C_35
   13  A    between atoms: C_14  and  C_34
   14  A    between atoms: C_25  and  C_59
   15  A    between atoms: C_27  and  C_51
   16  A    between atoms: C_30  and  C_49
   17  A    between atoms: C_31  and  C_48
   18  A    between atoms: C_35  and  C_51
   19  A    between atoms: C_40  and  C_59
   20  A    between atoms: C_41  and  C_60
   21  A    between atoms: C_48  and  S_58
                            x       y       z     vdW  Elec       q    Type
                         _______ _______ _______ _____ _____    ______ ____

>  <TORSDO>
F 21

$$$$
=
 OpenBabel11032419423D

 62 69  0  0  1  0  0  0  0  0999 V2000
  184.7330  179.2450  143.5120 C   0  0  2  0  0  3  0  0  0  0  0  0
  185.3950  179.5760  142.1850 C   0  0  0  0  0  2  0  0  0  0  0  0
  186.6030  178.6920  141.9380 C   0  0  0  0  0  2  0  0  0  0  0  0
  186.9380  178.7280  140.4610 C   0  0  0  0  0  2  0  0  0  0  0  0
  188.5830  178.0190  140.1660 S   0  0  0  0  0  0  0  0  0  0  0  0
  188.6340  178.7200  138.4900 C   0  0  0  0  0  2  0  0  0  0  0  0
  187.8750  176.8610  136.9090 C   0  0  1  0  0  3  0  0  0  0  0  0
  189.0380  177.6660  137.4730 C   0  0  2  0  0  0  0  0  0  0  0  0
  190.2210  176.9490  137.7080 O   0  0  0  0  0  1  0  0  0  0  0  0
  188.6270  177.8810  136.0210 C   0  0  1  0  0  3  0  0  0  0  0  0
  189.6120  177.2540  135.0340 C   0  0  0  0  0  1  0  0  0  0  0  0
  186.9730  171.0040  135.1940 C   0  0  0  0  0  2  0  0  0  0  0  0
  187.6890  173.1020  136.2040 N   0  0  0  0  0  0  0  0  0  0  0  0
  188.3700  170.5780  135.1810 N   0  0  0  0  0  2  0  0  0  0  0  0
  186.7460  171.9920  136.3320 C   0  0  0  0  0  2  0  0  0  0  0  0
  189.0930  172.8020  135.9260 C   0  0  0  0  0  2  0  0  0  0  0  0
  187.3010  174.4220  136.6050 C   0  0  0  0  0  0  0  0  0  0  0  0
  189.1900  171.7370  134.8280 C   0  0  0  0  0  2  0  0  0  0  0  0
  186.1040  174.6530  136.9290 O   0  0  0  0  0  0  0  0  0  0  0  0
  188.2610  175.4810  136.6250 N   0  0  0  0  0  2  0  0  0  0  0  0
  185.4860  178.1820  144.1610 N   0  0  0  0  0  2  0  0  0  0  0  0
  185.0630  178.1100  145.5550 C   0  0  0  0  0  2  0  0  0  0  0  0
  185.9360  179.0020  146.4340 C   0  0  0  0  0  2  0  0  0  0  0  0
  187.5560  178.2560  148.3200 C   0  0  0  0  0  3  0  0  0  0  0  0
  189.0060  177.1960  147.1420 N   0  0  0  0  0  0  0  0  0  0  0  0
  188.5200  177.7850  144.9660 N   0  0  0  0  0  2  0  0  0  0  0  0
  187.0910  178.2410  147.0020 C   0  0  0  0  0  0  0  0  0  0  0  0
  191.3470  176.9400  146.9540 O   0  0  0  0  0  0  0  0  0  0  0  0
  188.7640  177.6380  148.3640 N   0  0  0  0  0  0  0  0  0  0  0  0
  190.2150  177.1170  146.4250 C   0  0  0  0  0  0  0  0  0  0  0  0
  189.9490  177.4070  144.9730 C   0  0  1  0  0  3  0  0  0  0  0  0
  188.0720  177.5820  146.3030 C   0  0  0  0  0  0  0  0  0  0  0  0
  190.2080  176.1780  144.0980 C   0  0  1  0  0  3  0  0  0  0  0  0
  189.1290  175.9800  143.0370 C   0  0  0  0  0  1  0  0  0  0  0  0
  191.5860  176.2830  143.4550 C   0  0  0  0  0  2  0  0  0  0  0  0
  191.8050  177.6400  142.7980 C   0  0  0  0  0  2  0  0  0  0  0  0
  191.9480  177.4910  141.2950 C   0  0  0  0  0  1  0  0  0  0  0  0
  183.3640  178.8040  143.2850 N   0  0  0  0  0  2  0  0  0  0  0  0
  180.9210  178.8470  140.3920 C   0  0  0  0  0  0  0  0  0  0  0  0
  179.6910  179.3430  140.0840 N   0  0  0  0  0  0  0  0  0  0  0  0
  178.9700  180.0700  140.9780 C   0  0  0  0  0  3  0  0  0  0  0  0
  182.9130  177.6620  139.8150 N   0  0  0  0  0  0  0  0  0  0  0  0
  181.4630  179.1080  141.6730 C   0  0  0  0  0  0  0  0  0  0  0  0
  180.7290  179.8370  142.5590 N   0  0  0  0  0  0  0  0  0  0  0  0
  183.4470  177.8900  141.0430 C   0  0  0  0  0  3  0  0  0  0  0  0
  179.5010  180.3210  142.2420 C   0  0  0  0  0  3  0  0  0  0  0  0
  181.6760  178.1040  139.4580 C   0  0  0  0  0  0  0  0  0  0  0  0
  182.7430  178.6120  142.0050 C   0  0  0  0  0  0  0  0  0  0  0  0
  181.1880  177.7830  138.0970 C   0  0  0  0  0  0  0  0  0  0  0  0
  181.6030  178.4590  137.1150 O   0  0  0  0  0  0  0  0  0  0  0  0
  180.2840  176.6970  137.8710 N   0  0  0  0  0  2  0  0  0  0  0  0
  179.8760  176.3200  136.5830 N   0  0  0  0  0  2  0  0  0  0  0  0
  179.5280  174.9080  136.6330 C   0  0  0  0  0  2  0  0  0  0  0  0
  181.6760  173.8030  137.3160 C   0  0  0  0  0  2  0  0  0  0  0  0
  182.4380  172.0860  135.2440 C   0  0  1  0  0  3  0  0  0  0  0  0
  181.0100  171.8480  135.2550 N   0  0  0  0  0  0  0  0  0  0  0  0
  180.1870  172.7490  135.6590 C   0  0  0  0  0  3  0  0  0  0  0  0
  183.0280  172.6190  136.9000 S   0  0  0  0  0  0  0  0  0  0  0  0
  180.6980  174.0590  136.1690 C   0  0  1  0  0  3  0  0  0  0  0  0
  183.3360  169.9100  136.0130 C   0  0  0  0  0  2  0  0  0  0  0  0
  182.2510  169.6290  134.9960 C   0  0  0  0  0  2  0  0  0  0  0  0
  183.1660  170.8250  134.8160 C   0  0  0  0  0  3  0  0  0  0  0  0
  1  2  1  6  0  0  0
  1 21  1  0  0  0  0
  3  2  1  0  0  0  0
  4  3  1  0  0  0  0
  5  4  1  0  0  0  0
  6  5  1  0  0  0  0
  7 20  1  6  0  0  0
  7  8  1  0  0  0  0
  8  9  1  1  0  0  0
  8  6  1  0  0  0  0
 10 11  1  6  0  0  0
 10  7  1  0  0  0  0
 10  8  1  0  0  0  0
 12 15  1  0  0  0  0
 13 15  1  0  0  0  0
 13 17  1  0  0  0  0
 14 12  1  0  0  0  0
 16 13  1  0  0  0  0
 17 20  1  0  0  0  0
 17 19  2  0  0  0  0
 18 14  1  0  0  0  0
 18 16  1  0  0  0  0
 21 22  1  0  0  0  0
 22 23  1  0  0  0  0
 23 27  1  0  0  0  0
 24 29  2  0  0  0  0
 25 29  1  0  0  0  0
 26 31  1  0  0  0  0
 26 32  1  0  0  0  0
 27 24  1  0  0  0  0
 30 28  2  0  0  0  0
 30 25  1  0  0  0  0
 31 33  1  6  0  0  0
 31 30  1  0  0  0  0
 32 27  2  0  0  0  0
 32 25  1  0  0  0  0
 33 34  1  6  0  0  0
 35 33  1  0  0  0  0
 36 35  1  0  0  0  0
 37 36  1  0  0  0  0
 38  1  1  0  0  0  0
 39 43  1  0  0  0  0
 40 39  2  0  0  0  0
 40 41  1  0  0  0  0
 41 46  2  0  0  0  0
 42 45  1  0  0  0  0
 43 48  1  0  0  0  0
 43 44  2  0  0  0  0
 45 48  2  0  0  0  0
 46 44  1  0  0  0  0
 47 42  2  0  0  0  0
 47 39  1  0  0  0  0
 48 38  1  0  0  0  0
 49 47  1  0  0  0  0
 50 49  2  0  0  0  0
 51 49  1  0  0  0  0
 52 53  1  0  0  0  0
 52 51  1  0  0  0  0
 55 62  1  1  0  0  0
 55 56  1  0  0  0  0
 55 58  1  0  0  0  0
 56 57  2  0  0  0  0
 57 59  1  0  0  0  0
 58 54  1  0  0  0  0
 59 53  1  1  0  0  0
 59 54  1  0  0  0  0
 61 60  1  0  0  0  0
 62 61  1  0  0  0  0
 62 60  1  0  0  0  0
M  END
>  <MODEL>
5

>  <REMARK>
 VINA RESULT:      -6.5      4.412      9.845
  Name = 
  21 active torsions:
  status: ('A' for Active; 'I' for Inactive)
    1  A    between atoms: C_2  and  C_40
    2  A    between atoms: C_2  and  S_58
    3  A    between atoms: C_3  and  C_55
    4  A    between atoms: C_6  and  C_39
    5  A    between atoms: C_6  and  C_49
    6  A    between atoms: N_8  and  C_25
    7  A    between atoms: N_8  and  C_57
    8  A    between atoms: N_10  and  C_41
    9  A    between atoms: N_10  and  N_50
   10  A    between atoms: C_11  and  N_53
   11  A    between atoms: N_13  and  C_25
   12  A    between atoms: N_13  and  C_35
   13  A    between atoms: C_14  and  C_34
   14  A    between atoms: C_25  and  C_59
   15  A    between atoms: C_27  and  C_51
   16  A    between atoms: C_30  and  C_49
   17  A    between atoms: C_31  and  C_48
   18  A    between atoms: C_35  and  C_51
   19  A    between atoms: C_40  and  C_59
   20  A    between atoms: C_41  and  C_60
   21  A    between atoms: C_48  and  S_58
                            x       y       z     vdW  Elec       q    Type
                         _______ _______ _______ _____ _____    ______ ____

>  <TORSDO>
F 21

$$$$
=
 OpenBabel11032419423D

 62 69  0  0  1  0  0  0  0  0999 V2000
  188.7220  177.6510  140.4400 C   0  0  2  0  0  3  0  0  0  0  0  0
  187.2660  178.0780  140.5050 C   0  0  0  0  0  2  0  0  0  0  0  0
  186.7860  178.6020  139.1660 C   0  0  0  0  0  2  0  0  0  0  0  0
  185.2730  178.6920  139.1930 C   0  0  0  0  0  2  0  0  0  0  0  0
  184.6850  178.9820  140.8860 S   0  0  0  0  0  0  0  0  0  0  0  0
  183.3750  177.7370  140.6910 C   0  0  0  0  0  2  0  0  0  0  0  0
  181.9290  178.5980  138.7680 C   0  0  1  0  0  3  0  0  0  0  0  0
  182.0680  178.3860  140.2700 C   0  0  2  0  0  0  0  0  0  0  0  0
  181.5530  179.4080  141.0810 O   0  0  0  0  0  1  0  0  0  0  0  0
  181.0680  177.5370  139.4940 C   0  0  1  0  0  3  0  0  0  0  0  0
  179.6200  177.9620  139.7440 C   0  0  0  0  0  1  0  0  0  0  0  0
  181.1650  184.3970  136.8080 C   0  0  0  0  0  2  0  0  0  0  0  0
  181.0790  182.2360  137.9270 N   0  0  0  0  0  0  0  0  0  0  0  0
  179.7060  184.4400  136.8620 N   0  0  0  0  0  2  0  0  0  0  0  0
  181.6990  183.5590  137.9640 C   0  0  0  0  0  2  0  0  0  0  0  0
  179.6340  182.1420  137.7220 C   0  0  0  0  0  2  0  0  0  0  0  0
  181.8220  181.0840  138.3500 C   0  0  0  0  0  0  0  0  0  0  0  0
  179.2070  183.0910  136.5970 C   0  0  0  0  0  2  0  0  0  0  0  0
  183.0510  181.1920  138.6110 O   0  0  0  0  0  0  0  0  0  0  0  0
  181.1790  179.8120  138.4600 N   0  0  0  0  0  2  0  0  0  0  0  0
  189.4850  178.4330  141.4010 N   0  0  0  0  0  2  0  0  0  0  0  0
  189.2400  177.8860  142.7310 C   0  0  0  0  0  2  0  0  0  0  0  0
  190.5540  177.6560  143.4740 C   0  0  0  0  0  2  0  0  0  0  0  0
  191.2110  177.1300  145.9290 C   0  0  0  0  0  3  0  0  0  0  0  0
  189.3410  177.5610  146.8960 N   0  0  0  0  0  0  0  0  0  0  0  0
  187.8250  177.7260  145.1660 N   0  0  0  0  0  2  0  0  0  0  0  0
  190.3430  177.6300  144.9540 C   0  0  0  0  0  0  0  0  0  0  0  0
  187.9210  176.6760  148.5640 O   0  0  0  0  0  0  0  0  0  0  0  0
  190.5460  177.0600  147.1110 N   0  0  0  0  0  0  0  0  0  0  0  0
  188.0900  177.1810  147.4200 C   0  0  0  0  0  0  0  0  0  0  0  0
  187.0380  177.3510  146.3600 C   0  0  1  0  0  3  0  0  0  0  0  0
  189.1680  177.8520  145.6270 C   0  0  0  0  0  0  0  0  0  0  0  0
  186.0340  178.4450  146.7350 C   0  0  1  0  0  3  0  0  0  0  0  0
  186.6800  179.5830  147.5200 C   0  0  0  0  0  1  0  0  0  0  0  0
  185.3520  178.9730  145.4790 C   0  0  0  0  0  2  0  0  0  0  0  0
  183.8680  178.6330  145.4510 C   0  0  0  0  0  2  0  0  0  0  0  0
  183.2230  179.1500  144.1780 C   0  0  0  0  0  1  0  0  0  0  0  0
  189.2450  177.8830  139.1000 N   0  0  0  0  0  2  0  0  0  0  0  0
  189.9440  175.4270  136.3040 C   0  0  0  0  0  0  0  0  0  0  0  0
  189.3750  174.9850  135.1480 N   0  0  0  0  0  0  0  0  0  0  0  0
  188.1810  175.4660  134.7110 C   0  0  0  0  0  3  0  0  0  0  0  0
  191.7220  175.4400  137.8990 N   0  0  0  0  0  0  0  0  0  0  0  0
  189.2760  176.4190  137.0600 C   0  0  0  0  0  0  0  0  0  0  0  0
  188.0810  176.8910  136.6100 N   0  0  0  0  0  0  0  0  0  0  0  0
  191.0930  176.3840  138.6450 C   0  0  0  0  0  3  0  0  0  0  0  0
  187.5210  176.4390  135.4590 C   0  0  0  0  0  3  0  0  0  0  0  0
  191.1910  174.9360  136.7510 C   0  0  0  0  0  0  0  0  0  0  0  0
  189.8580  176.8970  138.2550 C   0  0  0  0  0  0  0  0  0  0  0  0
  191.9590  173.8980  136.0250 C   0  0  0  0  0  0  0  0  0  0  0  0
  191.3910  172.8160  135.7090 O   0  0  0  0  0  0  0  0  0  0  0  0
  193.3220  174.1140  135.6450 N   0  0  0  0  0  2  0  0  0  0  0  0
  194.0410  173.1830  134.8830 N   0  0  0  0  0  2  0  0  0  0  0  0
  195.3500  173.7590  134.6140 C   0  0  0  0  0  2  0  0  0  0  0  0
  197.3870  172.7360  135.6680 C   0  0  0  0  0  2  0  0  0  0  0  0
  197.9280  174.1600  138.0120 C   0  0  1  0  0  3  0  0  0  0  0  0
  197.5570  175.2510  137.1370 N   0  0  0  0  0  0  0  0  0  0  0  0
  196.7540  175.0680  136.1490 C   0  0  0  0  0  3  0  0  0  0  0  0
  198.6060  172.7480  137.0510 S   0  0  0  0  0  0  0  0  0  0  0  0
  196.2180  173.7030  135.8580 C   0  0  1  0  0  3  0  0  0  0  0  0
  198.6130  176.0490  139.4620 C   0  0  0  0  0  2  0  0  0  0  0  0
  198.2780  174.8760  140.3580 C   0  0  0  0  0  2  0  0  0  0  0  0
  198.9560  174.6390  139.0220 C   0  0  0  0  0  3  0  0  0  0  0  0
  1  2  1  6  0  0  0
  1 21  1  0  0  0  0
  3  4  1  0  0  0  0
  3  2  1  0  0  0  0
  4  5  1  0  0  0  0
  6  5  1  0  0  0  0
  7 20  1  1  0  0  0
  7 10  1  0  0  0  0
  7  8  1  0  0  0  0
  8  6  1  0  0  0  0
  8  9  1  1  0  0  0
 10 11  1  1  0  0  0
 10  8  1  0  0  0  0
 12 14  1  0  0  0  0
 12 15  1  0  0  0  0
 13 15  1  0  0  0  0
 13 17  1  0  0  0  0
 16 13  1  0  0  0  0
 17 20  1  0  0  0  0
 17 19  2  0  0  0  0
 18 14  1  0  0  0  0
 18 16  1  0  0  0  0
 21 22  1  0  0  0  0
 22 23  1  0  0  0  0
 23 27  1  0  0  0  0
 24 29  2  0  0  0  0
 25 29  1  0  0  0  0
 25 30  1  0  0  0  0
 26 32  1  0  0  0  0
 26 31  1  0  0  0  0
 27 32  2  0  0  0  0
 27 24  1  0  0  0  0
 30 28  2  0  0  0  0
 31 33  1  1  0  0  0
 31 30  1  0  0  0  0
 32 25  1  0  0  0  0
 33 34  1  6  0  0  0
 35 33  1  0  0  0  0
 36 35  1  0  0  0  0
 37 36  1  0  0  0  0
 38  1  1  0  0  0  0
 39 47  2  0  0  0  0
 39 43  1  0  0  0  0
 40 39  1  0  0  0  0
 41 40  2  0  0  0  0
 41 46  1  0  0  0  0
 42 45  2  0  0  0  0
 43 48  2  0  0  0  0
 44 43  1  0  0  0  0
 46 44  2  0  0  0  0
 47 42  1  0  0  0  0
 48 45  1  0  0  0  0
 48 38  1  0  0  0  0
 49 47  1  0  0  0  0
 50 49  2  0  0  0  0
 51 49  1  0  0  0  0
 52 51  1  0  0  0  0
 53 52  1  0  0  0  0
 54 59  1  0  0  0  0
 54 58  1  0  0  0  0
 55 62  1  1  0  0  0
 56 55  1  0  0  0  0
 57 56  2  0  0  0  0
 58 55  1  0  0  0  0
 59 53  1  6  0  0  0
 59 57  1  0  0  0  0
 60 61  1  0  0  0  0
 62 60  1  0  0  0  0
 62 61  1  0  0  0  0
M  END
>  <MODEL>
6

>  <REMARK>
 VINA RESULT:      -6.0      2.532     12.147
  Name = 
  21 active torsions:
  status: ('A' for Active; 'I' for Inactive)
    1  A    between atoms: C_2  and  C_40
    2  A    between atoms: C_2  and  S_58
    3  A    between atoms: C_3  and  C_55
    4  A    between atoms: C_6  and  C_39
    5  A    between atoms: C_6  and  C_49
    6  A    between atoms: N_8  and  C_25
    7  A    between atoms: N_8  and  C_57
    8  A    between atoms: N_10  and  C_41
    9  A    between atoms: N_10  and  N_50
   10  A    between atoms: C_11  and  N_53
   11  A    between atoms: N_13  and  C_25
   12  A    between atoms: N_13  and  C_35
   13  A    between atoms: C_14  and  C_34
   14  A    between atoms: C_25  and  C_59
   15  A    between atoms: C_27  and  C_51
   16  A    between atoms: C_30  and  C_49
   17  A    between atoms: C_31  and  C_48
   18  A    between atoms: C_35  and  C_51
   19  A    between atoms: C_40  and  C_59
   20  A    between atoms: C_41  and  C_60
   21  A    between atoms: C_48  and  S_58
                            x       y       z     vdW  Elec       q    Type
                         _______ _______ _______ _____ _____    ______ ____

>  <TORSDO>
F 21

$$$$
=
 OpenBabel11032419423D

 62 69  0  0  1  0  0  0  0  0999 V2000
  185.7120  178.4080  140.1590 C   0  0  2  0  0  3  0  0  0  0  0  0
  185.2440  178.7160  141.5700 C   0  0  0  0  0  2  0  0  0  0  0  0
  183.9750  177.9560  141.9070 C   0  0  0  0  0  2  0  0  0  0  0  0
  183.0580  178.8680  142.6970 C   0  0  0  0  0  2  0  0  0  0  0  0
  184.0010  179.7930  143.9420 S   0  0  0  0  0  0  0  0  0  0  0  0
  183.8380  178.4350  145.1400 C   0  0  0  0  0  2  0  0  0  0  0  0
  186.3460  178.9090  145.2750 C   0  0  1  0  0  3  0  0  0  0  0  0
  185.1370  178.2230  145.8970 C   0  0  2  0  0  0  0  0  0  0  0  0
  185.3720  176.9560  146.4520 O   0  0  0  0  0  1  0  0  0  0  0  0
  185.7520  179.4220  146.6080 C   0  0  1  0  0  3  0  0  0  0  0  0
  186.5500  179.0230  147.8500 C   0  0  0  0  0  1  0  0  0  0  0  0
  191.5770  176.1240  143.5610 C   0  0  0  0  0  2  0  0  0  0  0  0
  189.4760  176.8150  144.5810 N   0  0  0  0  0  0  0  0  0  0  0  0
  192.0570  175.7570  144.8910 N   0  0  0  0  0  2  0  0  0  0  0  0
  190.0590  176.0070  143.5110 C   0  0  0  0  0  2  0  0  0  0  0  0
  190.0520  176.7240  145.9230 C   0  0  0  0  0  2  0  0  0  0  0  0
  188.2140  177.4660  144.3820 C   0  0  0  0  0  0  0  0  0  0  0  0
  191.5810  176.7660  145.8360 C   0  0  0  0  0  2  0  0  0  0  0  0
  187.6810  177.4640  143.2390 O   0  0  0  0  0  0  0  0  0  0  0  0
  187.5670  178.1320  145.4690 N   0  0  0  0  0  2  0  0  0  0  0  0
  187.1220  178.7480  140.0450 N   0  0  0  0  0  2  0  0  0  0  0  0
  187.5720  178.3900  138.7050 C   0  0  0  0  0  2  0  0  0  0  0  0
  188.0310  176.9350  138.6570 C   0  0  0  0  0  2  0  0  0  0  0  0
  190.0810  177.4810  140.1530 C   0  0  0  0  0  3  0  0  0  0  0  0
  191.6040  176.4250  139.0650 N   0  0  0  0  0  0  0  0  0  0  0  0
  190.6140  175.9070  137.0480 N   0  0  0  0  0  2  0  0  0  0  0  0
  189.4500  176.7980  139.1090 C   0  0  0  0  0  0  0  0  0  0  0  0
  193.8320  176.7120  138.3340 O   0  0  0  0  0  0  0  0  0  0  0  0
  191.4190  177.2630  140.0720 N   0  0  0  0  0  0  0  0  0  0  0  0
  192.6400  176.3600  138.1140 C   0  0  0  0  0  0  0  0  0  0  0  0
  192.0680  175.9390  136.7880 C   0  0  1  0  0  3  0  0  0  0  0  0
  190.4750  176.1770  138.4410 C   0  0  0  0  0  0  0  0  0  0  0  0
  192.5920  174.5640  136.3620 C   0  0  1  0  0  3  0  0  0  0  0  0
  191.6660  173.8710  135.3670 C   0  0  0  0  0  1  0  0  0  0  0  0
  193.9970  174.7030  135.7880 C   0  0  0  0  0  2  0  0  0  0  0  0
  194.8970  173.5460  136.2010 C   0  0  0  0  0  2  0  0  0  0  0  0
  196.2840  174.0470  136.5590 C   0  0  0  0  0  1  0  0  0  0  0  0
  184.9440  179.1920  139.2010 N   0  0  0  0  0  2  0  0  0  0  0  0
  181.5500  178.9650  137.5380 C   0  0  0  0  0  0  0  0  0  0  0  0
  180.4430  179.7320  137.3350 N   0  0  0  0  0  0  0  0  0  0  0  0
  180.3570  181.0010  137.8160 C   0  0  0  0  0  3  0  0  0  0  0  0
  182.7910  176.9460  137.2350 N   0  0  0  0  0  0  0  0  0  0  0  0
  182.6400  179.5110  138.2560 C   0  0  0  0  0  0  0  0  0  0  0  0
  182.5380  180.7830  138.7320 N   0  0  0  0  0  0  0  0  0  0  0  0
  183.8430  177.4470  137.9330 C   0  0  0  0  0  3  0  0  0  0  0  0
  181.4270  181.5360  138.5290 C   0  0  0  0  0  3  0  0  0  0  0  0
  181.6450  177.6510  137.0260 C   0  0  0  0  0  0  0  0  0  0  0  0
  183.8000  178.7340  138.4640 C   0  0  0  0  0  0  0  0  0  0  0  0
  180.5550  177.0000  136.2640 C   0  0  0  0  0  0  0  0  0  0  0  0
  179.9770  177.6390  135.3420 O   0  0  0  0  0  0  0  0  0  0  0  0
  180.1700  175.6470  136.5310 N   0  0  0  0  0  2  0  0  0  0  0  0
  179.2010  174.9820  135.7670 N   0  0  0  0  0  2  0  0  0  0  0  0
  179.7670  173.7020  135.3670 C   0  0  0  0  0  2  0  0  0  0  0  0
  181.2600  172.0560  136.5350 C   0  0  0  0  0  2  0  0  0  0  0  0
  183.8070  173.1980  136.7010 C   0  0  1  0  0  3  0  0  0  0  0  0
  183.4350  173.6090  135.3650 N   0  0  0  0  0  0  0  0  0  0  0  0
  182.2020  173.7690  135.0360 C   0  0  0  0  0  3  0  0  0  0  0  0
  182.9400  171.6500  137.1780 S   0  0  0  0  0  0  0  0  0  0  0  0
  181.1170  173.4910  136.0270 C   0  0  1  0  0  3  0  0  0  0  0  0
  185.9920  173.8850  135.7570 C   0  0  0  0  0  2  0  0  0  0  0  0
  185.9730  174.2850  137.2160 C   0  0  0  0  0  2  0  0  0  0  0  0
  185.3090  172.9940  136.7760 C   0  0  0  0  0  3  0  0  0  0  0  0
  1  2  1  1  0  0  0
  2  3  1  0  0  0  0
  3  4  1  0  0  0  0
  4  5  1  0  0  0  0
  5  6  1  0  0  0  0
  6  8  1  0  0  0  0
  7 20  1  1  0  0  0
  7  8  1  0  0  0  0
  7 10  1  0  0  0  0
  8  9  1  1  0  0  0
  8 10  1  0  0  0  0
 10 11  1  1  0  0  0
 12 14  1  0  0  0  0
 13 16  1  0  0  0  0
 14 18  1  0  0  0  0
 15 12  1  0  0  0  0
 15 13  1  0  0  0  0
 17 13  1  0  0  0  0
 17 20  1  0  0  0  0
 18 16  1  0  0  0  0
 19 17  2  0  0  0  0
 21  1  1  0  0  0  0
 22 21  1  0  0  0  0
 23 22  1  0  0  0  0
 23 27  1  0  0  0  0
 25 29  1  0  0  0  0
 26 32  1  0  0  0  0
 27 24  1  0  0  0  0
 29 24  2  0  0  0  0
 30 28  2  0  0  0  0
 30 25  1  0  0  0  0
 31 33  1  1  0  0  0
 31 26  1  0  0  0  0
 31 30  1  0  0  0  0
 32 25  1  0  0  0  0
 32 27  2  0  0  0  0
 33 34  1  6  0  0  0
 35 36  1  0  0  0  0
 35 33  1  0  0  0  0
 36 37  1  0  0  0  0
 38  1  1  0  0  0  0
 39 43  1  0  0  0  0
 40 39  2  0  0  0  0
 40 41  1  0  0  0  0
 41 46  2  0  0  0  0
 42 45  1  0  0  0  0
 43 48  1  0  0  0  0
 43 44  2  0  0  0  0
 45 48  2  0  0  0  0
 46 44  1  0  0  0  0
 47 42  2  0  0  0  0
 47 39  1  0  0  0  0
 48 38  1  0  0  0  0
 49 51  1  0  0  0  0
 49 47  1  0  0  0  0
 50 49  2  0  0  0  0
 52 51  1  0  0  0  0
 53 52  1  0  0  0  0
 54 58  1  0  0  0  0
 55 62  1  6  0  0  0
 55 58  1  0  0  0  0
 56 55  1  0  0  0  0
 57 56  2  0  0  0  0
 57 59  1  0  0  0  0
 59 53  1  6  0  0  0
 59 54  1  0  0  0  0
 60 62  1  0  0  0  0
 60 61  1  0  0  0  0
 62 61  1  0  0  0  0
M  END
>  <MODEL>
7

>  <REMARK>
 VINA RESULT:      -6.0      3.154      6.645
  Name = 
  21 active torsions:
  status: ('A' for Active; 'I' for Inactive)
    1  A    between atoms: C_2  and  C_40
    2  A    between atoms: C_2  and  S_58
    3  A    between atoms: C_3  and  C_55
    4  A    between atoms: C_6  and  C_39
    5  A    between atoms: C_6  and  C_49
    6  A    between atoms: N_8  and  C_25
    7  A    between atoms: N_8  and  C_57
    8  A    between atoms: N_10  and  C_41
    9  A    between atoms: N_10  and  N_50
   10  A    between atoms: C_11  and  N_53
   11  A    between atoms: N_13  and  C_25
   12  A    between atoms: N_13  and  C_35
   13  A    between atoms: C_14  and  C_34
   14  A    between atoms: C_25  and  C_59
   15  A    between atoms: C_27  and  C_51
   16  A    between atoms: C_30  and  C_49
   17  A    between atoms: C_31  and  C_48
   18  A    between atoms: C_35  and  C_51
   19  A    between atoms: C_40  and  C_59
   20  A    between atoms: C_41  and  C_60
   21  A    between atoms: C_48  and  S_58
                            x       y       z     vdW  Elec       q    Type
                         _______ _______ _______ _____ _____    ______ ____

>  <TORSDO>
F 21

$$$$
=
 OpenBabel11032419423D

 62 69  0  0  1  0  0  0  0  0999 V2000
  189.1530  178.1430  139.6150 C   0  0  2  0  0  3  0  0  0  0  0  0
  189.2360  176.8940  140.4740 C   0  0  0  0  0  2  0  0  0  0  0  0
  190.4780  176.9080  141.3440 C   0  0  0  0  0  2  0  0  0  0  0  0
  190.3320  178.0000  142.3840 C   0  0  0  0  0  2  0  0  0  0  0  0
  191.8780  178.2020  143.3150 S   0  0  0  0  0  0  0  0  0  0  0  0
  191.3130  177.0380  144.5920 C   0  0  0  0  0  2  0  0  0  0  0  0
  188.8700  176.7250  145.2750 C   0  0  1  0  0  3  0  0  0  0  0  0
  190.1170  177.5970  145.3430 C   0  0  2  0  0  0  0  0  0  0  0  0
  189.8980  178.9810  145.2880 O   0  0  0  0  0  1  0  0  0  0  0  0
  189.6590  176.8650  146.5990 C   0  0  1  0  0  3  0  0  0  0  0  0
  189.0140  177.8020  147.6210 C   0  0  0  0  0  1  0  0  0  0  0  0
  183.3920  178.6060  143.1520 C   0  0  0  0  0  2  0  0  0  0  0  0
  185.6120  178.3780  144.1260 N   0  0  0  0  0  0  0  0  0  0  0  0
  183.0430  179.5010  144.2530 N   0  0  0  0  0  2  0  0  0  0  0  0
  184.8920  178.6730  142.8890 C   0  0  0  0  0  2  0  0  0  0  0  0
  185.1800  179.0270  145.3640 C   0  0  0  0  0  2  0  0  0  0  0  0
  186.8680  177.6870  144.0770 C   0  0  0  0  0  0  0  0  0  0  0  0
  183.6520  178.9710  145.4720 C   0  0  0  0  0  2  0  0  0  0  0  0
  187.2770  177.2060  142.9860 O   0  0  0  0  0  0  0  0  0  0  0  0
  187.6500  177.5270  145.2630 N   0  0  0  0  0  2  0  0  0  0  0  0
  187.8990  178.8260  139.8980 N   0  0  0  0  0  2  0  0  0  0  0  0
  186.8030  177.9300  139.5490 C   0  0  0  0  0  2  0  0  0  0  0  0
  186.0880  178.4110  138.2890 C   0  0  0  0  0  2  0  0  0  0  0  0
  184.3200  176.6910  137.4810 C   0  0  0  0  0  3  0  0  0  0  0  0
  182.5330  177.6840  138.1430 N   0  0  0  0  0  0  0  0  0  0  0  0
  183.2270  179.8150  138.6850 N   0  0  0  0  0  2  0  0  0  0  0  0
  184.7140  177.8310  138.1890 C   0  0  0  0  0  0  0  0  0  0  0  0
  180.3490  178.1740  137.3860 O   0  0  0  0  0  0  0  0  0  0  0  0
  182.9630  176.6530  137.4350 N   0  0  0  0  0  0  0  0  0  0  0  0
  181.4260  178.5300  137.9390 C   0  0  0  0  0  0  0  0  0  0  0  0
  181.7890  179.9280  138.3590 C   0  0  1  0  0  3  0  0  0  0  0  0
  183.5330  178.4300  138.5520 C   0  0  0  0  0  0  0  0  0  0  0  0
  180.9720  180.3790  139.5730 C   0  0  1  0  0  3  0  0  0  0  0  0
  179.5230  180.6960  139.2150 C   0  0  0  0  0  1  0  0  0  0  0  0
  181.0400  179.3170  140.6640 C   0  0  0  0  0  2  0  0  0  0  0  0
  179.6660  179.0080  141.2440 C   0  0  0  0  0  2  0  0  0  0  0  0
  179.7740  178.6400  142.7120 C   0  0  0  0  0  1  0  0  0  0  0  0
  189.2000  177.7770  138.2050 N   0  0  0  0  0  2  0  0  0  0  0  0
  189.9720  174.3810  136.7200 C   0  0  0  0  0  0  0  0  0  0  0  0
  189.3190  173.2620  136.3000 N   0  0  0  0  0  0  0  0  0  0  0  0
  187.9650  173.1590  136.3660 C   0  0  0  0  0  3  0  0  0  0  0  0
  191.9700  175.6500  137.0450 N   0  0  0  0  0  0  0  0  0  0  0  0
  189.2170  175.4650  137.2270 C   0  0  0  0  0  0  0  0  0  0  0  0
  187.8620  175.3470  137.2880 N   0  0  0  0  0  0  0  0  0  0  0  0
  191.2650  176.6970  137.5460 C   0  0  0  0  0  3  0  0  0  0  0  0
  187.2220  174.2250  136.8710 C   0  0  0  0  0  3  0  0  0  0  0  0
  191.3780  174.4930  136.6370 C   0  0  0  0  0  0  0  0  0  0  0  0
  189.8770  176.6380  137.6550 C   0  0  0  0  0  0  0  0  0  0  0  0
  192.2460  173.4100  136.1220 C   0  0  0  0  0  0  0  0  0  0  0  0
  191.8090  172.6420  135.2220 O   0  0  0  0  0  0  0  0  0  0  0  0
  193.5840  173.2410  136.6020 N   0  0  0  0  0  2  0  0  0  0  0  0
  194.4530  172.2790  136.0690 N   0  0  0  0  0  2  0  0  0  0  0  0
  195.0940  171.6040  137.1870 C   0  0  0  0  0  2  0  0  0  0  0  0
  196.9660  173.2070  136.7070 C   0  0  0  0  0  2  0  0  0  0  0  0
  197.6790  174.4200  139.1240 C   0  0  1  0  0  3  0  0  0  0  0  0
  196.2390  174.4010  139.2680 N   0  0  0  0  0  0  0  0  0  0  0  0
  195.5220  173.5090  138.6800 C   0  0  0  0  0  3  0  0  0  0  0  0
  198.1610  174.4550  137.3510 S   0  0  0  0  0  0  0  0  0  0  0  0
  196.1660  172.4900  137.7950 C   0  0  1  0  0  3  0  0  0  0  0  0
  197.3550  175.9970  141.0060 C   0  0  0  0  0  2  0  0  0  0  0  0
  198.6440  175.2420  141.2520 C   0  0  0  0  0  2  0  0  0  0  0  0
  198.2500  175.6310  139.8390 C   0  0  0  0  0  3  0  0  0  0  0  0
  1 21  1  0  0  0  0
  1  2  1  1  0  0  0
  2  3  1  0  0  0  0
  3  4  1  0  0  0  0
  4  5  1  0  0  0  0
  5  6  1  0  0  0  0
  6  8  1  0  0  0  0
  7 20  1  1  0  0  0
  7  8  1  0  0  0  0
  7 10  1  0  0  0  0
  8  9  1  6  0  0  0
  8 10  1  0  0  0  0
 10 11  1  1  0  0  0
 12 14  1  0  0  0  0
 13 16  1  0  0  0  0
 14 18  1  0  0  0  0
 15 12  1  0  0  0  0
 15 13  1  0  0  0  0
 16 18  1  0  0  0  0
 17 13  1  0  0  0  0
 17 20  1  0  0  0  0
 19 17  2  0  0  0  0
 22 21  1  0  0  0  0
 23 22  1  0  0  0  0
 24 27  1  0  0  0  0
 25 32  1  0  0  0  0
 27 23  1  0  0  0  0
 27 32  2  0  0  0  0
 28 30  2  0  0  0  0
 29 24  2  0  0  0  0
 29 25  1  0  0  0  0
 30 25  1  0  0  0  0
 30 31  1  0  0  0  0
 31 26  1  0  0  0  0
 31 33  1  1  0  0  0
 32 26  1  0  0  0  0
 33 34  1  6  0  0  0
 33 35  1  0  0  0  0
 35 36  1  0  0  0  0
 36 37  1  0  0  0  0
 38  1  1  0  0  0  0
 39 43  1  0  0  0  0
 40 41  2  0  0  0  0
 40 39  1  0  0  0  0
 41 46  1  0  0  0  0
 42 45  2  0  0  0  0
 43 44  1  0  0  0  0
 43 48  2  0  0  0  0
 45 48  1  0  0  0  0
 46 44  2  0  0  0  0
 47 39  2  0  0  0  0
 47 42  1  0  0  0  0
 48 38  1  0  0  0  0
 49 51  1  0  0  0  0
 49 47  1  0  0  0  0
 50 49  2  0  0  0  0
 52 51  1  0  0  0  0
 52 53  1  0  0  0  0
 54 58  1  0  0  0  0
 54 59  1  0  0  0  0
 55 56  1  0  0  0  0
 55 62  1  1  0  0  0
 57 56  2  0  0  0  0
 58 55  1  0  0  0  0
 59 53  1  6  0  0  0
 59 57  1  0  0  0  0
 60 61  1  0  0  0  0
 62 60  1  0  0  0  0
 62 61  1  0  0  0  0
M  END
>  <MODEL>
8

>  <REMARK>
 VINA RESULT:      -5.9      2.604     11.401
  Name = 
  21 active torsions:
  status: ('A' for Active; 'I' for Inactive)
    1  A    between atoms: C_2  and  C_40
    2  A    between atoms: C_2  and  S_58
    3  A    between atoms: C_3  and  C_55
    4  A    between atoms: C_6  and  C_39
    5  A    between atoms: C_6  and  C_49
    6  A    between atoms: N_8  and  C_25
    7  A    between atoms: N_8  and  C_57
    8  A    between atoms: N_10  and  C_41
    9  A    between atoms: N_10  and  N_50
   10  A    between atoms: C_11  and  N_53
   11  A    between atoms: N_13  and  C_25
   12  A    between atoms: N_13  and  C_35
   13  A    between atoms: C_14  and  C_34
   14  A    between atoms: C_25  and  C_59
   15  A    between atoms: C_27  and  C_51
   16  A    between atoms: C_30  and  C_49
   17  A    between atoms: C_31  and  C_48
   18  A    between atoms: C_35  and  C_51
   19  A    between atoms: C_40  and  C_59
   20  A    between atoms: C_41  and  C_60
   21  A    between atoms: C_48  and  S_58
                            x       y       z     vdW  Elec       q    Type
                         _______ _______ _______ _____ _____    ______ ____

>  <TORSDO>
F 21

$$$$
=
 OpenBabel11032419423D

 62 69  0  0  1  0  0  0  0  0999 V2000
  185.7220  178.4490  139.9010 C   0  0  2  0  0  3  0  0  0  0  0  0
  185.0920  177.9220  138.6230 C   0  0  0  0  0  2  0  0  0  0  0  0
  183.8610  178.7240  138.2470 C   0  0  0  0  0  2  0  0  0  0  0  0
  182.9250  177.8350  137.4520 C   0  0  0  0  0  2  0  0  0  0  0  0
  183.7810  176.3230  136.9250 S   0  0  0  0  0  0  0  0  0  0  0  0
  182.2520  175.3510  137.0760 C   0  0  0  0  0  2  0  0  0  0  0  0
  180.3870  176.3770  138.4910 C   0  0  1  0  0  3  0  0  0  0  0  0
  181.6410  175.5140  138.4570 C   0  0  2  0  0  0  0  0  0  0  0  0
  182.5130  175.6600  139.5460 O   0  0  0  0  0  1  0  0  0  0  0  0
  180.2950  174.8500  138.7240 C   0  0  1  0  0  3  0  0  0  0  0  0
  180.1210  174.4440  140.1880 C   0  0  0  0  0  1  0  0  0  0  0  0
  178.9380  181.2250  142.0210 C   0  0  0  0  0  2  0  0  0  0  0  0
  179.9260  179.2670  140.9610 N   0  0  0  0  0  0  0  0  0  0  0  0
  179.2510  180.6320  143.3190 N   0  0  0  0  0  2  0  0  0  0  0  0
  179.9300  180.7290  140.9760 C   0  0  0  0  0  2  0  0  0  0  0  0
  179.9730  178.5520  142.2360 C   0  0  0  0  0  2  0  0  0  0  0  0
  180.1420  178.5610  139.7320 C   0  0  0  0  0  0  0  0  0  0  0  0
  178.9990  179.1950  143.2290 C   0  0  0  0  0  2  0  0  0  0  0  0
  180.1880  179.1960  138.6440 O   0  0  0  0  0  0  0  0  0  0  0  0
  180.2890  177.1390  139.7330 N   0  0  0  0  0  2  0  0  0  0  0  0
  184.8960  179.5270  140.4230 N   0  0  0  0  0  2  0  0  0  0  0  0
  184.0320  178.9770  141.4610 C   0  0  0  0  0  2  0  0  0  0  0  0
  184.7700  177.9200  142.2790 C   0  0  0  0  0  2  0  0  0  0  0  0
  183.5090  178.7320  144.3970 C   0  0  0  0  0  3  0  0  0  0  0  0
  185.0830  178.5270  145.8450 N   0  0  0  0  0  0  0  0  0  0  0  0
  186.9870  178.2120  144.5830 N   0  0  0  0  0  2  0  0  0  0  0  0
  184.6020  178.1520  143.7460 C   0  0  0  0  0  0  0  0  0  0  0  0
  186.0250  179.6940  147.6710 O   0  0  0  0  0  0  0  0  0  0  0  0
  183.8550  178.9910  145.6850 N   0  0  0  0  0  0  0  0  0  0  0  0
  186.1560  179.0350  146.6030 C   0  0  0  0  0  0  0  0  0  0  0  0
  187.4440  178.7800  145.8690 C   0  0  1  0  0  3  0  0  0  0  0  0
  185.5740  178.0800  144.7120 C   0  0  0  0  0  0  0  0  0  0  0  0
  188.3380  177.7970  146.6310 C   0  0  1  0  0  3  0  0  0  0  0  0
  187.5370  176.7000  147.3270 C   0  0  0  0  0  1  0  0  0  0  0  0
  189.3680  177.1950  145.6820 C   0  0  0  0  0  2  0  0  0  0  0  0
  190.7280  177.0320  146.3470 C   0  0  0  0  0  2  0  0  0  0  0  0
  191.7250  176.4120  145.3860 C   0  0  0  0  0  1  0  0  0  0  0  0
  187.0590  178.9540  139.6200 N   0  0  0  0  0  2  0  0  0  0  0  0
  190.2300  177.0060  138.9200 C   0  0  0  0  0  0  0  0  0  0  0  0
  191.2910  176.4800  139.5920 N   0  0  0  0  0  0  0  0  0  0  0  0
  191.4140  176.6020  140.9400 C   0  0  0  0  0  3  0  0  0  0  0  0
  188.9960  177.3880  136.9100 N   0  0  0  0  0  0  0  0  0  0  0  0
  189.2270  177.6870  139.6490 C   0  0  0  0  0  0  0  0  0  0  0  0
  189.3640  177.8020  140.9990 N   0  0  0  0  0  0  0  0  0  0  0  0
  188.0280  178.0550  137.5900 C   0  0  0  0  0  3  0  0  0  0  0  0
  190.4290  177.2780  141.6580 C   0  0  0  0  0  3  0  0  0  0  0  0
  190.0960  176.8670  137.5200 C   0  0  0  0  0  0  0  0  0  0  0  0
  188.1130  178.2270  138.9700 C   0  0  0  0  0  0  0  0  0  0  0  0
  191.0960  176.1720  136.6780 C   0  0  0  0  0  0  0  0  0  0  0  0
  192.3250  176.3260  136.9220 O   0  0  0  0  0  0  0  0  0  0  0  0
  190.6940  175.3030  135.6140 N   0  0  0  0  0  2  0  0  0  0  0  0
  191.6200  174.5690  134.8590 N   0  0  0  0  0  2  0  0  0  0  0  0
  191.7950  173.2830  135.5170 C   0  0  0  0  0  2  0  0  0  0  0  0
  193.4670  171.7150  136.5420 C   0  0  0  0  0  2  0  0  0  0  0  0
  195.9970  172.8670  136.2440 C   0  0  1  0  0  3  0  0  0  0  0  0
  195.4200  173.1930  134.9580 N   0  0  0  0  0  0  0  0  0  0  0  0
  194.1500  173.3320  134.8130 C   0  0  0  0  0  3  0  0  0  0  0  0
  195.2290  171.3510  136.9420 S   0  0  0  0  0  0  0  0  0  0  0  0
  193.2330  173.1150  135.9740 C   0  0  1  0  0  3  0  0  0  0  0  0
  198.0290  173.6080  135.0360 C   0  0  0  0  0  2  0  0  0  0  0  0
  198.2140  173.9430  136.5010 C   0  0  0  0  0  2  0  0  0  0  0  0
  197.4950  172.6690  136.1000 C   0  0  0  0  0  3  0  0  0  0  0  0
  1  2  1  6  0  0  0
  1 21  1  0  0  0  0
  3  2  1  0  0  0  0
  4  3  1  0  0  0  0
  5  6  1  0  0  0  0
  5  4  1  0  0  0  0
  6  8  1  0  0  0  0
  7 10  1  0  0  0  0
  7 20  1  1  0  0  0
  8  7  1  0  0  0  0
  8 10  1  0  0  0  0
  8  9  1  1  0  0  0
 10 11  1  1  0  0  0
 12 14  1  0  0  0  0
 13 15  1  0  0  0  0
 13 16  1  0  0  0  0
 15 12  1  0  0  0  0
 16 18  1  0  0  0  0
 17 20  1  0  0  0  0
 17 13  1  0  0  0  0
 18 14  1  0  0  0  0
 19 17  2  0  0  0  0
 21 22  1  0  0  0  0
 22 23  1  0  0  0  0
 23 27  1  0  0  0  0
 24 29  2  0  0  0  0
 25 30  1  0  0  0  0
 26 32  1  0  0  0  0
 26 31  1  0  0  0  0
 27 24  1  0  0  0  0
 27 32  2  0  0  0  0
 29 25  1  0  0  0  0
 30 28  2  0  0  0  0
 31 30  1  0  0  0  0
 31 33  1  1  0  0  0
 32 25  1  0  0  0  0
 33 34  1  6  0  0  0
 35 36  1  0  0  0  0
 35 33  1  0  0  0  0
 37 36  1  0  0  0  0
 38  1  1  0  0  0  0
 39 40  2  0  0  0  0
 39 43  1  0  0  0  0
 40 41  1  0  0  0  0
 41 46  2  0  0  0  0
 42 47  2  0  0  0  0
 42 45  1  0  0  0  0
 43 44  2  0  0  0  0
 44 46  1  0  0  0  0
 45 48  2  0  0  0  0
 47 39  1  0  0  0  0
 48 38  1  0  0  0  0
 48 43  1  0  0  0  0
 49 50  2  0  0  0  0
 49 47  1  0  0  0  0
 51 49  1  0  0  0  0
 52 53  1  0  0  0  0
 52 51  1  0  0  0  0
 54 58  1  0  0  0  0
 55 62  1  6  0  0  0
 55 58  1  0  0  0  0
 56 55  1  0  0  0  0
 57 56  2  0  0  0  0
 57 59  1  0  0  0  0
 59 53  1  6  0  0  0
 59 54  1  0  0  0  0
 60 62  1  0  0  0  0
 60 61  1  0  0  0  0
 62 61  1  0  0  0  0
M  END
>  <MODEL>
9

>  <REMARK>
 VINA RESULT:      -5.7      2.934     11.732
  Name = 
  21 active torsions:
  status: ('A' for Active; 'I' for Inactive)
    1  A    between atoms: C_2  and  C_40
    2  A    between atoms: C_2  and  S_58
    3  A    between atoms: C_3  and  C_55
    4  A    between atoms: C_6  and  C_39
    5  A    between atoms: C_6  and  C_49
    6  A    between atoms: N_8  and  C_25
    7  A    between atoms: N_8  and  C_57
    8  A    between atoms: N_10  and  C_41
    9  A    between atoms: N_10  and  N_50
   10  A    between atoms: C_11  and  N_53
   11  A    between atoms: N_13  and  C_25
   12  A    between atoms: N_13  and  C_35
   13  A    between atoms: C_14  and  C_34
   14  A    between atoms: C_25  and  C_59
   15  A    between atoms: C_27  and  C_51
   16  A    between atoms: C_30  and  C_49
   17  A    between atoms: C_31  and  C_48
   18  A    between atoms: C_35  and  C_51
   19  A    between atoms: C_40  and  C_59
   20  A    between atoms: C_41  and  C_60
   21  A    between atoms: C_48  and  S_58
                            x       y       z     vdW  Elec       q    Type
                         _______ _______ _______ _____ _____    ______ ____

>  <TORSDO>
F 21

$$$$
