=
 OpenBabel11042410273D

 29 31  0  0  1  0  0  0  0  0999 V2000
  184.0830  178.7330  142.9350 C   0  0  0  0  0  0  0  0  0  0  0  0
  188.7800  179.1420  140.0180 O   0  0  0  0  0  1  0  0  0  0  0  0
  186.7530  178.2740  142.5100 C   0  0  0  0  0  0  0  0  0  0  0  0
  186.3340  178.3180  143.8090 N   0  0  0  0  0  2  0  0  0  0  0  0
  184.5180  178.6860  141.6120 C   0  0  0  0  0  3  0  0  0  0  0  0
  184.3080  178.6430  145.1930 C   0  0  0  0  0  0  0  0  0  0  0  0
  182.9740  178.8810  144.8630 C   0  0  0  0  0  3  0  0  0  0  0  0
  186.5870  178.3550  140.2140 N   0  0  0  0  0  0  0  0  0  0  0  0
  188.0010  178.0860  140.4930 C   0  0  2  0  0  3  0  0  0  0  0  0
  185.8930  178.4540  141.4410 C   0  0  0  0  0  0  0  0  0  0  0  0
  182.8290  178.9370  143.4690 C   0  0  0  0  0  3  0  0  0  0  0  0
  185.0120  178.5490  144.0190 C   0  0  0  0  0  0  0  0  0  0  0  0
  188.1380  178.0020  142.0350 C   0  0  2  0  0  3  0  0  0  0  0  0
  185.3800  179.3480  138.4800 O   0  0  0  0  0  1  0  0  0  0  0  0
  185.9430  178.1480  138.9210 C   0  0  1  0  0  3  0  0  0  0  0  0
  186.9440  177.6240  137.8900 C   0  0  1  0  0  3  0  0  0  0  0  0
  187.6090  175.6100  137.2440 C   0  0  0  0  0  1  0  0  0  0  0  0
  186.4790  176.4250  137.3390 O   0  0  0  0  0  0  0  0  0  0  0  0
  188.4040  179.3270  136.9400 N   0  0  0  0  0  1  0  0  0  0  0  0
  187.1290  178.6500  136.7810 C   0  0  0  0  0  2  0  0  0  0  0  0
  188.5370  176.6110  142.4360 C   0  0  0  0  0  3  0  0  0  0  0  0
  189.3090  176.3340  143.4940 C   0  0  0  0  0  3  0  0  0  0  0  0
  189.8720  177.3800  144.4050 C   0  0  0  0  0  2  0  0  0  0  0  0
  189.0350  177.4840  145.6650 C   0  0  0  0  0  2  0  0  0  0  0  0
  189.8290  176.9580  146.8410 C   0  0  0  0  0  2  0  0  0  0  0  0
  191.2810  176.8020  146.4390 C   0  0  0  0  0  2  0  0  0  0  0  0
  192.0770  176.7600  147.5840 O   0  0  0  0  0  1  0  0  0  0  0  0
  185.6080  179.4140  147.0660 N   0  0  0  0  0  2  0  0  0  0  0  0
  184.8220  178.5210  146.5620 C   0  0  0  0  0  3  0  0  0  0  0  0
  1 11  1  0  0  0  0
  1 12  1  0  0  0  0
  3  4  1  0  0  0  0
  4 12  1  0  0  0  0
  5  1  2  0  0  0  0
  6 29  1  0  0  0  0
  7  6  1  0  0  0  0
  8  9  1  0  0  0  0
  8 10  1  0  0  0  0
  9  2  1  1  0  0  0
  9 13  1  0  0  0  0
 10  5  1  0  0  0  0
 10  3  2  0  0  0  0
 11  7  2  0  0  0  0
 12  6  2  0  0  0  0
 13 21  1  6  0  0  0
 13  3  1  0  0  0  0
 15 14  1  6  0  0  0
 15  8  1  0  0  0  0
 16 20  1  6  0  0  0
 16 15  1  0  0  0  0
 17 18  1  0  0  0  0
 18 16  1  0  0  0  0
 20 19  1  0  0  0  0
 21 22  2  0  0  0  0
 22 23  1  0  0  0  0
 23 24  1  0  0  0  0
 24 25  1  0  0  0  0
 26 25  1  0  0  0  0
 26 27  1  0  0  0  0
 29 28  2  0  0  0  0
M  END
>  <MODEL>
1

>  <REMARK>
 VINA RESULT:      -7.7      0.000      0.000
  Name = 
  10 active torsions:
  status: ('A' for Active; 'I' for Inactive)
    1  A    between atoms: C_1  and  C_26
    2  A    between atoms: C_8  and  C_27
    3  A    between atoms: C_9  and  C_10
    4  A    between atoms: C_9  and  N_14
    5  A    between atoms: C_10  and  O_25
    6  A    between atoms: C_10  and  C_28
    7  A    between atoms: C_11  and  C_16
    8  A    between atoms: C_21  and  C_24
    9  A    between atoms: C_21  and  C_29
   10  A    between atoms: C_26  and  C_29
                            x       y       z     vdW  Elec       q    Type
                         _______ _______ _______ _____ _____    ______ ____

>  <TORSDO>
F 10

$$$$
=
 OpenBabel11042410273D

 29 31  0  0  1  0  0  0  0  0999 V2000
  185.3200  178.3720  144.9500 C   0  0  0  0  0  0  0  0  0  0  0  0
  189.6650  175.5710  142.9470 O   0  0  0  0  0  1  0  0  0  0  0  0
  187.0380  177.6140  142.9520 C   0  0  0  0  0  0  0  0  0  0  0  0
  185.7760  177.9740  142.5760 N   0  0  0  0  0  0  0  0  0  0  0  0
  186.6100  178.0050  145.3260 C   0  0  0  0  0  3  0  0  0  0  0  0
  183.6160  178.7560  143.4980 C   0  0  0  0  0  0  0  0  0  0  0  0
  183.1960  179.0310  144.7990 C   0  0  0  0  0  3  0  0  0  0  0  0
  188.8030  177.2090  144.3750 N   0  0  0  0  0  0  0  0  0  0  0  0
  189.3120  176.9180  143.0320 C   0  0  2  0  0  3  0  0  0  0  0  0
  187.4540  177.6190  144.2710 C   0  0  0  0  0  0  0  0  0  0  0  0
  184.2450  178.7970  145.7000 C   0  0  0  0  0  2  0  0  0  0  0  0
  184.9240  178.3460  143.5660 C   0  0  0  0  0  0  0  0  0  0  0  0
  188.1500  177.2070  142.0470 C   0  0  2  0  0  3  0  0  0  0  0  0
  189.2370  176.5820  146.5820 O   0  0  0  0  0  1  0  0  0  0  0  0
  189.6410  177.4320  145.5500 C   0  0  1  0  0  3  0  0  0  0  0  0
  191.1160  177.1990  145.2200 C   0  0  1  0  0  3  0  0  0  0  0  0
  191.8660  178.9330  144.0590 C   0  0  0  0  0  1  0  0  0  0  0  0
  191.8300  178.3950  145.3470 O   0  0  0  0  0  0  0  0  0  0  0  0
  192.1010  176.7940  147.4110 N   0  0  0  0  0  1  0  0  0  0  0  0
  191.6990  176.1600  146.1680 C   0  0  0  0  0  2  0  0  0  0  0  0
  188.5120  178.3580  141.1550 C   0  0  0  0  0  3  0  0  0  0  0  0
  189.1320  178.2200  139.9760 C   0  0  0  0  0  3  0  0  0  0  0  0
  189.5440  176.8970  139.4080 C   0  0  0  0  0  2  0  0  0  0  0  0
  191.0550  176.7770  139.4040 C   0  0  0  0  0  2  0  0  0  0  0  0
  191.5270  176.4060  138.0150 C   0  0  0  0  0  2  0  0  0  0  0  0
  193.0360  176.5080  137.9510 C   0  0  0  0  0  2  0  0  0  0  0  0
  193.5220  176.9720  139.1720 O   0  0  0  0  0  1  0  0  0  0  0  0
  181.4900  178.9400  142.3850 N   0  0  0  0  0  2  0  0  0  0  0  0
  182.7780  178.8930  142.3020 C   0  0  0  0  0  3  0  0  0  0  0  0
  1  5  1  0  0  0  0
  1 11  1  0  0  0  0
  3 10  1  0  0  0  0
  4  3  2  0  0  0  0
  4 12  1  0  0  0  0
  6 12  1  0  0  0  0
  6  7  2  0  0  0  0
  7 11  1  0  0  0  0
  8 15  1  0  0  0  0
  9  2  1  1  0  0  0
  9  8  1  0  0  0  0
 10  8  1  0  0  0  0
 10  5  2  0  0  0  0
 12  1  2  0  0  0  0
 13 21  1  6  0  0  0
 13  3  1  0  0  0  0
 13  9  1  0  0  0  0
 15 14  1  1  0  0  0
 16 18  1  0  0  0  0
 16 15  1  0  0  0  0
 16 20  1  1  0  0  0
 17 18  1  0  0  0  0
 20 19  1  0  0  0  0
 22 21  2  0  0  0  0
 23 22  1  0  0  0  0
 24 23  1  0  0  0  0
 25 24  1  0  0  0  0
 26 25  1  0  0  0  0
 26 27  1  0  0  0  0
 29 28  2  0  0  0  0
 29  6  1  0  0  0  0
M  END
>  <MODEL>
2

>  <REMARK>
 VINA RESULT:      -7.6      2.992      6.214
  Name = 
  10 active torsions:
  status: ('A' for Active; 'I' for Inactive)
    1  A    between atoms: C_1  and  C_26
    2  A    between atoms: C_8  and  C_27
    3  A    between atoms: C_9  and  C_10
    4  A    between atoms: C_9  and  N_14
    5  A    between atoms: C_10  and  O_25
    6  A    between atoms: C_10  and  C_28
    7  A    between atoms: C_11  and  C_16
    8  A    between atoms: C_21  and  C_24
    9  A    between atoms: C_21  and  C_29
   10  A    between atoms: C_26  and  C_29
                            x       y       z     vdW  Elec       q    Type
                         _______ _______ _______ _____ _____    ______ ____

>  <TORSDO>
F 10

$$$$
=
 OpenBabel11042410273D

 29 31  0  0  1  0  0  0  0  0999 V2000
  185.4000  178.3380  145.0490 C   0  0  0  0  0  0  0  0  0  0  0  0
  189.7180  175.5540  142.9660 O   0  0  0  0  0  1  0  0  0  0  0  0
  187.0940  177.5990  143.0240 C   0  0  0  0  0  0  0  0  0  0  0  0
  185.8270  177.9630  142.6670 N   0  0  0  0  0  0  0  0  0  0  0  0
  186.6950  177.9660  145.4060 C   0  0  0  0  0  3  0  0  0  0  0  0
  183.6790  178.7370  143.6230 C   0  0  0  0  0  0  0  0  0  0  0  0
  183.2750  179.0000  144.9320 C   0  0  0  0  0  3  0  0  0  0  0  0
  188.8750  177.1780  144.4210 N   0  0  0  0  0  0  0  0  0  0  0  0
  189.3680  176.9000  143.0680 C   0  0  2  0  0  3  0  0  0  0  0  0
  187.5260  177.5900  144.3380 C   0  0  0  0  0  0  0  0  0  0  0  0
  184.3350  178.7550  145.8170 C   0  0  0  0  0  2  0  0  0  0  0  0
  184.9870  178.3260  143.6710 C   0  0  0  0  0  0  0  0  0  0  0  0
  188.1930  177.2000  142.1010 C   0  0  2  0  0  3  0  0  0  0  0  0
  189.3300  176.5350  146.6190 O   0  0  0  0  0  1  0  0  0  0  0  0
  189.7280  177.3890  145.5870 C   0  0  1  0  0  3  0  0  0  0  0  0
  191.1970  177.1480  145.2390 C   0  0  1  0  0  3  0  0  0  0  0  0
  191.8120  178.9250  144.0630 C   0  0  0  0  0  1  0  0  0  0  0  0
  191.9130  178.3470  145.3300 O   0  0  0  0  0  0  0  0  0  0  0  0
  192.1440  176.7750  147.4520 N   0  0  0  0  0  1  0  0  0  0  0  0
  191.7960  176.1300  146.1990 C   0  0  0  0  0  2  0  0  0  0  0  0
  188.5460  178.3600  141.2160 C   0  0  0  0  0  3  0  0  0  0  0  0
  189.0240  178.2290  139.9720 C   0  0  0  0  0  3  0  0  0  0  0  0
  189.2710  176.9060  139.3160 C   0  0  0  0  0  2  0  0  0  0  0  0
  188.4680  176.8000  138.0340 C   0  0  0  0  0  2  0  0  0  0  0  0
  188.1970  178.1860  137.4930 C   0  0  0  0  0  2  0  0  0  0  0  0
  186.7390  178.2980  137.0990 C   0  0  0  0  0  2  0  0  0  0  0  0
  185.9950  178.7330  138.1950 O   0  0  0  0  0  1  0  0  0  0  0  0
  181.5480  179.0310  142.5450 N   0  0  0  0  0  2  0  0  0  0  0  0
  182.8270  178.8870  142.4380 C   0  0  0  0  0  3  0  0  0  0  0  0
  1  5  1  0  0  0  0
  1 11  1  0  0  0  0
  3 10  1  0  0  0  0
  4  3  2  0  0  0  0
  4 12  1  0  0  0  0
  6 12  1  0  0  0  0
  6  7  2  0  0  0  0
  7 11  1  0  0  0  0
  8 15  1  0  0  0  0
  9  2  1  1  0  0  0
  9  8  1  0  0  0  0
 10  8  1  0  0  0  0
 10  5  2  0  0  0  0
 12  1  2  0  0  0  0
 13 21  1  6  0  0  0
 13  3  1  0  0  0  0
 13  9  1  0  0  0  0
 15 14  1  1  0  0  0
 16 18  1  0  0  0  0
 16 15  1  0  0  0  0
 16 20  1  1  0  0  0
 17 18  1  0  0  0  0
 20 19  1  0  0  0  0
 22 21  2  0  0  0  0
 23 22  1  0  0  0  0
 24 23  1  0  0  0  0
 25 24  1  0  0  0  0
 26 25  1  0  0  0  0
 26 27  1  0  0  0  0
 29 28  2  0  0  0  0
 29  6  1  0  0  0  0
M  END
>  <MODEL>
3

>  <REMARK>
 VINA RESULT:      -7.5      2.343      6.553
  Name = 
  10 active torsions:
  status: ('A' for Active; 'I' for Inactive)
    1  A    between atoms: C_1  and  C_26
    2  A    between atoms: C_8  and  C_27
    3  A    between atoms: C_9  and  C_10
    4  A    between atoms: C_9  and  N_14
    5  A    between atoms: C_10  and  O_25
    6  A    between atoms: C_10  and  C_28
    7  A    between atoms: C_11  and  C_16
    8  A    between atoms: C_21  and  C_24
    9  A    between atoms: C_21  and  C_29
   10  A    between atoms: C_26  and  C_29
                            x       y       z     vdW  Elec       q    Type
                         _______ _______ _______ _____ _____    ______ ____

>  <TORSDO>
F 10

$$$$
=
 OpenBabel11042410273D

 29 31  0  0  1  0  0  0  0  0999 V2000
  186.3460  178.3980  139.6630 C   0  0  0  0  0  0  0  0  0  0  0  0
  191.8030  177.8750  140.4880 O   0  0  0  0  0  1  0  0  0  0  0  0
  188.5520  177.8500  141.1960 C   0  0  0  0  0  0  0  0  0  0  0  0
  187.4450  178.3120  141.8500 N   0  0  0  0  0  2  0  0  0  0  0  0
  187.4780  177.9250  139.0030 C   0  0  0  0  0  3  0  0  0  0  0  0
  185.1160  179.0520  141.4560 C   0  0  0  0  0  0  0  0  0  0  0  0
  184.3480  179.1570  140.2970 C   0  0  0  0  0  3  0  0  0  0  0  0
  189.8470  177.1750  139.4160 N   0  0  0  0  0  0  0  0  0  0  0  0
  190.7020  177.0250  140.5980 C   0  0  2  0  0  3  0  0  0  0  0  0
  188.5860  177.6630  139.8260 C   0  0  0  0  0  0  0  0  0  0  0  0
  185.1030  178.7530  139.1850 C   0  0  0  0  0  3  0  0  0  0  0  0
  186.3540  178.5870  141.0900 C   0  0  0  0  0  0  0  0  0  0  0  0
  189.8450  177.4500  141.8180 C   0  0  2  0  0  3  0  0  0  0  0  0
  190.2850  177.5400  137.1520 O   0  0  0  0  0  1  0  0  0  0  0  0
  190.1050  176.5510  138.1220 C   0  0  1  0  0  3  0  0  0  0  0  0
  191.3350  175.6450  138.1880 C   0  0  1  0  0  3  0  0  0  0  0  0
  191.1870  174.0740  136.6300 C   0  0  0  0  0  1  0  0  0  0  0  0
  190.9600  174.3120  137.9870 O   0  0  0  0  0  0  0  0  0  0  0  0
  193.5330  176.5940  137.7360 N   0  0  0  0  0  1  0  0  0  0  0  0
  192.3360  176.0540  137.1160 C   0  0  0  0  0  2  0  0  0  0  0  0
  189.6210  176.2710  142.7190 C   0  0  0  0  0  3  0  0  0  0  0  0
  189.4530  176.3670  144.0440 C   0  0  0  0  0  3  0  0  0  0  0  0
  189.4750  177.6660  144.7880 C   0  0  0  0  0  2  0  0  0  0  0  0
  188.6200  177.5690  146.0360 C   0  0  0  0  0  2  0  0  0  0  0  0
  187.2010  177.9770  145.7070 C   0  0  0  0  0  2  0  0  0  0  0  0
  186.4590  178.3020  146.9870 C   0  0  0  0  0  2  0  0  0  0  0  0
  185.5720  179.3520  146.7560 O   0  0  0  0  0  1  0  0  0  0  0  0
  184.2580  178.4730  143.6290 N   0  0  0  0  0  2  0  0  0  0  0  0
  184.6460  179.3890  142.8040 C   0  0  0  0  0  3  0  0  0  0  0  0
  1 12  1  0  0  0  0
  3 13  1  0  0  0  0
  3  4  1  0  0  0  0
  5  1  2  0  0  0  0
  5 10  1  0  0  0  0
  6 29  1  0  0  0  0
  7  6  1  0  0  0  0
  8 10  1  0  0  0  0
  8  9  1  0  0  0  0
  9  2  1  6  0  0  0
  9 13  1  0  0  0  0
 10  3  2  0  0  0  0
 11  1  1  0  0  0  0
 11  7  2  0  0  0  0
 12  6  2  0  0  0  0
 12  4  1  0  0  0  0
 13 21  1  1  0  0  0
 15 14  1  6  0  0  0
 15 16  1  0  0  0  0
 15  8  1  0  0  0  0
 16 20  1  6  0  0  0
 17 18  1  0  0  0  0
 18 16  1  0  0  0  0
 20 19  1  0  0  0  0
 21 22  2  0  0  0  0
 22 23  1  0  0  0  0
 23 24  1  0  0  0  0
 25 24  1  0  0  0  0
 25 26  1  0  0  0  0
 27 26  1  0  0  0  0
 29 28  2  0  0  0  0
M  END
>  <MODEL>
4

>  <REMARK>
 VINA RESULT:      -7.2      2.892      3.974
  Name = 
  10 active torsions:
  status: ('A' for Active; 'I' for Inactive)
    1  A    between atoms: C_1  and  C_26
    2  A    between atoms: C_8  and  C_27
    3  A    between atoms: C_9  and  C_10
    4  A    between atoms: C_9  and  N_14
    5  A    between atoms: C_10  and  O_25
    6  A    between atoms: C_10  and  C_28
    7  A    between atoms: C_11  and  C_16
    8  A    between atoms: C_21  and  C_24
    9  A    between atoms: C_21  and  C_29
   10  A    between atoms: C_26  and  C_29
                            x       y       z     vdW  Elec       q    Type
                         _______ _______ _______ _____ _____    ______ ____

>  <TORSDO>
F 10

$$$$
=
 OpenBabel11042410273D

 29 31  0  0  1  0  0  0  0  0999 V2000
  186.1560  178.3200  145.1340 C   0  0  0  0  0  0  0  0  0  0  0  0
  190.1840  175.7190  142.3510 O   0  0  0  0  0  1  0  0  0  0  0  0
  187.5070  177.6310  142.8500 C   0  0  0  0  0  0  0  0  0  0  0  0
  186.1800  177.9250  142.7170 N   0  0  0  0  0  0  0  0  0  0  0  0
  187.5110  178.0190  145.2620 C   0  0  0  0  0  3  0  0  0  0  0  0
  184.1940  178.6070  144.0280 C   0  0  0  0  0  0  0  0  0  0  0  0
  184.0110  178.8720  145.3850 C   0  0  0  0  0  3  0  0  0  0  0  0
  189.5240  177.3240  143.9170 N   0  0  0  0  0  0  0  0  0  0  0  0
  189.7870  177.0480  142.5020 C   0  0  2  0  0  3  0  0  0  0  0  0
  188.1610  177.6670  144.0680 C   0  0  0  0  0  0  0  0  0  0  0  0
  185.2210  178.6970  146.0730 C   0  0  0  0  0  2  0  0  0  0  0  0
  185.5100  178.2630  143.8490 C   0  0  0  0  0  0  0  0  0  0  0  0
  188.4480  177.2720  141.7520 C   0  0  2  0  0  3  0  0  0  0  0  0
  190.2770  178.8090  145.5540 O   0  0  0  0  0  1  0  0  0  0  0  0
  190.5550  177.5980  144.9140 C   0  0  1  0  0  3  0  0  0  0  0  0
  190.6370  176.4660  145.9390 C   0  0  1  0  0  3  0  0  0  0  0  0
  192.2510  175.7350  147.2730 C   0  0  0  0  0  1  0  0  0  0  0  0
  191.9180  175.9030  145.9270 O   0  0  0  0  0  0  0  0  0  0  0  0
  189.0160  176.5740  147.7540 N   0  0  0  0  0  1  0  0  0  0  0  0
  190.3360  177.0050  147.3300 C   0  0  0  0  0  2  0  0  0  0  0  0
  188.5790  178.4320  140.8090 C   0  0  0  0  0  3  0  0  0  0  0  0
  189.0150  178.3210  139.5480 C   0  0  0  0  0  3  0  0  0  0  0  0
  189.4300  177.0230  138.9270 C   0  0  0  0  0  2  0  0  0  0  0  0
  188.7710  176.8560  137.5720 C   0  0  0  0  0  2  0  0  0  0  0  0
  188.7210  178.1940  136.8680 C   0  0  0  0  0  2  0  0  0  0  0  0
  187.3270  178.4260  136.3230 C   0  0  0  0  0  2  0  0  0  0  0  0
  186.4870  178.8350  137.3580 O   0  0  0  0  0  1  0  0  0  0  0  0
  181.9950  179.2280  143.2720 N   0  0  0  0  0  2  0  0  0  0  0  0
  183.1420  178.6930  143.0100 C   0  0  0  0  0  3  0  0  0  0  0  0
  1  5  1  0  0  0  0
  1 11  1  0  0  0  0
  3 10  1  0  0  0  0
  4  3  2  0  0  0  0
  4 12  1  0  0  0  0
  6  7  2  0  0  0  0
  7 11  1  0  0  0  0
  8 10  1  0  0  0  0
  8 15  1  0  0  0  0
  9  2  1  1  0  0  0
  9  8  1  0  0  0  0
 10  5  2  0  0  0  0
 12  6  1  0  0  0  0
 12  1  2  0  0  0  0
 13 21  1  6  0  0  0
 13  9  1  0  0  0  0
 13  3  1  0  0  0  0
 15 14  1  1  0  0  0
 15 16  1  0  0  0  0
 16 20  1  1  0  0  0
 18 16  1  0  0  0  0
 18 17  1  0  0  0  0
 20 19  1  0  0  0  0
 22 21  2  0  0  0  0
 23 22  1  0  0  0  0
 24 23  1  0  0  0  0
 25 24  1  0  0  0  0
 26 25  1  0  0  0  0
 26 27  1  0  0  0  0
 29 28  2  0  0  0  0
 29  6  1  0  0  0  0
M  END
>  <MODEL>
5

>  <REMARK>
 VINA RESULT:      -7.2      2.123      6.768
  Name = 
  10 active torsions:
  status: ('A' for Active; 'I' for Inactive)
    1  A    between atoms: C_1  and  C_26
    2  A    between atoms: C_8  and  C_27
    3  A    between atoms: C_9  and  C_10
    4  A    between atoms: C_9  and  N_14
    5  A    between atoms: C_10  and  O_25
    6  A    between atoms: C_10  and  C_28
    7  A    between atoms: C_11  and  C_16
    8  A    between atoms: C_21  and  C_24
    9  A    between atoms: C_21  and  C_29
   10  A    between atoms: C_26  and  C_29
                            x       y       z     vdW  Elec       q    Type
                         _______ _______ _______ _____ _____    ______ ____

>  <TORSDO>
F 10

$$$$
=
 OpenBabel11042410273D

 29 31  0  0  1  0  0  0  0  0999 V2000
  188.6790  177.8260  139.2230 C   0  0  0  0  0  0  0  0  0  0  0  0
  187.1150  176.8060  144.4430 O   0  0  0  0  0  1  0  0  0  0  0  0
  189.1570  177.4530  141.8970 C   0  0  0  0  0  0  0  0  0  0  0  0
  190.1710  177.1360  141.0390 N   0  0  0  0  0  0  0  0  0  0  0  0
  187.6490  178.1490  140.1050 C   0  0  0  0  0  3  0  0  0  0  0  0
  190.7450  177.0930  138.6320 C   0  0  0  0  0  0  0  0  0  0  0  0
  190.0280  177.4480  137.4900 C   0  0  0  0  0  3  0  0  0  0  0  0
  187.0760  178.1870  142.5580 N   0  0  0  0  0  0  0  0  0  0  0  0
  187.7810  177.8480  143.7980 C   0  0  2  0  0  3  0  0  0  0  0  0
  187.9360  177.9380  141.4640 C   0  0  0  0  0  0  0  0  0  0  0  0
  188.7500  177.9020  137.8500 C   0  0  0  0  0  3  0  0  0  0  0  0
  189.9320  177.3170  139.7140 C   0  0  2  0  0  3  0  0  0  0  0  0
  189.1980  177.3730  143.3840 C   0  0  2  0  0  3  0  0  0  0  0  0
  185.8710  179.7310  141.2880 O   0  0  0  0  0  1  0  0  0  0  0  0
  185.8740  179.0110  142.4860 C   0  0  1  0  0  3  0  0  0  0  0  0
  184.6150  178.1500  142.5870 C   0  0  1  0  0  3  0  0  0  0  0  0
  182.9020  179.0440  143.6750 C   0  0  0  0  0  1  0  0  0  0  0  0
  184.0510  178.2740  143.8620 O   0  0  0  0  0  0  0  0  0  0  0  0
  183.4090  177.5390  140.5610 N   0  0  0  0  0  1  0  0  0  0  0  0
  183.6000  178.5920  141.5420 C   0  0  0  0  0  2  0  0  0  0  0  0
  190.2290  178.3310  143.9070 C   0  0  0  0  0  3  0  0  0  0  0  0
  191.1160  178.0230  144.8610 C   0  0  0  0  0  3  0  0  0  0  0  0
  191.1820  176.6840  145.5280 C   0  0  0  0  0  2  0  0  0  0  0  0
  190.8850  176.8210  147.0080 C   0  0  0  0  0  2  0  0  0  0  0  0
  189.3870  176.8220  147.2230 C   0  0  0  0  0  2  0  0  0  0  0  0
  188.9940  178.0410  148.0310 C   0  0  0  0  0  2  0  0  0  0  0  0
  187.6070  178.0810  148.1650 O   0  0  0  0  0  1  0  0  0  0  0  0
  192.7700  176.4030  137.5290 N   0  0  0  0  0  2  0  0  0  0  0  0
  192.1190  176.5790  138.6310 C   0  0  0  0  0  3  0  0  0  0  0  0
  1 12  1  0  0  0  0
  1  5  1  0  0  0  0
  3 13  1  0  0  0  0
  4  3  2  0  0  0  0
  5 10  2  0  0  0  0
  7 11  1  0  0  0  0
  7  6  2  0  0  0  0
  8  9  1  0  0  0  0
  9  2  1  6  0  0  0
 10  3  1  0  0  0  0
 10  8  1  0  0  0  0
 11  1  2  0  0  0  0
 12  6  1  1  0  0  0
 12  4  1  0  0  0  0
 13  9  1  0  0  0  0
 13 21  1  1  0  0  0
 15 14  1  6  0  0  0
 15  8  1  0  0  0  0
 15 16  1  0  0  0  0
 16 20  1  6  0  0  0
 16 18  1  0  0  0  0
 17 18  1  0  0  0  0
 19 20  1  0  0  0  0
 21 22  2  0  0  0  0
 22 23  1  0  0  0  0
 23 24  1  0  0  0  0
 24 25  1  0  0  0  0
 25 26  1  0  0  0  0
 26 27  1  0  0  0  0
 28 29  2  0  0  0  0
 29  6  1  0  0  0  0
M  END
>  <MODEL>
6

>  <REMARK>
 VINA RESULT:      -7.0      2.741      5.923
  Name = 
  10 active torsions:
  status: ('A' for Active; 'I' for Inactive)
    1  A    between atoms: C_1  and  C_26
    2  A    between atoms: C_8  and  C_27
    3  A    between atoms: C_9  and  C_10
    4  A    between atoms: C_9  and  N_14
    5  A    between atoms: C_10  and  O_25
    6  A    between atoms: C_10  and  C_28
    7  A    between atoms: C_11  and  C_16
    8  A    between atoms: C_21  and  C_24
    9  A    between atoms: C_21  and  C_29
   10  A    between atoms: C_26  and  C_29
                            x       y       z     vdW  Elec       q    Type
                         _______ _______ _______ _____ _____    ______ ____

>  <TORSDO>
F 10

$$$$
=
 OpenBabel11042410273D

 29 31  0  0  1  0  0  0  0  0999 V2000
  184.4510  178.6930  141.7320 C   0  0  0  0  0  0  0  0  0  0  0  0
  189.0630  179.3260  138.7210 O   0  0  0  0  0  1  0  0  0  0  0  0
  187.1390  178.4050  141.2750 C   0  0  0  0  0  0  0  0  0  0  0  0
  186.7380  178.4630  142.5790 N   0  0  0  0  0  2  0  0  0  0  0  0
  184.8680  178.6320  140.4040 C   0  0  0  0  0  3  0  0  0  0  0  0
  184.7160  178.6940  143.9870 C   0  0  0  0  0  0  0  0  0  0  0  0
  183.3640  178.8290  143.6730 C   0  0  0  0  0  3  0  0  0  0  0  0
  186.9340  178.3970  138.9810 N   0  0  0  0  0  0  0  0  0  0  0  0
  188.3670  178.2360  139.2440 C   0  0  2  0  0  3  0  0  0  0  0  0
  186.2530  178.4890  140.2170 C   0  0  0  0  0  0  0  0  0  0  0  0
  183.1950  178.8280  142.2800 C   0  0  0  0  0  3  0  0  0  0  0  0
  185.4070  178.6090  142.8050 C   0  0  0  0  0  0  0  0  0  0  0  0
  188.5330  178.2120  140.7860 C   0  0  2  0  0  3  0  0  0  0  0  0
  187.0120  178.6880  136.6660 O   0  0  0  0  0  1  0  0  0  0  0  0
  186.2860  178.1020  137.7070 C   0  0  1  0  0  3  0  0  0  0  0  0
  186.1730  176.5930  137.4880 C   0  0  1  0  0  3  0  0  0  0  0  0
  184.5940  175.0370  137.5380 C   0  0  0  0  0  1  0  0  0  0  0  0
  184.9090  176.2770  136.9790 O   0  0  0  0  0  0  0  0  0  0  0  0
  188.2400  175.3370  137.1980 N   0  0  0  0  0  1  0  0  0  0  0  0
  187.2410  176.1310  136.5060 C   0  0  0  0  0  2  0  0  0  0  0  0
  189.0340  176.8670  141.2240 C   0  0  0  0  0  3  0  0  0  0  0  0
  190.0400  176.6920  142.0900 C   0  0  0  0  0  3  0  0  0  0  0  0
  190.7930  177.8220  142.7220 C   0  0  0  0  0  2  0  0  0  0  0  0
  190.0970  178.2680  143.9930 C   0  0  0  0  0  2  0  0  0  0  0  0
  190.0130  177.1050  144.9560 C   0  0  0  0  0  2  0  0  0  0  0  0
  188.7810  177.2570  145.8250 C   0  0  0  0  0  2  0  0  0  0  0  0
  189.0300  176.7080  147.0820 O   0  0  0  0  0  1  0  0  0  0  0  0
  184.4930  178.7910  146.3820 N   0  0  0  0  0  2  0  0  0  0  0  0
  185.2580  178.6540  145.3500 C   0  0  0  0  0  3  0  0  0  0  0  0
  1 11  1  0  0  0  0
  1 12  1  0  0  0  0
  3  4  1  0  0  0  0
  4 12  1  0  0  0  0
  5  1  2  0  0  0  0
  6 29  1  0  0  0  0
  7  6  1  0  0  0  0
  8  9  1  0  0  0  0
  8 10  1  0  0  0  0
  9  2  1  1  0  0  0
  9 13  1  0  0  0  0
 10  5  1  0  0  0  0
 10  3  2  0  0  0  0
 11  7  2  0  0  0  0
 12  6  2  0  0  0  0
 13 21  1  6  0  0  0
 13  3  1  0  0  0  0
 15 14  1  6  0  0  0
 15  8  1  0  0  0  0
 16 20  1  6  0  0  0
 16 15  1  0  0  0  0
 18 16  1  0  0  0  0
 18 17  1  0  0  0  0
 20 19  1  0  0  0  0
 21 22  2  0  0  0  0
 22 23  1  0  0  0  0
 23 24  1  0  0  0  0
 24 25  1  0  0  0  0
 25 26  1  0  0  0  0
 26 27  1  0  0  0  0
 29 28  2  0  0  0  0
M  END
>  <MODEL>
7

>  <REMARK>
 VINA RESULT:      -6.8      1.607      1.880
  Name = 
  10 active torsions:
  status: ('A' for Active; 'I' for Inactive)
    1  A    between atoms: C_1  and  C_26
    2  A    between atoms: C_8  and  C_27
    3  A    between atoms: C_9  and  C_10
    4  A    between atoms: C_9  and  N_14
    5  A    between atoms: C_10  and  O_25
    6  A    between atoms: C_10  and  C_28
    7  A    between atoms: C_11  and  C_16
    8  A    between atoms: C_21  and  C_24
    9  A    between atoms: C_21  and  C_29
   10  A    between atoms: C_26  and  C_29
                            x       y       z     vdW  Elec       q    Type
                         _______ _______ _______ _____ _____    ______ ____

>  <TORSDO>
F 10

$$$$
=
 OpenBabel11042410273D

 29 31  0  0  1  0  0  0  0  0999 V2000
  186.1140  178.5070  143.0040 C   0  0  0  0  0  0  0  0  0  0  0  0
  191.1210  178.2050  140.6430 O   0  0  0  0  0  1  0  0  0  0  0  0
  188.6930  177.5910  142.8330 C   0  0  0  0  0  0  0  0  0  0  0  0
  188.1370  177.6400  144.0800 N   0  0  0  0  0  2  0  0  0  0  0  0
  186.6870  178.4520  141.7350 C   0  0  0  0  0  3  0  0  0  0  0  0
  186.0500  178.2560  145.2600 C   0  0  0  0  0  0  0  0  0  0  0  0
  184.8270  178.7520  144.8070 C   0  0  0  0  0  3  0  0  0  0  0  0
  188.8170  177.8230  140.5450 N   0  0  0  0  0  0  0  0  0  0  0  0
  190.1180  177.2860  140.9530 C   0  0  2  0  0  3  0  0  0  0  0  0
  188.0100  177.9820  141.6950 C   0  0  0  0  0  0  0  0  0  0  0  0
  184.8610  178.9080  143.4140 C   0  0  0  0  0  3  0  0  0  0  0  0
  186.8610  178.0980  144.1640 C   0  0  0  0  0  0  0  0  0  0  0  0
  190.0550  177.0950  142.4910 C   0  0  2  0  0  3  0  0  0  0  0  0
  188.6070  179.0180  138.5500 O   0  0  0  0  0  1  0  0  0  0  0  0
  188.3040  177.8070  139.1790 C   0  0  1  0  0  3  0  0  0  0  0  0
  188.8950  176.6390  138.3880 C   0  0  1  0  0  3  0  0  0  0  0  0
  187.7510  176.4880  136.4940 C   0  0  0  0  0  1  0  0  0  0  0  0
  187.8710  175.9180  137.7640 O   0  0  0  0  0  0  0  0  0  0  0  0
  191.2090  176.7230  137.6320 N   0  0  0  0  0  1  0  0  0  0  0  0
  189.8580  177.1640  137.3330 C   0  0  0  0  0  2  0  0  0  0  0  0
  190.1530  175.6360  142.8270 C   0  0  0  0  0  3  0  0  0  0  0  0
  191.0460  175.1280  143.6870 C   0  0  0  0  0  3  0  0  0  0  0  0
  192.0600  175.9570  144.4120 C   0  0  0  0  0  2  0  0  0  0  0  0
  191.6090  176.2060  145.8380 C   0  0  0  0  0  2  0  0  0  0  0  0
  192.2950  175.2230  146.7610 C   0  0  0  0  0  2  0  0  0  0  0  0
  192.4840  175.8580  148.1240 C   0  0  0  0  0  2  0  0  0  0  0  0
  191.9620  177.1500  148.1090 O   0  0  0  0  0  1  0  0  0  0  0  0
  187.5770  177.7020  147.0360 N   0  0  0  0  0  2  0  0  0  0  0  0
  186.3690  177.9690  146.6630 C   0  0  0  0  0  3  0  0  0  0  0  0
  1 11  1  0  0  0  0
  1 12  1  0  0  0  0
  3  4  1  0  0  0  0
  4 12  1  0  0  0  0
  5  1  2  0  0  0  0
  6 29  1  0  0  0  0
  7  6  1  0  0  0  0
  8  9  1  0  0  0  0
  8 10  1  0  0  0  0
  9  2  1  1  0  0  0
  9 13  1  0  0  0  0
 10  5  1  0  0  0  0
 10  3  2  0  0  0  0
 11  7  2  0  0  0  0
 12  6  2  0  0  0  0
 13 21  1  6  0  0  0
 13  3  1  0  0  0  0
 15 14  1  6  0  0  0
 15  8  1  0  0  0  0
 16 20  1  6  0  0  0
 16 15  1  0  0  0  0
 17 18  1  0  0  0  0
 18 16  1  0  0  0  0
 20 19  1  0  0  0  0
 21 22  2  0  0  0  0
 22 23  1  0  0  0  0
 23 24  1  0  0  0  0
 24 25  1  0  0  0  0
 25 26  1  0  0  0  0
 27 26  1  0  0  0  0
 29 28  2  0  0  0  0
M  END
>  <MODEL>
8

>  <REMARK>
 VINA RESULT:      -6.8      1.860      2.320
  Name = 
  10 active torsions:
  status: ('A' for Active; 'I' for Inactive)
    1  A    between atoms: C_1  and  C_26
    2  A    between atoms: C_8  and  C_27
    3  A    between atoms: C_9  and  C_10
    4  A    between atoms: C_9  and  N_14
    5  A    between atoms: C_10  and  O_25
    6  A    between atoms: C_10  and  C_28
    7  A    between atoms: C_11  and  C_16
    8  A    between atoms: C_21  and  C_24
    9  A    between atoms: C_21  and  C_29
   10  A    between atoms: C_26  and  C_29
                            x       y       z     vdW  Elec       q    Type
                         _______ _______ _______ _____ _____    ______ ____

>  <TORSDO>
F 10

$$$$
=
 OpenBabel11042410273D

 29 31  0  0  1  0  0  0  0  0999 V2000
  183.9780  178.6570  142.2420 C   0  0  0  0  0  0  0  0  0  0  0  0
  188.9100  179.1170  139.7540 O   0  0  0  0  0  1  0  0  0  0  0  0
  186.6900  178.2860  142.0890 C   0  0  0  0  0  0  0  0  0  0  0  0
  186.1490  178.3740  143.3400 N   0  0  0  0  0  2  0  0  0  0  0  0
  184.5360  178.5650  140.9690 C   0  0  0  0  0  3  0  0  0  0  0  0
  183.9910  178.6820  144.5130 C   0  0  0  0  0  0  0  0  0  0  0  0
  182.6870  178.8500  144.0490 C   0  0  0  0  0  3  0  0  0  0  0  0
  186.7390  178.2530  139.7870 N   0  0  0  0  0  0  0  0  0  0  0  0
  188.1290  178.0550  140.2080 C   0  0  2  0  0  3  0  0  0  0  0  0
  185.9290  178.3810  140.9380 C   0  0  0  0  0  0  0  0  0  0  0  0
  182.6730  178.8350  142.6470 C   0  0  0  0  0  3  0  0  0  0  0  0
  184.8060  178.5610  143.4160 C   0  0  0  0  0  0  0  0  0  0  0  0
  188.1230  178.0480  141.7590 C   0  0  2  0  0  3  0  0  0  0  0  0
  185.9450  179.1540  137.7850 O   0  0  0  0  0  1  0  0  0  0  0  0
  186.2270  177.9590  138.4520 C   0  0  1  0  0  3  0  0  0  0  0  0
  187.2340  177.1320  137.6510 C   0  0  1  0  0  3  0  0  0  0  0  0
  186.2210  176.1040  135.9670 C   0  0  0  0  0  1  0  0  0  0  0  0
  186.6610  175.9110  137.2790 O   0  0  0  0  0  0  0  0  0  0  0  0
  189.0560  178.2530  136.4860 N   0  0  0  0  0  1  0  0  0  0  0  0
  187.6520  177.8950  136.4010 C   0  0  0  0  0  2  0  0  0  0  0  0
  188.5320  176.6950  142.2640 C   0  0  0  0  0  3  0  0  0  0  0  0
  189.2460  176.5010  143.3810 C   0  0  0  0  0  3  0  0  0  0  0  0
  189.7270  177.6150  144.2580 C   0  0  0  0  0  2  0  0  0  0  0  0
  191.1380  178.0130  143.8710 C   0  0  0  0  0  2  0  0  0  0  0  0
  191.6820  177.0260  142.8620 C   0  0  0  0  0  2  0  0  0  0  0  0
  192.0720  177.7610  141.5970 C   0  0  0  0  0  2  0  0  0  0  0  0
  191.4940  177.1290  140.4970 O   0  0  0  0  0  1  0  0  0  0  0  0
  185.3420  179.3780  146.3800 N   0  0  0  0  0  2  0  0  0  0  0  0
  184.3780  178.6450  145.9280 C   0  0  0  0  0  3  0  0  0  0  0  0
  1 11  1  0  0  0  0
  1 12  1  0  0  0  0
  3  4  1  0  0  0  0
  4 12  1  0  0  0  0
  5  1  2  0  0  0  0
  6 29  1  0  0  0  0
  7  6  1  0  0  0  0
  8  9  1  0  0  0  0
  8 10  1  0  0  0  0
  9  2  1  1  0  0  0
  9 13  1  0  0  0  0
 10  5  1  0  0  0  0
 10  3  2  0  0  0  0
 11  7  2  0  0  0  0
 12  6  2  0  0  0  0
 13  3  1  0  0  0  0
 13 21  1  6  0  0  0
 15 14  1  6  0  0  0
 15  8  1  0  0  0  0
 16 20  1  6  0  0  0
 16 15  1  0  0  0  0
 17 18  1  0  0  0  0
 18 16  1  0  0  0  0
 20 19  1  0  0  0  0
 21 22  2  0  0  0  0
 22 23  1  0  0  0  0
 24 23  1  0  0  0  0
 25 24  1  0  0  0  0
 26 25  1  0  0  0  0
 27 26  1  0  0  0  0
 29 28  2  0  0  0  0
M  END
>  <MODEL>
9

>  <REMARK>
 VINA RESULT:      -6.6      1.670      2.010
  Name = 
  10 active torsions:
  status: ('A' for Active; 'I' for Inactive)
    1  A    between atoms: C_1  and  C_26
    2  A    between atoms: C_8  and  C_27
    3  A    between atoms: C_9  and  C_10
    4  A    between atoms: C_9  and  N_14
    5  A    between atoms: C_10  and  O_25
    6  A    between atoms: C_10  and  C_28
    7  A    between atoms: C_11  and  C_16
    8  A    between atoms: C_21  and  C_24
    9  A    between atoms: C_21  and  C_29
   10  A    between atoms: C_26  and  C_29
                            x       y       z     vdW  Elec       q    Type
                         _______ _______ _______ _____ _____    ______ ____

>  <TORSDO>
F 10

$$$$
