=
 OpenBabel11042411503D

 68 75  0  0  1  0  0  0  0  0999 V2000
  187.9130  176.6010  136.1790 C   0  0  0  0  0  0  0  0  0  0  0  0
  188.5350  176.1310  134.9640 N   0  0  0  0  0  0  0  0  0  0  0  0
  190.6650  177.5780  142.0550 C   0  0  1  0  0  3  0  0  0  0  0  0
  188.9180  177.3300  139.5900 C   0  0  0  0  0  2  0  0  0  0  0  0
  192.8450  175.8820  136.9750 O   0  0  0  0  0  0  0  0  0  0  0  0
  183.1000  178.3720  142.6310 C   0  0  1  0  0  3  0  0  0  0  0  0
  185.2260  177.6320  143.7230 C   0  0  1  0  0  3  0  0  0  0  0  0
  184.9430  178.8120  144.5560 N   0  0  0  0  0  0  0  0  0  0  0  0
  192.3590  176.3630  138.2000 C   0  0  0  0  0  0  0  0  0  0  0  0
  183.8740  177.6240  138.1050 C   0  0  0  0  0  2  0  0  0  0  0  0
  184.4990  180.0670  143.9440 C   0  0  0  0  0  2  0  0  0  0  0  0
  191.2320  177.1980  140.7180 C   0  0  0  0  0  0  0  0  0  0  0  0
  190.4370  177.5190  139.4750 C   0  0  1  0  0  3  0  0  0  0  0  0
  183.2880  179.8420  143.0220 C   0  0  0  0  0  2  0  0  0  0  0  0
  190.6760  175.9790  135.9850 C   0  0  0  0  0  0  0  0  0  0  0  0
  188.3160  177.6140  138.3420 O   0  0  0  0  0  0  0  0  0  0  0  0
  185.5080  179.9330  146.7020 N   0  0  0  0  0  2  0  0  0  0  0  0
  182.0710  178.1750  141.5080 C   0  0  0  0  0  2  0  0  0  0  0  0
  190.9560  176.7790  138.2730 C   0  0  0  0  0  0  0  0  0  0  0  0
  188.6620  176.5560  137.4770 C   0  0  2  0  0  3  0  0  0  0  0  0
  189.4530  176.1080  143.6780 C   0  0  0  0  0  2  0  0  0  0  0  0
  184.4340  177.6610  142.4140 C   0  0  0  0  0  2  0  0  0  0  0  0
  185.3190  176.7140  136.3370 C   0  0  0  0  0  3  0  0  0  0  0  0
  191.9890  175.7030  135.8680 C   0  0  0  0  0  0  0  0  0  0  0  0
  181.1590  179.3720  138.0430 C   0  0  0  0  0  2  0  0  0  0  0  0
  189.7770  175.8410  134.8780 N   0  0  0  0  0  0  0  0  0  0  0  0
  181.7060  180.7670  138.4000 C   0  0  0  0  0  2  0  0  0  0  0  0
  181.1660  178.4270  139.2480 C   0  0  0  0  0  2  0  0  0  0  0  0
  190.1470  176.5020  137.2510 C   0  0  0  0  0  0  0  0  0  0  0  0
  187.4870  176.9960  144.5880 C   0  0  0  0  0  2  0  0  0  0  0  0
  182.1110  180.8690  139.7480 O   0  0  0  0  0  0  0  0  0  0  0  0
  193.0990  176.3560  139.3180 C   0  0  0  0  0  0  0  0  0  0  0  0
  185.0750  177.6460  146.5780 O   0  0  0  0  0  0  0  0  0  0  0  0
  183.1030  179.8970  139.9500 C   0  0  0  0  0  2  0  0  0  0  0  0
  184.6980  176.4340  137.6600 C   0  0  0  0  0  2  0  0  0  0  0  0
  192.4910  176.7290  140.6180 C   0  0  0  0  0  3  0  0  0  0  0  0
  185.1650  178.7500  145.9750 C   0  0  0  0  0  0  0  0  0  0  0  0
  188.9080  177.2370  144.4150 N   0  0  0  0  0  2  0  0  0  0  0  0
  190.8160  176.4700  143.0940 C   0  0  0  0  0  2  0  0  0  0  0  0
  186.6140  176.6710  136.2310 C   0  0  0  0  0  0  0  0  0  0  0  0
  182.4740  178.4940  140.0570 C   0  0  1  0  0  0  0  0  0  0  0  0
  183.4460  177.4170  139.5560 C   0  0  0  0  0  2  0  0  0  0  0  0
  186.7120  177.5490  143.4000 C   0  0  0  0  0  2  0  0  0  0  0  0
  191.2360  178.8910  142.5590 C   0  0  0  0  0  2  0  0  0  0  0  0
  191.9730  178.6500  143.7910 N   0  0  0  0  0  1  0  0  0  0  0  0
  193.5080  174.1690  134.5940 C   0  0  0  0  0  1  0  0  0  0  0  0
  192.5120  175.2250  134.6310 N   0  0  0  0  0  2  0  0  0  0  0  0
  195.5400  175.3540  139.3570 C   0  0  0  0  0  0  0  0  0  0  0  0
  194.4240  175.8000  139.3160 C   0  0  0  0  0  0  0  0  0  0  0  0
  196.9030  174.8280  139.4260 C   0  0  0  0  0  2  0  0  0  0  0  0
  197.0090  173.5540  138.6140 C   0  0  0  0  0  2  0  0  0  0  0  0
  196.1280  173.6150  137.5350 O   0  0  0  0  0  0  0  0  0  0  0  0
  196.9290  173.5380  136.3900 C   0  0  1  0  0  3  0  0  0  0  0  0
  197.6510  174.8700  136.1490 C   0  0  1  0  0  3  0  0  0  0  0  0
  198.9850  174.6450  135.8080 O   0  0  0  0  0  1  0  0  0  0  0  0
  196.9780  175.7650  135.1020 C   0  0  0  0  0  2  0  0  0  0  0  0
  195.6920  177.9130  135.4640 C   0  0  0  0  0  3  0  0  0  0  0  0
  196.4270  178.5450  134.6580 O   0  0  0  0  0  0  0  0  0  0  0  0
  195.8640  176.5090  135.6690 N   0  0  0  0  0  2  0  0  0  0  0  0
  197.9130  172.3750  136.5100 C   0  0  0  0  0  2  0  0  0  0  0  0
  197.2670  171.0460  136.1510 C   0  0  0  0  0  2  0  0  0  0  0  0
  196.1090  171.2640  135.4010 O   0  0  0  0  0  0  0  0  0  0  0  0
  194.1860  170.5220  136.5480 C   0  0  0  0  0  2  0  0  0  0  0  0
  195.3240  170.1360  135.6320 C   0  0  0  0  0  3  0  0  0  0  0  0
  193.9320  170.3560  135.0670 C   0  0  0  0  0  2  0  0  0  0  0  0
  185.8460  179.8770  148.1170 C   0  0  0  0  0  2  0  0  0  0  0  0
  186.9980  178.9080  148.3450 C   0  0  0  0  0  2  0  0  0  0  0  0
  187.8940  178.8390  147.1200 C   0  0  0  0  0  1  0  0  0  0  0  0
  1 40  2  0  0  0  0
  2  1  1  0  0  0  0
  3 44  1  1  0  0  0
  3 39  1  0  0  0  0
  5  9  1  0  0  0  0
  6 18  1  6  0  0  0
  6 14  1  0  0  0  0
  7 22  1  6  0  0  0
  7  8  1  0  0  0  0
  8 37  1  0  0  0  0
  9 19  1  0  0  0  0
  9 32  2  0  0  0  0
 10 42  1  0  0  0  0
 11  8  1  0  0  0  0
 12  3  1  0  0  0  0
 13  4  1  1  0  0  0
 13 12  1  0  0  0  0
 14 11  1  0  0  0  0
 15 29  1  0  0  0  0
 16  4  1  0  0  0  0
 17 66  1  0  0  0  0
 19 13  1  0  0  0  0
 20  1  1  6  0  0  0
 20 16  1  0  0  0  0
 21 38  1  0  0  0  0
 22  6  1  0  0  0  0
 23 35  1  0  0  0  0
 24 15  2  0  0  0  0
 24  5  1  0  0  0  0
 25 27  1  0  0  0  0
 25 28  1  0  0  0  0
 26  2  2  0  0  0  0
 26 15  1  0  0  0  0
 27 31  1  0  0  0  0
 29 20  1  0  0  0  0
 29 19  2  0  0  0  0
 31 34  1  0  0  0  0
 32 36  1  0  0  0  0
 34 41  1  0  0  0  0
 35 10  1  0  0  0  0
 36 12  2  0  0  0  0
 37 33  2  0  0  0  0
 37 17  1  0  0  0  0
 38 30  1  0  0  0  0
 39 21  1  0  0  0  0
 40 23  2  0  0  0  0
 41 28  1  6  0  0  0
 41 18  1  0  0  0  0
 42 41  1  0  0  0  0
 43  7  1  0  0  0  0
 43 30  1  0  0  0  0
 44 45  1  0  0  0  0
 46 47  1  0  0  0  0
 47 24  1  0  0  0  0
 48 50  1  0  0  0  0
 49 32  1  0  0  0  0
 49 48  3  0  0  0  0
 51 50  1  0  0  0  0
 52 51  1  0  0  0  0
 53 60  1  1  0  0  0
 53 52  1  0  0  0  0
 54 55  1  6  0  0  0
 54 53  1  0  0  0  0
 56 59  1  0  0  0  0
 56 54  1  0  0  0  0
 57 59  1  0  0  0  0
 58 57  2  0  0  0  0
 61 60  1  0  0  0  0
 62 64  1  0  0  0  0
 62 61  1  0  0  0  0
 64 63  1  0  0  0  0
 65 64  1  0  0  0  0
 65 63  1  0  0  0  0
 66 67  1  0  0  0  0
 68 67  1  0  0  0  0
M  END
>  <MODEL>
1

>  <REMARK>
 VINA RESULT:      -3.6      0.000      0.000
  Name = 
  16 active torsions:
  status: ('A' for Active; 'I' for Inactive)
    1  A    between atoms: C_2  and  C_13
    2  A    between atoms: C_2  and  N_56
    3  A    between atoms: C_5  and  C_54
    4  A    between atoms: O_9  and  C_39
    5  A    between atoms: O_9  and  C_68
    6  A    between atoms: C_13  and  C_68
    7  A    between atoms: C_21  and  O_46
    8  A    between atoms: N_23  and  C_29
    9  A    between atoms: C_29  and  C_45
   10  A    between atoms: C_32  and  N_64
   11  A    between atoms: C_39  and  C_52
   12  A    between atoms: C_41  and  C_52
   13  A    between atoms: C_44  and  C_55
   14  A    between atoms: O_46  and  C_53
   15  A    between atoms: C_53  and  C_61
   16  A    between atoms: C_61  and  C_68
                            x       y       z     vdW  Elec       q    Type
                         _______ _______ _______ _____ _____    ______ ____

>  <TORSDO>
F 16

$$$$
=
 OpenBabel11042411503D

 68 75  0  0  1  0  0  0  0  0999 V2000
  184.2660  178.6090  143.5790 C   0  0  0  0  0  0  0  0  0  0  0  0
  182.9490  178.8540  144.1150 N   0  0  0  0  0  0  0  0  0  0  0  0
  186.0850  178.1160  137.2940 C   0  0  1  0  0  3  0  0  0  0  0  0
  185.8050  178.2760  140.3080 C   0  0  0  0  0  2  0  0  0  0  0  0
  180.9920  179.2420  139.7900 O   0  0  0  0  0  0  0  0  0  0  0  0
  191.9420  176.1980  141.7900 C   0  0  1  0  0  3  0  0  0  0  0  0
  190.7330  175.8140  139.6340 C   0  0  1  0  0  3  0  0  0  0  0  0
  191.9540  176.4390  139.1000 N   0  0  0  0  0  0  0  0  0  0  0  0
  182.2290  179.0460  139.1560 C   0  0  0  0  0  0  0  0  0  0  0  0
  188.5710  177.4970  144.7220 C   0  0  0  0  0  2  0  0  0  0  0  0
  192.5300  177.6220  139.7450 C   0  0  0  0  0  2  0  0  0  0  0  0
  184.7820  178.4680  137.9500 C   0  0  0  0  0  0  0  0  0  0  0  0
  184.7980  178.9640  139.3770 C   0  0  1  0  0  3  0  0  0  0  0  0
  192.7410  177.3900  141.2520 C   0  0  0  0  0  2  0  0  0  0  0  0
  181.9760  179.0140  141.9530 C   0  0  0  0  0  0  0  0  0  0  0  0
  185.6690  178.8040  141.6130 O   0  0  0  0  0  0  0  0  0  0  0  0
  193.2890  176.7850  137.0310 N   0  0  0  0  0  2  0  0  0  0  0  0
  191.9320  176.1250  143.3240 C   0  0  0  0  0  2  0  0  0  0  0  0
  183.4270  178.9370  139.9920 C   0  0  0  0  0  0  0  0  0  0  0  0
  184.4460  178.3170  142.1200 C   0  0  2  0  0  3  0  0  0  0  0  0
  187.0880  175.8420  137.0050 C   0  0  0  0  0  2  0  0  0  0  0  0
  190.5700  176.0830  141.1320 C   0  0  0  0  0  2  0  0  0  0  0  0
  186.1760  177.8280  145.1630 C   0  0  0  0  0  3  0  0  0  0  0  0
  180.8830  179.2330  141.1970 C   0  0  0  0  0  0  0  0  0  0  0  0
  191.2340  178.1840  146.4130 C   0  0  0  0  0  2  0  0  0  0  0  0
  181.9150  179.0260  143.3840 N   0  0  0  0  0  0  0  0  0  0  0  0
  191.7340  179.4370  145.6690 C   0  0  0  0  0  2  0  0  0  0  0  0
  191.4320  176.9100  145.5870 C   0  0  0  0  0  2  0  0  0  0  0  0
  183.2840  178.8250  141.3130 C   0  0  0  0  0  0  0  0  0  0  0  0
  189.3580  175.6500  137.5490 C   0  0  0  0  0  2  0  0  0  0  0  0
  192.2460  179.1460  144.3870 O   0  0  0  0  0  0  0  0  0  0  0  0
  182.3340  178.8520  137.8340 C   0  0  0  0  0  0  0  0  0  0  0  0
  192.4080  174.7030  137.6000 O   0  0  0  0  0  0  0  0  0  0  0  0
  191.2090  178.5370  143.6630 C   0  0  0  0  0  2  0  0  0  0  0  0
  187.1880  176.8890  144.6090 C   0  0  0  0  0  2  0  0  0  0  0  0
  183.6410  178.4950  137.2330 C   0  0  0  0  0  3  0  0  0  0  0  0
  192.5510  175.9200  137.8990 C   0  0  0  0  0  0  0  0  0  0  0  0
  188.4110  176.3740  136.7200 N   0  0  0  0  0  2  0  0  0  0  0  0
  186.0150  176.8070  136.5120 C   0  0  0  0  0  2  0  0  0  0  0  0
  185.2150  178.2400  144.3920 C   0  0  0  0  0  0  0  0  0  0  0  0
  191.0170  177.0770  144.1150 C   0  0  1  0  0  0  0  0  0  0  0  0
  189.5580  176.6350  143.9370 C   0  0  0  0  0  2  0  0  0  0  0  0
  189.5030  176.3340  138.9010 C   0  0  0  0  0  2  0  0  0  0  0  0
  186.6090  179.2490  136.4320 C   0  0  0  0  0  2  0  0  0  0  0  0
  187.9400  179.6210  136.8880 N   0  0  0  0  0  1  0  0  0  0  0  0
  179.0660  180.7850  141.9580 C   0  0  0  0  0  1  0  0  0  0  0  0
  179.6160  179.4480  141.8150 N   0  0  0  0  0  2  0  0  0  0  0  0
  180.1780  178.6860  136.3210 C   0  0  0  0  0  0  0  0  0  0  0  0
  181.1600  178.7880  137.0070 C   0  0  0  0  0  0  0  0  0  0  0  0
  178.9880  178.5380  135.4840 C   0  0  0  0  0  2  0  0  0  0  0  0
  178.9360  177.1430  134.8970 C   0  0  0  0  0  2  0  0  0  0  0  0
  179.6210  176.2610  135.7320 O   0  0  0  0  0  0  0  0  0  0  0  0
  180.0960  175.2430  134.8970 C   0  0  1  0  0  3  0  0  0  0  0  0
  181.4140  174.6760  135.4370 C   0  0  1  0  0  3  0  0  0  0  0  0
  182.4950  175.1940  134.7230 O   0  0  0  0  0  1  0  0  0  0  0  0
  181.6180  174.8900  136.9410 C   0  0  0  0  0  2  0  0  0  0  0  0
  183.8030  173.7070  137.4120 C   0  0  0  0  0  3  0  0  0  0  0  0
  183.3290  172.5910  137.0690 O   0  0  0  0  0  0  0  0  0  0  0  0
  183.0290  174.9020  137.2950 N   0  0  0  0  0  2  0  0  0  0  0  0
  179.0350  174.1540  134.7360 C   0  0  0  0  0  2  0  0  0  0  0  0
  179.3670  172.9150  135.5510 C   0  0  0  0  0  2  0  0  0  0  0  0
  180.0960  172.0120  134.7750 O   0  0  0  0  0  0  0  0  0  0  0  0
  180.2350  169.6570  134.7850 C   0  0  0  0  0  2  0  0  0  0  0  0
  180.3080  170.9180  135.6130 C   0  0  0  0  0  3  0  0  0  0  0  0
  181.5820  170.1990  135.2060 C   0  0  0  0  0  2  0  0  0  0  0  0
  193.8080  176.3090  135.7560 C   0  0  0  0  0  2  0  0  0  0  0  0
  195.1790  175.6770  135.9480 C   0  0  0  0  0  2  0  0  0  0  0  0
  195.1030  174.1680  135.7890 C   0  0  0  0  0  1  0  0  0  0  0  0
  1  2  1  0  0  0  0
  1 40  2  0  0  0  0
  3 44  1  6  0  0  0
  3 12  1  0  0  0  0
  4 16  1  0  0  0  0
  5 24  1  0  0  0  0
  6 22  1  1  0  0  0
  6 18  1  0  0  0  0
  7 43  1  6  0  0  0
  7 22  1  0  0  0  0
  8  7  1  0  0  0  0
  8 11  1  0  0  0  0
  9  5  1  0  0  0  0
  9 19  1  0  0  0  0
 11 14  1  0  0  0  0
 12 13  1  0  0  0  0
 13 19  1  0  0  0  0
 13  4  1  1  0  0  0
 14  6  1  0  0  0  0
 15 26  1  0  0  0  0
 16 20  1  0  0  0  0
 17 37  1  0  0  0  0
 19 29  2  0  0  0  0
 20 29  1  6  0  0  0
 20  1  1  0  0  0  0
 24 47  1  0  0  0  0
 24 15  2  0  0  0  0
 26  2  2  0  0  0  0
 27 25  1  0  0  0  0
 28 25  1  0  0  0  0
 29 15  1  0  0  0  0
 30 43  1  0  0  0  0
 31 27  1  0  0  0  0
 32  9  2  0  0  0  0
 33 37  2  0  0  0  0
 34 41  1  0  0  0  0
 34 31  1  0  0  0  0
 35 10  1  0  0  0  0
 35 23  1  0  0  0  0
 36 32  1  0  0  0  0
 36 12  2  0  0  0  0
 37  8  1  0  0  0  0
 38 21  1  0  0  0  0
 38 30  1  0  0  0  0
 39 21  1  0  0  0  0
 39  3  1  0  0  0  0
 40 23  2  0  0  0  0
 41 18  1  6  0  0  0
 41 28  1  0  0  0  0
 42 41  1  0  0  0  0
 42 10  1  0  0  0  0
 44 45  1  0  0  0  0
 47 46  1  0  0  0  0
 48 49  3  0  0  0  0
 49 32  1  0  0  0  0
 50 48  1  0  0  0  0
 51 50  1  0  0  0  0
 51 52  1  0  0  0  0
 53 60  1  1  0  0  0
 53 54  1  0  0  0  0
 53 52  1  0  0  0  0
 54 55  1  6  0  0  0
 54 56  1  0  0  0  0
 56 59  1  0  0  0  0
 58 57  2  0  0  0  0
 59 57  1  0  0  0  0
 60 61  1  0  0  0  0
 62 61  1  0  0  0  0
 62 64  1  0  0  0  0
 63 65  1  0  0  0  0
 63 64  1  0  0  0  0
 65 64  1  0  0  0  0
 66 67  1  0  0  0  0
 66 17  1  0  0  0  0
 68 67  1  0  0  0  0
M  END
>  <MODEL>
2

>  <REMARK>
 VINA RESULT:      -3.4      3.767     11.939
  Name = 
  16 active torsions:
  status: ('A' for Active; 'I' for Inactive)
    1  A    between atoms: C_2  and  C_13
    2  A    between atoms: C_2  and  N_56
    3  A    between atoms: C_5  and  C_54
    4  A    between atoms: O_9  and  C_39
    5  A    between atoms: O_9  and  C_68
    6  A    between atoms: C_13  and  C_68
    7  A    between atoms: C_21  and  O_46
    8  A    between atoms: N_23  and  C_29
    9  A    between atoms: C_29  and  C_45
   10  A    between atoms: C_32  and  N_64
   11  A    between atoms: C_39  and  C_52
   12  A    between atoms: C_41  and  C_52
   13  A    between atoms: C_44  and  C_55
   14  A    between atoms: O_46  and  C_53
   15  A    between atoms: C_53  and  C_61
   16  A    between atoms: C_61  and  C_68
                            x       y       z     vdW  Elec       q    Type
                         _______ _______ _______ _____ _____    ______ ____

>  <TORSDO>
F 16

$$$$
