=
 OpenBabel11032420593D

 39 42  0  0  1  0  0  0  0  0999 V2000
  185.4490  175.5740  137.1660 N   0  0  0  0  0  2  0  0  0  0  0  0
  184.1800  175.4480  136.9670 C   0  0  0  0  0  0  0  0  0  0  0  0
  182.7400  176.2420  139.4550 O   0  0  0  0  0  0  0  0  0  0  0  0
  182.2150  178.1260  137.3510 C   0  0  0  0  0  0  0  0  0  0  0  0
  182.0520  179.0510  138.2650 C   0  0  0  0  0  0  0  0  0  0  0  0
  182.9840  174.7700  136.2820 N   0  0  0  0  0  2  0  0  0  0  0  0
  182.1820  178.6760  139.7250 C   0  0  1  0  0  3  0  0  0  0  0  0
  182.8650  175.8120  137.1960 C   0  0  1  0  0  0  0  0  0  0  0  0
  182.3040  175.3690  138.4750 N   0  0  0  0  0  2  0  0  0  0  0  0
  180.8030  176.8860  140.5240 O   0  0  0  0  0  0  0  0  0  0  0  0
  181.8830  177.2190  139.9700 C   0  0  0  0  0  0  0  0  0  0  0  0
  182.3770  177.0870  136.5810 C   0  0  0  0  0  3  0  0  0  0  0  0
  184.3440  179.6870  139.5570 O   0  0  0  0  0  0  0  0  0  0  0  0
  183.8910  178.5950  141.5790 N   0  0  0  0  0  2  0  0  0  0  0  0
  185.1320  178.8850  142.2320 C   0  0  0  0  0  0  0  0  0  0  0  0
  185.9420  179.7120  141.7320 O   0  0  0  0  0  0  0  0  0  0  0  0
  183.5280  179.0430  140.2690 C   0  0  0  0  0  0  0  0  0  0  0  0
  185.4340  178.2010  143.5310 C   0  0  0  0  0  2  0  0  0  0  0  0
  184.7600  178.8750  144.7200 C   0  0  0  0  0  2  0  0  0  0  0  0
  187.1480  177.6510  146.8870 C   0  0  1  0  0  3  0  0  0  0  0  0
  185.2330  178.2590  146.0250 C   0  0  1  0  0  3  0  0  0  0  0  0
  186.7270  178.7770  147.6160 O   0  0  0  0  0  0  0  0  0  0  0  0
  186.3190  177.4350  145.7790 O   0  0  0  0  0  0  0  0  0  0  0  0
  185.6670  179.2880  146.9420 N   0  0  0  0  0  2  0  0  0  0  0  0
  188.6090  177.8090  146.4700 C   0  0  1  0  0  3  0  0  0  0  0  0
  189.5280  177.3570  147.5900 C   0  0  0  0  0  1  0  0  0  0  0  0
  188.9110  177.0390  145.1890 C   0  0  0  0  0  2  0  0  0  0  0  0
  189.3610  177.9790  144.0850 C   0  0  0  0  0  2  0  0  0  0  0  0
  190.3920  178.7960  144.5520 O   0  0  0  0  0  0  0  0  0  0  0  0
  191.5470  178.2820  143.9640 C   0  0  0  0  0  1  0  0  0  0  0  0
  181.7810  180.4110  137.9080 N   0  0  0  0  0  2  0  0  0  0  0  0
  180.5570  180.8430  137.2400 C   0  0  0  0  0  2  0  0  0  0  0  0
  180.4060  183.8300  134.9700 N   0  0  0  0  0  0  0  0  0  0  0  0
  181.2440  183.2400  137.5330 C   0  0  0  0  0  3  0  0  0  0  0  0
  181.3510  184.5430  137.0440 C   0  0  0  0  0  0  0  0  0  0  0  0
  180.9220  184.8220  135.7450 C   0  0  0  0  0  3  0  0  0  0  0  0
  180.7180  182.2330  136.7220 C   0  0  0  0  0  0  0  0  0  0  0  0
  180.2920  182.5530  135.4300 C   0  0  0  0  0  3  0  0  0  0  0  0
  181.8480  185.5300  137.8280 F   0  0  0  0  0  0  0  0  0  0  0  0
  2  1  2  0  0  0  0
  2  8  1  0  0  0  0
  3 11  1  0  0  0  0
  4  5  2  0  0  0  0
  5  7  1  0  0  0  0
  6  2  1  0  0  0  0
  6  8  1  0  0  0  0
  7 11  1  0  0  0  0
  7 17  1  6  0  0  0
  8 12  1  6  0  0  0
  8  9  1  0  0  0  0
  9  3  1  0  0  0  0
 11 10  2  0  0  0  0
 12  4  2  0  0  0  0
 13 17  2  0  0  0  0
 14 15  1  0  0  0  0
 15 18  1  0  0  0  0
 16 15  2  0  0  0  0
 17 14  1  0  0  0  0
 18 19  1  0  0  0  0
 20 25  1  6  0  0  0
 20 22  1  0  0  0  0
 21 19  1  6  0  0  0
 21 24  1  0  0  0  0
 23 21  1  0  0  0  0
 23 20  1  0  0  0  0
 24 22  1  0  0  0  0
 25 26  1  1  0  0  0
 27 25  1  0  0  0  0
 28 29  1  0  0  0  0
 28 27  1  0  0  0  0
 30 29  1  0  0  0  0
 31  5  1  0  0  0  0
 32 31  1  0  0  0  0
 33 38  2  0  0  0  0
 33 36  1  0  0  0  0
 35 34  1  0  0  0  0
 35 39  1  0  0  0  0
 36 35  2  0  0  0  0
 37 32  1  0  0  0  0
 37 34  2  0  0  0  0
 38 37  1  0  0  0  0
M  END
>  <MODEL>
1

>  <REMARK>
 VINA RESULT:      -8.4      0.000      0.000
  Name = 
  11 active torsions:
  status: ('A' for Active; 'I' for Inactive)
    1  A    between atoms: C_3  and  C_25
    2  A    between atoms: C_4  and  C_23
    3  A    between atoms: C_8  and  C_27
    4  A    between atoms: C_8  and  N_34
    5  A    between atoms: C_13  and  C_25
    6  A    between atoms: C_13  and  C_31
    7  A    between atoms: O_14  and  C_31
    8  A    between atoms: C_15  and  N_34
    9  A    between atoms: C_20  and  C_32
   10  A    between atoms: C_21  and  C_38
   11  A    between atoms: C_23  and  C_38
                            x       y       z     vdW  Elec       q    Type
                         _______ _______ _______ _____ _____    ______ ____

>  <TORSDO>
F 11

$$$$
=
 OpenBabel11032420593D

 39 42  0  0  1  0  0  0  0  0999 V2000
  192.4800  174.5420  145.4220 N   0  0  0  0  0  2  0  0  0  0  0  0
  192.0200  175.5310  146.1110 C   0  0  0  0  0  0  0  0  0  0  0  0
  191.7090  177.8880  144.3100 O   0  0  0  0  0  0  0  0  0  0  0  0
  189.1390  176.9460  145.1790 C   0  0  0  0  0  0  0  0  0  0  0  0
  188.6310  177.3990  144.0590 C   0  0  0  0  0  0  0  0  0  0  0  0
  191.8770  176.3020  147.4330 N   0  0  0  0  0  2  0  0  0  0  0  0
  189.5360  178.0960  143.0680 C   0  0  1  0  0  3  0  0  0  0  0  0
  191.2880  176.6980  146.2370 C   0  0  1  0  0  0  0  0  0  0  0  0
  191.9170  177.8980  145.6770 N   0  0  0  0  0  2  0  0  0  0  0  0
  190.8090  179.9630  143.8710 O   0  0  0  0  0  0  0  0  0  0  0  0
  190.7410  178.7140  143.7310 C   0  0  0  0  0  0  0  0  0  0  0  0
  189.7950  176.5860  146.2460 C   0  0  0  0  0  3  0  0  0  0  0  0
  190.2950  175.9950  142.2140 O   0  0  0  0  0  0  0  0  0  0  0  0
  190.0050  177.6890  140.6220 N   0  0  0  0  0  2  0  0  0  0  0  0
  190.3630  176.9260  139.4660 C   0  0  0  0  0  0  0  0  0  0  0  0
  190.5050  175.6750  139.5420 O   0  0  0  0  0  0  0  0  0  0  0  0
  189.9490  177.1790  141.9590 C   0  0  0  0  0  0  0  0  0  0  0  0
  190.5450  177.6430  138.1620 C   0  0  0  0  0  2  0  0  0  0  0  0
  189.8550  176.9330  137.0030 C   0  0  0  0  0  2  0  0  0  0  0  0
  186.6240  178.0750  136.6150 C   0  0  1  0  0  3  0  0  0  0  0  0
  188.7830  177.8200  136.3930 C   0  0  1  0  0  3  0  0  0  0  0  0
  187.2150  179.2290  137.1590 O   0  0  0  0  0  0  0  0  0  0  0  0
  187.5950  177.1140  136.3060 O   0  0  0  0  0  0  0  0  0  0  0  0
  188.5440  178.9740  137.2300 N   0  0  0  0  0  2  0  0  0  0  0  0
  185.5720  177.5190  137.5740 C   0  0  1  0  0  3  0  0  0  0  0  0
  185.3080  178.5060  138.6960 C   0  0  0  0  0  1  0  0  0  0  0  0
  184.2770  177.1790  136.8460 C   0  0  0  0  0  2  0  0  0  0  0  0
  184.3300  175.7740  136.2720 C   0  0  0  0  0  2  0  0  0  0  0  0
  185.0390  174.9380  137.1360 O   0  0  0  0  0  0  0  0  0  0  0  0
  184.0700  174.1110  137.7030 C   0  0  0  0  0  1  0  0  0  0  0  0
  187.2450  177.2210  143.7440 N   0  0  0  0  0  2  0  0  0  0  0  0
  186.5030  178.0950  142.8390 C   0  0  0  0  0  2  0  0  0  0  0  0
  183.8450  179.0170  145.3240 N   0  0  0  0  0  0  0  0  0  0  0  0
  184.0450  178.5530  142.6110 C   0  0  0  0  0  3  0  0  0  0  0  0
  182.8170  178.9040  143.1720 C   0  0  0  0  0  0  0  0  0  0  0  0
  182.7340  179.1360  144.5460 C   0  0  0  0  0  3  0  0  0  0  0  0
  185.1720  178.4300  143.4250 C   0  0  0  0  0  0  0  0  0  0  0  0
  185.0520  178.6770  144.7950 C   0  0  0  0  0  3  0  0  0  0  0  0
  181.7200  179.0390  142.3880 F   0  0  0  0  0  0  0  0  0  0  0  0
  1  2  2  0  0  0  0
  2  8  1  0  0  0  0
  2  6  1  0  0  0  0
  3  9  1  0  0  0  0
  4 12  2  0  0  0  0
  5  4  2  0  0  0  0
  7 17  1  6  0  0  0
  7 11  1  0  0  0  0
  7  5  1  0  0  0  0
  8 12  1  6  0  0  0
  8  6  1  0  0  0  0
  9  8  1  0  0  0  0
 11 10  2  0  0  0  0
 11  3  1  0  0  0  0
 14 17  1  0  0  0  0
 15 16  2  0  0  0  0
 15 14  1  0  0  0  0
 17 13  2  0  0  0  0
 18 15  1  0  0  0  0
 19 18  1  0  0  0  0
 20 22  1  0  0  0  0
 20 25  1  1  0  0  0
 21 19  1  1  0  0  0
 21 24  1  0  0  0  0
 22 24  1  0  0  0  0
 23 21  1  0  0  0  0
 23 20  1  0  0  0  0
 25 26  1  1  0  0  0
 27 25  1  0  0  0  0
 28 27  1  0  0  0  0
 28 29  1  0  0  0  0
 29 30  1  0  0  0  0
 31  5  1  0  0  0  0
 32 37  1  0  0  0  0
 32 31  1  0  0  0  0
 34 35  2  0  0  0  0
 34 37  1  0  0  0  0
 35 36  1  0  0  0  0
 36 33  2  0  0  0  0
 37 38  2  0  0  0  0
 38 33  1  0  0  0  0
 39 35  1  0  0  0  0
M  END
>  <MODEL>
2

>  <REMARK>
 VINA RESULT:      -8.4      4.651      9.822
  Name = 
  11 active torsions:
  status: ('A' for Active; 'I' for Inactive)
    1  A    between atoms: C_3  and  C_25
    2  A    between atoms: C_4  and  C_23
    3  A    between atoms: C_8  and  C_27
    4  A    between atoms: C_8  and  N_34
    5  A    between atoms: C_13  and  C_25
    6  A    between atoms: C_13  and  C_31
    7  A    between atoms: O_14  and  C_31
    8  A    between atoms: C_15  and  N_34
    9  A    between atoms: C_20  and  C_32
   10  A    between atoms: C_21  and  C_38
   11  A    between atoms: C_23  and  C_38
                            x       y       z     vdW  Elec       q    Type
                         _______ _______ _______ _____ _____    ______ ____

>  <TORSDO>
F 11

$$$$
=
 OpenBabel11032420593D

 39 42  0  0  1  0  0  0  0  0999 V2000
  181.2450  178.7490  143.9450 N   0  0  0  0  0  2  0  0  0  0  0  0
  180.3710  178.5440  143.0180 C   0  0  0  0  0  0  0  0  0  0  0  0
  181.2390  179.9790  140.5520 O   0  0  0  0  0  0  0  0  0  0  0  0
  181.3620  177.1370  140.1520 C   0  0  0  0  0  0  0  0  0  0  0  0
  182.3310  177.3330  139.2920 C   0  0  0  0  0  0  0  0  0  0  0  0
  178.9310  178.2680  142.5610 N   0  0  0  0  0  2  0  0  0  0  0  0
  182.7800  178.7470  138.9970 C   0  0  1  0  0  3  0  0  0  0  0  0
  180.0070  178.4010  141.6910 C   0  0  1  0  0  0  0  0  0  0  0  0
  179.9480  179.6440  140.9190 N   0  0  0  0  0  2  0  0  0  0  0  0
  181.1030  180.3010  138.2740 O   0  0  0  0  0  0  0  0  0  0  0  0
  181.6890  179.7570  139.2470 C   0  0  0  0  0  0  0  0  0  0  0  0
  180.3740  177.1230  141.0020 C   0  0  0  0  0  3  0  0  0  0  0  0
  184.9320  179.7720  139.2030 O   0  0  0  0  0  0  0  0  0  0  0  0
  184.1770  178.6130  141.0930 N   0  0  0  0  0  2  0  0  0  0  0  0
  185.2970  178.8870  141.9420 C   0  0  0  0  0  0  0  0  0  0  0  0
  186.1680  179.7330  141.6020 O   0  0  0  0  0  0  0  0  0  0  0  0
  184.0200  179.1020  139.7570 C   0  0  0  0  0  0  0  0  0  0  0  0
  185.3990  178.1620  143.2500 C   0  0  0  0  0  2  0  0  0  0  0  0
  184.9850  179.0290  144.4330 C   0  0  0  0  0  2  0  0  0  0  0  0
  187.1360  177.6300  146.7380 C   0  0  1  0  0  3  0  0  0  0  0  0
  185.3230  178.3410  145.7450 C   0  0  1  0  0  3  0  0  0  0  0  0
  186.6910  178.7390  147.4780 O   0  0  0  0  0  0  0  0  0  0  0  0
  186.3990  177.4900  145.5560 O   0  0  0  0  0  0  0  0  0  0  0  0
  185.7090  179.3150  146.7410 N   0  0  0  0  0  2  0  0  0  0  0  0
  188.6320  177.7530  146.4530 C   0  0  1  0  0  3  0  0  0  0  0  0
  189.4350  177.1260  147.5790 C   0  0  0  0  0  1  0  0  0  0  0  0
  189.0000  177.1180  145.1170 C   0  0  0  0  0  2  0  0  0  0  0  0
  189.7000  178.1200  144.2160 C   0  0  0  0  0  2  0  0  0  0  0  0
  189.5520  177.7390  142.8820 O   0  0  0  0  0  0  0  0  0  0  0  0
  188.6870  176.6460  142.9190 C   0  0  0  0  0  1  0  0  0  0  0  0
  182.9910  176.2360  138.6500 N   0  0  0  0  0  2  0  0  0  0  0  0
  183.4430  176.2640  137.2620 C   0  0  0  0  0  2  0  0  0  0  0  0
  186.5760  174.2080  137.0330 N   0  0  0  0  0  0  0  0  0  0  0  0
  185.8720  176.8760  137.1010 C   0  0  0  0  0  3  0  0  0  0  0  0
  187.2140  176.5090  136.9910 C   0  0  0  0  0  0  0  0  0  0  0  0
  187.5510  175.1540  136.9570 C   0  0  0  0  0  3  0  0  0  0  0  0
  184.8860  175.8920  137.1850 C   0  0  0  0  0  0  0  0  0  0  0  0
  185.2610  174.5480  137.1400 C   0  0  0  0  0  3  0  0  0  0  0  0
  188.1780  177.4570  136.8970 F   0  0  0  0  0  0  0  0  0  0  0  0
  2  1  2  0  0  0  0
  3  9  1  0  0  0  0
  4 12  2  0  0  0  0
  5  4  2  0  0  0  0
  6  2  1  0  0  0  0
  7 11  1  0  0  0  0
  7  5  1  0  0  0  0
  7 17  1  1  0  0  0
  8 12  1  6  0  0  0
  8  6  1  0  0  0  0
  8  2  1  0  0  0  0
  9  8  1  0  0  0  0
 10 11  2  0  0  0  0
 11  3  1  0  0  0  0
 13 17  2  0  0  0  0
 14 15  1  0  0  0  0
 15 18  1  0  0  0  0
 16 15  2  0  0  0  0
 17 14  1  0  0  0  0
 18 19  1  0  0  0  0
 20 25  1  6  0  0  0
 20 22  1  0  0  0  0
 21 19  1  6  0  0  0
 21 24  1  0  0  0  0
 23 21  1  0  0  0  0
 23 20  1  0  0  0  0
 24 22  1  0  0  0  0
 25 26  1  1  0  0  0
 27 25  1  0  0  0  0
 28 27  1  0  0  0  0
 29 30  1  0  0  0  0
 29 28  1  0  0  0  0
 31  5  1  0  0  0  0
 32 31  1  0  0  0  0
 33 38  1  0  0  0  0
 34 37  1  0  0  0  0
 35 34  2  0  0  0  0
 36 35  1  0  0  0  0
 36 33  2  0  0  0  0
 37 32  1  0  0  0  0
 38 37  2  0  0  0  0
 39 35  1  0  0  0  0
M  END
>  <MODEL>
3

>  <REMARK>
 VINA RESULT:      -8.3      3.026      5.322
  Name = 
  11 active torsions:
  status: ('A' for Active; 'I' for Inactive)
    1  A    between atoms: C_3  and  C_25
    2  A    between atoms: C_4  and  C_23
    3  A    between atoms: C_8  and  C_27
    4  A    between atoms: C_8  and  N_34
    5  A    between atoms: C_13  and  C_25
    6  A    between atoms: C_13  and  C_31
    7  A    between atoms: O_14  and  C_31
    8  A    between atoms: C_15  and  N_34
    9  A    between atoms: C_20  and  C_32
   10  A    between atoms: C_21  and  C_38
   11  A    between atoms: C_23  and  C_38
                            x       y       z     vdW  Elec       q    Type
                         _______ _______ _______ _____ _____    ______ ____

>  <TORSDO>
F 11

$$$$
=
 OpenBabel11032420593D

 39 42  0  0  1  0  0  0  0  0999 V2000
  186.4930  173.6110  137.6100 N   0  0  0  0  0  2  0  0  0  0  0  0
  186.5820  174.3970  136.5910 C   0  0  0  0  0  0  0  0  0  0  0  0
  187.5440  177.0620  137.5210 O   0  0  0  0  0  0  0  0  0  0  0  0
  189.5360  175.7940  135.8860 C   0  0  0  0  0  0  0  0  0  0  0  0
  190.4540  176.4460  136.5570 C   0  0  0  0  0  0  0  0  0  0  0  0
  186.1250  174.8530  135.1970 N   0  0  0  0  0  2  0  0  0  0  0  0
  190.0300  177.3970  137.6540 C   0  0  1  0  0  3  0  0  0  0  0  0
  187.1510  175.4600  135.9130 C   0  0  1  0  0  0  0  0  0  0  0  0
  186.7770  176.7900  136.4030 N   0  0  0  0  0  2  0  0  0  0  0  0
  188.4720  179.1220  137.0670 O   0  0  0  0  0  0  0  0  0  0  0  0
  188.6360  177.9310  137.4400 C   0  0  0  0  0  0  0  0  0  0  0  0
  188.5030  175.2550  135.3030 C   0  0  0  0  0  3  0  0  0  0  0  0
  190.6170  175.6000  139.1210 O   0  0  0  0  0  0  0  0  0  0  0  0
  189.6930  177.4890  140.1530 N   0  0  0  0  0  2  0  0  0  0  0  0
  189.7680  177.0230  141.5040 C   0  0  0  0  0  0  0  0  0  0  0  0
  190.4140  175.9770  141.7860 O   0  0  0  0  0  0  0  0  0  0  0  0
  190.1580  176.7690  139.0070 C   0  0  0  0  0  0  0  0  0  0  0  0
  189.0820  177.8150  142.5750 C   0  0  0  0  0  2  0  0  0  0  0  0
  187.5710  177.8740  142.3830 C   0  0  0  0  0  2  0  0  0  0  0  0
  187.2120  177.2870  145.7620 C   0  0  1  0  0  3  0  0  0  0  0  0
  186.8530  177.3320  143.6070 C   0  0  1  0  0  3  0  0  0  0  0  0
  186.1300  178.1600  145.5620 O   0  0  0  0  0  0  0  0  0  0  0  0
  187.7860  176.9130  144.5410 O   0  0  0  0  0  0  0  0  0  0  0  0
  186.0540  178.3660  144.2240 N   0  0  0  0  0  2  0  0  0  0  0  0
  188.2430  177.9280  146.6910 C   0  0  1  0  0  3  0  0  0  0  0  0
  188.0950  177.3810  148.0990 C   0  0  0  0  0  1  0  0  0  0  0  0
  189.6640  177.7130  146.1820 C   0  0  0  0  0  2  0  0  0  0  0  0
  190.4700  176.8790  147.1630 C   0  0  0  0  0  2  0  0  0  0  0  0
  191.8110  176.8610  146.7750 O   0  0  0  0  0  0  0  0  0  0  0  0
  192.3310  175.7030  147.3520 C   0  0  0  0  0  1  0  0  0  0  0  0
  191.8480  176.2530  136.2910 N   0  0  0  0  0  2  0  0  0  0  0  0
  192.4280  174.9710  135.9030 C   0  0  0  0  0  2  0  0  0  0  0  0
  194.9650  175.1510  138.6650 N   0  0  0  0  0  0  0  0  0  0  0  0
  193.9480  173.2580  136.9330 C   0  0  0  0  0  3  0  0  0  0  0  0
  194.9200  172.9010  137.8680 C   0  0  0  0  0  0  0  0  0  0  0  0
  195.4220  173.8710  138.7370 C   0  0  0  0  0  3  0  0  0  0  0  0
  193.4960  174.5770  136.8690 C   0  0  0  0  0  0  0  0  0  0  0  0
  194.0160  175.5190  137.7600 C   0  0  0  0  0  3  0  0  0  0  0  0
  195.3560  171.6200  137.9470 F   0  0  0  0  0  0  0  0  0  0  0  0
  2  1  2  0  0  0  0
  4  5  2  0  0  0  0
  5  7  1  0  0  0  0
  6  8  1  0  0  0  0
  6  2  1  0  0  0  0
  7 17  1  1  0  0  0
  8 12  1  6  0  0  0
  8  9  1  0  0  0  0
  8  2  1  0  0  0  0
  9  3  1  0  0  0  0
 10 11  2  0  0  0  0
 11  3  1  0  0  0  0
 11  7  1  0  0  0  0
 12  4  2  0  0  0  0
 14 15  1  0  0  0  0
 15 16  2  0  0  0  0
 15 18  1  0  0  0  0
 17 13  2  0  0  0  0
 17 14  1  0  0  0  0
 19 18  1  0  0  0  0
 20 25  1  1  0  0  0
 21 19  1  6  0  0  0
 21 24  1  0  0  0  0
 21 23  1  0  0  0  0
 22 20  1  0  0  0  0
 23 20  1  0  0  0  0
 24 22  1  0  0  0  0
 25 26  1  1  0  0  0
 27 25  1  0  0  0  0
 27 28  1  0  0  0  0
 29 28  1  0  0  0  0
 29 30  1  0  0  0  0
 31  5  1  0  0  0  0
 32 31  1  0  0  0  0
 32 37  1  0  0  0  0
 33 36  1  0  0  0  0
 34 35  1  0  0  0  0
 35 39  1  0  0  0  0
 35 36  2  0  0  0  0
 37 34  2  0  0  0  0
 37 38  1  0  0  0  0
 38 33  2  0  0  0  0
M  END
>  <MODEL>
4

>  <REMARK>
 VINA RESULT:      -8.2      6.207      8.979
  Name = 
  11 active torsions:
  status: ('A' for Active; 'I' for Inactive)
    1  A    between atoms: C_3  and  C_25
    2  A    between atoms: C_4  and  C_23
    3  A    between atoms: C_8  and  C_27
    4  A    between atoms: C_8  and  N_34
    5  A    between atoms: C_13  and  C_25
    6  A    between atoms: C_13  and  C_31
    7  A    between atoms: O_14  and  C_31
    8  A    between atoms: C_15  and  N_34
    9  A    between atoms: C_20  and  C_32
   10  A    between atoms: C_21  and  C_38
   11  A    between atoms: C_23  and  C_38
                            x       y       z     vdW  Elec       q    Type
                         _______ _______ _______ _____ _____    ______ ____

>  <TORSDO>
F 11

$$$$
=
 OpenBabel11032420593D

 39 42  0  0  1  0  0  0  0  0999 V2000
  185.0050  175.5600  137.5740 N   0  0  0  0  0  2  0  0  0  0  0  0
  185.8180  175.8930  136.6300 C   0  0  0  0  0  0  0  0  0  0  0  0
  187.2860  178.3540  137.4550 O   0  0  0  0  0  0  0  0  0  0  0  0
  189.0820  176.1180  137.3160 C   0  0  0  0  0  0  0  0  0  0  0  0
  189.8120  176.6900  138.2430 C   0  0  0  0  0  0  0  0  0  0  0  0
  186.2100  175.9460  135.1450 N   0  0  0  0  0  2  0  0  0  0  0  0
  189.3910  178.0370  138.7870 C   0  0  1  0  0  3  0  0  0  0  0  0
  186.9920  176.4640  136.1720 C   0  0  1  0  0  0  0  0  0  0  0  0
  187.0160  177.9300  136.1670 N   0  0  0  0  0  2  0  0  0  0  0  0
  189.0580  179.8040  137.2010 O   0  0  0  0  0  0  0  0  0  0  0  0
  188.5590  178.8170  137.8010 C   0  0  0  0  0  0  0  0  0  0  0  0
  188.2660  175.7090  136.3870 C   0  0  0  0  0  3  0  0  0  0  0  0
  187.6200  178.5510  140.3100 O   0  0  0  0  0  0  0  0  0  0  0  0
  189.2570  177.0840  141.1200 N   0  0  0  0  0  2  0  0  0  0  0  0
  188.6810  176.8510  142.4090 C   0  0  0  0  0  0  0  0  0  0  0  0
  187.5120  177.2450  142.6700 O   0  0  0  0  0  0  0  0  0  0  0  0
  188.6800  177.9030  140.0970 C   0  0  0  0  0  0  0  0  0  0  0  0
  189.4900  176.1110  143.4320 C   0  0  0  0  0  2  0  0  0  0  0  0
  190.8850  176.6970  143.6110 C   0  0  0  0  0  2  0  0  0  0  0  0
  189.6780  177.8320  146.6360 C   0  0  1  0  0  3  0  0  0  0  0  0
  190.9830  177.4550  144.9240 C   0  0  1  0  0  3  0  0  0  0  0  0
  190.6960  176.9790  147.0970 O   0  0  0  0  0  0  0  0  0  0  0  0
  189.7440  177.9830  145.2460 O   0  0  0  0  0  0  0  0  0  0  0  0
  191.3680  176.5650  145.9950 N   0  0  0  0  0  2  0  0  0  0  0  0
  188.3120  177.3090  147.0780 C   0  0  1  0  0  3  0  0  0  0  0  0
  188.0880  177.5990  148.5510 C   0  0  0  0  0  1  0  0  0  0  0  0
  187.1870  177.9060  146.2390 C   0  0  0  0  0  2  0  0  0  0  0  0
  186.1840  178.6330  147.1180 C   0  0  0  0  0  2  0  0  0  0  0  0
  185.2530  179.2990  146.3200 O   0  0  0  0  0  0  0  0  0  0  0  0
  185.1950  178.5520  145.1440 C   0  0  0  0  0  1  0  0  0  0  0  0
  190.9830  176.0520  138.7670 N   0  0  0  0  0  2  0  0  0  0  0  0
  192.3440  176.4310  138.3980 C   0  0  0  0  0  2  0  0  0  0  0  0
  193.0290  173.6860  135.9300 N   0  0  0  0  0  0  0  0  0  0  0  0
  194.2890  174.8770  138.0780 C   0  0  0  0  0  3  0  0  0  0  0  0
  194.9190  173.8440  137.3810 C   0  0  0  0  0  0  0  0  0  0  0  0
  194.2660  173.2540  136.2970 C   0  0  0  0  0  3  0  0  0  0  0  0
  193.0170  175.3020  137.6920 C   0  0  0  0  0  0  0  0  0  0  0  0
  192.3990  174.6930  136.5970 C   0  0  0  0  0  3  0  0  0  0  0  0
  196.1590  173.4330  137.7400 F   0  0  0  0  0  0  0  0  0  0  0  0
  2  1  2  0  0  0  0
  3 11  1  0  0  0  0
  4  5  2  0  0  0  0
  5 31  1  0  0  0  0
  5  7  1  0  0  0  0
  6  8  1  0  0  0  0
  6  2  1  0  0  0  0
  7 17  1  1  0  0  0
  8 12  1  1  0  0  0
  8  2  1  0  0  0  0
  9  8  1  0  0  0  0
  9  3  1  0  0  0  0
 10 11  2  0  0  0  0
 11  7  1  0  0  0  0
 12  4  2  0  0  0  0
 14 15  1  0  0  0  0
 15 16  2  0  0  0  0
 15 18  1  0  0  0  0
 17 13  2  0  0  0  0
 17 14  1  0  0  0  0
 18 19  1  0  0  0  0
 20 25  1  6  0  0  0
 20 22  1  0  0  0  0
 21 19  1  6  0  0  0
 21 23  1  0  0  0  0
 21 24  1  0  0  0  0
 23 20  1  0  0  0  0
 24 22  1  0  0  0  0
 25 26  1  1  0  0  0
 27 25  1  0  0  0  0
 27 28  1  0  0  0  0
 29 28  1  0  0  0  0
 30 29  1  0  0  0  0
 32 31  1  0  0  0  0
 33 36  2  0  0  0  0
 33 38  1  0  0  0  0
 35 39  1  0  0  0  0
 35 34  2  0  0  0  0
 36 35  1  0  0  0  0
 37 34  1  0  0  0  0
 37 32  1  0  0  0  0
 38 37  2  0  0  0  0
M  END
>  <MODEL>
5

>  <REMARK>
 VINA RESULT:      -8.1      5.746      8.712
  Name = 
  11 active torsions:
  status: ('A' for Active; 'I' for Inactive)
    1  A    between atoms: C_3  and  C_25
    2  A    between atoms: C_4  and  C_23
    3  A    between atoms: C_8  and  C_27
    4  A    between atoms: C_8  and  N_34
    5  A    between atoms: C_13  and  C_25
    6  A    between atoms: C_13  and  C_31
    7  A    between atoms: O_14  and  C_31
    8  A    between atoms: C_15  and  N_34
    9  A    between atoms: C_20  and  C_32
   10  A    between atoms: C_21  and  C_38
   11  A    between atoms: C_23  and  C_38
                            x       y       z     vdW  Elec       q    Type
                         _______ _______ _______ _____ _____    ______ ____

>  <TORSDO>
F 11

$$$$
=
 OpenBabel11032420593D

 39 42  0  0  1  0  0  0  0  0999 V2000
  185.1240  172.8770  138.0800 N   0  0  0  0  0  2  0  0  0  0  0  0
  185.5250  173.3350  136.9430 C   0  0  0  0  0  0  0  0  0  0  0  0
  183.9260  175.7620  136.2730 O   0  0  0  0  0  0  0  0  0  0  0  0
  186.6620  176.4740  136.7780 C   0  0  0  0  0  0  0  0  0  0  0  0
  186.2470  177.6490  137.1850 C   0  0  0  0  0  0  0  0  0  0  0  0
  186.1260  173.1300  135.5430 N   0  0  0  0  0  2  0  0  0  0  0  0
  184.7680  177.9610  137.1480 C   0  0  1  0  0  3  0  0  0  0  0  0
  185.7470  174.3690  136.0510 C   0  0  1  0  0  0  0  0  0  0  0  0
  184.5500  174.8980  135.3910 N   0  0  0  0  0  2  0  0  0  0  0  0
  183.6420  177.6930  135.0480 O   0  0  0  0  0  0  0  0  0  0  0  0
  184.0370  177.1460  136.1110 C   0  0  0  0  0  0  0  0  0  0  0  0
  186.9050  175.2810  136.3140 C   0  0  0  0  0  3  0  0  0  0  0  0
  183.0200  177.2230  138.6060 O   0  0  0  0  0  0  0  0  0  0  0  0
  184.7890  178.3600  139.6390 N   0  0  0  0  0  2  0  0  0  0  0  0
  184.3120  178.2660  140.9860 C   0  0  0  0  0  0  0  0  0  0  0  0
  183.3350  177.5220  141.2700 O   0  0  0  0  0  0  0  0  0  0  0  0
  184.1370  177.7980  138.4960 C   0  0  0  0  0  0  0  0  0  0  0  0
  185.0140  179.0540  142.0500 C   0  0  0  0  0  2  0  0  0  0  0  0
  186.1030  178.2510  142.7520 C   0  0  0  0  0  2  0  0  0  0  0  0
  186.6250  177.7070  146.1170 C   0  0  1  0  0  3  0  0  0  0  0  0
  185.6700  177.8760  144.1590 C   0  0  1  0  0  3  0  0  0  0  0  0
  185.7680  178.8190  146.1920 O   0  0  0  0  0  0  0  0  0  0  0  0
  186.7100  177.2280  144.8040 O   0  0  0  0  0  0  0  0  0  0  0  0
  185.3530  179.0600  144.9240 N   0  0  0  0  0  2  0  0  0  0  0  0
  188.0030  178.0650  146.6720 C   0  0  1  0  0  3  0  0  0  0  0  0
  188.1210  177.6180  148.1180 C   0  0  0  0  0  1  0  0  0  0  0  0
  189.1190  177.4560  145.8320 C   0  0  0  0  0  2  0  0  0  0  0  0
  190.1780  176.8210  146.7170 C   0  0  0  0  0  2  0  0  0  0  0  0
  191.4480  177.1350  146.2320 O   0  0  0  0  0  0  0  0  0  0  0  0
  191.3350  177.0330  144.8460 C   0  0  0  0  0  1  0  0  0  0  0  0
  187.1620  178.6290  137.6870 N   0  0  0  0  0  2  0  0  0  0  0  0
  188.6070  178.5630  137.4900 C   0  0  0  0  0  2  0  0  0  0  0  0
  190.9110  176.4320  139.5500 N   0  0  0  0  0  0  0  0  0  0  0  0
  188.8760  178.2490  139.9660 C   0  0  0  0  0  3  0  0  0  0  0  0
  189.5210  177.6590  141.0540 C   0  0  0  0  0  0  0  0  0  0  0  0
  190.5490  176.7420  140.8240 C   0  0  0  0  0  3  0  0  0  0  0  0
  189.2570  177.9130  138.6660 C   0  0  0  0  0  0  0  0  0  0  0  0
  190.2950  176.9980  138.4760 C   0  0  0  0  0  3  0  0  0  0  0  0
  189.1670  177.9870  142.3200 F   0  0  0  0  0  0  0  0  0  0  0  0
  2  1  2  0  0  0  0
  4  5  2  0  0  0  0
  5 31  1  0  0  0  0
  6  8  1  0  0  0  0
  6  2  1  0  0  0  0
  7  5  1  0  0  0  0
  7 17  1  1  0  0  0
  8 12  1  1  0  0  0
  8  2  1  0  0  0  0
  9  8  1  0  0  0  0
  9  3  1  0  0  0  0
 10 11  2  0  0  0  0
 11  3  1  0  0  0  0
 11  7  1  0  0  0  0
 12  4  2  0  0  0  0
 14 15  1  0  0  0  0
 15 16  2  0  0  0  0
 15 18  1  0  0  0  0
 17 13  2  0  0  0  0
 17 14  1  0  0  0  0
 18 19  1  0  0  0  0
 20 22  1  0  0  0  0
 20 25  1  6  0  0  0
 21 19  1  6  0  0  0
 21 23  1  0  0  0  0
 21 24  1  0  0  0  0
 23 20  1  0  0  0  0
 24 22  1  0  0  0  0
 25 26  1  1  0  0  0
 27 25  1  0  0  0  0
 27 28  1  0  0  0  0
 29 28  1  0  0  0  0
 30 29  1  0  0  0  0
 32 31  1  0  0  0  0
 32 37  1  0  0  0  0
 33 36  1  0  0  0  0
 34 35  1  0  0  0  0
 35 39  1  0  0  0  0
 36 35  2  0  0  0  0
 37 34  2  0  0  0  0
 38 37  1  0  0  0  0
 38 33  2  0  0  0  0
M  END
>  <MODEL>
6

>  <REMARK>
 VINA RESULT:      -7.9      3.923      5.860
  Name = 
  11 active torsions:
  status: ('A' for Active; 'I' for Inactive)
    1  A    between atoms: C_3  and  C_25
    2  A    between atoms: C_4  and  C_23
    3  A    between atoms: C_8  and  C_27
    4  A    between atoms: C_8  and  N_34
    5  A    between atoms: C_13  and  C_25
    6  A    between atoms: C_13  and  C_31
    7  A    between atoms: O_14  and  C_31
    8  A    between atoms: C_15  and  N_34
    9  A    between atoms: C_20  and  C_32
   10  A    between atoms: C_21  and  C_38
   11  A    between atoms: C_23  and  C_38
                            x       y       z     vdW  Elec       q    Type
                         _______ _______ _______ _____ _____    ______ ____

>  <TORSDO>
F 11

$$$$
=
 OpenBabel11032420593D

 39 42  0  0  1  0  0  0  0  0999 V2000
  179.9040  174.5180  140.6910 N   0  0  0  0  0  2  0  0  0  0  0  0
  180.0300  174.7300  139.4250 C   0  0  0  0  0  0  0  0  0  0  0  0
  180.0170  177.6740  138.9430 O   0  0  0  0  0  0  0  0  0  0  0  0
  182.6020  176.5740  138.3470 C   0  0  0  0  0  0  0  0  0  0  0  0
  183.1310  177.7300  138.6650 C   0  0  0  0  0  0  0  0  0  0  0  0
  179.8210  174.3140  137.9600 N   0  0  0  0  0  2  0  0  0  0  0  0
  182.2230  178.8640  139.0870 C   0  0  1  0  0  3  0  0  0  0  0  0
  180.4510  175.4910  138.3480 C   0  0  1  0  0  0  0  0  0  0  0  0
  179.6390  176.6770  138.0620 N   0  0  0  0  0  2  0  0  0  0  0  0
  180.4620  179.4780  137.5810 O   0  0  0  0  0  0  0  0  0  0  0  0
  180.8330  178.7260  138.5200 C   0  0  0  0  0  0  0  0  0  0  0  0
  181.9160  175.5100  138.0380 C   0  0  0  0  0  3  0  0  0  0  0  0
  181.1460  179.4630  141.1380 O   0  0  0  0  0  0  0  0  0  0  0  0
  183.3470  178.6880  141.3400 N   0  0  0  0  0  2  0  0  0  0  0  0
  183.4430  178.7610  142.7660 C   0  0  0  0  0  0  0  0  0  0  0  0
  182.4170  178.9720  143.4680 O   0  0  0  0  0  0  0  0  0  0  0  0
  182.1790  179.0090  140.5770 C   0  0  0  0  0  0  0  0  0  0  0  0
  184.7840  178.5590  143.4050 C   0  0  0  0  0  2  0  0  0  0  0  0
  184.9260  179.3170  144.7200 C   0  0  0  0  0  2  0  0  0  0  0  0
  187.1970  177.5820  146.6500 C   0  0  1  0  0  3  0  0  0  0  0  0
  185.3280  178.3750  145.8410 C   0  0  1  0  0  3  0  0  0  0  0  0
  186.6890  178.4610  147.6220 O   0  0  0  0  0  0  0  0  0  0  0  0
  186.4550  177.6640  145.4650 O   0  0  0  0  0  0  0  0  0  0  0  0
  185.6610  179.1200  147.0330 N   0  0  0  0  0  2  0  0  0  0  0  0
  188.6780  177.8670  146.4030 C   0  0  1  0  0  3  0  0  0  0  0  0
  189.5390  176.8960  147.1900 C   0  0  0  0  0  1  0  0  0  0  0  0
  189.0200  177.8020  144.9190 C   0  0  0  0  0  2  0  0  0  0  0  0
  190.1600  176.8300  144.6680 C   0  0  0  0  0  2  0  0  0  0  0  0
  190.0910  176.3490  143.3600 O   0  0  0  0  0  0  0  0  0  0  0  0
  188.7480  176.0230  143.1730 C   0  0  0  0  0  1  0  0  0  0  0  0
  184.5480  177.9310  138.6480 N   0  0  0  0  0  2  0  0  0  0  0  0
  185.4090  177.5270  137.5390 C   0  0  0  0  0  2  0  0  0  0  0  0
  188.9950  178.5380  137.0790 N   0  0  0  0  0  0  0  0  0  0  0  0
  187.2850  177.9310  139.1580 C   0  0  0  0  0  3  0  0  0  0  0  0
  188.6070  178.2920  139.4220 C   0  0  0  0  0  0  0  0  0  0  0  0
  189.4570  178.5960  138.3570 C   0  0  0  0  0  3  0  0  0  0  0  0
  186.8300  177.8710  137.8400 C   0  0  0  0  0  0  0  0  0  0  0  0
  187.7080  178.1900  136.8020 C   0  0  0  0  0  3  0  0  0  0  0  0
  189.0550  178.3650  140.6990 F   0  0  0  0  0  0  0  0  0  0  0  0
  2  1  2  0  0  0  0
  4  5  2  0  0  0  0
  5  7  1  0  0  0  0
  6  8  1  0  0  0  0
  6  2  1  0  0  0  0
  7 17  1  1  0  0  0
  8 12  1  6  0  0  0
  8  2  1  0  0  0  0
  9  8  1  0  0  0  0
  9  3  1  0  0  0  0
 10 11  2  0  0  0  0
 11  3  1  0  0  0  0
 11  7  1  0  0  0  0
 12  4  2  0  0  0  0
 14 15  1  0  0  0  0
 15 18  1  0  0  0  0
 15 16  2  0  0  0  0
 17 13  2  0  0  0  0
 17 14  1  0  0  0  0
 18 19  1  0  0  0  0
 20 25  1  6  0  0  0
 20 22  1  0  0  0  0
 21 19  1  6  0  0  0
 21 24  1  0  0  0  0
 23 21  1  0  0  0  0
 23 20  1  0  0  0  0
 24 22  1  0  0  0  0
 25 26  1  1  0  0  0
 27 25  1  0  0  0  0
 28 27  1  0  0  0  0
 29 28  1  0  0  0  0
 30 29  1  0  0  0  0
 31  5  1  0  0  0  0
 32 37  1  0  0  0  0
 32 31  1  0  0  0  0
 33 36  1  0  0  0  0
 34 35  1  0  0  0  0
 35 39  1  0  0  0  0
 36 35  2  0  0  0  0
 37 34  2  0  0  0  0
 38 33  2  0  0  0  0
 38 37  1  0  0  0  0
M  END
>  <MODEL>
7

>  <REMARK>
 VINA RESULT:      -7.7      3.377      4.759
  Name = 
  11 active torsions:
  status: ('A' for Active; 'I' for Inactive)
    1  A    between atoms: C_3  and  C_25
    2  A    between atoms: C_4  and  C_23
    3  A    between atoms: C_8  and  C_27
    4  A    between atoms: C_8  and  N_34
    5  A    between atoms: C_13  and  C_25
    6  A    between atoms: C_13  and  C_31
    7  A    between atoms: O_14  and  C_31
    8  A    between atoms: C_15  and  N_34
    9  A    between atoms: C_20  and  C_32
   10  A    between atoms: C_21  and  C_38
   11  A    between atoms: C_23  and  C_38
                            x       y       z     vdW  Elec       q    Type
                         _______ _______ _______ _____ _____    ______ ____

>  <TORSDO>
F 11

$$$$
=
 OpenBabel11032420593D

 39 42  0  0  1  0  0  0  0  0999 V2000
  195.2320  175.6030  136.9260 N   0  0  0  0  0  2  0  0  0  0  0  0
  194.4690  174.9700  136.1010 C   0  0  0  0  0  0  0  0  0  0  0  0
  191.9940  174.1330  137.5410 O   0  0  0  0  0  0  0  0  0  0  0  0
  191.3770  176.1180  135.5590 C   0  0  0  0  0  0  0  0  0  0  0  0
  190.3700  176.5020  136.3060 C   0  0  0  0  0  0  0  0  0  0  0  0
  194.2640  174.0740  134.8690 N   0  0  0  0  0  2  0  0  0  0  0  0
  190.1000  175.7800  137.6070 C   0  0  1  0  0  3  0  0  0  0  0  0
  193.2240  174.5760  135.6440 C   0  0  1  0  0  0  0  0  0  0  0  0
  192.5660  173.5310  136.4340 N   0  0  0  0  0  2  0  0  0  0  0  0
  189.8090  173.4030  137.5020 O   0  0  0  0  0  0  0  0  0  0  0  0
  190.6170  174.3640  137.5930 C   0  0  0  0  0  0  0  0  0  0  0  0
  192.3890  175.5930  134.9300 C   0  0  0  0  0  3  0  0  0  0  0  0
  191.5130  177.4320  138.6060 O   0  0  0  0  0  0  0  0  0  0  0  0
  190.2130  176.1770  140.0960 N   0  0  0  0  0  2  0  0  0  0  0  0
  190.6340  176.8210  141.3030 C   0  0  0  0  0  0  0  0  0  0  0  0
  191.3150  177.8820  141.2600 O   0  0  0  0  0  0  0  0  0  0  0  0
  190.6440  176.5350  138.7800 C   0  0  0  0  0  0  0  0  0  0  0  0
  190.2290  176.2200  142.6150 C   0  0  0  0  0  2  0  0  0  0  0  0
  191.3490  176.2570  143.6470 C   0  0  0  0  0  2  0  0  0  0  0  0
  189.3220  177.9780  145.8430 C   0  0  1  0  0  3  0  0  0  0  0  0
  191.0650  177.3040  144.7100 C   0  0  1  0  0  3  0  0  0  0  0  0
  190.1620  177.3270  146.7630 O   0  0  0  0  0  0  0  0  0  0  0  0
  189.7860  177.8060  144.5330 O   0  0  0  0  0  0  0  0  0  0  0  0
  191.1230  176.7150  146.0290 N   0  0  0  0  0  2  0  0  0  0  0  0
  187.8850  177.4790  145.9960 C   0  0  1  0  0  3  0  0  0  0  0  0
  187.2700  178.0310  147.2690 C   0  0  0  0  0  1  0  0  0  0  0  0
  187.0330  177.8500  144.7880 C   0  0  0  0  0  2  0  0  0  0  0  0
  185.6250  178.2270  145.2130 C   0  0  0  0  0  2  0  0  0  0  0  0
  184.8650  178.5590  144.0900 O   0  0  0  0  0  0  0  0  0  0  0  0
  183.7370  179.1990  144.6010 C   0  0  0  0  0  1  0  0  0  0  0  0
  189.5420  177.6080  135.9280 N   0  0  0  0  0  2  0  0  0  0  0  0
  188.1930  177.4600  135.3880 C   0  0  0  0  0  2  0  0  0  0  0  0
  186.5440  178.6290  138.5520 N   0  0  0  0  0  0  0  0  0  0  0  0
  185.9200  177.0530  136.3740 C   0  0  0  0  0  3  0  0  0  0  0  0
  184.9760  177.2610  137.3800 C   0  0  0  0  0  0  0  0  0  0  0  0
  185.3090  178.0620  138.4740 C   0  0  0  0  0  3  0  0  0  0  0  0
  187.1840  177.6370  136.4730 C   0  0  0  0  0  0  0  0  0  0  0  0
  187.4780  178.4380  137.5790 C   0  0  0  0  0  3  0  0  0  0  0  0
  183.7420  176.7090  137.2860 F   0  0  0  0  0  0  0  0  0  0  0  0
  2  1  2  0  0  0  0
  3 11  1  0  0  0  0
  4  5  2  0  0  0  0
  5  7  1  0  0  0  0
  6  8  1  0  0  0  0
  6  2  1  0  0  0  0
  7 17  1  1  0  0  0
  8 12  1  6  0  0  0
  8  2  1  0  0  0  0
  8  9  1  0  0  0  0
  9  3  1  0  0  0  0
 10 11  2  0  0  0  0
 11  7  1  0  0  0  0
 12  4  2  0  0  0  0
 13 17  2  0  0  0  0
 14 15  1  0  0  0  0
 15 18  1  0  0  0  0
 16 15  2  0  0  0  0
 17 14  1  0  0  0  0
 18 19  1  0  0  0  0
 20 25  1  6  0  0  0
 20 22  1  0  0  0  0
 21 19  1  6  0  0  0
 21 24  1  0  0  0  0
 23 21  1  0  0  0  0
 23 20  1  0  0  0  0
 24 22  1  0  0  0  0
 25 26  1  1  0  0  0
 27 28  1  0  0  0  0
 27 25  1  0  0  0  0
 29 30  1  0  0  0  0
 29 28  1  0  0  0  0
 31  5  1  0  0  0  0
 32 31  1  0  0  0  0
 32 37  1  0  0  0  0
 34 37  2  0  0  0  0
 34 35  1  0  0  0  0
 35 36  2  0  0  0  0
 36 33  1  0  0  0  0
 37 38  1  0  0  0  0
 38 33  2  0  0  0  0
 39 35  1  0  0  0  0
M  END
>  <MODEL>
8

>  <REMARK>
 VINA RESULT:      -7.7      5.473      7.802
  Name = 
  11 active torsions:
  status: ('A' for Active; 'I' for Inactive)
    1  A    between atoms: C_3  and  C_25
    2  A    between atoms: C_4  and  C_23
    3  A    between atoms: C_8  and  C_27
    4  A    between atoms: C_8  and  N_34
    5  A    between atoms: C_13  and  C_25
    6  A    between atoms: C_13  and  C_31
    7  A    between atoms: O_14  and  C_31
    8  A    between atoms: C_15  and  N_34
    9  A    between atoms: C_20  and  C_32
   10  A    between atoms: C_21  and  C_38
   11  A    between atoms: C_23  and  C_38
                            x       y       z     vdW  Elec       q    Type
                         _______ _______ _______ _____ _____    ______ ____

>  <TORSDO>
F 11

$$$$
=
 OpenBabel11032420593D

 39 42  0  0  1  0  0  0  0  0999 V2000
  181.6000  178.9940  143.7590 N   0  0  0  0  0  2  0  0  0  0  0  0
  180.5070  178.8660  143.0850 C   0  0  0  0  0  0  0  0  0  0  0  0
  180.9810  179.8360  140.3050 O   0  0  0  0  0  0  0  0  0  0  0  0
  180.5320  176.9990  140.3130 C   0  0  0  0  0  0  0  0  0  0  0  0
  181.2850  176.9100  139.2440 C   0  0  0  0  0  0  0  0  0  0  0  0
  178.9740  178.8300  142.9980 N   0  0  0  0  0  2  0  0  0  0  0  0
  181.8760  178.1700  138.6520 C   0  0  1  0  0  3  0  0  0  0  0  0
  179.8160  178.6580  141.9050 C   0  0  1  0  0  0  0  0  0  0  0  0
  179.7790  179.8000  140.9890 N   0  0  0  0  0  2  0  0  0  0  0  0
  180.3560  179.9370  138.0900 O   0  0  0  0  0  0  0  0  0  0  0  0
  181.0600  179.3950  138.9810 C   0  0  0  0  0  0  0  0  0  0  0  0
  179.7890  177.2680  141.3490 C   0  0  0  0  0  3  0  0  0  0  0  0
  184.2340  178.1040  138.2510 O   0  0  0  0  0  0  0  0  0  0  0  0
  183.5920  178.7540  140.4080 N   0  0  0  0  0  2  0  0  0  0  0  0
  184.9030  178.9850  140.9340 C   0  0  0  0  0  0  0  0  0  0  0  0
  185.9070  179.0000  140.1710 O   0  0  0  0  0  0  0  0  0  0  0  0
  183.3040  178.3550  139.0640 C   0  0  0  0  0  0  0  0  0  0  0  0
  185.0510  179.2290  142.4060 C   0  0  0  0  0  2  0  0  0  0  0  0
  185.9790  178.2220  143.0760 C   0  0  0  0  0  2  0  0  0  0  0  0
  186.5710  177.8210  146.4500 C   0  0  1  0  0  3  0  0  0  0  0  0
  185.5630  177.9870  144.5180 C   0  0  1  0  0  3  0  0  0  0  0  0
  185.8560  179.0310  146.4810 O   0  0  0  0  0  0  0  0  0  0  0  0
  186.5450  177.2580  145.1680 O   0  0  0  0  0  0  0  0  0  0  0  0
  185.4210  179.2440  145.2150 N   0  0  0  0  0  2  0  0  0  0  0  0
  188.0030  178.0420  146.9330 C   0  0  1  0  0  3  0  0  0  0  0  0
  188.0960  177.8040  148.4300 C   0  0  0  0  0  1  0  0  0  0  0  0
  188.9890  177.1490  146.1890 C   0  0  0  0  0  2  0  0  0  0  0  0
  189.8790  177.9700  145.2720 C   0  0  0  0  0  2  0  0  0  0  0  0
  191.1950  177.5160  145.3610 O   0  0  0  0  0  0  0  0  0  0  0  0
  191.5290  177.1370  144.0610 C   0  0  0  0  0  1  0  0  0  0  0  0
  181.5800  175.6440  138.6430 N   0  0  0  0  0  2  0  0  0  0  0  0
  181.9630  175.4830  137.2440 C   0  0  0  0  0  2  0  0  0  0  0  0
  183.1180  172.1010  136.0930 N   0  0  0  0  0  0  0  0  0  0  0  0
  184.0520  174.1590  137.6760 C   0  0  0  0  0  3  0  0  0  0  0  0
  184.8320  173.0190  137.4780 C   0  0  0  0  0  0  0  0  0  0  0  0
  184.3430  171.9880  136.6730 C   0  0  0  0  0  3  0  0  0  0  0  0
  182.7950  174.2540  137.0780 C   0  0  0  0  0  0  0  0  0  0  0  0
  182.3430  173.2060  136.2730 C   0  0  0  0  0  3  0  0  0  0  0  0
  186.0590  172.9220  138.0440 F   0  0  0  0  0  0  0  0  0  0  0  0
  2  1  2  0  0  0  0
  3  9  1  0  0  0  0
  4 12  2  0  0  0  0
  5  4  2  0  0  0  0
  6  2  1  0  0  0  0
  7 11  1  0  0  0  0
  7 17  1  1  0  0  0
  7  5  1  0  0  0  0
  8 12  1  6  0  0  0
  8  6  1  0  0  0  0
  8  2  1  0  0  0  0
  9  8  1  0  0  0  0
 10 11  2  0  0  0  0
 11  3  1  0  0  0  0
 13 17  2  0  0  0  0
 14 15  1  0  0  0  0
 15 18  1  0  0  0  0
 16 15  2  0  0  0  0
 17 14  1  0  0  0  0
 18 19  1  0  0  0  0
 20 22  1  0  0  0  0
 20 25  1  6  0  0  0
 21 19  1  6  0  0  0
 21 23  1  0  0  0  0
 21 24  1  0  0  0  0
 23 20  1  0  0  0  0
 24 22  1  0  0  0  0
 25 26  1  1  0  0  0
 27 25  1  0  0  0  0
 28 29  1  0  0  0  0
 28 27  1  0  0  0  0
 30 29  1  0  0  0  0
 31  5  1  0  0  0  0
 32 31  1  0  0  0  0
 33 38  2  0  0  0  0
 33 36  1  0  0  0  0
 35 34  1  0  0  0  0
 35 39  1  0  0  0  0
 36 35  2  0  0  0  0
 37 32  1  0  0  0  0
 37 34  2  0  0  0  0
 38 37  1  0  0  0  0
M  END
>  <MODEL>
9

>  <REMARK>
 VINA RESULT:      -7.6      3.410      5.904
  Name = 
  11 active torsions:
  status: ('A' for Active; 'I' for Inactive)
    1  A    between atoms: C_3  and  C_25
    2  A    between atoms: C_4  and  C_23
    3  A    between atoms: C_8  and  C_27
    4  A    between atoms: C_8  and  N_34
    5  A    between atoms: C_13  and  C_25
    6  A    between atoms: C_13  and  C_31
    7  A    between atoms: O_14  and  C_31
    8  A    between atoms: C_15  and  N_34
    9  A    between atoms: C_20  and  C_32
   10  A    between atoms: C_21  and  C_38
   11  A    between atoms: C_23  and  C_38
                            x       y       z     vdW  Elec       q    Type
                         _______ _______ _______ _____ _____    ______ ____

>  <TORSDO>
F 11

$$$$
