=
 OpenBabel11042412303D

 31 31  0  0  1  0  0  0  0  0999 V2000
  185.2770  178.1770  143.0680 C   0  0  0  0  0  3  0  0  0  0  0  0
  183.0810  178.9900  143.6550 C   0  0  0  0  0  3  0  0  0  0  0  0
  185.1090  178.7880  146.7580 N   0  0  0  0  0  1  0  0  0  0  0  0
  184.7530  178.6660  145.3840 C   0  0  0  0  0  0  0  0  0  0  0  0
  183.9890  178.5560  142.6880 C   0  0  0  0  0  0  0  0  0  0  0  0
  185.6850  178.2230  144.4110 C   0  0  0  0  0  0  0  0  0  0  0  0
  183.4630  179.0430  144.9960 C   0  0  0  0  0  3  0  0  0  0  0  0
  183.5350  178.5380  140.9920 S   0  0  0  0  0  0  0  0  0  0  0  0
  182.2170  179.2380  140.8220 O   0  0  0  0  0  0  0  0  0  0  0  0
  183.3860  177.1160  140.5250 O   0  0  0  0  0  0  0  0  0  0  0  0
  184.7370  179.3520  140.0440 N   0  0  0  0  0  2  0  0  0  0  0  0
  185.5460  178.3480  139.3660 C   0  0  1  0  0  3  0  0  0  0  0  0
  185.2810  178.3980  137.8680 C   0  0  0  0  0  2  0  0  0  0  0  0
  184.8730  177.0330  137.3390 C   0  0  0  0  0  2  0  0  0  0  0  0
  185.0850  176.9520  135.8370 C   0  0  0  0  0  2  0  0  0  0  0  0
  187.0940  175.5230  136.2070 C   0  0  0  0  0  1  0  0  0  0  0  0
  186.5580  176.7630  135.5180 C   0  0  0  0  0  2  0  0  0  0  0  0
  186.9610  178.5620  139.6530 N   0  0  0  0  0  2  0  0  0  0  0  0
  189.2530  178.4560  139.0260 C   0  0  0  0  0  2  0  0  0  0  0  0
  187.9900  178.1790  138.7440 C   0  0  0  0  0  3  0  0  0  0  0  0
  187.4360  177.5850  146.0070 C   0  0  0  0  0  3  0  0  0  0  0  0
  187.0860  177.8320  144.7330 C   0  0  0  0  0  0  0  0  0  0  0  0
  188.7270  177.1680  146.4780 N   0  0  0  0  0  2  0  0  0  0  0  0
  189.3360  177.5140  147.7530 C   0  0  0  0  0  2  0  0  0  0  0  0
  188.2760  178.0590  148.6850 C   0  0  0  0  0  1  0  0  0  0  0  0
  188.0640  177.6920  143.6030 C   0  0  0  0  0  2  0  0  0  0  0  0
  188.1890  176.2330  143.1950 C   0  0  0  0  0  2  0  0  0  0  0  0
  189.5380  175.8050  143.3160 O   0  0  0  0  0  0  0  0  0  0  0  0
  190.5420  176.2820  142.4740 C   0  0  0  0  0  0  0  0  0  0  0  0
  191.6760  176.8940  142.9950 O   0  0  0  0  0  1  0  0  0  0  0  0
  190.4160  176.1660  141.2280 O   0  0  0  0  0  0  0  0  0  0  0  0
  1  6  1  0  0  0  0
  2  7  2  0  0  0  0
  4  3  1  0  0  0  0
  5  1  2  0  0  0  0
  5  2  1  0  0  0  0
  6 22  1  0  0  0  0
  6  4  2  0  0  0  0
  7  4  1  0  0  0  0
  8  5  1  0  0  0  0
  9  8  2  0  0  0  0
 10  8  2  0  0  0  0
 11  8  1  0  0  0  0
 12 13  1  6  0  0  0
 12 18  1  0  0  0  0
 12 11  1  0  0  0  0
 14 13  1  0  0  0  0
 15 14  1  0  0  0  0
 17 15  1  0  0  0  0
 17 16  1  0  0  0  0
 20 19  2  0  0  0  0
 20 18  1  0  0  0  0
 21 23  1  0  0  0  0
 22 21  2  0  0  0  0
 23 24  1  0  0  0  0
 24 25  1  0  0  0  0
 26 22  1  0  0  0  0
 27 28  1  0  0  0  0
 27 26  1  0  0  0  0
 29 30  1  0  0  0  0
 29 28  1  0  0  0  0
 31 29  2  0  0  0  0
M  END
>  <MODEL>
1

>  <REMARK>
 VINA RESULT:      -6.9      0.000      0.000
  Name = 
  16 active torsions:
  status: ('A' for Active; 'I' for Inactive)
    1  A    between atoms: C_1  and  N_7
    2  A    between atoms: C_2  and  O_8
    3  A    between atoms: C_3  and  O_8
    4  A    between atoms: C_3  and  C_28
    5  A    between atoms: C_4  and  C_25
    6  A    between atoms: C_4  and  C_26
    7  A    between atoms: S_6  and  N_16
    8  A    between atoms: S_6  and  C_21
    9  A    between atoms: N_7  and  C_11
   10  A    between atoms: C_9  and  C_15
   11  A    between atoms: C_9  and  N_16
   12  A    between atoms: C_9  and  N_29
   13  A    between atoms: C_14  and  C_27
   14  A    between atoms: C_14  and  C_28
   15  A    between atoms: C_15  and  C_25
   16  A    between atoms: N_29  and  C_30
                            x       y       z     vdW  Elec       q    Type
                         _______ _______ _______ _____ _____    ______ ____

>  <TORSDO>
F 16

$$$$
=
 OpenBabel11042412303D

 31 31  0  0  1  0  0  0  0  0999 V2000
  185.2400  178.0830  143.0630 C   0  0  0  0  0  3  0  0  0  0  0  0
  183.1090  179.0740  143.6150 C   0  0  0  0  0  3  0  0  0  0  0  0
  185.0930  178.7800  146.7390 N   0  0  0  0  0  1  0  0  0  0  0  0
  184.7390  178.6570  145.3640 C   0  0  0  0  0  0  0  0  0  0  0  0
  183.9880  178.5520  142.6650 C   0  0  0  0  0  0  0  0  0  0  0  0
  185.6410  178.1250  144.4080 C   0  0  0  0  0  0  0  0  0  0  0  0
  183.4850  179.1240  144.9580 C   0  0  0  0  0  3  0  0  0  0  0  0
  183.5450  178.5340  140.9650 S   0  0  0  0  0  0  0  0  0  0  0  0
  182.2190  179.2180  140.7890 O   0  0  0  0  0  0  0  0  0  0  0  0
  183.4170  177.1120  140.4920 O   0  0  0  0  0  0  0  0  0  0  0  0
  184.7430  179.3680  140.0290 N   0  0  0  0  0  2  0  0  0  0  0  0
  185.6020  178.3760  139.3950 C   0  0  1  0  0  3  0  0  0  0  0  0
  185.3700  178.3790  137.8900 C   0  0  0  0  0  2  0  0  0  0  0  0
  185.2170  176.9640  137.3580 C   0  0  0  0  0  2  0  0  0  0  0  0
  183.7580  176.6540  137.0650 C   0  0  0  0  0  2  0  0  0  0  0  0
  181.5610  177.7150  137.5750 C   0  0  0  0  0  1  0  0  0  0  0  0
  182.9460  177.9350  136.9980 C   0  0  0  0  0  2  0  0  0  0  0  0
  187.0020  178.6480  139.7060 N   0  0  0  0  0  2  0  0  0  0  0  0
  189.1000  178.5790  138.5870 C   0  0  0  0  0  2  0  0  0  0  0  0
  188.0720  177.9250  139.1030 C   0  0  0  0  0  3  0  0  0  0  0  0
  187.5250  177.8920  145.9620 C   0  0  0  0  0  3  0  0  0  0  0  0
  187.0060  177.6350  144.7500 C   0  0  0  0  0  0  0  0  0  0  0  0
  188.8040  177.4650  146.4570 N   0  0  0  0  0  2  0  0  0  0  0  0
  189.2770  177.5650  147.8290 C   0  0  0  0  0  2  0  0  0  0  0  0
  188.1780  178.1310  148.7020 C   0  0  0  0  0  1  0  0  0  0  0  0
  187.7500  176.8280  143.7260 C   0  0  0  0  0  2  0  0  0  0  0  0
  188.6030  177.7390  142.8580 C   0  0  0  0  0  2  0  0  0  0  0  0
  189.9640  177.6630  143.2590 O   0  0  0  0  0  0  0  0  0  0  0  0
  190.5910  176.4440  143.5120 C   0  0  0  0  0  0  0  0  0  0  0  0
  190.3980  175.3570  142.6680 O   0  0  0  0  0  0  0  0  0  0  0  0
  191.3340  176.3240  144.5200 O   0  0  0  0  0  1  0  0  0  0  0  0
  1  6  1  0  0  0  0
  2  7  2  0  0  0  0
  4  3  1  0  0  0  0
  5  1  2  0  0  0  0
  5  2  1  0  0  0  0
  6 22  1  0  0  0  0
  6  4  2  0  0  0  0
  7  4  1  0  0  0  0
  8  5  1  0  0  0  0
  9  8  2  0  0  0  0
 10  8  2  0  0  0  0
 11  8  1  0  0  0  0
 12 13  1  6  0  0  0
 12 18  1  0  0  0  0
 12 11  1  0  0  0  0
 14 13  1  0  0  0  0
 15 14  1  0  0  0  0
 17 15  1  0  0  0  0
 17 16  1  0  0  0  0
 19 20  2  0  0  0  0
 20 18  1  0  0  0  0
 21 23  1  0  0  0  0
 22 21  2  0  0  0  0
 23 24  1  0  0  0  0
 24 25  1  0  0  0  0
 26 22  1  0  0  0  0
 27 28  1  0  0  0  0
 27 26  1  0  0  0  0
 28 29  1  0  0  0  0
 29 31  1  0  0  0  0
 30 29  2  0  0  0  0
M  END
>  <MODEL>
2

>  <REMARK>
 VINA RESULT:      -6.9      0.967      1.628
  Name = 
  16 active torsions:
  status: ('A' for Active; 'I' for Inactive)
    1  A    between atoms: C_1  and  N_7
    2  A    between atoms: C_2  and  O_8
    3  A    between atoms: C_3  and  O_8
    4  A    between atoms: C_3  and  C_28
    5  A    between atoms: C_4  and  C_25
    6  A    between atoms: C_4  and  C_26
    7  A    between atoms: S_6  and  N_16
    8  A    between atoms: S_6  and  C_21
    9  A    between atoms: N_7  and  C_11
   10  A    between atoms: C_9  and  C_15
   11  A    between atoms: C_9  and  N_16
   12  A    between atoms: C_9  and  N_29
   13  A    between atoms: C_14  and  C_27
   14  A    between atoms: C_14  and  C_28
   15  A    between atoms: C_15  and  C_25
   16  A    between atoms: N_29  and  C_30
                            x       y       z     vdW  Elec       q    Type
                         _______ _______ _______ _____ _____    ______ ____

>  <TORSDO>
F 16

$$$$
=
 OpenBabel11042412303D

 31 31  0  0  1  0  0  0  0  0999 V2000
  188.2470  178.1680  142.2520 C   0  0  0  0  0  3  0  0  0  0  0  0
  190.1170  177.8170  140.7670 C   0  0  0  0  0  3  0  0  0  0  0  0
  187.0710  178.2920  138.6990 N   0  0  0  0  0  1  0  0  0  0  0  0
  187.8930  178.1450  139.8540 C   0  0  0  0  0  0  0  0  0  0  0  0
  189.6100  177.9420  142.0610 C   0  0  0  0  0  0  0  0  0  0  0  0
  187.3660  178.2740  141.1640 C   0  0  0  0  0  0  0  0  0  0  0  0
  189.2600  177.9170  139.6700 C   0  0  0  0  0  3  0  0  0  0  0  0
  190.6890  177.8720  143.4450 S   0  0  0  0  0  0  0  0  0  0  0  0
  190.8570  179.2510  144.0160 O   0  0  0  0  0  0  0  0  0  0  0  0
  192.0360  177.3660  143.0090 O   0  0  0  0  0  0  0  0  0  0  0  0
  190.0270  176.8300  144.6630 N   0  0  0  0  0  2  0  0  0  0  0  0
  190.5170  177.2740  145.9620 C   0  0  1  0  0  3  0  0  0  0  0  0
  189.5610  176.8210  147.0560 C   0  0  0  0  0  2  0  0  0  0  0  0
  189.3340  177.9260  148.0750 C   0  0  0  0  0  2  0  0  0  0  0  0
  187.8530  178.0850  148.3770 C   0  0  0  0  0  2  0  0  0  0  0  0
  185.8920  178.9370  147.0960 C   0  0  0  0  0  1  0  0  0  0  0  0
  187.0350  177.9400  147.1070 C   0  0  0  0  0  2  0  0  0  0  0  0
  191.8610  176.7560  146.1980 N   0  0  0  0  0  2  0  0  0  0  0  0
  192.8110  175.7660  148.1410 C   0  0  0  0  0  2  0  0  0  0  0  0
  192.1090  175.6250  147.0280 C   0  0  0  0  0  3  0  0  0  0  0  0
  185.1240  178.9870  140.4650 C   0  0  0  0  0  3  0  0  0  0  0  0
  185.9290  178.5480  141.4480 C   0  0  0  0  0  0  0  0  0  0  0  0
  183.7180  179.2640  140.5650 N   0  0  0  0  0  2  0  0  0  0  0  0
  182.6360  178.4370  140.0550 C   0  0  0  0  0  2  0  0  0  0  0  0
  183.1890  177.1000  139.6100 C   0  0  0  0  0  1  0  0  0  0  0  0
  185.4140  178.2850  142.8330 C   0  0  0  0  0  2  0  0  0  0  0  0
  185.3750  179.5780  143.6320 C   0  0  0  0  0  2  0  0  0  0  0  0
  184.0350  180.0340  143.7600 O   0  0  0  0  0  0  0  0  0  0  0  0
  183.0360  179.2390  144.3240 C   0  0  0  0  0  0  0  0  0  0  0  0
  181.9410  178.8330  143.5710 O   0  0  0  0  0  0  0  0  0  0  0  0
  183.1230  178.8950  145.5300 O   0  0  0  0  0  1  0  0  0  0  0  0
  2  5  2  0  0  0  0
  3  4  1  0  0  0  0
  4  6  1  0  0  0  0
  5  1  1  0  0  0  0
  5  8  1  0  0  0  0
  6 22  1  0  0  0  0
  6  1  2  0  0  0  0
  7  4  2  0  0  0  0
  7  2  1  0  0  0  0
  8  9  2  0  0  0  0
  8 11  1  0  0  0  0
 10  8  2  0  0  0  0
 11 12  1  0  0  0  0
 12 18  1  0  0  0  0
 12 13  1  1  0  0  0
 13 14  1  0  0  0  0
 14 15  1  0  0  0  0
 16 17  1  0  0  0  0
 17 15  1  0  0  0  0
 18 20  1  0  0  0  0
 20 19  2  0  0  0  0
 21 23  1  0  0  0  0
 21 22  2  0  0  0  0
 22 26  1  0  0  0  0
 24 23  1  0  0  0  0
 25 24  1  0  0  0  0
 26 27  1  0  0  0  0
 27 28  1  0  0  0  0
 28 29  1  0  0  0  0
 29 31  1  0  0  0  0
 30 29  2  0  0  0  0
M  END
>  <MODEL>
3

>  <REMARK>
 VINA RESULT:      -6.8      2.808      8.477
  Name = 
  16 active torsions:
  status: ('A' for Active; 'I' for Inactive)
    1  A    between atoms: C_1  and  N_7
    2  A    between atoms: C_2  and  O_8
    3  A    between atoms: C_3  and  O_8
    4  A    between atoms: C_3  and  C_28
    5  A    between atoms: C_4  and  C_25
    6  A    between atoms: C_4  and  C_26
    7  A    between atoms: S_6  and  N_16
    8  A    between atoms: S_6  and  C_21
    9  A    between atoms: N_7  and  C_11
   10  A    between atoms: C_9  and  C_15
   11  A    between atoms: C_9  and  N_16
   12  A    between atoms: C_9  and  N_29
   13  A    between atoms: C_14  and  C_27
   14  A    between atoms: C_14  and  C_28
   15  A    between atoms: C_15  and  C_25
   16  A    between atoms: N_29  and  C_30
                            x       y       z     vdW  Elec       q    Type
                         _______ _______ _______ _____ _____    ______ ____

>  <TORSDO>
F 16

$$$$
=
 OpenBabel11042412303D

 31 31  0  0  1  0  0  0  0  0999 V2000
  189.1340  176.7500  139.5110 C   0  0  0  0  0  3  0  0  0  0  0  0
  191.5450  176.8440  139.4060 C   0  0  0  0  0  3  0  0  0  0  0  0
  190.2390  176.7190  135.9330 N   0  0  0  0  0  1  0  0  0  0  0  0
  190.2490  176.7190  137.3580 C   0  0  0  0  0  0  0  0  0  0  0  0
  190.3690  176.8240  140.1570 C   0  0  0  0  0  0  0  0  0  0  0  0
  189.0470  176.6970  138.1110 C   0  0  0  0  0  0  0  0  0  0  0  0
  191.4820  176.7910  138.0130 C   0  0  0  0  0  3  0  0  0  0  0  0
  190.4340  176.9450  141.9080 S   0  0  0  0  0  0  0  0  0  0  0  0
  191.7360  177.5760  142.3150 O   0  0  0  0  0  0  0  0  0  0  0  0
  190.3590  175.5700  142.5120 O   0  0  0  0  0  0  0  0  0  0  0  0
  189.1250  177.9230  142.4870 N   0  0  0  0  0  2  0  0  0  0  0  0
  188.5560  177.2780  143.6630 C   0  0  1  0  0  3  0  0  0  0  0  0
  189.1000  177.9330  144.9250 C   0  0  0  0  0  2  0  0  0  0  0  0
  190.1590  177.0620  145.5800 C   0  0  0  0  0  2  0  0  0  0  0  0
  190.0190  177.0910  147.0930 C   0  0  0  0  0  2  0  0  0  0  0  0
  188.2880  178.2230  148.4850 C   0  0  0  0  0  1  0  0  0  0  0  0
  188.5540  177.1090  147.4900 C   0  0  0  0  0  2  0  0  0  0  0  0
  187.0990  177.3520  143.6250 N   0  0  0  0  0  2  0  0  0  0  0  0
  185.3910  178.5760  144.7390 C   0  0  0  0  0  2  0  0  0  0  0  0
  186.3170  177.6330  144.7830 C   0  0  0  0  0  3  0  0  0  0  0  0
  187.1060  175.4670  137.2490 C   0  0  0  0  0  3  0  0  0  0  0  0
  187.6920  176.6520  137.4930 C   0  0  0  0  0  0  0  0  0  0  0  0
  185.7990  175.2520  136.6940 N   0  0  0  0  0  2  0  0  0  0  0  0
  184.7350  174.4470  137.2720 C   0  0  0  0  0  2  0  0  0  0  0  0
  185.2940  173.1080  137.7030 C   0  0  0  0  0  1  0  0  0  0  0  0
  187.0030  177.9500  137.1920 C   0  0  0  0  0  2  0  0  0  0  0  0
  185.7120  178.0580  137.9890 C   0  0  0  0  0  2  0  0  0  0  0  0
  185.9980  178.3940  139.3390 O   0  0  0  0  0  0  0  0  0  0  0  0
  185.2090  179.2910  140.0590 C   0  0  0  0  0  0  0  0  0  0  0  0
  184.2280  180.0440  139.4240 O   0  0  0  0  0  0  0  0  0  0  0  0
  185.3930  179.4280  141.2960 O   0  0  0  0  0  1  0  0  0  0  0  0
  1  5  1  0  0  0  0
  2  5  2  0  0  0  0
  3  4  1  0  0  0  0
  4  7  2  0  0  0  0
  4  6  1  0  0  0  0
  5  8  1  0  0  0  0
  6  1  2  0  0  0  0
  7  2  1  0  0  0  0
  8  9  2  0  0  0  0
  8 11  1  0  0  0  0
  8 10  2  0  0  0  0
 11 12  1  0  0  0  0
 12 13  1  1  0  0  0
 13 14  1  0  0  0  0
 14 15  1  0  0  0  0
 15 17  1  0  0  0  0
 17 16  1  0  0  0  0
 18 12  1  0  0  0  0
 18 20  1  0  0  0  0
 19 20  2  0  0  0  0
 21 22  2  0  0  0  0
 22  6  1  0  0  0  0
 23 21  1  0  0  0  0
 23 24  1  0  0  0  0
 24 25  1  0  0  0  0
 26 22  1  0  0  0  0
 26 27  1  0  0  0  0
 27 28  1  0  0  0  0
 28 29  1  0  0  0  0
 29 31  1  0  0  0  0
 30 29  2  0  0  0  0
M  END
>  <MODEL>
4

>  <REMARK>
 VINA RESULT:      -6.7      2.711      8.764
  Name = 
  16 active torsions:
  status: ('A' for Active; 'I' for Inactive)
    1  A    between atoms: C_1  and  N_7
    2  A    between atoms: C_2  and  O_8
    3  A    between atoms: C_3  and  O_8
    4  A    between atoms: C_3  and  C_28
    5  A    between atoms: C_4  and  C_25
    6  A    between atoms: C_4  and  C_26
    7  A    between atoms: S_6  and  N_16
    8  A    between atoms: S_6  and  C_21
    9  A    between atoms: N_7  and  C_11
   10  A    between atoms: C_9  and  C_15
   11  A    between atoms: C_9  and  N_16
   12  A    between atoms: C_9  and  N_29
   13  A    between atoms: C_14  and  C_27
   14  A    between atoms: C_14  and  C_28
   15  A    between atoms: C_15  and  C_25
   16  A    between atoms: N_29  and  C_30
                            x       y       z     vdW  Elec       q    Type
                         _______ _______ _______ _____ _____    ______ ____

>  <TORSDO>
F 16

$$$$
=
 OpenBabel11042412303D

 31 31  0  0  1  0  0  0  0  0999 V2000
  190.4090  176.5470  139.8260 C   0  0  0  0  0  3  0  0  0  0  0  0
  192.2750  177.4360  141.0740 C   0  0  0  0  0  3  0  0  0  0  0  0
  193.4370  176.6890  137.6280 N   0  0  0  0  0  1  0  0  0  0  0  0
  192.5740  176.7710  138.7590 C   0  0  0  0  0  0  0  0  0  0  0  0
  190.9310  177.0650  141.0120 C   0  0  0  0  0  0  0  0  0  0  0  0
  191.2100  176.3900  138.6840 C   0  0  0  0  0  0  0  0  0  0  0  0
  193.0910  177.2880  139.9520 C   0  0  0  0  0  3  0  0  0  0  0  0
  189.8830  177.2980  142.4020 S   0  0  0  0  0  0  0  0  0  0  0  0
  188.5040  176.7990  142.0750 O   0  0  0  0  0  0  0  0  0  0  0  0
  189.7970  178.7630  142.7290 O   0  0  0  0  0  0  0  0  0  0  0  0
  190.4960  176.4180  143.7650 N   0  0  0  0  0  2  0  0  0  0  0  0
  190.3830  177.2640  144.9460 C   0  0  1  0  0  3  0  0  0  0  0  0
  189.1460  176.8730  145.7430 C   0  0  0  0  0  2  0  0  0  0  0  0
  188.1080  177.9830  145.7180 C   0  0  0  0  0  2  0  0  0  0  0  0
  186.7940  177.4780  145.1450 C   0  0  0  0  0  2  0  0  0  0  0  0
  184.9950  178.3730  146.6200 C   0  0  0  0  0  1  0  0  0  0  0  0
  185.7110  178.5310  145.2920 C   0  0  0  0  0  2  0  0  0  0  0  0
  191.5860  177.1520  145.7640 N   0  0  0  0  0  2  0  0  0  0  0  0
  192.2810  175.6290  147.4540 C   0  0  0  0  0  2  0  0  0  0  0  0
  191.5550  176.6800  147.1080 C   0  0  0  0  0  3  0  0  0  0  0  0
  190.2720  174.5520  137.3550 C   0  0  0  0  0  3  0  0  0  0  0  0
  190.5720  175.8600  137.4460 C   0  0  0  0  0  0  0  0  0  0  0  0
  189.6300  173.8940  136.2520 N   0  0  0  0  0  2  0  0  0  0  0  0
  188.2000  173.6900  136.0810 C   0  0  0  0  0  2  0  0  0  0  0  0
  187.7270  172.6140  137.0340 C   0  0  0  0  0  1  0  0  0  0  0  0
  190.2490  176.8240  136.3430 C   0  0  0  0  0  2  0  0  0  0  0  0
  189.2630  177.8720  136.8330 C   0  0  0  0  0  2  0  0  0  0  0  0
  188.0740  177.2470  137.2930 O   0  0  0  0  0  0  0  0  0  0  0  0
  187.1890  177.8910  138.1580 C   0  0  0  0  0  0  0  0  0  0  0  0
  185.8190  177.8560  137.9290 O   0  0  0  0  0  0  0  0  0  0  0  0
  187.6370  178.5200  139.1510 O   0  0  0  0  0  1  0  0  0  0  0  0
  1  5  1  0  0  0  0
  3  4  1  0  0  0  0
  4  7  2  0  0  0  0
  5  2  2  0  0  0  0
  5  8  1  0  0  0  0
  6  4  1  0  0  0  0
  6  1  2  0  0  0  0
  7  2  1  0  0  0  0
  8 10  2  0  0  0  0
  8 11  1  0  0  0  0
  9  8  2  0  0  0  0
 11 12  1  0  0  0  0
 12 13  1  1  0  0  0
 12 18  1  0  0  0  0
 14 13  1  0  0  0  0
 15 17  1  0  0  0  0
 15 14  1  0  0  0  0
 17 16  1  0  0  0  0
 18 20  1  0  0  0  0
 20 19  2  0  0  0  0
 21 22  2  0  0  0  0
 22  6  1  0  0  0  0
 23 21  1  0  0  0  0
 24 23  1  0  0  0  0
 24 25  1  0  0  0  0
 26 27  1  0  0  0  0
 26 22  1  0  0  0  0
 27 28  1  0  0  0  0
 28 29  1  0  0  0  0
 29 31  1  0  0  0  0
 30 29  2  0  0  0  0
M  END
>  <MODEL>
5

>  <REMARK>
 VINA RESULT:      -6.7      3.385      8.881
  Name = 
  16 active torsions:
  status: ('A' for Active; 'I' for Inactive)
    1  A    between atoms: C_1  and  N_7
    2  A    between atoms: C_2  and  O_8
    3  A    between atoms: C_3  and  O_8
    4  A    between atoms: C_3  and  C_28
    5  A    between atoms: C_4  and  C_25
    6  A    between atoms: C_4  and  C_26
    7  A    between atoms: S_6  and  N_16
    8  A    between atoms: S_6  and  C_21
    9  A    between atoms: N_7  and  C_11
   10  A    between atoms: C_9  and  C_15
   11  A    between atoms: C_9  and  N_16
   12  A    between atoms: C_9  and  N_29
   13  A    between atoms: C_14  and  C_27
   14  A    between atoms: C_14  and  C_28
   15  A    between atoms: C_15  and  C_25
   16  A    between atoms: N_29  and  C_30
                            x       y       z     vdW  Elec       q    Type
                         _______ _______ _______ _____ _____    ______ ____

>  <TORSDO>
F 16

$$$$
=
 OpenBabel11042412303D

 31 31  0  0  1  0  0  0  0  0999 V2000
  185.1190  178.1030  142.9890 C   0  0  0  0  0  3  0  0  0  0  0  0
  182.9870  179.0260  143.6460 C   0  0  0  0  0  3  0  0  0  0  0  0
  185.0970  178.7110  146.6840 N   0  0  0  0  0  1  0  0  0  0  0  0
  184.6930  178.6110  145.3210 C   0  0  0  0  0  0  0  0  0  0  0  0
  183.8410  178.5490  142.6510 C   0  0  0  0  0  0  0  0  0  0  0  0
  185.5700  178.1240  144.3190 C   0  0  0  0  0  0  0  0  0  0  0  0
  183.4130  179.0550  144.9740 C   0  0  0  0  0  3  0  0  0  0  0  0
  183.3340  178.5580  140.9690 S   0  0  0  0  0  0  0  0  0  0  0  0
  183.4860  177.1780  140.3960 O   0  0  0  0  0  0  0  0  0  0  0  0
  184.2040  179.5020  140.1850 O   0  0  0  0  0  0  0  0  0  0  0  0
  181.6730  179.0410  140.8510 N   0  0  0  0  0  2  0  0  0  0  0  0
  181.0120  178.1780  139.8800 C   0  0  1  0  0  3  0  0  0  0  0  0
  179.5890  177.8860  140.3350 C   0  0  0  0  0  2  0  0  0  0  0  0
  179.4890  176.5070  140.9660 C   0  0  0  0  0  2  0  0  0  0  0  0
  180.1990  175.4710  140.1100 C   0  0  0  0  0  2  0  0  0  0  0  0
  179.4030  173.6840  141.6560 C   0  0  0  0  0  1  0  0  0  0  0  0
  179.4960  174.1290  140.2090 C   0  0  0  0  0  2  0  0  0  0  0  0
  181.0190  178.8030  138.5610 N   0  0  0  0  0  2  0  0  0  0  0  0
  182.4140  177.6830  136.9930 C   0  0  0  0  0  2  0  0  0  0  0  0
  181.1990  178.0540  137.3620 C   0  0  0  0  0  3  0  0  0  0  0  0
  187.5340  177.9420  145.7780 C   0  0  0  0  0  3  0  0  0  0  0  0
  186.9590  177.6610  144.5970 C   0  0  0  0  0  0  0  0  0  0  0  0
  188.8440  177.5430  146.2130 N   0  0  0  0  0  2  0  0  0  0  0  0
  189.2600  177.2880  147.5830 C   0  0  0  0  0  2  0  0  0  0  0  0
  188.3900  178.0850  148.5300 C   0  0  0  0  0  1  0  0  0  0  0  0
  187.6640  176.8550  143.5460 C   0  0  0  0  0  2  0  0  0  0  0  0
  188.6180  177.7380  142.7580 C   0  0  0  0  0  2  0  0  0  0  0  0
  188.9170  177.1390  141.5050 O   0  0  0  0  0  0  0  0  0  0  0  0
  188.5290  177.7200  140.2980 C   0  0  0  0  0  0  0  0  0  0  0  0
  187.4840  178.6340  140.2520 O   0  0  0  0  0  1  0  0  0  0  0  0
  189.1270  177.4070  139.2360 O   0  0  0  0  0  0  0  0  0  0  0  0
  1  6  1  0  0  0  0
  2  7  2  0  0  0  0
  4  3  1  0  0  0  0
  5  1  2  0  0  0  0
  5  2  1  0  0  0  0
  6 22  1  0  0  0  0
  6  4  2  0  0  0  0
  7  4  1  0  0  0  0
  8  5  1  0  0  0  0
  9  8  2  0  0  0  0
 10  8  2  0  0  0  0
 11  8  1  0  0  0  0
 12 13  1  1  0  0  0
 12 11  1  0  0  0  0
 13 14  1  0  0  0  0
 15 17  1  0  0  0  0
 15 14  1  0  0  0  0
 17 16  1  0  0  0  0
 18 12  1  0  0  0  0
 19 20  2  0  0  0  0
 20 18  1  0  0  0  0
 21 23  1  0  0  0  0
 22 21  2  0  0  0  0
 23 24  1  0  0  0  0
 24 25  1  0  0  0  0
 26 22  1  0  0  0  0
 27 26  1  0  0  0  0
 28 27  1  0  0  0  0
 29 28  1  0  0  0  0
 30 29  1  0  0  0  0
 31 29  2  0  0  0  0
M  END
>  <MODEL>
6

>  <REMARK>
 VINA RESULT:      -6.5      2.967      4.143
  Name = 
  16 active torsions:
  status: ('A' for Active; 'I' for Inactive)
    1  A    between atoms: C_1  and  N_7
    2  A    between atoms: C_2  and  O_8
    3  A    between atoms: C_3  and  O_8
    4  A    between atoms: C_3  and  C_28
    5  A    between atoms: C_4  and  C_25
    6  A    between atoms: C_4  and  C_26
    7  A    between atoms: S_6  and  N_16
    8  A    between atoms: S_6  and  C_21
    9  A    between atoms: N_7  and  C_11
   10  A    between atoms: C_9  and  C_15
   11  A    between atoms: C_9  and  N_16
   12  A    between atoms: C_9  and  N_29
   13  A    between atoms: C_14  and  C_27
   14  A    between atoms: C_14  and  C_28
   15  A    between atoms: C_15  and  C_25
   16  A    between atoms: N_29  and  C_30
                            x       y       z     vdW  Elec       q    Type
                         _______ _______ _______ _____ _____    ______ ____

>  <TORSDO>
F 16

$$$$
=
 OpenBabel11042412303D

 31 31  0  0  1  0  0  0  0  0999 V2000
  185.5210  178.0760  142.8570 C   0  0  0  0  0  3  0  0  0  0  0  0
  186.0120  178.2810  145.2120 C   0  0  0  0  0  3  0  0  0  0  0  0
  182.4060  179.0080  144.7140 N   0  0  0  0  0  1  0  0  0  0  0  0
  183.7620  178.7000  144.4040 C   0  0  0  0  0  0  0  0  0  0  0  0
  186.4330  178.0050  143.9110 C   0  0  0  0  0  0  0  0  0  0  0  0
  184.1780  178.4210  143.0770 C   0  0  0  0  0  0  0  0  0  0  0  0
  184.6830  178.6290  145.4550 C   0  0  0  0  0  3  0  0  0  0  0  0
  188.0910  177.5140  143.6020 S   0  0  0  0  0  0  0  0  0  0  0  0
  188.5560  178.1200  142.3070 O   0  0  0  0  0  0  0  0  0  0  0  0
  188.1610  176.0170  143.4820 O   0  0  0  0  0  0  0  0  0  0  0  0
  189.1220  178.0580  144.8850 N   0  0  0  0  0  2  0  0  0  0  0  0
  189.7800  176.8960  145.4690 C   0  0  1  0  0  3  0  0  0  0  0  0
  191.2790  176.9720  145.2180 C   0  0  0  0  0  2  0  0  0  0  0  0
  191.5810  177.7150  143.9270 C   0  0  0  0  0  2  0  0  0  0  0  0
  191.6910  176.7450  142.7620 C   0  0  0  0  0  2  0  0  0  0  0  0
  190.8990  176.9880  140.4100 C   0  0  0  0  0  1  0  0  0  0  0  0
  191.8690  177.5010  141.4570 C   0  0  0  0  0  2  0  0  0  0  0  0
  189.4940  176.8200  146.8980 N   0  0  0  0  0  2  0  0  0  0  0  0
  188.0250  177.7420  148.5260 C   0  0  0  0  0  2  0  0  0  0  0  0
  188.9860  177.9280  147.6360 C   0  0  0  0  0  3  0  0  0  0  0  0
  182.0340  178.9890  142.0270 C   0  0  0  0  0  3  0  0  0  0  0  0
  183.2580  178.4450  141.9060 C   0  0  0  0  0  0  0  0  0  0  0  0
  181.0460  179.1200  140.9930 N   0  0  0  0  0  2  0  0  0  0  0  0
  179.9760  180.1030  140.9390 C   0  0  0  0  0  2  0  0  0  0  0  0
  179.5800  180.4940  142.3470 C   0  0  0  0  0  1  0  0  0  0  0  0
  183.7480  177.8850  140.6030 C   0  0  0  0  0  2  0  0  0  0  0  0
  184.2620  179.0040  139.7110 C   0  0  0  0  0  2  0  0  0  0  0  0
  185.6310  178.7890  139.3960 O   0  0  0  0  0  0  0  0  0  0  0  0
  186.0290  178.2420  138.1760 C   0  0  0  0  0  0  0  0  0  0  0  0
  187.2300  178.6180  137.5870 O   0  0  0  0  0  0  0  0  0  0  0  0
  185.2890  177.4040  137.5990 O   0  0  0  0  0  1  0  0  0  0  0  0
  1  6  2  0  0  0  0
  1  5  1  0  0  0  0
  2  7  1  0  0  0  0
  4  3  1  0  0  0  0
  4  7  2  0  0  0  0
  5  2  2  0  0  0  0
  6  4  1  0  0  0  0
  8  5  1  0  0  0  0
  8 11  1  0  0  0  0
  9  8  2  0  0  0  0
 10  8  2  0  0  0  0
 11 12  1  0  0  0  0
 12 13  1  1  0  0  0
 12 18  1  0  0  0  0
 14 13  1  0  0  0  0
 15 14  1  0  0  0  0
 16 17  1  0  0  0  0
 17 15  1  0  0  0  0
 18 20  1  0  0  0  0
 20 19  2  0  0  0  0
 22 21  2  0  0  0  0
 22  6  1  0  0  0  0
 23 21  1  0  0  0  0
 24 23  1  0  0  0  0
 24 25  1  0  0  0  0
 26 22  1  0  0  0  0
 27 26  1  0  0  0  0
 28 27  1  0  0  0  0
 29 28  1  0  0  0  0
 30 29  2  0  0  0  0
 31 29  1  0  0  0  0
M  END
>  <MODEL>
7

>  <REMARK>
 VINA RESULT:      -6.5      2.531      6.989
  Name = 
  16 active torsions:
  status: ('A' for Active; 'I' for Inactive)
    1  A    between atoms: C_1  and  N_7
    2  A    between atoms: C_2  and  O_8
    3  A    between atoms: C_3  and  O_8
    4  A    between atoms: C_3  and  C_28
    5  A    between atoms: C_4  and  C_25
    6  A    between atoms: C_4  and  C_26
    7  A    between atoms: S_6  and  N_16
    8  A    between atoms: S_6  and  C_21
    9  A    between atoms: N_7  and  C_11
   10  A    between atoms: C_9  and  C_15
   11  A    between atoms: C_9  and  N_16
   12  A    between atoms: C_9  and  N_29
   13  A    between atoms: C_14  and  C_27
   14  A    between atoms: C_14  and  C_28
   15  A    between atoms: C_15  and  C_25
   16  A    between atoms: N_29  and  C_30
                            x       y       z     vdW  Elec       q    Type
                         _______ _______ _______ _____ _____    ______ ____

>  <TORSDO>
F 16

$$$$
=
 OpenBabel11042412303D

 31 31  0  0  1  0  0  0  0  0999 V2000
  187.5530  178.2240  140.6760 C   0  0  0  0  0  3  0  0  0  0  0  0
  187.3180  177.8410  143.0490 C   0  0  0  0  0  3  0  0  0  0  0  0
  190.8120  177.0380  142.0860 N   0  0  0  0  0  1  0  0  0  0  0  0
  189.4440  177.4150  141.9590 C   0  0  0  0  0  0  0  0  0  0  0  0
  186.7670  178.2390  141.8300 C   0  0  0  0  0  0  0  0  0  0  0  0
  188.8960  177.8170  140.7140 C   0  0  0  0  0  0  0  0  0  0  0  0
  188.6500  177.4300  143.1100 C   0  0  0  0  0  3  0  0  0  0  0  0
  185.1070  178.8080  141.7520 S   0  0  0  0  0  0  0  0  0  0  0  0
  184.1900  177.6380  141.5330 O   0  0  0  0  0  0  0  0  0  0  0  0
  184.9540  179.7590  140.5970 O   0  0  0  0  0  0  0  0  0  0  0  0
  184.6780  179.5970  143.2340 N   0  0  0  0  0  2  0  0  0  0  0  0
  183.6800  178.7820  143.9150 C   0  0  1  0  0  3  0  0  0  0  0  0
  184.0480  178.6380  145.3850 C   0  0  0  0  0  2  0  0  0  0  0  0
  185.4530  179.1530  145.6510 C   0  0  0  0  0  2  0  0  0  0  0  0
  185.9780  178.6280  146.9760 C   0  0  0  0  0  2  0  0  0  0  0  0
  187.9360  177.6310  148.1530 C   0  0  0  0  0  1  0  0  0  0  0  0
  187.4190  178.1730  146.8350 C   0  0  0  0  0  2  0  0  0  0  0  0
  182.3560  179.3760  143.7660 N   0  0  0  0  0  2  0  0  0  0  0  0
  180.1330  178.5460  143.9310 C   0  0  0  0  0  2  0  0  0  0  0  0
  181.2500  178.6540  143.2310 C   0  0  0  0  0  3  0  0  0  0  0  0
  190.5520  176.8770  139.1670 C   0  0  0  0  0  3  0  0  0  0  0  0
  189.6780  177.8590  139.4470 C   0  0  0  0  0  0  0  0  0  0  0  0
  191.3540  176.7520  137.9810 N   0  0  0  0  0  2  0  0  0  0  0  0
  192.7520  176.3570  137.9210 C   0  0  0  0  0  2  0  0  0  0  0  0
  193.1150  176.0040  136.4950 C   0  0  0  0  0  1  0  0  0  0  0  0
  189.4350  178.9950  138.4970 C   0  0  0  0  0  2  0  0  0  0  0  0
  188.7440  178.4900  137.2400 C   0  0  0  0  0  2  0  0  0  0  0  0
  187.3550  178.7820  137.2950 O   0  0  0  0  0  0  0  0  0  0  0  0
  186.3930  177.7770  137.3920 C   0  0  0  0  0  0  0  0  0  0  0  0
  185.0730  178.0830  137.6960 O   0  0  0  0  0  1  0  0  0  0  0  0
  186.7270  176.5770  137.2110 O   0  0  0  0  0  0  0  0  0  0  0  0
  1  6  2  0  0  0  0
  1  5  1  0  0  0  0
  2  7  1  0  0  0  0
  4  3  1  0  0  0  0
  4  7  2  0  0  0  0
  5  2  2  0  0  0  0
  6  4  1  0  0  0  0
  8  5  1  0  0  0  0
  8 11  1  0  0  0  0
  9  8  2  0  0  0  0
 10  8  2  0  0  0  0
 11 12  1  0  0  0  0
 12 13  1  1  0  0  0
 13 14  1  0  0  0  0
 14 15  1  0  0  0  0
 17 15  1  0  0  0  0
 17 16  1  0  0  0  0
 18 12  1  0  0  0  0
 20 18  1  0  0  0  0
 20 19  2  0  0  0  0
 21 22  2  0  0  0  0
 22  6  1  0  0  0  0
 23 21  1  0  0  0  0
 24 23  1  0  0  0  0
 25 24  1  0  0  0  0
 26 22  1  0  0  0  0
 27 28  1  0  0  0  0
 27 26  1  0  0  0  0
 28 29  1  0  0  0  0
 29 30  1  0  0  0  0
 31 29  2  0  0  0  0
M  END
>  <MODEL>
8

>  <REMARK>
 VINA RESULT:      -6.4      2.832      7.446
  Name = 
  16 active torsions:
  status: ('A' for Active; 'I' for Inactive)
    1  A    between atoms: C_1  and  N_7
    2  A    between atoms: C_2  and  O_8
    3  A    between atoms: C_3  and  O_8
    4  A    between atoms: C_3  and  C_28
    5  A    between atoms: C_4  and  C_25
    6  A    between atoms: C_4  and  C_26
    7  A    between atoms: S_6  and  N_16
    8  A    between atoms: S_6  and  C_21
    9  A    between atoms: N_7  and  C_11
   10  A    between atoms: C_9  and  C_15
   11  A    between atoms: C_9  and  N_16
   12  A    between atoms: C_9  and  N_29
   13  A    between atoms: C_14  and  C_27
   14  A    between atoms: C_14  and  C_28
   15  A    between atoms: C_15  and  C_25
   16  A    between atoms: N_29  and  C_30
                            x       y       z     vdW  Elec       q    Type
                         _______ _______ _______ _____ _____    ______ ____

>  <TORSDO>
F 16

$$$$
=
 OpenBabel11042412303D

 31 31  0  0  1  0  0  0  0  0999 V2000
  188.8860  177.6830  141.3320 C   0  0  0  0  0  3  0  0  0  0  0  0
  190.9240  177.4790  140.0540 C   0  0  0  0  0  3  0  0  0  0  0  0
  191.7590  177.0250  143.6430 N   0  0  0  0  0  1  0  0  0  0  0  0
  190.9880  177.2820  142.4720 C   0  0  0  0  0  0  0  0  0  0  0  0
  189.5440  177.6800  140.1020 C   0  0  0  0  0  0  0  0  0  0  0  0
  189.5860  177.4860  142.5330 C   0  0  0  0  0  0  0  0  0  0  0  0
  191.6410  177.2820  141.2350 C   0  0  0  0  0  3  0  0  0  0  0  0
  188.6260  177.8750  138.6170 S   0  0  0  0  0  0  0  0  0  0  0  0
  189.2510  177.0440  137.5330 O   0  0  0  0  0  0  0  0  0  0  0  0
  188.6530  179.3170  138.1920 O   0  0  0  0  0  0  0  0  0  0  0  0
  186.9890  177.3550  138.8570 N   0  0  0  0  0  2  0  0  0  0  0  0
  186.1130  178.2330  138.0930 C   0  0  1  0  0  3  0  0  0  0  0  0
  185.1760  177.4010  137.2280 C   0  0  0  0  0  2  0  0  0  0  0  0
  185.8170  176.0780  136.8430 C   0  0  0  0  0  2  0  0  0  0  0  0
  184.7610  175.0700  136.4230 C   0  0  0  0  0  2  0  0  0  0  0  0
  185.0850  172.9820  137.7470 C   0  0  0  0  0  1  0  0  0  0  0  0
  184.2880  174.2670  137.6220 C   0  0  0  0  0  2  0  0  0  0  0  0
  185.3580  179.1010  138.9920 N   0  0  0  0  0  2  0  0  0  0  0  0
  184.1870  178.4490  140.9570 C   0  0  0  0  0  2  0  0  0  0  0  0
  185.3060  178.8820  140.3990 C   0  0  0  0  0  3  0  0  0  0  0  0
  189.3330  178.0150  144.9160 C   0  0  0  0  0  3  0  0  0  0  0  0
  188.8090  177.4710  143.8040 C   0  0  0  0  0  0  0  0  0  0  0  0
  188.7050  178.1110  146.2040 N   0  0  0  0  0  2  0  0  0  0  0  0
  188.8360  177.1670  147.3030 C   0  0  0  0  0  2  0  0  0  0  0  0
  188.3200  177.8010  148.5760 C   0  0  0  0  0  1  0  0  0  0  0  0
  187.4330  176.8720  143.7910 C   0  0  0  0  0  2  0  0  0  0  0  0
  186.3860  177.9560  143.9900 C   0  0  0  0  0  2  0  0  0  0  0  0
  185.6510  177.7120  145.1810 O   0  0  0  0  0  0  0  0  0  0  0  0
  184.9860  178.7340  145.8600 C   0  0  0  0  0  0  0  0  0  0  0  0
  185.5810  179.3740  146.9400 O   0  0  0  0  0  1  0  0  0  0  0  0
  183.8310  179.0730  145.4960 O   0  0  0  0  0  0  0  0  0  0  0  0
  1  6  1  0  0  0  0
  2  5  1  0  0  0  0
  2  7  2  0  0  0  0
  4  6  2  0  0  0  0
  4  3  1  0  0  0  0
  5  1  2  0  0  0  0
  6 22  1  0  0  0  0
  7  4  1  0  0  0  0
  8 11  1  0  0  0  0
  8  5  1  0  0  0  0
  9  8  2  0  0  0  0
 10  8  2  0  0  0  0
 12 13  1  1  0  0  0
 12 11  1  0  0  0  0
 12 18  1  0  0  0  0
 14 13  1  0  0  0  0
 15 14  1  0  0  0  0
 15 17  1  0  0  0  0
 17 16  1  0  0  0  0
 18 20  1  0  0  0  0
 20 19  2  0  0  0  0
 21 23  1  0  0  0  0
 22 21  2  0  0  0  0
 23 24  1  0  0  0  0
 24 25  1  0  0  0  0
 26 22  1  0  0  0  0
 26 27  1  0  0  0  0
 27 28  1  0  0  0  0
 28 29  1  0  0  0  0
 29 30  1  0  0  0  0
 31 29  2  0  0  0  0
M  END
>  <MODEL>
9

>  <REMARK>
 VINA RESULT:      -6.4      2.778      5.035
  Name = 
  16 active torsions:
  status: ('A' for Active; 'I' for Inactive)
    1  A    between atoms: C_1  and  N_7
    2  A    between atoms: C_2  and  O_8
    3  A    between atoms: C_3  and  O_8
    4  A    between atoms: C_3  and  C_28
    5  A    between atoms: C_4  and  C_25
    6  A    between atoms: C_4  and  C_26
    7  A    between atoms: S_6  and  N_16
    8  A    between atoms: S_6  and  C_21
    9  A    between atoms: N_7  and  C_11
   10  A    between atoms: C_9  and  C_15
   11  A    between atoms: C_9  and  N_16
   12  A    between atoms: C_9  and  N_29
   13  A    between atoms: C_14  and  C_27
   14  A    between atoms: C_14  and  C_28
   15  A    between atoms: C_15  and  C_25
   16  A    between atoms: N_29  and  C_30
                            x       y       z     vdW  Elec       q    Type
                         _______ _______ _______ _____ _____    ______ ____

>  <TORSDO>
F 16

$$$$
