=
 OpenBabel11042410593D

 29 32  0  0  1  0  0  0  0  0999 V2000
  188.2800  177.7420  147.7090 C   0  0  0  0  0  3  0  0  0  0  0  0
  188.1970  177.5330  144.9090 C   0  0  0  0  0  0  0  0  0  0  0  0
  187.0910  177.9910  147.0230 C   0  0  0  0  0  3  0  0  0  0  0  0
  189.4330  177.4020  147.0020 C   0  0  0  0  0  0  0  0  0  0  0  0
  189.3870  177.2890  145.6130 C   0  0  0  0  0  3  0  0  0  0  0  0
  187.0260  177.9020  145.6220 C   0  0  0  0  0  0  0  0  0  0  0  0
  183.4410  179.0250  145.0810 C   0  0  0  0  0  3  0  0  0  0  0  0
  184.3290  178.2800  142.9600 C   0  0  0  0  0  3  0  0  0  0  0  0
  185.7270  178.1930  144.9530 C   0  0  0  0  0  0  0  0  0  0  0  0
  183.2750  178.7990  143.7130 C   0  0  0  0  0  0  0  0  0  0  0  0
  185.5480  177.9820  143.5770 C   0  0  0  0  0  3  0  0  0  0  0  0
  184.6600  178.7270  145.6960 C   0  0  0  0  0  3  0  0  0  0  0  0
  182.0230  179.1040  143.0810 C   0  0  0  0  0  0  0  0  0  0  0  0
  181.0130  179.3480  142.5690 N   0  0  0  0  0  0  0  0  0  0  0  0
  190.6990  177.1120  147.7320 C   0  0  0  0  0  2  0  0  0  0  0  0
  191.7410  176.7340  146.7930 N   0  0  0  0  0  2  0  0  0  0  0  0
  192.4240  175.5830  147.3570 C   0  0  0  0  0  1  0  0  0  0  0  0
  188.1700  177.3730  143.4850 N   0  0  0  0  0  2  0  0  0  0  0  0
  188.9510  178.8320  136.6900 C   0  0  0  0  0  1  0  0  0  0  0  0
  187.6040  179.3610  141.1660 O   0  0  0  0  0  0  0  0  0  0  0  0
  189.7810  176.7320  140.7870 C   0  0  1  0  0  3  0  0  0  0  0  0
  188.4670  178.5880  138.0370 N   0  0  0  0  0  2  0  0  0  0  0  0
  189.1720  177.7500  138.9520 C   0  0  0  0  0  0  0  0  0  0  0  0
  190.7360  176.4330  139.7820 N   0  0  0  0  0  2  0  0  0  0  0  0
  188.3850  178.3850  141.3110 C   0  0  0  0  0  0  0  0  0  0  0  0
  190.0980  177.0320  142.0440 C   0  0  0  0  0  2  0  0  0  0  0  0
  189.0980  178.0330  142.5740 C   0  0  2  0  0  3  0  0  0  0  0  0
  190.2760  177.1310  138.6530 N   0  0  0  0  0  0  0  0  0  0  0  0
  188.7170  177.4850  140.2740 N   0  0  0  0  0  0  0  0  0  0  0  0
  2  5  2  0  0  0  0
  2  6  1  0  0  0  0
  3  1  1  0  0  0  0
  4  1  2  0  0  0  0
  4 15  1  0  0  0  0
  5  4  1  0  0  0  0
  6  3  2  0  0  0  0
  7 12  1  0  0  0  0
  8 11  2  0  0  0  0
  8 10  1  0  0  0  0
  9  6  1  0  0  0  0
  9 12  2  0  0  0  0
 10  7  2  0  0  0  0
 11  9  1  0  0  0  0
 13 10  1  0  0  0  0
 14 13  3  0  0  0  0
 16 17  1  0  0  0  0
 16 15  1  0  0  0  0
 18  2  1  0  0  0  0
 19 22  1  0  0  0  0
 20 25  2  0  0  0  0
 21 26  1  1  0  0  0
 22 23  1  0  0  0  0
 23 29  1  0  0  0  0
 24 21  1  0  0  0  0
 25 27  1  0  0  0  0
 26 27  1  0  0  0  0
 27 18  1  1  0  0  0
 28 23  2  0  0  0  0
 28 24  1  0  0  0  0
 29 21  1  0  0  0  0
 29 25  1  0  0  0  0
M  END
>  <MODEL>
1

>  <REMARK>
 VINA RESULT:     -10.2      0.000      0.000
  Name = 
  6 active torsions:
  status: ('A' for Active; 'I' for Inactive)
    1  A    between atoms: C_1  and  C_12
    2  A    between atoms: C_4  and  C_17
    3  A    between atoms: C_4  and  N_23
    4  A    between atoms: C_11  and  C_27
    5  A    between atoms: C_15  and  N_21
    6  A    between atoms: C_20  and  N_21
                            x       y       z     vdW  Elec       q    Type
                         _______ _______ _______ _____ _____    ______ ____

>  <TORSDO>
F 6

$$$$
=
 OpenBabel11042410593D

 29 32  0  0  1  0  0  0  0  0999 V2000
  184.5970  178.9050  145.3810 C   0  0  0  0  0  3  0  0  0  0  0  0
  186.5970  177.8770  143.6980 C   0  0  0  0  0  0  0  0  0  0  0  0
  185.8290  178.5200  145.9110 C   0  0  0  0  0  3  0  0  0  0  0  0
  184.3530  178.7670  144.0150 C   0  0  0  0  0  0  0  0  0  0  0  0
  185.3520  178.2650  143.1800 C   0  0  0  0  0  3  0  0  0  0  0  0
  186.8430  177.9950  145.0910 C   0  0  0  0  0  0  0  0  0  0  0  0
  189.3430  176.7640  147.6680 C   0  0  0  0  0  3  0  0  0  0  0  0
  190.5300  177.1950  145.6070 C   0  0  0  0  0  3  0  0  0  0  0  0
  188.1290  177.5930  145.7250 C   0  0  0  0  0  0  0  0  0  0  0  0
  190.5340  176.7810  146.9400 C   0  0  0  0  0  0  0  0  0  0  0  0
  189.3340  177.5950  145.0030 C   0  0  0  0  0  3  0  0  0  0  0  0
  188.1480  177.1630  147.0630 C   0  0  0  0  0  3  0  0  0  0  0  0
  191.7620  176.3720  147.5600 C   0  0  0  0  0  0  0  0  0  0  0  0
  192.7520  176.0430  148.0620 N   0  0  0  0  0  0  0  0  0  0  0  0
  183.0480  179.1970  143.4420 C   0  0  0  0  0  2  0  0  0  0  0  0
  181.9530  178.6100  144.1970 N   0  0  0  0  0  2  0  0  0  0  0  0
  180.7390  178.8460  143.4380 C   0  0  0  0  0  1  0  0  0  0  0  0
  187.6170  177.4010  142.8100 N   0  0  0  0  0  2  0  0  0  0  0  0
  188.9530  178.1130  135.9820 C   0  0  0  0  0  1  0  0  0  0  0  0
  186.7400  178.6410  140.1000 O   0  0  0  0  0  0  0  0  0  0  0  0
  189.7990  177.1230  140.4760 C   0  0  1  0  0  3  0  0  0  0  0  0
  188.3730  177.8770  137.2930 N   0  0  0  0  0  2  0  0  0  0  0  0
  189.1760  177.5380  138.4230 C   0  0  0  0  0  0  0  0  0  0  0  0
  190.9550  177.1130  139.6550 N   0  0  0  0  0  2  0  0  0  0  0  0
  187.8010  178.1040  140.5150 C   0  0  0  0  0  0  0  0  0  0  0  0
  189.7470  177.6950  141.6760 C   0  0  0  0  0  2  0  0  0  0  0  0
  188.3600  178.2540  141.8910 C   0  0  2  0  0  3  0  0  0  0  0  0
  190.4670  177.3970  138.3690 N   0  0  0  0  0  0  0  0  0  0  0  0
  188.6330  177.2910  139.7160 N   0  0  0  0  0  0  0  0  0  0  0  0
  1  3  1  0  0  0  0
  2  6  1  0  0  0  0
  4  1  2  0  0  0  0
  5  2  2  0  0  0  0
  5  4  1  0  0  0  0
  6  9  1  0  0  0  0
  6  3  2  0  0  0  0
  8 10  1  0  0  0  0
  9 12  2  0  0  0  0
 10 13  1  0  0  0  0
 10  7  2  0  0  0  0
 11  8  2  0  0  0  0
 11  9  1  0  0  0  0
 12  7  1  0  0  0  0
 13 14  3  0  0  0  0
 15  4  1  0  0  0  0
 15 16  1  0  0  0  0
 17 16  1  0  0  0  0
 18  2  1  0  0  0  0
 19 22  1  0  0  0  0
 20 25  2  0  0  0  0
 21 26  1  1  0  0  0
 22 23  1  0  0  0  0
 23 29  1  0  0  0  0
 24 21  1  0  0  0  0
 25 27  1  0  0  0  0
 26 27  1  0  0  0  0
 27 18  1  1  0  0  0
 28 23  2  0  0  0  0
 28 24  1  0  0  0  0
 29 21  1  0  0  0  0
 29 25  1  0  0  0  0
M  END
>  <MODEL>
2

>  <REMARK>
 VINA RESULT:      -9.8      0.990      5.720
  Name = 
  6 active torsions:
  status: ('A' for Active; 'I' for Inactive)
    1  A    between atoms: C_1  and  C_12
    2  A    between atoms: C_4  and  C_17
    3  A    between atoms: C_4  and  N_23
    4  A    between atoms: C_11  and  C_27
    5  A    between atoms: C_15  and  N_21
    6  A    between atoms: C_20  and  N_21
                            x       y       z     vdW  Elec       q    Type
                         _______ _______ _______ _____ _____    ______ ____

>  <TORSDO>
F 6

$$$$
=
 OpenBabel11042410593D

 29 32  0  0  1  0  0  0  0  0999 V2000
  189.2260  176.9510  146.6640 C   0  0  0  0  0  3  0  0  0  0  0  0
  188.7870  177.9400  144.0730 C   0  0  0  0  0  0  0  0  0  0  0  0
  187.9330  177.2650  146.2440 C   0  0  0  0  0  3  0  0  0  0  0  0
  190.3040  177.1410  145.8010 C   0  0  0  0  0  0  0  0  0  0  0  0
  190.0820  177.6230  144.5110 C   0  0  0  0  0  3  0  0  0  0  0  0
  187.6890  177.7700  144.9550 C   0  0  0  0  0  0  0  0  0  0  0  0
  184.0950  178.9700  145.1890 C   0  0  0  0  0  3  0  0  0  0  0  0
  184.5030  178.2370  142.9220 C   0  0  0  0  0  3  0  0  0  0  0  0
  186.2850  178.0960  144.5770 C   0  0  0  0  0  0  0  0  0  0  0  0
  183.6410  178.7670  143.8840 C   0  0  0  0  0  0  0  0  0  0  0  0
  185.8170  177.9070  143.2660 C   0  0  0  0  0  3  0  0  0  0  0  0
  185.4090  178.6400  145.5310 C   0  0  0  0  0  3  0  0  0  0  0  0
  182.2920  179.1050  143.5310 C   0  0  0  0  0  0  0  0  0  0  0  0
  181.2030  179.3760  143.2470 N   0  0  0  0  0  0  0  0  0  0  0  0
  191.6820  176.7850  146.2380 C   0  0  0  0  0  2  0  0  0  0  0  0
  191.7530  176.7540  147.6890 N   0  0  0  0  0  2  0  0  0  0  0  0
  192.6810  175.6970  148.0460 C   0  0  0  0  0  1  0  0  0  0  0  0
  188.5850  178.3980  142.7290 N   0  0  0  0  0  2  0  0  0  0  0  0
  191.9270  176.0330  137.0590 C   0  0  0  0  0  1  0  0  0  0  0  0
  190.4680  176.2400  141.5270 O   0  0  0  0  0  0  0  0  0  0  0  0
  188.7980  178.4820  139.5300 C   0  0  1  0  0  3  0  0  0  0  0  0
  191.5350  176.5020  138.3760 N   0  0  0  0  0  2  0  0  0  0  0  0
  190.3960  177.3410  138.5700 C   0  0  0  0  0  0  0  0  0  0  0  0
  188.5860  178.5220  138.1290 N   0  0  0  0  0  2  0  0  0  0  0  0
  189.7060  177.1110  141.0310 C   0  0  0  0  0  0  0  0  0  0  0  0
  187.8280  178.2950  140.4210 C   0  0  0  0  0  2  0  0  0  0  0  0
  188.3810  177.5130  141.5890 C   0  0  2  0  0  3  0  0  0  0  0  0
  189.6420  177.7620  137.5990 N   0  0  0  0  0  0  0  0  0  0  0  0
  189.9950  177.8240  139.8480 N   0  0  0  0  0  0  0  0  0  0  0  0
  2  5  2  0  0  0  0
  2  6  1  0  0  0  0
  3  1  1  0  0  0  0
  4 15  1  0  0  0  0
  4  1  2  0  0  0  0
  5  4  1  0  0  0  0
  6  3  2  0  0  0  0
  7 12  1  0  0  0  0
  8 11  2  0  0  0  0
  8 10  1  0  0  0  0
  9  6  1  0  0  0  0
  9 12  2  0  0  0  0
 10  7  2  0  0  0  0
 11  9  1  0  0  0  0
 13 10  1  0  0  0  0
 14 13  3  0  0  0  0
 15 16  1  0  0  0  0
 16 17  1  0  0  0  0
 18  2  1  0  0  0  0
 19 22  1  0  0  0  0
 21 29  1  0  0  0  0
 21 26  1  1  0  0  0
 22 23  1  0  0  0  0
 23 29  1  0  0  0  0
 24 21  1  0  0  0  0
 25 20  2  0  0  0  0
 25 27  1  0  0  0  0
 26 27  1  0  0  0  0
 27 18  1  1  0  0  0
 28 24  1  0  0  0  0
 28 23  2  0  0  0  0
 29 25  1  0  0  0  0
M  END
>  <MODEL>
3

>  <REMARK>
 VINA RESULT:      -9.8      1.419      1.913
  Name = 
  6 active torsions:
  status: ('A' for Active; 'I' for Inactive)
    1  A    between atoms: C_1  and  C_12
    2  A    between atoms: C_4  and  C_17
    3  A    between atoms: C_4  and  N_23
    4  A    between atoms: C_11  and  C_27
    5  A    between atoms: C_15  and  N_21
    6  A    between atoms: C_20  and  N_21
                            x       y       z     vdW  Elec       q    Type
                         _______ _______ _______ _____ _____    ______ ____

>  <TORSDO>
F 6

$$$$
=
 OpenBabel11042410593D

 29 32  0  0  1  0  0  0  0  0999 V2000
  189.9870  177.1560  139.3030 C   0  0  0  0  0  3  0  0  0  0  0  0
  188.5420  178.0180  141.5520 C   0  0  0  0  0  0  0  0  0  0  0  0
  190.4640  176.8890  140.5870 C   0  0  0  0  0  3  0  0  0  0  0  0
  188.7970  177.8620  139.1360 C   0  0  0  0  0  0  0  0  0  0  0  0
  188.0760  178.2810  140.2550 C   0  0  0  0  0  3  0  0  0  0  0  0
  189.7640  177.3180  141.7280 C   0  0  0  0  0  0  0  0  0  0  0  0
  191.6770  175.5590  144.4950 C   0  0  0  0  0  3  0  0  0  0  0  0
  190.7140  177.5810  145.4060 C   0  0  0  0  0  3  0  0  0  0  0  0
  190.3370  177.0100  143.0680 C   0  0  0  0  0  0  0  0  0  0  0  0
  191.4750  176.4220  145.5740 C   0  0  0  0  0  0  0  0  0  0  0  0
  190.1520  177.8730  144.1600 C   0  0  0  0  0  3  0  0  0  0  0  0
  191.1150  175.8540  143.2500 C   0  0  0  0  0  3  0  0  0  0  0  0
  192.0510  176.1210  146.8540 C   0  0  0  0  0  0  0  0  0  0  0  0
  192.5140  175.8770  147.8860 N   0  0  0  0  0  0  0  0  0  0  0  0
  188.2720  178.1290  137.7680 C   0  0  0  0  0  2  0  0  0  0  0  0
  186.9070  178.6200  137.8440 N   0  0  0  0  0  2  0  0  0  0  0  0
  186.0640  177.6380  137.1880 C   0  0  0  0  0  1  0  0  0  0  0  0
  187.7610  178.4280  142.6820 N   0  0  0  0  0  2  0  0  0  0  0  0
  180.9150  179.0200  143.9860 C   0  0  0  0  0  1  0  0  0  0  0  0
  184.8660  178.0940  141.6060 O   0  0  0  0  0  0  0  0  0  0  0  0
  185.4890  178.7110  144.9270 C   0  0  1  0  0  3  0  0  0  0  0  0
  182.2620  179.0770  143.4450 N   0  0  0  0  0  2  0  0  0  0  0  0
  183.4150  178.9440  144.2760 C   0  0  0  0  0  0  0  0  0  0  0  0
  184.6570  178.6360  146.0730 N   0  0  0  0  0  2  0  0  0  0  0  0
  185.3610  178.2520  142.7530 C   0  0  0  0  0  0  0  0  0  0  0  0
  186.5240  177.9060  144.7090 C   0  0  0  0  0  2  0  0  0  0  0  0
  186.6470  177.6590  143.2240 C   0  0  2  0  0  3  0  0  0  0  0  0
  183.3560  178.7820  145.5640 N   0  0  0  0  0  0  0  0  0  0  0  0
  184.7460  179.0060  143.7750 N   0  0  0  0  0  0  0  0  0  0  0  0
  1  3  1  0  0  0  0
  2  6  1  0  0  0  0
  2 18  1  0  0  0  0
  3  6  2  0  0  0  0
  4  1  2  0  0  0  0
  4  5  1  0  0  0  0
  5  2  2  0  0  0  0
  6  9  1  0  0  0  0
  7 10  1  0  0  0  0
  8 10  2  0  0  0  0
  9 12  1  0  0  0  0
  9 11  2  0  0  0  0
 10 13  1  0  0  0  0
 11  8  1  0  0  0  0
 12  7  2  0  0  0  0
 13 14  3  0  0  0  0
 15 16  1  0  0  0  0
 15  4  1  0  0  0  0
 17 16  1  0  0  0  0
 20 25  2  0  0  0  0
 21 26  1  6  0  0  0
 21 24  1  0  0  0  0
 22 19  1  0  0  0  0
 22 23  1  0  0  0  0
 23 28  2  0  0  0  0
 25 27  1  0  0  0  0
 25 29  1  0  0  0  0
 27 18  1  6  0  0  0
 27 26  1  0  0  0  0
 28 24  1  0  0  0  0
 29 23  1  0  0  0  0
 29 21  1  0  0  0  0
M  END
>  <MODEL>
4

>  <REMARK>
 VINA RESULT:      -9.1      1.983      7.811
  Name = 
  6 active torsions:
  status: ('A' for Active; 'I' for Inactive)
    1  A    between atoms: C_1  and  C_12
    2  A    between atoms: C_4  and  C_17
    3  A    between atoms: C_4  and  N_23
    4  A    between atoms: C_11  and  C_27
    5  A    between atoms: C_15  and  N_21
    6  A    between atoms: C_20  and  N_21
                            x       y       z     vdW  Elec       q    Type
                         _______ _______ _______ _____ _____    ______ ____

>  <TORSDO>
F 6

$$$$
=
 OpenBabel11042410593D

 29 32  0  0  1  0  0  0  0  0999 V2000
  185.1420  178.6940  146.1910 C   0  0  0  0  0  3  0  0  0  0  0  0
  186.5350  177.9240  143.8770 C   0  0  0  0  0  0  0  0  0  0  0  0
  184.5430  178.8210  144.9380 C   0  0  0  0  0  3  0  0  0  0  0  0
  186.4400  178.1960  146.2940 C   0  0  0  0  0  0  0  0  0  0  0  0
  187.1270  177.8050  145.1440 C   0  0  0  0  0  3  0  0  0  0  0  0
  185.2220  178.4510  143.7640 C   0  0  0  0  0  0  0  0  0  0  0  0
  182.4640  178.6270  141.1620 C   0  0  0  0  0  3  0  0  0  0  0  0
  184.5560  179.1820  140.0870 C   0  0  0  0  0  3  0  0  0  0  0  0
  184.5270  178.6250  142.4580 C   0  0  0  0  0  0  0  0  0  0  0  0
  183.1740  178.9920  140.0180 C   0  0  0  0  0  0  0  0  0  0  0  0
  185.2260  179.0030  141.3000 C   0  0  0  0  0  3  0  0  0  0  0  0
  183.1350  178.4490  142.3750 C   0  0  0  0  0  3  0  0  0  0  0  0
  182.4860  179.1750  138.7720 C   0  0  0  0  0  0  0  0  0  0  0  0
  181.9300  179.3230  137.7670 N   0  0  0  0  0  0  0  0  0  0  0  0
  187.0750  178.0370  147.6320 C   0  0  0  0  0  2  0  0  0  0  0  0
  188.4390  177.5560  147.4830 N   0  0  0  0  0  2  0  0  0  0  0  0
  189.2450  178.2530  148.4690 C   0  0  0  0  0  1  0  0  0  0  0  0
  187.2500  177.4800  142.7160 N   0  0  0  0  0  2  0  0  0  0  0  0
  192.3490  176.7520  137.9840 C   0  0  0  0  0  1  0  0  0  0  0  0
  188.0540  177.5820  139.7170 O   0  0  0  0  0  0  0  0  0  0  0  0
  190.4130  177.3420  142.2030 C   0  0  1  0  0  3  0  0  0  0  0  0
  191.1270  176.6930  138.7670 N   0  0  0  0  0  2  0  0  0  0  0  0
  191.1150  176.9590  140.1700 C   0  0  0  0  0  0  0  0  0  0  0  0
  191.8220  177.5030  142.1870 N   0  0  0  0  0  2  0  0  0  0  0  0
  188.7020  177.5660  140.7970 C   0  0  0  0  0  0  0  0  0  0  0  0
  189.5810  178.1610  142.8400 C   0  0  0  0  0  2  0  0  0  0  0  0
  188.2930  178.2560  142.0560 C   0  0  2  0  0  3  0  0  0  0  0  0
  192.1810  177.2520  140.8520 N   0  0  0  0  0  0  0  0  0  0  0  0
  189.9350  176.8980  140.9630 N   0  0  0  0  0  0  0  0  0  0  0  0
  1  4  1  0  0  0  0
  2  5  1  0  0  0  0
  3  1  2  0  0  0  0
  4 15  1  0  0  0  0
  5  4  2  0  0  0  0
  6  2  2  0  0  0  0
  6  3  1  0  0  0  0
  7 12  1  0  0  0  0
  8 11  2  0  0  0  0
  9  6  1  0  0  0  0
 10  8  1  0  0  0  0
 10  7  2  0  0  0  0
 11  9  1  0  0  0  0
 12  9  2  0  0  0  0
 13 10  1  0  0  0  0
 14 13  3  0  0  0  0
 16 15  1  0  0  0  0
 16 17  1  0  0  0  0
 18  2  1  0  0  0  0
 19 22  1  0  0  0  0
 20 25  2  0  0  0  0
 21 26  1  6  0  0  0
 22 23  1  0  0  0  0
 23 28  2  0  0  0  0
 23 29  1  0  0  0  0
 24 21  1  0  0  0  0
 25 29  1  0  0  0  0
 25 27  1  0  0  0  0
 27 18  1  1  0  0  0
 27 26  1  0  0  0  0
 28 24  1  0  0  0  0
 29 21  1  0  0  0  0
M  END
>  <MODEL>
5

>  <REMARK>
 VINA RESULT:      -8.7      2.109      3.067
  Name = 
  6 active torsions:
  status: ('A' for Active; 'I' for Inactive)
    1  A    between atoms: C_1  and  C_12
    2  A    between atoms: C_4  and  C_17
    3  A    between atoms: C_4  and  N_23
    4  A    between atoms: C_11  and  C_27
    5  A    between atoms: C_15  and  N_21
    6  A    between atoms: C_20  and  N_21
                            x       y       z     vdW  Elec       q    Type
                         _______ _______ _______ _____ _____    ______ ____

>  <TORSDO>
F 6

$$$$
=
 OpenBabel11042410593D

 29 32  0  0  1  0  0  0  0  0999 V2000
  191.7200  176.5230  144.5760 C   0  0  0  0  0  3  0  0  0  0  0  0
  189.1850  177.5370  143.9150 C   0  0  0  0  0  0  0  0  0  0  0  0
  191.3680  176.7140  143.2390 C   0  0  0  0  0  3  0  0  0  0  0  0
  190.8070  176.8240  145.5860 C   0  0  0  0  0  0  0  0  0  0  0  0
  189.5520  177.3370  145.2550 C   0  0  0  0  0  3  0  0  0  0  0  0
  190.1030  177.2120  142.8830 C   0  0  0  0  0  0  0  0  0  0  0  0
  190.3010  176.8820  139.1060 C   0  0  0  0  0  3  0  0  0  0  0  0
  188.3860  178.2540  139.6480 C   0  0  0  0  0  3  0  0  0  0  0  0
  189.7890  177.3790  141.4360 C   0  0  0  0  0  0  0  0  0  0  0  0
  189.1990  177.6340  138.6960 C   0  0  0  0  0  0  0  0  0  0  0  0
  188.6780  178.1230  141.0080 C   0  0  0  0  0  3  0  0  0  0  0  0
  190.5920  176.7520  140.4680 C   0  0  0  0  0  3  0  0  0  0  0  0
  188.8990  177.7690  137.2990 C   0  0  0  0  0  0  0  0  0  0  0  0
  188.6570  177.8790  136.1720 N   0  0  0  0  0  0  0  0  0  0  0  0
  191.1860  176.6440  147.0140 C   0  0  0  0  0  2  0  0  0  0  0  0
  192.2640  175.6740  147.1250 N   0  0  0  0  0  2  0  0  0  0  0  0
  192.8060  175.7940  148.4670 C   0  0  0  0  0  1  0  0  0  0  0  0
  187.9040  178.1010  143.6080 N   0  0  0  0  0  2  0  0  0  0  0  0
  181.0200  179.3140  143.3470 C   0  0  0  0  0  1  0  0  0  0  0  0
  185.2870  177.9130  141.9440 O   0  0  0  0  0  0  0  0  0  0  0  0
  185.2400  178.7240  145.2820 C   0  0  1  0  0  3  0  0  0  0  0  0
  182.4510  179.2270  143.1120 N   0  0  0  0  0  2  0  0  0  0  0  0
  183.3830  179.0670  144.1810 C   0  0  0  0  0  0  0  0  0  0  0  0
  184.1790  178.7980  146.2200 N   0  0  0  0  0  2  0  0  0  0  0  0
  185.5380  178.1160  143.1610 C   0  0  0  0  0  0  0  0  0  0  0  0
  186.2200  177.8270  145.3410 C   0  0  0  0  0  2  0  0  0  0  0  0
  186.6340  177.4620  143.9340 C   0  0  2  0  0  3  0  0  0  0  0  0
  183.0360  179.0060  145.4320 N   0  0  0  0  0  0  0  0  0  0  0  0
  184.7900  178.9890  143.9810 N   0  0  0  0  0  0  0  0  0  0  0  0
  1  4  1  0  0  0  0
  2  5  1  0  0  0  0
  3  1  2  0  0  0  0
  4 15  1  0  0  0  0
  5  4  2  0  0  0  0
  6  3  1  0  0  0  0
  6  2  2  0  0  0  0
  7 12  1  0  0  0  0
  8 11  2  0  0  0  0
  9  6  1  0  0  0  0
 10  7  2  0  0  0  0
 10  8  1  0  0  0  0
 11  9  1  0  0  0  0
 12  9  2  0  0  0  0
 13 10  1  0  0  0  0
 14 13  3  0  0  0  0
 15 16  1  0  0  0  0
 16 17  1  0  0  0  0
 18  2  1  0  0  0  0
 20 25  2  0  0  0  0
 21 26  1  6  0  0  0
 21 24  1  0  0  0  0
 22 19  1  0  0  0  0
 22 23  1  0  0  0  0
 23 28  2  0  0  0  0
 25 27  1  0  0  0  0
 25 29  1  0  0  0  0
 27 18  1  6  0  0  0
 27 26  1  0  0  0  0
 28 24  1  0  0  0  0
 29 23  1  0  0  0  0
 29 21  1  0  0  0  0
M  END
>  <MODEL>
6

>  <REMARK>
 VINA RESULT:      -8.7      1.814      6.196
  Name = 
  6 active torsions:
  status: ('A' for Active; 'I' for Inactive)
    1  A    between atoms: C_1  and  C_12
    2  A    between atoms: C_4  and  C_17
    3  A    between atoms: C_4  and  N_23
    4  A    between atoms: C_11  and  C_27
    5  A    between atoms: C_15  and  N_21
    6  A    between atoms: C_20  and  N_21
                            x       y       z     vdW  Elec       q    Type
                         _______ _______ _______ _____ _____    ______ ____

>  <TORSDO>
F 6

$$$$
=
 OpenBabel11042410593D

 29 32  0  0  1  0  0  0  0  0999 V2000
  185.8830  178.3910  146.7740 C   0  0  0  0  0  3  0  0  0  0  0  0
  186.3420  178.0180  144.0290 C   0  0  0  0  0  0  0  0  0  0  0  0
  184.8400  178.5500  145.8620 C   0  0  0  0  0  3  0  0  0  0  0  0
  187.1590  178.0590  146.3210 C   0  0  0  0  0  0  0  0  0  0  0  0
  187.3830  177.8640  144.9580 C   0  0  0  0  0  3  0  0  0  0  0  0
  185.0460  178.3770  144.4820 C   0  0  0  0  0  0  0  0  0  0  0  0
  181.5640  179.2110  143.2220 C   0  0  0  0  0  3  0  0  0  0  0  0
  182.9270  178.5880  141.3250 C   0  0  0  0  0  3  0  0  0  0  0  0
  183.8910  178.5740  143.5620 C   0  0  0  0  0  0  0  0  0  0  0  0
  181.7000  179.0030  141.8490 C   0  0  0  0  0  0  0  0  0  0  0  0
  184.0150  178.3790  142.1770 C   0  0  0  0  0  3  0  0  0  0  0  0
  182.6530  179.0020  144.0730 C   0  0  0  0  0  3  0  0  0  0  0  0
  180.5820  179.2160  140.9750 C   0  0  0  0  0  0  0  0  0  0  0  0
  179.6790  179.3870  140.2700 N   0  0  0  0  0  0  0  0  0  0  0  0
  188.2700  177.8660  147.2940 C   0  0  0  0  0  2  0  0  0  0  0  0
  189.2550  176.9460  146.7510 N   0  0  0  0  0  2  0  0  0  0  0  0
  190.4760  177.1300  147.5140 C   0  0  0  0  0  1  0  0  0  0  0  0
  186.5930  177.7750  142.6380 N   0  0  0  0  0  2  0  0  0  0  0  0
  189.4520  177.8790  136.2560 C   0  0  0  0  0  1  0  0  0  0  0  0
  186.3220  178.6750  139.6770 O   0  0  0  0  0  0  0  0  0  0  0  0
  189.2680  177.4050  140.9080 C   0  0  1  0  0  3  0  0  0  0  0  0
  188.5930  177.7390  137.4190 N   0  0  0  0  0  2  0  0  0  0  0  0
  189.1230  177.5690  138.7330 C   0  0  0  0  0  0  0  0  0  0  0  0
  190.5830  177.3870  140.3770 N   0  0  0  0  0  2  0  0  0  0  0  0
  187.2780  178.2530  140.3800 C   0  0  0  0  0  0  0  0  0  0  0  0
  188.9150  178.0910  141.9910 C   0  0  0  0  0  2  0  0  0  0  0  0
  187.4950  178.5770  141.8210 C   0  0  2  0  0  3  0  0  0  0  0  0
  190.3960  177.5080  138.9900 N   0  0  0  0  0  0  0  0  0  0  0  0
  188.3050  177.4190  139.8880 N   0  0  0  0  0  0  0  0  0  0  0  0
  2  6  2  0  0  0  0
  2  5  1  0  0  0  0
  3  1  2  0  0  0  0
  4  1  1  0  0  0  0
  4 15  1  0  0  0  0
  5  4  2  0  0  0  0
  6  3  1  0  0  0  0
  7 12  1  0  0  0  0
  8 10  1  0  0  0  0
  8 11  2  0  0  0  0
  9 12  2  0  0  0  0
  9  6  1  0  0  0  0
 10  7  2  0  0  0  0
 11  9  1  0  0  0  0
 13 10  1  0  0  0  0
 14 13  3  0  0  0  0
 16 15  1  0  0  0  0
 16 17  1  0  0  0  0
 18  2  1  0  0  0  0
 19 22  1  0  0  0  0
 20 25  2  0  0  0  0
 21 26  1  1  0  0  0
 22 23  1  0  0  0  0
 23 28  2  0  0  0  0
 23 29  1  0  0  0  0
 24 21  1  0  0  0  0
 25 27  1  0  0  0  0
 27 26  1  0  0  0  0
 27 18  1  1  0  0  0
 28 24  1  0  0  0  0
 29 25  1  0  0  0  0
 29 21  1  0  0  0  0
M  END
>  <MODEL>
7

>  <REMARK>
 VINA RESULT:      -8.7      1.296      2.055
  Name = 
  6 active torsions:
  status: ('A' for Active; 'I' for Inactive)
    1  A    between atoms: C_1  and  C_12
    2  A    between atoms: C_4  and  C_17
    3  A    between atoms: C_4  and  N_23
    4  A    between atoms: C_11  and  C_27
    5  A    between atoms: C_15  and  N_21
    6  A    between atoms: C_20  and  N_21
                            x       y       z     vdW  Elec       q    Type
                         _______ _______ _______ _____ _____    ______ ____

>  <TORSDO>
F 6

$$$$
=
 OpenBabel11042410593D

 29 32  0  0  1  0  0  0  0  0999 V2000
  190.5460  177.7650  144.6960 C   0  0  0  0  0  3  0  0  0  0  0  0
  188.1070  177.6190  143.3120 C   0  0  0  0  0  0  0  0  0  0  0  0
  190.5340  177.7180  143.3020 C   0  0  0  0  0  3  0  0  0  0  0  0
  189.3460  177.7260  145.4050 C   0  0  0  0  0  0  0  0  0  0  0  0
  188.1350  177.6640  144.7150 C   0  0  0  0  0  3  0  0  0  0  0  0
  189.3260  177.6360  142.5870 C   0  0  0  0  0  0  0  0  0  0  0  0
  188.7860  178.5200  138.9350 C   0  0  0  0  0  3  0  0  0  0  0  0
  190.1920  176.5570  139.0390 C   0  0  0  0  0  3  0  0  0  0  0  0
  189.3870  177.5770  141.0990 C   0  0  0  0  0  0  0  0  0  0  0  0
  189.5190  177.5230  138.2890 C   0  0  0  0  0  0  0  0  0  0  0  0
  190.1280  176.5870  140.4350 C   0  0  0  0  0  3  0  0  0  0  0  0
  188.7240  178.5490  140.3310 C   0  0  0  0  0  3  0  0  0  0  0  0
  189.5830  177.4920  136.8560 C   0  0  0  0  0  0  0  0  0  0  0  0
  189.6330  177.4670  135.6990 N   0  0  0  0  0  0  0  0  0  0  0  0
  189.3540  177.7990  146.8920 C   0  0  0  0  0  2  0  0  0  0  0  0
  188.0810  177.3370  147.4210 N   0  0  0  0  0  2  0  0  0  0  0  0
  187.9180  177.9460  148.7280 C   0  0  0  0  0  1  0  0  0  0  0  0
  186.8470  177.5940  142.6290 N   0  0  0  0  0  2  0  0  0  0  0  0
  180.1220  179.3910  143.3080 C   0  0  0  0  0  1  0  0  0  0  0  0
  184.6030  178.6230  144.5160 O   0  0  0  0  0  0  0  0  0  0  0  0
  184.1400  178.4170  141.1180 C   0  0  1  0  0  3  0  0  0  0  0  0
  181.4540  178.8270  143.4320 N   0  0  0  0  0  2  0  0  0  0  0  0
  182.3410  178.7340  142.3170 C   0  0  0  0  0  0  0  0  0  0  0  0
  183.1320  178.9410  140.2690 N   0  0  0  0  0  2  0  0  0  0  0  0
  184.7160  178.5170  143.2660 C   0  0  0  0  0  0  0  0  0  0  0  0
  185.4100  178.8110  141.0910 C   0  0  0  0  0  2  0  0  0  0  0  0
  185.9710  178.7510  142.4930 C   0  0  2  0  0  3  0  0  0  0  0  0
  182.0280  179.1230  141.1180 N   0  0  0  0  0  0  0  0  0  0  0  0
  183.6480  178.1770  142.4080 N   0  0  0  0  0  0  0  0  0  0  0  0
  1  4  1  0  0  0  0
  2  5  1  0  0  0  0
  3  1  2  0  0  0  0
  4 15  1  0  0  0  0
  5  4  2  0  0  0  0
  6  3  1  0  0  0  0
  6  2  2  0  0  0  0
  7 12  1  0  0  0  0
  8 11  2  0  0  0  0
  9  6  1  0  0  0  0
 10  7  2  0  0  0  0
 10  8  1  0  0  0  0
 11  9  1  0  0  0  0
 12  9  2  0  0  0  0
 13 10  1  0  0  0  0
 14 13  3  0  0  0  0
 15 16  1  0  0  0  0
 16 17  1  0  0  0  0
 18  2  1  0  0  0  0
 19 22  1  0  0  0  0
 21 26  1  1  0  0  0
 21 29  1  0  0  0  0
 23 29  1  0  0  0  0
 23 22  1  0  0  0  0
 24 21  1  0  0  0  0
 24 28  1  0  0  0  0
 25 20  2  0  0  0  0
 26 27  1  0  0  0  0
 27 18  1  6  0  0  0
 27 25  1  0  0  0  0
 28 23  2  0  0  0  0
 29 25  1  0  0  0  0
M  END
>  <MODEL>
8

>  <REMARK>
 VINA RESULT:      -8.1      2.152      6.355
  Name = 
  6 active torsions:
  status: ('A' for Active; 'I' for Inactive)
    1  A    between atoms: C_1  and  C_12
    2  A    between atoms: C_4  and  C_17
    3  A    between atoms: C_4  and  N_23
    4  A    between atoms: C_11  and  C_27
    5  A    between atoms: C_15  and  N_21
    6  A    between atoms: C_20  and  N_21
                            x       y       z     vdW  Elec       q    Type
                         _______ _______ _______ _____ _____    ______ ____

>  <TORSDO>
F 6

$$$$
=
 OpenBabel11042410593D

 29 32  0  0  1  0  0  0  0  0999 V2000
  185.7230  178.8470  140.8380 C   0  0  0  0  0  3  0  0  0  0  0  0
  187.7510  177.6620  142.3780 C   0  0  0  0  0  0  0  0  0  0  0  0
  186.9290  178.4780  140.2430 C   0  0  0  0  0  3  0  0  0  0  0  0
  185.5280  178.6390  142.2030 C   0  0  0  0  0  0  0  0  0  0  0  0
  186.5330  178.0420  142.9640 C   0  0  0  0  0  3  0  0  0  0  0  0
  187.9630  177.8910  140.9940 C   0  0  0  0  0  0  0  0  0  0  0  0
  190.3700  176.7070  138.3080 C   0  0  0  0  0  3  0  0  0  0  0  0
  191.6610  177.4000  140.2310 C   0  0  0  0  0  3  0  0  0  0  0  0
  189.2300  177.5330  140.2970 C   0  0  0  0  0  0  0  0  0  0  0  0
  191.6050  176.8900  138.9320 C   0  0  0  0  0  0  0  0  0  0  0  0
  190.4800  177.7220  140.9060 C   0  0  0  0  0  3  0  0  0  0  0  0
  189.1900  177.0300  138.9850 C   0  0  0  0  0  3  0  0  0  0  0  0
  192.8170  176.5580  138.2390 C   0  0  0  0  0  0  0  0  0  0  0  0
  193.7960  176.2920  137.6800 N   0  0  0  0  0  0  0  0  0  0  0  0
  184.2330  179.0110  142.8380 C   0  0  0  0  0  2  0  0  0  0  0  0
  184.4710  179.6360  144.1280 N   0  0  0  0  0  2  0  0  0  0  0  0
  183.5720  179.0070  145.0780 C   0  0  0  0  0  1  0  0  0  0  0  0
  188.7500  177.0160  143.1770 N   0  0  0  0  0  2  0  0  0  0  0  0
  193.1750  175.8280  148.4620 C   0  0  0  0  0  1  0  0  0  0  0  0
  191.6400  176.2650  144.0360 O   0  0  0  0  0  0  0  0  0  0  0  0
  189.3220  177.3860  146.3110 C   0  0  1  0  0  3  0  0  0  0  0  0
  192.3660  175.7800  147.2560 N   0  0  0  0  0  2  0  0  0  0  0  0
  191.1360  176.4950  147.1430 C   0  0  0  0  0  0  0  0  0  0  0  0
  189.4520  177.8260  147.6530 N   0  0  0  0  0  2  0  0  0  0  0  0
  190.6460  176.7530  144.6370 C   0  0  0  0  0  0  0  0  0  0  0  0
  188.9640  178.1760  145.3030 C   0  0  0  0  0  2  0  0  0  0  0  0
  189.6780  177.7250  144.0500 C   0  0  2  0  0  3  0  0  0  0  0  0
  190.6390  177.2210  148.1000 N   0  0  0  0  0  0  0  0  0  0  0  0
  190.3190  176.4580  145.9790 N   0  0  0  0  0  0  0  0  0  0  0  0
  1  4  1  0  0  0  0
  2  5  1  0  0  0  0
  2 18  1  0  0  0  0
  3  1  2  0  0  0  0
  3  6  1  0  0  0  0
  4 15  1  0  0  0  0
  4  5  2  0  0  0  0
  6  2  2  0  0  0  0
  7 10  2  0  0  0  0
  7 12  1  0  0  0  0
  8 11  2  0  0  0  0
  9 11  1  0  0  0  0
  9  6  1  0  0  0  0
 10  8  1  0  0  0  0
 12  9  2  0  0  0  0
 13 10  1  0  0  0  0
 14 13  3  0  0  0  0
 15 16  1  0  0  0  0
 16 17  1  0  0  0  0
 20 25  2  0  0  0  0
 21 26  1  6  0  0  0
 21 24  1  0  0  0  0
 22 19  1  0  0  0  0
 23 22  1  0  0  0  0
 23 28  2  0  0  0  0
 24 28  1  0  0  0  0
 25 29  1  0  0  0  0
 27 18  1  6  0  0  0
 27 25  1  0  0  0  0
 27 26  1  0  0  0  0
 29 21  1  0  0  0  0
 29 23  1  0  0  0  0
M  END
>  <MODEL>
9

>  <REMARK>
 VINA RESULT:      -7.9      2.375      7.858
  Name = 
  6 active torsions:
  status: ('A' for Active; 'I' for Inactive)
    1  A    between atoms: C_1  and  C_12
    2  A    between atoms: C_4  and  C_17
    3  A    between atoms: C_4  and  N_23
    4  A    between atoms: C_11  and  C_27
    5  A    between atoms: C_15  and  N_21
    6  A    between atoms: C_20  and  N_21
                            x       y       z     vdW  Elec       q    Type
                         _______ _______ _______ _____ _____    ______ ____

>  <TORSDO>
F 6

$$$$
