=
 OpenBabel11042412043D

 30 32  0  0  1  0  0  0  0  0999 V2000
  191.0090  177.3580  141.5420 C   0  0  0  0  0  0  0  0  0  0  0  0
  189.7360  177.0230  140.9580 N   0  0  0  0  0  0  0  0  0  0  0  0
  191.9530  177.7300  140.7930 O   0  0  0  0  0  0  0  0  0  0  0  0
  191.5100  175.9840  143.5660 C   0  0  0  0  0  3  0  0  0  0  0  0
  191.2470  177.2380  142.9970 C   0  0  0  0  0  0  0  0  0  0  0  0
  191.6570  176.9830  145.7700 C   0  0  0  0  0  0  0  0  0  0  0  0
  191.1770  178.3640  143.8310 C   0  0  0  0  0  3  0  0  0  0  0  0
  191.3840  178.2390  145.2080 C   0  0  0  0  0  3  0  0  0  0  0  0
  191.7170  175.8580  144.9410 C   0  0  0  0  0  3  0  0  0  0  0  0
  192.4480  175.6500  147.6970 C   0  0  0  0  0  1  0  0  0  0  0  0
  191.8680  176.8230  147.1430 O   0  0  0  0  0  0  0  0  0  0  0  0
  188.4920  177.5030  141.5100 C   0  0  0  0  0  0  0  0  0  0  0  0
  186.8010  177.4630  143.2560 C   0  0  0  0  0  3  0  0  0  0  0  0
  188.0000  176.9880  142.7190 C   0  0  0  0  0  3  0  0  0  0  0  0
  186.5690  178.9860  141.3950 C   0  0  0  0  0  3  0  0  0  0  0  0
  186.0760  178.4660  142.5960 C   0  0  0  0  0  0  0  0  0  0  0  0
  187.7670  178.5120  140.8570 C   0  0  0  0  0  3  0  0  0  0  0  0
  183.5330  178.7950  142.5550 C   0  0  0  0  0  0  0  0  0  0  0  0
  183.3600  178.1040  141.5160 O   0  0  0  0  0  0  0  0  0  0  0  0
  184.8420  178.9770  143.1150 N   0  0  0  0  0  2  0  0  0  0  0  0
  181.1780  178.7610  142.7980 O   0  0  0  0  0  0  0  0  0  0  0  0
  181.6580  178.3900  144.0650 C   0  0  0  0  0  2  0  0  0  0  0  0
  182.3530  179.4010  143.2360 C   0  0  1  0  0  3  0  0  0  0  0  0
  189.7270  176.2680  139.7060 C   0  0  0  0  0  2  0  0  0  0  0  0
  189.7920  178.4210  138.7050 O   0  0  0  0  0  0  0  0  0  0  0  0
  189.9380  177.1800  138.5450 C   0  0  0  0  0  0  0  0  0  0  0  0
  190.2760  176.6200  137.2660 N   0  0  0  0  0  0  0  0  0  0  0  0
  191.4580  176.2820  136.8360 C   0  0  0  0  0  3  0  0  0  0  0  0
  193.6360  176.5370  138.2320 N   0  0  0  0  0  0  0  0  0  0  0  0
  192.6670  176.4230  137.6090 C   0  0  0  0  0  0  0  0  0  0  0  0
  1  5  1  0  0  0  0
  2 12  1  0  0  0  0
  2  1  1  0  0  0  0
  3  1  2  0  0  0  0
  4  9  1  0  0  0  0
  5  4  2  0  0  0  0
  5  7  1  0  0  0  0
  6 11  1  0  0  0  0
  7  8  2  0  0  0  0
  8  6  1  0  0  0  0
  9  6  2  0  0  0  0
 11 10  1  0  0  0  0
 12 14  1  0  0  0  0
 14 13  2  0  0  0  0
 15 16  2  0  0  0  0
 16 20  1  0  0  0  0
 16 13  1  0  0  0  0
 17 15  1  0  0  0  0
 17 12  2  0  0  0  0
 18 20  1  0  0  0  0
 19 18  2  0  0  0  0
 21 23  1  0  0  0  0
 21 22  1  0  0  0  0
 23 18  1  6  0  0  0
 23 22  1  0  0  0  0
 24  2  1  0  0  0  0
 26 25  2  0  0  0  0
 26 24  1  0  0  0  0
 27 26  1  0  0  0  0
 28 27  2  0  0  0  0
 28 30  1  0  0  0  0
 30 29  3  0  0  0  0
M  END
>  <MODEL>
1

>  <REMARK>
 VINA RESULT:      -7.0      0.000      0.000
  Name = 
  9 active torsions:
  status: ('A' for Active; 'I' for Inactive)
    1  A    between atoms: C_2  and  C_29
    2  A    between atoms: C_3  and  C_16
    3  A    between atoms: N_7  and  C_30
    4  A    between atoms: C_8  and  N_17
    5  A    between atoms: C_10  and  O_27
    6  A    between atoms: C_11  and  C_24
    7  A    between atoms: N_17  and  C_22
    8  A    between atoms: N_19  and  C_23
    9  A    between atoms: C_22  and  C_30
                            x       y       z     vdW  Elec       q    Type
                         _______ _______ _______ _____ _____    ______ ____

>  <TORSDO>
F 9

$$$$
=
 OpenBabel11042412043D

 30 32  0  0  1  0  0  0  0  0999 V2000
  190.9030  177.4650  141.5390 C   0  0  0  0  0  0  0  0  0  0  0  0
  189.6240  177.1180  140.9750 N   0  0  0  0  0  0  0  0  0  0  0  0
  191.8210  177.8780  140.7800 O   0  0  0  0  0  0  0  0  0  0  0  0
  191.4810  176.0440  143.5100 C   0  0  0  0  0  3  0  0  0  0  0  0
  191.1780  177.3080  142.9840 C   0  0  0  0  0  0  0  0  0  0  0  0
  191.6570  176.9830  145.7390 C   0  0  0  0  0  0  0  0  0  0  0  0
  191.1020  178.4070  143.8520 C   0  0  0  0  0  3  0  0  0  0  0  0
  191.3440  178.2480  145.2200 C   0  0  0  0  0  3  0  0  0  0  0  0
  191.7220  175.8840  144.8770 C   0  0  0  0  0  3  0  0  0  0  0  0
  192.4130  175.5690  147.6220 C   0  0  0  0  0  1  0  0  0  0  0  0
  191.9040  176.7890  147.1010 O   0  0  0  0  0  0  0  0  0  0  0  0
  188.3840  177.5550  141.5690 C   0  0  0  0  0  0  0  0  0  0  0  0
  186.7270  177.4170  143.3420 C   0  0  0  0  0  3  0  0  0  0  0  0
  187.9230  176.9840  142.7650 C   0  0  0  0  0  3  0  0  0  0  0  0
  186.4350  179.0100  141.5490 C   0  0  0  0  0  3  0  0  0  0  0  0
  185.9740  178.4340  142.7370 C   0  0  0  0  0  0  0  0  0  0  0  0
  187.6300  178.5770  140.9700 C   0  0  0  0  0  3  0  0  0  0  0  0
  183.4340  178.7870  142.7200 C   0  0  0  0  0  0  0  0  0  0  0  0
  183.2600  178.2000  141.6190 O   0  0  0  0  0  0  0  0  0  0  0  0
  184.7420  178.9030  143.2980 N   0  0  0  0  0  2  0  0  0  0  0  0
  181.1660  179.4490  142.5690 O   0  0  0  0  0  0  0  0  0  0  0  0
  181.1450  178.3570  143.4510 C   0  0  0  0  0  2  0  0  0  0  0  0
  182.2560  179.3350  143.4530 C   0  0  1  0  0  3  0  0  0  0  0  0
  189.6020  176.3990  139.7010 C   0  0  0  0  0  2  0  0  0  0  0  0
  191.1690  176.8630  137.9780 O   0  0  0  0  0  0  0  0  0  0  0  0
  190.1510  177.2540  138.6100 C   0  0  0  0  0  0  0  0  0  0  0  0
  189.5240  178.5140  138.3230 N   0  0  0  0  0  0  0  0  0  0  0  0
  188.8390  178.8360  137.2630 C   0  0  0  0  0  3  0  0  0  0  0  0
  188.3980  177.2180  135.2770 N   0  0  0  0  0  0  0  0  0  0  0  0
  188.5930  177.9390  136.1610 C   0  0  0  0  0  0  0  0  0  0  0  0
  1  5  1  0  0  0  0
  2  1  1  0  0  0  0
  2 12  1  0  0  0  0
  3  1  2  0  0  0  0
  4  9  1  0  0  0  0
  5  4  2  0  0  0  0
  5  7  1  0  0  0  0
  6 11  1  0  0  0  0
  7  8  2  0  0  0  0
  8  6  1  0  0  0  0
  9  6  2  0  0  0  0
 11 10  1  0  0  0  0
 12 14  1  0  0  0  0
 14 13  2  0  0  0  0
 15 16  2  0  0  0  0
 16 20  1  0  0  0  0
 16 13  1  0  0  0  0
 17 15  1  0  0  0  0
 17 12  2  0  0  0  0
 18 20  1  0  0  0  0
 19 18  2  0  0  0  0
 21 22  1  0  0  0  0
 21 23  1  0  0  0  0
 22 23  1  0  0  0  0
 23 18  1  6  0  0  0
 24  2  1  0  0  0  0
 25 26  2  0  0  0  0
 26 24  1  0  0  0  0
 27 26  1  0  0  0  0
 28 27  2  0  0  0  0
 29 30  3  0  0  0  0
 30 28  1  0  0  0  0
M  END
>  <MODEL>
2

>  <REMARK>
 VINA RESULT:      -6.9      1.245      1.664
  Name = 
  9 active torsions:
  status: ('A' for Active; 'I' for Inactive)
    1  A    between atoms: C_2  and  C_29
    2  A    between atoms: C_3  and  C_16
    3  A    between atoms: N_7  and  C_30
    4  A    between atoms: C_8  and  N_17
    5  A    between atoms: C_10  and  O_27
    6  A    between atoms: C_11  and  C_24
    7  A    between atoms: N_17  and  C_22
    8  A    between atoms: N_19  and  C_23
    9  A    between atoms: C_22  and  C_30
                            x       y       z     vdW  Elec       q    Type
                         _______ _______ _______ _____ _____    ______ ____

>  <TORSDO>
F 9

$$$$
=
 OpenBabel11042412043D

 30 32  0  0  1  0  0  0  0  0999 V2000
  189.1250  177.4270  141.0940 C   0  0  0  0  0  0  0  0  0  0  0  0
  189.7570  177.7780  139.8480 N   0  0  0  0  0  0  0  0  0  0  0  0
  187.8730  177.2860  141.1320 O   0  0  0  0  0  0  0  0  0  0  0  0
  190.4290  176.0130  142.6870 C   0  0  0  0  0  3  0  0  0  0  0  0
  189.9080  177.2680  142.3390 C   0  0  0  0  0  0  0  0  0  0  0  0
  191.3610  176.9350  144.7270 C   0  0  0  0  0  0  0  0  0  0  0  0
  190.1090  178.3530  143.2040 C   0  0  0  0  0  3  0  0  0  0  0  0
  190.8340  178.1910  144.3880 C   0  0  0  0  0  3  0  0  0  0  0  0
  191.1530  175.8490  143.8700 C   0  0  0  0  0  3  0  0  0  0  0  0
  191.4720  176.4250  147.1440 C   0  0  0  0  0  1  0  0  0  0  0  0
  192.0900  176.7380  145.9040 O   0  0  0  0  0  0  0  0  0  0  0  0
  190.9440  177.1060  139.3770 C   0  0  0  0  0  0  0  0  0  0  0  0
  192.0000  175.3720  138.0410 C   0  0  0  0  0  3  0  0  0  0  0  0
  190.8480  176.0130  138.5030 C   0  0  0  0  0  3  0  0  0  0  0  0
  193.3670  176.9120  139.3040 C   0  0  0  0  0  3  0  0  0  0  0  0
  193.2680  175.8170  138.4400 C   0  0  0  0  0  0  0  0  0  0  0  0
  192.2160  177.5530  139.7680 C   0  0  0  0  0  3  0  0  0  0  0  0
  195.2190  175.5020  136.8050 C   0  0  0  0  0  0  0  0  0  0  0  0
  194.8610  176.4390  136.0410 O   0  0  0  0  0  0  0  0  0  0  0  0
  194.4730  175.1850  137.9880 N   0  0  0  0  0  2  0  0  0  0  0  0
  197.5830  175.5590  136.6960 O   0  0  0  0  0  0  0  0  0  0  0  0
  197.3100  174.6130  137.6970 C   0  0  0  0  0  2  0  0  0  0  0  0
  196.4600  174.7360  136.4910 C   0  0  1  0  0  3  0  0  0  0  0  0
  189.1010  178.7680  138.9950 C   0  0  0  0  0  2  0  0  0  0  0  0
  189.2480  178.6660  136.6260 O   0  0  0  0  0  0  0  0  0  0  0  0
  188.7530  178.1700  137.6740 C   0  0  0  0  0  0  0  0  0  0  0  0
  187.8410  177.0610  137.6250 N   0  0  0  0  0  0  0  0  0  0  0  0
  186.5640  177.0730  137.8830 C   0  0  0  0  0  3  0  0  0  0  0  0
  185.2500  179.1990  138.5970 N   0  0  0  0  0  0  0  0  0  0  0  0
  185.8340  178.2520  138.2780 C   0  0  0  0  0  0  0  0  0  0  0  0
  1  3  2  0  0  0  0
  1  5  1  0  0  0  0
  2  1  1  0  0  0  0
  4  9  1  0  0  0  0
  5  4  2  0  0  0  0
  5  7  1  0  0  0  0
  6 11  1  0  0  0  0
  7  8  2  0  0  0  0
  8  6  1  0  0  0  0
  9  6  2  0  0  0  0
 11 10  1  0  0  0  0
 12 17  1  0  0  0  0
 12  2  1  0  0  0  0
 13 16  2  0  0  0  0
 13 14  1  0  0  0  0
 14 12  2  0  0  0  0
 15 17  2  0  0  0  0
 16 15  1  0  0  0  0
 18 20  1  0  0  0  0
 19 18  2  0  0  0  0
 20 16  1  0  0  0  0
 21 22  1  0  0  0  0
 23 21  1  0  0  0  0
 23 18  1  1  0  0  0
 23 22  1  0  0  0  0
 24  2  1  0  0  0  0
 25 26  2  0  0  0  0
 26 24  1  0  0  0  0
 27 26  1  0  0  0  0
 27 28  2  0  0  0  0
 28 30  1  0  0  0  0
 30 29  3  0  0  0  0
M  END
>  <MODEL>
3

>  <REMARK>
 VINA RESULT:      -6.7      3.140      7.791
  Name = 
  9 active torsions:
  status: ('A' for Active; 'I' for Inactive)
    1  A    between atoms: C_2  and  C_29
    2  A    between atoms: C_3  and  C_16
    3  A    between atoms: N_7  and  C_30
    4  A    between atoms: C_8  and  N_17
    5  A    between atoms: C_10  and  O_27
    6  A    between atoms: C_11  and  C_24
    7  A    between atoms: N_17  and  C_22
    8  A    between atoms: N_19  and  C_23
    9  A    between atoms: C_22  and  C_30
                            x       y       z     vdW  Elec       q    Type
                         _______ _______ _______ _____ _____    ______ ____

>  <TORSDO>
F 9

$$$$
=
 OpenBabel11042412043D

 30 32  0  0  1  0  0  0  0  0999 V2000
  188.8720  178.1570  140.2600 C   0  0  0  0  0  0  0  0  0  0  0  0
  189.7970  177.1230  140.6470 N   0  0  0  0  0  0  0  0  0  0  0  0
  188.5030  179.0060  141.1160 O   0  0  0  0  0  0  0  0  0  0  0  0
  187.0380  177.7020  138.6280 C   0  0  0  0  0  3  0  0  0  0  0  0
  188.3140  178.2210  138.8920 C   0  0  0  0  0  0  0  0  0  0  0  0
  187.2530  178.2930  136.2860 C   0  0  0  0  0  0  0  0  0  0  0  0
  189.0610  178.7640  137.8370 C   0  0  0  0  0  3  0  0  0  0  0  0
  188.5340  178.8040  136.5430 C   0  0  0  0  0  3  0  0  0  0  0  0
  186.5100  177.7410  137.3350 C   0  0  0  0  0  3  0  0  0  0  0  0
  185.6780  177.4150  134.5940 C   0  0  0  0  0  1  0  0  0  0  0  0
  186.6960  178.3170  135.0040 O   0  0  0  0  0  0  0  0  0  0  0  0
  190.9390  176.7770  139.8360 C   0  0  0  0  0  0  0  0  0  0  0  0
  191.9180  175.5480  137.9810 C   0  0  0  0  0  3  0  0  0  0  0  0
  190.8130  175.8720  138.7700 C   0  0  0  0  0  3  0  0  0  0  0  0
  193.2960  177.0360  139.2940 C   0  0  0  0  0  3  0  0  0  0  0  0
  193.1690  176.1280  138.2380 C   0  0  0  0  0  0  0  0  0  0  0  0
  192.1920  177.3600  140.0860 C   0  0  0  0  0  3  0  0  0  0  0  0
  195.1530  174.6520  137.5590 C   0  0  0  0  0  0  0  0  0  0  0  0
  194.8890  173.7420  138.3890 O   0  0  0  0  0  0  0  0  0  0  0  0
  194.3260  175.8200  137.4510 N   0  0  0  0  0  2  0  0  0  0  0  0
  197.0540  175.6980  136.6120 O   0  0  0  0  0  0  0  0  0  0  0  0
  197.5890  174.6650  137.3990 C   0  0  0  0  0  2  0  0  0  0  0  0
  196.3250  174.4950  136.6490 C   0  0  1  0  0  3  0  0  0  0  0  0
  189.6230  176.4930  141.9560 C   0  0  0  0  0  2  0  0  0  0  0  0
  191.5590  176.0170  143.2470 O   0  0  0  0  0  0  0  0  0  0  0  0
  190.7280  176.8880  142.8760 C   0  0  0  0  0  0  0  0  0  0  0  0
  190.8020  178.2460  143.3400 N   0  0  0  0  0  0  0  0  0  0  0  0
  190.3780  178.7190  144.4770 C   0  0  0  0  0  3  0  0  0  0  0  0
  189.2270  177.2790  146.3090 N   0  0  0  0  0  0  0  0  0  0  0  0
  189.7380  177.9210  145.4930 C   0  0  0  0  0  0  0  0  0  0  0  0
  1  2  1  0  0  0  0
  1  3  2  0  0  0  0
  2 24  1  0  0  0  0
  4  5  1  0  0  0  0
  5  1  1  0  0  0  0
  6  8  2  0  0  0  0
  6  9  1  0  0  0  0
  7  5  2  0  0  0  0
  8  7  1  0  0  0  0
  9  4  2  0  0  0  0
 10 11  1  0  0  0  0
 11  6  1  0  0  0  0
 12 17  1  0  0  0  0
 12  2  1  0  0  0  0
 13 16  2  0  0  0  0
 13 14  1  0  0  0  0
 14 12  2  0  0  0  0
 15 17  2  0  0  0  0
 16 15  1  0  0  0  0
 18 19  2  0  0  0  0
 20 18  1  0  0  0  0
 20 16  1  0  0  0  0
 21 23  1  0  0  0  0
 21 22  1  0  0  0  0
 23 22  1  0  0  0  0
 23 18  1  1  0  0  0
 24 26  1  0  0  0  0
 26 25  2  0  0  0  0
 26 27  1  0  0  0  0
 27 28  2  0  0  0  0
 28 30  1  0  0  0  0
 30 29  3  0  0  0  0
M  END
>  <MODEL>
4

>  <REMARK>
 VINA RESULT:      -6.7      3.550      9.521
  Name = 
  9 active torsions:
  status: ('A' for Active; 'I' for Inactive)
    1  A    between atoms: C_2  and  C_29
    2  A    between atoms: C_3  and  C_16
    3  A    between atoms: N_7  and  C_30
    4  A    between atoms: C_8  and  N_17
    5  A    between atoms: C_10  and  O_27
    6  A    between atoms: C_11  and  C_24
    7  A    between atoms: N_17  and  C_22
    8  A    between atoms: N_19  and  C_23
    9  A    between atoms: C_22  and  C_30
                            x       y       z     vdW  Elec       q    Type
                         _______ _______ _______ _____ _____    ______ ____

>  <TORSDO>
F 9

$$$$
=
 OpenBabel11042412043D

 30 32  0  0  1  0  0  0  0  0999 V2000
  189.7070  176.9310  140.1270 C   0  0  0  0  0  0  0  0  0  0  0  0
  189.4940  177.5450  141.4120 N   0  0  0  0  0  0  0  0  0  0  0  0
  190.5330  175.9840  140.0240 O   0  0  0  0  0  0  0  0  0  0  0  0
  188.0420  176.6080  138.2930 C   0  0  0  0  0  3  0  0  0  0  0  0
  189.0080  177.4130  138.9150 C   0  0  0  0  0  0  0  0  0  0  0  0
  187.7010  178.2920  136.5820 C   0  0  0  0  0  0  0  0  0  0  0  0
  189.3250  178.6570  138.3500 C   0  0  0  0  0  3  0  0  0  0  0  0
  188.6740  179.0970  137.1940 C   0  0  0  0  0  3  0  0  0  0  0  0
  187.3910  177.0470  137.1380 C   0  0  0  0  0  3  0  0  0  0  0  0
  186.3150  177.7990  134.5950 C   0  0  0  0  0  1  0  0  0  0  0  0
  187.0310  178.7020  135.4250 O   0  0  0  0  0  0  0  0  0  0  0  0
  188.1710  177.8240  141.9150 C   0  0  0  0  0  0  0  0  0  0  0  0
  186.0760  179.0510  141.7840 C   0  0  0  0  0  3  0  0  0  0  0  0
  187.3600  178.7920  141.3000 C   0  0  0  0  0  3  0  0  0  0  0  0
  186.3780  177.3730  143.4960 C   0  0  0  0  0  3  0  0  0  0  0  0
  185.5760  178.3440  142.8870 C   0  0  0  0  0  0  0  0  0  0  0  0
  187.6630  177.1130  143.0140 C   0  0  0  0  0  3  0  0  0  0  0  0
  183.0550  178.7570  142.6600 C   0  0  0  0  0  0  0  0  0  0  0  0
  183.0550  178.6800  141.4020 O   0  0  0  0  0  0  0  0  0  0  0  0
  184.2640  178.5830  143.4120 N   0  0  0  0  0  2  0  0  0  0  0  0
  180.9800  179.8970  142.6410 O   0  0  0  0  0  0  0  0  0  0  0  0
  180.6260  178.5410  142.5590 C   0  0  0  0  0  2  0  0  0  0  0  0
  181.7710  178.9960  143.3790 C   0  0  1  0  0  3  0  0  0  0  0  0
  190.6570  177.7820  142.2670 C   0  0  0  0  0  2  0  0  0  0  0  0
  190.3380  175.5180  142.9090 O   0  0  0  0  0  0  0  0  0  0  0  0
  190.8780  176.6240  143.1790 C   0  0  0  0  0  0  0  0  0  0  0  0
  191.6780  176.8040  144.3590 N   0  0  0  0  0  0  0  0  0  0  0  0
  191.2620  177.0470  145.5690 C   0  0  0  0  0  3  0  0  0  0  0  0
  188.7570  177.2870  146.2200 N   0  0  0  0  0  0  0  0  0  0  0  0
  189.8730  177.1820  145.9310 C   0  0  0  0  0  0  0  0  0  0  0  0
  1  2  1  0  0  0  0
  2 12  1  0  0  0  0
  2 24  1  0  0  0  0
  3  1  2  0  0  0  0
  4  5  1  0  0  0  0
  5  1  1  0  0  0  0
  6  9  1  0  0  0  0
  6  8  2  0  0  0  0
  7  5  2  0  0  0  0
  8  7  1  0  0  0  0
  9  4  2  0  0  0  0
 10 11  1  0  0  0  0
 11  6  1  0  0  0  0
 12 17  1  0  0  0  0
 13 16  2  0  0  0  0
 14 13  1  0  0  0  0
 14 12  2  0  0  0  0
 16 20  1  0  0  0  0
 16 15  1  0  0  0  0
 17 15  2  0  0  0  0
 18 20  1  0  0  0  0
 19 18  2  0  0  0  0
 21 23  1  0  0  0  0
 22 21  1  0  0  0  0
 22 23  1  0  0  0  0
 23 18  1  6  0  0  0
 24 26  1  0  0  0  0
 25 26  2  0  0  0  0
 26 27  1  0  0  0  0
 27 28  2  0  0  0  0
 28 30  1  0  0  0  0
 30 29  3  0  0  0  0
M  END
>  <MODEL>
5

>  <REMARK>
 VINA RESULT:      -6.6      2.282      6.122
  Name = 
  9 active torsions:
  status: ('A' for Active; 'I' for Inactive)
    1  A    between atoms: C_2  and  C_29
    2  A    between atoms: C_3  and  C_16
    3  A    between atoms: N_7  and  C_30
    4  A    between atoms: C_8  and  N_17
    5  A    between atoms: C_10  and  O_27
    6  A    between atoms: C_11  and  C_24
    7  A    between atoms: N_17  and  C_22
    8  A    between atoms: N_19  and  C_23
    9  A    between atoms: C_22  and  C_30
                            x       y       z     vdW  Elec       q    Type
                         _______ _______ _______ _____ _____    ______ ____

>  <TORSDO>
F 9

$$$$
=
 OpenBabel11042412043D

 30 32  0  0  1  0  0  0  0  0999 V2000
  189.5670  177.0880  140.8060 C   0  0  0  0  0  0  0  0  0  0  0  0
  189.0040  177.8240  141.9080 N   0  0  0  0  0  0  0  0  0  0  0  0
  190.4400  176.2080  141.0340 O   0  0  0  0  0  0  0  0  0  0  0  0
  189.4310  178.6280  138.8450 C   0  0  0  0  0  3  0  0  0  0  0  0
  189.1740  177.3700  139.4080 C   0  0  0  0  0  0  0  0  0  0  0  0
  188.3910  177.9400  136.7640 C   0  0  0  0  0  0  0  0  0  0  0  0
  188.5080  176.4020  138.6410 C   0  0  0  0  0  3  0  0  0  0  0  0
  188.1230  176.6830  137.3270 C   0  0  0  0  0  3  0  0  0  0  0  0
  189.0460  178.9090  137.5320 C   0  0  0  0  0  3  0  0  0  0  0  0
  186.7770  177.8510  134.8940 C   0  0  0  0  0  1  0  0  0  0  0  0
  188.0190  178.2530  135.4540 O   0  0  0  0  0  0  0  0  0  0  0  0
  187.5840  178.0480  142.0310 C   0  0  0  0  0  0  0  0  0  0  0  0
  185.5040  177.7980  143.2640 C   0  0  0  0  0  3  0  0  0  0  0  0
  186.8770  177.5690  143.1440 C   0  0  0  0  0  3  0  0  0  0  0  0
  185.5190  179.0030  141.1700 C   0  0  0  0  0  3  0  0  0  0  0  0
  184.8150  178.5160  142.2760 C   0  0  0  0  0  0  0  0  0  0  0  0
  186.8910  178.7730  141.0480 C   0  0  0  0  0  3  0  0  0  0  0  0
  182.6730  179.1510  143.5360 C   0  0  0  0  0  0  0  0  0  0  0  0
  183.2550  179.3280  144.6400 O   0  0  0  0  0  0  0  0  0  0  0  0
  183.4070  178.7700  142.3640 N   0  0  0  0  0  2  0  0  0  0  0  0
  180.6330  178.4110  142.5900 O   0  0  0  0  0  0  0  0  0  0  0  0
  180.4630  178.2090  143.9690 C   0  0  0  0  0  2  0  0  0  0  0  0
  181.2020  179.3770  143.4400 C   0  0  1  0  0  3  0  0  0  0  0  0
  189.8980  178.2520  142.9830 C   0  0  0  0  0  2  0  0  0  0  0  0
  190.3220  176.1170  143.9320 O   0  0  0  0  0  0  0  0  0  0  0  0
  189.8640  177.2770  144.1110 C   0  0  0  0  0  0  0  0  0  0  0  0
  189.2830  177.6740  145.3630 N   0  0  0  0  0  0  0  0  0  0  0  0
  189.7780  177.5030  146.5560 C   0  0  0  0  0  3  0  0  0  0  0  0
  192.0560  176.3450  147.0310 N   0  0  0  0  0  0  0  0  0  0  0  0
  191.0420  176.8590  146.8180 C   0  0  0  0  0  0  0  0  0  0  0  0
  1  3  2  0  0  0  0
  1  2  1  0  0  0  0
  2 12  1  0  0  0  0
  2 24  1  0  0  0  0
  4  5  1  0  0  0  0
  5  1  1  0  0  0  0
  6  8  2  0  0  0  0
  6  9  1  0  0  0  0
  7  5  2  0  0  0  0
  8  7  1  0  0  0  0
  9  4  2  0  0  0  0
 10 11  1  0  0  0  0
 11  6  1  0  0  0  0
 12 14  1  0  0  0  0
 14 13  2  0  0  0  0
 15 16  2  0  0  0  0
 16 20  1  0  0  0  0
 16 13  1  0  0  0  0
 17 15  1  0  0  0  0
 17 12  2  0  0  0  0
 18 19  2  0  0  0  0
 20 18  1  0  0  0  0
 21 23  1  0  0  0  0
 21 22  1  0  0  0  0
 23 18  1  1  0  0  0
 23 22  1  0  0  0  0
 24 26  1  0  0  0  0
 25 26  2  0  0  0  0
 26 27  1  0  0  0  0
 27 28  2  0  0  0  0
 28 30  1  0  0  0  0
 30 29  3  0  0  0  0
M  END
>  <MODEL>
6

>  <REMARK>
 VINA RESULT:      -6.6      2.420      6.143
  Name = 
  9 active torsions:
  status: ('A' for Active; 'I' for Inactive)
    1  A    between atoms: C_2  and  C_29
    2  A    between atoms: C_3  and  C_16
    3  A    between atoms: N_7  and  C_30
    4  A    between atoms: C_8  and  N_17
    5  A    between atoms: C_10  and  O_27
    6  A    between atoms: C_11  and  C_24
    7  A    between atoms: N_17  and  C_22
    8  A    between atoms: N_19  and  C_23
    9  A    between atoms: C_22  and  C_30
                            x       y       z     vdW  Elec       q    Type
                         _______ _______ _______ _____ _____    ______ ____

>  <TORSDO>
F 9

$$$$
=
 OpenBabel11042412043D

 30 32  0  0  1  0  0  0  0  0999 V2000
  186.7180  177.8460  144.2250 C   0  0  0  0  0  0  0  0  0  0  0  0
  186.8880  178.4260  142.9180 N   0  0  0  0  0  0  0  0  0  0  0  0
  185.5630  177.5160  144.6080 O   0  0  0  0  0  0  0  0  0  0  0  0
  189.1700  177.9010  144.6970 C   0  0  0  0  0  3  0  0  0  0  0  0
  187.8620  177.6650  145.1450 C   0  0  0  0  0  0  0  0  0  0  0  0
  190.0560  177.2820  146.8680 C   0  0  0  0  0  0  0  0  0  0  0  0
  187.6630  177.2210  146.4610 C   0  0  0  0  0  3  0  0  0  0  0  0
  188.7510  177.0340  147.3180 C   0  0  0  0  0  3  0  0  0  0  0  0
  190.2580  177.7150  145.5530 C   0  0  0  0  0  3  0  0  0  0  0  0
  192.0540  176.0040  147.5660 C   0  0  0  0  0  1  0  0  0  0  0  0
  191.1660  177.1050  147.6990 O   0  0  0  0  0  0  0  0  0  0  0  0
  187.9340  177.9960  142.0220 C   0  0  0  0  0  0  0  0  0  0  0  0
  189.6270  176.3770  141.3730 C   0  0  0  0  0  3  0  0  0  0  0  0
  188.6230  176.7950  142.2490 C   0  0  0  0  0  3  0  0  0  0  0  0
  189.2670  178.3440  140.0170 C   0  0  0  0  0  3  0  0  0  0  0  0
  189.9560  177.1500  140.2500 C   0  0  0  0  0  0  0  0  0  0  0  0
  188.2630  178.7640  140.8930 C   0  0  0  0  0  3  0  0  0  0  0  0
  190.7940  176.1770  138.0300 C   0  0  0  0  0  0  0  0  0  0  0  0
  189.6400  175.9870  137.5630 O   0  0  0  0  0  0  0  0  0  0  0  0
  190.9820  176.7550  139.3300 N   0  0  0  0  0  2  0  0  0  0  0  0
  193.1130  175.6970  138.0350 O   0  0  0  0  0  0  0  0  0  0  0  0
  192.5180  174.5040  137.5940 C   0  0  0  0  0  2  0  0  0  0  0  0
  191.9860  175.8290  137.2030 C   0  0  1  0  0  3  0  0  0  0  0  0
  185.8970  179.3970  142.4580 C   0  0  0  0  0  2  0  0  0  0  0  0
  184.2340  177.8590  141.7450 O   0  0  0  0  0  0  0  0  0  0  0  0
  185.0160  178.7910  141.4180 C   0  0  0  0  0  0  0  0  0  0  0  0
  185.1000  179.2650  140.0650 N   0  0  0  0  0  0  0  0  0  0  0  0
  184.1160  179.5260  139.2540 C   0  0  0  0  0  3  0  0  0  0  0  0
  181.6080  179.2510  139.8820 N   0  0  0  0  0  0  0  0  0  0  0  0
  182.7240  179.3730  139.6010 C   0  0  0  0  0  0  0  0  0  0  0  0
  1  3  2  0  0  0  0
  1  5  1  0  0  0  0
  2  1  1  0  0  0  0
  4  5  2  0  0  0  0
  4  9  1  0  0  0  0
  5  7  1  0  0  0  0
  6  8  1  0  0  0  0
  6 11  1  0  0  0  0
  7  8  2  0  0  0  0
  9  6  2  0  0  0  0
 10 11  1  0  0  0  0
 12 14  1  0  0  0  0
 12  2  1  0  0  0  0
 13 14  2  0  0  0  0
 15 16  2  0  0  0  0
 15 17  1  0  0  0  0
 16 13  1  0  0  0  0
 17 12  2  0  0  0  0
 18 20  1  0  0  0  0
 19 18  2  0  0  0  0
 20 16  1  0  0  0  0
 22 21  1  0  0  0  0
 23 22  1  0  0  0  0
 23 18  1  1  0  0  0
 23 21  1  0  0  0  0
 24  2  1  0  0  0  0
 26 25  2  0  0  0  0
 26 24  1  0  0  0  0
 27 26  1  0  0  0  0
 28 30  1  0  0  0  0
 28 27  2  0  0  0  0
 30 29  3  0  0  0  0
M  END
>  <MODEL>
7

>  <REMARK>
 VINA RESULT:      -6.4      2.260      6.798
  Name = 
  9 active torsions:
  status: ('A' for Active; 'I' for Inactive)
    1  A    between atoms: C_2  and  C_29
    2  A    between atoms: C_3  and  C_16
    3  A    between atoms: N_7  and  C_30
    4  A    between atoms: C_8  and  N_17
    5  A    between atoms: C_10  and  O_27
    6  A    between atoms: C_11  and  C_24
    7  A    between atoms: N_17  and  C_22
    8  A    between atoms: N_19  and  C_23
    9  A    between atoms: C_22  and  C_30
                            x       y       z     vdW  Elec       q    Type
                         _______ _______ _______ _____ _____    ______ ____

>  <TORSDO>
F 9

$$$$
=
 OpenBabel11042412043D

 30 32  0  0  1  0  0  0  0  0999 V2000
  184.7070  179.2570  139.5090 C   0  0  0  0  0  0  0  0  0  0  0  0
  184.6860  178.9760  140.9220 N   0  0  0  0  0  0  0  0  0  0  0  0
  184.2620  180.3600  139.0930 O   0  0  0  0  0  0  0  0  0  0  0  0
  186.4580  178.4310  137.9320 C   0  0  0  0  0  3  0  0  0  0  0  0
  185.2010  178.2630  138.5320 C   0  0  0  0  0  0  0  0  0  0  0  0
  186.1400  176.4070  136.6340 C   0  0  0  0  0  0  0  0  0  0  0  0
  184.4110  177.1640  138.1630 C   0  0  0  0  0  3  0  0  0  0  0  0
  184.8770  176.2400  137.2230 C   0  0  0  0  0  3  0  0  0  0  0  0
  186.9250  177.5070  136.9930 C   0  0  0  0  0  3  0  0  0  0  0  0
  187.4390  174.3860  136.0500 C   0  0  0  0  0  1  0  0  0  0  0  0
  186.6350  175.5010  135.6920 O   0  0  0  0  0  0  0  0  0  0  0  0
  185.8270  178.4170  141.6070 C   0  0  0  0  0  0  0  0  0  0  0  0
  188.2010  177.9020  141.6830 C   0  0  0  0  0  3  0  0  0  0  0  0
  187.0980  178.4350  141.0120 C   0  0  0  0  0  3  0  0  0  0  0  0
  186.7910  177.3380  143.5620 C   0  0  0  0  0  3  0  0  0  0  0  0
  188.0550  177.3490  142.9630 C   0  0  0  0  0  0  0  0  0  0  0  0
  185.6860  177.8690  142.8910 C   0  0  0  0  0  3  0  0  0  0  0  0
  190.1290  177.5100  144.4630 C   0  0  0  0  0  0  0  0  0  0  0  0
  190.0530  178.7600  144.6040 O   0  0  0  0  0  0  0  0  0  0  0  0
  189.1620  176.7920  143.6820 N   0  0  0  0  0  2  0  0  0  0  0  0
  191.6810  177.5060  146.2510 O   0  0  0  0  0  0  0  0  0  0  0  0
  190.8270  176.4280  146.5370 C   0  0  0  0  0  2  0  0  0  0  0  0
  191.2210  176.7600  145.1490 C   0  0  1  0  0  3  0  0  0  0  0  0
  183.5090  179.3790  141.6900 C   0  0  0  0  0  2  0  0  0  0  0  0
  182.3760  177.4180  140.9740 O   0  0  0  0  0  0  0  0  0  0  0  0
  182.2980  178.6540  141.2080 C   0  0  0  0  0  0  0  0  0  0  0  0
  181.0810  179.3860  140.9950 N   0  0  0  0  0  0  0  0  0  0  0  0
  180.0150  179.3880  141.7440 C   0  0  0  0  0  3  0  0  0  0  0  0
  179.7810  178.0030  143.9320 N   0  0  0  0  0  0  0  0  0  0  0  0
  179.8830  178.6200  142.9580 C   0  0  0  0  0  0  0  0  0  0  0  0
  1  2  1  0  0  0  0
  2 12  1  0  0  0  0
  2 24  1  0  0  0  0
  3  1  2  0  0  0  0
  4  5  1  0  0  0  0
  5  1  1  0  0  0  0
  6  9  1  0  0  0  0
  6  8  2  0  0  0  0
  7  5  2  0  0  0  0
  8  7  1  0  0  0  0
  9  4  2  0  0  0  0
 11 10  1  0  0  0  0
 11  6  1  0  0  0  0
 12 17  1  0  0  0  0
 13 16  2  0  0  0  0
 14 12  2  0  0  0  0
 14 13  1  0  0  0  0
 16 15  1  0  0  0  0
 16 20  1  0  0  0  0
 17 15  2  0  0  0  0
 18 19  2  0  0  0  0
 20 18  1  0  0  0  0
 21 22  1  0  0  0  0
 23 18  1  6  0  0  0
 23 21  1  0  0  0  0
 23 22  1  0  0  0  0
 25 26  2  0  0  0  0
 26 24  1  0  0  0  0
 27 26  1  0  0  0  0
 27 28  2  0  0  0  0
 28 30  1  0  0  0  0
 30 29  3  0  0  0  0
M  END
>  <MODEL>
8

>  <REMARK>
 VINA RESULT:      -6.3      3.018      8.816
  Name = 
  9 active torsions:
  status: ('A' for Active; 'I' for Inactive)
    1  A    between atoms: C_2  and  C_29
    2  A    between atoms: C_3  and  C_16
    3  A    between atoms: N_7  and  C_30
    4  A    between atoms: C_8  and  N_17
    5  A    between atoms: C_10  and  O_27
    6  A    between atoms: C_11  and  C_24
    7  A    between atoms: N_17  and  C_22
    8  A    between atoms: N_19  and  C_23
    9  A    between atoms: C_22  and  C_30
                            x       y       z     vdW  Elec       q    Type
                         _______ _______ _______ _____ _____    ______ ____

>  <TORSDO>
F 9

$$$$
=
 OpenBabel11042412043D

 30 32  0  0  1  0  0  0  0  0999 V2000
  190.6780  177.5560  143.2810 C   0  0  0  0  0  0  0  0  0  0  0  0
  189.7720  177.1500  142.2380 N   0  0  0  0  0  0  0  0  0  0  0  0
  191.8550  177.8940  142.9790 O   0  0  0  0  0  0  0  0  0  0  0  0
  191.0030  176.7990  145.6390 C   0  0  0  0  0  3  0  0  0  0  0  0
  190.2720  177.5460  144.7040 C   0  0  0  0  0  0  0  0  0  0  0  0
  189.4880  177.4780  147.4070 C   0  0  0  0  0  0  0  0  0  0  0  0
  189.1360  178.2490  145.1310 C   0  0  0  0  0  3  0  0  0  0  0  0
  188.7470  178.2190  146.4730 C   0  0  0  0  0  3  0  0  0  0  0  0
  190.6150  176.7690  146.9810 C   0  0  0  0  0  3  0  0  0  0  0  0
  187.8570  177.8590  149.2260 C   0  0  0  0  0  1  0  0  0  0  0  0
  189.1270  177.4270  148.7560 O   0  0  0  0  0  0  0  0  0  0  0  0
  188.4160  177.6400  142.1700 C   0  0  0  0  0  0  0  0  0  0  0  0
  186.7440  179.1020  141.1820 C   0  0  0  0  0  3  0  0  0  0  0  0
  188.0600  178.6380  141.2510 C   0  0  0  0  0  3  0  0  0  0  0  0
  186.1090  177.5690  142.9380 C   0  0  0  0  0  3  0  0  0  0  0  0
  185.7590  178.5700  142.0260 C   0  0  0  0  0  0  0  0  0  0  0  0
  187.4250  177.1050  143.0090 C   0  0  0  0  0  3  0  0  0  0  0  0
  183.3130  178.4110  141.2740 C   0  0  0  0  0  0  0  0  0  0  0  0
  183.4800  177.3520  140.6130 O   0  0  0  0  0  0  0  0  0  0  0  0
  184.3990  179.0200  141.9860 N   0  0  0  0  0  2  0  0  0  0  0  0
  181.0030  178.0160  141.6170 O   0  0  0  0  0  0  0  0  0  0  0  0
  181.3750  178.8320  142.6980 C   0  0  0  0  0  2  0  0  0  0  0  0
  181.9530  179.0200  141.3490 C   0  0  1  0  0  3  0  0  0  0  0  0
  190.2900  176.3070  141.1610 C   0  0  0  0  0  2  0  0  0  0  0  0
  191.8670  177.7190  140.0840 O   0  0  0  0  0  0  0  0  0  0  0  0
  190.7470  177.1450  140.0160 C   0  0  0  0  0  0  0  0  0  0  0  0
  189.8880  177.3020  138.8750 N   0  0  0  0  0  0  0  0  0  0  0  0
  189.7830  176.5080  137.8470 C   0  0  0  0  0  3  0  0  0  0  0  0
  191.1610  174.3240  137.5560 N   0  0  0  0  0  0  0  0  0  0  0  0
  190.5460  175.2960  137.6850 C   0  0  0  0  0  0  0  0  0  0  0  0
  1  5  1  0  0  0  0
  2  1  1  0  0  0  0
  3  1  2  0  0  0  0
  4  9  1  0  0  0  0
  5  7  1  0  0  0  0
  5  4  2  0  0  0  0
  6 11  1  0  0  0  0
  7  8  2  0  0  0  0
  8  6  1  0  0  0  0
  9  6  2  0  0  0  0
 11 10  1  0  0  0  0
 12  2  1  0  0  0  0
 12 17  1  0  0  0  0
 13 14  1  0  0  0  0
 13 16  2  0  0  0  0
 14 12  2  0  0  0  0
 15 17  2  0  0  0  0
 16 15  1  0  0  0  0
 18 20  1  0  0  0  0
 19 18  2  0  0  0  0
 20 16  1  0  0  0  0
 21 22  1  0  0  0  0
 23 18  1  1  0  0  0
 23 21  1  0  0  0  0
 23 22  1  0  0  0  0
 24  2  1  0  0  0  0
 26 25  2  0  0  0  0
 26 24  1  0  0  0  0
 27 26  1  0  0  0  0
 28 27  2  0  0  0  0
 29 30  3  0  0  0  0
 30 28  1  0  0  0  0
M  END
>  <MODEL>
9

>  <REMARK>
 VINA RESULT:      -6.1      1.846      2.302
  Name = 
  9 active torsions:
  status: ('A' for Active; 'I' for Inactive)
    1  A    between atoms: C_2  and  C_29
    2  A    between atoms: C_3  and  C_16
    3  A    between atoms: N_7  and  C_30
    4  A    between atoms: C_8  and  N_17
    5  A    between atoms: C_10  and  O_27
    6  A    between atoms: C_11  and  C_24
    7  A    between atoms: N_17  and  C_22
    8  A    between atoms: N_19  and  C_23
    9  A    between atoms: C_22  and  C_30
                            x       y       z     vdW  Elec       q    Type
                         _______ _______ _______ _____ _____    ______ ____

>  <TORSDO>
F 9

$$$$
