=
 OpenBabel11042411063D

 39 45  0  0  1  0  0  0  0  0999 V2000
  183.3870  178.3270  142.0070 C   0  0  2  0  0  3  0  0  0  0  0  0
  190.7380  176.3480  143.4470 O   0  0  0  0  0  0  0  0  0  0  0  0
  189.9220  176.8260  144.3470 C   0  0  0  0  0  0  0  0  0  0  0  0
  187.6710  177.5740  144.5590 C   0  0  0  0  0  0  0  0  0  0  0  0
  185.6120  177.8730  143.1380 C   0  0  0  0  0  3  0  0  0  0  0  0
  189.1330  177.6130  146.5040 C   0  0  0  0  0  3  0  0  0  0  0  0
  185.8620  178.3670  145.5040 C   0  0  0  0  0  0  0  0  0  0  0  0
  188.6990  177.0590  143.7800 C   0  0  0  0  0  0  0  0  0  0  0  0
  184.2720  178.3100  143.2200 C   0  0  0  0  0  0  0  0  0  0  0  0
  186.3720  177.9140  144.3030 C   0  0  0  0  0  0  0  0  0  0  0  0
  187.8840  177.8420  145.9000 C   0  0  1  0  0  3  0  0  0  0  0  0
  183.7500  178.7710  144.4490 C   0  0  0  0  0  3  0  0  0  0  0  0
  184.5450  178.8030  145.6090 C   0  0  0  0  0  3  0  0  0  0  0  0
  190.0800  176.2620  142.3010 C   0  0  0  0  0  3  0  0  0  0  0  0
  186.7770  178.3320  146.5030 N   0  0  0  0  0  0  0  0  0  0  0  0
  190.1830  177.0930  145.7070 C   0  0  0  0  0  0  0  0  0  0  0  0
  188.7620  176.7040  142.4520 C   0  0  0  0  0  3  0  0  0  0  0  0
  191.5240  176.8280  146.3070 C   0  0  0  0  0  2  0  0  0  0  0  0
  192.7200  175.7160  148.1910 C   0  0  0  0  0  1  0  0  0  0  0  0
  191.4420  175.7520  147.3780 C   0  0  0  0  0  2  0  0  0  0  0  0
  186.0270  178.7690  139.8300 O   0  0  0  0  0  0  0  0  0  0  0  0
  185.4860  179.3330  141.0070 C   0  0  0  0  0  2  0  0  0  0  0  0
  183.9570  179.2030  140.8850 C   0  0  1  0  0  3  0  0  0  0  0  0
  185.2810  177.7510  137.8050 C   0  0  0  0  0  3  0  0  0  0  0  0
  185.0380  178.3340  138.9760 C   0  0  0  0  0  0  0  0  0  0  0  0
  183.6850  178.5720  139.5170 C   0  0  2  0  0  3  0  0  0  0  0  0
  182.8020  179.7400  138.5020 Cl  0  0  0  0  0  0  0  0  0  0  0  0
  187.8510  177.2280  135.0640 O   0  0  0  0  0  0  0  0  0  0  0  0
  187.1340  178.7170  136.5870 C   0  0  0  0  0  2  0  0  0  0  0  0
  186.6500  177.5070  135.7750 C   0  0  2  0  0  0  0  0  0  0  0  0
  186.6690  177.5300  137.3110 C   0  0  2  0  0  3  0  0  0  0  0  0
  187.2650  176.1420  135.6720 C   0  0  0  0  0  2  0  0  0  0  0  0
  181.7030  178.8680  142.4720 S   0  0  0  0  0  0  0  0  0  0  0  0
  180.9100  177.8680  141.1810 C   0  0  0  0  0  2  0  0  0  0  0  0
  179.5660  177.4920  141.6040 N   0  0  0  0  0  2  0  0  0  0  0  0
  179.1410  176.2880  140.8900 C   0  0  1  0  0  3  0  0  0  0  0  0
  180.0120  176.0140  139.8330 O   0  0  0  0  0  1  0  0  0  0  0  0
  179.2430  174.0780  140.9300 C   0  0  0  0  0  1  0  0  0  0  0  0
  179.0680  175.1900  141.7520 O   0  0  0  0  0  0  0  0  0  0  0  0
  1 33  1  1  0  0  0
  1  9  1  0  0  0  0
  2  3  1  0  0  0  0
  3 16  1  0  0  0  0
  4 11  1  0  0  0  0
  5  9  2  0  0  0  0
  5 10  1  0  0  0  0
  7 13  1  0  0  0  0
  7 15  2  0  0  0  0
  8  3  2  0  0  0  0
  8  4  1  0  0  0  0
  9 12  1  0  0  0  0
 10  4  2  0  0  0  0
 10  7  1  0  0  0  0
 11 15  1  0  0  0  0
 11  6  1  6  0  0  0
 12 13  2  0  0  0  0
 14 17  2  0  0  0  0
 14  2  1  0  0  0  0
 16 18  1  0  0  0  0
 16  6  2  0  0  0  0
 17  8  1  0  0  0  0
 18 20  1  0  0  0  0
 20 19  1  0  0  0  0
 21 22  1  0  0  0  0
 23 22  1  0  0  0  0
 23  1  1  1  0  0  0
 24 25  2  0  0  0  0
 25 26  1  0  0  0  0
 25 21  1  0  0  0  0
 26 27  1  6  0  0  0
 26 23  1  0  0  0  0
 28 32  1  0  0  0  0
 28 30  1  0  0  0  0
 29 31  1  0  0  0  0
 30 32  1  6  0  0  0
 30 29  1  0  0  0  0
 30 31  1  0  0  0  0
 31 24  1  1  0  0  0
 34 35  1  0  0  0  0
 34 33  1  0  0  0  0
 36 37  1  6  0  0  0
 36 35  1  0  0  0  0
 36 39  1  0  0  0  0
 38 39  1  0  0  0  0
M  END
>  <MODEL>
1

>  <REMARK>
 VINA RESULT:      -9.7      0.000      0.000
  Name = 
  10 active torsions:
  status: ('A' for Active; 'I' for Inactive)
    1  A    between atoms: S_6  and  C_8
    2  A    between atoms: S_6  and  C_20
    3  A    between atoms: C_8  and  N_18
    4  A    between atoms: C_13  and  C_20
    5  A    between atoms: C_14  and  N_18
    6  A    between atoms: C_14  and  O_33
    7  A    between atoms: C_17  and  C_21
    8  A    between atoms: C_19  and  C_37
    9  A    between atoms: C_19  and  C_39
   10  A    between atoms: C_20  and  C_26
                            x       y       z     vdW  Elec       q    Type
                         _______ _______ _______ _____ _____    ______ ____

>  <TORSDO>
F 10

$$$$
=
 OpenBabel11042411063D

 39 45  0  0  1  0  0  0  0  0999 V2000
  182.5040  178.4380  139.9710 C   0  0  2  0  0  3  0  0  0  0  0  0
  188.5900  177.4530  144.6640 O   0  0  0  0  0  0  0  0  0  0  0  0
  187.4140  177.8500  145.0690 C   0  0  0  0  0  0  0  0  0  0  0  0
  185.2450  178.3130  144.2030 C   0  0  0  0  0  0  0  0  0  0  0  0
  184.0210  178.3050  142.0000 C   0  0  0  0  0  3  0  0  0  0  0  0
  185.6680  178.5960  146.5830 C   0  0  0  0  0  3  0  0  0  0  0  0
  183.1350  178.8980  144.1840 C   0  0  0  0  0  0  0  0  0  0  0  0
  186.5580  177.9090  144.0030 C   0  0  0  0  0  0  0  0  0  0  0  0
  182.7500  178.5700  141.4470 C   0  0  0  0  0  0  0  0  0  0  0  0
  184.1700  178.4770  143.3740 C   0  0  0  0  0  0  0  0  0  0  0  0
  184.8070  178.6460  145.4730 C   0  0  1  0  0  3  0  0  0  0  0  0
  181.6890  178.9980  142.2760 C   0  0  0  0  0  3  0  0  0  0  0  0
  181.8730  179.1660  143.6600 C   0  0  0  0  0  3  0  0  0  0  0  0
  188.5280  177.2500  143.3570 C   0  0  0  0  0  3  0  0  0  0  0  0
  183.5040  179.0100  145.4820 N   0  0  0  0  0  0  0  0  0  0  0  0
  187.0110  178.1900  146.3770 C   0  0  0  0  0  0  0  0  0  0  0  0
  187.2450  177.5250  142.8740 C   0  0  0  0  0  3  0  0  0  0  0  0
  187.9600  178.1150  147.5270 C   0  0  0  0  0  2  0  0  0  0  0  0
  190.1400  176.9070  147.5030 C   0  0  0  0  0  1  0  0  0  0  0  0
  188.6360  176.7550  147.5920 C   0  0  0  0  0  2  0  0  0  0  0  0
  180.4830  176.8140  137.6950 O   0  0  0  0  0  0  0  0  0  0  0  0
  180.7650  178.1200  138.1570 C   0  0  0  0  0  2  0  0  0  0  0  0
  181.0720  177.9880  139.6600 C   0  0  1  0  0  3  0  0  0  0  0  0
  180.3300  174.5890  138.5420 C   0  0  0  0  0  3  0  0  0  0  0  0
  180.5410  175.8920  138.7150 C   0  0  0  0  0  0  0  0  0  0  0  0
  180.8820  176.5100  140.0110 C   0  0  2  0  0  3  0  0  0  0  0  0
  179.5250  176.3530  141.1550 Cl  0  0  0  0  0  0  0  0  0  0  0  0
  181.0090  172.3480  135.5580 O   0  0  0  0  0  0  0  0  0  0  0  0
  179.6670  172.5960  137.3440 C   0  0  0  0  0  2  0  0  0  0  0  0
  181.0640  172.9790  136.8330 C   0  0  2  0  0  0  0  0  0  0  0  0
  179.9960  174.0180  137.2070 C   0  0  2  0  0  3  0  0  0  0  0  0
  181.4370  173.6540  135.5460 C   0  0  0  0  0  2  0  0  0  0  0  0
  183.7270  177.2940  139.2360 S   0  0  0  0  0  0  0  0  0  0  0  0
  184.6740  178.6340  138.4610 C   0  0  0  0  0  2  0  0  0  0  0  0
  186.0400  178.6340  138.9720 N   0  0  0  0  0  2  0  0  0  0  0  0
  186.9420  178.0560  137.9750 C   0  0  1  0  0  3  0  0  0  0  0  0
  187.4450  179.0530  137.1360 O   0  0  0  0  0  1  0  0  0  0  0  0
  188.6180  178.3080  139.3970 C   0  0  0  0  0  1  0  0  0  0  0  0
  187.9910  177.3630  138.5850 O   0  0  0  0  0  0  0  0  0  0  0  0
  1 33  1  1  0  0  0
  1  9  1  0  0  0  0
  2  3  1  0  0  0  0
  3 16  1  0  0  0  0
  4 11  1  0  0  0  0
  5 10  1  0  0  0  0
  7 15  2  0  0  0  0
  8  4  1  0  0  0  0
  8  3  2  0  0  0  0
  9  5  2  0  0  0  0
  9 12  1  0  0  0  0
 10  7  1  0  0  0  0
 10  4  2  0  0  0  0
 11 15  1  0  0  0  0
 11  6  1  6  0  0  0
 12 13  2  0  0  0  0
 13  7  1  0  0  0  0
 14  2  1  0  0  0  0
 16  6  2  0  0  0  0
 16 18  1  0  0  0  0
 17 14  2  0  0  0  0
 17  8  1  0  0  0  0
 18 20  1  0  0  0  0
 19 20  1  0  0  0  0
 21 22  1  0  0  0  0
 21 25  1  0  0  0  0
 22 23  1  0  0  0  0
 23  1  1  6  0  0  0
 23 26  1  0  0  0  0
 24 25  2  0  0  0  0
 25 26  1  0  0  0  0
 26 27  1  1  0  0  0
 28 30  1  0  0  0  0
 30 32  1  1  0  0  0
 30 31  1  0  0  0  0
 30 29  1  0  0  0  0
 31 29  1  0  0  0  0
 31 24  1  1  0  0  0
 32 28  1  0  0  0  0
 34 35  1  0  0  0  0
 34 33  1  0  0  0  0
 36 37  1  1  0  0  0
 36 39  1  0  0  0  0
 36 35  1  0  0  0  0
 39 38  1  0  0  0  0
M  END
>  <MODEL>
2

>  <REMARK>
 VINA RESULT:      -9.6      2.859      5.314
  Name = 
  10 active torsions:
  status: ('A' for Active; 'I' for Inactive)
    1  A    between atoms: S_6  and  C_8
    2  A    between atoms: S_6  and  C_20
    3  A    between atoms: C_8  and  N_18
    4  A    between atoms: C_13  and  C_20
    5  A    between atoms: C_14  and  N_18
    6  A    between atoms: C_14  and  O_33
    7  A    between atoms: C_17  and  C_21
    8  A    between atoms: C_19  and  C_37
    9  A    between atoms: C_19  and  C_39
   10  A    between atoms: C_20  and  C_26
                            x       y       z     vdW  Elec       q    Type
                         _______ _______ _______ _____ _____    ______ ____

>  <TORSDO>
F 10

$$$$
=
 OpenBabel11042411063D

 39 45  0  0  1  0  0  0  0  0999 V2000
  189.8460  177.3020  143.4460 C   0  0  2  0  0  3  0  0  0  0  0  0
  182.7010  178.9200  140.9230 O   0  0  0  0  0  0  0  0  0  0  0  0
  183.0300  178.8460  142.1850 C   0  0  0  0  0  0  0  0  0  0  0  0
  184.9320  178.4310  143.5550 C   0  0  0  0  0  0  0  0  0  0  0  0
  187.3800  177.8830  143.3180 C   0  0  0  0  0  3  0  0  0  0  0  0
  182.7830  178.8920  144.5990 C   0  0  0  0  0  3  0  0  0  0  0  0
  186.1210  178.1730  145.3750 C   0  0  0  0  0  0  0  0  0  0  0  0
  184.3630  178.5600  142.2960 C   0  0  0  0  0  0  0  0  0  0  0  0
  188.5320  177.6310  144.0940 C   0  0  0  0  0  0  0  0  0  0  0  0
  186.1960  178.1550  143.9970 C   0  0  0  0  0  0  0  0  0  0  0  0
  184.1550  178.5990  144.6880 C   0  0  1  0  0  3  0  0  0  0  0  0
  188.4560  177.6520  145.5040 C   0  0  0  0  0  3  0  0  0  0  0  0
  187.2430  177.9260  146.1610 C   0  0  0  0  0  3  0  0  0  0  0  0
  183.7870  178.6880  140.2020 C   0  0  0  0  0  3  0  0  0  0  0  0
  184.8720  178.4450  145.8250 N   0  0  0  0  0  0  0  0  0  0  0  0
  182.2010  179.0160  143.3130 C   0  0  0  0  0  0  0  0  0  0  0  0
  184.8900  178.4500  141.0280 C   0  0  0  0  0  3  0  0  0  0  0  0
  180.7490  179.3330  143.1700 C   0  0  0  0  0  2  0  0  0  0  0  0
  179.3610  178.0210  141.5690 C   0  0  0  0  0  1  0  0  0  0  0  0
  179.9290  178.0680  142.9720 C   0  0  0  0  0  2  0  0  0  0  0  0
  191.6510  177.3720  140.5060 O   0  0  0  0  0  0  0  0  0  0  0  0
  191.5030  178.1050  141.7050 C   0  0  0  0  0  2  0  0  0  0  0  0
  190.0160  178.0030  142.0920 C   0  0  1  0  0  3  0  0  0  0  0  0
  190.3190  176.1120  138.9800 C   0  0  0  0  0  3  0  0  0  0  0  0
  190.4500  176.8540  140.0770 C   0  0  0  0  0  0  0  0  0  0  0  0
  189.3350  177.2000  140.9800 C   0  0  2  0  0  3  0  0  0  0  0  0
  188.1560  178.2450  140.1470 Cl  0  0  0  0  0  0  0  0  0  0  0  0
  191.8940  174.6780  135.8420 O   0  0  0  0  0  0  0  0  0  0  0  0
  191.4380  176.6100  136.8960 C   0  0  0  0  0  2  0  0  0  0  0  0
  190.9630  175.1520  136.8090 C   0  0  2  0  0  0  0  0  0  0  0  0
  191.4820  175.7860  138.1080 C   0  0  2  0  0  3  0  0  0  0  0  0
  191.7670  173.8950  136.9650 C   0  0  0  0  0  2  0  0  0  0  0  0
  190.0210  175.4900  143.2750 S   0  0  0  0  0  0  0  0  0  0  0  0
  191.6980  175.4790  143.9700 C   0  0  0  0  0  2  0  0  0  0  0  0
  191.8070  176.4920  145.0130 N   0  0  0  0  0  2  0  0  0  0  0  0
  191.7300  175.8580  146.3300 C   0  0  1  0  0  3  0  0  0  0  0  0
  192.5380  174.7200  146.3720 O   0  0  0  0  0  1  0  0  0  0  0  0
  192.7450  175.9640  148.2930 C   0  0  0  0  0  1  0  0  0  0  0  0
  192.0970  176.7500  147.3410 O   0  0  0  0  0  0  0  0  0  0  0  0
  1 33  1  6  0  0  0
  1  9  1  0  0  0  0
  2  3  1  0  0  0  0
  3  8  2  0  0  0  0
  3 16  1  0  0  0  0
  4 10  2  0  0  0  0
  4 11  1  0  0  0  0
  5 10  1  0  0  0  0
  5  9  2  0  0  0  0
  7 15  2  0  0  0  0
  7 13  1  0  0  0  0
  8  4  1  0  0  0  0
  9 12  1  0  0  0  0
 10  7  1  0  0  0  0
 11  6  1  1  0  0  0
 11 15  1  0  0  0  0
 12 13  2  0  0  0  0
 14  2  1  0  0  0  0
 14 17  2  0  0  0  0
 16  6  2  0  0  0  0
 17  8  1  0  0  0  0
 18 16  1  0  0  0  0
 19 20  1  0  0  0  0
 20 18  1  0  0  0  0
 21 22  1  0  0  0  0
 22 23  1  0  0  0  0
 23  1  1  1  0  0  0
 24 25  2  0  0  0  0
 25 21  1  0  0  0  0
 25 26  1  0  0  0  0
 26 27  1  6  0  0  0
 26 23  1  0  0  0  0
 28 30  1  0  0  0  0
 28 32  1  0  0  0  0
 29 31  1  0  0  0  0
 30 29  1  6  0  0  0
 30 32  1  0  0  0  0
 30 31  1  0  0  0  0
 31 24  1  1  0  0  0
 33 34  1  0  0  0  0
 34 35  1  0  0  0  0
 35 36  1  0  0  0  0
 36 37  1  6  0  0  0
 36 39  1  0  0  0  0
 39 38  1  0  0  0  0
M  END
>  <MODEL>
3

>  <REMARK>
 VINA RESULT:      -9.4      3.175      8.116
  Name = 
  10 active torsions:
  status: ('A' for Active; 'I' for Inactive)
    1  A    between atoms: S_6  and  C_8
    2  A    between atoms: S_6  and  C_20
    3  A    between atoms: C_8  and  N_18
    4  A    between atoms: C_13  and  C_20
    5  A    between atoms: C_14  and  N_18
    6  A    between atoms: C_14  and  O_33
    7  A    between atoms: C_17  and  C_21
    8  A    between atoms: C_19  and  C_37
    9  A    between atoms: C_19  and  C_39
   10  A    between atoms: C_20  and  C_26
                            x       y       z     vdW  Elec       q    Type
                         _______ _______ _______ _____ _____    ______ ____

>  <TORSDO>
F 10

$$$$
=
 OpenBabel11042411063D

 39 45  0  0  1  0  0  0  0  0999 V2000
  182.8190  178.6770  140.9130 C   0  0  2  0  0  3  0  0  0  0  0  0
  189.4610  177.1280  144.5880 O   0  0  0  0  0  0  0  0  0  0  0  0
  188.3690  177.5170  145.1890 C   0  0  0  0  0  0  0  0  0  0  0  0
  186.1180  178.1080  144.6840 C   0  0  0  0  0  0  0  0  0  0  0  0
  184.5980  178.3260  142.6860 C   0  0  0  0  0  3  0  0  0  0  0  0
  186.8810  178.1670  146.9940 C   0  0  0  0  0  3  0  0  0  0  0  0
  184.0490  178.7430  145.0160 C   0  0  0  0  0  0  0  0  0  0  0  0
  187.3740  177.6910  144.2650 C   0  0  0  0  0  0  0  0  0  0  0  0
  183.2730  178.6710  142.3440 C   0  0  0  0  0  0  0  0  0  0  0  0
  184.9450  178.3710  144.0330 C   0  0  0  0  0  0  0  0  0  0  0  0
  185.8750  178.3370  146.0270 C   0  0  1  0  0  3  0  0  0  0  0  0
  182.3560  179.0490  143.3500 C   0  0  0  0  0  3  0  0  0  0  0  0
  182.7380  179.0880  144.7020 C   0  0  0  0  0  3  0  0  0  0  0  0
  189.2090  177.0440  143.2910 C   0  0  0  0  0  3  0  0  0  0  0  0
  184.6010  178.7300  146.2530 N   0  0  0  0  0  0  0  0  0  0  0  0
  188.1650  177.7480  146.5650 C   0  0  0  0  0  0  0  0  0  0  0  0
  187.8820  177.3930  143.0210 C   0  0  0  0  0  3  0  0  0  0  0  0
  189.2630  177.5480  147.5570 C   0  0  0  0  0  2  0  0  0  0  0  0
  191.4460  176.3630  147.3420 C   0  0  0  0  0  1  0  0  0  0  0  0
  189.9400  176.2010  147.3620 C   0  0  0  0  0  2  0  0  0  0  0  0
  180.0340  179.6600  139.1280 O   0  0  0  0  0  0  0  0  0  0  0  0
  180.6580  179.8850  140.3760 C   0  0  0  0  0  2  0  0  0  0  0  0
  181.2960  178.5460  140.7870 C   0  0  1  0  0  3  0  0  0  0  0  0
  179.6870  177.8830  137.5740 C   0  0  0  0  0  3  0  0  0  0  0  0
  180.1710  178.3520  138.7220 C   0  0  0  0  0  0  0  0  0  0  0  0
  180.9290  177.5390  139.6930 C   0  0  2  0  0  3  0  0  0  0  0  0
  179.8910  176.2710  140.3930 Cl  0  0  0  0  0  0  0  0  0  0  0  0
  179.4440  180.2160  134.5940 O   0  0  0  0  0  0  0  0  0  0  0  0
  178.9310  178.1420  135.2920 C   0  0  0  0  0  2  0  0  0  0  0  0
  179.9100  179.2910  135.5700 C   0  0  2  0  0  0  0  0  0  0  0  0
  178.9350  178.7510  136.6260 C   0  0  2  0  0  3  0  0  0  0  0  0
  179.6070  180.7320  135.8570 C   0  0  0  0  0  2  0  0  0  0  0  0
  183.6700  177.3520  139.9830 S   0  0  0  0  0  0  0  0  0  0  0  0
  184.4410  178.5160  138.8220 C   0  0  0  0  0  2  0  0  0  0  0  0
  185.8690  178.6210  139.1020 N   0  0  0  0  0  2  0  0  0  0  0  0
  186.6360  178.1850  137.9350 C   0  0  1  0  0  3  0  0  0  0  0  0
  187.1040  179.2890  137.2180 O   0  0  0  0  0  1  0  0  0  0  0  0
  188.0630  176.6910  137.1430 C   0  0  0  0  0  1  0  0  0  0  0  0
  187.7020  177.3640  138.3100 O   0  0  0  0  0  0  0  0  0  0  0  0
  1 33  1  6  0  0  0
  1  9  1  0  0  0  0
  2  3  1  0  0  0  0
  3 16  1  0  0  0  0
  4 11  1  0  0  0  0
  5 10  1  0  0  0  0
  7 15  2  0  0  0  0
  8  4  1  0  0  0  0
  8  3  2  0  0  0  0
  9  5  2  0  0  0  0
  9 12  1  0  0  0  0
 10  4  2  0  0  0  0
 10  7  1  0  0  0  0
 11 15  1  0  0  0  0
 11  6  1  6  0  0  0
 12 13  2  0  0  0  0
 13  7  1  0  0  0  0
 14  2  1  0  0  0  0
 16  6  2  0  0  0  0
 16 18  1  0  0  0  0
 17 14  2  0  0  0  0
 17  8  1  0  0  0  0
 19 20  1  0  0  0  0
 20 18  1  0  0  0  0
 21 22  1  0  0  0  0
 22 23  1  0  0  0  0
 23  1  1  6  0  0  0
 24 25  2  0  0  0  0
 25 21  1  0  0  0  0
 25 26  1  0  0  0  0
 26 27  1  1  0  0  0
 26 23  1  0  0  0  0
 28 30  1  0  0  0  0
 28 32  1  0  0  0  0
 29 31  1  0  0  0  0
 30 29  1  6  0  0  0
 30 32  1  0  0  0  0
 30 31  1  0  0  0  0
 31 24  1  1  0  0  0
 34 35  1  0  0  0  0
 34 33  1  0  0  0  0
 36 37  1  1  0  0  0
 36 39  1  0  0  0  0
 36 35  1  0  0  0  0
 38 39  1  0  0  0  0
M  END
>  <MODEL>
4

>  <REMARK>
 VINA RESULT:      -9.3      2.960      4.981
  Name = 
  10 active torsions:
  status: ('A' for Active; 'I' for Inactive)
    1  A    between atoms: S_6  and  C_8
    2  A    between atoms: S_6  and  C_20
    3  A    between atoms: C_8  and  N_18
    4  A    between atoms: C_13  and  C_20
    5  A    between atoms: C_14  and  N_18
    6  A    between atoms: C_14  and  O_33
    7  A    between atoms: C_17  and  C_21
    8  A    between atoms: C_19  and  C_37
    9  A    between atoms: C_19  and  C_39
   10  A    between atoms: C_20  and  C_26
                            x       y       z     vdW  Elec       q    Type
                         _______ _______ _______ _____ _____    ______ ____

>  <TORSDO>
F 10

$$$$
=
 OpenBabel11042411063D

 39 45  0  0  1  0  0  0  0  0999 V2000
  182.5050  178.5400  139.9390 C   0  0  2  0  0  3  0  0  0  0  0  0
  188.5850  177.6700  144.6610 O   0  0  0  0  0  0  0  0  0  0  0  0
  187.3840  177.9820  145.0690 C   0  0  0  0  0  0  0  0  0  0  0  0
  185.2020  178.3640  144.1970 C   0  0  0  0  0  0  0  0  0  0  0  0
  184.0040  178.3940  141.9790 C   0  0  0  0  0  3  0  0  0  0  0  0
  185.5830  178.5560  146.5920 C   0  0  0  0  0  3  0  0  0  0  0  0
  183.0630  178.8320  144.1760 C   0  0  0  0  0  0  0  0  0  0  0  0
  186.5370  178.0440  143.9960 C   0  0  0  0  0  0  0  0  0  0  0  0
  182.7260  178.6150  141.4220 C   0  0  0  0  0  0  0  0  0  0  0  0
  184.1290  178.5080  143.3610 C   0  0  0  0  0  0  0  0  0  0  0  0
  184.7320  178.6120  145.4750 C   0  0  1  0  0  3  0  0  0  0  0  0
  181.6350  178.9430  142.2560 C   0  0  0  0  0  3  0  0  0  0  0  0
  181.7940  179.0550  143.6490 C   0  0  0  0  0  3  0  0  0  0  0  0
  188.5480  177.5260  143.3450 C   0  0  0  0  0  3  0  0  0  0  0  0
  183.4110  178.9020  145.4840 N   0  0  0  0  0  0  0  0  0  0  0  0
  186.9480  178.2350  146.3860 C   0  0  0  0  0  0  0  0  0  0  0  0
  187.2570  177.7530  142.8590 C   0  0  0  0  0  3  0  0  0  0  0  0
  187.8880  178.1580  147.5430 C   0  0  0  0  0  2  0  0  0  0  0  0
  189.9450  176.7530  147.4640 C   0  0  0  0  0  1  0  0  0  0  0  0
  188.4490  176.7540  147.7020 C   0  0  0  0  0  2  0  0  0  0  0  0
  180.4540  181.2170  139.2100 O   0  0  0  0  0  0  0  0  0  0  0  0
  180.6850  180.2770  140.2390 C   0  0  0  0  0  2  0  0  0  0  0  0
  181.0850  178.9640  139.5420 C   0  0  1  0  0  3  0  0  0  0  0  0
  180.4810  181.3340  136.8270 C   0  0  0  0  0  3  0  0  0  0  0  0
  180.6250  180.6570  137.9640 C   0  0  0  0  0  0  0  0  0  0  0  0
  181.0030  179.2320  138.0360 C   0  0  2  0  0  3  0  0  0  0  0  0
  179.7260  178.2090  137.3320 Cl  0  0  0  0  0  0  0  0  0  0  0  0
  181.0270  184.9610  135.8620 O   0  0  0  0  0  0  0  0  0  0  0  0
  179.7250  183.1750  135.4540 C   0  0  0  0  0  2  0  0  0  0  0  0
  181.1260  183.5440  135.9620 C   0  0  2  0  0  0  0  0  0  0  0  0
  180.1040  182.7750  136.8130 C   0  0  2  0  0  3  0  0  0  0  0  0
  181.5040  184.4920  137.0630 C   0  0  0  0  0  2  0  0  0  0  0  0
  182.8790  176.8540  139.3370 S   0  0  0  0  0  0  0  0  0  0  0  0
  183.8950  177.4560  137.9580 C   0  0  0  0  0  2  0  0  0  0  0  0
  184.9670  178.3040  138.4680 N   0  0  0  0  0  2  0  0  0  0  0  0
  186.2440  177.8900  137.8850 C   0  0  1  0  0  3  0  0  0  0  0  0
  186.1520  177.8390  136.4930 O   0  0  0  0  0  1  0  0  0  0  0  0
  188.0160  178.0250  139.2030 C   0  0  0  0  0  1  0  0  0  0  0  0
  187.2760  178.7500  138.2710 O   0  0  0  0  0  0  0  0  0  0  0  0
  1 33  1  1  0  0  0
  1  9  1  0  0  0  0
  2  3  1  0  0  0  0
  3 16  1  0  0  0  0
  4 11  1  0  0  0  0
  5 10  1  0  0  0  0
  7 15  2  0  0  0  0
  8  4  1  0  0  0  0
  8  3  2  0  0  0  0
  9  5  2  0  0  0  0
  9 12  1  0  0  0  0
 10  7  1  0  0  0  0
 10  4  2  0  0  0  0
 11 15  1  0  0  0  0
 11  6  1  6  0  0  0
 12 13  2  0  0  0  0
 13  7  1  0  0  0  0
 14  2  1  0  0  0  0
 16  6  2  0  0  0  0
 16 18  1  0  0  0  0
 17 14  2  0  0  0  0
 17  8  1  0  0  0  0
 18 20  1  0  0  0  0
 19 20  1  0  0  0  0
 21 22  1  0  0  0  0
 23  1  1  6  0  0  0
 23 22  1  0  0  0  0
 24 25  2  0  0  0  0
 25 26  1  0  0  0  0
 25 21  1  0  0  0  0
 26 27  1  1  0  0  0
 26 23  1  0  0  0  0
 28 30  1  0  0  0  0
 28 32  1  0  0  0  0
 29 31  1  0  0  0  0
 30 29  1  6  0  0  0
 30 31  1  0  0  0  0
 30 32  1  0  0  0  0
 31 24  1  6  0  0  0
 34 35  1  0  0  0  0
 34 33  1  0  0  0  0
 36 37  1  6  0  0  0
 36 39  1  0  0  0  0
 36 35  1  0  0  0  0
 39 38  1  0  0  0  0
M  END
>  <MODEL>
5

>  <REMARK>
 VINA RESULT:      -9.3      3.517      5.392
  Name = 
  10 active torsions:
  status: ('A' for Active; 'I' for Inactive)
    1  A    between atoms: S_6  and  C_8
    2  A    between atoms: S_6  and  C_20
    3  A    between atoms: C_8  and  N_18
    4  A    between atoms: C_13  and  C_20
    5  A    between atoms: C_14  and  N_18
    6  A    between atoms: C_14  and  O_33
    7  A    between atoms: C_17  and  C_21
    8  A    between atoms: C_19  and  C_37
    9  A    between atoms: C_19  and  C_39
   10  A    between atoms: C_20  and  C_26
                            x       y       z     vdW  Elec       q    Type
                         _______ _______ _______ _____ _____    ______ ____

>  <TORSDO>
F 10

$$$$
=
 OpenBabel11042411063D

 39 45  0  0  1  0  0  0  0  0999 V2000
  188.6180  177.9900  145.5760 C   0  0  2  0  0  3  0  0  0  0  0  0
  183.6080  178.9040  139.7380 O   0  0  0  0  0  0  0  0  0  0  0  0
  183.2660  178.9000  140.9980 C   0  0  0  0  0  0  0  0  0  0  0  0
  184.2500  178.6950  143.1570 C   0  0  0  0  0  0  0  0  0  0  0  0
  186.5170  178.3520  144.2020 C   0  0  0  0  0  3  0  0  0  0  0  0
  181.8440  179.0020  142.9630 C   0  0  0  0  0  3  0  0  0  0  0  0
  184.3840  178.5990  145.3400 C   0  0  0  0  0  0  0  0  0  0  0  0
  184.3800  178.7330  141.7750 C   0  0  1  0  0  3  0  0  0  0  0  0
  187.1400  178.2240  145.4630 C   0  0  0  0  0  0  0  0  0  0  0  0
  185.1380  178.5420  144.1850 C   0  0  0  0  0  0  0  0  0  0  0  0
  183.0030  178.8320  143.7410 C   0  0  0  0  0  0  0  0  0  0  0  0
  186.3690  178.2850  146.6450 C   0  0  0  0  0  3  0  0  0  0  0  0
  184.9760  178.4740  146.5940 C   0  0  0  0  0  3  0  0  0  0  0  0
  184.9200  178.7430  139.6680 C   0  0  0  0  0  3  0  0  0  0  0  0
  183.0650  178.7760  145.0910 N   0  0  0  0  0  0  0  0  0  0  0  0
  181.9760  179.0340  141.5530 C   0  0  0  0  0  0  0  0  0  0  0  0
  185.4740  178.6280  140.9460 C   0  0  0  0  0  3  0  0  0  0  0  0
  180.7740  179.2190  140.6870 C   0  0  0  0  0  2  0  0  0  0  0  0
  180.6080  176.8690  139.8720 C   0  0  0  0  0  1  0  0  0  0  0  0
  179.9180  177.9630  140.6600 C   0  0  0  0  0  2  0  0  0  0  0  0
  188.2860  176.5130  142.4750 O   0  0  0  0  0  0  0  0  0  0  0  0
  187.9360  176.2900  143.8260 C   0  0  0  0  0  2  0  0  0  0  0  0
  189.0960  176.8480  144.6700 C   0  0  1  0  0  3  0  0  0  0  0  0
  190.0790  177.4360  141.2010 C   0  0  0  0  0  3  0  0  0  0  0  0
  189.5230  177.1060  142.3640 C   0  0  0  0  0  0  0  0  0  0  0  0
  190.1490  177.3500  143.6780 C   0  0  2  0  0  3  0  0  0  0  0  0
  191.6290  176.3750  143.8570 Cl  0  0  0  0  0  0  0  0  0  0  0  0
  189.6780  177.8430  137.4510 O   0  0  0  0  0  0  0  0  0  0  0  0
  190.2680  176.3670  139.0400 C   0  0  0  0  0  2  0  0  0  0  0  0
  190.1790  177.8780  138.7830 C   0  0  2  0  0  0  0  0  0  0  0  0
  189.3980  177.1740  139.9020 C   0  0  2  0  0  3  0  0  0  0  0  0
  189.0030  178.6800  138.3070 C   0  0  0  0  0  2  0  0  0  0  0  0
  189.0680  177.6750  147.3210 S   0  0  0  0  0  0  0  0  0  0  0  0
  190.5730  176.7610  146.8800 C   0  0  0  0  0  2  0  0  0  0  0  0
  191.6560  177.1270  147.7840 N   0  0  0  0  0  2  0  0  0  0  0  0
  192.4480  175.9410  148.1150 C   0  0  1  0  0  3  0  0  0  0  0  0
  192.8040  175.2520  146.9530 O   0  0  0  0  0  1  0  0  0  0  0  0
  193.1790  177.3140  149.6870 C   0  0  0  0  0  1  0  0  0  0  0  0
  193.5900  176.2840  148.8430 O   0  0  0  0  0  0  0  0  0  0  0  0
  1 33  1  1  0  0  0
  2  3  1  0  0  0  0
  3 16  2  0  0  0  0
  3  8  1  0  0  0  0
  4 11  1  0  0  0  0
  4 10  2  0  0  0  0
  5  9  2  0  0  0  0
  6 11  2  0  0  0  0
  7 13  1  0  0  0  0
  8 17  1  6  0  0  0
  8  4  1  0  0  0  0
  9  1  1  0  0  0  0
  9 12  1  0  0  0  0
 10  5  1  0  0  0  0
 10  7  1  0  0  0  0
 11 15  1  0  0  0  0
 13 12  2  0  0  0  0
 14  2  1  0  0  0  0
 14 17  2  0  0  0  0
 15  7  2  0  0  0  0
 16  6  1  0  0  0  0
 18 16  1  0  0  0  0
 19 20  1  0  0  0  0
 20 18  1  0  0  0  0
 21 22  1  0  0  0  0
 22 23  1  0  0  0  0
 23  1  1  6  0  0  0
 24 25  2  0  0  0  0
 25 21  1  0  0  0  0
 25 26  1  0  0  0  0
 26 27  1  6  0  0  0
 26 23  1  0  0  0  0
 28 32  1  0  0  0  0
 28 30  1  0  0  0  0
 29 31  1  0  0  0  0
 30 32  1  1  0  0  0
 30 29  1  0  0  0  0
 30 31  1  0  0  0  0
 31 24  1  1  0  0  0
 34 33  1  0  0  0  0
 34 35  1  0  0  0  0
 35 36  1  0  0  0  0
 36 37  1  6  0  0  0
 36 39  1  0  0  0  0
 39 38  1  0  0  0  0
M  END
>  <MODEL>
6

>  <REMARK>
 VINA RESULT:      -9.1      3.227      8.549
  Name = 
  10 active torsions:
  status: ('A' for Active; 'I' for Inactive)
    1  A    between atoms: S_6  and  C_8
    2  A    between atoms: S_6  and  C_20
    3  A    between atoms: C_8  and  N_18
    4  A    between atoms: C_13  and  C_20
    5  A    between atoms: C_14  and  N_18
    6  A    between atoms: C_14  and  O_33
    7  A    between atoms: C_17  and  C_21
    8  A    between atoms: C_19  and  C_37
    9  A    between atoms: C_19  and  C_39
   10  A    between atoms: C_20  and  C_26
                            x       y       z     vdW  Elec       q    Type
                         _______ _______ _______ _____ _____    ______ ____

>  <TORSDO>
F 10

$$$$
=
 OpenBabel11042411063D

 39 45  0  0  1  0  0  0  0  0999 V2000
  182.6670  177.9720  140.9520 C   0  0  2  0  0  3  0  0  0  0  0  0
  189.5210  176.7590  144.3550 O   0  0  0  0  0  0  0  0  0  0  0  0
  188.5110  177.3450  144.9390 C   0  0  0  0  0  0  0  0  0  0  0  0
  186.2590  177.9780  144.4920 C   0  0  0  0  0  0  0  0  0  0  0  0
  184.5780  177.8780  142.6170 C   0  0  0  0  0  3  0  0  0  0  0  0
  187.2310  178.4710  146.6680 C   0  0  0  0  0  3  0  0  0  0  0  0
  184.2670  178.8200  144.8350 C   0  0  0  0  0  0  0  0  0  0  0  0
  187.4480  177.3910  144.0790 C   0  0  0  0  0  0  0  0  0  0  0  0
  183.2480  178.2380  142.3110 C   0  0  0  0  0  0  0  0  0  0  0  0
  185.0480  178.1830  143.8910 C   0  0  0  0  0  0  0  0  0  0  0  0
  186.1520  178.5050  145.7670 C   0  0  1  0  0  3  0  0  0  0  0  0
  182.4490  178.8870  143.2770 C   0  0  0  0  0  3  0  0  0  0  0  0
  182.9530  179.1850  144.5550 C   0  0  0  0  0  3  0  0  0  0  0  0
  189.1470  176.4190  143.1310 C   0  0  0  0  0  3  0  0  0  0  0  0
  184.9270  179.0300  145.9990 N   0  0  0  0  0  0  0  0  0  0  0  0
  188.4460  177.8780  146.2430 C   0  0  0  0  0  0  0  0  0  0  0  0
  187.8230  176.7990  142.8940 C   0  0  0  0  0  3  0  0  0  0  0  0
  189.6170  177.8140  147.1670 C   0  0  0  0  0  2  0  0  0  0  0  0
  191.5490  176.2440  147.2940 C   0  0  0  0  0  1  0  0  0  0  0  0
  190.0440  176.3750  147.4110 C   0  0  0  0  0  2  0  0  0  0  0  0
  185.5710  179.0020  139.3990 O   0  0  0  0  0  0  0  0  0  0  0  0
  184.6140  179.4690  140.3280 C   0  0  0  0  0  2  0  0  0  0  0  0
  183.2590  178.8930  139.8780 C   0  0  1  0  0  3  0  0  0  0  0  0
  185.6730  177.6700  137.4220 C   0  0  0  0  0  3  0  0  0  0  0  0
  184.9890  178.2400  138.4120 C   0  0  0  0  0  0  0  0  0  0  0  0
  183.5290  178.1130  138.5880 C   0  0  2  0  0  3  0  0  0  0  0  0
  182.6650  178.8990  137.2410 Cl  0  0  0  0  0  0  0  0  0  0  0  0
  189.2360  176.3860  137.6280 O   0  0  0  0  0  0  0  0  0  0  0  0
  187.6390  177.0150  136.1770 C   0  0  0  0  0  2  0  0  0  0  0  0
  187.8160  176.4750  137.6040 C   0  0  2  0  0  0  0  0  0  0  0  0
  187.1490  177.8250  137.2970 C   0  0  2  0  0  3  0  0  0  0  0  0
  188.6710  177.0170  138.7110 C   0  0  0  0  0  2  0  0  0  0  0  0
  180.8460  178.1220  141.0140 S   0  0  0  0  0  0  0  0  0  0  0  0
  180.8530  179.7990  140.3190 C   0  0  0  0  0  2  0  0  0  0  0  0
  179.8330  179.9090  139.2820 N   0  0  0  0  0  2  0  0  0  0  0  0
  179.8810  181.2420  138.6810 C   0  0  1  0  0  3  0  0  0  0  0  0
  181.1850  181.7410  138.7010 O   0  0  0  0  0  1  0  0  0  0  0  0
  180.4300  181.7320  136.5940 C   0  0  0  0  0  1  0  0  0  0  0  0
  179.3910  181.2220  137.3720 O   0  0  0  0  0  0  0  0  0  0  0  0
  1 33  1  1  0  0  0
  1  9  1  0  0  0  0
  2  3  1  0  0  0  0
  3 16  1  0  0  0  0
  4 11  1  0  0  0  0
  5 10  1  0  0  0  0
  7 15  2  0  0  0  0
  8  4  1  0  0  0  0
  8  3  2  0  0  0  0
  9  5  2  0  0  0  0
  9 12  1  0  0  0  0
 10  4  2  0  0  0  0
 10  7  1  0  0  0  0
 11 15  1  0  0  0  0
 11  6  1  6  0  0  0
 12 13  2  0  0  0  0
 13  7  1  0  0  0  0
 14  2  1  0  0  0  0
 16  6  2  0  0  0  0
 16 18  1  0  0  0  0
 17 14  2  0  0  0  0
 17  8  1  0  0  0  0
 18 20  1  0  0  0  0
 19 20  1  0  0  0  0
 21 22  1  0  0  0  0
 23 22  1  0  0  0  0
 23  1  1  1  0  0  0
 24 25  2  0  0  0  0
 25 26  1  0  0  0  0
 25 21  1  0  0  0  0
 26 27  1  6  0  0  0
 26 23  1  0  0  0  0
 28 32  1  0  0  0  0
 29 31  1  0  0  0  0
 30 29  1  1  0  0  0
 30 28  1  0  0  0  0
 30 32  1  0  0  0  0
 31 24  1  6  0  0  0
 31 30  1  0  0  0  0
 34 33  1  0  0  0  0
 35 34  1  0  0  0  0
 36 37  1  6  0  0  0
 36 35  1  0  0  0  0
 38 39  1  0  0  0  0
 39 36  1  0  0  0  0
M  END
>  <MODEL>
7

>  <REMARK>
 VINA RESULT:      -9.1      2.219      2.828
  Name = 
  10 active torsions:
  status: ('A' for Active; 'I' for Inactive)
    1  A    between atoms: S_6  and  C_8
    2  A    between atoms: S_6  and  C_20
    3  A    between atoms: C_8  and  N_18
    4  A    between atoms: C_13  and  C_20
    5  A    between atoms: C_14  and  N_18
    6  A    between atoms: C_14  and  O_33
    7  A    between atoms: C_17  and  C_21
    8  A    between atoms: C_19  and  C_37
    9  A    between atoms: C_19  and  C_39
   10  A    between atoms: C_20  and  C_26
                            x       y       z     vdW  Elec       q    Type
                         _______ _______ _______ _____ _____    ______ ____

>  <TORSDO>
F 10

$$$$
=
 OpenBabel11042411063D

 39 45  0  0  1  0  0  0  0  0999 V2000
  181.3300  179.2170  139.6300 C   0  0  2  0  0  3  0  0  0  0  0  0
  188.1260  177.8920  143.1070 O   0  0  0  0  0  0  0  0  0  0  0  0
  186.9980  178.0510  143.7470 C   0  0  0  0  0  0  0  0  0  0  0  0
  184.6920  178.4480  143.3100 C   0  0  0  0  0  0  0  0  0  0  0  0
  183.1470  178.8010  141.3500 C   0  0  0  0  0  3  0  0  0  0  0  0
  185.4530  178.2310  145.6110 C   0  0  0  0  0  3  0  0  0  0  0  0
  182.5640  178.7790  143.7090 C   0  0  0  0  0  0  0  0  0  0  0  0
  185.9860  178.2520  142.8480 C   0  0  0  0  0  0  0  0  0  0  0  0
  181.7890  179.0380  141.0480 C   0  0  0  0  0  0  0  0  0  0  0  0
  183.4920  178.6730  142.6920 C   0  0  0  0  0  0  0  0  0  0  0  0
  184.4300  178.4330  144.6690 C   0  0  1  0  0  3  0  0  0  0  0  0
  180.8390  179.1440  142.0880 C   0  0  0  0  0  3  0  0  0  0  0  0
  181.2200  179.0140  143.4350 C   0  0  0  0  0  3  0  0  0  0  0  0
  187.8790  177.9840  141.8100 C   0  0  0  0  0  3  0  0  0  0  0  0
  183.1190  178.6350  144.9360 N   0  0  0  0  0  0  0  0  0  0  0  0
  186.7760  178.0370  145.1390 C   0  0  0  0  0  0  0  0  0  0  0  0
  186.5190  178.2140  141.5800 C   0  0  0  0  0  3  0  0  0  0  0  0
  187.8940  177.8120  146.1020 C   0  0  0  0  0  2  0  0  0  0  0  0
  188.6330  177.9860  148.4770 C   0  0  0  0  0  1  0  0  0  0  0  0
  187.4580  178.1090  147.5280 C   0  0  0  0  0  2  0  0  0  0  0  0
  182.1210  176.8600  137.2370 O   0  0  0  0  0  0  0  0  0  0  0  0
  181.1900  177.8970  137.4720 C   0  0  0  0  0  2  0  0  0  0  0  0
  180.9090  177.8900  138.9850 C   0  0  1  0  0  3  0  0  0  0  0  0
  183.2960  175.1750  138.4510 C   0  0  0  0  0  3  0  0  0  0  0  0
  182.4320  176.1870  138.3960 C   0  0  0  0  0  0  0  0  0  0  0  0
  181.7160  176.7270  139.5690 C   0  0  2  0  0  3  0  0  0  0  0  0
  180.5910  175.5120  140.2290 Cl  0  0  0  0  0  0  0  0  0  0  0  0
  185.5230  172.7250  136.6020 O   0  0  0  0  0  0  0  0  0  0  0  0
  183.3930  173.4140  136.7980 C   0  0  0  0  0  2  0  0  0  0  0  0
  184.7110  173.3610  137.5830 C   0  0  2  0  0  0  0  0  0  0  0  0
  183.9980  174.6750  137.2360 C   0  0  2  0  0  3  0  0  0  0  0  0
  186.0670  173.8520  137.1700 C   0  0  0  0  0  2  0  0  0  0  0  0
  182.6390  180.0370  138.6500 S   0  0  0  0  0  0  0  0  0  0  0  0
  181.6670  181.5540  138.4240 C   0  0  0  0  0  2  0  0  0  0  0  0
  180.7670  181.4000  137.2870 N   0  0  0  0  0  2  0  0  0  0  0  0
  180.1940  182.6980  136.9300 C   0  0  1  0  0  3  0  0  0  0  0  0
  180.3220  183.5970  137.9910 O   0  0  0  0  0  1  0  0  0  0  0  0
  180.9450  184.5790  136.0390 C   0  0  0  0  0  1  0  0  0  0  0  0
  180.7960  183.2170  135.7800 O   0  0  0  0  0  0  0  0  0  0  0  0
  1 33  1  6  0  0  0
  1  9  1  0  0  0  0
  2  3  1  0  0  0  0
  3 16  1  0  0  0  0
  4 11  1  0  0  0  0
  5 10  1  0  0  0  0
  7 15  2  0  0  0  0
  8  4  1  0  0  0  0
  8  3  2  0  0  0  0
  9  5  2  0  0  0  0
  9 12  1  0  0  0  0
 10  4  2  0  0  0  0
 10  7  1  0  0  0  0
 11 15  1  0  0  0  0
 11  6  1  1  0  0  0
 12 13  2  0  0  0  0
 13  7  1  0  0  0  0
 14  2  1  0  0  0  0
 16  6  2  0  0  0  0
 16 18  1  0  0  0  0
 17 14  2  0  0  0  0
 17  8  1  0  0  0  0
 18 20  1  0  0  0  0
 20 19  1  0  0  0  0
 21 22  1  0  0  0  0
 21 25  1  0  0  0  0
 22 23  1  0  0  0  0
 23 26  1  0  0  0  0
 23  1  1  1  0  0  0
 25 24  2  0  0  0  0
 25 26  1  0  0  0  0
 26 27  1  6  0  0  0
 28 32  1  0  0  0  0
 28 30  1  0  0  0  0
 29 31  1  0  0  0  0
 30 29  1  1  0  0  0
 31 30  1  0  0  0  0
 31 24  1  1  0  0  0
 32 30  1  0  0  0  0
 34 33  1  0  0  0  0
 35 34  1  0  0  0  0
 36 35  1  0  0  0  0
 36 37  1  1  0  0  0
 39 38  1  0  0  0  0
 39 36  1  0  0  0  0
M  END
>  <MODEL>
8

>  <REMARK>
 VINA RESULT:      -8.8      3.608      4.910
  Name = 
  10 active torsions:
  status: ('A' for Active; 'I' for Inactive)
    1  A    between atoms: S_6  and  C_8
    2  A    between atoms: S_6  and  C_20
    3  A    between atoms: C_8  and  N_18
    4  A    between atoms: C_13  and  C_20
    5  A    between atoms: C_14  and  N_18
    6  A    between atoms: C_14  and  O_33
    7  A    between atoms: C_17  and  C_21
    8  A    between atoms: C_19  and  C_37
    9  A    between atoms: C_19  and  C_39
   10  A    between atoms: C_20  and  C_26
                            x       y       z     vdW  Elec       q    Type
                         _______ _______ _______ _____ _____    ______ ____

>  <TORSDO>
F 10

$$$$
=
 OpenBabel11042411063D

 39 45  0  0  1  0  0  0  0  0999 V2000
  183.2720  179.1560  139.2290 C   0  0  2  0  0  3  0  0  0  0  0  0
  189.6560  177.4160  143.2590 O   0  0  0  0  0  0  0  0  0  0  0  0
  188.4780  177.5880  143.7970 C   0  0  0  0  0  0  0  0  0  0  0  0
  186.2380  178.0920  143.1660 C   0  0  0  0  0  0  0  0  0  0  0  0
  184.9010  178.5930  141.0890 C   0  0  0  0  0  3  0  0  0  0  0  0
  186.7690  177.7400  145.5140 C   0  0  0  0  0  3  0  0  0  0  0  0
  184.0950  178.4840  143.3790 C   0  0  0  0  0  0  0  0  0  0  0  0
  187.5640  177.8680  142.8190 C   0  0  0  0  0  0  0  0  0  0  0  0
  183.5870  178.8950  140.6730 C   0  0  0  0  0  0  0  0  0  0  0  0
  185.1120  178.3900  142.4500 C   0  0  0  0  0  0  0  0  0  0  0  0
  185.8470  178.0240  144.4920 C   0  0  1  0  0  3  0  0  0  0  0  0
  182.5450  178.9880  141.6230 C   0  0  0  0  0  3  0  0  0  0  0  0
  182.7910  178.7820  142.9920 C   0  0  0  0  0  3  0  0  0  0  0  0
  189.5370  177.5770  141.9510 C   0  0  0  0  0  3  0  0  0  0  0  0
  184.5240  178.2630  144.6440 N   0  0  0  0  0  0  0  0  0  0  0  0
  188.1230  177.5180  145.1600 C   0  0  0  0  0  0  0  0  0  0  0  0
  188.2140  177.8690  141.6060 C   0  0  0  0  0  3  0  0  0  0  0  0
  189.1360  177.2070  146.2120 C   0  0  0  0  0  2  0  0  0  0  0  0
  189.0140  178.2290  148.4820 C   0  0  0  0  0  1  0  0  0  0  0  0
  188.4920  177.1250  147.5870 C   0  0  0  0  0  2  0  0  0  0  0  0
  180.8220  181.5320  138.7200 O   0  0  0  0  0  0  0  0  0  0  0  0
  181.2880  180.6510  139.7220 C   0  0  0  0  0  2  0  0  0  0  0  0
  181.7740  179.3860  138.9930 C   0  0  1  0  0  3  0  0  0  0  0  0
  180.5670  181.5990  136.3490 C   0  0  0  0  0  3  0  0  0  0  0  0
  180.9240  180.9720  137.4670 C   0  0  0  0  0  0  0  0  0  0  0  0
  181.4900  179.6090  137.5050 C   0  0  2  0  0  3  0  0  0  0  0  0
  180.2850  178.4150  136.9580 Cl  0  0  0  0  0  0  0  0  0  0  0  0
  180.8380  185.3620  135.9580 O   0  0  0  0  0  0  0  0  0  0  0  0
  179.9730  183.5200  135.0050 C   0  0  0  0  0  2  0  0  0  0  0  0
  181.1060  183.9650  135.9410 C   0  0  2  0  0  0  0  0  0  0  0  0
  180.0070  182.9800  136.3680 C   0  0  2  0  0  3  0  0  0  0  0  0
  181.0180  184.7860  137.1930 C   0  0  0  0  0  2  0  0  0  0  0  0
  183.8950  177.7800  138.1970 S   0  0  0  0  0  0  0  0  0  0  0  0
  182.7020  176.5910  138.8720 C   0  0  0  0  0  2  0  0  0  0  0  0
  183.0770  175.2370  138.4810 N   0  0  0  0  0  2  0  0  0  0  0  0
  182.0300  174.6560  137.6400 C   0  0  1  0  0  3  0  0  0  0  0  0
  180.8310  174.5610  138.3500 O   0  0  0  0  0  1  0  0  0  0  0  0
  180.7520  174.8170  135.8420 C   0  0  0  0  0  1  0  0  0  0  0  0
  181.8450  175.4060  136.4760 O   0  0  0  0  0  0  0  0  0  0  0  0
  1 33  1  6  0  0  0
  1  9  1  0  0  0  0
  2  3  1  0  0  0  0
  3 16  1  0  0  0  0
  4 11  1  0  0  0  0
  5 10  1  0  0  0  0
  7 15  2  0  0  0  0
  8  4  1  0  0  0  0
  8  3  2  0  0  0  0
  9  5  2  0  0  0  0
  9 12  1  0  0  0  0
 10  4  2  0  0  0  0
 10  7  1  0  0  0  0
 11 15  1  0  0  0  0
 11  6  1  1  0  0  0
 12 13  2  0  0  0  0
 13  7  1  0  0  0  0
 14  2  1  0  0  0  0
 16  6  2  0  0  0  0
 16 18  1  0  0  0  0
 17 14  2  0  0  0  0
 17  8  1  0  0  0  0
 18 20  1  0  0  0  0
 20 19  1  0  0  0  0
 21 22  1  0  0  0  0
 23  1  1  6  0  0  0
 23 22  1  0  0  0  0
 24 25  2  0  0  0  0
 25 26  1  0  0  0  0
 25 21  1  0  0  0  0
 26 27  1  1  0  0  0
 26 23  1  0  0  0  0
 28 32  1  0  0  0  0
 29 31  1  0  0  0  0
 30 29  1  6  0  0  0
 30 28  1  0  0  0  0
 30 31  1  0  0  0  0
 30 32  1  0  0  0  0
 31 24  1  6  0  0  0
 33 34  1  0  0  0  0
 35 34  1  0  0  0  0
 36 37  1  1  0  0  0
 36 35  1  0  0  0  0
 38 39  1  0  0  0  0
 39 36  1  0  0  0  0
M  END
>  <MODEL>
9

>  <REMARK>
 VINA RESULT:      -8.5      3.781      4.785
  Name = 
  10 active torsions:
  status: ('A' for Active; 'I' for Inactive)
    1  A    between atoms: S_6  and  C_8
    2  A    between atoms: S_6  and  C_20
    3  A    between atoms: C_8  and  N_18
    4  A    between atoms: C_13  and  C_20
    5  A    between atoms: C_14  and  N_18
    6  A    between atoms: C_14  and  O_33
    7  A    between atoms: C_17  and  C_21
    8  A    between atoms: C_19  and  C_37
    9  A    between atoms: C_19  and  C_39
   10  A    between atoms: C_20  and  C_26
                            x       y       z     vdW  Elec       q    Type
                         _______ _______ _______ _____ _____    ______ ____

>  <TORSDO>
F 10

$$$$
