=
 OpenBabel11032421263D

 34 39  0  0  1  0  0  0  0  0999 V2000
  182.8110  179.0210  140.9700 C   0  0  0  0  0  2  0  0  0  0  0  0
  181.3990  178.9710  141.5700 C   0  0  1  0  0  0  0  0  0  0  0  0
  179.7390  177.5790  142.6600 C   0  0  0  0  0  2  0  0  0  0  0  0
  178.9310  179.7060  143.6640 C   0  0  0  0  0  1  0  0  0  0  0  0
  183.8670  178.4100  141.8770 C   0  0  0  0  0  2  0  0  0  0  0  0
  180.8180  177.5560  141.5900 C   0  0  1  0  0  3  0  0  0  0  0  0
  181.3290  179.4110  143.0450 C   0  0  1  0  0  3  0  0  0  0  0  0
  180.0860  178.7270  143.6030 C   0  0  2  0  0  3  0  0  0  0  0  0
  180.5300  179.9220  140.7500 C   0  0  0  0  0  1  0  0  0  0  0  0
  183.8510  179.1350  143.2110 C   0  0  1  0  0  3  0  0  0  0  0  0
  182.5090  178.9170  143.8930 C   0  0  0  0  0  2  0  0  0  0  0  0
  188.1000  177.3420  145.0600 C   0  0  0  0  0  3  0  0  0  0  0  0
  188.6640  177.2530  146.4670 C   0  0  0  0  0  2  0  0  0  0  0  0
  184.9790  178.6700  144.0830 C   0  0  0  0  0  0  0  0  0  0  0  0
  186.0810  178.3710  145.9340 C   0  0  0  0  0  0  0  0  0  0  0  0
  184.9580  178.8470  145.5090 N   0  0  0  0  0  0  0  0  0  0  0  0
  186.1130  178.0850  143.6700 C   0  0  0  0  0  0  0  0  0  0  0  0
  186.5420  178.3260  147.3190 C   0  0  0  0  0  3  0  0  0  0  0  0
  186.8950  177.8690  144.8680 C   0  0  0  0  0  0  0  0  0  0  0  0
  187.7520  177.8010  147.5620 C   0  0  0  0  0  3  0  0  0  0  0  0
  187.4680  178.8090  141.8130 N   0  0  0  0  0  1  0  0  0  0  0  0
  186.5290  177.7970  142.2650 C   0  0  0  0  0  2  0  0  0  0  0  0
  180.9250  176.2610  139.4130 C   0  0  0  0  0  0  0  0  0  0  0  0
  182.0420  175.7670  139.7260 O   0  0  0  0  0  0  0  0  0  0  0  0
  180.2520  177.1510  140.3070 N   0  0  0  0  0  2  0  0  0  0  0  0
  180.0310  178.0500  134.8790 C   0  0  0  0  0  2  0  0  0  0  0  0
  180.3250  175.9400  138.0740 C   0  0  1  0  0  3  0  0  0  0  0  0
  179.6570  176.9370  135.8600 C   0  0  0  0  0  2  0  0  0  0  0  0
  182.2690  174.8070  136.6180 O   0  0  0  0  0  0  0  0  0  0  0  0
  181.5610  178.0930  137.2920 C   0  0  0  0  0  2  0  0  0  0  0  0
  180.6450  176.8790  137.0310 C   0  0  1  0  0  0  0  0  0  0  0  0
  180.2360  179.3410  135.6210 C   0  0  0  0  0  3  0  0  0  0  0  0
  180.9480  179.3580  136.7550 C   0  0  0  0  0  3  0  0  0  0  0  0
  181.4210  175.5670  137.0580 C   0  0  0  0  0  0  0  0  0  0  0  0
  1  2  1  0  0  0  0
  1  5  1  0  0  0  0
  2  9  1  6  0  0  0
  2  6  1  0  0  0  0
  2  7  1  0  0  0  0
  3  8  1  0  0  0  0
  5 10  1  0  0  0  0
  6 25  1  6  0  0  0
  6  3  1  0  0  0  0
  7  8  1  0  0  0  0
  7 11  1  1  0  0  0
  8  4  1  6  0  0  0
 10 11  1  0  0  0  0
 10 14  1  1  0  0  0
 12 13  1  0  0  0  0
 13 20  1  0  0  0  0
 14 16  1  0  0  0  0
 15 18  1  0  0  0  0
 16 15  2  0  0  0  0
 17 14  2  0  0  0  0
 17 19  1  0  0  0  0
 18 20  2  0  0  0  0
 19 12  2  0  0  0  0
 19 15  1  0  0  0  0
 21 22  1  0  0  0  0
 22 17  1  0  0  0  0
 23 24  2  0  0  0  0
 23 25  1  0  0  0  0
 26 32  1  0  0  0  0
 26 28  1  0  0  0  0
 27 23  1  1  0  0  0
 29 34  2  0  0  0  0
 31 28  1  6  0  0  0
 31 34  1  0  0  0  0
 31 30  1  0  0  0  0
 31 27  1  0  0  0  0
 32 33  2  0  0  0  0
 33 30  1  0  0  0  0
 34 27  1  0  0  0  0
M  END
>  <MODEL>
1

>  <REMARK>
 VINA RESULT:      -8.3      0.000      0.000
  Name = 
  4 active torsions:
  status: ('A' for Active; 'I' for Inactive)
    1  A    between atoms: C_3  and  C_14
    2  A    between atoms: C_6  and  C_27
    3  A    between atoms: C_17  and  N_29
    4  A    between atoms: C_24  and  C_28
                            x       y       z     vdW  Elec       q    Type
                         _______ _______ _______ _____ _____    ______ ____

>  <TORSDO>
F 4

$$$$
=
 OpenBabel11032421263D

 34 39  0  0  1  0  0  0  0  0999 V2000
  189.7680  178.4510  138.1050 C   0  0  0  0  0  2  0  0  0  0  0  0
  189.1250  177.4150  137.1730 C   0  0  1  0  0  0  0  0  0  0  0  0
  188.7220  175.0550  136.7830 C   0  0  0  0  0  2  0  0  0  0  0  0
  186.6920  175.8250  135.5690 C   0  0  0  0  0  1  0  0  0  0  0  0
  189.4220  178.2320  139.5690 C   0  0  0  0  0  2  0  0  0  0  0  0
  189.7660  176.0310  137.3000 C   0  0  1  0  0  3  0  0  0  0  0  0
  187.6350  177.1510  137.4600 C   0  0  1  0  0  3  0  0  0  0  0  0
  187.3710  175.7490  136.9230 C   0  0  2  0  0  3  0  0  0  0  0  0
  189.2440  177.9580  135.7500 C   0  0  0  0  0  1  0  0  0  0  0  0
  187.9120  178.2640  139.7300 C   0  0  1  0  0  3  0  0  0  0  0  0
  187.2930  177.1090  138.9560 C   0  0  0  0  0  2  0  0  0  0  0  0
  185.5890  178.4210  144.1190 C   0  0  0  0  0  3  0  0  0  0  0  0
  186.0030  178.0300  145.5270 C   0  0  0  0  0  2  0  0  0  0  0  0
  187.5300  178.2060  141.1780 C   0  0  0  0  0  0  0  0  0  0  0  0
  187.7790  177.7690  143.2950 C   0  0  0  0  0  0  0  0  0  0  0  0
  188.4320  177.7110  142.1820 N   0  0  0  0  0  0  0  0  0  0  0  0
  186.3480  178.5590  141.7030 C   0  0  0  0  0  0  0  0  0  0  0  0
  188.2630  177.3680  144.6130 C   0  0  0  0  0  3  0  0  0  0  0  0
  186.4530  178.2810  143.1190 C   0  0  0  0  0  0  0  0  0  0  0  0
  187.4260  177.4930  145.6540 C   0  0  0  0  0  3  0  0  0  0  0  0
  184.0840  178.0580  141.0450 N   0  0  0  0  0  1  0  0  0  0  0  0
  185.1400  179.0520  140.9740 C   0  0  0  0  0  2  0  0  0  0  0  0
  192.2960  176.0340  137.1380 C   0  0  0  0  0  0  0  0  0  0  0  0
  192.4060  176.2470  138.3760 O   0  0  0  0  0  0  0  0  0  0  0  0
  191.0040  175.9010  136.5390 N   0  0  0  0  0  2  0  0  0  0  0  0
  196.8520  174.1090  136.8320 C   0  0  0  0  0  2  0  0  0  0  0  0
  193.5320  175.9620  136.2890 C   0  0  1  0  0  3  0  0  0  0  0  0
  195.9280  175.1850  136.2570 C   0  0  0  0  0  2  0  0  0  0  0  0
  193.1780  173.9170  134.5940 O   0  0  0  0  0  0  0  0  0  0  0  0
  194.1910  174.0000  137.8670 C   0  0  0  0  0  2  0  0  0  0  0  0
  194.4740  174.9460  136.6820 C   0  0  1  0  0  0  0  0  0  0  0  0
  196.6220  173.9720  138.3110 C   0  0  0  0  0  3  0  0  0  0  0  0
  195.3730  173.9270  138.7950 C   0  0  0  0  0  3  0  0  0  0  0  0
  193.5730  174.6460  135.4890 C   0  0  0  0  0  0  0  0  0  0  0  0
  1  5  1  0  0  0  0
  2  9  1  6  0  0  0
  2  6  1  0  0  0  0
  2  7  1  0  0  0  0
  2  1  1  0  0  0  0
  3  8  1  0  0  0  0
  3  6  1  0  0  0  0
  5 10  1  0  0  0  0
  6 25  1  6  0  0  0
  7 11  1  1  0  0  0
  8  4  1  6  0  0  0
  8  7  1  0  0  0  0
 10 14  1  1  0  0  0
 11 10  1  0  0  0  0
 12 13  1  0  0  0  0
 13 20  1  0  0  0  0
 14 17  2  0  0  0  0
 14 16  1  0  0  0  0
 15 18  1  0  0  0  0
 16 15  2  0  0  0  0
 17 19  1  0  0  0  0
 18 20  2  0  0  0  0
 19 15  1  0  0  0  0
 19 12  2  0  0  0  0
 22 21  1  0  0  0  0
 22 17  1  0  0  0  0
 23 24  2  0  0  0  0
 25 23  1  0  0  0  0
 26 32  1  0  0  0  0
 27 31  1  0  0  0  0
 27 23  1  1  0  0  0
 28 26  1  0  0  0  0
 29 34  2  0  0  0  0
 30 33  1  0  0  0  0
 31 28  1  6  0  0  0
 31 30  1  0  0  0  0
 32 33  2  0  0  0  0
 34 27  1  0  0  0  0
 34 31  1  0  0  0  0
M  END
>  <MODEL>
2

>  <REMARK>
 VINA RESULT:      -8.1      6.834      9.894
  Name = 
  4 active torsions:
  status: ('A' for Active; 'I' for Inactive)
    1  A    between atoms: C_3  and  C_14
    2  A    between atoms: C_6  and  C_27
    3  A    between atoms: C_17  and  N_29
    4  A    between atoms: C_24  and  C_28
                            x       y       z     vdW  Elec       q    Type
                         _______ _______ _______ _____ _____    ______ ____

>  <TORSDO>
F 4

$$$$
=
 OpenBabel11032421263D

 34 39  0  0  1  0  0  0  0  0999 V2000
  182.5770  179.3480  140.8400 C   0  0  0  0  0  2  0  0  0  0  0  0
  181.2970  179.0730  141.6400 C   0  0  1  0  0  0  0  0  0  0  0  0
  179.9160  177.3700  142.6760 C   0  0  0  0  0  2  0  0  0  0  0  0
  179.2050  179.1910  144.2140 C   0  0  0  0  0  1  0  0  0  0  0  0
  183.8010  178.6570  141.4170 C   0  0  0  0  0  2  0  0  0  0  0  0
  180.7890  177.6410  141.4630 C   0  0  1  0  0  3  0  0  0  0  0  0
  181.4680  179.2100  143.1650 C   0  0  1  0  0  3  0  0  0  0  0  0
  180.3730  178.3350  143.7660 C   0  0  2  0  0  3  0  0  0  0  0  0
  180.2570  180.0950  141.1860 C   0  0  0  0  0  1  0  0  0  0  0  0
  183.9890  179.1040  142.8570 C   0  0  1  0  0  3  0  0  0  0  0  0
  182.7980  178.6530  143.6890 C   0  0  0  0  0  2  0  0  0  0  0  0
  187.8130  177.7640  145.7330 C   0  0  0  0  0  3  0  0  0  0  0  0
  189.0650  176.9430  145.4790 C   0  0  0  0  0  2  0  0  0  0  0  0
  185.2720  178.5670  143.4180 C   0  0  0  0  0  0  0  0  0  0  0  0
  187.1490  177.4670  143.4150 C   0  0  0  0  0  0  0  0  0  0  0  0
  186.1820  177.7910  142.6210 N   0  0  0  0  0  0  0  0  0  0  0  0
  185.7050  178.7020  144.6800 C   0  0  0  0  0  0  0  0  0  0  0  0
  188.3240  176.6680  143.0800 C   0  0  0  0  0  3  0  0  0  0  0  0
  186.9560  177.9780  144.7390 C   0  0  0  0  0  0  0  0  0  0  0  0
  189.2170  176.4270  144.0500 C   0  0  0  0  0  3  0  0  0  0  0  0
  184.5920  178.3910  146.7950 N   0  0  0  0  0  1  0  0  0  0  0  0
  185.0070  179.3790  145.8140 C   0  0  0  0  0  2  0  0  0  0  0  0
  180.0400  176.2260  139.4970 C   0  0  0  0  0  0  0  0  0  0  0  0
  180.7090  175.2410  139.9100 O   0  0  0  0  0  0  0  0  0  0  0  0
  180.0250  177.4510  140.2340 N   0  0  0  0  0  2  0  0  0  0  0  0
  179.6450  178.0820  134.9180 C   0  0  0  0  0  2  0  0  0  0  0  0
  179.2910  176.1170  138.2000 C   0  0  1  0  0  3  0  0  0  0  0  0
  178.9310  177.2260  135.9670 C   0  0  0  0  0  2  0  0  0  0  0  0
  180.5770  174.2850  136.7260 O   0  0  0  0  0  0  0  0  0  0  0  0
  181.2060  177.6110  137.2650 C   0  0  0  0  0  2  0  0  0  0  0  0
  179.8860  176.8310  137.1000 C   0  0  1  0  0  0  0  0  0  0  0  0
  180.3640  179.2190  135.5880 C   0  0  0  0  0  3  0  0  0  0  0  0
  181.0900  178.9970  136.6910 C   0  0  0  0  0  3  0  0  0  0  0  0
  180.1060  175.3240  137.1610 C   0  0  0  0  0  0  0  0  0  0  0  0
  1  5  1  0  0  0  0
  1  2  1  0  0  0  0
  2  9  1  6  0  0  0
  2  7  1  0  0  0  0
  3  8  1  0  0  0  0
  5 10  1  0  0  0  0
  6 25  1  6  0  0  0
  6  2  1  0  0  0  0
  6  3  1  0  0  0  0
  7 11  1  1  0  0  0
  7  8  1  0  0  0  0
  8  4  1  6  0  0  0
 10 14  1  1  0  0  0
 10 11  1  0  0  0  0
 13 12  1  0  0  0  0
 14 17  2  0  0  0  0
 15 19  1  0  0  0  0
 16 15  2  0  0  0  0
 16 14  1  0  0  0  0
 17 19  1  0  0  0  0
 17 22  1  0  0  0  0
 18 15  1  0  0  0  0
 18 20  2  0  0  0  0
 19 12  2  0  0  0  0
 20 13  1  0  0  0  0
 22 21  1  0  0  0  0
 23 24  2  0  0  0  0
 23 25  1  0  0  0  0
 26 32  1  0  0  0  0
 26 28  1  0  0  0  0
 27 23  1  1  0  0  0
 29 34  2  0  0  0  0
 31 28  1  6  0  0  0
 31 34  1  0  0  0  0
 31 30  1  0  0  0  0
 31 27  1  0  0  0  0
 32 33  2  0  0  0  0
 33 30  1  0  0  0  0
 34 27  1  0  0  0  0
M  END
>  <MODEL>
3

>  <REMARK>
 VINA RESULT:      -7.9      0.992      1.936
  Name = 
  4 active torsions:
  status: ('A' for Active; 'I' for Inactive)
    1  A    between atoms: C_3  and  C_14
    2  A    between atoms: C_6  and  C_27
    3  A    between atoms: C_17  and  N_29
    4  A    between atoms: C_24  and  C_28
                            x       y       z     vdW  Elec       q    Type
                         _______ _______ _______ _____ _____    ______ ____

>  <TORSDO>
F 4

$$$$
=
 OpenBabel11032421263D

 34 39  0  0  1  0  0  0  0  0999 V2000
  183.2790  179.0260  140.3700 C   0  0  0  0  0  2  0  0  0  0  0  0
  181.7920  178.8810  140.7200 C   0  0  1  0  0  0  0  0  0  0  0  0
  180.0610  177.3700  141.4940 C   0  0  0  0  0  2  0  0  0  0  0  0
  178.9640  179.4240  142.3700 C   0  0  0  0  0  1  0  0  0  0  0  0
  184.2020  178.4590  141.4360 C   0  0  0  0  0  2  0  0  0  0  0  0
  181.3040  177.4340  140.6240 C   0  0  1  0  0  3  0  0  0  0  0  0
  181.4460  179.2830  142.1660 C   0  0  1  0  0  3  0  0  0  0  0  0
  180.1710  178.5150  142.4960 C   0  0  2  0  0  3  0  0  0  0  0  0
  181.0180  179.7970  139.7750 C   0  0  0  0  0  1  0  0  0  0  0  0
  183.9160  179.1520  142.7570 C   0  0  1  0  0  3  0  0  0  0  0  0
  182.4930  178.8410  143.1970 C   0  0  0  0  0  2  0  0  0  0  0  0
  187.8410  177.4470  145.2810 C   0  0  0  0  0  3  0  0  0  0  0  0
  188.2060  177.4450  146.7550 C   0  0  0  0  0  2  0  0  0  0  0  0
  184.9060  178.7350  143.8030 C   0  0  0  0  0  0  0  0  0  0  0  0
  185.7390  178.5480  145.8030 C   0  0  0  0  0  0  0  0  0  0  0  0
  184.6930  179.0050  145.1980 N   0  0  0  0  0  0  0  0  0  0  0  0
  186.0750  178.1160  143.5880 C   0  0  0  0  0  0  0  0  0  0  0  0
  186.0070  178.5890  147.2380 C   0  0  0  0  0  3  0  0  0  0  0  0
  186.6830  177.9710  144.8930 C   0  0  0  0  0  0  0  0  0  0  0  0
  187.1630  178.0710  147.6770 C   0  0  0  0  0  3  0  0  0  0  0  0
  187.8400  178.5570  142.0070 N   0  0  0  0  0  1  0  0  0  0  0  0
  186.6740  177.7340  142.2740 C   0  0  0  0  0  2  0  0  0  0  0  0
  181.7680  176.0620  138.5430 C   0  0  0  0  0  0  0  0  0  0  0  0
  182.7570  175.5050  139.0930 O   0  0  0  0  0  0  0  0  0  0  0  0
  180.9900  177.0250  139.2590 N   0  0  0  0  0  2  0  0  0  0  0  0
  179.9530  172.5660  135.5360 C   0  0  0  0  0  2  0  0  0  0  0  0
  181.4390  175.7360  137.1150 C   0  0  1  0  0  3  0  0  0  0  0  0
  180.7480  173.8730  135.5670 C   0  0  0  0  0  2  0  0  0  0  0  0
  178.9310  176.5850  136.6970 O   0  0  0  0  0  0  0  0  0  0  0  0
  180.1460  173.7240  138.1410 C   0  0  0  0  0  2  0  0  0  0  0  0
  180.6370  174.5530  136.9370 C   0  0  1  0  0  0  0  0  0  0  0  0
  180.3230  171.7120  136.7170 C   0  0  0  0  0  3  0  0  0  0  0  0
  180.4190  172.2590  137.9360 C   0  0  0  0  0  3  0  0  0  0  0  0
  179.9300  175.9010  136.8490 C   0  0  0  0  0  0  0  0  0  0  0  0
  1  2  1  0  0  0  0
  1  5  1  0  0  0  0
  2  9  1  6  0  0  0
  2  7  1  0  0  0  0
  3  8  1  0  0  0  0
  5 10  1  0  0  0  0
  6 25  1  6  0  0  0
  6  2  1  0  0  0  0
  6  3  1  0  0  0  0
  7  8  1  0  0  0  0
  7 11  1  1  0  0  0
  8  4  1  6  0  0  0
 10 11  1  0  0  0  0
 10 14  1  1  0  0  0
 12 13  1  0  0  0  0
 13 20  1  0  0  0  0
 14 16  1  0  0  0  0
 15 18  1  0  0  0  0
 16 15  2  0  0  0  0
 17 14  2  0  0  0  0
 17 19  1  0  0  0  0
 18 20  2  0  0  0  0
 19 12  2  0  0  0  0
 19 15  1  0  0  0  0
 21 22  1  0  0  0  0
 22 17  1  0  0  0  0
 23 24  2  0  0  0  0
 23 25  1  0  0  0  0
 26 28  1  0  0  0  0
 26 32  1  0  0  0  0
 27 23  1  1  0  0  0
 29 34  2  0  0  0  0
 31 28  1  6  0  0  0
 31 27  1  0  0  0  0
 31 30  1  0  0  0  0
 32 33  2  0  0  0  0
 33 30  1  0  0  0  0
 34 31  1  0  0  0  0
 34 27  1  0  0  0  0
M  END
>  <MODEL>
4

>  <REMARK>
 VINA RESULT:      -7.7      1.584      2.516
  Name = 
  4 active torsions:
  status: ('A' for Active; 'I' for Inactive)
    1  A    between atoms: C_3  and  C_14
    2  A    between atoms: C_6  and  C_27
    3  A    between atoms: C_17  and  N_29
    4  A    between atoms: C_24  and  C_28
                            x       y       z     vdW  Elec       q    Type
                         _______ _______ _______ _____ _____    ______ ____

>  <TORSDO>
F 4

$$$$
=
 OpenBabel11032421263D

 34 39  0  0  1  0  0  0  0  0999 V2000
  190.2830  177.8530  138.6350 C   0  0  0  0  0  2  0  0  0  0  0  0
  189.1030  177.5150  137.7150 C   0  0  1  0  0  0  0  0  0  0  0  0
  187.5070  175.8120  137.0570 C   0  0  0  0  0  2  0  0  0  0  0  0
  186.0410  177.7280  136.4520 C   0  0  0  0  0  1  0  0  0  0  0  0
  190.0360  177.4740  140.0860 C   0  0  0  0  0  2  0  0  0  0  0  0
  188.9520  176.0110  137.4800 C   0  0  1  0  0  3  0  0  0  0  0  0
  187.7300  177.9330  138.2760 C   0  0  1  0  0  3  0  0  0  0  0  0
  186.7270  177.0080  137.5950 C   0  0  2  0  0  3  0  0  0  0  0  0
  189.3270  178.2660  136.4040 C   0  0  0  0  0  1  0  0  0  0  0  0
  188.7840  178.1820  140.5760 C   0  0  1  0  0  3  0  0  0  0  0  0
  187.5810  177.6930  139.7840 C   0  0  0  0  0  2  0  0  0  0  0  0
  189.3050  177.6150  145.4840 C   0  0  0  0  0  3  0  0  0  0  0  0
  188.3120  177.4280  146.6190 C   0  0  0  0  0  2  0  0  0  0  0  0
  188.5870  177.9600  142.0450 C   0  0  0  0  0  0  0  0  0  0  0  0
  187.4720  177.6710  143.8910 C   0  0  0  0  0  0  0  0  0  0  0  0
  187.2790  177.8090  142.6210 N   0  0  0  0  0  0  0  0  0  0  0  0
  189.5500  177.9060  142.9770 C   0  0  0  0  0  0  0  0  0  0  0  0
  186.4480  177.4920  144.9160 C   0  0  0  0  0  3  0  0  0  0  0  0
  188.8610  177.7220  144.2360 C   0  0  0  0  0  0  0  0  0  0  0  0
  186.8480  177.3790  146.1910 C   0  0  0  0  0  3  0  0  0  0  0  0
  191.7170  176.8600  143.1150 N   0  0  0  0  0  1  0  0  0  0  0  0
  191.0190  178.0880  142.7780 C   0  0  0  0  0  2  0  0  0  0  0  0
  191.0550  174.7830  136.7740 C   0  0  0  0  0  0  0  0  0  0  0  0
  191.3590  174.5490  137.9750 O   0  0  0  0  0  0  0  0  0  0  0  0
  189.8570  175.4970  136.4570 N   0  0  0  0  0  2  0  0  0  0  0  0
  195.7660  173.6800  135.7030 C   0  0  0  0  0  2  0  0  0  0  0  0
  191.9830  174.3440  135.6780 C   0  0  1  0  0  3  0  0  0  0  0  0
  194.4090  174.0240  135.0830 C   0  0  0  0  0  2  0  0  0  0  0  0
  191.9600  171.6640  135.6870 O   0  0  0  0  0  0  0  0  0  0  0  0
  193.6620  173.9240  137.6220 C   0  0  0  0  0  2  0  0  0  0  0  0
  193.2890  173.9320  136.1250 C   0  0  1  0  0  0  0  0  0  0  0  0
  195.9760  174.4830  136.9560 C   0  0  0  0  0  3  0  0  0  0  0  0
  194.9870  174.6010  137.8510 C   0  0  0  0  0  3  0  0  0  0  0  0
  192.2830  172.8360  135.7870 C   0  0  0  0  0  0  0  0  0  0  0  0
  1  5  1  0  0  0  0
  2  9  1  6  0  0  0
  2  7  1  0  0  0  0
  2  1  1  0  0  0  0
  3  6  1  0  0  0  0
  3  8  1  0  0  0  0
  5 10  1  0  0  0  0
  6 25  1  6  0  0  0
  6  2  1  0  0  0  0
  7 11  1  1  0  0  0
  8  4  1  6  0  0  0
  8  7  1  0  0  0  0
 10 14  1  1  0  0  0
 11 10  1  0  0  0  0
 12 13  1  0  0  0  0
 14 16  1  0  0  0  0
 14 17  2  0  0  0  0
 15 19  1  0  0  0  0
 15 18  1  0  0  0  0
 16 15  2  0  0  0  0
 17 19  1  0  0  0  0
 18 20  2  0  0  0  0
 19 12  2  0  0  0  0
 20 13  1  0  0  0  0
 22 17  1  0  0  0  0
 22 21  1  0  0  0  0
 23 24  2  0  0  0  0
 25 23  1  0  0  0  0
 26 32  1  0  0  0  0
 27 34  1  0  0  0  0
 27 31  1  0  0  0  0
 27 23  1  1  0  0  0
 28 26  1  0  0  0  0
 29 34  2  0  0  0  0
 30 33  1  0  0  0  0
 31 28  1  6  0  0  0
 31 30  1  0  0  0  0
 32 33  2  0  0  0  0
 34 31  1  0  0  0  0
M  END
>  <MODEL>
5

>  <REMARK>
 VINA RESULT:      -7.6      6.596      9.257
  Name = 
  4 active torsions:
  status: ('A' for Active; 'I' for Inactive)
    1  A    between atoms: C_3  and  C_14
    2  A    between atoms: C_6  and  C_27
    3  A    between atoms: C_17  and  N_29
    4  A    between atoms: C_24  and  C_28
                            x       y       z     vdW  Elec       q    Type
                         _______ _______ _______ _____ _____    ______ ____

>  <TORSDO>
F 4

$$$$
=
 OpenBabel11032421263D

 34 39  0  0  1  0  0  0  0  0999 V2000
  184.2420  178.6130  139.2660 C   0  0  0  0  0  2  0  0  0  0  0  0
  182.7280  178.4590  139.4640 C   0  0  1  0  0  0  0  0  0  0  0  0
  180.9470  176.9700  140.1640 C   0  0  0  0  0  2  0  0  0  0  0  0
  179.7280  179.0580  140.7510 C   0  0  0  0  0  1  0  0  0  0  0  0
  185.0520  178.1530  140.4670 C   0  0  0  0  0  2  0  0  0  0  0  0
  182.2770  176.9980  139.4310 C   0  0  1  0  0  3  0  0  0  0  0  0
  182.2200  178.9630  140.8280 C   0  0  1  0  0  3  0  0  0  0  0  0
  180.9280  178.1920  141.0780 C   0  0  2  0  0  3  0  0  0  0  0  0
  182.0480  179.2800  138.3710 C   0  0  0  0  0  1  0  0  0  0  0  0
  184.6110  178.9390  141.6900 C   0  0  1  0  0  3  0  0  0  0  0  0
  183.1540  178.6270  141.9980 C   0  0  0  0  0  2  0  0  0  0  0  0
  186.6010  178.3480  146.2040 C   0  0  0  0  0  3  0  0  0  0  0  0
  187.8840  177.7000  146.6970 C   0  0  0  0  0  2  0  0  0  0  0  0
  185.4880  178.6280  142.8660 C   0  0  0  0  0  0  0  0  0  0  0  0
  187.2090  177.8100  143.9150 C   0  0  0  0  0  0  0  0  0  0  0  0
  186.7410  177.9400  142.7180 N   0  0  0  0  0  0  0  0  0  0  0  0
  185.2220  178.9060  144.1510 C   0  0  0  0  0  0  0  0  0  0  0  0
  188.4630  177.1660  144.2970 C   0  0  0  0  0  3  0  0  0  0  0  0
  186.3380  178.3730  144.9020 C   0  0  0  0  0  0  0  0  0  0  0  0
  188.7730  177.1190  145.6010 C   0  0  0  0  0  3  0  0  0  0  0  0
  183.4290  178.7100  145.7510 N   0  0  0  0  0  1  0  0  0  0  0  0
  183.9930  179.5480  144.7070 C   0  0  0  0  0  2  0  0  0  0  0  0
  182.9300  175.4170  137.5590 C   0  0  0  0  0  0  0  0  0  0  0  0
  183.8050  174.8710  138.2830 O   0  0  0  0  0  0  0  0  0  0  0  0
  182.1210  176.4770  138.0760 N   0  0  0  0  0  2  0  0  0  0  0  0
  182.5870  171.4600  134.5960 C   0  0  0  0  0  2  0  0  0  0  0  0
  182.7710  174.9750  136.1320 C   0  0  1  0  0  3  0  0  0  0  0  0
  182.8450  172.9680  134.6120 C   0  0  0  0  0  2  0  0  0  0  0  0
  180.1360  174.8360  135.6640 O   0  0  0  0  0  0  0  0  0  0  0  0
  182.2880  172.6420  137.1800 C   0  0  0  0  0  2  0  0  0  0  0  0
  182.4650  173.5780  135.9660 C   0  0  1  0  0  0  0  0  0  0  0  0
  183.2210  170.8180  135.7970 C   0  0  0  0  0  3  0  0  0  0  0  0
  183.0850  171.3770  137.0070 C   0  0  0  0  0  3  0  0  0  0  0  0
  181.3130  174.5690  135.8430 C   0  0  0  0  0  0  0  0  0  0  0  0
  1  2  1  0  0  0  0
  1  5  1  0  0  0  0
  2  9  1  6  0  0  0
  2  7  1  0  0  0  0
  3  8  1  0  0  0  0
  5 10  1  0  0  0  0
  6 25  1  6  0  0  0
  6  2  1  0  0  0  0
  6  3  1  0  0  0  0
  7  8  1  0  0  0  0
  7 11  1  1  0  0  0
  8  4  1  6  0  0  0
 10 11  1  0  0  0  0
 10 14  1  1  0  0  0
 12 13  1  0  0  0  0
 14 17  2  0  0  0  0
 15 18  1  0  0  0  0
 15 19  1  0  0  0  0
 16 14  1  0  0  0  0
 16 15  2  0  0  0  0
 17 22  1  0  0  0  0
 17 19  1  0  0  0  0
 18 20  2  0  0  0  0
 19 12  2  0  0  0  0
 20 13  1  0  0  0  0
 22 21  1  0  0  0  0
 23 25  1  0  0  0  0
 23 24  2  0  0  0  0
 26 28  1  0  0  0  0
 26 32  1  0  0  0  0
 27 23  1  1  0  0  0
 29 34  2  0  0  0  0
 31 28  1  6  0  0  0
 31 27  1  0  0  0  0
 31 30  1  0  0  0  0
 32 33  2  0  0  0  0
 33 30  1  0  0  0  0
 34 31  1  0  0  0  0
 34 27  1  0  0  0  0
M  END
>  <MODEL>
6

>  <REMARK>
 VINA RESULT:      -7.6      2.193      3.745
  Name = 
  4 active torsions:
  status: ('A' for Active; 'I' for Inactive)
    1  A    between atoms: C_3  and  C_14
    2  A    between atoms: C_6  and  C_27
    3  A    between atoms: C_17  and  N_29
    4  A    between atoms: C_24  and  C_28
                            x       y       z     vdW  Elec       q    Type
                         _______ _______ _______ _____ _____    ______ ____

>  <TORSDO>
F 4

$$$$
=
 OpenBabel11032421263D

 34 39  0  0  1  0  0  0  0  0999 V2000
  185.8500  178.2360  137.2180 C   0  0  0  0  0  2  0  0  0  0  0  0
  185.2990  176.9240  136.6440 C   0  0  1  0  0  0  0  0  0  0  0  0
  185.2990  174.5060  136.8280 C   0  0  0  0  0  2  0  0  0  0  0  0
  183.0220  174.6470  135.8370 C   0  0  0  0  0  1  0  0  0  0  0  0
  185.7410  178.3160  138.7320 C   0  0  0  0  0  2  0  0  0  0  0  0
  186.1980  175.7240  136.9480 C   0  0  1  0  0  3  0  0  0  0  0  0
  183.9340  176.5090  137.2250 C   0  0  1  0  0  3  0  0  0  0  0  0
  183.8710  174.9960  137.0440 C   0  0  2  0  0  3  0  0  0  0  0  0
  185.1310  177.1300  135.1400 C   0  0  0  0  0  1  0  0  0  0  0  0
  184.2860  178.1520  139.1330 C   0  0  1  0  0  3  0  0  0  0  0  0
  183.8010  176.7670  138.7320 C   0  0  0  0  0  2  0  0  0  0  0  0
  182.5590  179.0040  143.7130 C   0  0  0  0  0  3  0  0  0  0  0  0
  183.2110  179.0030  145.0850 C   0  0  0  0  0  2  0  0  0  0  0  0
  184.1100  178.3780  140.6050 C   0  0  0  0  0  0  0  0  0  0  0  0
  184.7000  178.4740  142.6960 C   0  0  0  0  0  0  0  0  0  0  0  0
  185.2030  178.2480  141.5280 N   0  0  0  0  0  0  0  0  0  0  0  0
  182.9640  178.6840  141.2300 C   0  0  0  0  0  0  0  0  0  0  0  0
  185.4100  178.4520  143.9720 C   0  0  0  0  0  3  0  0  0  0  0  0
  183.2970  178.7530  142.6370 C   0  0  0  0  0  0  0  0  0  0  0  0
  184.7070  178.7010  145.0870 C   0  0  0  0  0  3  0  0  0  0  0  0
  180.9040  177.5650  140.6720 N   0  0  0  0  0  1  0  0  0  0  0  0
  181.6080  178.8340  140.6220 C   0  0  0  0  0  2  0  0  0  0  0  0
  188.6390  176.0880  136.3660 C   0  0  0  0  0  0  0  0  0  0  0  0
  188.8620  176.6090  137.4920 O   0  0  0  0  0  0  0  0  0  0  0  0
  187.3320  175.6120  136.0360 N   0  0  0  0  0  2  0  0  0  0  0  0
  193.5380  175.5860  135.8100 C   0  0  0  0  0  2  0  0  0  0  0  0
  189.7470  176.0100  135.3560 C   0  0  1  0  0  3  0  0  0  0  0  0
  192.2520  176.0030  135.0910 C   0  0  0  0  0  2  0  0  0  0  0  0
  189.9860  173.4270  134.6810 O   0  0  0  0  0  0  0  0  0  0  0  0
  191.1760  175.1890  137.3700 C   0  0  0  0  0  2  0  0  0  0  0  0
  191.0130  175.5710  135.8840 C   0  0  1  0  0  0  0  0  0  0  0  0
  193.4940  176.0390  137.2430 C   0  0  0  0  0  3  0  0  0  0  0  0
  192.3840  175.8570  137.9700 C   0  0  0  0  0  3  0  0  0  0  0  0
  190.1760  174.5480  135.1240 C   0  0  0  0  0  0  0  0  0  0  0  0
  1  5  1  0  0  0  0
  2  9  1  6  0  0  0
  2  6  1  0  0  0  0
  2  1  1  0  0  0  0
  2  7  1  0  0  0  0
  3  6  1  0  0  0  0
  3  8  1  0  0  0  0
  5 10  1  0  0  0  0
  6 25  1  6  0  0  0
  7 11  1  1  0  0  0
  8  4  1  6  0  0  0
  8  7  1  0  0  0  0
 10 14  1  1  0  0  0
 11 10  1  0  0  0  0
 12 13  1  0  0  0  0
 13 20  1  0  0  0  0
 14 17  2  0  0  0  0
 14 16  1  0  0  0  0
 15 18  1  0  0  0  0
 16 15  2  0  0  0  0
 17 19  1  0  0  0  0
 18 20  2  0  0  0  0
 19 15  1  0  0  0  0
 19 12  2  0  0  0  0
 22 21  1  0  0  0  0
 22 17  1  0  0  0  0
 23 24  2  0  0  0  0
 25 23  1  0  0  0  0
 26 32  1  0  0  0  0
 27 31  1  0  0  0  0
 27 23  1  1  0  0  0
 28 26  1  0  0  0  0
 29 34  2  0  0  0  0
 30 33  1  0  0  0  0
 31 28  1  6  0  0  0
 31 30  1  0  0  0  0
 32 33  2  0  0  0  0
 34 27  1  0  0  0  0
 34 31  1  0  0  0  0
M  END
>  <MODEL>
7

>  <REMARK>
 VINA RESULT:      -7.1      5.208      7.902
  Name = 
  4 active torsions:
  status: ('A' for Active; 'I' for Inactive)
    1  A    between atoms: C_3  and  C_14
    2  A    between atoms: C_6  and  C_27
    3  A    between atoms: C_17  and  N_29
    4  A    between atoms: C_24  and  C_28
                            x       y       z     vdW  Elec       q    Type
                         _______ _______ _______ _____ _____    ______ ____

>  <TORSDO>
F 4

$$$$
=
 OpenBabel11032421263D

 34 39  0  0  1  0  0  0  0  0999 V2000
  185.0750  178.8470  140.1900 C   0  0  0  0  0  2  0  0  0  0  0  0
  183.5430  178.8170  140.2780 C   0  0  1  0  0  0  0  0  0  0  0  0
  181.5960  177.4580  140.7700 C   0  0  0  0  0  2  0  0  0  0  0  0
  180.5200  179.6130  141.3950 C   0  0  0  0  0  1  0  0  0  0  0  0
  185.7540  178.2550  141.4140 C   0  0  0  0  0  2  0  0  0  0  0  0
  182.9730  177.4060  140.1300 C   0  0  1  0  0  3  0  0  0  0  0  0
  182.9830  179.2930  141.6320 C   0  0  1  0  0  3  0  0  0  0  0  0
  181.6160  178.6280  141.7500 C   0  0  2  0  0  3  0  0  0  0  0  0
  183.0150  179.7510  139.1920 C   0  0  0  0  0  1  0  0  0  0  0  0
  185.2960  179.0120  142.6490 C   0  0  1  0  0  3  0  0  0  0  0  0
  183.8000  178.8160  142.8400 C   0  0  0  0  0  2  0  0  0  0  0  0
  188.5880  177.1290  145.8590 C   0  0  0  0  0  3  0  0  0  0  0  0
  188.6900  177.1520  147.3740 C   0  0  0  0  0  2  0  0  0  0  0  0
  186.0560  178.5640  143.8610 C   0  0  0  0  0  0  0  0  0  0  0  0
  186.5140  178.3880  145.9800 C   0  0  0  0  0  0  0  0  0  0  0  0
  185.6250  178.8940  145.1910 N   0  0  0  0  0  0  0  0  0  0  0  0
  187.1970  177.8590  143.8680 C   0  0  0  0  0  0  0  0  0  0  0  0
  186.5300  178.4590  147.4390 C   0  0  0  0  0  3  0  0  0  0  0  0
  187.5560  177.7170  145.2620 C   0  0  0  0  0  0  0  0  0  0  0  0
  187.5520  177.8780  148.0850 C   0  0  0  0  0  3  0  0  0  0  0  0
  189.1560  178.2350  142.5150 N   0  0  0  0  0  1  0  0  0  0  0  0
  187.9850  177.3930  142.6880 C   0  0  0  0  0  2  0  0  0  0  0  0
  182.1200  175.8210  138.3440 C   0  0  0  0  0  0  0  0  0  0  0  0
  181.4880  175.1460  139.2000 O   0  0  0  0  0  0  0  0  0  0  0  0
  182.8710  176.9720  138.7400 N   0  0  0  0  0  2  0  0  0  0  0  0
  184.7660  173.5400  134.8280 C   0  0  0  0  0  2  0  0  0  0  0  0
  182.1140  175.3830  136.9070 C   0  0  1  0  0  3  0  0  0  0  0  0
  183.5550  174.4460  135.0670 C   0  0  0  0  0  2  0  0  0  0  0  0
  181.0160  172.9390  136.8590 O   0  0  0  0  0  0  0  0  0  0  0  0
  184.1970  173.9820  137.5940 C   0  0  0  0  0  2  0  0  0  0  0  0
  183.1720  174.4730  136.5510 C   0  0  1  0  0  0  0  0  0  0  0  0
  185.8730  173.9020  135.7780 C   0  0  0  0  0  3  0  0  0  0  0  0
  185.6030  174.1150  137.0730 C   0  0  0  0  0  3  0  0  0  0  0  0
  181.7880  173.8820  136.7940 C   0  0  0  0  0  0  0  0  0  0  0  0
  1  2  1  0  0  0  0
  1  5  1  0  0  0  0
  2  9  1  6  0  0  0
  2  7  1  0  0  0  0
  3  8  1  0  0  0  0
  5 10  1  0  0  0  0
  6 25  1  6  0  0  0
  6  2  1  0  0  0  0
  6  3  1  0  0  0  0
  7  8  1  0  0  0  0
  7 11  1  1  0  0  0
  8  4  1  6  0  0  0
 10 11  1  0  0  0  0
 10 14  1  1  0  0  0
 12 13  1  0  0  0  0
 13 20  1  0  0  0  0
 14 17  2  0  0  0  0
 14 16  1  0  0  0  0
 15 18  1  0  0  0  0
 16 15  2  0  0  0  0
 17 19  1  0  0  0  0
 18 20  2  0  0  0  0
 19 12  2  0  0  0  0
 19 15  1  0  0  0  0
 21 22  1  0  0  0  0
 22 17  1  0  0  0  0
 23 25  1  0  0  0  0
 23 24  2  0  0  0  0
 26 28  1  0  0  0  0
 26 32  1  0  0  0  0
 27 23  1  1  0  0  0
 31 28  1  6  0  0  0
 31 34  1  0  0  0  0
 31 27  1  0  0  0  0
 31 30  1  0  0  0  0
 32 33  2  0  0  0  0
 33 30  1  0  0  0  0
 34 29  2  0  0  0  0
 34 27  1  0  0  0  0
M  END
>  <MODEL>
8

>  <REMARK>
 VINA RESULT:      -7.1      2.026      3.028
  Name = 
  4 active torsions:
  status: ('A' for Active; 'I' for Inactive)
    1  A    between atoms: C_3  and  C_14
    2  A    between atoms: C_6  and  C_27
    3  A    between atoms: C_17  and  N_29
    4  A    between atoms: C_24  and  C_28
                            x       y       z     vdW  Elec       q    Type
                         _______ _______ _______ _____ _____    ______ ____

>  <TORSDO>
F 4

$$$$
=
 OpenBabel11032421263D

 34 39  0  0  1  0  0  0  0  0999 V2000
  190.3400  176.6330  139.5270 C   0  0  0  0  0  2  0  0  0  0  0  0
  189.3820  177.2340  138.4890 C   0  0  1  0  0  0  0  0  0  0  0  0
  187.1470  177.1550  137.5520 C   0  0  0  0  0  2  0  0  0  0  0  0
  187.5220  179.5550  137.0160 C   0  0  0  0  0  1  0  0  0  0  0  0
  189.7250  176.5210  140.9120 C   0  0  0  0  0  2  0  0  0  0  0  0
  188.2550  176.2740  138.1040 C   0  0  1  0  0  3  0  0  0  0  0  0
  188.6360  178.4900  138.9780 C   0  0  1  0  0  3  0  0  0  0  0  0
  187.3650  178.5470  138.1370 C   0  0  2  0  0  3  0  0  0  0  0  0
  190.2240  177.6250  137.2760 C   0  0  0  0  0  1  0  0  0  0  0  0
  189.2750  177.8990  141.3660 C   0  0  1  0  0  3  0  0  0  0  0  0
  188.1800  178.4080  140.4410 C   0  0  0  0  0  2  0  0  0  0  0  0
  188.8680  177.8760  146.3180 C   0  0  0  0  0  3  0  0  0  0  0  0
  187.6780  177.8860  147.2620 C   0  0  0  0  0  2  0  0  0  0  0  0
  188.8030  177.8620  142.7890 C   0  0  0  0  0  0  0  0  0  0  0  0
  187.3580  177.8620  144.4150 C   0  0  0  0  0  0  0  0  0  0  0  0
  187.4050  177.8630  143.1240 N   0  0  0  0  0  0  0  0  0  0  0  0
  189.5770  177.8560  143.8840 C   0  0  0  0  0  0  0  0  0  0  0  0
  186.1570  177.8710  145.2450 C   0  0  0  0  0  3  0  0  0  0  0  0
  188.6630  177.8650  145.0050 C   0  0  0  0  0  0  0  0  0  0  0  0
  186.3130  177.8810  146.5770 C   0  0  0  0  0  3  0  0  0  0  0  0
  191.6220  176.5800  143.8470 N   0  0  0  0  0  1  0  0  0  0  0  0
  191.0690  177.9200  143.9430 C   0  0  0  0  0  2  0  0  0  0  0  0
  187.7310  174.4000  136.4790 C   0  0  0  0  0  0  0  0  0  0  0  0
  186.5010  174.4680  136.7490 O   0  0  0  0  0  0  0  0  0  0  0  0
  188.6600  175.2840  137.1110 N   0  0  0  0  0  2  0  0  0  0  0  0
  191.7250  171.8830  134.9720 C   0  0  0  0  0  2  0  0  0  0  0  0
  188.2190  173.3530  135.5200 C   0  0  1  0  0  3  0  0  0  0  0  0
  190.2900  172.2590  134.5940 C   0  0  0  0  0  2  0  0  0  0  0  0
  187.9020  170.9890  136.7420 O   0  0  0  0  0  0  0  0  0  0  0  0
  190.3600  173.3630  136.9990 C   0  0  0  0  0  2  0  0  0  0  0  0
  189.5440  172.8590  135.7910 C   0  0  1  0  0  0  0  0  0  0  0  0
  192.4010  173.0460  135.6410 C   0  0  0  0  0  3  0  0  0  0  0  0
  191.7570  173.7430  136.5880 C   0  0  0  0  0  3  0  0  0  0  0  0
  188.3680  171.9910  136.2240 C   0  0  0  0  0  0  0  0  0  0  0  0
  1  5  1  0  0  0  0
  2  9  1  6  0  0  0
  2  7  1  0  0  0  0
  2  1  1  0  0  0  0
  3  6  1  0  0  0  0
  3  8  1  0  0  0  0
  5 10  1  0  0  0  0
  6 25  1  6  0  0  0
  6  2  1  0  0  0  0
  7 11  1  1  0  0  0
  8  4  1  6  0  0  0
  8  7  1  0  0  0  0
 10 14  1  1  0  0  0
 11 10  1  0  0  0  0
 12 13  1  0  0  0  0
 14 16  1  0  0  0  0
 14 17  2  0  0  0  0
 15 19  1  0  0  0  0
 15 18  1  0  0  0  0
 16 15  2  0  0  0  0
 17 22  1  0  0  0  0
 17 19  1  0  0  0  0
 18 20  2  0  0  0  0
 19 12  2  0  0  0  0
 20 13  1  0  0  0  0
 21 22  1  0  0  0  0
 23 24  2  0  0  0  0
 23 25  1  0  0  0  0
 26 32  1  0  0  0  0
 27 31  1  0  0  0  0
 27 34  1  0  0  0  0
 27 23  1  1  0  0  0
 28 26  1  0  0  0  0
 31 28  1  6  0  0  0
 31 34  1  0  0  0  0
 31 30  1  0  0  0  0
 32 33  2  0  0  0  0
 33 30  1  0  0  0  0
 34 29  2  0  0  0  0
M  END
>  <MODEL>
9

>  <REMARK>
 VINA RESULT:      -7.1      5.578      7.865
  Name = 
  4 active torsions:
  status: ('A' for Active; 'I' for Inactive)
    1  A    between atoms: C_3  and  C_14
    2  A    between atoms: C_6  and  C_27
    3  A    between atoms: C_17  and  N_29
    4  A    between atoms: C_24  and  C_28
                            x       y       z     vdW  Elec       q    Type
                         _______ _______ _______ _____ _____    ______ ____

>  <TORSDO>
F 4

$$$$
