=
 OpenBabel11032421293D

 26 29  0  0  1  0  0  0  0  0999 V2000
  183.2650  178.9150  144.3330 C   0  0  0  0  0  0  0  0  0  0  0  0
  189.1070  177.2410  141.4490 C   0  0  0  0  0  2  0  0  0  0  0  0
  190.7370  177.0340  143.1930 C   0  0  1  0  0  0  0  0  0  0  0  0
  181.9550  179.1610  143.6670 C   0  0  0  0  0  1  0  0  0  0  0  0
  186.1610  177.9790  141.8760 C   0  0  0  0  0  2  0  0  0  0  0  0
  183.8630  178.4720  141.4050 O   0  0  0  0  0  0  0  0  0  0  0  0
  187.7410  177.9580  145.4030 C   0  0  0  0  0  3  0  0  0  0  0  0
  188.4790  177.5020  142.7610 C   0  0  0  0  0  0  0  0  0  0  0  0
  190.4770  176.7910  141.7410 N   0  0  0  0  0  0  0  0  0  0  0  0
  184.4470  178.5690  143.7020 C   0  0  0  0  0  0  0  0  0  0  0  0
  189.0630  177.6110  145.0960 C   0  0  0  0  0  3  0  0  0  0  0  0
  186.7830  178.0790  144.3800 C   0  0  0  0  0  0  0  0  0  0  0  0
  191.6950  178.2060  143.4690 C   0  0  0  0  0  1  0  0  0  0  0  0
  189.4050  177.3820  143.7590 C   0  0  0  0  0  0  0  0  0  0  0  0
  184.7470  178.7180  145.8690 C   0  0  0  0  0  0  0  0  0  0  0  0
  185.3910  178.4430  144.6780 C   0  0  0  0  0  0  0  0  0  0  0  0
  183.4450  179.0080  145.6690 N   0  0  0  0  0  2  0  0  0  0  0  0
  187.1510  177.8530  143.0260 C   0  0  0  0  0  0  0  0  0  0  0  0
  185.3530  178.7030  147.1570 N   0  0  0  0  0  1  0  0  0  0  0  0
  184.7550  178.3510  142.2840 C   0  0  0  0  0  0  0  0  0  0  0  0
  192.5890  175.5280  143.3840 F   0  0  0  0  0  0  0  0  0  0  0  0
  191.2950  175.7450  143.8250 C   0  0  0  0  0  0  0  0  0  0  0  0
  190.5160  174.6590  143.4620 F   0  0  0  0  0  0  0  0  0  0  0  0
  191.3090  175.8420  145.2070 F   0  0  0  0  0  0  0  0  0  0  0  0
  191.3880  177.4870  140.8330 C   0  0  0  0  0  2  0  0  0  0  0  0
  191.1070  177.0670  139.4040 C   0  0  0  0  0  1  0  0  0  0  0  0
  1 17  1  0  0  0  0
  2  9  1  0  0  0  0
  2  8  1  0  0  0  0
  3 13  1  1  0  0  0
  3 14  1  0  0  0  0
  3 22  1  0  0  0  0
  4  1  1  0  0  0  0
  5 20  1  0  0  0  0
  5 18  1  0  0  0  0
  6 20  2  0  0  0  0
  8 18  2  0  0  0  0
  8 14  1  0  0  0  0
  9  3  1  0  0  0  0
 10  1  2  0  0  0  0
 10 16  1  0  0  0  0
 11  7  1  0  0  0  0
 12 16  1  0  0  0  0
 12  7  2  0  0  0  0
 14 11  2  0  0  0  0
 15 19  1  0  0  0  0
 16 15  2  0  0  0  0
 17 15  1  0  0  0  0
 18 12  1  0  0  0  0
 20 10  1  0  0  0  0
 21 22  1  0  0  0  0
 22 24  1  0  0  0  0
 23 22  1  0  0  0  0
 25  9  1  0  0  0  0
 26 25  1  0  0  0  0
M  END
>  <MODEL>
1

>  <REMARK>
 VINA RESULT:      -9.9      0.000      0.000
  Name = 
  2 active torsions:
  status: ('A' for Active; 'I' for Inactive)
    1  A    between atoms: C_3  and  C_5
    2  A    between atoms: C_8  and  N_12
                            x       y       z     vdW  Elec       q    Type
                         _______ _______ _______ _____ _____    ______ ____

>  <TORSDO>
F 2

$$$$
=
 OpenBabel11032421293D

 26 29  0  0  1  0  0  0  0  0999 V2000
  182.7840  178.8840  142.8870 C   0  0  0  0  0  0  0  0  0  0  0  0
  188.6880  177.7290  145.8970 C   0  0  0  0  0  2  0  0  0  0  0  0
  190.3350  177.4700  144.1760 C   0  0  1  0  0  0  0  0  0  0  0  0
  181.4590  179.1060  143.5310 C   0  0  0  0  0  1  0  0  0  0  0  0
  185.7120  178.2860  145.4110 C   0  0  0  0  0  2  0  0  0  0  0  0
  183.3900  178.7020  145.8410 O   0  0  0  0  0  0  0  0  0  0  0  0
  187.3110  178.0890  141.8990 C   0  0  0  0  0  3  0  0  0  0  0  0
  188.0620  177.8970  144.5690 C   0  0  0  0  0  0  0  0  0  0  0  0
  190.1350  177.6240  145.6490 N   0  0  0  0  0  0  0  0  0  0  0  0
  183.9790  178.6520  143.5440 C   0  0  2  0  0  3  0  0  0  0  0  0
  188.6480  177.8400  142.2320 C   0  0  0  0  0  3  0  0  0  0  0  0
  186.3430  178.2420  142.9080 C   0  0  0  0  0  0  0  0  0  0  0  0
  190.7570  176.0550  143.7460 C   0  0  0  0  0  1  0  0  0  0  0  0
  188.9980  177.7540  143.5840 C   0  0  0  0  0  0  0  0  0  0  0  0
  184.2830  178.6510  141.3730 C   0  0  0  0  0  0  0  0  0  0  0  0
  184.9340  178.5040  142.5820 C   0  0  0  0  0  0  0  0  0  0  0  0
  182.9660  178.8850  141.5480 N   0  0  0  0  0  0  0  0  0  0  0  0
  186.7150  178.1410  144.2760 C   0  0  0  0  0  0  0  0  0  0  0  0
  184.8960  178.5740  140.0900 N   0  0  0  0  0  1  0  0  0  0  0  0
  184.2920  178.5590  144.9740 C   0  0  0  0  0  0  0  0  0  0  0  0
  192.4390  178.5330  144.5990 F   0  0  0  0  0  0  0  0  0  0  0  0
  191.3850  178.4930  143.7030 C   0  0  0  0  0  0  0  0  0  0  0  0
  190.8210  179.7560  143.6270 F   0  0  0  0  0  0  0  0  0  0  0  0
  191.8790  178.1490  142.4550 F   0  0  0  0  0  0  0  0  0  0  0  0
  190.6560  176.5200  146.4540 C   0  0  0  0  0  2  0  0  0  0  0  0
  191.3300  177.0660  147.6970 C   0  0  0  0  0  1  0  0  0  0  0  0
  1  4  1  0  0  0  0
  1 10  1  0  0  0  0
  3 13  1  6  0  0  0
  3  9  1  0  0  0  0
  7 11  2  0  0  0  0
  7 12  1  0  0  0  0
  8  2  1  0  0  0  0
  9  2  1  0  0  0  0
  9 25  1  0  0  0  0
 10 16  1  6  0  0  0
 10 20  1  0  0  0  0
 11 14  1  0  0  0  0
 12 18  2  0  0  0  0
 14  3  1  0  0  0  0
 14  8  2  0  0  0  0
 15 17  1  0  0  0  0
 15 16  2  0  0  0  0
 16 12  1  0  0  0  0
 17  1  2  0  0  0  0
 18  8  1  0  0  0  0
 18  5  1  0  0  0  0
 19 15  1  0  0  0  0
 20  5  1  0  0  0  0
 20  6  2  0  0  0  0
 22  3  1  0  0  0  0
 22 21  1  0  0  0  0
 23 22  1  0  0  0  0
 24 22  1  0  0  0  0
 25 26  1  0  0  0  0
M  END
>  <MODEL>
2

>  <REMARK>
 VINA RESULT:      -9.8      2.407      3.757
  Name = 
  2 active torsions:
  status: ('A' for Active; 'I' for Inactive)
    1  A    between atoms: C_3  and  C_5
    2  A    between atoms: C_8  and  N_12
                            x       y       z     vdW  Elec       q    Type
                         _______ _______ _______ _____ _____    ______ ____

>  <TORSDO>
F 2

$$$$
=
 OpenBabel11032421293D

 26 29  0  0  1  0  0  0  0  0999 V2000
  183.0460  178.8160  140.9370 C   0  0  0  0  0  0  0  0  0  0  0  0
  188.0900  177.8680  145.2860 C   0  0  0  0  0  2  0  0  0  0  0  0
  190.1120  177.6820  144.0130 C   0  0  1  0  0  0  0  0  0  0  0  0
  181.5980  178.9840  141.2410 C   0  0  0  0  0  1  0  0  0  0  0  0
  185.3000  178.3150  144.0950 C   0  0  0  0  0  2  0  0  0  0  0  0
  182.9290  178.6390  143.9500 O   0  0  0  0  0  0  0  0  0  0  0  0
  187.7050  178.2000  141.0720 C   0  0  0  0  0  3  0  0  0  0  0  0
  187.7970  178.0190  143.8450 C   0  0  0  0  0  0  0  0  0  0  0  0
  189.5570  177.8190  145.3940 N   0  0  0  0  0  0  0  0  0  0  0  0
  184.0560  178.6250  141.8640 C   0  0  1  0  0  3  0  0  0  0  0  0
  188.9310  177.9990  141.7190 C   0  0  0  0  0  3  0  0  0  0  0  0
  186.5170  178.3100  141.8180 C   0  0  0  0  0  0  0  0  0  0  0  0
  190.6790  176.2860  143.7030 C   0  0  0  0  0  1  0  0  0  0  0  0
  188.9480  177.9180  143.1160 C   0  0  0  0  0  0  0  0  0  0  0  0
  184.8740  178.6500  139.8300 C   0  0  0  0  0  0  0  0  0  0  0  0
  185.2200  178.5190  141.1610 C   0  0  0  0  0  0  0  0  0  0  0  0
  183.5460  178.8320  139.6820 N   0  0  0  0  0  0  0  0  0  0  0  0
  186.5520  178.2140  143.2350 C   0  0  0  0  0  0  0  0  0  0  0  0
  185.7810  178.6030  138.7330 N   0  0  0  0  0  1  0  0  0  0  0  0
  184.0180  178.5360  143.3280 C   0  0  0  0  0  0  0  0  0  0  0  0
  190.6400  180.0100  143.8210 F   0  0  0  0  0  0  0  0  0  0  0  0
  191.2050  178.7460  143.8040 C   0  0  0  0  0  0  0  0  0  0  0  0
  191.8290  178.5580  142.5820 F   0  0  0  0  0  0  0  0  0  0  0  0
  192.1590  178.6760  144.8070 F   0  0  0  0  0  0  0  0  0  0  0  0
  189.9100  176.7310  146.3050 C   0  0  0  0  0  2  0  0  0  0  0  0
  189.0000  176.7600  147.5170 C   0  0  0  0  0  1  0  0  0  0  0  0
  1  4  1  0  0  0  0
  2  9  1  0  0  0  0
  3 13  1  6  0  0  0
  3  9  1  0  0  0  0
  7 11  2  0  0  0  0
  7 12  1  0  0  0  0
  8  2  1  0  0  0  0
  9 25  1  0  0  0  0
 10  1  1  1  0  0  0
 10 20  1  0  0  0  0
 11 14  1  0  0  0  0
 12 18  2  0  0  0  0
 14  8  2  0  0  0  0
 14  3  1  0  0  0  0
 15 16  2  0  0  0  0
 16 12  1  0  0  0  0
 16 10  1  0  0  0  0
 17 15  1  0  0  0  0
 17  1  2  0  0  0  0
 18  8  1  0  0  0  0
 18  5  1  0  0  0  0
 19 15  1  0  0  0  0
 20  6  2  0  0  0  0
 20  5  1  0  0  0  0
 22 21  1  0  0  0  0
 22  3  1  0  0  0  0
 22 24  1  0  0  0  0
 23 22  1  0  0  0  0
 25 26  1  0  0  0  0
M  END
>  <MODEL>
3

>  <REMARK>
 VINA RESULT:      -9.3      2.555      4.080
  Name = 
  2 active torsions:
  status: ('A' for Active; 'I' for Inactive)
    1  A    between atoms: C_3  and  C_5
    2  A    between atoms: C_8  and  N_12
                            x       y       z     vdW  Elec       q    Type
                         _______ _______ _______ _____ _____    ______ ____

>  <TORSDO>
F 2

$$$$
=
 OpenBabel11032421293D

 26 29  0  0  1  0  0  0  0  0999 V2000
  188.8450  177.6250  146.5810 C   0  0  0  0  0  0  0  0  0  0  0  0
  191.2470  177.0580  140.3230 C   0  0  0  0  0  2  0  0  0  0  0  0
  189.4090  177.3670  138.8170 C   0  0  1  0  0  0  0  0  0  0  0  0
  189.5970  177.5070  147.8620 C   0  0  0  0  0  1  0  0  0  0  0  0
  191.0460  177.1560  143.3820 C   0  0  0  0  0  2  0  0  0  0  0  0
  191.6820  177.0860  145.6920 O   0  0  0  0  0  0  0  0  0  0  0  0
  187.4610  177.8010  142.0920 C   0  0  0  0  0  3  0  0  0  0  0  0
  190.0080  177.3220  141.0840 C   0  0  0  0  0  0  0  0  0  0  0  0
  190.8960  177.2480  138.9070 N   0  0  0  0  0  0  0  0  0  0  0  0
  189.3790  177.5040  145.3100 C   0  0  0  0  0  0  0  0  0  0  0  0
  187.6650  177.7390  140.7080 C   0  0  0  0  0  3  0  0  0  0  0  0
  188.5390  177.6200  142.9780 C   0  0  0  0  0  0  0  0  0  0  0  0
  188.7190  176.1340  138.2110 C   0  0  0  0  0  1  0  0  0  0  0  0
  188.9580  177.5030  140.2290 C   0  0  0  0  0  0  0  0  0  0  0  0
  187.2250  177.9010  145.2050 C   0  0  0  0  0  0  0  0  0  0  0  0
  188.3490  177.6800  144.4340 C   0  0  0  0  0  0  0  0  0  0  0  0
  187.5180  177.8700  146.5220 N   0  0  0  0  0  2  0  0  0  0  0  0
  189.8440  177.3700  142.4730 C   0  0  0  0  0  0  0  0  0  0  0  0
  185.9130  178.1370  144.7050 N   0  0  0  0  0  1  0  0  0  0  0  0
  190.7500  177.2420  144.8600 C   0  0  0  0  0  0  0  0  0  0  0  0
  189.3530  179.7590  138.7210 F   0  0  0  0  0  0  0  0  0  0  0  0
  189.0560  178.6200  137.9930 C   0  0  0  0  0  0  0  0  0  0  0  0
  187.7030  178.6280  137.6920 F   0  0  0  0  0  0  0  0  0  0  0  0
  189.7760  178.6500  136.8100 F   0  0  0  0  0  0  0  0  0  0  0  0
  191.4670  176.1390  138.1440 C   0  0  0  0  0  2  0  0  0  0  0  0
  192.9480  176.3770  137.9230 C   0  0  0  0  0  1  0  0  0  0  0  0
  1  4  1  0  0  0  0
  2  8  1  0  0  0  0
  3 13  1  6  0  0  0
  3  9  1  0  0  0  0
  3 14  1  0  0  0  0
  5 20  1  0  0  0  0
  7 12  1  0  0  0  0
  8 18  1  0  0  0  0
  9  2  1  0  0  0  0
 10  1  2  0  0  0  0
 11  7  2  0  0  0  0
 12 16  1  0  0  0  0
 14 11  1  0  0  0  0
 14  8  2  0  0  0  0
 15 17  1  0  0  0  0
 16 15  2  0  0  0  0
 16 10  1  0  0  0  0
 17  1  1  0  0  0  0
 18 12  2  0  0  0  0
 18  5  1  0  0  0  0
 19 15  1  0  0  0  0
 20 10  1  0  0  0  0
 20  6  2  0  0  0  0
 22 21  1  0  0  0  0
 22  3  1  0  0  0  0
 23 22  1  0  0  0  0
 24 22  1  0  0  0  0
 25  9  1  0  0  0  0
 26 25  1  0  0  0  0
M  END
>  <MODEL>
4

>  <REMARK>
 VINA RESULT:      -8.7      3.695      5.292
  Name = 
  2 active torsions:
  status: ('A' for Active; 'I' for Inactive)
    1  A    between atoms: C_3  and  C_5
    2  A    between atoms: C_8  and  N_12
                            x       y       z     vdW  Elec       q    Type
                         _______ _______ _______ _____ _____    ______ ____

>  <TORSDO>
F 2

$$$$
=
 OpenBabel11032421293D

 26 29  0  0  1  0  0  0  0  0999 V2000
  187.2980  178.0060  145.9670 C   0  0  0  0  0  0  0  0  0  0  0  0
  181.5390  179.0470  142.6480 C   0  0  0  0  0  2  0  0  0  0  0  0
  182.0090  178.8370  140.3080 C   0  0  1  0  0  0  0  0  0  0  0  0
  187.5210  178.0340  147.4390 C   0  0  0  0  0  1  0  0  0  0  0  0
  183.6060  178.7230  144.8910 C   0  0  0  0  0  2  0  0  0  0  0  0
  184.5620  178.6280  147.0870 O   0  0  0  0  0  0  0  0  0  0  0  0
  185.5540  178.1500  141.6030 C   0  0  0  0  0  3  0  0  0  0  0  0
  182.9660  178.7200  142.4470 C   0  0  0  0  0  0  0  0  0  0  0  0
  180.9150  178.9590  141.3190 N   0  0  0  0  0  0  0  0  0  0  0  0
  186.0930  178.2230  145.3220 C   0  0  2  0  0  3  0  0  0  0  0  0
  184.5310  178.3150  140.6600 C   0  0  0  0  0  3  0  0  0  0  0  0
  185.2790  178.2730  142.9780 C   0  0  0  0  0  0  0  0  0  0  0  0
  182.2300  180.1070  139.4690 C   0  0  0  0  0  1  0  0  0  0  0  0
  183.2380  178.5950  141.1140 C   0  0  0  0  0  0  0  0  0  0  0  0
  187.6820  177.8200  143.8660 C   0  0  0  0  0  0  0  0  0  0  0  0
  186.3360  178.1050  143.9850 C   0  0  0  0  0  0  0  0  0  0  0  0
  188.2810  177.7560  145.0740 N   0  0  0  0  0  0  0  0  0  0  0  0
  183.9610  178.5680  143.4190 C   0  0  0  0  0  0  0  0  0  0  0  0
  188.3770  177.6130  142.6400 N   0  0  0  0  0  1  0  0  0  0  0  0
  184.7580  178.5270  145.8480 C   0  0  0  0  0  0  0  0  0  0  0  0
  182.4460  177.7550  138.2170 F   0  0  0  0  0  0  0  0  0  0  0  0
  181.7040  177.6460  139.3810 C   0  0  0  0  0  0  0  0  0  0  0  0
  180.3600  177.6320  139.0470 F   0  0  0  0  0  0  0  0  0  0  0  0
  182.0230  176.4480  139.9980 F   0  0  0  0  0  0  0  0  0  0  0  0
  180.0500  180.1250  141.1440 C   0  0  0  0  0  2  0  0  0  0  0  0
  179.4200  180.5000  142.4710 C   0  0  0  0  0  1  0  0  0  0  0  0
  1  4  1  0  0  0  0
  3 13  1  6  0  0  0
  3 14  1  0  0  0  0
  3  9  1  0  0  0  0
  5 20  1  0  0  0  0
  7 12  1  0  0  0  0
  8  2  1  0  0  0  0
  8 18  1  0  0  0  0
  9  2  1  0  0  0  0
 10 16  1  6  0  0  0
 10 20  1  0  0  0  0
 10  1  1  0  0  0  0
 11 14  1  0  0  0  0
 11  7  2  0  0  0  0
 12 18  2  0  0  0  0
 12 16  1  0  0  0  0
 14  8  2  0  0  0  0
 15 16  2  0  0  0  0
 15 17  1  0  0  0  0
 17  1  2  0  0  0  0
 18  5  1  0  0  0  0
 19 15  1  0  0  0  0
 20  6  2  0  0  0  0
 21 22  1  0  0  0  0
 22 24  1  0  0  0  0
 22  3  1  0  0  0  0
 23 22  1  0  0  0  0
 25  9  1  0  0  0  0
 25 26  1  0  0  0  0
M  END
>  <MODEL>
5

>  <REMARK>
 VINA RESULT:      -8.6      4.494      7.600
  Name = 
  2 active torsions:
  status: ('A' for Active; 'I' for Inactive)
    1  A    between atoms: C_3  and  C_5
    2  A    between atoms: C_8  and  N_12
                            x       y       z     vdW  Elec       q    Type
                         _______ _______ _______ _____ _____    ______ ____

>  <TORSDO>
F 2

$$$$
=
 OpenBabel11032421293D

 26 29  0  0  1  0  0  0  0  0999 V2000
  187.5680  177.9920  145.2430 C   0  0  0  0  0  0  0  0  0  0  0  0
  183.2150  178.2780  140.1220 C   0  0  0  0  0  2  0  0  0  0  0  0
  181.0420  178.6860  141.0460 C   0  0  1  0  0  0  0  0  0  0  0  0
  189.0370  177.7550  145.1800 C   0  0  0  0  0  1  0  0  0  0  0  0
  185.7950  178.0020  141.7550 C   0  0  0  0  0  2  0  0  0  0  0  0
  188.1110  177.6840  142.2870 O   0  0  0  0  0  0  0  0  0  0  0  0
  182.9990  178.6440  144.3440 C   0  0  0  0  0  3  0  0  0  0  0  0
  183.3050  178.3970  141.5920 C   0  0  0  0  0  0  0  0  0  0  0  0
  181.8270  178.6210  139.7750 N   0  0  0  0  0  0  0  0  0  0  0  0
  186.7050  178.0470  144.1620 C   0  0  0  0  0  0  0  0  0  0  0  0
  181.8840  178.7560  143.5040 C   0  0  0  0  0  3  0  0  0  0  0  0
  184.2760  178.4040  143.8030 C   0  0  0  0  0  0  0  0  0  0  0  0
  180.0770  177.5060  141.2470 C   0  0  0  0  0  1  0  0  0  0  0  0
  182.0690  178.6340  142.1230 C   0  0  0  0  0  0  0  0  0  0  0  0
  185.6100  178.3620  146.0360 C   0  0  0  0  0  0  0  0  0  0  0  0
  185.4590  178.2820  144.6650 C   0  0  0  0  0  0  0  0  0  0  0  0
  186.8980  178.1860  146.4000 N   0  0  0  0  0  2  0  0  0  0  0  0
  184.4420  178.2720  142.3980 C   0  0  0  0  0  0  0  0  0  0  0  0
  184.5620  178.5990  146.9700 N   0  0  0  0  0  1  0  0  0  0  0  0
  186.9500  177.8990  142.7230 C   0  0  0  0  0  0  0  0  0  0  0  0
  178.9450  179.7920  140.7060 F   0  0  0  0  0  0  0  0  0  0  0  0
  180.2590  180.0120  141.0840 C   0  0  0  0  0  0  0  0  0  0  0  0
  180.8230  180.9260  140.2080 F   0  0  0  0  0  0  0  0  0  0  0  0
  180.2680  180.5520  142.3590 F   0  0  0  0  0  0  0  0  0  0  0  0
  181.3420  177.6350  138.8090 C   0  0  0  0  0  2  0  0  0  0  0  0
  182.4210  176.6040  138.5440 C   0  0  0  0  0  1  0  0  0  0  0  0
  1 17  1  0  0  0  0
  2  8  1  0  0  0  0
  3 22  1  0  0  0  0
  3 13  1  1  0  0  0
  3 14  1  0  0  0  0
  4  1  1  0  0  0  0
  5 18  1  0  0  0  0
  5 20  1  0  0  0  0
  6 20  2  0  0  0  0
  8 14  2  0  0  0  0
  8 18  1  0  0  0  0
  9  2  1  0  0  0  0
  9  3  1  0  0  0  0
 10 16  1  0  0  0  0
 10  1  2  0  0  0  0
 11  7  2  0  0  0  0
 12  7  1  0  0  0  0
 12 16  1  0  0  0  0
 14 11  1  0  0  0  0
 15 17  1  0  0  0  0
 15 19  1  0  0  0  0
 16 15  2  0  0  0  0
 18 12  2  0  0  0  0
 20 10  1  0  0  0  0
 21 22  1  0  0  0  0
 22 24  1  0  0  0  0
 23 22  1  0  0  0  0
 25  9  1  0  0  0  0
 26 25  1  0  0  0  0
M  END
>  <MODEL>
6

>  <REMARK>
 VINA RESULT:      -8.2      4.902      7.592
  Name = 
  2 active torsions:
  status: ('A' for Active; 'I' for Inactive)
    1  A    between atoms: C_3  and  C_5
    2  A    between atoms: C_8  and  N_12
                            x       y       z     vdW  Elec       q    Type
                         _______ _______ _______ _____ _____    ______ ____

>  <TORSDO>
F 2

$$$$
=
 OpenBabel11032421293D

 26 29  0  0  1  0  0  0  0  0999 V2000
  189.5730  177.0900  135.7690 C   0  0  0  0  0  0  0  0  0  0  0  0
  191.0960  176.3500  142.2790 C   0  0  0  0  0  2  0  0  0  0  0  0
  189.4870  177.5990  143.5410 C   0  0  1  0  0  0  0  0  0  0  0  0
  190.2820  176.5100  134.5940 C   0  0  0  0  0  1  0  0  0  0  0  0
  191.1480  176.1360  139.2200 C   0  0  0  0  0  2  0  0  0  0  0  0
  191.8290  175.5090  137.0090 O   0  0  0  0  0  0  0  0  0  0  0  0
  188.1170  178.3880  140.0460 C   0  0  0  0  0  3  0  0  0  0  0  0
  190.1220  176.9850  141.3680 C   0  0  0  0  0  0  0  0  0  0  0  0
  190.5990  176.6050  143.6400 N   0  0  0  0  0  0  0  0  0  0  0  0
  189.9180  176.9110  137.0970 C   0  0  1  0  0  3  0  0  0  0  0  0
  188.1840  178.4150  141.4450 C   0  0  0  0  0  3  0  0  0  0  0  0
  189.0610  177.6550  139.3040 C   0  0  0  0  0  0  0  0  0  0  0  0
  189.8560  179.0030  144.0500 C   0  0  0  0  0  1  0  0  0  0  0  0
  189.1990  177.6950  142.0830 C   0  0  0  0  0  0  0  0  0  0  0  0
  188.1480  178.1930  136.9280 C   0  0  0  0  0  0  0  0  0  0  0  0
  189.0120  177.6120  137.8360 C   0  0  0  0  0  0  0  0  0  0  0  0
  188.4820  177.8790  135.6590 N   0  0  0  0  0  0  0  0  0  0  0  0
  190.0930  176.9380  139.9690 C   0  0  0  0  0  0  0  0  0  0  0  0
  187.0370  179.0200  137.2590 N   0  0  0  0  0  1  0  0  0  0  0  0
  191.0080  176.1490  137.7160 C   0  0  0  0  0  0  0  0  0  0  0  0
  188.6560  176.6660  145.5840 F   0  0  0  0  0  0  0  0  0  0  0  0
  188.2680  177.0670  144.3180 C   0  0  0  0  0  0  0  0  0  0  0  0
  187.7190  175.9790  143.6590 F   0  0  0  0  0  0  0  0  0  0  0  0
  187.2980  178.0490  144.4430 F   0  0  0  0  0  0  0  0  0  0  0  0
  191.7280  177.0320  144.4650 C   0  0  0  0  0  2  0  0  0  0  0  0
  191.7500  176.2360  145.7550 C   0  0  0  0  0  1  0  0  0  0  0  0
  2  9  1  0  0  0  0
  3  9  1  0  0  0  0
  3 13  1  1  0  0  0
  3 22  1  0  0  0  0
  4  1  1  0  0  0  0
  5 18  1  0  0  0  0
  6 20  2  0  0  0  0
  7 11  1  0  0  0  0
  8 14  1  0  0  0  0
  8  2  1  0  0  0  0
  9 25  1  0  0  0  0
 10  1  1  1  0  0  0
 10 20  1  0  0  0  0
 10 16  1  0  0  0  0
 11 14  2  0  0  0  0
 12 18  1  0  0  0  0
 12  7  2  0  0  0  0
 14  3  1  0  0  0  0
 15 19  1  0  0  0  0
 15 16  2  0  0  0  0
 16 12  1  0  0  0  0
 17  1  2  0  0  0  0
 17 15  1  0  0  0  0
 18  8  2  0  0  0  0
 20  5  1  0  0  0  0
 22 24  1  0  0  0  0
 22 21  1  0  0  0  0
 23 22  1  0  0  0  0
 25 26  1  0  0  0  0
M  END
>  <MODEL>
7

>  <REMARK>
 VINA RESULT:      -8.0      3.902      6.677
  Name = 
  2 active torsions:
  status: ('A' for Active; 'I' for Inactive)
    1  A    between atoms: C_3  and  C_5
    2  A    between atoms: C_8  and  N_12
                            x       y       z     vdW  Elec       q    Type
                         _______ _______ _______ _____ _____    ______ ____

>  <TORSDO>
F 2

$$$$
=
 OpenBabel11032421293D

 26 29  0  0  1  0  0  0  0  0999 V2000
  187.5780  177.9880  146.0000 C   0  0  0  0  0  0  0  0  0  0  0  0
  185.9080  178.1750  139.4860 C   0  0  0  0  0  2  0  0  0  0  0  0
  183.5480  178.5700  139.3590 C   0  0  1  0  0  0  0  0  0  0  0  0
  188.9270  177.7650  146.5910 C   0  0  0  0  0  1  0  0  0  0  0  0
  187.5130  177.9430  142.0890 C   0  0  0  0  0  2  0  0  0  0  0  0
  189.3630  177.6550  143.5860 O   0  0  0  0  0  0  0  0  0  0  0  0
  183.8610  178.5810  143.1820 C   0  0  0  0  0  3  0  0  0  0  0  0
  185.3440  178.3100  140.8460 C   0  0  0  0  0  0  0  0  0  0  0  0
  184.8100  178.4990  138.5620 N   0  0  0  0  0  0  0  0  0  0  0  0
  187.2760  178.0220  144.6500 C   0  0  0  0  0  0  0  0  0  0  0  0
  183.2270  178.6730  141.9370 C   0  0  0  0  0  3  0  0  0  0  0  0
  185.2470  178.3500  143.2580 C   0  0  0  0  0  0  0  0  0  0  0  0
  182.5980  177.3810  139.1330 C   0  0  0  0  0  1  0  0  0  0  0  0
  183.9990  178.5390  140.7780 C   0  0  0  0  0  0  0  0  0  0  0  0
  185.4690  178.3440  145.8500 C   0  0  0  0  0  0  0  0  0  0  0  0
  185.9340  178.2490  144.5530 C   0  0  0  0  0  0  0  0  0  0  0  0
  186.4670  178.1860  146.7440 N   0  0  0  0  0  2  0  0  0  0  0  0
  186.0130  178.2050  142.0700 C   0  0  0  0  0  0  0  0  0  0  0  0
  184.1160  178.5800  146.2270 N   0  0  0  0  0  1  0  0  0  0  0  0
  188.1270  177.8620  143.4660 C   0  0  0  0  0  0  0  0  0  0  0  0
  182.1650  179.7730  137.8180 F   0  0  0  0  0  0  0  0  0  0  0  0
  182.8200  179.8870  139.0320 C   0  0  0  0  0  0  0  0  0  0  0  0
  183.7310  180.9280  138.9460 F   0  0  0  0  0  0  0  0  0  0  0  0
  181.8880  180.1910  140.0100 F   0  0  0  0  0  0  0  0  0  0  0  0
  184.8020  177.4990  137.4950 C   0  0  0  0  0  2  0  0  0  0  0  0
  186.1990  177.3480  136.9250 C   0  0  0  0  0  1  0  0  0  0  0  0
  1  4  1  0  0  0  0
  1 17  1  0  0  0  0
  2  8  1  0  0  0  0
  3 13  1  6  0  0  0
  3 14  1  0  0  0  0
  5 20  1  0  0  0  0
  7 12  1  0  0  0  0
  8 18  1  0  0  0  0
  9  3  1  0  0  0  0
  9  2  1  0  0  0  0
 10  1  2  0  0  0  0
 11  7  2  0  0  0  0
 12 16  1  0  0  0  0
 14  8  2  0  0  0  0
 14 11  1  0  0  0  0
 15 19  1  0  0  0  0
 15 17  1  0  0  0  0
 16 10  1  0  0  0  0
 16 15  2  0  0  0  0
 18  5  1  0  0  0  0
 18 12  2  0  0  0  0
 20  6  2  0  0  0  0
 20 10  1  0  0  0  0
 21 22  1  0  0  0  0
 22  3  1  0  0  0  0
 22 24  1  0  0  0  0
 23 22  1  0  0  0  0
 25  9  1  0  0  0  0
 26 25  1  0  0  0  0
M  END
>  <MODEL>
8

>  <REMARK>
 VINA RESULT:      -7.8      4.569      6.524
  Name = 
  2 active torsions:
  status: ('A' for Active; 'I' for Inactive)
    1  A    between atoms: C_3  and  C_5
    2  A    between atoms: C_8  and  N_12
                            x       y       z     vdW  Elec       q    Type
                         _______ _______ _______ _____ _____    ______ ____

>  <TORSDO>
F 2

$$$$
=
 OpenBabel11032421293D

 26 29  0  0  1  0  0  0  0  0999 V2000
  187.9320  177.7610  136.1090 C   0  0  0  0  0  0  0  0  0  0  0  0
  187.9800  178.1270  142.8260 C   0  0  0  0  0  2  0  0  0  0  0  0
  190.1580  177.4590  143.5670 C   0  0  1  0  0  0  0  0  0  0  0  0
  186.8050  178.0710  135.1850 C   0  0  0  0  0  1  0  0  0  0  0  0
  187.0830  178.2530  139.8960 C   0  0  0  0  0  2  0  0  0  0  0  0
  185.7010  178.5950  137.9670 O   0  0  0  0  0  0  0  0  0  0  0  0
  190.7580  177.0600  139.8000 C   0  0  0  0  0  3  0  0  0  0  0  0
  188.8330  177.8040  141.6630 C   0  0  0  0  0  0  0  0  0  0  0  0
  188.8630  178.0650  144.0010 N   0  0  0  0  0  0  0  0  0  0  0  0
  187.9020  177.8520  137.4890 C   0  0  2  0  0  3  0  0  0  0  0  0
  191.0640  177.0410  141.1660 C   0  0  0  0  0  3  0  0  0  0  0  0
  189.4800  177.4520  139.3630 C   0  0  0  0  0  0  0  0  0  0  0  0
  190.3740  176.0210  144.0660 C   0  0  0  0  0  1  0  0  0  0  0  0
  190.0780  177.4270  142.0800 C   0  0  0  0  0  0  0  0  0  0  0  0
  189.8720  177.1730  136.8060 C   0  0  0  0  0  0  0  0  0  0  0  0
  189.1360  177.4780  137.9340 C   0  0  0  0  0  0  0  0  0  0  0  0
  189.1440  177.3430  135.6830 N   0  0  0  0  0  0  0  0  0  0  0  0
  188.4870  177.8300  140.3070 C   0  0  0  0  0  0  0  0  0  0  0  0
  191.2270  176.7350  136.7980 N   0  0  0  0  0  1  0  0  0  0  0  0
  186.8300  178.2530  138.4070 C   0  0  0  0  0  0  0  0  0  0  0  0
  191.6590  178.0270  145.3450 F   0  0  0  0  0  0  0  0  0  0  0  0
  191.3160  178.3560  144.0450 C   0  0  0  0  0  0  0  0  0  0  0  0
  190.9350  179.6870  144.0120 F   0  0  0  0  0  0  0  0  0  0  0  0
  192.4310  178.1910  143.2390 F   0  0  0  0  0  0  0  0  0  0  0  0
  188.1670  177.3270  145.0550 C   0  0  0  0  0  2  0  0  0  0  0  0
  186.6690  177.5060  144.9020 C   0  0  0  0  0  1  0  0  0  0  0  0
  2  9  1  0  0  0  0
  3  9  1  0  0  0  0
  3 22  1  0  0  0  0
  3 13  1  1  0  0  0
  4  1  1  0  0  0  0
  5 18  1  0  0  0  0
  6 20  2  0  0  0  0
  7 11  1  0  0  0  0
  8 14  1  0  0  0  0
  8  2  1  0  0  0  0
  9 25  1  0  0  0  0
 10  1  1  1  0  0  0
 10 16  1  0  0  0  0
 10 20  1  0  0  0  0
 11 14  2  0  0  0  0
 12  7  2  0  0  0  0
 12 18  1  0  0  0  0
 14  3  1  0  0  0  0
 15 16  2  0  0  0  0
 16 12  1  0  0  0  0
 17  1  2  0  0  0  0
 17 15  1  0  0  0  0
 18  8  2  0  0  0  0
 19 15  1  0  0  0  0
 20  5  1  0  0  0  0
 22 21  1  0  0  0  0
 23 22  1  0  0  0  0
 24 22  1  0  0  0  0
 26 25  1  0  0  0  0
M  END
>  <MODEL>
9

>  <REMARK>
 VINA RESULT:      -7.5      2.996      6.173
  Name = 
  2 active torsions:
  status: ('A' for Active; 'I' for Inactive)
    1  A    between atoms: C_3  and  C_5
    2  A    between atoms: C_8  and  N_12
                            x       y       z     vdW  Elec       q    Type
                         _______ _______ _______ _____ _____    ______ ____

>  <TORSDO>
F 2

$$$$
