=
 OpenBabel11042410393D

 44 47  0  0  1  0  0  0  0  0999 V2000
  189.9520  173.8890  136.2740 C   0  0  0  0  0  0  0  0  0  0  0  0
  188.6090  176.0610  136.0900 C   0  0  0  0  0  0  0  0  0  0  0  0
  189.4140  173.5210  137.3520 O   0  0  0  0  0  0  0  0  0  0  0  0
  188.7000  177.3020  135.7250 N   0  0  0  0  0  0  0  0  0  0  0  0
  189.6440  175.1560  135.6840 N   0  0  0  0  0  2  0  0  0  0  0  0
  190.9620  173.0100  135.6270 C   0  0  0  0  0  1  0  0  0  0  0  0
  187.4080  175.6000  136.8170 C   0  0  0  0  0  3  0  0  0  0  0  0
  184.9870  176.1140  135.9860 C   0  0  0  0  0  3  0  0  0  0  0  0
  186.2020  175.8420  136.3850 C   0  0  0  0  0  0  0  0  0  0  0  0
  182.0350  178.2050  137.0650 C   0  0  0  0  0  3  0  0  0  0  0  0
  182.4110  178.5220  138.3320 N   0  0  0  0  0  0  0  0  0  0  0  0
  183.5870  178.0850  138.8660 C   0  0  0  0  0  0  0  0  0  0  0  0
  184.0770  176.9460  136.7860 C   0  0  0  0  0  0  0  0  0  0  0  0
  182.8590  177.4110  136.2690 C   0  0  0  0  0  3  0  0  0  0  0  0
  184.4390  177.2870  138.0880 C   0  0  0  0  0  3  0  0  0  0  0  0
  183.9550  178.4610  140.2480 C   0  0  0  0  0  0  0  0  0  0  0  0
  182.6250  178.8550  143.6600 N   0  0  0  0  0  0  0  0  0  0  0  0
  184.6500  179.1790  142.8460 C   0  0  0  0  0  0  0  0  0  0  0  0
  185.2830  178.8510  140.5610 C   0  0  0  0  0  3  0  0  0  0  0  0
  183.4190  179.2660  144.6730 C   0  0  0  0  0  3  0  0  0  0  0  0
  181.2880  178.5440  143.7600 O   0  0  0  0  0  1  0  0  0  0  0  0
  184.7180  179.4820  144.1960 C   0  0  0  0  0  3  0  0  0  0  0  0
  182.9780  178.4350  141.2690 C   0  0  0  0  0  3  0  0  0  0  0  0
  183.3710  178.8040  142.5530 C   0  0  0  0  0  0  0  0  0  0  0  0
  185.6430  179.2140  141.8720 C   0  0  0  0  0  3  0  0  0  0  0  0
  187.6900  178.2310  136.0050 N   0  0  0  0  0  2  0  0  0  0  0  0
  187.8580  179.2050  137.0040 N   0  0  0  0  0  2  0  0  0  0  0  0
  189.1600  178.9990  137.6290 C   0  0  0  0  0  2  0  0  0  0  0  0
  189.0340  177.7980  141.2500 N   0  0  0  0  0  2  0  0  0  0  0  0
  189.0340  178.9540  139.0780 N   0  0  0  0  0  2  0  0  0  0  0  0
  189.3190  177.7890  139.8510 C   0  0  0  0  0  0  0  0  0  0  0  0
  189.8220  176.7690  139.3060 O   0  0  0  0  0  0  0  0  0  0  0  0
  189.4020  176.6980  142.1260 C   0  0  0  0  0  2  0  0  0  0  0  0
  189.9350  177.2260  143.3730 N   0  0  0  0  0  0  0  0  0  0  0  0
  187.1430  177.5970  146.9040 C   0  0  0  0  0  3  0  0  0  0  0  0
  189.1470  177.1500  144.5780 C   0  0  0  0  0  0  0  0  0  0  0  0
  188.4920  178.1810  148.8020 N   0  0  0  0  0  1  0  0  0  0  0  0
  187.8320  177.4320  144.5180 C   0  0  0  0  0  3  0  0  0  0  0  0
  186.8550  177.3810  145.6220 C   0  0  0  0  0  3  0  0  0  0  0  0
  189.7710  176.6300  145.7700 N   0  0  0  0  0  0  0  0  0  0  0  0
  188.5010  177.9950  147.3620 C   0  0  1  0  0  3  0  0  0  0  0  0
  189.5020  176.9500  147.0000 C   0  0  0  0  0  3  0  0  0  0  0  0
  191.3450  179.1750  143.8370 C   0  0  0  0  0  1  0  0  0  0  0  0
  191.3060  177.7360  143.3590 C   0  0  0  0  0  2  0  0  0  0  0  0
  1  3  2  0  0  0  0
  2  7  1  0  0  0  0
  4 26  1  0  0  0  0
  4  2  2  0  0  0  0
  5  2  1  0  0  0  0
  5  1  1  0  0  0  0
  6  1  1  0  0  0  0
  8  9  2  0  0  0  0
  8 13  1  0  0  0  0
  9  7  2  0  0  0  0
 10 11  1  0  0  0  0
 11 12  2  0  0  0  0
 12 16  1  0  0  0  0
 13 15  2  0  0  0  0
 14 13  1  0  0  0  0
 14 10  2  0  0  0  0
 15 12  1  0  0  0  0
 16 19  2  0  0  0  0
 16 23  1  0  0  0  0
 17 21  1  0  0  0  0
 17 20  1  0  0  0  0
 18 22  1  0  0  0  0
 19 25  1  0  0  0  0
 22 20  2  0  0  0  0
 23 24  2  0  0  0  0
 24 18  1  0  0  0  0
 24 17  1  0  0  0  0
 25 18  2  0  0  0  0
 26 27  1  0  0  0  0
 27 28  1  0  0  0  0
 28 30  1  0  0  0  0
 29 33  1  0  0  0  0
 30 31  1  0  0  0  0
 31 29  1  0  0  0  0
 32 31  2  0  0  0  0
 33 34  1  0  0  0  0
 34 36  1  0  0  0  0
 35 41  1  0  0  0  0
 36 40  1  0  0  0  0
 38 36  2  0  0  0  0
 38 39  1  0  0  0  0
 39 35  2  0  0  0  0
 40 42  2  0  0  0  0
 41 37  1  1  0  0  0
 42 41  1  0  0  0  0
 44 34  1  0  0  0  0
 44 43  1  0  0  0  0
M  END
>  <MODEL>
1

>  <REMARK>
 VINA RESULT:      -9.4      0.000      0.000
  Name = 
  11 active torsions:
  status: ('A' for Active; 'I' for Inactive)
    1  A    between atoms: N_1  and  C_41
    2  A    between atoms: N_2  and  N_12
    3  A    between atoms: N_2  and  C_43
    4  A    between atoms: C_4  and  N_25
    5  A    between atoms: C_5  and  C_24
    6  A    between atoms: N_8  and  C_43
    7  A    between atoms: N_12  and  N_32
    8  A    between atoms: C_15  and  C_22
    9  A    between atoms: C_17  and  N_25
   10  A    between atoms: N_25  and  C_41
   11  A    between atoms: C_30  and  C_31
                            x       y       z     vdW  Elec       q    Type
                         _______ _______ _______ _____ _____    ______ ____

>  <TORSDO>
F 11

$$$$
=
 OpenBabel11042410393D

 44 47  0  0  1  0  0  0  0  0999 V2000
  182.1640  179.5290  139.0290 C   0  0  0  0  0  0  0  0  0  0  0  0
  184.5760  179.0000  139.7050 C   0  0  0  0  0  0  0  0  0  0  0  0
  181.7010  178.4220  139.4110 O   0  0  0  0  0  0  0  0  0  0  0  0
  185.8100  179.1710  139.3420 N   0  0  0  0  0  0  0  0  0  0  0  0
  183.5680  179.8040  139.0780 N   0  0  0  0  0  2  0  0  0  0  0  0
  181.2400  180.5510  138.4690 C   0  0  0  0  0  1  0  0  0  0  0  0
  184.2610  178.0690  140.8080 C   0  0  0  0  0  3  0  0  0  0  0  0
  183.4420  178.8960  143.1450 C   0  0  0  0  0  3  0  0  0  0  0  0
  183.8320  178.4880  141.9660 C   0  0  0  0  0  0  0  0  0  0  0  0
  184.5340  178.6310  146.7480 C   0  0  0  0  0  3  0  0  0  0  0  0
  185.8220  178.2310  146.5840 N   0  0  0  0  0  0  0  0  0  0  0  0
  186.3650  178.0350  145.3490 C   0  0  0  0  0  0  0  0  0  0  0  0
  184.2500  178.6650  144.3520 C   0  0  0  0  0  0  0  0  0  0  0  0
  183.7240  178.8540  145.6370 C   0  0  0  0  0  3  0  0  0  0  0  0
  185.5750  178.2550  144.2110 C   0  0  0  0  0  3  0  0  0  0  0  0
  187.7730  177.6030  145.2210 C   0  0  0  0  0  0  0  0  0  0  0  0
  190.3470  176.5900  142.7890 N   0  0  0  0  0  0  0  0  0  0  0  0
  190.4220  176.7800  144.9860 C   0  0  0  0  0  0  0  0  0  0  0  0
  188.5950  177.4670  146.3700 C   0  0  0  0  0  3  0  0  0  0  0  0
  191.5910  176.2510  143.1930 C   0  0  0  0  0  3  0  0  0  0  0  0
  189.8990  176.6050  141.4880 O   0  0  0  0  0  1  0  0  0  0  0  0
  191.6790  176.3600  144.5860 C   0  0  0  0  0  3  0  0  0  0  0  0
  188.3090  177.3200  143.9450 C   0  0  0  0  0  3  0  0  0  0  0  0
  189.6390  176.9100  143.8750 C   0  0  0  0  0  0  0  0  0  0  0  0
  189.9350  177.0530  146.2610 C   0  0  0  0  0  3  0  0  0  0  0  0
  186.8640  178.4890  139.9640 N   0  0  0  0  0  2  0  0  0  0  0  0
  188.1900  178.6540  139.5310 N   0  0  0  0  0  2  0  0  0  0  0  0
  188.3910  177.8210  138.3500 C   0  0  0  0  0  2  0  0  0  0  0  0
  191.9920  176.6680  137.8230 N   0  0  0  0  0  2  0  0  0  0  0  0
  189.8010  177.7740  137.9880 N   0  0  0  0  0  2  0  0  0  0  0  0
  190.5880  176.5860  138.0670 C   0  0  0  0  0  0  0  0  0  0  0  0
  190.0490  175.4800  138.3400 O   0  0  0  0  0  0  0  0  0  0  0  0
  192.8430  175.4910  137.7680 C   0  0  0  0  0  2  0  0  0  0  0  0
  193.3510  175.3190  136.4160 N   0  0  0  0  0  0  0  0  0  0  0  0
  197.3150  176.6680  134.7210 C   0  0  0  0  0  3  0  0  0  0  0  0
  194.6920  175.7390  136.0950 C   0  0  0  0  0  0  0  0  0  0  0  0
  198.8200  174.8070  134.9020 N   0  0  0  0  0  1  0  0  0  0  0  0
  194.8710  176.7220  135.1930 C   0  0  0  0  0  3  0  0  0  0  0  0
  196.1500  177.3140  134.7560 C   0  0  0  0  0  3  0  0  0  0  0  0
  195.7810  175.1910  136.8660 N   0  0  0  0  0  0  0  0  0  0  0  0
  197.4380  175.2240  135.0590 C   0  0  1  0  0  3  0  0  0  0  0  0
  196.9980  174.9760  136.4620 C   0  0  0  0  0  3  0  0  0  0  0  0
  191.8090  173.4410  136.1010 C   0  0  0  0  0  1  0  0  0  0  0  0
  192.4880  174.6330  135.4530 C   0  0  0  0  0  2  0  0  0  0  0  0
  1  5  1  0  0  0  0
  1  3  2  0  0  0  0
  2  7  1  0  0  0  0
  4  2  2  0  0  0  0
  4 26  1  0  0  0  0
  5  2  1  0  0  0  0
  6  1  1  0  0  0  0
  7  9  2  0  0  0  0
  8 13  1  0  0  0  0
  9  8  2  0  0  0  0
 11 10  1  0  0  0  0
 12 11  2  0  0  0  0
 13 14  1  0  0  0  0
 14 10  2  0  0  0  0
 15 13  2  0  0  0  0
 15 12  1  0  0  0  0
 16 12  1  0  0  0  0
 16 19  1  0  0  0  0
 17 20  1  0  0  0  0
 17 24  1  0  0  0  0
 18 25  1  0  0  0  0
 20 22  2  0  0  0  0
 21 17  1  0  0  0  0
 22 18  1  0  0  0  0
 23 16  2  0  0  0  0
 24 23  1  0  0  0  0
 24 18  2  0  0  0  0
 25 19  2  0  0  0  0
 27 26  1  0  0  0  0
 28 27  1  0  0  0  0
 29 31  1  0  0  0  0
 30 31  1  0  0  0  0
 30 28  1  0  0  0  0
 31 32  2  0  0  0  0
 33 29  1  0  0  0  0
 34 33  1  0  0  0  0
 35 39  2  0  0  0  0
 35 41  1  0  0  0  0
 36 34  1  0  0  0  0
 36 40  1  0  0  0  0
 38 36  2  0  0  0  0
 39 38  1  0  0  0  0
 41 37  1  1  0  0  0
 41 42  1  0  0  0  0
 42 40  2  0  0  0  0
 44 43  1  0  0  0  0
 44 34  1  0  0  0  0
M  END
>  <MODEL>
2

>  <REMARK>
 VINA RESULT:      -9.3      3.433      8.837
  Name = 
  11 active torsions:
  status: ('A' for Active; 'I' for Inactive)
    1  A    between atoms: N_1  and  C_41
    2  A    between atoms: N_2  and  N_12
    3  A    between atoms: N_2  and  C_43
    4  A    between atoms: C_4  and  N_25
    5  A    between atoms: C_5  and  C_24
    6  A    between atoms: N_8  and  C_43
    7  A    between atoms: N_12  and  N_32
    8  A    between atoms: C_15  and  C_22
    9  A    between atoms: C_17  and  N_25
   10  A    between atoms: N_25  and  C_41
   11  A    between atoms: C_30  and  C_31
                            x       y       z     vdW  Elec       q    Type
                         _______ _______ _______ _____ _____    ______ ____

>  <TORSDO>
F 11

$$$$
=
 OpenBabel11042410393D

 44 47  0  0  1  0  0  0  0  0999 V2000
  182.4150  179.8110  139.0420 C   0  0  0  0  0  0  0  0  0  0  0  0
  184.7640  178.9790  139.6290 C   0  0  0  0  0  0  0  0  0  0  0  0
  181.8310  178.7620  139.4230 O   0  0  0  0  0  0  0  0  0  0  0  0
  185.9970  179.0050  139.2280 N   0  0  0  0  0  0  0  0  0  0  0  0
  183.8430  179.9120  139.0490 N   0  0  0  0  0  2  0  0  0  0  0  0
  181.6070  180.9490  138.5290 C   0  0  0  0  0  1  0  0  0  0  0  0
  184.3720  178.0730  140.7290 C   0  0  0  0  0  3  0  0  0  0  0  0
  183.5550  178.9570  143.0450 C   0  0  0  0  0  3  0  0  0  0  0  0
  183.9440  178.5210  141.8750 C   0  0  0  0  0  0  0  0  0  0  0  0
  184.5250  178.5590  146.6710 C   0  0  0  0  0  3  0  0  0  0  0  0
  185.8210  178.1730  146.5360 N   0  0  0  0  0  0  0  0  0  0  0  0
  186.4070  178.0280  145.3140 C   0  0  0  0  0  0  0  0  0  0  0  0
  184.3230  178.6850  144.2690 C   0  0  0  0  0  0  0  0  0  0  0  0
  183.7520  178.8210  145.5420 C   0  0  0  0  0  3  0  0  0  0  0  0
  185.6550  178.2880  144.1580 C   0  0  0  0  0  3  0  0  0  0  0  0
  187.8210  177.6100  145.2180 C   0  0  0  0  0  0  0  0  0  0  0  0
  190.3710  176.3090  142.8990 N   0  0  0  0  0  0  0  0  0  0  0  0
  190.4830  176.8130  145.0450 C   0  0  0  0  0  0  0  0  0  0  0  0
  188.6670  177.6560  146.3570 C   0  0  0  0  0  3  0  0  0  0  0  0
  191.6290  176.0550  143.3210 C   0  0  0  0  0  3  0  0  0  0  0  0
  189.8980  176.1280  141.6200 O   0  0  0  0  0  1  0  0  0  0  0  0
  191.7420  176.3640  144.6820 C   0  0  0  0  0  3  0  0  0  0  0  0
  188.3400  177.1570  143.9840 C   0  0  0  0  0  3  0  0  0  0  0  0
  189.6760  176.7670  143.9450 C   0  0  0  0  0  0  0  0  0  0  0  0
  190.0140  177.2570  146.2780 C   0  0  0  0  0  3  0  0  0  0  0  0
  186.9790  178.1880  139.8040 N   0  0  0  0  0  2  0  0  0  0  0  0
  188.2590  178.6870  140.0950 N   0  0  0  0  0  2  0  0  0  0  0  0
  189.0680  178.6060  138.8830 C   0  0  0  0  0  2  0  0  0  0  0  0
  188.3150  175.5770  136.6860 N   0  0  0  0  0  2  0  0  0  0  0  0
  189.0320  177.2590  138.3300 N   0  0  0  0  0  2  0  0  0  0  0  0
  188.4210  176.9450  137.0800 C   0  0  0  0  0  0  0  0  0  0  0  0
  187.9890  177.8620  136.3310 O   0  0  0  0  0  0  0  0  0  0  0  0
  187.8140  175.1790  135.3800 C   0  0  0  0  0  2  0  0  0  0  0  0
  186.6830  174.2790  135.5440 N   0  0  0  0  0  0  0  0  0  0  0  0
  183.0430  176.5350  136.9830 C   0  0  0  0  0  3  0  0  0  0  0  0
  185.4040  174.8040  135.9540 C   0  0  0  0  0  0  0  0  0  0  0  0
  182.3730  175.5280  139.0560 N   0  0  0  0  0  1  0  0  0  0  0  0
  185.0850  176.0730  135.6370 C   0  0  0  0  0  3  0  0  0  0  0  0
  183.8240  176.7790  135.9320 C   0  0  0  0  0  3  0  0  0  0  0  0
  184.4570  173.8980  136.5590 N   0  0  0  0  0  0  0  0  0  0  0  0
  183.4060  175.5490  138.0360 C   0  0  1  0  0  3  0  0  0  0  0  0
  183.5540  174.1870  137.4480 C   0  0  0  0  0  3  0  0  0  0  0  0
  187.4920  172.1140  136.3560 C   0  0  0  0  0  1  0  0  0  0  0  0
  186.8820  172.8740  135.1920 C   0  0  0  0  0  2  0  0  0  0  0  0
  1  5  1  0  0  0  0
  1  3  2  0  0  0  0
  2  7  1  0  0  0  0
  4  2  2  0  0  0  0
  4 26  1  0  0  0  0
  5  2  1  0  0  0  0
  6  1  1  0  0  0  0
  7  9  2  0  0  0  0
  8 13  1  0  0  0  0
  9  8  2  0  0  0  0
 11 10  1  0  0  0  0
 12 11  2  0  0  0  0
 13 14  1  0  0  0  0
 14 10  2  0  0  0  0
 15 13  2  0  0  0  0
 15 12  1  0  0  0  0
 16 12  1  0  0  0  0
 16 19  1  0  0  0  0
 17 20  1  0  0  0  0
 17 24  1  0  0  0  0
 18 25  1  0  0  0  0
 20 22  2  0  0  0  0
 21 17  1  0  0  0  0
 22 18  1  0  0  0  0
 23 16  2  0  0  0  0
 24 23  1  0  0  0  0
 24 18  2  0  0  0  0
 25 19  2  0  0  0  0
 26 27  1  0  0  0  0
 28 27  1  0  0  0  0
 29 31  1  0  0  0  0
 30 28  1  0  0  0  0
 31 30  1  0  0  0  0
 32 31  2  0  0  0  0
 33 34  1  0  0  0  0
 33 29  1  0  0  0  0
 34 36  1  0  0  0  0
 35 41  1  0  0  0  0
 36 40  1  0  0  0  0
 38 39  1  0  0  0  0
 38 36  2  0  0  0  0
 39 35  2  0  0  0  0
 40 42  2  0  0  0  0
 41 37  1  1  0  0  0
 42 41  1  0  0  0  0
 44 34  1  0  0  0  0
 44 43  1  0  0  0  0
M  END
>  <MODEL>
3

>  <REMARK>
 VINA RESULT:      -9.3      2.172      8.152
  Name = 
  11 active torsions:
  status: ('A' for Active; 'I' for Inactive)
    1  A    between atoms: N_1  and  C_41
    2  A    between atoms: N_2  and  N_12
    3  A    between atoms: N_2  and  C_43
    4  A    between atoms: C_4  and  N_25
    5  A    between atoms: C_5  and  C_24
    6  A    between atoms: N_8  and  C_43
    7  A    between atoms: N_12  and  N_32
    8  A    between atoms: C_15  and  C_22
    9  A    between atoms: C_17  and  N_25
   10  A    between atoms: N_25  and  C_41
   11  A    between atoms: C_30  and  C_31
                            x       y       z     vdW  Elec       q    Type
                         _______ _______ _______ _____ _____    ______ ____

>  <TORSDO>
F 11

$$$$
=
 OpenBabel11042410393D

 44 47  0  0  1  0  0  0  0  0999 V2000
  191.8490  176.3600  146.9340 C   0  0  0  0  0  0  0  0  0  0  0  0
  190.7660  177.0750  144.7270 C   0  0  0  0  0  0  0  0  0  0  0  0
  191.7140  177.4830  147.4880 O   0  0  0  0  0  0  0  0  0  0  0  0
  190.8430  176.9180  143.4420 N   0  0  0  0  0  0  0  0  0  0  0  0
  191.4780  176.1560  145.5670 N   0  0  0  0  0  2  0  0  0  0  0  0
  192.4500  175.2370  147.7010 C   0  0  0  0  0  1  0  0  0  0  0  0
  189.8790  178.1180  145.2840 C   0  0  0  0  0  3  0  0  0  0  0  0
  187.6250  177.5470  146.4730 C   0  0  0  0  0  3  0  0  0  0  0  0
  188.7650  177.8240  145.8950 C   0  0  0  0  0  0  0  0  0  0  0  0
  184.0590  178.7390  146.1480 C   0  0  0  0  0  3  0  0  0  0  0  0
  183.9480  178.8130  144.7960 N   0  0  0  0  0  0  0  0  0  0  0  0
  184.9850  178.4970  143.9690 C   0  0  0  0  0  0  0  0  0  0  0  0
  186.3430  177.9940  145.9110 C   0  0  0  0  0  0  0  0  0  0  0  0
  185.2570  178.3300  146.7310 C   0  0  0  0  0  3  0  0  0  0  0  0
  186.2030  178.0780  144.5260 C   0  0  0  0  0  3  0  0  0  0  0  0
  184.8160  178.5890  142.5030 C   0  0  0  0  0  0  0  0  0  0  0  0
  182.2980  178.6860  139.8160 N   0  0  0  0  0  0  0  0  0  0  0  0
  184.5020  178.7510  139.7420 C   0  0  0  0  0  0  0  0  0  0  0  0
  185.9460  178.6740  141.6490 C   0  0  0  0  0  3  0  0  0  0  0  0
  182.6680  178.7750  138.5200 C   0  0  0  0  0  3  0  0  0  0  0  0
  181.0050  178.6270  140.2830 O   0  0  0  0  0  1  0  0  0  0  0  0
  184.0640  178.8190  138.4300 C   0  0  0  0  0  3  0  0  0  0  0  0
  183.5190  178.5900  141.9430 C   0  0  0  0  0  3  0  0  0  0  0  0
  183.4100  178.6720  140.5560 C   0  0  0  0  0  0  0  0  0  0  0  0
  185.7970  178.7580  140.2530 C   0  0  0  0  0  3  0  0  0  0  0  0
  190.1110  177.7170  142.5540 N   0  0  0  0  0  2  0  0  0  0  0  0
  189.6930  177.2210  141.3080 N   0  0  0  0  0  2  0  0  0  0  0  0
  190.8460  177.2010  140.4140 C   0  0  0  0  0  2  0  0  0  0  0  0
  189.9180  175.1410  137.3370 N   0  0  0  0  0  2  0  0  0  0  0  0
  190.7260  176.1220  139.4430 N   0  0  0  0  0  2  0  0  0  0  0  0
  190.1130  176.2870  138.1650 C   0  0  0  0  0  0  0  0  0  0  0  0
  189.7570  177.4310  137.7700 O   0  0  0  0  0  0  0  0  0  0  0  0
  189.4100  175.2390  135.9790 C   0  0  0  0  0  2  0  0  0  0  0  0
  188.4150  174.2020  135.7540 N   0  0  0  0  0  0  0  0  0  0  0  0
  184.3370  173.7150  137.6340 C   0  0  0  0  0  3  0  0  0  0  0  0
  187.1680  174.2370  136.4760 C   0  0  0  0  0  0  0  0  0  0  0  0
  182.9810  175.5290  136.8390 N   0  0  0  0  0  1  0  0  0  0  0  0
  186.6350  173.0820  136.9170 C   0  0  0  0  0  3  0  0  0  0  0  0
  185.3950  172.9090  137.6980 C   0  0  0  0  0  3  0  0  0  0  0  0
  186.6190  175.5240  136.8290 N   0  0  0  0  0  0  0  0  0  0  0  0
  184.2620  174.8630  136.6910 C   0  0  1  0  0  3  0  0  0  0  0  0
  185.3630  175.8320  136.9590 C   0  0  0  0  0  3  0  0  0  0  0  0
  189.9000  172.3640  135.1070 C   0  0  0  0  0  1  0  0  0  0  0  0
  188.6990  173.2070  134.7200 C   0  0  0  0  0  2  0  0  0  0  0  0
  1  3  2  0  0  0  0
  1  6  1  0  0  0  0
  2  7  1  0  0  0  0
  2  5  1  0  0  0  0
  4  2  2  0  0  0  0
  5  1  1  0  0  0  0
  7  9  2  0  0  0  0
  9  8  2  0  0  0  0
 10 14  1  0  0  0  0
 11 10  2  0  0  0  0
 12 15  2  0  0  0  0
 12 11  1  0  0  0  0
 13  8  1  0  0  0  0
 13 14  2  0  0  0  0
 15 13  1  0  0  0  0
 16 12  1  0  0  0  0
 17 21  1  0  0  0  0
 17 24  1  0  0  0  0
 18 25  2  0  0  0  0
 18 24  1  0  0  0  0
 19 16  2  0  0  0  0
 20 17  1  0  0  0  0
 22 20  2  0  0  0  0
 22 18  1  0  0  0  0
 23 16  1  0  0  0  0
 24 23  2  0  0  0  0
 25 19  1  0  0  0  0
 26  4  1  0  0  0  0
 27 26  1  0  0  0  0
 28 27  1  0  0  0  0
 29 31  1  0  0  0  0
 30 28  1  0  0  0  0
 31 30  1  0  0  0  0
 32 31  2  0  0  0  0
 33 29  1  0  0  0  0
 34 33  1  0  0  0  0
 34 36  1  0  0  0  0
 35 39  2  0  0  0  0
 36 40  1  0  0  0  0
 36 38  2  0  0  0  0
 38 39  1  0  0  0  0
 40 42  2  0  0  0  0
 41 37  1  1  0  0  0
 41 42  1  0  0  0  0
 41 35  1  0  0  0  0
 44 43  1  0  0  0  0
 44 34  1  0  0  0  0
M  END
>  <MODEL>
4

>  <REMARK>
 VINA RESULT:      -9.2      2.244      8.028
  Name = 
  11 active torsions:
  status: ('A' for Active; 'I' for Inactive)
    1  A    between atoms: N_1  and  C_41
    2  A    between atoms: N_2  and  N_12
    3  A    between atoms: N_2  and  C_43
    4  A    between atoms: C_4  and  N_25
    5  A    between atoms: C_5  and  C_24
    6  A    between atoms: N_8  and  C_43
    7  A    between atoms: N_12  and  N_32
    8  A    between atoms: C_15  and  C_22
    9  A    between atoms: C_17  and  N_25
   10  A    between atoms: N_25  and  C_41
   11  A    between atoms: C_30  and  C_31
                            x       y       z     vdW  Elec       q    Type
                         _______ _______ _______ _____ _____    ______ ____

>  <TORSDO>
F 11

$$$$
=
 OpenBabel11042410393D

 44 47  0  0  1  0  0  0  0  0999 V2000
  185.5430  178.6800  146.3320 C   0  0  0  0  0  0  0  0  0  0  0  0
  183.7310  179.1100  144.5760 C   0  0  0  0  0  0  0  0  0  0  0  0
  186.4820  178.5900  145.4980 O   0  0  0  0  0  0  0  0  0  0  0  0
  182.4920  178.8530  144.2870 N   0  0  0  0  0  0  0  0  0  0  0  0
  184.1850  178.8450  145.9090 N   0  0  0  0  0  2  0  0  0  0  0  0
  185.8440  178.5630  147.7840 C   0  0  0  0  0  1  0  0  0  0  0  0
  184.5980  179.7530  143.5660 C   0  0  0  0  0  3  0  0  0  0  0  0
  185.5290  178.4620  141.4970 C   0  0  0  0  0  3  0  0  0  0  0  0
  185.0410  179.1080  142.5240 C   0  0  0  0  0  0  0  0  0  0  0  0
  188.9800  178.2520  139.9840 C   0  0  0  0  0  3  0  0  0  0  0  0
  189.6930  177.8300  141.0610 N   0  0  0  0  0  0  0  0  0  0  0  0
  189.1080  177.6100  142.2730 C   0  0  0  0  0  0  0  0  0  0  0  0
  186.9740  178.2540  141.3260 C   0  0  0  0  0  0  0  0  0  0  0  0
  187.6090  178.4730  140.0960 C   0  0  0  0  0  3  0  0  0  0  0  0
  187.7280  177.8210  142.4160 C   0  0  0  0  0  3  0  0  0  0  0  0
  189.9250  177.1480  143.4150 C   0  0  0  0  0  0  0  0  0  0  0  0
  190.2520  177.3170  147.0800 N   0  0  0  0  0  0  0  0  0  0  0  0
  191.4730  176.2830  145.5610 C   0  0  0  0  0  0  0  0  0  0  0  0
  191.0580  176.3190  143.2040 C   0  0  0  0  0  3  0  0  0  0  0  0
  191.2550  176.6770  147.7190 C   0  0  0  0  0  3  0  0  0  0  0  0
  189.2700  178.0740  147.6770 O   0  0  0  0  0  1  0  0  0  0  0  0
  192.0560  176.0060  146.7860 C   0  0  0  0  0  3  0  0  0  0  0  0
  189.5800  177.5340  144.7290 C   0  0  0  0  0  3  0  0  0  0  0  0
  190.3850  177.0790  145.7720 C   0  0  0  0  0  0  0  0  0  0  0  0
  191.8450  175.8760  144.2820 C   0  0  0  0  0  3  0  0  0  0  0  0
  181.9450  179.1630  143.0350 N   0  0  0  0  0  2  0  0  0  0  0  0
  180.7770  178.5310  142.5780 N   0  0  0  0  0  2  0  0  0  0  0  0
  180.7660  178.5910  141.1200 C   0  0  0  0  0  2  0  0  0  0  0  0
  183.4260  177.2430  138.7370 N   0  0  0  0  0  2  0  0  0  0  0  0
  182.0030  178.0520  140.5730 N   0  0  0  0  0  2  0  0  0  0  0  0
  182.2410  177.9080  139.1740 C   0  0  0  0  0  0  0  0  0  0  0  0
  181.4190  178.3690  138.3360 O   0  0  0  0  0  0  0  0  0  0  0  0
  183.8000  177.1590  137.3350 C   0  0  0  0  0  2  0  0  0  0  0  0
  184.8930  176.2120  137.1780 N   0  0  0  0  0  0  0  0  0  0  0  0
  188.9180  178.0180  136.2050 C   0  0  0  0  0  3  0  0  0  0  0  0
  186.2480  176.6930  137.0680 C   0  0  0  0  0  0  0  0  0  0  0  0
  190.3940  176.1970  135.6910 N   0  0  0  0  0  1  0  0  0  0  0  0
  186.4630  177.9420  136.6130 C   0  0  0  0  0  3  0  0  0  0  0  0
  187.7610  178.6280  136.4610 C   0  0  0  0  0  3  0  0  0  0  0  0
  187.3100  175.8690  137.5930 N   0  0  0  0  0  0  0  0  0  0  0  0
  189.0140  176.5530  135.9680 C   0  0  1  0  0  3  0  0  0  0  0  0
  188.5330  175.7980  137.1610 C   0  0  0  0  0  3  0  0  0  0  0  0
  184.8990  174.1150  135.9110 C   0  0  0  0  0  1  0  0  0  0  0  0
  184.5650  174.7870  137.2300 C   0  0  0  0  0  2  0  0  0  0  0  0
  1  6  1  0  0  0  0
  2  5  1  0  0  0  0
  3  1  2  0  0  0  0
  4  2  2  0  0  0  0
  5  1  1  0  0  0  0
  7  2  1  0  0  0  0
  8  9  2  0  0  0  0
  9  7  2  0  0  0  0
 10 14  2  0  0  0  0
 10 11  1  0  0  0  0
 11 12  2  0  0  0  0
 12 15  1  0  0  0  0
 12 16  1  0  0  0  0
 13  8  1  0  0  0  0
 13 15  2  0  0  0  0
 14 13  1  0  0  0  0
 16 23  1  0  0  0  0
 17 21  1  0  0  0  0
 17 20  1  0  0  0  0
 18 24  1  0  0  0  0
 18 22  1  0  0  0  0
 19 16  2  0  0  0  0
 19 25  1  0  0  0  0
 22 20  2  0  0  0  0
 23 24  2  0  0  0  0
 24 17  1  0  0  0  0
 25 18  2  0  0  0  0
 26  4  1  0  0  0  0
 27 26  1  0  0  0  0
 28 27  1  0  0  0  0
 29 31  1  0  0  0  0
 30 28  1  0  0  0  0
 31 30  1  0  0  0  0
 32 31  2  0  0  0  0
 33 29  1  0  0  0  0
 34 44  1  0  0  0  0
 34 33  1  0  0  0  0
 35 39  2  0  0  0  0
 36 34  1  0  0  0  0
 36 40  1  0  0  0  0
 38 36  2  0  0  0  0
 39 38  1  0  0  0  0
 41 37  1  1  0  0  0
 41 35  1  0  0  0  0
 41 42  1  0  0  0  0
 42 40  2  0  0  0  0
 43 44  1  0  0  0  0
M  END
>  <MODEL>
5

>  <REMARK>
 VINA RESULT:      -9.1      2.639      8.901
  Name = 
  11 active torsions:
  status: ('A' for Active; 'I' for Inactive)
    1  A    between atoms: N_1  and  C_41
    2  A    between atoms: N_2  and  N_12
    3  A    between atoms: N_2  and  C_43
    4  A    between atoms: C_4  and  N_25
    5  A    between atoms: C_5  and  C_24
    6  A    between atoms: N_8  and  C_43
    7  A    between atoms: N_12  and  N_32
    8  A    between atoms: C_15  and  C_22
    9  A    between atoms: C_17  and  N_25
   10  A    between atoms: N_25  and  C_41
   11  A    between atoms: C_30  and  C_31
                            x       y       z     vdW  Elec       q    Type
                         _______ _______ _______ _____ _____    ______ ____

>  <TORSDO>
F 11

$$$$
=
 OpenBabel11042410393D

 44 47  0  0  1  0  0  0  0  0999 V2000
  181.7730  179.9340  139.1720 C   0  0  0  0  0  0  0  0  0  0  0  0
  184.1530  179.0840  139.5800 C   0  0  0  0  0  0  0  0  0  0  0  0
  181.2120  178.8830  139.5840 O   0  0  0  0  0  0  0  0  0  0  0  0
  185.3550  179.1070  139.0910 N   0  0  0  0  0  0  0  0  0  0  0  0
  183.1980  180.0270  139.0770 N   0  0  0  0  0  2  0  0  0  0  0  0
  180.9360  181.0810  138.7310 C   0  0  0  0  0  1  0  0  0  0  0  0
  183.8360  178.1670  140.6950 C   0  0  0  0  0  3  0  0  0  0  0  0
  183.3300  179.0250  143.1080 C   0  0  0  0  0  3  0  0  0  0  0  0
  183.5630  178.6040  141.8920 C   0  0  0  0  0  0  0  0  0  0  0  0
  184.6730  178.4780  146.5930 C   0  0  0  0  0  3  0  0  0  0  0  0
  185.9210  178.0240  146.3050 N   0  0  0  0  0  0  0  0  0  0  0  0
  186.3580  177.8790  145.0210 C   0  0  0  0  0  0  0  0  0  0  0  0
  184.2120  178.6780  144.2320 C   0  0  0  0  0  0  0  0  0  0  0  0
  183.7950  178.8120  145.5630 C   0  0  0  0  0  3  0  0  0  0  0  0
  185.4980  178.2100  143.9630 C   0  0  0  0  0  3  0  0  0  0  0  0
  187.7260  177.3850  144.7580 C   0  0  0  0  0  0  0  0  0  0  0  0
  191.0110  176.7970  146.3180 N   0  0  0  0  0  0  0  0  0  0  0  0
  190.3040  176.4640  144.2540 C   0  0  0  0  0  0  0  0  0  0  0  0
  188.0930  176.9290  143.4650 C   0  0  0  0  0  3  0  0  0  0  0  0
  192.0400  176.2950  145.6020 C   0  0  0  0  0  3  0  0  0  0  0  0
  191.0450  177.1350  147.6510 O   0  0  0  0  0  1  0  0  0  0  0  0
  191.6310  176.0690  144.2820 C   0  0  0  0  0  3  0  0  0  0  0  0
  188.6810  177.3670  145.7990 C   0  0  0  0  0  3  0  0  0  0  0  0
  189.9590  176.9000  145.5000 C   0  0  0  0  0  0  0  0  0  0  0  0
  189.3930  176.4600  143.2020 C   0  0  0  0  0  3  0  0  0  0  0  0
  186.3700  178.2790  139.5860 N   0  0  0  0  0  2  0  0  0  0  0  0
  187.7240  178.6160  139.4240 N   0  0  0  0  0  2  0  0  0  0  0  0
  188.1520  178.1710  138.1020 C   0  0  0  0  0  2  0  0  0  0  0  0
  186.6770  174.8670  136.8860 N   0  0  0  0  0  2  0  0  0  0  0  0
  187.8680  176.7550  137.9190 N   0  0  0  0  0  2  0  0  0  0  0  0
  187.0020  176.2570  136.9000 C   0  0  0  0  0  0  0  0  0  0  0  0
  186.5380  177.0330  136.0220 O   0  0  0  0  0  0  0  0  0  0  0  0
  185.9000  174.2610  135.8170 C   0  0  0  0  0  2  0  0  0  0  0  0
  184.8330  173.4540  136.3890 N   0  0  0  0  0  0  0  0  0  0  0  0
  181.2970  175.2550  138.5470 C   0  0  0  0  0  3  0  0  0  0  0  0
  183.6300  174.0900  136.8650 C   0  0  0  0  0  0  0  0  0  0  0  0
  179.3880  173.9060  138.0060 N   0  0  0  0  0  1  0  0  0  0  0  0
  183.6850  174.8400  137.9820 C   0  0  0  0  0  3  0  0  0  0  0  0
  182.5830  175.5950  138.6090 C   0  0  0  0  0  3  0  0  0  0  0  0
  182.4480  174.0190  136.0420 N   0  0  0  0  0  0  0  0  0  0  0  0
  180.8310  174.0080  137.8850 C   0  0  1  0  0  3  0  0  0  0  0  0
  181.2120  174.0080  136.4430 C   0  0  0  0  0  3  0  0  0  0  0  0
  186.1050  171.6050  135.4060 C   0  0  0  0  0  1  0  0  0  0  0  0
  185.0000  172.0010  136.3680 C   0  0  0  0  0  2  0  0  0  0  0  0
  1  3  2  0  0  0  0
  2  7  1  0  0  0  0
  4  2  2  0  0  0  0
  4 26  1  0  0  0  0
  5  1  1  0  0  0  0
  5  2  1  0  0  0  0
  6  1  1  0  0  0  0
  7  9  2  0  0  0  0
  8 13  1  0  0  0  0
  9  8  2  0  0  0  0
 11 10  1  0  0  0  0
 12 11  2  0  0  0  0
 13 14  1  0  0  0  0
 14 10  2  0  0  0  0
 15 13  2  0  0  0  0
 15 12  1  0  0  0  0
 16 12  1  0  0  0  0
 16 23  1  0  0  0  0
 17 21  1  0  0  0  0
 18 22  1  0  0  0  0
 18 24  1  0  0  0  0
 19 16  2  0  0  0  0
 20 17  1  0  0  0  0
 22 20  2  0  0  0  0
 24 23  2  0  0  0  0
 24 17  1  0  0  0  0
 25 19  1  0  0  0  0
 25 18  2  0  0  0  0
 27 26  1  0  0  0  0
 28 27  1  0  0  0  0
 29 31  1  0  0  0  0
 30 28  1  0  0  0  0
 31 30  1  0  0  0  0
 32 31  2  0  0  0  0
 33 34  1  0  0  0  0
 33 29  1  0  0  0  0
 34 36  1  0  0  0  0
 35 39  2  0  0  0  0
 36 38  2  0  0  0  0
 38 39  1  0  0  0  0
 40 42  2  0  0  0  0
 40 36  1  0  0  0  0
 41 37  1  6  0  0  0
 41 35  1  0  0  0  0
 42 41  1  0  0  0  0
 43 44  1  0  0  0  0
 44 34  1  0  0  0  0
M  END
>  <MODEL>
6

>  <REMARK>
 VINA RESULT:      -9.0      3.023      8.585
  Name = 
  11 active torsions:
  status: ('A' for Active; 'I' for Inactive)
    1  A    between atoms: N_1  and  C_41
    2  A    between atoms: N_2  and  N_12
    3  A    between atoms: N_2  and  C_43
    4  A    between atoms: C_4  and  N_25
    5  A    between atoms: C_5  and  C_24
    6  A    between atoms: N_8  and  C_43
    7  A    between atoms: N_12  and  N_32
    8  A    between atoms: C_15  and  C_22
    9  A    between atoms: C_17  and  N_25
   10  A    between atoms: N_25  and  C_41
   11  A    between atoms: C_30  and  C_31
                            x       y       z     vdW  Elec       q    Type
                         _______ _______ _______ _____ _____    ______ ____

>  <TORSDO>
F 11

$$$$
=
 OpenBabel11042410393D

 44 47  0  0  1  0  0  0  0  0999 V2000
  185.5600  178.6820  146.4010 C   0  0  0  0  0  0  0  0  0  0  0  0
  183.7220  179.1540  144.6820 C   0  0  0  0  0  0  0  0  0  0  0  0
  186.4830  178.5890  145.5480 O   0  0  0  0  0  0  0  0  0  0  0  0
  182.4750  178.9170  144.4140 N   0  0  0  0  0  0  0  0  0  0  0  0
  184.1980  178.8690  146.0040 N   0  0  0  0  0  2  0  0  0  0  0  0
  185.8870  178.5460  147.8450 C   0  0  0  0  0  1  0  0  0  0  0  0
  184.5790  179.7970  143.6640 C   0  0  0  0  0  3  0  0  0  0  0  0
  185.3820  178.5430  141.5200 C   0  0  0  0  0  3  0  0  0  0  0  0
  184.9580  179.1710  142.5850 C   0  0  0  0  0  0  0  0  0  0  0  0
  188.7510  178.1790  139.8580 C   0  0  0  0  0  3  0  0  0  0  0  0
  189.5000  177.7630  140.9130 N   0  0  0  0  0  0  0  0  0  0  0  0
  188.9650  177.5950  142.1550 C   0  0  0  0  0  0  0  0  0  0  0  0
  186.8100  178.2830  141.2890 C   0  0  0  0  0  0  0  0  0  0  0  0
  187.3940  178.4470  140.0260 C   0  0  0  0  0  3  0  0  0  0  0  0
  187.6010  177.8550  142.3550 C   0  0  0  0  0  3  0  0  0  0  0  0
  189.8190  177.1370  143.2710 C   0  0  0  0  0  0  0  0  0  0  0  0
  190.2390  177.2800  146.9280 N   0  0  0  0  0  0  0  0  0  0  0  0
  191.4380  176.2800  145.3690 C   0  0  0  0  0  0  0  0  0  0  0  0
  190.9600  176.3290  143.0240 C   0  0  0  0  0  3  0  0  0  0  0  0
  191.2690  176.6520  147.5350 C   0  0  0  0  0  3  0  0  0  0  0  0
  189.2610  178.0150  147.5570 O   0  0  0  0  0  1  0  0  0  0  0  0
  192.0560  176.0020  146.5760 C   0  0  0  0  0  3  0  0  0  0  0  0
  189.5030  177.5050  144.5980 C   0  0  0  0  0  3  0  0  0  0  0  0
  190.3420  177.0550  145.6150 C   0  0  0  0  0  0  0  0  0  0  0  0
  191.7820  175.8900  144.0770 C   0  0  0  0  0  3  0  0  0  0  0  0
  181.9100  179.2470  143.1760 N   0  0  0  0  0  2  0  0  0  0  0  0
  180.5230  179.1700  142.9680 N   0  0  0  0  0  2  0  0  0  0  0  0
  180.2640  179.3280  141.5410 C   0  0  0  0  0  2  0  0  0  0  0  0
  182.5350  176.9470  139.6060 N   0  0  0  0  0  2  0  0  0  0  0  0
  181.3600  178.7760  140.7560 N   0  0  0  0  0  2  0  0  0  0  0  0
  181.3600  177.4440  140.2460 C   0  0  0  0  0  0  0  0  0  0  0  0
  180.3330  176.7190  140.3520 O   0  0  0  0  0  0  0  0  0  0  0  0
  182.5780  175.6460  138.9570 C   0  0  0  0  0  2  0  0  0  0  0  0
  183.1150  175.7900  137.6130 N   0  0  0  0  0  0  0  0  0  0  0  0
  186.7810  173.2040  137.0840 C   0  0  0  0  0  3  0  0  0  0  0  0
  184.2770  175.0320  137.2210 C   0  0  0  0  0  0  0  0  0  0  0  0
  188.6280  174.6840  136.6870 N   0  0  0  0  0  1  0  0  0  0  0  0
  184.4460  173.7900  137.7150 C   0  0  0  0  0  3  0  0  0  0  0  0
  185.5410  172.8480  137.4140 C   0  0  0  0  0  3  0  0  0  0  0  0
  185.1350  175.5780  136.1980 N   0  0  0  0  0  0  0  0  0  0  0  0
  187.2250  174.6230  137.0550 C   0  0  1  0  0  3  0  0  0  0  0  0
  186.4170  175.4030  136.0740 C   0  0  0  0  0  3  0  0  0  0  0  0
  181.2680  175.8660  136.0050 C   0  0  0  0  0  1  0  0  0  0  0  0
  182.3810  176.6450  136.6810 C   0  0  0  0  0  2  0  0  0  0  0  0
  1  6  1  0  0  0  0
  2  5  1  0  0  0  0
  3  1  2  0  0  0  0
  4  2  2  0  0  0  0
  5  1  1  0  0  0  0
  7  2  1  0  0  0  0
  8  9  2  0  0  0  0
  9  7  2  0  0  0  0
 10 14  2  0  0  0  0
 10 11  1  0  0  0  0
 11 12  2  0  0  0  0
 12 15  1  0  0  0  0
 12 16  1  0  0  0  0
 13  8  1  0  0  0  0
 13 15  2  0  0  0  0
 14 13  1  0  0  0  0
 16 23  1  0  0  0  0
 17 20  1  0  0  0  0
 17 21  1  0  0  0  0
 18 24  1  0  0  0  0
 18 22  1  0  0  0  0
 19 16  2  0  0  0  0
 19 25  1  0  0  0  0
 22 20  2  0  0  0  0
 23 24  2  0  0  0  0
 24 17  1  0  0  0  0
 25 18  2  0  0  0  0
 26  4  1  0  0  0  0
 27 26  1  0  0  0  0
 28 27  1  0  0  0  0
 29 31  1  0  0  0  0
 30 28  1  0  0  0  0
 31 32  2  0  0  0  0
 31 30  1  0  0  0  0
 33 29  1  0  0  0  0
 34 33  1  0  0  0  0
 35 39  2  0  0  0  0
 36 34  1  0  0  0  0
 36 38  2  0  0  0  0
 39 38  1  0  0  0  0
 40 36  1  0  0  0  0
 41 37  1  6  0  0  0
 41 35  1  0  0  0  0
 42 40  2  0  0  0  0
 42 41  1  0  0  0  0
 43 44  1  0  0  0  0
 44 34  1  0  0  0  0
M  END
>  <MODEL>
7

>  <REMARK>
 VINA RESULT:      -8.9      2.803      9.172
  Name = 
  11 active torsions:
  status: ('A' for Active; 'I' for Inactive)
    1  A    between atoms: N_1  and  C_41
    2  A    between atoms: N_2  and  N_12
    3  A    between atoms: N_2  and  C_43
    4  A    between atoms: C_4  and  N_25
    5  A    between atoms: C_5  and  C_24
    6  A    between atoms: N_8  and  C_43
    7  A    between atoms: N_12  and  N_32
    8  A    between atoms: C_15  and  C_22
    9  A    between atoms: C_17  and  N_25
   10  A    between atoms: N_25  and  C_41
   11  A    between atoms: C_30  and  C_31
                            x       y       z     vdW  Elec       q    Type
                         _______ _______ _______ _____ _____    ______ ____

>  <TORSDO>
F 11

$$$$
=
 OpenBabel11042410393D

 44 47  0  0  1  0  0  0  0  0999 V2000
  188.5570  177.7140  147.9500 C   0  0  0  0  0  0  0  0  0  0  0  0
  186.3230  178.2230  146.8080 C   0  0  0  0  0  0  0  0  0  0  0  0
  188.6220  176.5270  147.5330 O   0  0  0  0  0  0  0  0  0  0  0  0
  185.2060  178.8640  146.9660 N   0  0  0  0  0  0  0  0  0  0  0  0
  187.4120  178.5320  147.6870 N   0  0  0  0  0  2  0  0  0  0  0  0
  189.6690  178.2590  148.7730 C   0  0  0  0  0  1  0  0  0  0  0  0
  186.4710  177.2800  145.6790 C   0  0  0  0  0  3  0  0  0  0  0  0
  188.3570  177.5260  143.8910 C   0  0  0  0  0  3  0  0  0  0  0  0
  187.4280  177.3970  144.8020 C   0  0  0  0  0  0  0  0  0  0  0  0
  186.5780  178.6620  140.7620 C   0  0  0  0  0  3  0  0  0  0  0  0
  187.4610  178.2500  139.8150 N   0  0  0  0  0  0  0  0  0  0  0  0
  188.6240  177.6160  140.1410 C   0  0  0  0  0  0  0  0  0  0  0  0
  188.0300  177.7910  142.4820 C   0  0  0  0  0  0  0  0  0  0  0  0
  186.8460  178.4430  142.1120 C   0  0  0  0  0  3  0  0  0  0  0  0
  188.9200  177.3780  141.4920 C   0  0  0  0  0  3  0  0  0  0  0  0
  189.5520  177.1810  139.0750 C   0  0  0  0  0  0  0  0  0  0  0  0
  193.1000  176.5340  138.3240 N   0  0  0  0  0  0  0  0  0  0  0  0
  191.2970  176.3740  137.0620 C   0  0  0  0  0  0  0  0  0  0  0  0
  189.0650  176.8540  137.7830 C   0  0  0  0  0  3  0  0  0  0  0  0
  193.4870  176.1250  137.0970 C   0  0  0  0  0  3  0  0  0  0  0  0
  193.9290  176.7500  139.4000 O   0  0  0  0  0  1  0  0  0  0  0  0
  192.3670  176.0100  136.2630 C   0  0  0  0  0  3  0  0  0  0  0  0
  190.9370  177.0930  139.3400 C   0  0  0  0  0  3  0  0  0  0  0  0
  191.7720  176.6860  138.3030 C   0  0  0  0  0  0  0  0  0  0  0  0
  189.9400  176.4430  136.7600 C   0  0  0  0  0  3  0  0  0  0  0  0
  184.1220  178.6840  146.0970 N   0  0  0  0  0  2  0  0  0  0  0  0
  183.9690  179.4860  144.9530 N   0  0  0  0  0  2  0  0  0  0  0  0
  182.8690  178.9450  144.1600 C   0  0  0  0  0  2  0  0  0  0  0  0
  182.9340  178.1840  140.4200 N   0  0  0  0  0  2  0  0  0  0  0  0
  183.3130  178.6390  142.8080 N   0  0  0  0  0  2  0  0  0  0  0  0
  182.4370  178.6300  141.6820 C   0  0  0  0  0  0  0  0  0  0  0  0
  181.2430  179.0180  141.7980 O   0  0  0  0  0  0  0  0  0  0  0  0
  182.1440  178.2540  139.2020 C   0  0  0  0  0  2  0  0  0  0  0  0
  182.0960  176.9420  138.5750 N   0  0  0  0  0  0  0  0  0  0  0  0
  185.7290  175.6480  136.2230 C   0  0  0  0  0  3  0  0  0  0  0  0
  183.2920  176.3800  138.0000 C   0  0  0  0  0  0  0  0  0  0  0  0
  185.2850  173.4320  135.4160 N   0  0  0  0  0  1  0  0  0  0  0  0
  184.1770  177.1990  137.3990 C   0  0  0  0  0  3  0  0  0  0  0  0
  185.4660  176.8270  136.7840 C   0  0  0  0  0  3  0  0  0  0  0  0
  183.5650  174.9810  138.2230 N   0  0  0  0  0  0  0  0  0  0  0  0
  184.7040  174.5800  136.0890 C   0  0  1  0  0  3  0  0  0  0  0  0
  184.1980  174.1690  137.4310 C   0  0  0  0  0  3  0  0  0  0  0  0
  179.7420  177.0770  139.2380 C   0  0  0  0  0  1  0  0  0  0  0  0
  180.8330  176.2080  138.6410 C   0  0  0  0  0  2  0  0  0  0  0  0
  1  6  1  0  0  0  0
  2  4  2  0  0  0  0
  2  5  1  0  0  0  0
  3  1  2  0  0  0  0
  5  1  1  0  0  0  0
  7  2  1  0  0  0  0
  8  9  2  0  0  0  0
  9  7  2  0  0  0  0
 10 14  1  0  0  0  0
 11 12  1  0  0  0  0
 11 10  2  0  0  0  0
 12 15  2  0  0  0  0
 13  8  1  0  0  0  0
 14 13  2  0  0  0  0
 15 13  1  0  0  0  0
 16 23  1  0  0  0  0
 16 12  1  0  0  0  0
 17 21  1  0  0  0  0
 18 24  1  0  0  0  0
 19 16  2  0  0  0  0
 20 17  1  0  0  0  0
 22 18  1  0  0  0  0
 22 20  2  0  0  0  0
 24 17  1  0  0  0  0
 24 23  2  0  0  0  0
 25 18  2  0  0  0  0
 25 19  1  0  0  0  0
 26  4  1  0  0  0  0
 27 26  1  0  0  0  0
 28 27  1  0  0  0  0
 29 31  1  0  0  0  0
 30 28  1  0  0  0  0
 31 32  2  0  0  0  0
 31 30  1  0  0  0  0
 33 29  1  0  0  0  0
 34 44  1  0  0  0  0
 34 33  1  0  0  0  0
 35 39  2  0  0  0  0
 36 40  1  0  0  0  0
 36 34  1  0  0  0  0
 38 36  2  0  0  0  0
 39 38  1  0  0  0  0
 41 37  1  1  0  0  0
 41 35  1  0  0  0  0
 41 42  1  0  0  0  0
 42 40  2  0  0  0  0
 44 43  1  0  0  0  0
M  END
>  <MODEL>
8

>  <REMARK>
 VINA RESULT:      -8.9      2.592      9.780
  Name = 
  11 active torsions:
  status: ('A' for Active; 'I' for Inactive)
    1  A    between atoms: N_1  and  C_41
    2  A    between atoms: N_2  and  N_12
    3  A    between atoms: N_2  and  C_43
    4  A    between atoms: C_4  and  N_25
    5  A    between atoms: C_5  and  C_24
    6  A    between atoms: N_8  and  C_43
    7  A    between atoms: N_12  and  N_32
    8  A    between atoms: C_15  and  C_22
    9  A    between atoms: C_17  and  N_25
   10  A    between atoms: N_25  and  C_41
   11  A    between atoms: C_30  and  C_31
                            x       y       z     vdW  Elec       q    Type
                         _______ _______ _______ _____ _____    ______ ____

>  <TORSDO>
F 11

$$$$
=
 OpenBabel11042410393D

 44 47  0  0  1  0  0  0  0  0999 V2000
  191.7950  176.3270  147.0160 C   0  0  0  0  0  0  0  0  0  0  0  0
  190.6450  176.8430  144.7880 C   0  0  0  0  0  0  0  0  0  0  0  0
  191.6830  177.4980  147.4680 O   0  0  0  0  0  0  0  0  0  0  0  0
  190.6800  176.5660  143.5210 N   0  0  0  0  0  0  0  0  0  0  0  0
  191.3790  176.0010  145.6860 N   0  0  0  0  0  2  0  0  0  0  0  0
  192.4160  175.2750  147.8640 C   0  0  0  0  0  1  0  0  0  0  0  0
  189.7800  177.9390  145.2730 C   0  0  0  0  0  3  0  0  0  0  0  0
  187.4770  177.4990  146.4210 C   0  0  0  0  0  3  0  0  0  0  0  0
  188.6410  177.7110  145.8650 C   0  0  0  0  0  0  0  0  0  0  0  0
  183.9720  178.8160  145.9440 C   0  0  0  0  0  3  0  0  0  0  0  0
  183.8930  178.8130  144.5870 N   0  0  0  0  0  0  0  0  0  0  0  0
  184.9320  178.4030  143.8050 C   0  0  0  0  0  0  0  0  0  0  0  0
  186.2270  177.9630  145.8040 C   0  0  0  0  0  0  0  0  0  0  0  0
  185.1390  178.3940  146.5780 C   0  0  0  0  0  3  0  0  0  0  0  0
  186.1190  177.9690  144.4140 C   0  0  0  0  0  3  0  0  0  0  0  0
  184.7960  178.4130  142.3330 C   0  0  0  0  0  0  0  0  0  0  0  0
  186.7080  178.5370  139.1870 N   0  0  0  0  0  0  0  0  0  0  0  0
  184.5360  178.4430  139.5610 C   0  0  0  0  0  0  0  0  0  0  0  0
  183.5150  178.3690  141.7250 C   0  0  0  0  0  3  0  0  0  0  0  0
  186.0800  178.5310  137.9910 C   0  0  0  0  0  3  0  0  0  0  0  0
  188.0690  178.5850  139.3820 O   0  0  0  0  0  1  0  0  0  0  0  0
  184.6950  178.4710  138.1860 C   0  0  0  0  0  3  0  0  0  0  0  0
  185.9500  178.4700  141.5200 C   0  0  0  0  0  3  0  0  0  0  0  0
  185.7720  178.4840  140.1380 C   0  0  0  0  0  0  0  0  0  0  0  0
  183.3740  178.3820  140.3250 C   0  0  0  0  0  3  0  0  0  0  0  0
  189.9220  177.2850  142.5860 N   0  0  0  0  0  2  0  0  0  0  0  0
  190.5360  178.1630  141.6780 N   0  0  0  0  0  2  0  0  0  0  0  0
  191.6570  177.4670  141.0550 C   0  0  0  0  0  2  0  0  0  0  0  0
  191.6520  176.2270  137.4450 N   0  0  0  0  0  2  0  0  0  0  0  0
  191.2580  176.8830  139.7830 N   0  0  0  0  0  2  0  0  0  0  0  0
  192.1630  176.6780  138.6990 C   0  0  0  0  0  0  0  0  0  0  0  0
  193.3980  176.8850  138.8510 O   0  0  0  0  0  0  0  0  0  0  0  0
  192.5180  175.8830  136.3300 C   0  0  0  0  0  2  0  0  0  0  0  0
  192.8960  174.4810  136.4200 N   0  0  0  0  0  0  0  0  0  0  0  0
  197.1750  173.4300  137.4180 C   0  0  0  0  0  3  0  0  0  0  0  0
  194.2890  174.1190  136.5090 C   0  0  0  0  0  0  0  0  0  0  0  0
  198.5410  175.2310  136.6130 N   0  0  0  0  0  1  0  0  0  0  0  0
  194.6900  173.3010  137.5000 C   0  0  0  0  0  3  0  0  0  0  0  0
  196.0530  172.7890  137.7420 C   0  0  0  0  0  3  0  0  0  0  0  0
  195.1700  174.5280  135.4420 N   0  0  0  0  0  0  0  0  0  0  0  0
  197.1740  174.7960  136.8290 C   0  0  1  0  0  3  0  0  0  0  0  0
  196.4360  174.8060  135.5330 C   0  0  0  0  0  3  0  0  0  0  0  0
  191.8670  172.5450  135.3270 C   0  0  0  0  0  1  0  0  0  0  0  0
  191.8190  173.4960  136.5090 C   0  0  0  0  0  2  0  0  0  0  0  0
  1  3  2  0  0  0  0
  1  6  1  0  0  0  0
  2  7  1  0  0  0  0
  2  5  1  0  0  0  0
  4  2  2  0  0  0  0
  5  1  1  0  0  0  0
  7  9  2  0  0  0  0
  9  8  2  0  0  0  0
 10 14  1  0  0  0  0
 11 10  2  0  0  0  0
 12 15  2  0  0  0  0
 12 11  1  0  0  0  0
 13  8  1  0  0  0  0
 13 14  2  0  0  0  0
 15 13  1  0  0  0  0
 16 12  1  0  0  0  0
 17 21  1  0  0  0  0
 17 24  1  0  0  0  0
 18 24  2  0  0  0  0
 18 25  1  0  0  0  0
 19 16  1  0  0  0  0
 20 22  2  0  0  0  0
 20 17  1  0  0  0  0
 22 18  1  0  0  0  0
 23 16  2  0  0  0  0
 24 23  1  0  0  0  0
 25 19  2  0  0  0  0
 26  4  1  0  0  0  0
 27 26  1  0  0  0  0
 28 27  1  0  0  0  0
 29 31  1  0  0  0  0
 30 28  1  0  0  0  0
 31 32  2  0  0  0  0
 31 30  1  0  0  0  0
 33 34  1  0  0  0  0
 33 29  1  0  0  0  0
 34 44  1  0  0  0  0
 34 36  1  0  0  0  0
 35 39  2  0  0  0  0
 36 38  2  0  0  0  0
 38 39  1  0  0  0  0
 40 42  2  0  0  0  0
 40 36  1  0  0  0  0
 41 37  1  6  0  0  0
 41 35  1  0  0  0  0
 42 41  1  0  0  0  0
 43 44  1  0  0  0  0
M  END
>  <MODEL>
9

>  <REMARK>
 VINA RESULT:      -8.9      3.365      8.796
  Name = 
  11 active torsions:
  status: ('A' for Active; 'I' for Inactive)
    1  A    between atoms: N_1  and  C_41
    2  A    between atoms: N_2  and  N_12
    3  A    between atoms: N_2  and  C_43
    4  A    between atoms: C_4  and  N_25
    5  A    between atoms: C_5  and  C_24
    6  A    between atoms: N_8  and  C_43
    7  A    between atoms: N_12  and  N_32
    8  A    between atoms: C_15  and  C_22
    9  A    between atoms: C_17  and  N_25
   10  A    between atoms: N_25  and  C_41
   11  A    between atoms: C_30  and  C_31
                            x       y       z     vdW  Elec       q    Type
                         _______ _______ _______ _____ _____    ______ ____

>  <TORSDO>
F 11

$$$$
