=
 OpenBabel11042410373D

 44 50  0  0  1  0  0  0  0  0999 V2000
  189.0540  177.5400  141.5300 C   0  0  0  0  0  0  0  0  0  0  0  0
  192.2500  176.1300  135.6980 C   0  0  0  0  0  0  0  0  0  0  0  0
  188.8930  177.5490  138.3180 C   0  0  0  0  0  0  0  0  0  0  0  0
  188.2370  178.3320  140.7250 C   0  0  0  0  0  3  0  0  0  0  0  0
  188.5770  177.2610  137.0550 N   0  0  0  0  0  0  0  0  0  0  0  0
  189.9740  176.7800  135.0640 C   0  0  0  0  0  3  0  0  0  0  0  0
  189.7250  177.0020  136.4830 C   0  0  0  0  0  0  0  0  0  0  0  0
  190.0820  177.0030  138.5510 C   0  0  0  0  0  0  0  0  0  0  0  0
  191.9820  176.2960  137.1150 C   0  0  0  0  0  3  0  0  0  0  0  0
  190.1500  176.4420  141.0570 C   0  0  0  0  0  2  0  0  0  0  0  0
  190.6990  176.7560  137.4300 C   0  0  0  0  0  0  0  0  0  0  0  0
  188.1140  178.1990  139.0900 C   0  0  0  0  0  3  0  0  0  0  0  0
  191.2360  176.3850  134.7020 C   0  0  0  0  0  3  0  0  0  0  0  0
  190.5580  176.3820  139.5730 C   0  0  0  0  0  3  0  0  0  0  0  0
  195.6490  175.4970  136.3910 O   0  0  0  0  0  0  0  0  0  0  0  0
  194.9500  177.5950  135.4740 N   0  0  0  0  0  1  0  0  0  0  0  0
  194.7910  176.1570  135.6890 C   0  0  0  0  0  0  0  0  0  0  0  0
  193.5120  175.5640  135.2460 N   0  0  0  0  0  2  0  0  0  0  0  0
  188.8680  177.4020  142.9380 C   0  0  0  0  0  0  0  0  0  0  0  0
  187.8020  176.8730  143.4010 O   0  0  0  0  0  0  0  0  0  0  0  0
  189.9340  178.0070  143.7830 N   0  0  0  0  0  2  0  0  0  0  0  0
  190.8840  176.6710  147.6630 C   0  0  0  0  0  3  0  0  0  0  0  0
  189.6120  177.1730  147.4380 C   0  0  0  0  0  3  0  0  0  0  0  0
  188.1050  178.3600  146.0110 F   0  0  0  0  0  0  0  0  0  0  0  0
  189.3380  177.8480  146.2580 C   0  0  0  0  0  0  0  0  0  0  0  0
  190.2430  177.6950  145.1750 C   0  0  0  0  0  0  0  0  0  0  0  0
  191.4830  177.1020  145.3890 C   0  0  0  0  0  3  0  0  0  0  0  0
  191.7350  176.4260  146.5640 C   0  0  0  0  0  3  0  0  0  0  0  0
  187.5230  176.3940  136.6670 C   0  0  0  0  0  2  0  0  0  0  0  0
  186.3430  177.0520  136.1130 C   0  0  0  0  0  2  0  0  0  0  0  0
  185.3410  177.5110  137.1340 N   0  0  0  0  0  2  0  0  0  0  0  0
  183.8890  177.1290  137.0060 C   0  0  0  0  0  2  0  0  0  0  0  0
  181.8150  177.4100  138.6970 C   0  0  0  0  0  3  0  0  0  0  0  0
  184.6130  178.9610  141.7190 C   0  0  0  0  0  2  0  0  0  0  0  0
  181.4370  177.8580  140.0090 C   0  0  0  0  0  3  0  0  0  0  0  0
  183.8030  178.2570  140.6030 C   0  0  0  0  0  0  0  0  0  0  0  0
  184.2630  177.9600  139.3810 C   0  0  0  0  0  3  0  0  0  0  0  0
  182.3710  178.8600  142.2390 C   0  0  0  0  0  2  0  0  0  0  0  0
  183.6770  178.7440  142.8110 N   0  0  2  0  0  0  0  0  0  0  0  0
  182.4700  178.2610  140.9060 C   0  0  0  0  0  0  0  0  0  0  0  0
  183.2880  177.4900  138.3770 C   0  0  0  0  0  0  0  0  0  0  0  0
  185.2010  179.0480  144.5900 C   0  0  0  0  0  2  0  0  0  0  0  0
  184.0770  179.6240  143.9130 C   0  0  0  0  0  3  0  0  0  0  0  0
  183.9270  178.7030  145.2820 C   0  0  0  0  0  2  0  0  0  0  0  0
  1 19  1  0  0  0  0
  2  9  1  0  0  0  0
  3  8  1  0  0  0  0
  3 12  2  0  0  0  0
  4  1  2  0  0  0  0
  5  3  1  0  0  0  0
  6  7  2  0  0  0  0
  7  5  1  0  0  0  0
  7 11  1  0  0  0  0
  8 14  2  0  0  0  0
  9 11  2  0  0  0  0
 10  1  1  0  0  0  0
 11  8  1  0  0  0  0
 12  4  1  0  0  0  0
 13  6  1  0  0  0  0
 13  2  2  0  0  0  0
 14 10  1  0  0  0  0
 16 17  1  0  0  0  0
 17 15  2  0  0  0  0
 18 17  1  0  0  0  0
 18  2  1  0  0  0  0
 19 20  2  0  0  0  0
 19 21  1  0  0  0  0
 21 26  1  0  0  0  0
 23 22  1  0  0  0  0
 24 25  1  0  0  0  0
 25 23  2  0  0  0  0
 26 27  2  0  0  0  0
 26 25  1  0  0  0  0
 27 28  1  0  0  0  0
 28 22  2  0  0  0  0
 29  5  1  0  0  0  0
 30 29  1  0  0  0  0
 30 31  1  0  0  0  0
 32 31  1  0  0  0  0
 32 41  1  0  0  0  0
 33 35  1  0  0  0  0
 34 39  1  0  0  0  0
 35 40  2  0  0  0  0
 36 40  1  0  0  0  0
 36 34  1  0  0  0  0
 37 36  2  0  0  0  0
 38 39  1  0  0  0  0
 39 43  1  1  0  0  0
 40 38  1  0  0  0  0
 41 33  2  0  0  0  0
 41 37  1  0  0  0  0
 42 44  1  0  0  0  0
 43 42  1  0  0  0  0
 43 44  1  0  0  0  0
M  END
>  <MODEL>
1

>  <REMARK>
 VINA RESULT:      -9.5      0.000      0.000
  Name = 
  9 active torsions:
  status: ('A' for Active; 'I' for Inactive)
    1  A    between atoms: C_1  and  C_7
    2  A    between atoms: C_2  and  N_44
    3  A    between atoms: C_10  and  N_35
    4  A    between atoms: N_11  and  C_43
    5  A    between atoms: N_19  and  C_24
    6  A    between atoms: N_19  and  C_26
    7  A    between atoms: C_24  and  C_37
    8  A    between atoms: C_25  and  N_42
    9  A    between atoms: C_26  and  C_43
                            x       y       z     vdW  Elec       q    Type
                         _______ _______ _______ _____ _____    ______ ____

>  <TORSDO>
F 9

$$$$
=
 OpenBabel11042410373D

 44 50  0  0  1  0  0  0  0  0999 V2000
  189.8260  178.0220  141.8660 C   0  0  0  0  0  0  0  0  0  0  0  0
  192.3810  175.9180  135.9290 C   0  0  0  0  0  0  0  0  0  0  0  0
  189.2170  177.3150  138.7880 C   0  0  0  0  0  0  0  0  0  0  0  0
  188.7670  178.4820  141.0840 C   0  0  0  0  0  3  0  0  0  0  0  0
  188.7870  176.7150  137.6770 N   0  0  0  0  0  0  0  0  0  0  0  0
  189.9570  176.0470  135.5960 C   0  0  0  0  0  3  0  0  0  0  0  0
  189.8710  176.5250  136.9700 C   0  0  0  0  0  0  0  0  0  0  0  0
  190.5090  177.0270  138.9060 C   0  0  0  0  0  0  0  0  0  0  0  0
  192.2880  176.3390  137.3140 C   0  0  0  0  0  3  0  0  0  0  0  0
  191.0340  177.0370  141.4200 C   0  0  0  0  0  2  0  0  0  0  0  0
  190.9980  176.6470  137.7590 C   0  0  0  0  0  0  0  0  0  0  0  0
  188.4440  177.9830  139.5510 C   0  0  0  0  0  3  0  0  0  0  0  0
  191.2080  175.7880  135.0970 C   0  0  0  0  0  3  0  0  0  0  0  0
  191.2340  176.7240  139.9250 C   0  0  0  0  0  3  0  0  0  0  0  0
  195.8660  175.5910  136.3580 O   0  0  0  0  0  0  0  0  0  0  0  0
  194.9130  177.6280  135.5360 N   0  0  0  0  0  1  0  0  0  0  0  0
  194.9020  176.1790  135.7340 C   0  0  0  0  0  0  0  0  0  0  0  0
  193.6520  175.4760  135.3740 N   0  0  0  0  0  2  0  0  0  0  0  0
  189.8690  178.1620  143.2850 C   0  0  0  0  0  0  0  0  0  0  0  0
  190.5690  179.0840  143.8240 O   0  0  0  0  0  0  0  0  0  0  0  0
  189.1440  177.1100  144.0500 N   0  0  0  0  0  2  0  0  0  0  0  0
  187.6560  177.7730  147.9350 C   0  0  0  0  0  3  0  0  0  0  0  0
  189.0040  177.4870  147.7920 C   0  0  0  0  0  3  0  0  0  0  0  0
  190.7960  176.7190  146.4070 F   0  0  0  0  0  0  0  0  0  0  0  0
  189.4830  177.0190  146.5770 C   0  0  0  0  0  0  0  0  0  0  0  0
  188.6670  177.1880  145.4270 C   0  0  0  0  0  0  0  0  0  0  0  0
  187.3370  177.5700  145.5730 C   0  0  0  0  0  3  0  0  0  0  0  0
  186.8810  178.0430  146.7860 C   0  0  0  0  0  3  0  0  0  0  0  0
  187.8750  175.6290  137.6500 C   0  0  0  0  0  2  0  0  0  0  0  0
  186.6440  175.8630  136.9000 C   0  0  0  0  0  2  0  0  0  0  0  0
  185.8280  177.0300  137.3770 N   0  0  0  0  0  2  0  0  0  0  0  0
  184.4420  177.2660  136.8350 C   0  0  0  0  0  2  0  0  0  0  0  0
  182.1020  177.3270  138.1600 C   0  0  0  0  0  3  0  0  0  0  0  0
  184.2150  179.0390  141.6200 C   0  0  0  0  0  2  0  0  0  0  0  0
  181.4740  177.7080  139.3960 C   0  0  0  0  0  3  0  0  0  0  0  0
  183.6650  178.2950  140.3780 C   0  0  0  0  0  0  0  0  0  0  0  0
  184.3450  178.0680  139.2470 C   0  0  0  0  0  3  0  0  0  0  0  0
  181.9360  178.7320  141.7600 C   0  0  0  0  0  2  0  0  0  0  0  0
  183.1360  178.7160  142.5400 N   0  0  2  0  0  0  0  0  0  0  0  0
  182.3050  178.1770  140.4560 C   0  0  0  0  0  0  0  0  0  0  0  0
  183.5940  177.5400  138.0900 C   0  0  0  0  0  0  0  0  0  0  0  0
  184.6220  179.5550  144.1730 C   0  0  0  0  0  2  0  0  0  0  0  0
  183.2690  179.6000  143.7010 C   0  0  0  0  0  3  0  0  0  0  0  0
  183.7560  178.6170  144.9420 C   0  0  0  0  0  2  0  0  0  0  0  0
  1 19  1  0  0  0  0
  2  9  1  0  0  0  0
  3  8  1  0  0  0  0
  3 12  2  0  0  0  0
  4  1  2  0  0  0  0
  5  3  1  0  0  0  0
  6  7  2  0  0  0  0
  7  5  1  0  0  0  0
  7 11  1  0  0  0  0
  8 14  2  0  0  0  0
  9 11  2  0  0  0  0
 10  1  1  0  0  0  0
 11  8  1  0  0  0  0
 12  4  1  0  0  0  0
 13  6  1  0  0  0  0
 13  2  2  0  0  0  0
 14 10  1  0  0  0  0
 16 17  1  0  0  0  0
 17 15  2  0  0  0  0
 18 17  1  0  0  0  0
 18  2  1  0  0  0  0
 19 20  2  0  0  0  0
 19 21  1  0  0  0  0
 21 26  1  0  0  0  0
 23 22  1  0  0  0  0
 24 25  1  0  0  0  0
 25 23  2  0  0  0  0
 26 27  2  0  0  0  0
 26 25  1  0  0  0  0
 27 28  1  0  0  0  0
 28 22  2  0  0  0  0
 29  5  1  0  0  0  0
 30 31  1  0  0  0  0
 30 29  1  0  0  0  0
 32 31  1  0  0  0  0
 32 41  1  0  0  0  0
 33 35  1  0  0  0  0
 34 39  1  0  0  0  0
 35 40  2  0  0  0  0
 36 40  1  0  0  0  0
 36 34  1  0  0  0  0
 37 36  2  0  0  0  0
 38 39  1  0  0  0  0
 39 43  1  1  0  0  0
 40 38  1  0  0  0  0
 41 33  2  0  0  0  0
 41 37  1  0  0  0  0
 42 44  1  0  0  0  0
 43 42  1  0  0  0  0
 43 44  1  0  0  0  0
M  END
>  <MODEL>
2

>  <REMARK>
 VINA RESULT:      -9.5      1.163      1.520
  Name = 
  9 active torsions:
  status: ('A' for Active; 'I' for Inactive)
    1  A    between atoms: C_1  and  C_7
    2  A    between atoms: C_2  and  N_44
    3  A    between atoms: C_10  and  N_35
    4  A    between atoms: N_11  and  C_43
    5  A    between atoms: N_19  and  C_24
    6  A    between atoms: N_19  and  C_26
    7  A    between atoms: C_24  and  C_37
    8  A    between atoms: C_25  and  N_42
    9  A    between atoms: C_26  and  C_43
                            x       y       z     vdW  Elec       q    Type
                         _______ _______ _______ _____ _____    ______ ____

>  <TORSDO>
F 9

$$$$
=
 OpenBabel11042410373D

 44 50  0  0  1  0  0  0  0  0999 V2000
  185.1760  178.4360  141.9170 C   0  0  0  0  0  0  0  0  0  0  0  0
  190.4590  177.2070  146.0140 C   0  0  0  0  0  0  0  0  0  0  0  0
  188.3710  178.1530  142.1560 C   0  0  0  0  0  0  0  0  0  0  0  0
  186.1410  178.9860  141.0740 C   0  0  0  0  0  3  0  0  0  0  0  0
  189.6240  177.7070  142.0570 N   0  0  0  0  0  0  0  0  0  0  0  0
  191.3950  177.3480  143.7540 C   0  0  0  0  0  3  0  0  0  0  0  0
  190.0410  177.6300  143.2940 C   0  0  0  0  0  0  0  0  0  0  0  0
  187.9570  177.8690  143.3860 C   0  0  0  0  0  0  0  0  0  0  0  0
  189.1040  177.4310  145.5470 C   0  0  0  0  0  3  0  0  0  0  0  0
  185.4140  177.5380  143.2460 C   0  0  0  0  0  2  0  0  0  0  0  0
  188.9760  177.6570  144.1720 C   0  0  0  0  0  0  0  0  0  0  0  0
  187.7570  178.6990  141.1810 C   0  0  0  0  0  3  0  0  0  0  0  0
  191.5780  177.1780  145.1020 C   0  0  0  0  0  3  0  0  0  0  0  0
  186.8320  177.4370  143.8390 C   0  0  0  0  0  3  0  0  0  0  0  0
  192.8190  176.8520  148.6100 O   0  0  0  0  0  0  0  0  0  0  0  0
  192.4270  175.0770  147.0520 N   0  0  0  0  0  1  0  0  0  0  0  0
  192.0090  176.2650  147.7950 C   0  0  0  0  0  0  0  0  0  0  0  0
  190.7140  176.8620  147.4050 N   0  0  0  0  0  2  0  0  0  0  0  0
  183.7890  178.3790  141.5860 C   0  0  0  0  0  0  0  0  0  0  0  0
  182.9260  178.9810  142.3090 O   0  0  0  0  0  0  0  0  0  0  0  0
  183.4460  177.4990  140.4350 N   0  0  0  0  0  2  0  0  0  0  0  0
  180.0820  177.2070  137.9160 C   0  0  0  0  0  3  0  0  0  0  0  0
  180.9920  178.2250  137.6760 C   0  0  0  0  0  3  0  0  0  0  0  0
  182.8670  179.5080  138.4190 F   0  0  0  0  0  0  0  0  0  0  0  0
  181.9680  178.5110  138.6190 C   0  0  0  0  0  0  0  0  0  0  0  0
  182.2360  177.5410  139.6200 C   0  0  0  0  0  0  0  0  0  0  0  0
  181.3680  176.4660  139.7920 C   0  0  0  0  0  3  0  0  0  0  0  0
  180.4100  176.1900  138.8390 C   0  0  0  0  0  3  0  0  0  0  0  0
  190.0290  176.6230  141.2360 C   0  0  0  0  0  2  0  0  0  0  0  0
  190.9640  176.9620  140.1670 C   0  0  0  0  0  2  0  0  0  0  0  0
  190.9540  176.0170  138.9990 N   0  0  0  0  0  2  0  0  0  0  0  0
  190.8900  176.5450  137.5890 C   0  0  0  0  0  2  0  0  0  0  0  0
  188.9880  178.4390  137.4150 C   0  0  0  0  0  3  0  0  0  0  0  0
  185.9640  175.2490  137.2000 C   0  0  0  0  0  2  0  0  0  0  0  0
  187.5700  178.6600  137.3250 C   0  0  0  0  0  3  0  0  0  0  0  0
  187.1600  176.2300  137.1320 C   0  0  0  0  0  0  0  0  0  0  0  0
  188.4460  175.8990  137.3090 C   0  0  0  0  0  3  0  0  0  0  0  0
  185.2580  177.4410  137.1860 C   0  0  0  0  0  2  0  0  0  0  0  0
  184.9440  176.1420  136.6760 N   0  0  2  0  0  0  0  0  0  0  0  0
  186.7210  177.5230  137.1840 C   0  0  0  0  0  0  0  0  0  0  0  0
  189.4270  176.9960  137.4270 C   0  0  0  0  0  0  0  0  0  0  0  0
  183.4300  174.4330  136.0710 C   0  0  0  0  0  2  0  0  0  0  0  0
  183.6400  175.5360  136.9620 C   0  0  0  0  0  3  0  0  0  0  0  0
  182.7800  175.6690  135.5520 C   0  0  0  0  0  2  0  0  0  0  0  0
  1 10  1  0  0  0  0
  2 18  1  0  0  0  0
  3  8  1  0  0  0  0
  4 12  1  0  0  0  0
  4  1  2  0  0  0  0
  5  3  1  0  0  0  0
  5  7  1  0  0  0  0
  6 13  1  0  0  0  0
  7  6  2  0  0  0  0
  7 11  1  0  0  0  0
  8 14  2  0  0  0  0
  8 11  1  0  0  0  0
  9  2  1  0  0  0  0
 10 14  1  0  0  0  0
 11  9  2  0  0  0  0
 12  3  2  0  0  0  0
 13  2  2  0  0  0  0
 16 17  1  0  0  0  0
 17 15  2  0  0  0  0
 18 17  1  0  0  0  0
 19  1  1  0  0  0  0
 19 20  2  0  0  0  0
 21 19  1  0  0  0  0
 22 28  1  0  0  0  0
 23 22  2  0  0  0  0
 23 25  1  0  0  0  0
 24 25  1  0  0  0  0
 25 26  2  0  0  0  0
 26 27  1  0  0  0  0
 26 21  1  0  0  0  0
 28 27  2  0  0  0  0
 29  5  1  0  0  0  0
 30 29  1  0  0  0  0
 31 30  1  0  0  0  0
 32 31  1  0  0  0  0
 33 41  1  0  0  0  0
 35 33  2  0  0  0  0
 36 40  2  0  0  0  0
 36 34  1  0  0  0  0
 36 37  1  0  0  0  0
 37 41  2  0  0  0  0
 39 43  1  1  0  0  0
 39 38  1  0  0  0  0
 39 34  1  0  0  0  0
 40 38  1  0  0  0  0
 40 35  1  0  0  0  0
 41 32  1  0  0  0  0
 42 43  1  0  0  0  0
 44 42  1  0  0  0  0
 44 43  1  0  0  0  0
M  END
>  <MODEL>
3

>  <REMARK>
 VINA RESULT:      -9.4      3.191      8.423
  Name = 
  9 active torsions:
  status: ('A' for Active; 'I' for Inactive)
    1  A    between atoms: C_1  and  C_7
    2  A    between atoms: C_2  and  N_44
    3  A    between atoms: C_10  and  N_35
    4  A    between atoms: N_11  and  C_43
    5  A    between atoms: N_19  and  C_24
    6  A    between atoms: N_19  and  C_26
    7  A    between atoms: C_24  and  C_37
    8  A    between atoms: C_25  and  N_42
    9  A    between atoms: C_26  and  C_43
                            x       y       z     vdW  Elec       q    Type
                         _______ _______ _______ _____ _____    ______ ____

>  <TORSDO>
F 9

$$$$
=
 OpenBabel11042410373D

 44 50  0  0  1  0  0  0  0  0999 V2000
  189.1430  177.9020  141.5310 C   0  0  0  0  0  0  0  0  0  0  0  0
  192.3730  175.8340  135.9200 C   0  0  0  0  0  0  0  0  0  0  0  0
  188.9370  177.3670  138.3670 C   0  0  0  0  0  0  0  0  0  0  0  0
  188.2460  178.4760  140.6310 C   0  0  0  0  0  3  0  0  0  0  0  0
  188.6310  176.8470  137.1770 N   0  0  0  0  0  0  0  0  0  0  0  0
  190.0390  176.1680  135.2530 C   0  0  0  0  0  3  0  0  0  0  0  0
  189.7900  176.5980  136.6230 C   0  0  0  0  0  0  0  0  0  0  0  0
  190.1740  176.9720  138.6530 C   0  0  0  0  0  0  0  0  0  0  0  0
  192.1100  176.2060  137.2970 C   0  0  0  0  0  3  0  0  0  0  0  0
  190.3270  176.8410  141.2130 C   0  0  0  0  0  2  0  0  0  0  0  0
  190.7950  176.5990  137.5690 C   0  0  0  0  0  0  0  0  0  0  0  0
  188.1130  178.0640  139.0440 C   0  0  0  0  0  3  0  0  0  0  0  0
  191.3270  175.8310  134.9240 C   0  0  0  0  0  3  0  0  0  0  0  0
  190.7190  176.5720  139.7480 C   0  0  0  0  0  3  0  0  0  0  0  0
  195.8160  175.5800  136.6380 O   0  0  0  0  0  0  0  0  0  0  0  0
  194.9430  177.4660  135.4490 N   0  0  0  0  0  1  0  0  0  0  0  0
  194.9040  176.0640  135.8650 C   0  0  0  0  0  0  0  0  0  0  0  0
  193.6750  175.3130  135.5300 N   0  0  0  0  0  2  0  0  0  0  0  0
  188.9890  177.9820  142.9480 C   0  0  0  0  0  0  0  0  0  0  0  0
  189.9190  178.4700  143.6730 O   0  0  0  0  0  0  0  0  0  0  0  0
  187.7440  177.3690  143.4880 N   0  0  0  0  0  2  0  0  0  0  0  0
  185.9240  178.5780  147.0890 C   0  0  0  0  0  3  0  0  0  0  0  0
  187.1880  178.0150  147.1530 C   0  0  0  0  0  3  0  0  0  0  0  0
  188.9460  176.8080  146.0710 F   0  0  0  0  0  0  0  0  0  0  0  0
  187.7160  177.3790  146.0390 C   0  0  0  0  0  0  0  0  0  0  0  0
  187.1150  177.6340  144.7780 C   0  0  0  0  0  0  0  0  0  0  0  0
  185.8880  178.2880  144.7160 C   0  0  0  0  0  3  0  0  0  0  0  0
  185.3840  178.9230  145.8310 C   0  0  0  0  0  3  0  0  0  0  0  0
  187.6550  175.8390  136.9670 C   0  0  0  0  0  2  0  0  0  0  0  0
  186.4520  176.2700  136.2610 C   0  0  0  0  0  2  0  0  0  0  0  0
  185.2170  176.3530  137.1120 N   0  0  0  0  0  2  0  0  0  0  0  0
  184.8040  177.6610  137.7350 C   0  0  0  0  0  2  0  0  0  0  0  0
  182.9270  175.9320  138.5840 C   0  0  0  0  0  3  0  0  0  0  0  0
  181.0830  179.2060  140.8750 C   0  0  0  0  0  2  0  0  0  0  0  0
  181.7320  175.8060  139.3740 C   0  0  0  0  0  3  0  0  0  0  0  0
  181.9420  178.1470  140.1410 C   0  0  0  0  0  0  0  0  0  0  0  0
  183.0030  178.4100  139.3660 C   0  0  0  0  0  3  0  0  0  0  0  0
  180.0790  177.1330  140.9090 C   0  0  0  0  0  2  0  0  0  0  0  0
  180.3150  178.2960  141.7090 N   0  0  2  0  0  0  0  0  0  0  0  0
  181.3000  176.9400  140.1240 C   0  0  0  0  0  0  0  0  0  0  0  0
  183.5640  177.2990  138.5730 C   0  0  0  0  0  0  0  0  0  0  0  0
  179.6860  180.1620  143.0120 C   0  0  0  0  0  2  0  0  0  0  0  0
  179.1850  179.0510  142.2580 C   0  0  0  0  0  3  0  0  0  0  0  0
  179.3890  179.0040  143.9020 C   0  0  0  0  0  2  0  0  0  0  0  0
  1 19  1  0  0  0  0
  2  9  1  0  0  0  0
  3  8  1  0  0  0  0
  3 12  2  0  0  0  0
  4  1  2  0  0  0  0
  5  3  1  0  0  0  0
  6  7  2  0  0  0  0
  7  5  1  0  0  0  0
  7 11  1  0  0  0  0
  8 14  2  0  0  0  0
  9 11  2  0  0  0  0
 10  1  1  0  0  0  0
 11  8  1  0  0  0  0
 12  4  1  0  0  0  0
 13  6  1  0  0  0  0
 13  2  2  0  0  0  0
 14 10  1  0  0  0  0
 16 17  1  0  0  0  0
 17 15  2  0  0  0  0
 18 17  1  0  0  0  0
 18  2  1  0  0  0  0
 19 21  1  0  0  0  0
 19 20  2  0  0  0  0
 21 26  1  0  0  0  0
 22 23  1  0  0  0  0
 25 24  1  0  0  0  0
 25 23  2  0  0  0  0
 26 25  1  0  0  0  0
 27 26  2  0  0  0  0
 27 28  1  0  0  0  0
 28 22  2  0  0  0  0
 29  5  1  0  0  0  0
 30 29  1  0  0  0  0
 30 31  1  0  0  0  0
 31 32  1  0  0  0  0
 32 41  1  0  0  0  0
 33 35  1  0  0  0  0
 34 39  1  0  0  0  0
 35 40  2  0  0  0  0
 36 34  1  0  0  0  0
 37 36  2  0  0  0  0
 38 39  1  0  0  0  0
 39 43  1  6  0  0  0
 40 36  1  0  0  0  0
 40 38  1  0  0  0  0
 41 33  2  0  0  0  0
 41 37  1  0  0  0  0
 42 44  1  0  0  0  0
 43 42  1  0  0  0  0
 43 44  1  0  0  0  0
M  END
>  <MODEL>
4

>  <REMARK>
 VINA RESULT:      -9.2      1.669      2.557
  Name = 
  9 active torsions:
  status: ('A' for Active; 'I' for Inactive)
    1  A    between atoms: C_1  and  C_7
    2  A    between atoms: C_2  and  N_44
    3  A    between atoms: C_10  and  N_35
    4  A    between atoms: N_11  and  C_43
    5  A    between atoms: N_19  and  C_24
    6  A    between atoms: N_19  and  C_26
    7  A    between atoms: C_24  and  C_37
    8  A    between atoms: C_25  and  N_42
    9  A    between atoms: C_26  and  C_43
                            x       y       z     vdW  Elec       q    Type
                         _______ _______ _______ _____ _____    ______ ____

>  <TORSDO>
F 9

$$$$
=
 OpenBabel11042410373D

 44 50  0  0  1  0  0  0  0  0999 V2000
  186.3670  178.1840  140.5990 C   0  0  0  0  0  0  0  0  0  0  0  0
  192.7730  176.8450  138.7610 C   0  0  0  0  0  0  0  0  0  0  0  0
  189.3530  177.5150  141.5890 C   0  0  0  0  0  0  0  0  0  0  0  0
  186.7510  177.6250  141.8170 C   0  0  0  0  0  2  0  0  0  0  0  0
  190.5780  177.6130  142.1070 N   0  0  0  0  0  0  0  0  0  0  0  0
  192.8120  177.0330  141.2030 C   0  0  0  0  0  3  0  0  0  0  0  0
  191.3730  177.2560  141.1320 C   0  0  0  0  0  0  0  0  0  0  0  0
  189.4880  177.5790  140.2680 C   0  0  0  0  0  0  0  0  0  0  0  0
  191.3510  177.1250  138.6880 C   0  0  0  0  0  3  0  0  0  0  0  0
  187.3200  178.6160  139.3600 C   0  0  0  0  0  3  0  0  0  0  0  0
  190.7130  177.2990  139.9210 C   0  0  0  0  0  0  0  0  0  0  0  0
  188.3060  177.4230  142.3110 C   0  0  0  0  0  3  0  0  0  0  0  0
  193.4710  176.7980  140.0230 C   0  0  0  0  0  3  0  0  0  0  0  0
  188.7950  178.1720  139.3590 C   0  0  0  0  0  3  0  0  0  0  0  0
  192.9140  175.9200  135.3610 O   0  0  0  0  0  0  0  0  0  0  0  0
  193.2650  174.3030  137.0910 N   0  0  0  0  0  1  0  0  0  0  0  0
  193.2930  175.6690  136.5680 C   0  0  0  0  0  0  0  0  0  0  0  0
  193.5690  176.7420  137.5460 N   0  0  0  0  0  2  0  0  0  0  0  0
  185.0590  178.6990  140.3520 C   0  0  0  0  0  0  0  0  0  0  0  0
  184.9050  179.7970  139.7190 O   0  0  0  0  0  0  0  0  0  0  0  0
  183.9460  177.9300  140.9720 N   0  0  0  0  0  2  0  0  0  0  0  0
  179.7840  177.9790  140.3170 C   0  0  0  0  0  3  0  0  0  0  0  0
  180.5010  176.8750  139.8820 C   0  0  0  0  0  3  0  0  0  0  0  0
  182.6190  175.8660  139.4180 F   0  0  0  0  0  0  0  0  0  0  0  0
  181.8870  176.9250  139.8490 C   0  0  0  0  0  0  0  0  0  0  0  0
  182.5370  177.9470  140.5890 C   0  0  0  0  0  0  0  0  0  0  0  0
  181.7950  179.0050  141.1060 C   0  0  0  0  0  3  0  0  0  0  0  0
  180.4180  178.9340  141.1410 C   0  0  0  0  0  3  0  0  0  0  0  0
  191.0440  178.7170  142.8670 C   0  0  0  0  0  2  0  0  0  0  0  0
  191.4980  178.4010  144.2180 C   0  0  0  0  0  2  0  0  0  0  0  0
  191.0730  177.0520  144.7260 N   0  0  0  0  0  2  0  0  0  0  0  0
  191.0710  176.7570  146.2030 C   0  0  0  0  0  2  0  0  0  0  0  0
  189.4860  177.7990  148.1100 C   0  0  0  0  0  3  0  0  0  0  0  0
  186.1870  177.8680  145.1980 C   0  0  0  0  0  2  0  0  0  0  0  0
  188.1490  178.2450  148.3980 C   0  0  0  0  0  3  0  0  0  0  0  0
  187.4860  177.9160  146.0390 C   0  0  0  0  0  0  0  0  0  0  0  0
  188.6640  177.3900  145.6780 C   0  0  0  0  0  3  0  0  0  0  0  0
  185.7730  178.5740  147.3510 C   0  0  0  0  0  2  0  0  0  0  0  0
  185.4040  178.8040  145.9880 N   0  0  2  0  0  0  0  0  0  0  0  0
  187.2080  178.2810  147.3270 C   0  0  0  0  0  0  0  0  0  0  0  0
  189.7320  177.3370  146.6960 C   0  0  0  0  0  0  0  0  0  0  0  0
  183.9600  178.2830  144.1920 C   0  0  0  0  0  2  0  0  0  0  0  0
  184.0040  178.6660  145.5730 C   0  0  0  0  0  3  0  0  0  0  0  0
  183.8060  179.7580  144.3430 C   0  0  0  0  0  2  0  0  0  0  0  0
  1  4  1  0  0  0  0
  2 13  1  0  0  0  0
  3  5  1  0  0  0  0
  3 12  2  0  0  0  0
  4 12  1  0  0  0  0
  5 29  1  0  0  0  0
  7  6  1  0  0  0  0
  7  5  1  0  0  0  0
  8  3  1  0  0  0  0
  9  2  2  0  0  0  0
  9 11  1  0  0  0  0
 10  1  2  0  0  0  0
 11  8  1  0  0  0  0
 11  7  2  0  0  0  0
 13  6  2  0  0  0  0
 14 10  1  0  0  0  0
 14  8  2  0  0  0  0
 15 17  2  0  0  0  0
 17 16  1  0  0  0  0
 17 18  1  0  0  0  0
 18  2  1  0  0  0  0
 19  1  1  0  0  0  0
 19 21  1  0  0  0  0
 20 19  2  0  0  0  0
 22 28  1  0  0  0  0
 23 22  2  0  0  0  0
 24 25  1  0  0  0  0
 25 23  1  0  0  0  0
 25 26  2  0  0  0  0
 26 21  1  0  0  0  0
 26 27  1  0  0  0  0
 27 28  2  0  0  0  0
 29 30  1  0  0  0  0
 30 31  1  0  0  0  0
 31 32  1  0  0  0  0
 32 41  1  0  0  0  0
 33 35  1  0  0  0  0
 34 39  1  0  0  0  0
 34 36  1  0  0  0  0
 36 40  1  0  0  0  0
 37 36  2  0  0  0  0
 37 41  1  0  0  0  0
 39 43  1  1  0  0  0
 39 38  1  0  0  0  0
 40 38  1  0  0  0  0
 40 35  2  0  0  0  0
 41 33  2  0  0  0  0
 42 44  1  0  0  0  0
 42 43  1  0  0  0  0
 44 43  1  0  0  0  0
M  END
>  <MODEL>
5

>  <REMARK>
 VINA RESULT:      -8.9      2.583      7.062
  Name = 
  9 active torsions:
  status: ('A' for Active; 'I' for Inactive)
    1  A    between atoms: C_1  and  C_7
    2  A    between atoms: C_2  and  N_44
    3  A    between atoms: C_10  and  N_35
    4  A    between atoms: N_11  and  C_43
    5  A    between atoms: N_19  and  C_24
    6  A    between atoms: N_19  and  C_26
    7  A    between atoms: C_24  and  C_37
    8  A    between atoms: C_25  and  N_42
    9  A    between atoms: C_26  and  C_43
                            x       y       z     vdW  Elec       q    Type
                         _______ _______ _______ _____ _____    ______ ____

>  <TORSDO>
F 9

$$$$
=
 OpenBabel11042410373D

 44 50  0  0  1  0  0  0  0  0999 V2000
  192.5520  175.6780  136.8640 C   0  0  0  0  0  0  0  0  0  0  0  0
  190.5090  177.8330  142.9780 C   0  0  0  0  0  0  0  0  0  0  0  0
  190.0520  176.4620  138.7300 C   0  0  0  0  0  0  0  0  0  0  0  0
  191.2290  175.2610  136.7270 C   0  0  0  0  0  3  0  0  0  0  0  0
  189.0070  177.0950  139.2630 N   0  0  0  0  0  0  0  0  0  0  0  0
  188.4910  177.7750  141.5900 C   0  0  0  0  0  3  0  0  0  0  0  0
  189.3370  177.2710  140.5160 C   0  0  0  0  0  0  0  0  0  0  0  0
  191.0950  176.7140  139.5140 C   0  0  0  0  0  0  0  0  0  0  0  0
  191.3590  177.3870  141.8910 C   0  0  0  0  0  3  0  0  0  0  0  0
  193.1760  176.6410  138.0100 C   0  0  0  0  0  2  0  0  0  0  0  0
  190.6960  177.1040  140.6920 C   0  0  0  0  0  0  0  0  0  0  0  0
  189.9730  175.7990  137.6430 C   0  0  0  0  0  3  0  0  0  0  0  0
  189.0870  178.0100  142.8030 C   0  0  0  0  0  3  0  0  0  0  0  0
  192.3270  176.9780  139.2500 C   0  0  0  0  0  3  0  0  0  0  0  0
  191.9820  176.8870  146.0400 O   0  0  0  0  0  0  0  0  0  0  0  0
  189.6020  176.9720  145.7940 N   0  0  0  0  0  1  0  0  0  0  0  0
  190.9580  177.3940  145.4420 C   0  0  0  0  0  0  0  0  0  0  0  0
  191.0890  178.2530  144.2460 N   0  0  0  0  0  2  0  0  0  0  0  0
  193.5350  175.5090  135.8440 C   0  0  0  0  0  0  0  0  0  0  0  0
  193.4080  176.0980  134.7180 O   0  0  0  0  0  0  0  0  0  0  0  0
  194.6170  174.5360  136.1590 N   0  0  0  0  0  2  0  0  0  0  0  0
  198.5460  174.0230  134.7270 C   0  0  0  0  0  3  0  0  0  0  0  0
  198.1270  175.3060  135.0390 C   0  0  0  0  0  3  0  0  0  0  0  0
  196.3370  176.8010  135.5670 F   0  0  0  0  0  0  0  0  0  0  0  0
  196.7820  175.5540  135.2700 C   0  0  0  0  0  0  0  0  0  0  0  0
  195.9350  174.4460  135.5360 C   0  0  0  0  0  0  0  0  0  0  0  0
  196.3970  173.1520  135.3110 C   0  0  0  0  0  3  0  0  0  0  0  0
  197.7390  172.9240  135.0940 C   0  0  0  0  0  3  0  0  0  0  0  0
  188.3500  178.2040  138.6710 C   0  0  0  0  0  2  0  0  0  0  0  0
  187.0990  177.8990  137.9830 C   0  0  0  0  0  2  0  0  0  0  0  0
  185.9340  178.7590  138.3820 N   0  0  0  0  0  2  0  0  0  0  0  0
  184.5270  178.2270  138.2990 C   0  0  0  0  0  2  0  0  0  0  0  0
  182.5230  178.3760  140.0870 C   0  0  0  0  0  3  0  0  0  0  0  0
  185.5170  179.0120  143.2480 C   0  0  0  0  0  2  0  0  0  0  0  0
  182.2150  178.5920  141.4740 C   0  0  0  0  0  3  0  0  0  0  0  0
  184.6190  178.6270  142.0470 C   0  0  0  0  0  0  0  0  0  0  0  0
  185.0250  178.5320  140.7740 C   0  0  0  0  0  3  0  0  0  0  0  0
  183.2870  179.0350  143.8200 C   0  0  0  0  0  2  0  0  0  0  0  0
  184.5830  178.6790  144.3100 N   0  0  2  0  0  0  0  0  0  0  0  0
  183.2990  178.7040  142.3930 C   0  0  0  0  0  0  0  0  0  0  0  0
  183.9900  178.3690  139.7340 C   0  0  0  0  0  0  0  0  0  0  0  0
  186.2210  178.5270  146.0050 C   0  0  0  0  0  2  0  0  0  0  0  0
  185.0910  179.2800  145.5470 C   0  0  0  0  0  3  0  0  0  0  0  0
  184.9740  178.0870  146.6910 C   0  0  0  0  0  2  0  0  0  0  0  0
  1 10  1  0  0  0  0
  2 18  1  0  0  0  0
  3  5  1  0  0  0  0
  3  8  1  0  0  0  0
  4  1  2  0  0  0  0
  4 12  1  0  0  0  0
  5  7  1  0  0  0  0
  6 13  2  0  0  0  0
  7 11  2  0  0  0  0
  7  6  1  0  0  0  0
  8 11  1  0  0  0  0
  9  2  2  0  0  0  0
 10 14  1  0  0  0  0
 11  9  1  0  0  0  0
 12  3  2  0  0  0  0
 13  2  1  0  0  0  0
 14  8  2  0  0  0  0
 17 16  1  0  0  0  0
 17 15  2  0  0  0  0
 18 17  1  0  0  0  0
 19 21  1  0  0  0  0
 19  1  1  0  0  0  0
 20 19  2  0  0  0  0
 22 23  2  0  0  0  0
 22 28  1  0  0  0  0
 23 25  1  0  0  0  0
 25 26  2  0  0  0  0
 25 24  1  0  0  0  0
 26 21  1  0  0  0  0
 27 26  1  0  0  0  0
 28 27  2  0  0  0  0
 29  5  1  0  0  0  0
 30 31  1  0  0  0  0
 30 29  1  0  0  0  0
 32 31  1  0  0  0  0
 32 41  1  0  0  0  0
 33 35  1  0  0  0  0
 34 39  1  0  0  0  0
 35 40  2  0  0  0  0
 36 40  1  0  0  0  0
 36 34  1  0  0  0  0
 37 36  2  0  0  0  0
 38 39  1  0  0  0  0
 39 43  1  1  0  0  0
 40 38  1  0  0  0  0
 41 33  2  0  0  0  0
 41 37  1  0  0  0  0
 42 44  1  0  0  0  0
 43 42  1  0  0  0  0
 43 44  1  0  0  0  0
M  END
>  <MODEL>
6

>  <REMARK>
 VINA RESULT:      -8.8      2.803      7.397
  Name = 
  9 active torsions:
  status: ('A' for Active; 'I' for Inactive)
    1  A    between atoms: C_1  and  C_7
    2  A    between atoms: C_2  and  N_44
    3  A    between atoms: C_10  and  N_35
    4  A    between atoms: N_11  and  C_43
    5  A    between atoms: N_19  and  C_24
    6  A    between atoms: N_19  and  C_26
    7  A    between atoms: C_24  and  C_37
    8  A    between atoms: C_25  and  N_42
    9  A    between atoms: C_26  and  C_43
                            x       y       z     vdW  Elec       q    Type
                         _______ _______ _______ _____ _____    ______ ____

>  <TORSDO>
F 9

$$$$
=
 OpenBabel11042410373D

 44 50  0  0  1  0  0  0  0  0999 V2000
  189.0950  177.9120  141.5530 C   0  0  0  0  0  0  0  0  0  0  0  0
  192.3790  175.8140  135.9840 C   0  0  0  0  0  0  0  0  0  0  0  0
  188.9920  177.5560  138.3590 C   0  0  0  0  0  0  0  0  0  0  0  0
  188.3020  178.6150  140.6480 C   0  0  0  0  0  3  0  0  0  0  0  0
  188.6960  177.1280  137.1310 N   0  0  0  0  0  0  0  0  0  0  0  0
  190.1230  176.4100  135.2360 C   0  0  0  0  0  3  0  0  0  0  0  0
  189.8510  176.7940  136.6150 C   0  0  0  0  0  0  0  0  0  0  0  0
  190.1700  177.0280  138.6760 C   0  0  0  0  0  0  0  0  0  0  0  0
  192.0870  176.1430  137.3670 C   0  0  0  0  0  3  0  0  0  0  0  0
  190.1860  176.7570  141.2300 C   0  0  0  0  0  2  0  0  0  0  0  0
  190.8050  176.6490  137.6020 C   0  0  0  0  0  0  0  0  0  0  0  0
  188.2070  178.2970  139.0370 C   0  0  0  0  0  3  0  0  0  0  0  0
  191.3870  175.9640  134.9460 C   0  0  0  0  0  3  0  0  0  0  0  0
  190.6200  176.5230  139.7710 C   0  0  0  0  0  3  0  0  0  0  0  0
  195.7600  175.2390  136.8060 O   0  0  0  0  0  0  0  0  0  0  0  0
  195.0980  177.2200  135.6350 N   0  0  0  0  0  1  0  0  0  0  0  0
  194.9210  175.8190  136.0160 C   0  0  0  0  0  0  0  0  0  0  0  0
  193.6430  175.1880  135.6240 N   0  0  0  0  0  2  0  0  0  0  0  0
  188.8810  177.9370  142.9640 C   0  0  0  0  0  0  0  0  0  0  0  0
  189.8180  178.2930  143.7550 O   0  0  0  0  0  0  0  0  0  0  0  0
  187.5580  177.4250  143.4160 N   0  0  0  0  0  2  0  0  0  0  0  0
  185.6490  178.6280  146.9730 C   0  0  0  0  0  3  0  0  0  0  0  0
  186.9070  178.0530  147.0690 C   0  0  0  0  0  3  0  0  0  0  0  0
  188.6830  176.8370  146.0280 F   0  0  0  0  0  0  0  0  0  0  0  0
  187.4590  177.4200  145.9650 C   0  0  0  0  0  0  0  0  0  0  0  0
  186.8950  177.6870  144.6900 C   0  0  0  0  0  0  0  0  0  0  0  0
  185.6760  178.3530  144.5980 C   0  0  0  0  0  3  0  0  0  0  0  0
  185.1470  178.9860  145.7030 C   0  0  0  0  0  3  0  0  0  0  0  0
  187.6390  176.2330  136.8240 C   0  0  0  0  0  2  0  0  0  0  0  0
  186.6140  176.7580  135.9270 C   0  0  0  0  0  2  0  0  0  0  0  0
  185.2450  176.1720  136.1230 N   0  0  0  0  0  2  0  0  0  0  0  0
  184.7050  175.9380  137.5100 C   0  0  0  0  0  2  0  0  0  0  0  0
  184.7920  178.2220  138.9270 C   0  0  0  0  0  3  0  0  0  0  0  0
  180.9090  179.3400  137.1830 C   0  0  0  0  0  2  0  0  0  0  0  0
  184.0720  179.4280  139.2370 C   0  0  0  0  0  3  0  0  0  0  0  0
  182.3290  178.8650  137.5770 C   0  0  0  0  0  0  0  0  0  0  0  0
  182.8570  177.6700  137.2810 C   0  0  0  0  0  3  0  0  0  0  0  0
  181.8790  180.7580  138.7180 C   0  0  0  0  0  2  0  0  0  0  0  0
  181.0600  180.7400  137.5440 N   0  0  2  0  0  0  0  0  0  0  0  0
  182.8610  179.6880  138.5300 C   0  0  0  0  0  0  0  0  0  0  0  0
  184.1350  177.3070  137.9230 C   0  0  0  0  0  0  0  0  0  0  0  0
  179.3520  181.7280  136.2460 C   0  0  0  0  0  2  0  0  0  0  0  0
  179.7200  181.3340  137.5740 C   0  0  0  0  0  3  0  0  0  0  0  0
  179.9160  182.8780  137.0080 C   0  0  0  0  0  2  0  0  0  0  0  0
  1 19  1  0  0  0  0
  2  9  1  0  0  0  0
  3  8  1  0  0  0  0
  3 12  2  0  0  0  0
  4  1  2  0  0  0  0
  5  3  1  0  0  0  0
  6  7  2  0  0  0  0
  7  5  1  0  0  0  0
  7 11  1  0  0  0  0
  8 14  2  0  0  0  0
  9 11  2  0  0  0  0
 10  1  1  0  0  0  0
 11  8  1  0  0  0  0
 12  4  1  0  0  0  0
 13  6  1  0  0  0  0
 13  2  2  0  0  0  0
 14 10  1  0  0  0  0
 16 17  1  0  0  0  0
 17 15  2  0  0  0  0
 18  2  1  0  0  0  0
 18 17  1  0  0  0  0
 19 21  1  0  0  0  0
 19 20  2  0  0  0  0
 21 26  1  0  0  0  0
 22 23  1  0  0  0  0
 25 24  1  0  0  0  0
 25 23  2  0  0  0  0
 26 25  1  0  0  0  0
 27 26  2  0  0  0  0
 27 28  1  0  0  0  0
 28 22  2  0  0  0  0
 29  5  1  0  0  0  0
 30 31  1  0  0  0  0
 30 29  1  0  0  0  0
 31 32  1  0  0  0  0
 32 41  1  0  0  0  0
 33 35  1  0  0  0  0
 34 39  1  0  0  0  0
 34 36  1  0  0  0  0
 36 40  1  0  0  0  0
 37 36  2  0  0  0  0
 37 41  1  0  0  0  0
 39 43  1  1  0  0  0
 39 38  1  0  0  0  0
 40 38  1  0  0  0  0
 40 35  2  0  0  0  0
 41 33  2  0  0  0  0
 42 44  1  0  0  0  0
 42 43  1  0  0  0  0
 44 43  1  0  0  0  0
M  END
>  <MODEL>
7

>  <REMARK>
 VINA RESULT:      -8.6      2.098      3.617
  Name = 
  9 active torsions:
  status: ('A' for Active; 'I' for Inactive)
    1  A    between atoms: C_1  and  C_7
    2  A    between atoms: C_2  and  N_44
    3  A    between atoms: C_10  and  N_35
    4  A    between atoms: N_11  and  C_43
    5  A    between atoms: N_19  and  C_24
    6  A    between atoms: N_19  and  C_26
    7  A    between atoms: C_24  and  C_37
    8  A    between atoms: C_25  and  N_42
    9  A    between atoms: C_26  and  C_43
                            x       y       z     vdW  Elec       q    Type
                         _______ _______ _______ _____ _____    ______ ____

>  <TORSDO>
F 9

$$$$
=
 OpenBabel11042410373D

 44 50  0  0  1  0  0  0  0  0999 V2000
  187.2120  177.1530  137.3690 C   0  0  0  0  0  0  0  0  0  0  0  0
  181.2500  174.0780  136.2720 C   0  0  0  0  0  0  0  0  0  0  0  0
  184.0620  177.1080  138.0180 C   0  0  0  0  0  0  0  0  0  0  0  0
  186.4210  178.2160  137.8050 C   0  0  0  0  0  2  0  0  0  0  0  0
  182.8880  176.9670  138.6330 N   0  0  0  0  0  0  0  0  0  0  0  0
  180.8160  175.7630  137.9960 C   0  0  0  0  0  3  0  0  0  0  0  0
  182.2190  176.1390  137.8730 C   0  0  0  0  0  0  0  0  0  0  0  0
  184.2170  176.0460  137.2350 C   0  0  0  0  0  0  0  0  0  0  0  0
  182.6590  174.4150  136.1910 C   0  0  0  0  0  3  0  0  0  0  0  0
  186.7450  175.6330  137.0510 C   0  0  0  0  0  3  0  0  0  0  0  0
  183.0670  175.4740  137.0090 C   0  0  0  0  0  0  0  0  0  0  0  0
  184.8390  178.0950  138.2380 C   0  0  0  0  0  3  0  0  0  0  0  0
  180.3570  174.7680  137.1710 C   0  0  0  0  0  3  0  0  0  0  0  0
  185.2410  175.3120  136.9710 C   0  0  0  0  0  3  0  0  0  0  0  0
  179.7130  170.9070  136.4200 O   0  0  0  0  0  0  0  0  0  0  0  0
  182.0880  171.1330  136.6150 N   0  0  0  0  0  1  0  0  0  0  0  0
  180.7770  171.5830  136.1480 C   0  0  0  0  0  0  0  0  0  0  0  0
  180.7220  172.9320  135.5450 N   0  0  0  0  0  2  0  0  0  0  0  0
  188.6380  177.1880  137.3700 C   0  0  0  0  0  0  0  0  0  0  0  0
  189.2710  177.8470  136.4790 O   0  0  0  0  0  0  0  0  0  0  0  0
  189.2930  176.3300  138.3960 N   0  0  0  0  0  2  0  0  0  0  0  0
  193.1350  177.1280  139.9310 C   0  0  0  0  0  3  0  0  0  0  0  0
  193.0350  176.6590  138.6310 C   0  0  0  0  0  3  0  0  0  0  0  0
  191.7000  175.6730  136.9100 F   0  0  0  0  0  0  0  0  0  0  0  0
  191.8290  176.1500  138.1740 C   0  0  0  0  0  0  0  0  0  0  0  0
  190.6540  176.4500  138.9120 C   0  0  0  0  0  0  0  0  0  0  0  0
  190.7590  177.0120  140.1810 C   0  0  0  0  0  3  0  0  0  0  0  0
  191.9640  177.5230  140.6150 C   0  0  0  0  0  3  0  0  0  0  0  0
  182.7310  176.7380  140.0240 C   0  0  0  0  0  2  0  0  0  0  0  0
  181.9980  177.7700  140.7510 C   0  0  0  0  0  2  0  0  0  0  0  0
  182.8480  178.8840  141.2920 N   0  0  0  0  0  2  0  0  0  0  0  0
  182.8860  179.1680  142.7710 C   0  0  0  0  0  2  0  0  0  0  0  0
  185.3980  178.3700  142.2330 C   0  0  0  0  0  3  0  0  0  0  0  0
  186.0670  177.8800  146.5550 C   0  0  0  0  0  2  0  0  0  0  0  0
  186.6210  177.8990  142.8230 C   0  0  0  0  0  3  0  0  0  0  0  0
  185.7110  178.2530  145.0940 C   0  0  0  0  0  0  0  0  0  0  0  0
  184.4960  178.6100  144.6590 C   0  0  0  0  0  3  0  0  0  0  0  0
  187.7730  177.3370  145.1050 C   0  0  0  0  0  2  0  0  0  0  0  0
  187.5140  177.8650  146.4090 N   0  0  2  0  0  0  0  0  0  0  0  0
  186.7120  177.8680  144.2460 C   0  0  0  0  0  0  0  0  0  0  0  0
  184.2940  178.7160  143.2010 C   0  0  0  0  0  0  0  0  0  0  0  0
  187.9570  178.0830  148.7190 C   0  0  0  0  0  2  0  0  0  0  0  0
  188.0670  177.2020  147.5940 C   0  0  0  0  0  3  0  0  0  0  0  0
  189.3080  178.1770  148.0980 C   0  0  0  0  0  2  0  0  0  0  0  0
  1 19  1  0  0  0  0
  1  4  1  0  0  0  0
  2 13  1  0  0  0  0
  3 12  2  0  0  0  0
  3  5  1  0  0  0  0
  4 12  1  0  0  0  0
  5 29  1  0  0  0  0
  7  6  1  0  0  0  0
  7  5  1  0  0  0  0
  8  3  1  0  0  0  0
  9  2  2  0  0  0  0
  9 11  1  0  0  0  0
 10  1  2  0  0  0  0
 11  8  1  0  0  0  0
 11  7  2  0  0  0  0
 13  6  2  0  0  0  0
 14 10  1  0  0  0  0
 14  8  2  0  0  0  0
 17 15  2  0  0  0  0
 17 16  1  0  0  0  0
 18 17  1  0  0  0  0
 18  2  1  0  0  0  0
 19 21  1  0  0  0  0
 20 19  2  0  0  0  0
 21 26  1  0  0  0  0
 22 28  1  0  0  0  0
 23 22  2  0  0  0  0
 24 25  1  0  0  0  0
 25 23  1  0  0  0  0
 25 26  2  0  0  0  0
 26 27  1  0  0  0  0
 27 28  2  0  0  0  0
 29 30  1  0  0  0  0
 30 31  1  0  0  0  0
 31 32  1  0  0  0  0
 32 41  1  0  0  0  0
 33 35  2  0  0  0  0
 33 41  1  0  0  0  0
 35 40  1  0  0  0  0
 36 34  1  0  0  0  0
 37 36  1  0  0  0  0
 38 39  1  0  0  0  0
 39 34  1  0  0  0  0
 39 43  1  1  0  0  0
 40 36  2  0  0  0  0
 40 38  1  0  0  0  0
 41 37  2  0  0  0  0
 43 44  1  0  0  0  0
 43 42  1  0  0  0  0
 44 42  1  0  0  0  0
M  END
>  <MODEL>
8

>  <REMARK>
 VINA RESULT:      -8.5      3.640      7.811
  Name = 
  9 active torsions:
  status: ('A' for Active; 'I' for Inactive)
    1  A    between atoms: C_1  and  C_7
    2  A    between atoms: C_2  and  N_44
    3  A    between atoms: C_10  and  N_35
    4  A    between atoms: N_11  and  C_43
    5  A    between atoms: N_19  and  C_24
    6  A    between atoms: N_19  and  C_26
    7  A    between atoms: C_24  and  C_37
    8  A    between atoms: C_25  and  N_42
    9  A    between atoms: C_26  and  C_43
                            x       y       z     vdW  Elec       q    Type
                         _______ _______ _______ _____ _____    ______ ____

>  <TORSDO>
F 9

$$$$
=
 OpenBabel11042410373D

 44 50  0  0  1  0  0  0  0  0999 V2000
  184.9130  178.7570  141.7870 C   0  0  0  0  0  0  0  0  0  0  0  0
  180.2970  180.4620  137.0980 C   0  0  0  0  0  0  0  0  0  0  0  0
  181.7980  178.8050  140.9890 C   0  0  0  0  0  0  0  0  0  0  0  0
  183.8180  178.7260  142.6480 C   0  0  0  0  0  2  0  0  0  0  0  0
  180.5680  178.4400  140.6260 N   0  0  0  0  0  0  0  0  0  0  0  0
  179.0610  179.2490  138.8320 C   0  0  0  0  0  3  0  0  0  0  0  0
  180.3250  179.1420  139.5500 C   0  0  0  0  0  0  0  0  0  0  0  0
  182.3870  179.3040  139.9070 C   0  0  0  0  0  0  0  0  0  0  0  0
  181.5640  180.3040  137.7870 C   0  0  0  0  0  3  0  0  0  0  0  0
  184.9010  178.8520  140.1680 C   0  0  0  0  0  3  0  0  0  0  0  0
  181.4950  179.6500  139.0220 C   0  0  0  0  0  0  0  0  0  0  0  0
  182.2470  178.6270  142.1700 C   0  0  0  0  0  3  0  0  0  0  0  0
  179.0680  179.9340  137.6440 C   0  0  0  0  0  3  0  0  0  0  0  0
  183.5830  179.1870  139.4460 C   0  0  0  0  0  3  0  0  0  0  0  0
  181.1800  183.1310  134.9690 O   0  0  0  0  0  0  0  0  0  0  0  0
  179.2100  183.2390  136.3260 N   0  0  0  0  0  1  0  0  0  0  0  0
  180.2360  182.5050  135.5860 C   0  0  0  0  0  0  0  0  0  0  0  0
  180.2480  181.0360  135.7620 N   0  0  0  0  0  2  0  0  0  0  0  0
  186.2450  178.4560  142.2030 C   0  0  0  0  0  0  0  0  0  0  0  0
  187.2450  178.9620  141.5920 O   0  0  0  0  0  0  0  0  0  0  0  0
  186.3570  177.4530  143.2970 N   0  0  0  0  0  2  0  0  0  0  0  0
  189.6160  177.2990  145.9620 C   0  0  0  0  0  3  0  0  0  0  0  0
  189.8400  176.9650  144.6360 C   0  0  0  0  0  3  0  0  0  0  0  0
  188.9470  176.4210  142.4860 F   0  0  0  0  0  0  0  0  0  0  0  0
  188.7630  176.7590  143.7870 C   0  0  0  0  0  0  0  0  0  0  0  0
  187.4900  177.2420  144.1920 C   0  0  0  0  0  0  0  0  0  0  0  0
  187.2980  177.6670  145.5040 C   0  0  0  0  0  3  0  0  0  0  0  0
  188.3810  177.8770  146.3300 C   0  0  0  0  0  3  0  0  0  0  0  0
  180.1120  177.0990  140.5630 C   0  0  0  0  0  2  0  0  0  0  0  0
  181.0190  176.1580  139.9110 C   0  0  0  0  0  2  0  0  0  0  0  0
  180.4530  175.4740  138.6990 N   0  0  0  0  0  2  0  0  0  0  0  0
  181.3240  174.5950  137.8410 C   0  0  0  0  0  2  0  0  0  0  0  0
  182.1290  176.8100  136.5440 C   0  0  0  0  0  3  0  0  0  0  0  0
  186.2990  175.5750  137.2190 C   0  0  0  0  0  2  0  0  0  0  0  0
  183.2820  177.5320  136.0790 C   0  0  0  0  0  3  0  0  0  0  0  0
  184.7920  175.9330  137.2060 C   0  0  0  0  0  0  0  0  0  0  0  0
  183.8010  175.1260  137.6070 C   0  0  0  0  0  3  0  0  0  0  0  0
  185.8980  177.5040  136.0250 C   0  0  0  0  0  2  0  0  0  0  0  0
  186.8210  176.9030  136.9390 N   0  0  2  0  0  0  0  0  0  0  0  0
  184.5720  177.0460  136.4450 C   0  0  0  0  0  0  0  0  0  0  0  0
  182.4150  175.5480  137.3190 C   0  0  0  0  0  0  0  0  0  0  0  0
  189.0180  176.6160  137.7570 C   0  0  0  0  0  2  0  0  0  0  0  0
  188.2310  176.7520  136.5670 C   0  0  0  0  0  3  0  0  0  0  0  0
  189.0080  178.0280  137.2820 C   0  0  0  0  0  2  0  0  0  0  0  0
  1 19  1  0  0  0  0
  1  4  1  0  0  0  0
  2 13  2  0  0  0  0
  2  9  1  0  0  0  0
  3 12  2  0  0  0  0
  5  3  1  0  0  0  0
  6  7  2  0  0  0  0
  7  5  1  0  0  0  0
  8  3  1  0  0  0  0
  9 11  2  0  0  0  0
 10  1  2  0  0  0  0
 11  7  1  0  0  0  0
 11  8  1  0  0  0  0
 12  4  1  0  0  0  0
 13  6  1  0  0  0  0
 14  8  2  0  0  0  0
 14 10  1  0  0  0  0
 15 17  2  0  0  0  0
 17 18  1  0  0  0  0
 17 16  1  0  0  0  0
 18  2  1  0  0  0  0
 19 21  1  0  0  0  0
 20 19  2  0  0  0  0
 21 26  1  0  0  0  0
 22 28  1  0  0  0  0
 23 22  2  0  0  0  0
 24 25  1  0  0  0  0
 25 26  2  0  0  0  0
 25 23  1  0  0  0  0
 26 27  1  0  0  0  0
 27 28  2  0  0  0  0
 29  5  1  0  0  0  0
 30 29  1  0  0  0  0
 31 30  1  0  0  0  0
 32 31  1  0  0  0  0
 33 41  1  0  0  0  0
 35 40  1  0  0  0  0
 35 33  2  0  0  0  0
 36 34  1  0  0  0  0
 36 37  1  0  0  0  0
 38 40  1  0  0  0  0
 38 39  1  0  0  0  0
 39 43  1  6  0  0  0
 39 34  1  0  0  0  0
 40 36  2  0  0  0  0
 41 37  2  0  0  0  0
 41 32  1  0  0  0  0
 43 44  1  0  0  0  0
 43 42  1  0  0  0  0
 44 42  1  0  0  0  0
M  END
>  <MODEL>
9

>  <REMARK>
 VINA RESULT:      -8.5      3.373      8.128
  Name = 
  9 active torsions:
  status: ('A' for Active; 'I' for Inactive)
    1  A    between atoms: C_1  and  C_7
    2  A    between atoms: C_2  and  N_44
    3  A    between atoms: C_10  and  N_35
    4  A    between atoms: N_11  and  C_43
    5  A    between atoms: N_19  and  C_24
    6  A    between atoms: N_19  and  C_26
    7  A    between atoms: C_24  and  C_37
    8  A    between atoms: C_25  and  N_42
    9  A    between atoms: C_26  and  C_43
                            x       y       z     vdW  Elec       q    Type
                         _______ _______ _______ _____ _____    ______ ____

>  <TORSDO>
F 9

$$$$
