=
 OpenBabel11042412413D

 43 45  0  0  1  0  0  0  0  0999 V2000
  193.1610  175.2340  138.1920 C   0  0  0  0  0  3  0  0  0  0  0  0
  188.6560  178.2260  136.7870 C   0  0  0  0  0  2  0  0  0  0  0  0
  188.7210  177.1600  139.1220 C   0  0  0  0  0  0  0  0  0  0  0  0
  186.4760  174.7720  137.1260 C   0  0  0  0  0  3  0  0  0  0  0  0
  185.4400  176.9820  137.4430 C   0  0  0  0  0  0  0  0  0  0  0  0
  192.9210  175.7180  135.6820 C   0  0  0  0  0  0  0  0  0  0  0  0
  193.5170  175.9370  134.5940 O   0  0  0  0  0  0  0  0  0  0  0  0
  193.6880  175.5050  136.8840 N   0  0  0  0  0  0  0  0  0  0  0  0
  189.4780  177.1930  135.9930 C   0  0  0  0  0  2  0  0  0  0  0  0
  190.8560  176.7560  136.5790 C   0  0  2  0  0  3  0  0  0  0  0  0
  188.5650  173.4920  136.2300 C   0  0  0  0  0  3  0  0  0  0  0  0
  191.4330  175.6880  135.6570 C   0  0  2  0  0  3  0  0  0  0  0  0
  189.4920  174.1540  135.2710 C   0  0  0  0  0  2  0  0  0  0  0  0
  186.1870  179.2400  137.7630 O   0  0  0  0  0  1  0  0  0  0  0  0
  187.5150  174.1300  136.6700 C   0  0  0  0  0  0  0  0  0  0  0  0
  186.4170  177.9140  138.1380 C   0  0  2  0  0  3  0  0  0  0  0  0
  190.8800  174.2780  135.8800 C   0  0  0  0  0  2  0  0  0  0  0  0
  187.8830  177.5310  137.9270 C   0  0  1  0  0  3  0  0  0  0  0  0
  189.8520  176.6570  138.7550 C   0  0  0  0  0  0  0  0  0  0  0  0
  191.9640  175.5740  138.6830 C   0  0  0  0  0  3  0  0  0  0  0  0
  190.8690  176.3120  138.0360 C   0  0  0  0  0  0  0  0  0  0  0  0
  184.1150  177.0030  137.7570 C   0  0  0  0  0  0  0  0  0  0  0  0
  195.1330  175.3990  136.7660 C   0  0  0  0  0  1  0  0  0  0  0  0
  185.9870  176.0020  136.4350 C   0  0  0  0  0  2  0  0  0  0  0  0
  182.5640  176.6700  135.8350 O   0  0  0  0  0  0  0  0  0  0  0  0
  182.7400  175.0620  137.4410 O   0  0  0  0  0  1  0  0  0  0  0  0
  183.1070  176.1910  137.0220 C   0  0  0  0  0  0  0  0  0  0  0  0
  188.5840  177.7320  140.4700 C   0  0  0  0  0  3  0  0  0  0  0  0
  189.5610  177.7110  141.3650 C   0  0  0  0  0  3  0  0  0  0  0  0
  189.3550  178.2790  142.7230 C   0  0  0  0  0  2  0  0  0  0  0  0
  190.6940  178.3740  143.4260 C   0  0  0  0  0  2  0  0  0  0  0  0
  190.8840  177.2060  144.3290 C   0  0  0  0  0  0  0  0  0  0  0  0
  191.3040  175.7580  143.6770 S   0  0  0  0  0  0  0  0  0  0  0  0
  190.6300  177.3760  145.7330 N   0  0  0  0  0  2  0  0  0  0  0  0
  188.2950  177.1120  145.7840 O   0  0  0  0  0  0  0  0  0  0  0  0
  189.3590  177.3950  146.3960 C   0  0  0  0  0  0  0  0  0  0  0  0
  189.3030  177.7120  147.8490 C   0  0  0  0  0  2  0  0  0  0  0  0
  187.8620  177.8560  148.2910 C   0  0  0  0  0  1  0  0  0  0  0  0
  183.6020  177.8400  138.8700 C   0  0  0  0  0  0  0  0  0  0  0  0
  183.0520  178.9530  138.6330 O   0  0  0  0  0  0  0  0  0  0  0  0
  183.7650  177.4070  140.1910 O   0  0  0  0  0  0  0  0  0  0  0  0
  185.2120  178.7810  141.5490 C   0  0  0  0  0  1  0  0  0  0  0  0
  183.7940  178.3070  141.2920 C   0  0  0  0  0  2  0  0  0  0  0  0
  1 20  2  0  0  0  0
  3 28  1  0  0  0  0
  5 22  2  0  0  0  0
  5 16  1  0  0  0  0
  6  8  1  0  0  0  0
  7  6  2  0  0  0  0
  8  1  1  0  0  0  0
  9  2  1  0  0  0  0
 10  9  1  6  0  0  0
 10 21  1  0  0  0  0
 11 15  2  0  0  0  0
 12  6  1  0  0  0  0
 12 17  1  1  0  0  0
 12 10  1  0  0  0  0
 13 17  1  0  0  0  0
 13 11  1  0  0  0  0
 15  4  2  0  0  0  0
 16 14  1  6  0  0  0
 18  2  1  1  0  0  0
 18 16  1  0  0  0  0
 18  3  1  0  0  0  0
 19  3  2  0  0  0  0
 21 20  1  0  0  0  0
 21 19  2  0  0  0  0
 22 39  1  0  0  0  0
 23  8  1  0  0  0  0
 24  4  1  0  0  0  0
 24  5  1  0  0  0  0
 25 27  2  0  0  0  0
 27 26  1  0  0  0  0
 27 22  1  0  0  0  0
 28 29  2  0  0  0  0
 29 30  1  0  0  0  0
 30 31  1  0  0  0  0
 31 32  1  0  0  0  0
 32 34  1  0  0  0  0
 33 32  2  0  0  0  0
 34 36  1  0  0  0  0
 35 36  2  0  0  0  0
 36 37  1  0  0  0  0
 37 38  1  0  0  0  0
 39 41  1  0  0  0  0
 40 39  2  0  0  0  0
 41 43  1  0  0  0  0
 43 42  1  0  0  0  0
M  END
>  <MODEL>
1

>  <REMARK>
 VINA RESULT:      -7.0      0.000      0.000
  Name = 
  10 active torsions:
  status: ('A' for Active; 'I' for Inactive)
    1  A    between atoms: C_1  and  C_6
    2  A    between atoms: C_5  and  C_15
    3  A    between atoms: N_10  and  C_24
    4  A    between atoms: C_13  and  O_40
    5  A    between atoms: C_14  and  C_15
    6  A    between atoms: C_14  and  C_24
    7  A    between atoms: C_19  and  C_34
    8  A    between atoms: C_23  and  C_38
    9  A    between atoms: C_23  and  O_40
   10  A    between atoms: C_27  and  C_38
                            x       y       z     vdW  Elec       q    Type
                         _______ _______ _______ _____ _____    ______ ____

>  <TORSDO>
F 10

$$$$
=
 OpenBabel11042412413D

 43 45  0  0  1  0  0  0  0  0999 V2000
  189.4980  178.3920  138.0770 C   0  0  0  0  0  3  0  0  0  0  0  0
  188.0860  175.9120  142.8810 C   0  0  0  0  0  2  0  0  0  0  0  0
  187.3710  178.3510  142.5220 C   0  0  0  0  0  0  0  0  0  0  0  0
  190.4510  178.6620  144.7900 C   0  0  0  0  0  3  0  0  0  0  0  0
  188.5560  177.5850  145.9310 C   0  0  0  0  0  0  0  0  0  0  0  0
  190.7670  176.2190  138.5890 C   0  0  0  0  0  0  0  0  0  0  0  0
  191.3200  175.1900  138.1160 O   0  0  0  0  0  0  0  0  0  0  0  0
  190.1540  177.1720  137.6970 N   0  0  0  0  0  0  0  0  0  0  0  0
  189.3990  175.8910  142.0740 C   0  0  0  0  0  2  0  0  0  0  0  0
  189.3670  176.4570  140.6210 C   0  0  2  0  0  3  0  0  0  0  0  0
  192.0350  178.5790  142.7180 C   0  0  0  0  0  3  0  0  0  0  0  0
  190.7850  176.3910  140.0670 C   0  0  2  0  0  3  0  0  0  0  0  0
  192.1720  177.3220  141.9330 C   0  0  0  0  0  2  0  0  0  0  0  0
  186.6470  176.2720  145.3050 O   0  0  0  0  0  1  0  0  0  0  0  0
  191.2500  178.6170  143.7600 C   0  0  0  0  0  0  0  0  0  0  0  0
  187.4100  177.3890  144.9550 C   0  0  2  0  0  3  0  0  0  0  0  0
  191.7000  177.5380  140.5040 C   0  0  0  0  0  2  0  0  0  0  0  0
  187.8590  177.3090  143.4940 C   0  0  1  0  0  3  0  0  0  0  0  0
  188.0070  178.2720  141.4020 C   0  0  0  0  0  0  0  0  0  0  0  0
  188.9040  178.6780  139.2410 C   0  0  0  0  0  3  0  0  0  0  0  0
  188.7520  177.8380  140.4380 C   0  0  0  0  0  0  0  0  0  0  0  0
  188.3160  177.9590  147.2180 C   0  0  0  0  0  0  0  0  0  0  0  0
  190.3320  176.9860  136.2670 C   0  0  0  0  0  1  0  0  0  0  0  0
  189.9630  177.4000  145.4220 C   0  0  0  0  0  2  0  0  0  0  0  0
  190.6250  177.4420  148.0010 O   0  0  0  0  0  0  0  0  0  0  0  0
  189.2350  178.6850  149.3130 O   0  0  0  0  0  1  0  0  0  0  0  0
  189.3970  178.0510  148.2380 C   0  0  0  0  0  0  0  0  0  0  0  0
  186.0560  179.0090  142.5650 C   0  0  0  0  0  3  0  0  0  0  0  0
  184.9130  178.3410  142.4900 C   0  0  0  0  0  3  0  0  0  0  0  0
  183.6140  179.0630  142.5090 C   0  0  0  0  0  2  0  0  0  0  0  0
  182.5540  178.1860  141.8730 C   0  0  0  0  0  2  0  0  0  0  0  0
  182.4770  178.4530  140.4110 C   0  0  0  0  0  0  0  0  0  0  0  0
  181.1210  179.1540  139.8010 S   0  0  0  0  0  0  0  0  0  0  0  0
  183.5670  178.0290  139.5770 N   0  0  0  0  0  2  0  0  0  0  0  0
  184.5820  180.0970  139.1090 O   0  0  0  0  0  0  0  0  0  0  0  0
  184.5280  178.8550  138.9050 C   0  0  0  0  0  0  0  0  0  0  0  0
  185.5090  178.2230  137.9810 C   0  0  0  0  0  2  0  0  0  0  0  0
  184.8380  177.1170  137.1940 C   0  0  0  0  0  1  0  0  0  0  0  0
  186.9480  178.3110  147.6750 C   0  0  0  0  0  0  0  0  0  0  0  0
  186.3150  177.5410  148.4510 O   0  0  0  0  0  0  0  0  0  0  0  0
  186.3470  179.4850  147.2100 O   0  0  0  0  0  0  0  0  0  0  0  0
  184.3020  178.6880  146.2070 C   0  0  0  0  0  1  0  0  0  0  0  0
  185.5550  179.5230  146.0290 C   0  0  0  0  0  2  0  0  0  0  0  0
  1 20  2  0  0  0  0
  3 28  1  0  0  0  0
  3 18  1  0  0  0  0
  4 24  1  0  0  0  0
  5 22  2  0  0  0  0
  6 12  1  0  0  0  0
  7  6  2  0  0  0  0
  8  1  1  0  0  0  0
  8  6  1  0  0  0  0
  9  2  1  0  0  0  0
 10  9  1  1  0  0  0
 11 15  2  0  0  0  0
 12 17  1  6  0  0  0
 12 10  1  0  0  0  0
 13 11  1  0  0  0  0
 15  4  2  0  0  0  0
 16 14  1  1  0  0  0
 16  5  1  0  0  0  0
 17 13  1  0  0  0  0
 18  2  1  6  0  0  0
 18 16  1  0  0  0  0
 19  3  2  0  0  0  0
 20 21  1  0  0  0  0
 21 10  1  0  0  0  0
 21 19  2  0  0  0  0
 22 39  1  0  0  0  0
 22 27  1  0  0  0  0
 23  8  1  0  0  0  0
 24  5  1  0  0  0  0
 25 27  2  0  0  0  0
 27 26  1  0  0  0  0
 29 30  1  0  0  0  0
 29 28  2  0  0  0  0
 31 30  1  0  0  0  0
 32 31  1  0  0  0  0
 33 32  2  0  0  0  0
 34 32  1  0  0  0  0
 36 35  2  0  0  0  0
 36 34  1  0  0  0  0
 37 36  1  0  0  0  0
 38 37  1  0  0  0  0
 39 40  2  0  0  0  0
 41 39  1  0  0  0  0
 43 42  1  0  0  0  0
 43 41  1  0  0  0  0
M  END
>  <MODEL>
2

>  <REMARK>
 VINA RESULT:      -6.1      3.215      8.044
  Name = 
  10 active torsions:
  status: ('A' for Active; 'I' for Inactive)
    1  A    between atoms: C_1  and  C_6
    2  A    between atoms: C_5  and  C_15
    3  A    between atoms: N_10  and  C_24
    4  A    between atoms: C_13  and  O_40
    5  A    between atoms: C_14  and  C_15
    6  A    between atoms: C_14  and  C_24
    7  A    between atoms: C_19  and  C_34
    8  A    between atoms: C_23  and  C_38
    9  A    between atoms: C_23  and  O_40
   10  A    between atoms: C_27  and  C_38
                            x       y       z     vdW  Elec       q    Type
                         _______ _______ _______ _____ _____    ______ ____

>  <TORSDO>
F 10

$$$$
=
 OpenBabel11042412413D

 43 45  0  0  1  0  0  0  0  0999 V2000
  189.4570  178.3250  137.9690 C   0  0  0  0  0  3  0  0  0  0  0  0
  188.1930  175.8390  142.8100 C   0  0  0  0  0  2  0  0  0  0  0  0
  187.3610  178.2380  142.4280 C   0  0  0  0  0  0  0  0  0  0  0  0
  190.4370  178.7200  144.6710 C   0  0  0  0  0  3  0  0  0  0  0  0
  188.6020  177.5680  145.8370 C   0  0  0  0  0  0  0  0  0  0  0  0
  190.8300  176.2210  138.4970 C   0  0  0  0  0  0  0  0  0  0  0  0
  191.4270  175.2130  138.0330 O   0  0  0  0  0  0  0  0  0  0  0  0
  190.1680  177.1330  137.5980 N   0  0  0  0  0  0  0  0  0  0  0  0
  189.5000  175.8700  141.9950 C   0  0  0  0  0  2  0  0  0  0  0  0
  189.4320  176.4170  140.5350 C   0  0  2  0  0  3  0  0  0  0  0  0
  192.0100  178.6870  142.5900 C   0  0  0  0  0  3  0  0  0  0  0  0
  190.8490  176.4110  139.9730 C   0  0  2  0  0  3  0  0  0  0  0  0
  192.2020  177.4280  141.8180 C   0  0  0  0  0  2  0  0  0  0  0  0
  186.7530  176.1590  145.2390 O   0  0  0  0  0  1  0  0  0  0  0  0
  191.2310  178.7000  143.6370 C   0  0  0  0  0  0  0  0  0  0  0  0
  187.4600  177.3070  144.8710 C   0  0  2  0  0  3  0  0  0  0  0  0
  191.7120  177.6050  140.3910 C   0  0  0  0  0  2  0  0  0  0  0  0
  187.9030  177.2310  143.4080 C   0  0  1  0  0  3  0  0  0  0  0  0
  187.9930  178.1750  141.3040 C   0  0  0  0  0  0  0  0  0  0  0  0
  188.8570  178.5970  139.1330 C   0  0  0  0  0  3  0  0  0  0  0  0
  188.7520  177.7660  140.3410 C   0  0  0  0  0  0  0  0  0  0  0  0
  188.3530  177.9460  147.1220 C   0  0  0  0  0  0  0  0  0  0  0  0
  190.3450  176.9380  136.1690 C   0  0  0  0  0  1  0  0  0  0  0  0
  190.0130  177.4440  145.3210 C   0  0  0  0  0  2  0  0  0  0  0  0
  190.5240  177.2380  148.1170 O   0  0  0  0  0  0  0  0  0  0  0  0
  189.3970  179.0110  149.0010 O   0  0  0  0  0  1  0  0  0  0  0  0
  189.4340  178.1010  148.1330 C   0  0  0  0  0  0  0  0  0  0  0  0
  186.0170  178.8330  142.4720 C   0  0  0  0  0  3  0  0  0  0  0  0
  184.9380  178.2140  142.0140 C   0  0  0  0  0  3  0  0  0  0  0  0
  183.6100  178.8770  142.0590 C   0  0  0  0  0  2  0  0  0  0  0  0
  183.1010  179.0570  140.6430 C   0  0  0  0  0  2  0  0  0  0  0  0
  181.6310  178.8260  140.5920 C   0  0  0  0  0  0  0  0  0  0  0  0
  180.8790  178.8120  139.1310 S   0  0  0  0  0  0  0  0  0  0  0  0
  180.9150  178.6860  141.8290 N   0  0  0  0  0  2  0  0  0  0  0  0
  179.9960  180.8390  142.0420 O   0  0  0  0  0  0  0  0  0  0  0  0
  180.1920  179.6980  142.5410 C   0  0  0  0  0  0  0  0  0  0  0  0
  179.6220  179.3800  143.8780 C   0  0  0  0  0  2  0  0  0  0  0  0
  179.9630  177.9540  144.2580 C   0  0  0  0  0  1  0  0  0  0  0  0
  186.9720  178.2390  147.5830 C   0  0  0  0  0  0  0  0  0  0  0  0
  186.6140  177.9400  148.7570 O   0  0  0  0  0  0  0  0  0  0  0  0
  186.0560  178.8150  146.6970 O   0  0  0  0  0  0  0  0  0  0  0  0
  184.0000  178.8910  145.4360 C   0  0  0  0  0  1  0  0  0  0  0  0
  184.6610  178.5420  146.7550 C   0  0  0  0  0  2  0  0  0  0  0  0
  1 20  2  0  0  0  0
  3 28  1  0  0  0  0
  3 18  1  0  0  0  0
  4 24  1  0  0  0  0
  5 22  2  0  0  0  0
  6 12  1  0  0  0  0
  7  6  2  0  0  0  0
  8  1  1  0  0  0  0
  8  6  1  0  0  0  0
  9  2  1  0  0  0  0
 10  9  1  1  0  0  0
 11 15  2  0  0  0  0
 12 17  1  6  0  0  0
 12 10  1  0  0  0  0
 13 11  1  0  0  0  0
 15  4  2  0  0  0  0
 16 14  1  1  0  0  0
 16  5  1  0  0  0  0
 17 13  1  0  0  0  0
 18  2  1  6  0  0  0
 18 16  1  0  0  0  0
 19  3  2  0  0  0  0
 20 21  1  0  0  0  0
 21 10  1  0  0  0  0
 21 19  2  0  0  0  0
 22 39  1  0  0  0  0
 22 27  1  0  0  0  0
 23  8  1  0  0  0  0
 24  5  1  0  0  0  0
 25 27  2  0  0  0  0
 27 26  1  0  0  0  0
 29 30  1  0  0  0  0
 29 28  2  0  0  0  0
 31 30  1  0  0  0  0
 32 31  1  0  0  0  0
 32 34  1  0  0  0  0
 33 32  2  0  0  0  0
 34 36  1  0  0  0  0
 35 36  2  0  0  0  0
 36 37  1  0  0  0  0
 37 38  1  0  0  0  0
 39 40  2  0  0  0  0
 41 43  1  0  0  0  0
 41 39  1  0  0  0  0
 42 43  1  0  0  0  0
M  END
>  <MODEL>
3

>  <REMARK>
 VINA RESULT:      -5.7      3.974      8.058
  Name = 
  10 active torsions:
  status: ('A' for Active; 'I' for Inactive)
    1  A    between atoms: C_1  and  C_6
    2  A    between atoms: C_5  and  C_15
    3  A    between atoms: N_10  and  C_24
    4  A    between atoms: C_13  and  O_40
    5  A    between atoms: C_14  and  C_15
    6  A    between atoms: C_14  and  C_24
    7  A    between atoms: C_19  and  C_34
    8  A    between atoms: C_23  and  C_38
    9  A    between atoms: C_23  and  O_40
   10  A    between atoms: C_27  and  C_38
                            x       y       z     vdW  Elec       q    Type
                         _______ _______ _______ _____ _____    ______ ____

>  <TORSDO>
F 10

$$$$
=
 OpenBabel11042412413D

 43 45  0  0  1  0  0  0  0  0999 V2000
  180.2490  178.1560  136.1130 C   0  0  0  0  0  3  0  0  0  0  0  0
  184.5060  180.1220  139.1520 C   0  0  0  0  0  2  0  0  0  0  0  0
  184.3460  177.5850  138.7910 C   0  0  0  0  0  0  0  0  0  0  0  0
  182.9530  178.0610  142.3360 C   0  0  0  0  0  3  0  0  0  0  0  0
  185.3510  178.5920  142.1960 C   0  0  0  0  0  0  0  0  0  0  0  0
  179.9760  180.5780  136.9210 C   0  0  0  0  0  0  0  0  0  0  0  0
  179.5080  181.7220  136.6720 O   0  0  0  0  0  0  0  0  0  0  0  0
  179.7890  179.5100  135.9720 N   0  0  0  0  0  0  0  0  0  0  0  0
  183.0110  180.4950  139.1370 C   0  0  0  0  0  2  0  0  0  0  0  0
  182.1400  179.9580  137.9590 C   0  0  2  0  0  3  0  0  0  0  0  0
  180.5820  178.5790  141.3780 C   0  0  0  0  0  3  0  0  0  0  0  0
  180.7030  180.3980  138.2080 C   0  0  2  0  0  3  0  0  0  0  0  0
  180.3410  179.8380  140.6210 C   0  0  0  0  0  2  0  0  0  0  0  0
  186.8810  179.3700  140.5180 O   0  0  0  0  0  1  0  0  0  0  0  0
  181.7660  178.3250  141.8650 C   0  0  0  0  0  0  0  0  0  0  0  0
  185.8180  178.4950  140.7540 C   0  0  2  0  0  3  0  0  0  0  0  0
  179.9240  179.5240  139.1940 C   0  0  0  0  0  2  0  0  0  0  0  0
  184.6970  178.7070  139.7340 C   0  0  1  0  0  3  0  0  0  0  0  0
  183.2520  177.8420  138.1560 C   0  0  0  0  0  0  0  0  0  0  0  0
  181.2840  177.7100  136.8330 C   0  0  0  0  0  3  0  0  0  0  0  0
  182.2320  178.4670  137.6650 C   0  0  0  0  0  0  0  0  0  0  0  0
  186.1420  178.1530  143.2140 C   0  0  0  0  0  0  0  0  0  0  0  0
  178.9310  179.7530  134.8240 C   0  0  0  0  0  1  0  0  0  0  0  0
  183.9730  179.1440  142.4610 C   0  0  0  0  0  2  0  0  0  0  0  0
  186.0920  177.3440  145.5700 O   0  0  0  0  0  1  0  0  0  0  0  0
  185.1960  179.3740  145.0490 O   0  0  0  0  0  0  0  0  0  0  0  0
  185.7760  178.3330  144.6450 C   0  0  0  0  0  0  0  0  0  0  0  0
  185.2950  176.6080  138.2380 C   0  0  0  0  0  3  0  0  0  0  0  0
  186.1320  176.8940  137.2520 C   0  0  0  0  0  3  0  0  0  0  0  0
  187.0490  175.8560  136.7130 C   0  0  0  0  0  2  0  0  0  0  0  0
  188.4070  176.4800  136.4600 C   0  0  0  0  0  2  0  0  0  0  0  0
  189.4520  175.4240  136.3880 C   0  0  0  0  0  0  0  0  0  0  0  0
  188.9980  173.8760  136.0720 S   0  0  0  0  0  0  0  0  0  0  0  0
  190.8150  175.7870  136.6620 N   0  0  0  0  0  2  0  0  0  0  0  0
  190.8000  175.7820  139.0120 O   0  0  0  0  0  0  0  0  0  0  0  0
  191.4180  176.0210  137.9410 C   0  0  0  0  0  0  0  0  0  0  0  0
  192.8210  176.5150  138.0030 C   0  0  0  0  0  2  0  0  0  0  0  0
  193.7830  175.3520  137.8850 C   0  0  0  0  0  1  0  0  0  0  0  0
  187.4220  177.4510  142.9450 C   0  0  0  0  0  0  0  0  0  0  0  0
  187.4490  176.1930  142.8270 O   0  0  0  0  0  0  0  0  0  0  0  0
  188.6090  178.1870  142.8600 O   0  0  0  0  0  0  0  0  0  0  0  0
  191.0100  177.9640  142.9320 C   0  0  0  0  0  1  0  0  0  0  0  0
  189.7160  177.9550  143.7220 C   0  0  0  0  0  2  0  0  0  0  0  0
  1 20  2  0  0  0  0
  3 18  1  0  0  0  0
  4 24  1  0  0  0  0
  5 24  1  0  0  0  0
  5 22  2  0  0  0  0
  6 12  1  0  0  0  0
  7  6  2  0  0  0  0
  8  1  1  0  0  0  0
  8  6  1  0  0  0  0
  9  2  1  0  0  0  0
 10 12  1  0  0  0  0
 10  9  1  1  0  0  0
 11 15  2  0  0  0  0
 12 17  1  1  0  0  0
 13 11  1  0  0  0  0
 15  4  2  0  0  0  0
 16 14  1  6  0  0  0
 16  5  1  0  0  0  0
 17 13  1  0  0  0  0
 18  2  1  6  0  0  0
 18 16  1  0  0  0  0
 19  3  2  0  0  0  0
 20 21  1  0  0  0  0
 21 10  1  0  0  0  0
 21 19  2  0  0  0  0
 22 27  1  0  0  0  0
 23  8  1  0  0  0  0
 27 26  2  0  0  0  0
 27 25  1  0  0  0  0
 28  3  1  0  0  0  0
 29 28  2  0  0  0  0
 30 29  1  0  0  0  0
 31 30  1  0  0  0  0
 32 31  1  0  0  0  0
 32 34  1  0  0  0  0
 33 32  2  0  0  0  0
 34 36  1  0  0  0  0
 36 37  1  0  0  0  0
 36 35  2  0  0  0  0
 38 37  1  0  0  0  0
 39 22  1  0  0  0  0
 40 39  2  0  0  0  0
 41 39  1  0  0  0  0
 41 43  1  0  0  0  0
 42 43  1  0  0  0  0
M  END
>  <MODEL>
4

>  <REMARK>
 VINA RESULT:      -4.5      3.699      9.130
  Name = 
  10 active torsions:
  status: ('A' for Active; 'I' for Inactive)
    1  A    between atoms: C_1  and  C_6
    2  A    between atoms: C_5  and  C_15
    3  A    between atoms: N_10  and  C_24
    4  A    between atoms: C_13  and  O_40
    5  A    between atoms: C_14  and  C_15
    6  A    between atoms: C_14  and  C_24
    7  A    between atoms: C_19  and  C_34
    8  A    between atoms: C_23  and  C_38
    9  A    between atoms: C_23  and  O_40
   10  A    between atoms: C_27  and  C_38
                            x       y       z     vdW  Elec       q    Type
                         _______ _______ _______ _____ _____    ______ ____

>  <TORSDO>
F 10

$$$$
=
 OpenBabel11042412413D

 43 45  0  0  1  0  0  0  0  0999 V2000
  187.2600  177.1120  147.5200 C   0  0  0  0  0  3  0  0  0  0  0  0
  189.2310  179.4040  142.8200 C   0  0  0  0  0  2  0  0  0  0  0  0
  187.2700  177.7580  142.6340 C   0  0  0  0  0  0  0  0  0  0  0  0
  190.3040  175.6290  141.6390 C   0  0  0  0  0  3  0  0  0  0  0  0
  189.8290  177.4020  140.0000 C   0  0  0  0  0  0  0  0  0  0  0  0
  189.5630  178.2260  147.7410 C   0  0  0  0  0  0  0  0  0  0  0  0
  190.3560  178.8590  148.4880 O   0  0  0  0  0  0  0  0  0  0  0  0
  188.2660  177.8420  148.2390 N   0  0  0  0  0  0  0  0  0  0  0  0
  189.9560  178.8260  144.0510 C   0  0  0  0  0  2  0  0  0  0  0  0
  189.1040  178.5280  145.3230 C   0  0  2  0  0  3  0  0  0  0  0  0
  190.8080  175.1040  144.1450 C   0  0  0  0  0  3  0  0  0  0  0  0
  190.0260  177.9040  146.3630 C   0  0  2  0  0  3  0  0  0  0  0  0
  191.2860  176.1820  145.0520 C   0  0  0  0  0  2  0  0  0  0  0  0
  188.8210  179.5800  140.0140 O   0  0  0  0  0  1  0  0  0  0  0  0
  190.5650  175.3650  142.8890 C   0  0  0  0  0  0  0  0  0  0  0  0
  188.6940  178.2770  140.5020 C   0  0  2  0  0  3  0  0  0  0  0  0
  190.2880  176.4070  146.1760 C   0  0  0  0  0  2  0  0  0  0  0  0
  188.5470  178.2740  142.0250 C   0  0  1  0  0  3  0  0  0  0  0  0
  187.3910  177.6190  143.9120 C   0  0  0  0  0  0  0  0  0  0  0  0
  187.0780  177.0490  146.1960 C   0  0  0  0  0  3  0  0  0  0  0  0
  187.8400  177.7030  145.1220 C   0  0  0  0  0  0  0  0  0  0  0  0
  189.9180  177.0660  138.6840 C   0  0  0  0  0  0  0  0  0  0  0  0
  187.9780  178.0670  149.6460 C   0  0  0  0  0  1  0  0  0  0  0  0
  190.8210  176.8790  141.0080 C   0  0  0  0  0  2  0  0  0  0  0  0
  191.0050  174.9230  138.0230 O   0  0  0  0  0  1  0  0  0  0  0  0
  192.1150  176.8930  137.7340 O   0  0  0  0  0  0  0  0  0  0  0  0
  191.0730  176.3080  138.1290 C   0  0  0  0  0  0  0  0  0  0  0  0
  185.9300  177.8860  142.0420 C   0  0  0  0  0  3  0  0  0  0  0  0
  184.9110  178.4480  142.6770 C   0  0  0  0  0  3  0  0  0  0  0  0
  183.5710  178.5230  142.0390 C   0  0  0  0  0  2  0  0  0  0  0  0
  182.5650  179.0120  143.0610 C   0  0  0  0  0  2  0  0  0  0  0  0
  181.1800  178.8000  142.5610 C   0  0  0  0  0  0  0  0  0  0  0  0
  179.9830  178.4890  143.6430 S   0  0  0  0  0  0  0  0  0  0  0  0
  180.9530  178.8130  141.1420 N   0  0  0  0  0  2  0  0  0  0  0  0
  180.0550  180.9680  140.8690 O   0  0  0  0  0  0  0  0  0  0  0  0
  180.3430  179.8510  140.3630 C   0  0  0  0  0  0  0  0  0  0  0  0
  180.0850  179.6160  138.9160 C   0  0  0  0  0  2  0  0  0  0  0  0
  181.3960  179.5550  138.1620 C   0  0  0  0  0  1  0  0  0  0  0  0
  188.8480  177.4330  137.7220 C   0  0  0  0  0  0  0  0  0  0  0  0
  189.0380  178.3490  136.8740 O   0  0  0  0  0  0  0  0  0  0  0  0
  187.6120  176.7810  137.7840 O   0  0  0  0  0  0  0  0  0  0  0  0
  185.7460  178.2410  138.2450 C   0  0  0  0  0  1  0  0  0  0  0  0
  186.4250  177.3390  137.2330 C   0  0  0  0  0  2  0  0  0  0  0  0
  1  8  1  0  0  0  0
  2  9  1  0  0  0  0
  3 19  2  0  0  0  0
  4 15  2  0  0  0  0
  5 16  1  0  0  0  0
  5 24  1  0  0  0  0
  6  8  1  0  0  0  0
  6  7  2  0  0  0  0
  8 23  1  0  0  0  0
 10  9  1  6  0  0  0
 10 12  1  0  0  0  0
 11 13  1  0  0  0  0
 12 17  1  1  0  0  0
 12  6  1  0  0  0  0
 13 17  1  0  0  0  0
 15 11  2  0  0  0  0
 16 14  1  1  0  0  0
 16 18  1  0  0  0  0
 18  3  1  0  0  0  0
 18  2  1  6  0  0  0
 19 21  2  0  0  0  0
 20  1  2  0  0  0  0
 21 10  1  0  0  0  0
 21 20  1  0  0  0  0
 22  5  2  0  0  0  0
 24  4  1  0  0  0  0
 25 27  1  0  0  0  0
 26 27  2  0  0  0  0
 27 22  1  0  0  0  0
 28  3  1  0  0  0  0
 28 29  2  0  0  0  0
 30 29  1  0  0  0  0
 30 31  1  0  0  0  0
 32 31  1  0  0  0  0
 32 33  2  0  0  0  0
 34 32  1  0  0  0  0
 36 35  2  0  0  0  0
 36 34  1  0  0  0  0
 37 36  1  0  0  0  0
 38 37  1  0  0  0  0
 39 41  1  0  0  0  0
 39 22  1  0  0  0  0
 40 39  2  0  0  0  0
 43 41  1  0  0  0  0
 43 42  1  0  0  0  0
M  END
>  <MODEL>
5

>  <REMARK>
 VINA RESULT:      -4.4      3.714      8.759
  Name = 
  10 active torsions:
  status: ('A' for Active; 'I' for Inactive)
    1  A    between atoms: C_1  and  C_6
    2  A    between atoms: C_5  and  C_15
    3  A    between atoms: N_10  and  C_24
    4  A    between atoms: C_13  and  O_40
    5  A    between atoms: C_14  and  C_15
    6  A    between atoms: C_14  and  C_24
    7  A    between atoms: C_19  and  C_34
    8  A    between atoms: C_23  and  C_38
    9  A    between atoms: C_23  and  O_40
   10  A    between atoms: C_27  and  C_38
                            x       y       z     vdW  Elec       q    Type
                         _______ _______ _______ _____ _____    ______ ____

>  <TORSDO>
F 10

$$$$
=
 OpenBabel11042412413D

 43 45  0  0  1  0  0  0  0  0999 V2000
  184.3230  178.8690  138.5130 C   0  0  0  0  0  3  0  0  0  0  0  0
  188.2700  174.9690  137.8560 C   0  0  0  0  0  2  0  0  0  0  0  0
  188.9120  177.1520  139.0450 C   0  0  0  0  0  0  0  0  0  0  0  0
  190.2750  177.6500  135.4920 C   0  0  0  0  0  3  0  0  0  0  0  0
  191.4620  175.8690  136.7070 C   0  0  0  0  0  0  0  0  0  0  0  0
  183.7620  177.0360  136.8040 C   0  0  0  0  0  0  0  0  0  0  0  0
  182.8580  176.3380  136.2720 O   0  0  0  0  0  0  0  0  0  0  0  0
  183.4150  177.9960  137.8220 N   0  0  0  0  0  0  0  0  0  0  0  0
  187.1870  175.4910  136.8920 C   0  0  0  0  0  2  0  0  0  0  0  0
  186.0530  176.3820  137.4880 C   0  0  2  0  0  3  0  0  0  0  0  0
  187.9500  178.5060  134.6760 C   0  0  0  0  0  3  0  0  0  0  0  0
  185.1590  176.8240  136.3360 C   0  0  2  0  0  3  0  0  0  0  0  0
  186.7960  177.5700  134.5940 C   0  0  0  0  0  2  0  0  0  0  0  0
  190.9670  174.3170  138.4690 O   0  0  0  0  0  1  0  0  0  0  0  0
  189.1150  178.0750  135.0750 C   0  0  0  0  0  0  0  0  0  0  0  0
  190.8080  175.6430  138.0580 C   0  0  2  0  0  3  0  0  0  0  0  0
  185.6870  178.0160  135.5330 C   0  0  0  0  0  2  0  0  0  0  0  0
  189.3350  176.0570  138.1010 C   0  0  1  0  0  3  0  0  0  0  0  0
  187.7000  177.5270  138.8030 C   0  0  0  0  0  0  0  0  0  0  0  0
  185.6290  178.6870  138.7360 C   0  0  0  0  0  3  0  0  0  0  0  0
  186.4900  177.5590  138.3490 C   0  0  0  0  0  0  0  0  0  0  0  0
  192.8170  175.8280  136.5750 C   0  0  0  0  0  0  0  0  0  0  0  0
  182.0060  178.2330  138.0910 C   0  0  0  0  0  1  0  0  0  0  0  0
  190.5730  176.1870  135.5310 C   0  0  0  0  0  2  0  0  0  0  0  0
  193.7710  177.1810  134.7120 O   0  0  0  0  0  1  0  0  0  0  0  0
  193.8410  174.9050  134.6110 O   0  0  0  0  0  0  0  0  0  0  0  0
  193.4930  175.9300  135.2530 C   0  0  0  0  0  0  0  0  0  0  0  0
  189.5040  177.4180  140.3640 C   0  0  0  0  0  3  0  0  0  0  0  0
  189.6220  176.4890  141.3020 C   0  0  0  0  0  3  0  0  0  0  0  0
  190.2020  176.8240  142.6280 C   0  0  0  0  0  2  0  0  0  0  0  0
  189.4980  178.0470  143.1800 C   0  0  0  0  0  2  0  0  0  0  0  0
  189.0690  177.8030  144.5850 C   0  0  0  0  0  0  0  0  0  0  0  0
  190.1110  177.0590  145.6150 S   0  0  0  0  0  0  0  0  0  0  0  0
  187.7350  178.1720  144.9690 N   0  0  0  0  0  2  0  0  0  0  0  0
  186.5060  177.2690  143.1810 O   0  0  0  0  0  0  0  0  0  0  0  0
  186.5230  177.9610  144.2340 C   0  0  0  0  0  0  0  0  0  0  0  0
  185.2500  178.5340  144.7510 C   0  0  0  0  0  2  0  0  0  0  0  0
  185.5100  179.2870  146.0380 C   0  0  0  0  0  1  0  0  0  0  0  0
  193.7010  175.6900  137.7590 C   0  0  0  0  0  0  0  0  0  0  0  0
  193.7880  176.6250  138.6040 O   0  0  0  0  0  0  0  0  0  0  0  0
  194.4700  174.5320  137.9150 O   0  0  0  0  0  0  0  0  0  0  0  0
  196.8390  174.7120  137.4960 C   0  0  0  0  0  1  0  0  0  0  0  0
  195.7490  174.5410  138.5360 C   0  0  0  0  0  2  0  0  0  0  0  0
  1 20  2  0  0  0  0
  3 28  1  0  0  0  0
  4 24  1  0  0  0  0
  5 16  1  0  0  0  0
  6  8  1  0  0  0  0
  7  6  2  0  0  0  0
  8 23  1  0  0  0  0
  8  1  1  0  0  0  0
  9  2  1  0  0  0  0
 10  9  1  6  0  0  0
 10 21  1  0  0  0  0
 11 15  2  0  0  0  0
 12 17  1  1  0  0  0
 12  6  1  0  0  0  0
 12 10  1  0  0  0  0
 13 11  1  0  0  0  0
 13 17  1  0  0  0  0
 15  4  2  0  0  0  0
 16 18  1  0  0  0  0
 16 14  1  6  0  0  0
 18  2  1  1  0  0  0
 18  3  1  0  0  0  0
 19  3  2  0  0  0  0
 21 20  1  0  0  0  0
 21 19  2  0  0  0  0
 22  5  2  0  0  0  0
 22 39  1  0  0  0  0
 24  5  1  0  0  0  0
 25 27  1  0  0  0  0
 26 27  2  0  0  0  0
 27 22  1  0  0  0  0
 28 29  2  0  0  0  0
 29 30  1  0  0  0  0
 30 31  1  0  0  0  0
 31 32  1  0  0  0  0
 32 34  1  0  0  0  0
 32 33  2  0  0  0  0
 35 36  2  0  0  0  0
 36 37  1  0  0  0  0
 36 34  1  0  0  0  0
 37 38  1  0  0  0  0
 39 41  1  0  0  0  0
 39 40  2  0  0  0  0
 41 43  1  0  0  0  0
 42 43  1  0  0  0  0
M  END
>  <MODEL>
6

>  <REMARK>
 VINA RESULT:      -4.3      2.580      7.233
  Name = 
  10 active torsions:
  status: ('A' for Active; 'I' for Inactive)
    1  A    between atoms: C_1  and  C_6
    2  A    between atoms: C_5  and  C_15
    3  A    between atoms: N_10  and  C_24
    4  A    between atoms: C_13  and  O_40
    5  A    between atoms: C_14  and  C_15
    6  A    between atoms: C_14  and  C_24
    7  A    between atoms: C_19  and  C_34
    8  A    between atoms: C_23  and  C_38
    9  A    between atoms: C_23  and  O_40
   10  A    between atoms: C_27  and  C_38
                            x       y       z     vdW  Elec       q    Type
                         _______ _______ _______ _____ _____    ______ ____

>  <TORSDO>
F 10

$$$$
=
 OpenBabel11042412413D

 43 45  0  0  1  0  0  0  0  0999 V2000
  187.2710  177.1520  147.4820 C   0  0  0  0  0  3  0  0  0  0  0  0
  189.3330  179.4050  142.8030 C   0  0  0  0  0  2  0  0  0  0  0  0
  187.3340  177.8060  142.5980 C   0  0  0  0  0  0  0  0  0  0  0  0
  190.3250  175.6080  141.6230 C   0  0  0  0  0  3  0  0  0  0  0  0
  189.9050  177.3950  139.9840 C   0  0  0  0  0  0  0  0  0  0  0  0
  189.5970  178.2110  147.7230 C   0  0  0  0  0  0  0  0  0  0  0  0
  190.3980  178.8240  148.4780 O   0  0  0  0  0  0  0  0  0  0  0  0
  188.2880  177.8560  148.2110 N   0  0  0  0  0  0  0  0  0  0  0  0
  190.0340  178.8080  144.0380 C   0  0  0  0  0  2  0  0  0  0  0  0
  189.1640  178.5280  145.3030 C   0  0  2  0  0  3  0  0  0  0  0  0
  190.7970  175.0670  144.1310 C   0  0  0  0  0  3  0  0  0  0  0  0
  190.0640  177.8810  146.3490 C   0  0  2  0  0  3  0  0  0  0  0  0
  191.2930  176.1320  145.0450 C   0  0  0  0  0  2  0  0  0  0  0  0
  188.9490  179.5960  139.9940 O   0  0  0  0  0  1  0  0  0  0  0  0
  190.5700  175.3360  142.8740 C   0  0  0  0  0  0  0  0  0  0  0  0
  188.7870  178.2950  140.4780 C   0  0  2  0  0  3  0  0  0  0  0  0
  190.2910  176.3790  146.1610 C   0  0  0  0  0  2  0  0  0  0  0  0
  188.6280  178.2930  142.0000 C   0  0  1  0  0  3  0  0  0  0  0  0
  187.4420  177.6620  143.8760 C   0  0  0  0  0  0  0  0  0  0  0  0
  187.0980  177.0960  146.1570 C   0  0  0  0  0  3  0  0  0  0  0  0
  187.8830  177.7340  145.0900 C   0  0  0  0  0  0  0  0  0  0  0  0
  189.9980  177.0590  138.6670 C   0  0  0  0  0  0  0  0  0  0  0  0
  187.9930  178.0860  149.6160 C   0  0  0  0  0  1  0  0  0  0  0  0
  190.8770  176.8470  140.9980 C   0  0  0  0  0  2  0  0  0  0  0  0
  191.0510  174.8900  138.0400 O   0  0  0  0  0  1  0  0  0  0  0  0
  192.1870  176.8390  137.7090 O   0  0  0  0  0  0  0  0  0  0  0  0
  191.1380  176.2760  138.1210 C   0  0  0  0  0  0  0  0  0  0  0  0
  186.0030  177.9670  141.9960 C   0  0  0  0  0  3  0  0  0  0  0  0
  184.9740  178.4900  142.6480 C   0  0  0  0  0  3  0  0  0  0  0  0
  183.6430  178.6000  141.9960 C   0  0  0  0  0  2  0  0  0  0  0  0
  183.6730  177.8430  140.6830 C   0  0  0  0  0  2  0  0  0  0  0  0
  182.2870  177.5310  140.2380 C   0  0  0  0  0  0  0  0  0  0  0  0
  182.0620  176.3780  139.0900 S   0  0  0  0  0  0  0  0  0  0  0  0
  181.2020  178.2970  140.7860 N   0  0  0  0  0  2  0  0  0  0  0  0
  181.1550  180.1100  139.2920 O   0  0  0  0  0  0  0  0  0  0  0  0
  180.7240  179.5750  140.3480 C   0  0  0  0  0  0  0  0  0  0  0  0
  179.6630  180.2630  141.1340 C   0  0  0  0  0  2  0  0  0  0  0  0
  179.9420  180.1170  142.6150 C   0  0  0  0  0  1  0  0  0  0  0  0
  188.9440  177.4530  137.6980 C   0  0  0  0  0  0  0  0  0  0  0  0
  189.1320  178.4200  136.9070 O   0  0  0  0  0  0  0  0  0  0  0  0
  187.7240  176.7690  137.6890 O   0  0  0  0  0  0  0  0  0  0  0  0
  185.8190  178.2250  137.9660 C   0  0  0  0  0  1  0  0  0  0  0  0
  186.5650  177.2810  137.0430 C   0  0  0  0  0  2  0  0  0  0  0  0
  1  8  1  0  0  0  0
  2  9  1  0  0  0  0
  3 19  2  0  0  0  0
  4 15  2  0  0  0  0
  5 16  1  0  0  0  0
  5 24  1  0  0  0  0
  6  8  1  0  0  0  0
  6  7  2  0  0  0  0
  8 23  1  0  0  0  0
 10  9  1  6  0  0  0
 10 12  1  0  0  0  0
 11 13  1  0  0  0  0
 12 17  1  6  0  0  0
 12  6  1  0  0  0  0
 13 17  1  0  0  0  0
 15 11  2  0  0  0  0
 16 14  1  1  0  0  0
 16 18  1  0  0  0  0
 18  3  1  0  0  0  0
 18  2  1  6  0  0  0
 19 21  2  0  0  0  0
 20  1  2  0  0  0  0
 21 10  1  0  0  0  0
 21 20  1  0  0  0  0
 22  5  2  0  0  0  0
 24  4  1  0  0  0  0
 25 27  1  0  0  0  0
 26 27  2  0  0  0  0
 27 22  1  0  0  0  0
 28  3  1  0  0  0  0
 28 29  2  0  0  0  0
 30 29  1  0  0  0  0
 31 30  1  0  0  0  0
 32 31  1  0  0  0  0
 32 34  1  0  0  0  0
 33 32  2  0  0  0  0
 35 36  2  0  0  0  0
 36 34  1  0  0  0  0
 36 37  1  0  0  0  0
 37 38  1  0  0  0  0
 39 22  1  0  0  0  0
 40 39  2  0  0  0  0
 41 39  1  0  0  0  0
 43 41  1  0  0  0  0
 43 42  1  0  0  0  0
M  END
>  <MODEL>
7

>  <REMARK>
 VINA RESULT:      -4.2      3.535      8.584
  Name = 
  10 active torsions:
  status: ('A' for Active; 'I' for Inactive)
    1  A    between atoms: C_1  and  C_6
    2  A    between atoms: C_5  and  C_15
    3  A    between atoms: N_10  and  C_24
    4  A    between atoms: C_13  and  O_40
    5  A    between atoms: C_14  and  C_15
    6  A    between atoms: C_14  and  C_24
    7  A    between atoms: C_19  and  C_34
    8  A    between atoms: C_23  and  C_38
    9  A    between atoms: C_23  and  O_40
   10  A    between atoms: C_27  and  C_38
                            x       y       z     vdW  Elec       q    Type
                         _______ _______ _______ _____ _____    ______ ____

>  <TORSDO>
F 10

$$$$
=
 OpenBabel11042412413D

 43 45  0  0  1  0  0  0  0  0999 V2000
  187.2190  177.1560  147.4930 C   0  0  0  0  0  3  0  0  0  0  0  0
  189.2540  179.3840  142.7900 C   0  0  0  0  0  2  0  0  0  0  0  0
  187.2760  177.7590  142.6020 C   0  0  0  0  0  0  0  0  0  0  0  0
  190.2940  175.5870  141.6510 C   0  0  0  0  0  3  0  0  0  0  0  0
  189.8520  177.3510  139.9930 C   0  0  0  0  0  0  0  0  0  0  0  0
  189.5320  178.2470  147.7230 C   0  0  0  0  0  0  0  0  0  0  0  0
  190.3250  178.8780  148.4720 O   0  0  0  0  0  0  0  0  0  0  0  0
  188.2270  177.8810  148.2150 N   0  0  0  0  0  0  0  0  0  0  0  0
  189.9620  178.8090  144.0320 C   0  0  0  0  0  2  0  0  0  0  0  0
  189.0960  178.5320  145.3000 C   0  0  2  0  0  3  0  0  0  0  0  0
  190.7710  175.0790  144.1660 C   0  0  0  0  0  3  0  0  0  0  0  0
  190.0030  177.9070  146.3530 C   0  0  2  0  0  3  0  0  0  0  0  0
  191.2540  176.1600  145.0680 C   0  0  0  0  0  2  0  0  0  0  0  0
  188.8700  179.5400  139.9790 O   0  0  0  0  0  1  0  0  0  0  0  0
  190.5420  175.3320  142.9060 C   0  0  0  0  0  0  0  0  0  0  0  0
  188.7230  178.2430  140.4770 C   0  0  2  0  0  3  0  0  0  0  0  0
  190.2490  176.4060  146.1810 C   0  0  0  0  0  2  0  0  0  0  0  0
  188.5640  178.2550  141.9990 C   0  0  1  0  0  3  0  0  0  0  0  0
  187.3850  177.6300  143.8820 C   0  0  0  0  0  0  0  0  0  0  0  0
  187.0470  177.0840  146.1680 C   0  0  0  0  0  3  0  0  0  0  0  0
  187.8240  177.7200  145.0950 C   0  0  0  0  0  0  0  0  0  0  0  0
  189.9490  177.0020  138.6800 C   0  0  0  0  0  0  0  0  0  0  0  0
  187.9290  178.1230  149.6170 C   0  0  0  0  0  1  0  0  0  0  0  0
  190.8310  176.8250  141.0140 C   0  0  0  0  0  2  0  0  0  0  0  0
  192.2550  176.8900  137.7410 O   0  0  0  0  0  0  0  0  0  0  0  0
  191.0640  174.9710  138.0550 O   0  0  0  0  0  1  0  0  0  0  0  0
  191.1000  176.2270  138.1430 C   0  0  0  0  0  0  0  0  0  0  0  0
  185.9420  177.8960  141.9980 C   0  0  0  0  0  3  0  0  0  0  0  0
  184.9400  178.5230  142.5970 C   0  0  0  0  0  3  0  0  0  0  0  0
  183.6050  178.6050  141.9490 C   0  0  0  0  0  2  0  0  0  0  0  0
  183.5720  177.6590  140.7660 C   0  0  0  0  0  2  0  0  0  0  0  0
  182.4290  177.9920  139.8730 C   0  0  0  0  0  0  0  0  0  0  0  0
  182.4410  179.4260  139.0700 S   0  0  0  0  0  0  0  0  0  0  0  0
  181.3280  177.0740  139.7960 N   0  0  0  0  0  2  0  0  0  0  0  0
  179.9560  177.9000  141.5160 O   0  0  0  0  0  0  0  0  0  0  0  0
  180.1790  177.0120  140.6510 C   0  0  0  0  0  0  0  0  0  0  0  0
  179.2060  175.8980  140.4810 C   0  0  0  0  0  2  0  0  0  0  0  0
  179.8540  174.7580  139.7240 C   0  0  0  0  0  1  0  0  0  0  0  0
  188.8920  177.3720  137.7060 C   0  0  0  0  0  0  0  0  0  0  0  0
  189.0690  178.3320  136.9040 O   0  0  0  0  0  0  0  0  0  0  0  0
  187.6790  176.6750  137.7070 O   0  0  0  0  0  0  0  0  0  0  0  0
  185.8840  178.2490  138.0620 C   0  0  0  0  0  1  0  0  0  0  0  0
  186.4900  177.2090  137.1390 C   0  0  0  0  0  2  0  0  0  0  0  0
  1  8  1  0  0  0  0
  2  9  1  0  0  0  0
  3 19  2  0  0  0  0
  4 15  2  0  0  0  0
  5 16  1  0  0  0  0
  5 24  1  0  0  0  0
  6  8  1  0  0  0  0
  6  7  2  0  0  0  0
  8 23  1  0  0  0  0
 10  9  1  6  0  0  0
 10 12  1  0  0  0  0
 11 13  1  0  0  0  0
 12 17  1  1  0  0  0
 12  6  1  0  0  0  0
 13 17  1  0  0  0  0
 15 11  2  0  0  0  0
 16 14  1  1  0  0  0
 16 18  1  0  0  0  0
 18  3  1  0  0  0  0
 18  2  1  6  0  0  0
 19 21  2  0  0  0  0
 20  1  2  0  0  0  0
 21 10  1  0  0  0  0
 21 20  1  0  0  0  0
 22  5  2  0  0  0  0
 24  4  1  0  0  0  0
 25 27  2  0  0  0  0
 26 27  1  0  0  0  0
 27 22  1  0  0  0  0
 28 29  2  0  0  0  0
 28  3  1  0  0  0  0
 30 29  1  0  0  0  0
 31 30  1  0  0  0  0
 32 31  1  0  0  0  0
 33 32  2  0  0  0  0
 34 32  1  0  0  0  0
 34 36  1  0  0  0  0
 36 35  2  0  0  0  0
 37 36  1  0  0  0  0
 38 37  1  0  0  0  0
 39 41  1  0  0  0  0
 39 22  1  0  0  0  0
 40 39  2  0  0  0  0
 43 41  1  0  0  0  0
 43 42  1  0  0  0  0
M  END
>  <MODEL>
8

>  <REMARK>
 VINA RESULT:      -4.1      3.612      8.669
  Name = 
  10 active torsions:
  status: ('A' for Active; 'I' for Inactive)
    1  A    between atoms: C_1  and  C_6
    2  A    between atoms: C_5  and  C_15
    3  A    between atoms: N_10  and  C_24
    4  A    between atoms: C_13  and  O_40
    5  A    between atoms: C_14  and  C_15
    6  A    between atoms: C_14  and  C_24
    7  A    between atoms: C_19  and  C_34
    8  A    between atoms: C_23  and  C_38
    9  A    between atoms: C_23  and  O_40
   10  A    between atoms: C_27  and  C_38
                            x       y       z     vdW  Elec       q    Type
                         _______ _______ _______ _____ _____    ______ ____

>  <TORSDO>
F 10

$$$$
=
 OpenBabel11042412413D

 43 45  0  0  1  0  0  0  0  0999 V2000
  187.2820  177.0580  147.3900 C   0  0  0  0  0  3  0  0  0  0  0  0
  189.3770  179.4290  142.7840 C   0  0  0  0  0  2  0  0  0  0  0  0
  187.4410  177.7640  142.5160 C   0  0  0  0  0  0  0  0  0  0  0  0
  190.5300  175.6800  141.5940 C   0  0  0  0  0  3  0  0  0  0  0  0
  190.0870  177.4670  139.9620 C   0  0  0  0  0  0  0  0  0  0  0  0
  189.5640  178.1950  147.6990 C   0  0  0  0  0  0  0  0  0  0  0  0
  190.3250  178.8280  148.4780 O   0  0  0  0  0  0  0  0  0  0  0  0
  188.2570  177.7900  148.1510 N   0  0  0  0  0  0  0  0  0  0  0  0
  190.0690  178.8440  144.0310 C   0  0  0  0  0  2  0  0  0  0  0  0
  189.1790  178.5210  145.2710 C   0  0  2  0  0  3  0  0  0  0  0  0
  190.9590  175.1300  144.1080 C   0  0  0  0  0  3  0  0  0  0  0  0
  190.0750  177.8950  146.3330 C   0  0  2  0  0  3  0  0  0  0  0  0
  191.3960  176.2030  145.0430 C   0  0  0  0  0  2  0  0  0  0  0  0
  189.0560  179.6340  139.9690 O   0  0  0  0  0  1  0  0  0  0  0  0
  190.7540  175.4040  142.8490 C   0  0  0  0  0  0  0  0  0  0  0  0
  188.9270  178.3240  140.4360 C   0  0  2  0  0  3  0  0  0  0  0  0
  190.3590  176.4030  146.1370 C   0  0  0  0  0  2  0  0  0  0  0  0
  188.7310  178.3010  141.9540 C   0  0  1  0  0  3  0  0  0  0  0  0
  187.5230  177.6100  143.7950 C   0  0  0  0  0  0  0  0  0  0  0  0
  187.1440  177.0100  146.0610 C   0  0  0  0  0  3  0  0  0  0  0  0
  187.9320  177.6850  145.0190 C   0  0  0  0  0  0  0  0  0  0  0  0
  190.2230  177.1490  138.6450 C   0  0  0  0  0  0  0  0  0  0  0  0
  187.9200  177.9960  149.5500 C   0  0  0  0  0  1  0  0  0  0  0  0
  191.0530  176.9430  140.9950 C   0  0  0  0  0  2  0  0  0  0  0  0
  191.3750  175.0220  138.0450 O   0  0  0  0  0  1  0  0  0  0  0  0
  192.4330  177.0140  137.7190 O   0  0  0  0  0  0  0  0  0  0  0  0
  191.4040  176.4100  138.1190 C   0  0  0  0  0  0  0  0  0  0  0  0
  186.1200  177.8840  141.8820 C   0  0  0  0  0  3  0  0  0  0  0  0
  185.7150  178.9820  141.2610 C   0  0  0  0  0  3  0  0  0  0  0  0
  184.3560  179.0560  140.6640 C   0  0  0  0  0  2  0  0  0  0  0  0
  183.5090  177.9320  141.2270 C   0  0  0  0  0  2  0  0  0  0  0  0
  182.5200  178.4720  142.2000 C   0  0  0  0  0  0  0  0  0  0  0  0
  181.2120  179.2890  141.6330 S   0  0  0  0  0  0  0  0  0  0  0  0
  182.7810  178.3130  143.6040 N   0  0  0  0  0  2  0  0  0  0  0  0
  184.2260  180.1280  143.9830 O   0  0  0  0  0  0  0  0  0  0  0  0
  183.6660  179.0880  144.4230 C   0  0  0  0  0  0  0  0  0  0  0  0
  183.8930  178.6800  145.8360 C   0  0  0  0  0  2  0  0  0  0  0  0
  185.1000  179.4020  146.3950 C   0  0  0  0  0  1  0  0  0  0  0  0
  189.1810  177.5150  137.6530 C   0  0  0  0  0  0  0  0  0  0  0  0
  189.3860  178.4460  136.8240 O   0  0  0  0  0  0  0  0  0  0  0  0
  187.9510  176.8480  137.6660 O   0  0  0  0  0  0  0  0  0  0  0  0
  185.5830  176.6880  137.2320 C   0  0  0  0  0  1  0  0  0  0  0  0
  186.7110  177.5330  137.7910 C   0  0  0  0  0  2  0  0  0  0  0  0
  1  8  1  0  0  0  0
  2  9  1  0  0  0  0
  3 19  2  0  0  0  0
  4 15  2  0  0  0  0
  5 16  1  0  0  0  0
  5 24  1  0  0  0  0
  6  8  1  0  0  0  0
  6  7  2  0  0  0  0
  8 23  1  0  0  0  0
 10  9  1  6  0  0  0
 10 12  1  0  0  0  0
 11 13  1  0  0  0  0
 12 17  1  6  0  0  0
 12  6  1  0  0  0  0
 13 17  1  0  0  0  0
 15 11  2  0  0  0  0
 16 14  1  1  0  0  0
 16 18  1  0  0  0  0
 18  3  1  0  0  0  0
 18  2  1  6  0  0  0
 19 21  2  0  0  0  0
 20  1  2  0  0  0  0
 21 10  1  0  0  0  0
 21 20  1  0  0  0  0
 22  5  2  0  0  0  0
 24  4  1  0  0  0  0
 25 27  1  0  0  0  0
 26 27  2  0  0  0  0
 27 22  1  0  0  0  0
 28  3  1  0  0  0  0
 29 28  2  0  0  0  0
 30 31  1  0  0  0  0
 30 29  1  0  0  0  0
 31 32  1  0  0  0  0
 32 34  1  0  0  0  0
 33 32  2  0  0  0  0
 34 36  1  0  0  0  0
 35 36  2  0  0  0  0
 36 37  1  0  0  0  0
 37 38  1  0  0  0  0
 39 41  1  0  0  0  0
 39 22  1  0  0  0  0
 40 39  2  0  0  0  0
 41 43  1  0  0  0  0
 42 43  1  0  0  0  0
M  END
>  <MODEL>
9

>  <REMARK>
 VINA RESULT:      -4.1      3.661      8.049
  Name = 
  10 active torsions:
  status: ('A' for Active; 'I' for Inactive)
    1  A    between atoms: C_1  and  C_6
    2  A    between atoms: C_5  and  C_15
    3  A    between atoms: N_10  and  C_24
    4  A    between atoms: C_13  and  O_40
    5  A    between atoms: C_14  and  C_15
    6  A    between atoms: C_14  and  C_24
    7  A    between atoms: C_19  and  C_34
    8  A    between atoms: C_23  and  C_38
    9  A    between atoms: C_23  and  O_40
   10  A    between atoms: C_27  and  C_38
                            x       y       z     vdW  Elec       q    Type
                         _______ _______ _______ _____ _____    ______ ____

>  <TORSDO>
F 10

$$$$
